33539
     RDKit          3D

 29 34  0  0  1  0  0  0  0  0999 V2000
    0.5288   -0.6261   -1.4748 O   0  0  0  0  0  0  0  0  0  0  0  0
    4.2911   -1.4893   -1.0912 O   0  0  0  0  0  0  0  0  0  0  0  0
    1.6626    1.0687   -2.6681 O   0  0  0  0  0  0  0  0  0  0  0  0
    6.1528   -0.0877    0.4037 O   0  0  0  0  0  0  0  0  0  0  0  0
   -6.0353    0.2507   -0.8229 O   0  0  0  0  0  0  0  0  0  0  0  0
   -6.2648   -2.0316   -0.6369 O   0  0  0  0  0  0  0  0  0  0  0  0
    0.4319   -0.6053   -0.0279 C   0  0  0  0  0  0  0  0  0  0  0  0
    1.3994    0.5045    0.3942 C   0  0  0  0  0  0  0  0  0  0  0  0
    2.5872    0.1823   -0.5553 C   0  0  0  0  0  0  0  0  0  0  0  0
   -1.0401   -0.3927    0.3899 C   0  0  0  0  0  0  0  0  0  0  0  0
   -1.5877    1.0412    0.1969 C   0  0  0  0  0  0  0  0  0  0  0  0
    3.3040   -1.1440   -0.1011 C   0  0  0  0  0  0  0  0  0  0  0  0
    0.9514   -1.9714    0.4929 C   0  0  0  0  0  0  0  0  0  0  0  0
    0.8207    1.9267    0.2361 C   0  0  0  0  0  0  0  0  0  0  0  0
    1.8181   -0.1005   -1.8749 C   0  0  0  0  0  0  0  0  0  0  0  0
   -0.5918    2.0689    0.7944 C   0  0  0  0  0  0  0  0  0  0  0  0
    2.3320   -2.3369   -0.0402 C   0  0  0  0  0  0  0  0  0  0  0  0
   -2.8966    1.0142    1.0504 C   0  0  0  0  0  0  0  0  0  0  0  0
    3.6393    1.3046   -0.6543 C   0  0  0  0  0  0  0  0  0  0  0  0
   -1.3252   -0.6848    1.8776 C   0  0  0  0  0  0  0  0  0  0  0  0
   -2.5056    0.1965    2.2915 C   0  0  0  0  0  0  0  0  0  0  0  0
    4.0555   -0.9474    1.2359 C   0  0  0  0  0  0  0  0  0  0  0  0
   -1.8607    1.3823   -1.2792 C   0  0  0  0  0  0  0  0  0  0  0  0
    4.3728    1.5203    0.6748 C   0  0  0  0  0  0  0  0  0  0  0  0
    5.0225    0.2441    1.2088 C   0  0  0  0  0  0  0  0  0  0  0  0
   -4.0945    0.3939    0.3828 C   0  0  0  0  0  0  0  0  0  0  0  0
   -5.0792    1.2090   -0.3571 C   0  0  0  0  0  0  0  0  0  0  0  0
   -4.4237   -0.8949    0.3616 C   0  0  0  0  0  0  0  0  0  0  0  0
   -5.6649   -0.9956   -0.4077 C   0  0  0  0  0  0  0  0  0  0  0  0
  1  7  1  0
  1 15  1  0
  2 12  1  0
  3 15  1  0
  4 25  1  0
  5 27  1  0
  5 29  1  0
  6 29  2  0
  7  8  1  0
  7 10  1  0
  7 13  1  0
  8  9  1  0
  8 14  1  0
  9 12  1  0
  9 15  1  0
  9 19  1  0
 10 11  1  0
 10 20  1  0
 11 16  1  0
 11 18  1  0
 11 23  1  0
 12 17  1  0
 12 22  1  0
 13 17  1  0
 14 16  1  0
 18 21  1  0
 18 26  1  0
 19 24  1  0
 20 21  1  0
 22 25  1  0
 24 25  1  0
 26 27  1  0
 26 28  2  0
 28 29  1  0
M  END
>  <PUBCHEM_COMPOUND_CID>  (1) 
33539

>  <PUBCHEM_CONFORMER_RMSD>  (1) 
0.8

>  <PUBCHEM_CONFORMER_DIVERSEORDER>  (1) 
1
6
8
9
4
3
5
2
7

>  <PUBCHEM_MMFF94_PARTIAL_CHARGES>  (1) 
19
1 -0.56
12 0.28
15 0.56
18 0.14
2 -0.68
25 0.28
26 -0.28
27 0.42
28 -0.14
29 0.71
3 -0.68
4 -0.68
5 -0.43
56 0.4
57 0.4
6 -0.57
60 0.4
61 0.15
7 0.28

>  <PUBCHEM_EFFECTIVE_ROTOR_COUNT>  (1) 
4

>  <PUBCHEM_PHARMACOPHORE_FEATURES>  (1) 
13
1 1 acceptor
1 2 acceptor
1 2 donor
1 3 acceptor
1 3 donor
1 4 acceptor
1 4 donor
1 6 acceptor
5 10 11 18 20 21 rings
5 5 26 27 28 29 rings
6 7 8 10 11 14 16 rings
6 9 12 19 22 24 25 rings
8 1 7 8 9 12 13 15 17 rings

>  <PUBCHEM_HEAVY_ATOM_COUNT>  (1) 
29

>  <PUBCHEM_ATOM_DEF_STEREO_COUNT>  (1) 
5

>  <PUBCHEM_ATOM_UDEF_STEREO_COUNT>  (1) 
4

>  <PUBCHEM_BOND_DEF_STEREO_COUNT>  (1) 
0

>  <PUBCHEM_BOND_UDEF_STEREO_COUNT>  (1) 
0

>  <PUBCHEM_ISOTOPIC_ATOM_COUNT>  (1) 
0

>  <PUBCHEM_COMPONENT_COUNT>  (1) 
1

>  <PUBCHEM_CACTVS_TAUTO_COUNT>  (1) 
1

>  <PUBCHEM_CONFORMER_ID>  (1) 
0000830300000001

>  <PUBCHEM_MMFF94_ENERGY>  (1) 
106.2818

>  <PUBCHEM_FEATURE_SELFOVERLAP>  (1) 
66.236

>  <PUBCHEM_SHAPE_FINGERPRINT>  (1) 
10 15 18261663862524822448
10366900 7 18188221926673692008
10930396 42 17606091079280804776
11089746 13 17458340849031374112
11578080 2 13985237681488361542
11796584 16 13984668044550084360
11963148 33 18342164600776333535
12011746 2 18408610253864742600
12166972 35 18113900476400927660
12236239 1 17489306356386608201
12403260 363 18259984846963252912
12596602 18 17418094312644744131
12788726 201 16917072135934858027
128620 24 17060060324212259513
13224815 77 18335155175503916337
13533116 47 17531796966505449810
13782708 43 16414653570197602324
14787075 74 18410290328574019112
15183329 4 15285354007751167283
15238133 3 11169902914255764191
15475509 8 10954006015076702258
15788980 27 17894916222128320385
1601671 61 9223236247327092155
16945 1 18191613949767474912
17349148 13 17894919507493510729
17492 89 18128255575854506246
17980427 23 17967542241765525437
1813 80 12540976245013835114
192875 21 17530689800850371301
19319366 153 14261350232959063092
19377110 9 15554452881226382699
19489759 90 17676203559464388097
19862831 5 14418138413383424441
200 152 18342175549184787201
20028762 73 18270676472589666318
20511986 3 18263064596634353547
20691752 17 18190480293339742920
20715895 44 17530961346326806693
21033648 29 18261096462183629992
21521721 280 14189287214419429754
22149856 69 18269857405694459739
22393880 68 18339362964144598847
23402539 116 17458058253548299053
23559900 14 17168153351099294176
25222932 49 18059283370479032623
2838139 119 12685080498293255471
3004659 81 18260831479553736063
3009799 131 16225758619112068149
34797466 226 15841273748001387824
3737641 26 13686036279846645573
4325135 7 17846494846352741139
4340502 62 18343013415552314418
439807 62 18264765644882876319
463206 1 18337111263215862347
474113 269 16952223492494431338
5104073 3 16701752540110235803
5283173 99 18114736028435236101
59755656 215 18410577267134778070
6328613 192 13045945698379461270
6442390 28 14476952402575684620
6669772 16 17414136229551478000
6913067 236 18187356640771034869
7495541 125 16702013180005252322
8509985 295 15791449322790709234

>  <PUBCHEM_SHAPE_MULTIPOLES>  (1) 
561.59
12.27
1.99
1.67
8.16
0.24
-0.2
2.32
-0.41
-0.19
-0.07
-0.22
-0.18
-0.16

>  <PUBCHEM_SHAPE_SELFOVERLAP>  (1) 
1246.101

>  <PUBCHEM_SHAPE_VOLUME>  (1) 
297.8

>  <PUBCHEM_COORDINATE_TYPE>  (1) 
2
5
10

$$$$
