33537
     RDKit          3D

 13 13  0  0  1  0  0  0  0  0999 V2000
   -0.1486   -1.1187    0.9068 O   0  0  0  0  0  0  0  0  0  0  0  0
   -0.8083    1.7783    1.0223 O   0  0  0  0  0  0  0  0  0  0  0  0
   -2.2212   -1.8645    0.2747 O   0  0  0  0  0  0  0  0  0  0  0  0
    2.8316    0.0986   -0.5104 O   0  0  0  0  0  0  0  0  0  0  0  0
    1.4576   -1.5980   -1.1658 O   0  0  0  0  0  0  0  0  0  0  0  0
   -0.2111    1.0245   -0.0392 C   0  0  0  0  0  0  0  0  0  0  0  0
    0.7278   -0.0386    0.5423 C   0  0  0  0  0  0  0  0  0  0  0  0
   -1.2902    0.1658   -0.7068 C   0  0  0  0  0  0  0  0  0  0  0  0
    0.4418    2.0165   -0.9992 C   0  0  0  0  0  0  0  0  0  0  0  0
   -1.3184   -1.0457    0.1966 C   0  0  0  0  0  0  0  0  0  0  0  0
    1.5171    0.3822    1.7772 C   0  0  0  0  0  0  0  0  0  0  0  0
   -2.6596    0.8171   -0.8267 C   0  0  0  0  0  0  0  0  0  0  0  0
    1.6814   -0.6174   -0.4718 C   0  0  0  0  0  0  0  0  0  0  0  0
  1  7  1  0
  1 10  1  0
  2  6  1  0
  3 10  2  0
  4 13  1  0
  5 13  2  0
  6  7  1  0
  6  8  1  0
  6  9  1  0
  7 11  1  0
  7 13  1  0
  8 10  1  0
  8 12  1  0
M  END
>  <PUBCHEM_COMPOUND_CID>  (1) 
33537

>  <PUBCHEM_CONFORMER_RMSD>  (1) 
0.6

>  <PUBCHEM_CONFORMER_DIVERSEORDER>  (1) 
2
4
3
1

>  <PUBCHEM_MMFF94_PARTIAL_CHARGES>  (1) 
12
1 -0.43
10 0.66
13 0.66
2 -0.68
24 0.4
25 0.5
3 -0.57
4 -0.65
5 -0.57
6 0.28
7 0.34
8 0.06

>  <PUBCHEM_EFFECTIVE_ROTOR_COUNT>  (1) 
1.8

>  <PUBCHEM_PHARMACOPHORE_FEATURES>  (1) 
7
1 2 acceptor
1 2 donor
1 3 acceptor
1 4 acceptor
1 5 acceptor
3 4 5 13 anion
5 1 6 7 8 10 rings

>  <PUBCHEM_HEAVY_ATOM_COUNT>  (1) 
13

>  <PUBCHEM_ATOM_DEF_STEREO_COUNT>  (1) 
3

>  <PUBCHEM_ATOM_UDEF_STEREO_COUNT>  (1) 
0

>  <PUBCHEM_BOND_DEF_STEREO_COUNT>  (1) 
0

>  <PUBCHEM_BOND_UDEF_STEREO_COUNT>  (1) 
0

>  <PUBCHEM_ISOTOPIC_ATOM_COUNT>  (1) 
0

>  <PUBCHEM_COMPONENT_COUNT>  (1) 
1

>  <PUBCHEM_CACTVS_TAUTO_COUNT>  (1) 
2

>  <PUBCHEM_CONFORMER_ID>  (1) 
0000830100000002

>  <PUBCHEM_MMFF94_ENERGY>  (1) 
29.8988

>  <PUBCHEM_FEATURE_SELFOVERLAP>  (1) 
35.578

>  <PUBCHEM_SHAPE_FINGERPRINT>  (1) 
10702982 57 16906951998362178569
12423570 1 9867822976384538449
13024252 1 15360840991293369982
137420 1 9721651555372563361
14128692 85 18190750927554870855
14817 1 17615352196162684640
15775835 57 17167863036879337532
161256 15 17899984021396811303
16945 1 18200601302004545816
21040471 1 18044355163642941641
22802520 49 18196385727221476934
23559900 14 18337104572025748786
241688 4 17978790108178259208
2748010 2 18267857474708630349
29004967 10 17988641934268734706
369184 2 17313114037846943500
4369600 1 18261100855480895421
5084963 1 18196657508340884363
528886 8 18408325458203150364

>  <PUBCHEM_SHAPE_MULTIPOLES>  (1) 
238.19
2.97
1.87
1.3
0.29
0.17
-0.29
-0.35
0.55
0.56
0.18
-0.56
0.11
0.33

>  <PUBCHEM_SHAPE_SELFOVERLAP>  (1) 
496.64

>  <PUBCHEM_SHAPE_VOLUME>  (1) 
137.5

>  <PUBCHEM_COORDINATE_TYPE>  (1) 
2
5
10

$$$$
