33556
     RDKit          3D

 29 33  0  0  1  0  0  0  0  0999 V2000
   -1.3979    1.4237    0.9094 O   0  0  0  0  0  0  0  0  0  0  0  0
    4.5460   -1.2939    2.1470 O   0  0  0  0  0  0  0  0  0  0  0  0
    6.0087    0.7337   -1.9287 O   0  0  0  0  0  0  0  0  0  0  0  0
   -5.5469    1.1787    0.4482 O   0  0  0  0  0  0  0  0  0  0  0  0
   -7.5183    0.2378    1.0774 O   0  0  0  0  0  0  0  0  0  0  0  0
   -0.6380    0.6585   -0.0383 C   0  0  0  0  0  0  0  0  0  0  0  0
   -1.3118   -0.7207   -0.2812 C   0  0  0  0  0  0  0  0  0  0  0  0
    0.8028    0.5620    0.5328 C   0  0  0  0  0  0  0  0  0  0  0  0
    1.7220   -0.4169   -0.2470 C   0  0  0  0  0  0  0  0  0  0  0  0
    3.1816   -0.5116    0.3488 C   0  0  0  0  0  0  0  0  0  0  0  0
   -2.5080   -0.3891   -1.2365 C   0  0  0  0  0  0  0  0  0  0  0  0
   -0.3411   -1.6667   -1.0425 C   0  0  0  0  0  0  0  0  0  0  0  0
    1.0348   -1.7867   -0.3927 C   0  0  0  0  0  0  0  0  0  0  0  0
   -0.7447    1.3444   -1.4096 C   0  0  0  0  0  0  0  0  0  0  0  0
    1.4662    1.9510    0.6311 C   0  0  0  0  0  0  0  0  0  0  0  0
   -2.0850    0.8861   -1.9948 C   0  0  0  0  0  0  0  0  0  0  0  0
    3.7356    0.9019    0.5588 C   0  0  0  0  0  0  0  0  0  0  0  0
   -1.7552   -1.4119    1.0241 C   0  0  0  0  0  0  0  0  0  0  0  0
    2.8411    1.8750    1.2830 C   0  0  0  0  0  0  0  0  0  0  0  0
    4.0759   -1.3078   -0.6541 C   0  0  0  0  0  0  0  0  0  0  0  0
    3.2066   -1.2427    1.7125 C   0  0  0  0  0  0  0  0  0  0  0  0
   -3.8545   -0.1860   -0.6057 C   0  0  0  0  0  0  0  0  0  0  0  0
    5.5722   -1.0925   -0.4266 C   0  0  0  0  0  0  0  0  0  0  0  0
    4.9513    1.2870    0.1289 C   0  0  0  0  0  0  0  0  0  0  0  0
    5.9367    0.3846   -0.5477 C   0  0  0  0  0  0  0  0  0  0  0  0
   -4.7372   -1.3175   -0.4899 C   0  0  0  0  0  0  0  0  0  0  0  0
   -4.2885    0.9898   -0.1406 C   0  0  0  0  0  0  0  0  0  0  0  0
   -5.9471   -1.1902    0.0636 C   0  0  0  0  0  0  0  0  0  0  0  0
   -6.4076    0.1196    0.5701 C   0  0  0  0  0  0  0  0  0  0  0  0
  1  6  1  0
  2 21  1  0
  3 25  1  0
  4 27  1  0
  4 29  1  0
  5 29  2  0
  6  7  1  0
  6  8  1  0
  6 14  1  0
  7 11  1  0
  7 12  1  0
  7 18  1  0
  8  9  1  0
  8 15  1  0
  9 10  1  0
  9 13  1  0
 10 17  1  0
 10 20  1  0
 10 21  1  0
 11 16  1  0
 11 22  1  0
 12 13  1  0
 14 16  1  0
 15 19  1  0
 17 19  1  0
 17 24  2  0
 20 23  1  0
 22 26  1  0
 22 27  2  0
 23 25  1  0
 24 25  1  0
 26 28  2  0
 28 29  1  0
M  END
>  <PUBCHEM_COMPOUND_CID>  (1) 
33556

>  <PUBCHEM_CONFORMER_RMSD>  (1) 
0.8

>  <PUBCHEM_CONFORMER_DIVERSEORDER>  (1) 
2
9
20
16
6
14
1
11
19
18
3
7
12
10
17
5
13
8
4
15

>  <PUBCHEM_MMFF94_PARTIAL_CHARGES>  (1) 
25
1 -0.68
10 0.14
11 0.14
17 -0.28
19 0.14
2 -0.68
21 0.28
22 -0.14
24 -0.29
25 0.42
26 -0.15
27 -0.07
28 -0.14
29 0.71
3 -0.68
4 -0.23
5 -0.57
52 0.4
55 0.15
57 0.15
58 0.15
59 0.4
6 0.28
60 0.4
61 0.15

>  <PUBCHEM_EFFECTIVE_ROTOR_COUNT>  (1) 
4

>  <PUBCHEM_PHARMACOPHORE_FEATURES>  (1) 
12
1 1 acceptor
1 1 donor
1 2 acceptor
1 2 donor
1 3 acceptor
1 3 donor
1 5 acceptor
5 6 7 11 14 16 rings
6 10 17 20 23 24 25 rings
6 4 22 26 27 28 29 rings
6 6 7 8 9 12 13 rings
6 8 9 10 15 17 19 rings

>  <PUBCHEM_HEAVY_ATOM_COUNT>  (1) 
29

>  <PUBCHEM_ATOM_DEF_STEREO_COUNT>  (1) 
5

>  <PUBCHEM_ATOM_UDEF_STEREO_COUNT>  (1) 
2

>  <PUBCHEM_BOND_DEF_STEREO_COUNT>  (1) 
0

>  <PUBCHEM_BOND_UDEF_STEREO_COUNT>  (1) 
0

>  <PUBCHEM_ISOTOPIC_ATOM_COUNT>  (1) 
0

>  <PUBCHEM_COMPONENT_COUNT>  (1) 
1

>  <PUBCHEM_CACTVS_TAUTO_COUNT>  (1) 
1

>  <PUBCHEM_CONFORMER_ID>  (1) 
0000831400000002

>  <PUBCHEM_MMFF94_ENERGY>  (1) 
106.9982

>  <PUBCHEM_FEATURE_SELFOVERLAP>  (1) 
61.087

>  <PUBCHEM_SHAPE_FINGERPRINT>  (1) 
10 15 18408046191789117761
10674148 151 17917718994230440924
10906281 52 18337689554322654539
11045977 3 18411699915756249619
11089746 13 13326853335816846783
11796584 16 14045738253404554444
12011746 2 18343589550949689966
12236239 1 18412265042640853036
12403259 415 18337098025588462549
12553582 1 18059278925377563820
12596602 18 15213011639832666317
12788726 201 18272651199456311936
13140716 1 18198605812980960570
13224815 77 18335411366646393742
13533116 47 17676480602061548442
13782708 43 17968372342948368715
13914758 101 13326583921235027259
14251758 9 17060616694307620197
14251764 18 18410013256524517775
14341114 176 18413109463856376793
14617045 38 18259985989545671738
14790565 3 18343586247867099448
14849402 71 18271811292979812361
14856354 85 18343306998405920871
14933364 13 18343868822666167525
14955137 171 18130791191575820321
15131766 46 12821569507767288690
15142383 8 17917711271046078905
15183329 4 18130784555719284325
15301273 46 18040152903907232853
15475509 8 17703524220054343828
15788980 27 16845568738559081221
15840311 113 17917430964954840937
1601671 61 18273213084215080030
17349148 13 17417811776795208547
17492 89 17315620817084778890
17980427 23 15140962803802592375
1813 80 17313096475921213349
18335252 98 16805328798778078731
18608769 82 18411418453210766558
19319366 153 17385433333091271154
20715895 44 11887678389807947731
20832881 197 17775283867810167800
21033648 29 18130497647508756930
21267235 1 18272655606820367510
21859007 373 14907622229356823978
23402539 116 11455891356175899539
23516275 137 18264792981194746851
23522609 53 18189639201051531717
23559900 14 17632008749810393568
23569917 315 12535345718914692341
24771293 8 17630587111615108184
3004659 81 18409167689233227478
3009799 131 8718829778016234391
335352 9 18131350821429494142
3411729 13 17986097725288702120
34797466 226 17095531699206836478
350125 39 18343866606141757145
4073 2 18336266863491070923
4093350 32 16702022019965890424
4325135 7 17385444331911048365
4340502 62 17022901263921732746
5104073 3 18114728335658030000
54039377 194 18264487296489330794
542803 24 18410008840580615486
58260988 393 16153702102921339932
59755656 215 16702312221440102948
7495541 125 18186792578473779432

>  <PUBCHEM_SHAPE_MULTIPOLES>  (1) 
567.46
15.46
1.87
1.5
10.18
0.09
0.06
-0.1
-1.4
-0.71
-0.2
-0.85
0.01
-0.26

>  <PUBCHEM_SHAPE_SELFOVERLAP>  (1) 
1235.941

>  <PUBCHEM_SHAPE_VOLUME>  (1) 
303.9

>  <PUBCHEM_COORDINATE_TYPE>  (1) 
2
5
10

$$$$
