33560
     RDKit          3D

 17 19  0  0  0  0  0  0  0  0999 V2000
    2.6406    0.4556    0.0299 N   0  0  0  0  0  0  0  0  0  0  0  0
   -2.9962    1.9069   -0.0396 N   0  0  0  0  0  0  0  0  0  0  0  0
    2.8176   -0.8423   -0.6363 C   0  0  0  0  0  0  0  0  0  0  0  0
    3.5026    0.5664    1.2151 C   0  0  0  0  0  0  0  0  0  0  0  0
    4.2699   -1.0463   -1.0706 C   0  0  0  0  0  0  0  0  0  0  0  0
    4.9772    0.4084    0.8414 C   0  0  0  0  0  0  0  0  0  0  0  0
    5.2261   -0.9049    0.1081 C   0  0  0  0  0  0  0  0  0  0  0  0
    1.2388    0.6557    0.3965 C   0  0  0  0  0  0  0  0  0  0  0  0
    0.3455    0.6748   -0.8444 C   0  0  0  0  0  0  0  0  0  0  0  0
   -1.1003    0.9029   -0.4819 C   0  0  0  0  0  0  0  0  0  0  0  0
   -2.0379   -0.1021   -0.1912 C   0  0  0  0  0  0  0  0  0  0  0  0
   -1.6899    2.1227   -0.3880 C   0  0  0  0  0  0  0  0  0  0  0  0
   -3.2371    0.5573    0.0873 C   0  0  0  0  0  0  0  0  0  0  0  0
   -2.0083   -1.5096   -0.1314 C   0  0  0  0  0  0  0  0  0  0  0  0
   -4.4127   -0.1230    0.4240 C   0  0  0  0  0  0  0  0  0  0  0  0
   -3.1766   -2.2035    0.2040 C   0  0  0  0  0  0  0  0  0  0  0  0
   -4.3592   -1.5189    0.4771 C   0  0  0  0  0  0  0  0  0  0  0  0
  1  3  1  0
  1  4  1  0
  1  8  1  0
  2 12  1  0
  2 13  1  0
  3  5  1  0
  4  6  1  0
  5  7  1  0
  6  7  1  0
  8  9  1  0
  9 10  1  0
 10 11  1  0
 10 12  2  0
 11 13  2  0
 11 14  1  0
 13 15  1  0
 14 16  2  0
 15 17  2  0
 16 17  1  0
M  END
>  <PUBCHEM_COMPOUND_CID>  (1) 
33560

>  <PUBCHEM_CONFORMER_RMSD>  (1) 
0.6

>  <PUBCHEM_CONFORMER_DIVERSEORDER>  (1) 
1
40
17
5
42
8
3
27
22
39
23
34
21
25
33
9
35
29
6
4
32
43
20
16
19
2
15
41
10
7
18
30
13
26
37
14
24
36
38
31
28
11
12

>  <PUBCHEM_MMFF94_PARTIAL_CHARGES>  (1) 
19
1 -0.81
10 -0.18
12 -0.3
13 -0.15
14 -0.15
15 -0.15
16 -0.15
17 -0.15
2 0.03
3 0.27
32 0.15
33 0.27
34 0.15
35 0.15
36 0.15
37 0.15
4 0.27
8 0.27
9 0.18

>  <PUBCHEM_EFFECTIVE_ROTOR_COUNT>  (1) 
4.2

>  <PUBCHEM_PHARMACOPHORE_FEATURES>  (1) 
6
1 1 cation
1 2 cation
1 2 donor
5 2 10 11 12 13 rings
6 1 3 4 5 6 7 rings
6 11 13 14 15 16 17 rings

>  <PUBCHEM_HEAVY_ATOM_COUNT>  (1) 
17

>  <PUBCHEM_ATOM_DEF_STEREO_COUNT>  (1) 
0

>  <PUBCHEM_ATOM_UDEF_STEREO_COUNT>  (1) 
0

>  <PUBCHEM_BOND_DEF_STEREO_COUNT>  (1) 
0

>  <PUBCHEM_BOND_UDEF_STEREO_COUNT>  (1) 
0

>  <PUBCHEM_ISOTOPIC_ATOM_COUNT>  (1) 
0

>  <PUBCHEM_COMPONENT_COUNT>  (1) 
1

>  <PUBCHEM_CACTVS_TAUTO_COUNT>  (1) 
1

>  <PUBCHEM_CONFORMER_ID>  (1) 
0000831800000001

>  <PUBCHEM_MMFF94_ENERGY>  (1) 
18.7211

>  <PUBCHEM_FEATURE_SELFOVERLAP>  (1) 
30.539

>  <PUBCHEM_SHAPE_FINGERPRINT>  (1) 
105312 117 17606385576355289701
10616163 171 18408325471056929738
11046707 91 18114179748264773285
11128504 68 17095252427706532638
11370993 144 17703238320870655315
11552529 35 16844439617037052487
12236239 1 17240485797010481804
12507560 40 18130786754821765012
12633257 1 17417542426732993835
13167823 11 18187078421859628258
13675066 3 18059851762303417932
13862211 1 18337111280691104443
14252887 29 17346605145223703966
14341114 176 18343586248341664944
14386348 63 18272934912369062694
14420673 8 18122346783566945594
15042514 8 18336834203681712323
15653759 3 18343301461660156828
17804303 29 18411422821329637181
17834072 33 18114187466769572884
17834074 16 18413671296791214542
17844677 252 18411705374633698856
1813 80 17675927616067769684
18785283 64 17984971846756514680
19141452 34 18201159948870637743
193927 3 18041289866990544563
200 152 15213014947052195732
21065198 57 18343018861586728400
21065199 12 18272930518664933232
21065201 7 18335698291799479080
21079973 296 18411699898344174330
21267235 1 18261682553552366635
21650355 55 18410011057269445981
22646028 1 17603864507560773920
22646028 28 17894911845208479602
2297311 6 18340497707083226764
23175994 123 17418096507283536889
23402539 116 18113612395753602286
23402655 69 11963387440766347514
23557571 272 18341618083709820348
23559900 14 18411415133233020052
26918003 58 18060135419091671840
2838139 119 15338563692304701161
312423 11 17968392228704640204
351380 3 17676206883410301435
4214541 1 18410855430306315168
4325135 7 18187086200319785876
5104073 3 18271519811155699904
542803 24 13542463172451492192
559249 180 17968088660336758131
573450 72 18040988502046504000
5924683 9 17703501216315157783
602551 16 18335137605336280698
67856867 119 18042410303968434644
77779 3 18411982451473876640
9709674 26 18338518654682932386

>  <PUBCHEM_SHAPE_MULTIPOLES>  (1) 
339.89
11.24
1.94
0.94
8.68
0.06
-0.02
3.61
-1.94
-2
0.11
0.77
-0.01
0.97

>  <PUBCHEM_SHAPE_SELFOVERLAP>  (1) 
725.283

>  <PUBCHEM_SHAPE_VOLUME>  (1) 
190.5

>  <PUBCHEM_COORDINATE_TYPE>  (1) 
2
5
10

$$$$
