33576
     RDKit          3D

 36 39  0  0  1  0  0  0  0  0999 V2000
    4.2201   -0.0548    0.9411 P   0  0  0  0  0  0  0  0  0  0  0  0
    3.1807    2.5264   -0.0152 P   0  0  0  0  0  0  0  0  0  0  0  0
    0.5435   -3.3117    0.1469 O   0  0  0  0  0  0  0  0  0  0  0  0
    2.0635   -3.4979   -2.4900 O   0  0  0  0  0  0  0  0  0  0  0  0
    0.0795   -1.7256   -3.0453 O   0  0  0  0  0  0  0  0  0  0  0  0
   -0.7752    2.1665   -1.7528 O   0  0  0  0  0  0  0  0  0  0  0  0
    3.7065   -1.5420    0.5630 O   0  0  0  0  0  0  0  0  0  0  0  0
   -2.3210    3.4118    1.2392 O   0  0  0  0  0  0  0  0  0  0  0  0
   -3.3415    3.5985   -1.3071 O   0  0  0  0  0  0  0  0  0  0  0  0
    1.6908    2.8408   -0.5595 O   0  0  0  0  0  0  0  0  0  0  0  0
   -2.6305    1.7812   -3.1917 O   0  0  0  0  0  0  0  0  0  0  0  0
    3.1379    0.9340    0.2595 O   0  0  0  0  0  0  0  0  0  0  0  0
    3.9095    0.0892    2.5223 O   0  0  0  0  0  0  0  0  0  0  0  0
    5.6433    0.2345    0.5608 O   0  0  0  0  0  0  0  0  0  0  0  0
    3.1905    3.1526    1.4763 O   0  0  0  0  0  0  0  0  0  0  0  0
    4.3063    2.9775   -0.8994 O   0  0  0  0  0  0  0  0  0  0  0  0
   -1.5506   -2.3282   -0.3802 N   0  0  0  0  0  0  0  0  0  0  0  0
   -3.7189   -1.8289   -0.2424 N   0  0  0  0  0  0  0  0  0  0  0  0
   -0.7739   -1.3976    1.7249 N   0  0  0  0  0  0  0  0  0  0  0  0
   -2.6091   -0.3900    2.9792 N   0  0  0  0  0  0  0  0  0  0  0  0
   -4.8600   -0.3665    2.1669 N   0  0  0  0  0  0  0  0  0  0  0  0
    1.9117   -2.4089   -1.5794 C   0  0  0  0  0  0  0  0  0  0  0  0
    0.5139   -1.8360   -1.7052 C   0  0  0  0  0  0  0  0  0  0  0  0
    1.9124   -2.9551   -0.1550 C   0  0  0  0  0  0  0  0  0  0  0  0
   -0.3025   -2.8562   -0.9264 C   0  0  0  0  0  0  0  0  0  0  0  0
    2.3799   -1.9335    0.8720 C   0  0  0  0  0  0  0  0  0  0  0  0
   -1.9560    2.4425    0.2804 C   0  0  0  0  0  0  0  0  0  0  0  0
   -0.6970    2.8389   -0.4805 C   0  0  0  0  0  0  0  0  0  0  0  0
   -2.9560    2.3048   -0.8471 C   0  0  0  0  0  0  0  0  0  0  0  0
   -2.0956    1.6078   -1.8917 C   0  0  0  0  0  0  0  0  0  0  0  0
    0.5838    2.4393    0.2307 C   0  0  0  0  0  0  0  0  0  0  0  0
   -1.7148   -1.6822    0.8119 C   0  0  0  0  0  0  0  0  0  0  0  0
   -2.7820   -2.3914   -0.9769 C   0  0  0  0  0  0  0  0  0  0  0  0
   -3.0659   -1.3814    0.8786 C   0  0  0  0  0  0  0  0  0  0  0  0
   -3.5054   -0.7100    2.0150 C   0  0  0  0  0  0  0  0  0  0  0  0
   -1.3180   -0.7485    2.7771 C   0  0  0  0  0  0  0  0  0  0  0  0
  1  7  1  0
  1 12  1  0
  1 13  1  0
  1 14  2  0
  2 10  1  0
  2 12  1  0
  2 15  1  0
  2 16  2  0
  3 24  1  0
  3 25  1  0
  4 22  1  0
  5 23  1  0
  6 28  1  0
  6 30  1  0
  7 26  1  0
  8 27  1  0
  9 29  1  0
 10 31  1  0
 11 30  1  0
 17 25  1  0
 17 32  1  0
 17 33  1  0
 18 33  2  0
 18 34  1  0
 19 32  1  0
 19 36  2  0
 20 35  2  0
 20 36  1  0
 21 35  1  0
 22 23  1  0
 22 24  1  0
 23 25  1  0
 24 26  1  0
 27 28  1  0
 27 29  1  0
 28 31  1  0
 29 30  1  0
 32 34  2  0
 34 35  1  0
M  END
>  <PUBCHEM_COMPOUND_CID>  (1) 
33576

>  <PUBCHEM_CONFORMER_RMSD>  (1) 
1.6

>  <PUBCHEM_CONFORMER_DIVERSEORDER>  (1) 
2
135
64
119
70
124
76
67
19
142
9
127
97
113
138
84
29
46
8
81
100
30
109
90
49
110
51
3
13
35
118
4
40
123
125
130
98
48
112
141
14
136
6
26
82
5
101
73
137
85
88
91
21
126
131
31
89
92
115
96
95
11
52
79
106
80
43
22
133
94
134
103
111
34
128
120
69
68
32
16
47
129
122
62
1
33
72
139
59
20
27
15
117
41
86
116
74
53
108
24
78
18
44
107
104
60
56
102
7
25
75
28
71
65
105
93
87
12
42
121
58
17
99
114
36
45
140
10
57
38
37
61
66
55
132
50
77
63
54
23
39
83

>  <PUBCHEM_MMFF94_PARTIAL_CHARGES>  (1) 
47
1 1.51
10 -0.55
11 -0.68
12 -0.54
13 -0.77
14 -0.7
15 -0.77
16 -0.7
17 0.05
18 -0.57
19 -0.57
2 1.51
20 -0.62
21 -0.9
22 0.28
23 0.28
24 0.28
25 0.54
26 0.28
27 0.28
28 0.28
29 0.28
3 -0.56
30 0.56
31 0.28
32 0.11
33 0.04
34 0.23
35 0.41
36 0.47
4 -0.68
49 0.4
5 -0.68
50 0.4
51 0.15
52 0.4
53 0.4
54 0.4
55 0.15
56 0.5
57 0.4
58 0.4
59 0.5
6 -0.56
7 -0.55
8 -0.68
9 -0.68

>  <PUBCHEM_EFFECTIVE_ROTOR_COUNT>  (1) 
11

>  <PUBCHEM_PHARMACOPHORE_FEATURES>  (1) 
25
1 11 acceptor
1 11 donor
1 13 acceptor
1 14 acceptor
1 15 acceptor
1 16 acceptor
1 21 cation
1 21 donor
1 3 acceptor
1 4 acceptor
1 4 donor
1 5 acceptor
1 5 donor
1 6 acceptor
1 8 acceptor
1 8 donor
1 9 acceptor
1 9 donor
3 17 18 33 cation
3 17 19 32 cation
3 19 20 36 cation
5 17 18 32 33 34 rings
5 3 22 23 24 25 rings
5 6 27 28 29 30 rings
6 19 20 32 34 35 36 rings

>  <PUBCHEM_HEAVY_ATOM_COUNT>  (1) 
36

>  <PUBCHEM_ATOM_DEF_STEREO_COUNT>  (1) 
7

>  <PUBCHEM_ATOM_UDEF_STEREO_COUNT>  (1) 
1

>  <PUBCHEM_BOND_DEF_STEREO_COUNT>  (1) 
0

>  <PUBCHEM_BOND_UDEF_STEREO_COUNT>  (1) 
0

>  <PUBCHEM_ISOTOPIC_ATOM_COUNT>  (1) 
0

>  <PUBCHEM_COMPONENT_COUNT>  (1) 
1

>  <PUBCHEM_CACTVS_TAUTO_COUNT>  (1) 
3

>  <PUBCHEM_CONFORMER_ID>  (1) 
0000832800000002

>  <PUBCHEM_MMFF94_ENERGY>  (1) 
46.5398

>  <PUBCHEM_FEATURE_SELFOVERLAP>  (1) 
127.588

>  <PUBCHEM_SHAPE_FINGERPRINT>  (1) 
10708813 3 17837779185072289666
10721379 63 9434642389359117995
11578080 2 18197229043970970571
12107698 1 18188474861629787130
12156800 1 17314535658815277245
12422481 6 18334870411247233569
12539773 59 17339004461263263438
13122387 1 17833543492804694396
13965767 371 18197517309364491592
14840074 17 18119544368512831472
15276724 80 18338519759745016124
20764821 26 18339089168284485804
3027735 51 18268422602585004277
35225 105 17245006838674413359
4112364 45 17197173702902051753
469060 322 18338504343815037474
5081480 168 17201100088456379630

>  <PUBCHEM_SHAPE_MULTIPOLES>  (1) 
641.49
7.88
5.34
2.81
5.04
1.85
-0.11
2.25
3.28
0.44
-2.27
-1.65
-0.59
1.85

>  <PUBCHEM_SHAPE_SELFOVERLAP>  (1) 
1338.182

>  <PUBCHEM_SHAPE_VOLUME>  (1) 
366.5

>  <PUBCHEM_COORDINATE_TYPE>  (1) 
2
5
10

$$$$
