33572
     RDKit          3D

 21 22  0  0  1  0  0  0  0  0999 V2000
    3.3606    2.7122   -0.8480 O   0  0  0  0  0  0  0  0  0  0  0  0
    5.1802   -3.1616   -0.0017 O   0  0  0  0  0  0  0  0  0  0  0  0
   -7.0996   -0.7714   -0.7257 O   0  0  0  0  0  0  0  0  0  0  0  0
    0.4053    0.8984    0.4920 N   0  0  0  0  0  0  0  0  0  0  0  0
    1.1403    1.8140   -0.3896 C   0  0  0  0  0  0  0  0  0  0  0  0
    2.6237    1.8676    0.0404 C   0  0  0  0  0  0  0  0  0  0  0  0
   -0.9746    0.7707    0.0569 C   0  0  0  0  0  0  0  0  0  0  0  0
    0.4589    3.1822   -0.3230 C   0  0  0  0  0  0  0  0  0  0  0  0
    3.3092    0.5180    0.0292 C   0  0  0  0  0  0  0  0  0  0  0  0
   -1.7522   -0.1758    0.9720 C   0  0  0  0  0  0  0  0  0  0  0  0
   -3.1814   -0.3347    0.5180 C   0  0  0  0  0  0  0  0  0  0  0  0
    3.9045    0.0537    1.1887 C   0  0  0  0  0  0  0  0  0  0  0  0
    3.3257   -0.2205   -1.1409 C   0  0  0  0  0  0  0  0  0  0  0  0
   -4.1507    0.5283    1.0058 C   0  0  0  0  0  0  0  0  0  0  0  0
   -3.5021   -1.3420   -0.3793 C   0  0  0  0  0  0  0  0  0  0  0  0
    4.5369   -1.1895    1.1778 C   0  0  0  0  0  0  0  0  0  0  0  0
    3.9581   -1.4637   -1.1517 C   0  0  0  0  0  0  0  0  0  0  0  0
    4.5637   -1.9483    0.0077 C   0  0  0  0  0  0  0  0  0  0  0  0
   -5.4728    0.3805    0.5862 C   0  0  0  0  0  0  0  0  0  0  0  0
   -4.8242   -1.4897   -0.7990 C   0  0  0  0  0  0  0  0  0  0  0  0
   -5.8095   -0.6285   -0.3161 C   0  0  0  0  0  0  0  0  0  0  0  0
  1  6  1  0
  2 18  1  0
  3 21  1  0
  4  5  1  0
  4  7  1  0
  5  6  1  0
  5  8  1  0
  6  9  1  0
  7 10  1  0
  9 12  2  0
  9 13  1  0
 10 11  1  0
 11 14  2  0
 11 15  1  0
 12 16  1  0
 13 17  2  0
 14 19  1  0
 15 20  2  0
 16 18  2  0
 17 18  1  0
 19 21  2  0
 20 21  1  0
M  END
>  <PUBCHEM_COMPOUND_CID>  (1) 
33572

>  <PUBCHEM_CONFORMER_RMSD>  (1) 
0.8

>  <PUBCHEM_CONFORMER_DIVERSEORDER>  (1) 
1
30
19
15
4
3
12
20
2
9
18
10
23
24
17
21
26
5
27
29
22
13
16
11
7
8
6
28
25
14

>  <PUBCHEM_MMFF94_PARTIAL_CHARGES>  (1) 
32
1 -0.68
10 0.14
11 -0.14
12 -0.15
13 -0.15
14 -0.15
15 -0.15
16 -0.15
17 -0.15
18 0.08
19 -0.15
2 -0.53
20 -0.15
21 0.08
24 0.36
3 -0.53
32 0.15
33 0.15
34 0.4
35 0.15
36 0.15
37 0.15
38 0.15
39 0.15
4 -0.9
40 0.15
41 0.45
42 0.45
5 0.27
6 0.42
7 0.27
9 -0.14

>  <PUBCHEM_EFFECTIVE_ROTOR_COUNT>  (1) 
6

>  <PUBCHEM_PHARMACOPHORE_FEATURES>  (1) 
8
1 1 acceptor
1 1 donor
1 2 donor
1 3 donor
1 4 cation
1 4 donor
6 11 14 15 19 20 21 rings
6 9 12 13 16 17 18 rings

>  <PUBCHEM_HEAVY_ATOM_COUNT>  (1) 
21

>  <PUBCHEM_ATOM_DEF_STEREO_COUNT>  (1) 
2

>  <PUBCHEM_ATOM_UDEF_STEREO_COUNT>  (1) 
0

>  <PUBCHEM_BOND_DEF_STEREO_COUNT>  (1) 
0

>  <PUBCHEM_BOND_UDEF_STEREO_COUNT>  (1) 
0

>  <PUBCHEM_ISOTOPIC_ATOM_COUNT>  (1) 
0

>  <PUBCHEM_COMPONENT_COUNT>  (1) 
1

>  <PUBCHEM_CACTVS_TAUTO_COUNT>  (1) 
4

>  <PUBCHEM_CONFORMER_ID>  (1) 
0000832400000001

>  <PUBCHEM_MMFF94_ENERGY>  (1) 
49.6241

>  <PUBCHEM_FEATURE_SELFOVERLAP>  (1) 
40.597

>  <PUBCHEM_SHAPE_FINGERPRINT>  (1) 
10670039 82 14779534643870076023
11858739 19 18412541011923040855
12107183 9 18198072369785354505
12895836 83 13912902950564472506
13073987 5 18342181106988909233
13167823 11 18343022228956970587
13533116 47 18342738554756661545
13782708 43 17531821276495300275
13911852 28 18339078164483795446
13914758 101 18411696561956529701
14211702 104 18339644572440154915
14251740 57 17489316252281681926
14347332 77 18342454851277512477
14429115 67 18201721747324015136
1454969 45 18410578410133791684
14565420 104 17630308956843251128
146900 427 9655580712222412589
15183329 4 18412547613630796277
15188451 53 17775279435356607651
15210252 30 8430303646243885846
15250474 111 17986101031943924119
15419008 42 17843684349305151485
15885798 251 18409731733691497080
17349148 13 17989216953517945201
17818456 19 18058182643396916089
17857418 61 18201999945551928111
1813 80 18260268538174737092
18222031 100 18271816700453491660
18335252 114 18336252510833896549
20028762 73 18131349687464209110
20369508 70 18113894975032864896
20403669 9 18410013208578348606
20621476 91 14764052502860626741
20645477 70 18261393385951423784
21279426 13 18113888322324053181
21478907 32 18337108956122163401
21728266 224 17346309453937002519
22061861 79 18113051649661833311
2215653 11 18040435495021546059
2303208 19 17313394465357991273
23081809 10 18130795585860036305
23559900 14 18337111284004584953
23622692 118 18337113359196605084
29717793 49 18411134745241426089
3004659 81 18343306976266198820
3421961 26 18411699894239377504
34797466 226 15864364592001844325
463206 1 18333449841654921706
5104073 3 18059584619822401011
5207 123 18409730621194337884
543368 44 10809352148203091347
559249 180 18272088254520121483
573450 72 17846505833348609081
59682541 52 18335133228859227151
6025842 7 18263365940251263836
7164475 11 18409170982872620756
7808743 9 10014707590007734514
7970288 3 18337670798443871570
8988823 20 17489580203496393064
960060 61 18113909277073396572
9971528 1 18409447020119658201
9981440 41 17186714460407656649

>  <PUBCHEM_SHAPE_MULTIPOLES>  (1) 
409.58
15.51
2.79
1.11
16.6
0.88
-0.06
-9.58
0.77
-4.1
0.62
-0.43
-0.13
-1.03

>  <PUBCHEM_SHAPE_SELFOVERLAP>  (1) 
859.416

>  <PUBCHEM_SHAPE_VOLUME>  (1) 
232.1

>  <PUBCHEM_COORDINATE_TYPE>  (1) 
2
5
10

$$$$
