33581
     RDKit          3D

 22 24  0  0  0  0  0  0  0  0999 V2000
    2.1183    1.6242    0.0438 O   0  0  0  0  0  0  0  0  0  0  0  0
    2.2791   -1.9210   -0.0983 O   0  0  0  0  0  0  0  0  0  0  0  0
    1.5606    0.3158    0.0202 N   0  0  0  0  0  0  0  0  0  0  0  0
   -2.6187    0.0962    0.0058 C   0  0  0  0  0  0  0  0  0  0  0  0
    0.1673    0.2428    0.0156 C   0  0  0  0  0  0  0  0  0  0  0  0
   -4.0637    0.0201    0.0020 C   0  0  0  0  0  0  0  0  0  0  0  0
   -1.8587   -1.0714   -0.0608 C   0  0  0  0  0  0  0  0  0  0  0  0
   -1.9857    1.3373    0.0773 C   0  0  0  0  0  0  0  0  0  0  0  0
   -0.4657   -0.9982   -0.0558 C   0  0  0  0  0  0  0  0  0  0  0  0
   -0.5928    1.4106    0.0822 C   0  0  0  0  0  0  0  0  0  0  0  0
   -4.7605    0.0512   -1.2061 C   0  0  0  0  0  0  0  0  0  0  0  0
   -4.7600   -0.0852    1.2061 C   0  0  0  0  0  0  0  0  0  0  0  0
    2.5101   -0.7161   -0.0387 C   0  0  0  0  0  0  0  0  0  0  0  0
    3.9387   -0.3451   -0.0170 C   0  0  0  0  0  0  0  0  0  0  0  0
   -6.1534   -0.0224   -1.2101 C   0  0  0  0  0  0  0  0  0  0  0  0
   -6.1530   -0.1590    1.2021 C   0  0  0  0  0  0  0  0  0  0  0  0
    4.5920   -0.2445    1.1991 C   0  0  0  0  0  0  0  0  0  0  0  0
    4.5930   -0.1066   -1.2131 C   0  0  0  0  0  0  0  0  0  0  0  0
   -6.8496   -0.1276   -0.0060 C   0  0  0  0  0  0  0  0  0  0  0  0
    5.9420    0.1058    1.2198 C   0  0  0  0  0  0  0  0  0  0  0  0
    5.9431    0.2435   -1.1923 C   0  0  0  0  0  0  0  0  0  0  0  0
    6.6175    0.3497    0.0241 C   0  0  0  0  0  0  0  0  0  0  0  0
  1  3  1  0
  2 13  2  0
  3  5  1  0
  3 13  1  0
  4  6  1  0
  4  7  2  0
  4  8  1  0
  5  9  2  0
  5 10  1  0
  6 11  2  0
  6 12  1  0
  7  9  1  0
  8 10  2  0
 11 15  1  0
 12 16  2  0
 13 14  1  0
 14 17  2  0
 14 18  1  0
 15 19  2  0
 16 19  1  0
 17 20  1  0
 18 21  2  0
 20 22  2  0
 21 22  1  0
M  END
>  <PUBCHEM_COMPOUND_CID>  (1) 
33581

>  <PUBCHEM_CONFORMER_RMSD>  (1) 
0.6

>  <PUBCHEM_CONFORMER_DIVERSEORDER>  (1) 
1
10
15
14
18
21
9
22
11
20
19
23
7
5
13
12
6
2
16
8
17
4
3

>  <PUBCHEM_MMFF94_PARTIAL_CHARGES>  (1) 
35
1 -0.44
10 -0.15
11 -0.15
12 -0.15
13 0.54
14 0.09
15 -0.15
16 -0.15
17 -0.15
18 -0.15
19 -0.15
2 -0.57
20 -0.15
21 -0.15
22 -0.15
23 0.15
24 0.15
25 0.15
26 0.15
27 0.15
28 0.15
29 0.15
3 -0.14
30 0.15
31 0.15
32 0.15
33 0.15
34 0.15
35 0.15
36 0.15
37 0.4
5 0.12
7 -0.15
8 -0.15
9 -0.15

>  <PUBCHEM_EFFECTIVE_ROTOR_COUNT>  (1) 
4

>  <PUBCHEM_PHARMACOPHORE_FEATURES>  (1) 
4
1 2 acceptor
6 14 17 18 20 21 22 rings
6 4 5 7 8 9 10 rings
6 6 11 12 15 16 19 rings

>  <PUBCHEM_HEAVY_ATOM_COUNT>  (1) 
22

>  <PUBCHEM_ATOM_DEF_STEREO_COUNT>  (1) 
0

>  <PUBCHEM_ATOM_UDEF_STEREO_COUNT>  (1) 
0

>  <PUBCHEM_BOND_DEF_STEREO_COUNT>  (1) 
0

>  <PUBCHEM_BOND_UDEF_STEREO_COUNT>  (1) 
0

>  <PUBCHEM_ISOTOPIC_ATOM_COUNT>  (1) 
0

>  <PUBCHEM_COMPONENT_COUNT>  (1) 
1

>  <PUBCHEM_CACTVS_TAUTO_COUNT>  (1) 
1

>  <PUBCHEM_CONFORMER_ID>  (1) 
0000832D00000001

>  <PUBCHEM_MMFF94_ENERGY>  (1) 
82.1712

>  <PUBCHEM_FEATURE_SELFOVERLAP>  (1) 
20.297

>  <PUBCHEM_SHAPE_FINGERPRINT>  (1) 
10 15 18187639246036502632
10299344 5 16200153188108561878
10906281 52 18339379512046896134
10968037 39 18411982472853566399
11315181 36 16630806630422864297
11646440 116 18273220810914233912
11719270 70 17894906309207184474
11963148 33 18334008419405936906
12091667 2 18343302561783610341
12166972 35 14117513268268942435
12236239 1 16298104285096227008
12516196 113 17917991685176293625
12730499 353 17489592247312730158
12788726 201 18261950752268344113
13073987 5 18337390422555808353
13288520 33 16487254379331138277
13533116 47 18130507423382375342
13862211 1 18411132537396049419
14123256 10 18411138034832778196
1420 363 18413110554271466418
14251752 14 16732977617992594701
14251764 18 17917992793805045167
14251764 46 18410857663462228386
14849402 71 17274252989027653048
14933364 13 15482672381266595883
15183329 4 18408322189838676157
15537594 2 18342736312673333599
15716309 27 15123789587364651741
17844677 252 15339123450253226635
19489759 90 15574432111931874053
21150785 3 17894628184636909919
21236236 1 18339643335457730137
21267235 1 18410863144357501748
21641784 216 18187942629056360948
220451 1 17632579335883442399
221357 26 16917351420604744280
22224240 67 18201993353019994922
22956985 138 17828474770694164266
23035841 295 17060338509017421606
23198884 109 16558753412366241371
23402539 116 14273454782280938143
23516275 137 14907361731005935327
23522609 53 17701849693678319792
23536379 177 15791447119409202177
23559900 14 18269549597376373561
23569943 247 17558565607607704638
23622692 88 18413388756404002477
29717793 49 13479135675021309506
3004659 81 18333453162059831932
34797466 226 18060425733544146596
3545911 37 18412545409642744710
4073 2 17060333080590456838
4325135 7 18410012130773386844
4340502 62 16805323284235606906
4463277 17 18202566163801557345
5104073 3 18195528099440317946
5486654 2 18411421721797124758
5758199 1 17989488528120583970
59755656 215 18413388717833933118
59755656 520 14117511035218459077

>  <PUBCHEM_SHAPE_MULTIPOLES>  (1) 
436.03
18.84
1.16
1.15
0.79
0.01
0.02
0.05
-0.07
-0.01
0
-0.24
-0.02
0.12

>  <PUBCHEM_SHAPE_SELFOVERLAP>  (1) 
958.611

>  <PUBCHEM_SHAPE_VOLUME>  (1) 
234.2

>  <PUBCHEM_COORDINATE_TYPE>  (1) 
2
5
10

$$$$
