33587
     RDKit          3D

 13 14  0  0  0  0  0  0  0  0999 V2000
   -0.2011   -1.9145   -0.1458 O   0  0  0  0  0  0  0  0  0  0  0  0
    3.1337    0.6786   -1.1140 O   0  0  0  0  0  0  0  0  0  0  0  0
    2.0601   -1.9242    0.3125 O   0  0  0  0  0  0  0  0  0  0  0  0
    0.8173    0.0520    0.4575 N   0  0  0  0  0  0  0  0  0  0  0  0
   -0.5143    0.3337    0.2425 C   0  0  0  0  0  0  0  0  0  0  0  0
    1.8045    1.0243    0.8537 C   0  0  0  0  0  0  0  0  0  0  0  0
   -1.1030   -0.8612   -0.1179 C   0  0  0  0  0  0  0  0  0  0  0  0
    1.0096   -1.3002    0.2246 C   0  0  0  0  0  0  0  0  0  0  0  0
    2.4631    1.6727   -0.3502 C   0  0  0  0  0  0  0  0  0  0  0  0
   -1.2290    1.5099    0.3329 C   0  0  0  0  0  0  0  0  0  0  0  0
   -2.4479   -0.9470   -0.4099 C   0  0  0  0  0  0  0  0  0  0  0  0
   -2.5942    1.4472    0.0412 C   0  0  0  0  0  0  0  0  0  0  0  0
   -3.1988    0.2289   -0.3272 C   0  0  0  0  0  0  0  0  0  0  0  0
  1  7  1  0
  1  8  1  0
  2  9  1  0
  3  8  2  0
  4  5  1  0
  4  6  1  0
  4  8  1  0
  5  7  2  0
  5 10  1  0
  6  9  1  0
  7 11  1  0
 10 12  2  0
 11 13  2  0
 12 13  1  0
M  END
>  <PUBCHEM_COMPOUND_CID>  (1) 
33587

>  <PUBCHEM_CONFORMER_RMSD>  (1) 
0.6

>  <PUBCHEM_CONFORMER_DIVERSEORDER>  (1) 
2
4
1
3

>  <PUBCHEM_MMFF94_PARTIAL_CHARGES>  (1) 
18
1 -0.23
10 -0.15
11 -0.15
12 -0.15
13 -0.15
18 0.15
19 0.15
2 -0.68
20 0.15
21 0.15
22 0.4
3 -0.57
4 -0.48
5 0.12
6 0.3
7 0.08
8 0.78
9 0.28

>  <PUBCHEM_EFFECTIVE_ROTOR_COUNT>  (1) 
2

>  <PUBCHEM_PHARMACOPHORE_FEATURES>  (1) 
5
1 2 acceptor
1 2 donor
1 3 acceptor
5 1 4 5 7 8 rings
6 5 7 10 11 12 13 rings

>  <PUBCHEM_HEAVY_ATOM_COUNT>  (1) 
13

>  <PUBCHEM_ATOM_DEF_STEREO_COUNT>  (1) 
0

>  <PUBCHEM_ATOM_UDEF_STEREO_COUNT>  (1) 
0

>  <PUBCHEM_BOND_DEF_STEREO_COUNT>  (1) 
0

>  <PUBCHEM_BOND_UDEF_STEREO_COUNT>  (1) 
0

>  <PUBCHEM_ISOTOPIC_ATOM_COUNT>  (1) 
0

>  <PUBCHEM_COMPONENT_COUNT>  (1) 
1

>  <PUBCHEM_CACTVS_TAUTO_COUNT>  (1) 
1

>  <PUBCHEM_CONFORMER_ID>  (1) 
0000833300000002

>  <PUBCHEM_MMFF94_ENERGY>  (1) 
32.4969

>  <PUBCHEM_FEATURE_SELFOVERLAP>  (1) 
25.485

>  <PUBCHEM_SHAPE_FINGERPRINT>  (1) 
10465860 71 17985280573041872054
11206711 2 18268418204559501381
12202030 40 14548441596467842989
12423570 1 12141282348692725249
12897270 3 18340484564298723413
12932764 1 17917704730032030337
13380535 21 18411146831047204179
13380535 76 18409160039142274858
14614273 12 18262220227159085901
15775835 57 18410863139566980701
16945 1 18267857462076695761
19973954 147 18339355262972759913
20645476 183 17751360801334866718
21040471 1 18340758338293363139
21501502 16 18339921524388157891
22802520 49 18057338373032124652
2334 1 18411975862825005779
23402539 116 18126554842183568700
23552423 10 18336819789138230299
2748010 2 18412537704687485599
3071541 158 18047750399662250190
353137 74 18340773735730279929
5084963 1 18198893721950075283
57177213 63 18334013912483172988
7364860 26 18272081661286412226
8030462 33 18342729724287998557

>  <PUBCHEM_SHAPE_MULTIPOLES>  (1) 
244.94
4.51
2.04
0.8
0
0.38
0.05
-1.31
0.97
0.5
-0.06
0.35
-0.13
-0.38

>  <PUBCHEM_SHAPE_SELFOVERLAP>  (1) 
528.247

>  <PUBCHEM_SHAPE_VOLUME>  (1) 
135.9

>  <PUBCHEM_COORDINATE_TYPE>  (1) 
2
5
10

$$$$
