33593
     RDKit          3D

 14 14  0  0  0  0  0  0  0  0999 V2000
   -2.8190   -0.9317    0.0498 S   0  0  0  0  0  0  0  0  0  0  0  0
   -2.7784   -1.6669   -1.4100 O   0  0  0  0  0  0  0  0  0  0  0  0
   -2.5185   -1.9497    1.0461 O   0  0  0  0  0  0  0  0  0  0  0  0
   -4.0464   -0.1550    0.1300 O   0  0  0  0  0  0  0  0  0  0  0  0
    2.1771    0.3067    0.9191 C   0  0  0  0  0  0  0  0  0  0  0  0
    3.0223   -0.2633   -0.2221 C   0  0  0  0  0  0  0  0  0  0  0  0
    0.8112    0.7306    0.4432 C   0  0  0  0  0  0  0  0  0  0  0  0
    4.3914   -0.7229    0.2788 C   0  0  0  0  0  0  0  0  0  0  0  0
   -0.2314   -0.1841    0.4655 C   0  0  0  0  0  0  0  0  0  0  0  0
   -1.4962    0.2076    0.0265 C   0  0  0  0  0  0  0  0  0  0  0  0
    0.6177    2.0278   -0.0080 C   0  0  0  0  0  0  0  0  0  0  0  0
    5.2211   -1.3278   -0.8426 C   0  0  0  0  0  0  0  0  0  0  0  0
   -1.7039    1.5094   -0.4295 C   0  0  0  0  0  0  0  0  0  0  0  0
   -0.6470    2.4193   -0.4468 C   0  0  0  0  0  0  0  0  0  0  0  0
  1  2  1  0
  1  3  2  0
  1  4  2  0
  1 10  1  0
  5  6  1  0
  5  7  1  0
  6  8  1  0
  7  9  2  0
  7 11  1  0
  8 12  1  0
  9 10  1  0
 10 13  2  0
 11 14  2  0
 13 14  1  0
M  END
>  <PUBCHEM_COMPOUND_CID>  (1) 
33593

>  <PUBCHEM_CONFORMER_RMSD>  (1) 
0.6

>  <PUBCHEM_CONFORMER_DIVERSEORDER>  (1) 
1
6
13
15
16
2
10
14
12
7
17
9
8
11
5
3
4

>  <PUBCHEM_MMFF94_PARTIAL_CHARGES>  (1) 
16
1 1.49
10 -0.01
11 -0.15
13 -0.15
14 -0.15
2 -0.68
21 0.15
22 0.15
26 0.15
27 0.15
28 0.5
3 -0.65
4 -0.65
5 0.14
7 -0.14
9 -0.15

>  <PUBCHEM_EFFECTIVE_ROTOR_COUNT>  (1) 
4

>  <PUBCHEM_PHARMACOPHORE_FEATURES>  (1) 
6
1 12 hydrophobe
1 2 acceptor
1 3 acceptor
1 4 acceptor
4 1 2 3 4 anion
6 7 9 10 11 13 14 rings

>  <PUBCHEM_HEAVY_ATOM_COUNT>  (1) 
14

>  <PUBCHEM_ATOM_DEF_STEREO_COUNT>  (1) 
0

>  <PUBCHEM_ATOM_UDEF_STEREO_COUNT>  (1) 
0

>  <PUBCHEM_BOND_DEF_STEREO_COUNT>  (1) 
0

>  <PUBCHEM_BOND_UDEF_STEREO_COUNT>  (1) 
0

>  <PUBCHEM_ISOTOPIC_ATOM_COUNT>  (1) 
0

>  <PUBCHEM_COMPONENT_COUNT>  (1) 
1

>  <PUBCHEM_CACTVS_TAUTO_COUNT>  (1) 
1

>  <PUBCHEM_CONFORMER_ID>  (1) 
0000833900000001

>  <PUBCHEM_MMFF94_ENERGY>  (1) 
16.6769

>  <PUBCHEM_FEATURE_SELFOVERLAP>  (1) 
30.503

>  <PUBCHEM_SHAPE_FINGERPRINT>  (1) 
11127187 94 18260259720464096333
11543360 7 14779547915387332250
11769659 78 18059569260444278287
12032990 46 18408887368726948368
12186901 62 18188487965089723252
12553582 1 18333721425295049667
16945 1 17750494313157930193
17804303 29 18343021081710365161
18186145 218 17168136892504956416
19141452 34 18060419127351526399
20281475 54 18200875179210542052
20374829 77 18410570678322324722
204376 136 10159701308573144104
20645477 70 17974837669383682447
20871998 22 18337670948281780808
20871999 31 18187922829045564020
21061003 4 17346875629104901464
23402539 116 18113616747309717222
23403322 49 18341333280381349014
23557571 272 18341620252979385308
23559900 14 18338227156149066008
2748010 2 18190722306088560581
3071541 250 18189060943934595124
328317 168 8934999248378008051
449060 23 18411973689255062328
7364860 26 18123468551161225272
83771 10 18342176669881191944
8809292 202 18260268581113665795

>  <PUBCHEM_SHAPE_MULTIPOLES>  (1) 
274.35
7.95
2.17
0.96
8.91
0.7
-0.08
-5.51
-1.38
-1.2
-0.31
-0.02
-0.29
0.48

>  <PUBCHEM_SHAPE_SELFOVERLAP>  (1) 
543.204

>  <PUBCHEM_SHAPE_VOLUME>  (1) 
164.1

>  <PUBCHEM_COORDINATE_TYPE>  (1) 
2
5
10

$$$$
