33619
     RDKit          3D

 15 17  0  0  0  0  0  0  0  0999 V2000
   -3.5283    0.4248    0.0029 N   0  0  0  0  0  0  0  0  0  0  0  0
    0.2711    0.4885    0.0010 C   0  0  0  0  0  0  0  0  0  0  0  0
    2.7256    1.1207    0.0239 C   0  0  0  0  0  0  0  0  0  0  0  0
    1.9522   -0.9439    1.2447 C   0  0  0  0  0  0  0  0  0  0  0  0
    1.9645   -0.9004   -1.2750 C   0  0  0  0  0  0  0  0  0  0  0  0
    1.2837    1.6578    0.0259 C   0  0  0  0  0  0  0  0  0  0  0  0
    0.5124   -0.4010    1.2437 C   0  0  0  0  0  0  0  0  0  0  0  0
    0.5247   -0.3577   -1.2692 C   0  0  0  0  0  0  0  0  0  0  0  0
    2.9381    0.2361    1.2636 C   0  0  0  0  0  0  0  0  0  0  0  0
    2.9504    0.2793   -1.2434 C   0  0  0  0  0  0  0  0  0  0  0  0
    2.1808   -1.7749   -0.0288 C   0  0  0  0  0  0  0  0  0  0  0  0
   -1.1621    1.0267    0.0032 C   0  0  0  0  0  0  0  0  0  0  0  0
   -2.1730   -0.1124    0.0193 C   0  0  0  0  0  0  0  0  0  0  0  0
   -4.5126   -0.6482    0.0073 C   0  0  0  0  0  0  0  0  0  0  0  0
   -5.9275   -0.0954   -0.0189 C   0  0  0  0  0  0  0  0  0  0  0  0
  1 13  1  0
  1 14  1  0
  2  6  1  0
  2  7  1  0
  2  8  1  0
  2 12  1  0
  3  6  1  0
  3  9  1  0
  3 10  1  0
  4  7  1  0
  4  9  1  0
  4 11  1  0
  5  8  1  0
  5 10  1  0
  5 11  1  0
 12 13  1  0
 14 15  1  0
M  END
>  <PUBCHEM_COMPOUND_CID>  (1) 
33619

>  <PUBCHEM_CONFORMER_RMSD>  (1) 
0.6

>  <PUBCHEM_CONFORMER_DIVERSEORDER>  (1) 
1
4
2
5
3

>  <PUBCHEM_MMFF94_PARTIAL_CHARGES>  (1) 
4
1 -0.9
13 0.27
14 0.27
35 0.36

>  <PUBCHEM_EFFECTIVE_ROTOR_COUNT>  (1) 
5.2

>  <PUBCHEM_PHARMACOPHORE_FEATURES>  (1) 
6
1 1 cation
1 1 donor
6 2 3 4 6 7 9 rings
6 2 3 5 6 8 10 rings
6 2 4 5 7 8 11 rings
6 3 4 5 9 10 11 rings

>  <PUBCHEM_HEAVY_ATOM_COUNT>  (1) 
15

>  <PUBCHEM_ATOM_DEF_STEREO_COUNT>  (1) 
0

>  <PUBCHEM_ATOM_UDEF_STEREO_COUNT>  (1) 
0

>  <PUBCHEM_BOND_DEF_STEREO_COUNT>  (1) 
0

>  <PUBCHEM_BOND_UDEF_STEREO_COUNT>  (1) 
0

>  <PUBCHEM_ISOTOPIC_ATOM_COUNT>  (1) 
0

>  <PUBCHEM_COMPONENT_COUNT>  (1) 
1

>  <PUBCHEM_CACTVS_TAUTO_COUNT>  (1) 
1

>  <PUBCHEM_CONFORMER_ID>  (1) 
0000835300000001

>  <PUBCHEM_MMFF94_ENERGY>  (1) 
26.8146

>  <PUBCHEM_FEATURE_SELFOVERLAP>  (1) 
42.962

>  <PUBCHEM_SHAPE_FINGERPRINT>  (1) 
12423570 1 8825324475905487240
12616999 72 18260276251851364335
12654215 9 11602543113092098430
13571099 22 11963387419070068960
14115302 16 17167867469391211923
14252887 29 18343868818392292905
15061688 2 14346946212474682326
16945 1 18411135853279678436
18186145 218 11963387432271267501
20645477 70 18408602539966705647
23402655 69 17749388161700332805
23557571 272 17458335317488283925
276578 36 16702296875527254678
3060560 45 18342182193193252334
522135 26 18335421257850600835
5374978 207 16917067746578358627
54040823 5 18413394245446105066

>  <PUBCHEM_SHAPE_MULTIPOLES>  (1) 
303.71
8.09
1.37
1.25
17.93
0.02
-0.01
0.68
-0.03
-0.93
0.01
-1.14
0.23
0

>  <PUBCHEM_SHAPE_SELFOVERLAP>  (1) 
634.697

>  <PUBCHEM_SHAPE_VOLUME>  (1) 
166.3

>  <PUBCHEM_COORDINATE_TYPE>  (1) 
2
5
10

$$$$
