33629
     RDKit          3D

  6  5  0  0  0  0  0  0  0  0999 V2000
    1.7003    0.5282   -0.0036 C   0  0  0  0  0  0  0  0  0  0  0  0
    0.7817   -0.6935   -0.0007 C   0  0  0  0  0  0  0  0  0  0  0  0
    3.1785    0.1619    0.0035 C   0  0  0  0  0  0  0  0  0  0  0  0
   -0.6400   -0.3218   -0.0007 C   0  0  0  0  0  0  0  0  0  0  0  0
   -1.8027   -0.0211   -0.0004 C   0  0  0  0  0  0  0  0  0  0  0  0
   -3.2178    0.3464    0.0018 C   0  0  0  0  0  0  0  0  0  0  0  0
  1  2  1  0
  1  3  1  0
  2  4  1  0
  4  5  3  0
  5  6  1  0
M  END
>  <PUBCHEM_COMPOUND_CID>  (1) 
33629

>  <PUBCHEM_CONFORMER_RMSD>  (1) 
0.4

>  <PUBCHEM_CONFORMER_DIVERSEORDER>  (1) 
1
2
3

>  <PUBCHEM_MMFF94_PARTIAL_CHARGES>  (1) 
4
2 0.2
4 -0.2
5 -0.2
6 0.2

>  <PUBCHEM_EFFECTIVE_ROTOR_COUNT>  (1) 
1

>  <PUBCHEM_PHARMACOPHORE_FEATURES>  (1) 
2
1 3 hydrophobe
1 6 hydrophobe

>  <PUBCHEM_HEAVY_ATOM_COUNT>  (1) 
6

>  <PUBCHEM_ATOM_DEF_STEREO_COUNT>  (1) 
0

>  <PUBCHEM_ATOM_UDEF_STEREO_COUNT>  (1) 
0

>  <PUBCHEM_BOND_DEF_STEREO_COUNT>  (1) 
0

>  <PUBCHEM_BOND_UDEF_STEREO_COUNT>  (1) 
0

>  <PUBCHEM_ISOTOPIC_ATOM_COUNT>  (1) 
0

>  <PUBCHEM_COMPONENT_COUNT>  (1) 
1

>  <PUBCHEM_CACTVS_TAUTO_COUNT>  (1) 
1

>  <PUBCHEM_CONFORMER_ID>  (1) 
0000835D00000001

>  <PUBCHEM_MMFF94_ENERGY>  (1) 
-1.8624

>  <PUBCHEM_FEATURE_SELFOVERLAP>  (1) 
10.149

>  <PUBCHEM_SHAPE_FINGERPRINT>  (1) 
11062470 55 11887955449399846994
14325111 11 18410856581183340742
14390081 3 18343580741903363057
20096714 4 18411418457468648176
29004967 10 8935003680778911230
5460574 1 9223232944381138339

>  <PUBCHEM_SHAPE_MULTIPOLES>  (1) 
123.48
5.22
0.78
0.62
0.32
0.03
0
-1.02
0.01
-0.08
0
0
0
0

>  <PUBCHEM_SHAPE_SELFOVERLAP>  (1) 
214.036

>  <PUBCHEM_SHAPE_VOLUME>  (1) 
81.8

>  <PUBCHEM_COORDINATE_TYPE>  (1) 
2
5
10

$$$$
