33631
     RDKit          3D

 12 12  0  0  0  0  0  0  0  0999 V2000
   -4.7888   -0.4095    0.3298 O   0  0  0  0  0  0  0  0  0  0  0  0
   -3.5800    1.3126   -0.5378 O   0  0  0  0  0  0  0  0  0  0  0  0
   -0.0282   -0.9612    0.1248 N   0  0  0  0  0  0  0  0  0  0  0  0
    1.2390   -0.3738   -0.3059 C   0  0  0  0  0  0  0  0  0  0  0  0
    1.4710    0.9550    0.4217 C   0  0  0  0  0  0  0  0  0  0  0  0
    2.3852   -1.3563   -0.0414 C   0  0  0  0  0  0  0  0  0  0  0  0
    2.8240    1.5621    0.0540 C   0  0  0  0  0  0  0  0  0  0  0  0
    3.7368   -0.7464   -0.4091 C   0  0  0  0  0  0  0  0  0  0  0  0
    3.9671    0.5827    0.3046 C   0  0  0  0  0  0  0  0  0  0  0  0
   -1.1368   -0.0644   -0.1637 C   0  0  0  0  0  0  0  0  0  0  0  0
   -2.4573   -0.6997    0.2610 C   0  0  0  0  0  0  0  0  0  0  0  0
   -3.6320    0.1988   -0.0380 C   0  0  0  0  0  0  0  0  0  0  0  0
  1 12  1  0
  2 12  2  0
  3  4  1  0
  3 10  1  0
  4  5  1  0
  4  6  1  0
  5  7  1  0
  6  8  1  0
  7  9  1  0
  8  9  1  0
 10 11  1  0
 11 12  1  0
M  END
>  <PUBCHEM_COMPOUND_CID>  (1) 
33631

>  <PUBCHEM_CONFORMER_RMSD>  (1) 
0.6

>  <PUBCHEM_CONFORMER_DIVERSEORDER>  (1) 
1
27
31
21
22
13
35
2
14
26
12
33
15
9
8
28
32
39
36
41
24
5
6
10
25
3
40
4
19
30
16
23
43
11
17
18
34
7
44
29
38
37
20
42

>  <PUBCHEM_MMFF94_PARTIAL_CHARGES>  (1) 
9
1 -0.65
10 0.27
11 0.06
12 0.66
2 -0.57
24 0.36
29 0.5
3 -0.9
4 0.27

>  <PUBCHEM_EFFECTIVE_ROTOR_COUNT>  (1) 
5.2

>  <PUBCHEM_PHARMACOPHORE_FEATURES>  (1) 
6
1 1 acceptor
1 2 acceptor
1 3 cation
1 3 donor
3 1 2 12 anion
6 4 5 6 7 8 9 rings

>  <PUBCHEM_HEAVY_ATOM_COUNT>  (1) 
12

>  <PUBCHEM_ATOM_DEF_STEREO_COUNT>  (1) 
0

>  <PUBCHEM_ATOM_UDEF_STEREO_COUNT>  (1) 
0

>  <PUBCHEM_BOND_DEF_STEREO_COUNT>  (1) 
0

>  <PUBCHEM_BOND_UDEF_STEREO_COUNT>  (1) 
0

>  <PUBCHEM_ISOTOPIC_ATOM_COUNT>  (1) 
0

>  <PUBCHEM_COMPONENT_COUNT>  (1) 
1

>  <PUBCHEM_CACTVS_TAUTO_COUNT>  (1) 
1

>  <PUBCHEM_CONFORMER_ID>  (1) 
0000835F00000001

>  <PUBCHEM_MMFF94_ENERGY>  (1) 
1.5414

>  <PUBCHEM_FEATURE_SELFOVERLAP>  (1) 
30.503

>  <PUBCHEM_SHAPE_FINGERPRINT>  (1) 
10608611 8 18409164428493375621
11062470 55 17775284962831694514
11471102 20 18341894091345715076
11987891 27 15123506982431636604
12932764 1 17530951493165485775
13081056 2 18410012147879649501
13922767 16 18413385436784607616
14123238 8 18413671326950866159
14325111 11 18411136960953914447
14415576 193 18409732880563524020
18186145 218 18342746195181701491
190213 19 17704072897477707122
20279233 1 18259991482603141099
20606313 2 18343021099301502416
20645477 70 18201160966508959246
23402539 116 13542463133596346098
23402655 69 18273213084167847628
42 15 18260550017519904051
449060 50 18336828683767483045
522135 26 18342178860393699110
69090 78 18412823620745218143
77779 3 18411420618048285575

>  <PUBCHEM_SHAPE_MULTIPOLES>  (1) 
230.23
8.87
1.38
0.68
6.85
0.2
0.01
0.84
-0.05
-0.81
0.03
-0.03
0.02
0.48

>  <PUBCHEM_SHAPE_SELFOVERLAP>  (1) 
444.656

>  <PUBCHEM_SHAPE_VOLUME>  (1) 
138.4

>  <PUBCHEM_COORDINATE_TYPE>  (1) 
2
5
10

$$$$
