33641
     RDKit          3D

 21 24  0  0  1  0  0  0  0  0999 V2000
    2.4766    0.3825    1.3797 O   0  0  0  0  0  0  0  0  0  0  0  0
    2.3849    3.0741    0.3275 O   0  0  0  0  0  0  0  0  0  0  0  0
   -1.5040   -2.6268    0.6335 O   0  0  0  0  0  0  0  0  0  0  0  0
   -1.8656    2.5519   -0.6478 O   0  0  0  0  0  0  0  0  0  0  0  0
    2.3704   -0.8237   -2.1752 N   0  0  0  0  0  0  0  0  0  0  0  0
    0.8808   -1.0045    0.2945 N   0  0  0  0  0  0  0  0  0  0  0  0
   -4.2034    1.2300   -0.3249 N   0  0  0  0  0  0  0  0  0  0  0  0
    2.7917   -0.2946   -0.8816 C   0  0  0  0  0  0  0  0  0  0  0  0
    1.8006    0.1481    0.1510 C   0  0  0  0  0  0  0  0  0  0  0  0
    2.6044   -1.7616   -1.0854 C   0  0  0  0  0  0  0  0  0  0  0  0
    1.4463   -2.2359   -0.2539 C   0  0  0  0  0  0  0  0  0  0  0  0
    0.8632    1.3304   -0.2647 C   0  0  0  0  0  0  0  0  0  0  0  0
   -0.4263   -0.5793    0.2039 C   0  0  0  0  0  0  0  0  0  0  0  0
   -0.5118    0.7184   -0.0881 C   0  0  0  0  0  0  0  0  0  0  0  0
    1.0723    2.5975    0.5598 C   0  0  0  0  0  0  0  0  0  0  0  0
   -1.6051   -1.4366    0.3558 C   0  0  0  0  0  0  0  0  0  0  0  0
   -1.8030    1.3724   -0.3148 C   0  0  0  0  0  0  0  0  0  0  0  0
    3.3182   -0.7083    1.7279 C   0  0  0  0  0  0  0  0  0  0  0  0
   -2.9384   -0.7740    0.1732 C   0  0  0  0  0  0  0  0  0  0  0  0
   -3.0392    0.5367   -0.1368 C   0  0  0  0  0  0  0  0  0  0  0  0
   -4.1125   -1.6970    0.3663 C   0  0  0  0  0  0  0  0  0  0  0  0
  1  9  1  0
  1 18  1  0
  2 15  1  0
  3 16  2  0
  4 17  2  0
  5  8  1  0
  5 10  1  0
  6  9  1  0
  6 11  1  0
  6 13  1  0
  7 20  1  0
  8  9  1  0
  8 10  1  0
  9 12  1  0
 10 11  1  0
 12 14  1  0
 12 15  1  0
 13 14  2  0
 13 16  1  0
 14 17  1  0
 16 19  1  0
 17 20  1  0
 19 20  2  0
 19 21  1  0
M  END
>  <PUBCHEM_COMPOUND_CID>  (1) 
33641

>  <PUBCHEM_CONFORMER_RMSD>  (1) 
0.6

>  <PUBCHEM_CONFORMER_DIVERSEORDER>  (1) 
1

>  <PUBCHEM_MMFF94_PARTIAL_CHARGES>  (1) 
27
1 -0.56
10 -0.04
11 0.46
12 0.14
13 0.11
14 -0.12
15 0.28
16 0.54
17 0.54
18 0.28
19 -0.12
2 -0.68
20 0.11
21 0.14
22 0.1
23 0.1
24 0.36
3 -0.57
33 0.4
37 0.4
38 0.4
4 -0.57
5 -0.68
6 -0.84
7 -0.9
8 -0.04
9 0.74

>  <PUBCHEM_EFFECTIVE_ROTOR_COUNT>  (1) 
2.6

>  <PUBCHEM_PHARMACOPHORE_FEATURES>  (1) 
13
1 1 acceptor
1 2 acceptor
1 2 donor
1 3 acceptor
1 4 acceptor
1 5 cation
1 5 donor
1 6 cation
1 7 cation
1 7 donor
5 6 9 12 13 14 rings
6 13 14 16 17 19 20 rings
6 5 6 8 9 10 11 rings

>  <PUBCHEM_HEAVY_ATOM_COUNT>  (1) 
21

>  <PUBCHEM_ATOM_DEF_STEREO_COUNT>  (1) 
4

>  <PUBCHEM_ATOM_UDEF_STEREO_COUNT>  (1) 
0

>  <PUBCHEM_BOND_DEF_STEREO_COUNT>  (1) 
0

>  <PUBCHEM_BOND_UDEF_STEREO_COUNT>  (1) 
0

>  <PUBCHEM_ISOTOPIC_ATOM_COUNT>  (1) 
0

>  <PUBCHEM_COMPONENT_COUNT>  (1) 
1

>  <PUBCHEM_CACTVS_TAUTO_COUNT>  (1) 
21

>  <PUBCHEM_CONFORMER_ID>  (1) 
0000836900000001

>  <PUBCHEM_MMFF94_ENERGY>  (1) 
85.9774

>  <PUBCHEM_FEATURE_SELFOVERLAP>  (1) 
66.246

>  <PUBCHEM_SHAPE_FINGERPRINT>  (1) 
10608611 8 18410574024186120857
10967382 1 18193559097685358785
1100329 8 15602858502650450626
11132069 177 18411134693643672963
11578080 2 13684302220913126859
12236239 1 17458064838007639218
12553582 1 18337398145223536981
12633257 1 18410290285746029273
13140716 1 18335137609720860489
13296908 3 18272937107065825911
13538477 17 17749112175069717443
14178342 30 18269832013013907441
14223421 5 18267308822959676881
14790565 3 17906191559015951165
16752209 62 18117842101406635509
16945 1 18409449167771578459
18186145 218 18200881677860083843
19049666 15 18127969706940992249
20600515 1 18194948652998001960
20645477 70 18270112543641190247
20691752 17 17240760735369000505
20871999 31 18267322944659120340
20905425 154 17977668941435912706
21501502 16 18337382867856287465
21524375 3 17692531534712372592
22721475 48 18410302418859555631
22802520 49 18339371841583491119
23184049 29 18335696156894881737
232386 152 18187074036392076834
2334 1 17976823404225302147
23419403 2 13094587384159434753
23559900 14 18339926996398370670
2748010 2 18120382213653110727
5939293 188 18411694404902096440
7364860 26 18199476626158335100
74978 22 18412834568537247129
77492 1 17095810918856237318
81228 2 17840880568356997472
84936 31 17132119052211270118
9709674 26 18340206392468530463
9862522 239 17767385148312780792

>  <PUBCHEM_SHAPE_MULTIPOLES>  (1) 
393.75
6.06
2.92
1.19
3.95
1.17
0.11
-1.01
-0.21
-0.12
-0.09
-1.32
-0.3
1.03

>  <PUBCHEM_SHAPE_SELFOVERLAP>  (1) 
871.477

>  <PUBCHEM_SHAPE_VOLUME>  (1) 
213.5

>  <PUBCHEM_COORDINATE_TYPE>  (1) 
2
5
10

$$$$
