33661
     RDKit          3D

 32 34  0  0  0  0  0  0  0  0999 V2000
    0.0017    0.0007   -0.8741 P   0  0  0  0  0  0  0  0  0  0  0  0
   -1.1894    0.8542   -0.1825 O   0  0  0  0  0  0  0  0  0  0  0  0
    1.3341    0.5998   -0.1814 O   0  0  0  0  0  0  0  0  0  0  0  0
   -0.1457   -1.4528   -0.1815 O   0  0  0  0  0  0  0  0  0  0  0  0
    0.0016    0.0008   -2.3772 O   0  0  0  0  0  0  0  0  0  0  0  0
   -3.0509    2.5412    1.1788 C   0  0  0  0  0  0  0  0  0  0  0  0
    3.7254    1.3676    1.1810 C   0  0  0  0  0  0  0  0  0  0  0  0
   -0.6761   -3.9079    1.1806 C   0  0  0  0  0  0  0  0  0  0  0  0
   -3.4711    1.4167    0.2910 C   0  0  0  0  0  0  0  0  0  0  0  0
    2.9631    2.2938    0.2919 C   0  0  0  0  0  0  0  0  0  0  0  0
    0.5071   -3.7106    0.2914 C   0  0  0  0  0  0  0  0  0  0  0  0
   -2.5213    0.6220   -0.3510 C   0  0  0  0  0  0  0  0  0  0  0  0
    1.8021    1.8745   -0.3513 C   0  0  0  0  0  0  0  0  0  0  0  0
    0.7244   -2.4954   -0.3517 C   0  0  0  0  0  0  0  0  0  0  0  0
   -3.5313    3.9094    0.6609 C   0  0  0  0  0  0  0  0  0  0  0  0
   -3.5089    2.3422    2.6353 C   0  0  0  0  0  0  0  0  0  0  0  0
    5.1508    1.0982    0.6644 C   0  0  0  0  0  0  0  0  0  0  0  0
    3.7813    1.8650    2.6371 C   0  0  0  0  0  0  0  0  0  0  0  0
   -1.6220   -5.0076    0.6639 C   0  0  0  0  0  0  0  0  0  0  0  0
   -0.2731   -4.2052    2.6367 C   0  0  0  0  0  0  0  0  0  0  0  0
   -4.8307    1.1648    0.1067 C   0  0  0  0  0  0  0  0  0  0  0  0
    3.4258    3.5966    0.1070 C   0  0  0  0  0  0  0  0  0  0  0  0
    1.4040   -4.7627    0.1063 C   0  0  0  0  0  0  0  0  0  0  0  0
   -2.9313   -0.4247   -1.1771 C   0  0  0  0  0  0  0  0  0  0  0  0
    1.0999    2.7471   -1.1779 C   0  0  0  0  0  0  0  0  0  0  0  0
    1.8312   -2.3233   -1.1783 C   0  0  0  0  0  0  0  0  0  0  0  0
   -5.2404    0.1182   -0.7195 C   0  0  0  0  0  0  0  0  0  0  0  0
    2.7256    4.4746   -0.7205 C   0  0  0  0  0  0  0  0  0  0  0  0
    2.5145   -4.5950   -0.7212 C   0  0  0  0  0  0  0  0  0  0  0  0
   -4.2909   -0.6764   -1.3614 C   0  0  0  0  0  0  0  0  0  0  0  0
    1.5628    4.0499   -1.3629 C   0  0  0  0  0  0  0  0  0  0  0  0
    2.7280   -3.3755   -1.3635 C   0  0  0  0  0  0  0  0  0  0  0  0
  1  2  1  0
  1  3  1  0
  1  4  1  0
  1  5  2  0
  2 12  1  0
  3 13  1  0
  4 14  1  0
  6  9  1  0
  6 15  1  0
  6 16  1  0
  7 10  1  0
  7 17  1  0
  7 18  1  0
  8 11  1  0
  8 19  1  0
  8 20  1  0
  9 12  2  0
  9 21  1  0
 10 13  2  0
 10 22  1  0
 11 14  2  0
 11 23  1  0
 12 24  1  0
 13 25  1  0
 14 26  1  0
 21 27  2  0
 22 28  2  0
 23 29  2  0
 24 30  2  0
 25 31  2  0
 26 32  2  0
 27 30  1  0
 28 31  1  0
 29 32  1  0
M  END
>  <PUBCHEM_COMPOUND_CID>  (1) 
33661

>  <PUBCHEM_CONFORMER_RMSD>  (1) 
1

>  <PUBCHEM_CONFORMER_DIVERSEORDER>  (1) 
1
33
23
27
28
34
43
2
62
3
44
45
29
22
50
48
17
59
30
41
18
47
61
37
16
42
32
12
57
53
11
38
25
46
26
60
35
51
20
24
13
58
31
49
36
54
40
6
10
15
9
39
52
55
14
5
19
8
56
21
7
4

>  <PUBCHEM_MMFF94_PARTIAL_CHARGES>  (1) 
38
1 1.51
10 -0.14
11 -0.14
12 0.08
13 0.08
14 0.08
2 -0.35
21 -0.15
22 -0.15
23 -0.15
24 -0.15
25 -0.15
26 -0.15
27 -0.15
28 -0.15
29 -0.15
3 -0.35
30 -0.15
31 -0.15
32 -0.15
4 -0.35
5 -0.7
54 0.15
55 0.15
56 0.15
57 0.15
58 0.15
59 0.15
6 0.14
60 0.15
61 0.15
62 0.15
63 0.15
64 0.15
65 0.15
7 0.14
8 0.14
9 -0.14

>  <PUBCHEM_EFFECTIVE_ROTOR_COUNT>  (1) 
9

>  <PUBCHEM_PHARMACOPHORE_FEATURES>  (1) 
7
1 5 acceptor
3 6 15 16 hydrophobe
3 7 17 18 hydrophobe
3 8 19 20 hydrophobe
6 10 13 22 25 28 31 rings
6 11 14 23 26 29 32 rings
6 9 12 21 24 27 30 rings

>  <PUBCHEM_HEAVY_ATOM_COUNT>  (1) 
32

>  <PUBCHEM_ATOM_DEF_STEREO_COUNT>  (1) 
0

>  <PUBCHEM_ATOM_UDEF_STEREO_COUNT>  (1) 
0

>  <PUBCHEM_BOND_DEF_STEREO_COUNT>  (1) 
0

>  <PUBCHEM_BOND_UDEF_STEREO_COUNT>  (1) 
0

>  <PUBCHEM_ISOTOPIC_ATOM_COUNT>  (1) 
0

>  <PUBCHEM_COMPONENT_COUNT>  (1) 
1

>  <PUBCHEM_CACTVS_TAUTO_COUNT>  (1) 
1

>  <PUBCHEM_CONFORMER_ID>  (1) 
0000837D00000001

>  <PUBCHEM_MMFF94_ENERGY>  (1) 
86.8943

>  <PUBCHEM_FEATURE_SELFOVERLAP>  (1) 
35.522

>  <PUBCHEM_SHAPE_FINGERPRINT>  (1) 
10032420 55 17838306921490912439
10090160 65 18339630252928941429
11621639 179 10712644654917683818
12553582 1 17688025311013049343
12788726 201 17325764176912195704
13004483 165 17038389791905817953
13583140 156 17903383428431121569
13692114 37 18195235844460483239
14955137 171 17621910607461647303
15775530 1 17696513858474672332
17980427 23 16912551884593154077
19319366 153 18270953670136678943
20028762 73 18270107036891717348
20600515 1 16982656711313873709
20739085 24 18336817603295418576
21033650 10 17487085450511177160
2132832 1 17841976812021271373
21792965 25 17838373939950303984
23558518 356 18342464759149873175
23598288 3 17544183235580345630
345986 75 16816870089204774459
3493558 16 18273205383465988418
352729 6 18122343750733660471
4409770 3 17472414825780021543
79837 15 18338516464127974185
9981440 41 18268425922420417065

>  <PUBCHEM_SHAPE_MULTIPOLES>  (1) 
638.92
8.51
8.49
2
4.83
7.74
1.11
-7.76
1.39
-4.8
1.39
0
0
0

>  <PUBCHEM_SHAPE_SELFOVERLAP>  (1) 
1336.451

>  <PUBCHEM_SHAPE_VOLUME>  (1) 
363.1

>  <PUBCHEM_COORDINATE_TYPE>  (1) 
2
5
10

$$$$
