33662
     RDKit          3D

  7  6  0  0  0  0  0  0  0  0999 V2000
   -3.4058   -0.2628    0.0109 Br  0  0  0  0  0  0  0  0  0  0  0  0
    1.0796    0.0974   -0.0028 S   0  0  0  0  0  0  0  0  0  0  0  0
    1.8697   -1.3233    0.1307 O   0  0  0  0  0  0  0  0  0  0  0  0
    1.2433    0.8408    1.2329 O   0  0  0  0  0  0  0  0  0  0  0  0
    1.3943    0.6867   -1.2913 O   0  0  0  0  0  0  0  0  0  0  0  0
   -0.5595   -0.5572   -0.0631 C   0  0  0  0  0  0  0  0  0  0  0  0
   -1.6216    0.5185   -0.0173 C   0  0  0  0  0  0  0  0  0  0  0  0
  1  7  1  0
  2  3  1  0
  2  4  2  0
  2  5  2  0
  2  6  1  0
  6  7  1  0
M  END
>  <PUBCHEM_COMPOUND_CID>  (1) 
33662

>  <PUBCHEM_CONFORMER_RMSD>  (1) 
0.4

>  <PUBCHEM_CONFORMER_DIVERSEORDER>  (1) 
1
3
2

>  <PUBCHEM_MMFF94_PARTIAL_CHARGES>  (1) 
8
1 -0.23
12 0.5
2 1.38
3 -0.68
4 -0.65
5 -0.65
6 0.11
7 0.23

>  <PUBCHEM_EFFECTIVE_ROTOR_COUNT>  (1) 
2

>  <PUBCHEM_PHARMACOPHORE_FEATURES>  (1) 
5
1 1 hydrophobe
1 3 acceptor
1 4 acceptor
1 5 acceptor
4 2 3 4 5 anion

>  <PUBCHEM_HEAVY_ATOM_COUNT>  (1) 
7

>  <PUBCHEM_ATOM_DEF_STEREO_COUNT>  (1) 
0

>  <PUBCHEM_ATOM_UDEF_STEREO_COUNT>  (1) 
0

>  <PUBCHEM_BOND_DEF_STEREO_COUNT>  (1) 
0

>  <PUBCHEM_BOND_UDEF_STEREO_COUNT>  (1) 
0

>  <PUBCHEM_ISOTOPIC_ATOM_COUNT>  (1) 
0

>  <PUBCHEM_COMPONENT_COUNT>  (1) 
1

>  <PUBCHEM_CACTVS_TAUTO_COUNT>  (1) 
1

>  <PUBCHEM_CONFORMER_ID>  (1) 
0000837E00000001

>  <PUBCHEM_MMFF94_ENERGY>  (1) 
3.0682

>  <PUBCHEM_FEATURE_SELFOVERLAP>  (1) 
25.425

>  <PUBCHEM_SHAPE_FINGERPRINT>  (1) 
12932764 1 18202285823075754583
14390081 3 18059853983001950753
21040471 1 18337953501453336751
23552449 11 17561077003764933347
24536 1 17968090949643867647
29004967 10 17676776353371900170
3248919 1 18040431118681823955
5084963 1 18261673679891086811
5460574 1 9367349232422231191
5943 1 11113159120785536000

>  <PUBCHEM_SHAPE_MULTIPOLES>  (1) 
136.24
4.18
1.03
0.96
3.95
0.18
-0.04
0.43
0.01
-0.41
0.06
-0.45
-0.25
-0.03

>  <PUBCHEM_SHAPE_SELFOVERLAP>  (1) 
223.365

>  <PUBCHEM_SHAPE_VOLUME>  (1) 
95.9

>  <PUBCHEM_COORDINATE_TYPE>  (1) 
2
5
10

$$$$
