33674
     RDKit          3D

  8  8  0  0  0  0  0  0  0  0999 V2000
    2.3000    1.0154    0.0448 O   0  0  0  0  0  0  0  0  0  0  0  0
   -2.3000    1.0154    0.0450 O   0  0  0  0  0  0  0  0  0  0  0  0
    1.2064   -1.0057    0.1056 N   0  0  0  0  0  0  0  0  0  0  0  0
   -1.2064   -1.0058    0.1053 N   0  0  0  0  0  0  0  0  0  0  0  0
    0.0000    0.9858   -0.1390 N   0  0  0  0  0  0  0  0  0  0  0  0
    0.0000   -1.7530   -0.1497 C   0  0  0  0  0  0  0  0  0  0  0  0
    1.2500    0.3739   -0.0060 C   0  0  0  0  0  0  0  0  0  0  0  0
   -1.2500    0.3740   -0.0060 C   0  0  0  0  0  0  0  0  0  0  0  0
  1  7  2  0
  2  8  2  0
  3  6  1  0
  3  7  1  0
  4  6  1  0
  4  8  1  0
  5  7  1  0
  5  8  1  0
M  END
>  <PUBCHEM_COMPOUND_CID>  (1) 
33674

>  <PUBCHEM_CONFORMER_RMSD>  (1) 
0.4

>  <PUBCHEM_CONFORMER_DIVERSEORDER>  (1) 
1

>  <PUBCHEM_MMFF94_PARTIAL_CHARGES>  (1) 
11
1 -0.57
11 0.37
12 0.37
13 0.37
2 -0.57
3 -0.73
4 -0.73
5 -0.49
6 0.6
7 0.69
8 0.69

>  <PUBCHEM_EFFECTIVE_ROTOR_COUNT>  (1) 
0.8

>  <PUBCHEM_PHARMACOPHORE_FEATURES>  (1) 
6
1 1 acceptor
1 2 acceptor
1 3 donor
1 4 donor
1 5 donor
6 3 4 5 6 7 8 rings

>  <PUBCHEM_HEAVY_ATOM_COUNT>  (1) 
8

>  <PUBCHEM_ATOM_DEF_STEREO_COUNT>  (1) 
0

>  <PUBCHEM_ATOM_UDEF_STEREO_COUNT>  (1) 
0

>  <PUBCHEM_BOND_DEF_STEREO_COUNT>  (1) 
0

>  <PUBCHEM_BOND_UDEF_STEREO_COUNT>  (1) 
0

>  <PUBCHEM_ISOTOPIC_ATOM_COUNT>  (1) 
0

>  <PUBCHEM_COMPONENT_COUNT>  (1) 
1

>  <PUBCHEM_CACTVS_TAUTO_COUNT>  (1) 
5

>  <PUBCHEM_CONFORMER_ID>  (1) 
0000838A00000001

>  <PUBCHEM_MMFF94_ENERGY>  (1) 
12.5363

>  <PUBCHEM_FEATURE_SELFOVERLAP>  (1) 
30.56

>  <PUBCHEM_SHAPE_FINGERPRINT>  (1) 
16714656 1 18122631818669858006
18185500 45 17113539770770600574
20096714 4 18411138000283233075
21040471 1 18410856576925225268
23552423 10 18188211021867940630
29004967 10 17975984158967791499

>  <PUBCHEM_SHAPE_MULTIPOLES>  (1) 
137.95
2.48
1.61
0.56
0
0.58
-0.01
-1.07
0.08
0
-0.04
0
0.02
0

>  <PUBCHEM_SHAPE_SELFOVERLAP>  (1) 
277.107

>  <PUBCHEM_SHAPE_VOLUME>  (1) 
78.7

>  <PUBCHEM_COORDINATE_TYPE>  (1) 
2
5
10

$$$$
