3367
     RDKit          2D

 20 22  0  0  1  0  0  0  0  0999 V2000
    0.0000    0.0000    0.0000 F   0  0  0  0  0  0  0  0  0  0  0  0
    0.0000    0.0000    0.0000 O   0  0  0  0  0  0  0  0  0  0  0  0
    0.0000    0.0000    0.0000 O   0  0  0  0  0  0  0  0  0  0  0  0
    0.0000    0.0000    0.0000 O   0  0  0  0  0  0  0  0  0  0  0  0
    0.0000    0.0000    0.0000 O   0  0  0  0  0  0  0  0  0  0  0  0
    0.0000    0.0000    0.0000 N   0  0  0  0  0  0  0  0  0  0  0  0
    0.0000    0.0000    0.0000 N   0  0  0  0  0  0  0  0  0  0  0  0
    0.0000    0.0000    0.0000 N   0  0  0  0  0  0  0  0  0  0  0  0
    0.0000    0.0000    0.0000 N   0  0  0  0  0  0  0  0  0  0  0  0
    0.0000    0.0000    0.0000 N   0  0  0  0  0  0  0  0  0  0  0  0
    0.0000    0.0000    0.0000 C   0  0  0  0  0  0  0  0  0  0  0  0
    0.0000    0.0000    0.0000 C   0  0  0  0  0  0  0  0  0  0  0  0
    0.0000    0.0000    0.0000 C   0  0  0  0  0  0  0  0  0  0  0  0
    0.0000    0.0000    0.0000 C   0  0  0  0  0  0  0  0  0  0  0  0
    0.0000    0.0000    0.0000 C   0  0  0  0  0  0  0  0  0  0  0  0
    0.0000    0.0000    0.0000 C   0  0  0  0  0  0  0  0  0  0  0  0
    0.0000    0.0000    0.0000 C   0  0  0  0  0  0  0  0  0  0  0  0
    0.0000    0.0000    0.0000 C   0  0  0  0  0  0  0  0  0  0  0  0
    0.0000    0.0000    0.0000 C   0  0  0  0  0  0  0  0  0  0  0  0
    0.0000    0.0000    0.0000 C   0  0  0  0  0  0  0  0  0  0  0  0
  1 20  1  0
  2 12  1  0
  2 14  1  0
  3 11  1  0
  4 13  1  0
  5 15  1  0
  6 12  1  0
  6 16  1  0
  6 17  1  0
  7 17  2  0
  7 18  1  0
  8 16  1  0
  8 20  2  0
  9 19  2  0
  9 20  1  0
 10 19  1  0
 11 12  1  0
 11 13  1  0
 13 14  1  0
 14 15  1  0
 16 18  2  0
 18 19  1  0
M  END
>  <PUBCHEM_COMPOUND_CID>  (1) 
3367

>  <PUBCHEM_CONFORMER_RMSD>  (1) 
0.6

>  <PUBCHEM_CONFORMER_DIVERSEORDER>  (1) 
53
15
60
48
64
129
74
67
47
36
102
109
75
120
79
1
104
134
41
17
31
131
14
65
32
114
132
97
46
89
98
22
63
106
87
3
18
115
39
126
133
2
23
7
12
80
118
128
57
111
40
121
105
69
50
91
100
24
44
68
78
82
119
26
116
107
123
51
30
76
6
38
4
27
43
16
135
122
21
13
108
103
94
96
25
127
9
42
5
85
35
92
93
37
113
54
34
66
8
81
77
90
29
28
124
71
33
62
73
84
117
130
61
110
58
72
112
101
88
55
95
83
86
10
11
56
45
52
19
70
20
125
99
49
59

>  <PUBCHEM_MMFF94_PARTIAL_CHARGES>  (1) 
26
1 -0.19
10 -0.9
11 0.28
12 0.54
13 0.28
14 0.28
15 0.28
16 0.11
17 0.04
18 0.23
19 0.41
2 -0.56
20 0.81
27 0.4
28 0.4
29 0.15
3 -0.68
30 0.4
31 0.4
32 0.4
4 -0.68
5 -0.68
6 0.05
7 -0.57
8 -0.57
9 -0.62

>  <PUBCHEM_EFFECTIVE_ROTOR_COUNT>  (1) 
3

>  <PUBCHEM_PHARMACOPHORE_FEATURES>  (1) 
15
1 10 cation
1 10 donor
1 2 acceptor
1 3 acceptor
1 3 donor
1 4 acceptor
1 4 donor
1 5 acceptor
1 5 donor
3 6 7 17 cation
3 6 8 16 cation
3 8 9 20 cation
5 2 11 12 13 14 rings
5 6 7 16 17 18 rings
6 8 9 16 18 19 20 rings

>  <PUBCHEM_HEAVY_ATOM_COUNT>  (1) 
20

>  <PUBCHEM_ATOM_DEF_STEREO_COUNT>  (1) 
0

>  <PUBCHEM_ATOM_UDEF_STEREO_COUNT>  (1) 
4

>  <PUBCHEM_BOND_DEF_STEREO_COUNT>  (1) 
0

>  <PUBCHEM_BOND_UDEF_STEREO_COUNT>  (1) 
0

>  <PUBCHEM_ISOTOPIC_ATOM_COUNT>  (1) 
0

>  <PUBCHEM_COMPONENT_COUNT>  (1) 
1

>  <PUBCHEM_CACTVS_TAUTO_COUNT>  (1) 
3

$$$$
