33676
     RDKit          3D

 15 15  0  0  1  0  0  0  0  0999 V2000
    3.0251    3.4038   -0.0786 Cl  0  0  0  0  0  0  0  0  0  0  0  0
    3.8796   -2.4245   -0.1507 Cl  0  0  0  0  0  0  0  0  0  0  0  0
   -0.5191   -0.5467    0.6086 P   0  0  0  0  0  0  0  0  0  0  0  0
   -1.1942   -1.6771   -0.3461 O   0  0  0  0  0  0  0  0  0  0  0  0
   -0.1567   -1.1242    1.9527 O   0  0  0  0  0  0  0  0  0  0  0  0
   -3.7388    1.6051    0.2015 O   0  0  0  0  0  0  0  0  0  0  0  0
    0.7392    0.0937   -0.2578 N   0  0  0  0  0  0  0  0  0  0  0  0
   -1.7038    0.6904    0.7248 N   0  0  0  0  0  0  0  0  0  0  0  0
    1.3872    1.2761    0.3056 C   0  0  0  0  0  0  0  0  0  0  0  0
    1.7518   -0.8464   -0.7336 C   0  0  0  0  0  0  0  0  0  0  0  0
   -2.0951   -1.2180   -1.3439 C   0  0  0  0  0  0  0  0  0  0  0  0
   -3.2878   -0.5885   -0.6496 C   0  0  0  0  0  0  0  0  0  0  0  0
   -2.9350    0.6774    0.1048 C   0  0  0  0  0  0  0  0  0  0  0  0
    2.2166    1.9729   -0.7617 C   0  0  0  0  0  0  0  0  0  0  0  0
    2.6309   -1.2939    0.4240 C   0  0  0  0  0  0  0  0  0  0  0  0
  1 14  1  0
  2 15  1  0
  3  4  1  0
  3  5  2  0
  3  7  1  0
  3  8  1  0
  4 11  1  0
  6 13  2  0
  7  9  1  0
  7 10  1  0
  8 13  1  0
  9 14  1  0
 10 15  1  0
 11 12  1  0
 12 13  1  0
M  END
>  <PUBCHEM_COMPOUND_CID>  (1) 
33676

>  <PUBCHEM_CONFORMER_RMSD>  (1) 
0.6

>  <PUBCHEM_CONFORMER_DIVERSEORDER>  (1) 
2
53
44
50
38
23
1
11
52
27
4
28
5
39
19
34
3
12
43
13
45
51
6
20
54
16
17
31
7
25
24
55
32
22
9
40
42
30
37
8
35
14
48
56
18
10
15
21
57
47
29
46
33
36
49
26
41

>  <PUBCHEM_MMFF94_PARTIAL_CHARGES>  (1) 
16
1 -0.29
10 0.27
11 0.28
12 0.06
13 0.57
14 0.29
15 0.29
2 -0.29
20 0.37
3 1.5
4 -0.55
5 -0.7
6 -0.57
7 -0.81
8 -0.69
9 0.27

>  <PUBCHEM_EFFECTIVE_ROTOR_COUNT>  (1) 
5.8

>  <PUBCHEM_PHARMACOPHORE_FEATURES>  (1) 
3
1 6 acceptor
1 8 donor
6 3 4 8 11 12 13 rings

>  <PUBCHEM_HEAVY_ATOM_COUNT>  (1) 
15

>  <PUBCHEM_ATOM_DEF_STEREO_COUNT>  (1) 
0

>  <PUBCHEM_ATOM_UDEF_STEREO_COUNT>  (1) 
1

>  <PUBCHEM_BOND_DEF_STEREO_COUNT>  (1) 
0

>  <PUBCHEM_BOND_UDEF_STEREO_COUNT>  (1) 
0

>  <PUBCHEM_ISOTOPIC_ATOM_COUNT>  (1) 
0

>  <PUBCHEM_COMPONENT_COUNT>  (1) 
1

>  <PUBCHEM_CACTVS_TAUTO_COUNT>  (1) 
3

>  <PUBCHEM_CONFORMER_ID>  (1) 
0000838C00000002

>  <PUBCHEM_MMFF94_ENERGY>  (1) 
14.3333

>  <PUBCHEM_FEATURE_SELFOVERLAP>  (1) 
15.223

>  <PUBCHEM_SHAPE_FINGERPRINT>  (1) 
12932764 1 17631735009779476595
13380536 55 18268994356852123708
13464514 151 18335430096872541436
14115302 16 17632572717459989287
14181834 199 18411707590751966628
15442244 35 18340768143920042572
15775835 57 18411423938121679373
15852999 172 17534891181014511586
16945 1 18196106459984368331
18186145 218 17894346666140716415
18511873 20 18341050692506760319
20653085 51 18410018732196175243
20671657 1 18410579495847992052
20671657 53 18341613655762088006
21501502 16 18343299309823383053
21524375 3 17900813057438548812
21947302 44 18262798587449493984
23402539 116 17984972696426205022
23532345 88 18412259558162781964
23559900 14 17274244055833202266
23598291 2 18413386523147609183
305870 269 18265898154068589028
3071541 12 18410014368688867532
3250762 1 18043830872759178650
3286 77 18113907043748723511
4175511 71 18338520712241000284
474 4 18115583906207675244
53777708 50 18343021133550490647
6992083 37 17984150261775964992
7364860 26 18412262869936007892
74978 22 18409169913145663054
81228 2 17760102726561924962
84936 182 18199748223016525664
9939556 21 18343016696717405119
9981440 41 17977939412991768016

>  <PUBCHEM_SHAPE_MULTIPOLES>  (1) 
288.71
6.35
3.07
1.12
1.19
1.76
-0.21
0.53
0.87
-4.24
0.24
0.28
-0.34
-0.65

>  <PUBCHEM_SHAPE_SELFOVERLAP>  (1) 
531.016

>  <PUBCHEM_SHAPE_VOLUME>  (1) 
184.2

>  <PUBCHEM_COORDINATE_TYPE>  (1) 
2
5
10

$$$$
