33682
     RDKit          3D

 14 14  0  0  0  0  0  0  0  0999 V2000
    3.4630   -0.0658   -1.4362 O   0  0  0  0  0  0  0  0  0  0  0  0
   -1.2415   -0.0235   -0.2677 N   0  0  0  0  0  0  0  0  0  0  0  0
   -1.5143   -1.3220   -1.0214 C   0  0  0  0  0  0  0  0  0  0  0  0
   -1.5324    1.1877   -1.1494 C   0  0  0  0  0  0  0  0  0  0  0  0
   -2.1763    0.0317    0.9388 C   0  0  0  0  0  0  0  0  0  0  0  0
    0.2332    0.0078    0.1411 C   0  0  0  0  0  0  0  0  0  0  0  0
   -1.1769   -2.4964   -0.1291 C   0  0  0  0  0  0  0  0  0  0  0  0
   -1.2661    2.4523   -0.3626 C   0  0  0  0  0  0  0  0  0  0  0  0
   -3.6110    0.0255    0.4583 C   0  0  0  0  0  0  0  0  0  0  0  0
    1.1473   -0.0450   -0.8573 C   0  0  0  0  0  0  0  0  0  0  0  0
    0.5002    0.0859    1.4669 C   0  0  0  0  0  0  0  0  0  0  0  0
    2.4913   -0.0163   -0.4846 C   0  0  0  0  0  0  0  0  0  0  0  0
    1.8439    0.1146    1.8395 C   0  0  0  0  0  0  0  0  0  0  0  0
    2.8395    0.0637    0.8639 C   0  0  0  0  0  0  0  0  0  0  0  0
  1 12  1  0
  2  3  1  0
  2  4  1  0
  2  5  1  0
  2  6  1  0
  3  7  1  0
  4  8  1  0
  5  9  1  0
  6 10  2  0
  6 11  1  0
 10 12  1  0
 11 13  2  0
 12 14  2  0
 13 14  1  0
M  CHG  1   2   1
M  END
>  <PUBCHEM_COMPOUND_CID>  (1) 
33682

>  <PUBCHEM_CONFORMER_RMSD>  (1) 
0.6

>  <PUBCHEM_CONFORMER_DIVERSEORDER>  (1) 
1
2

>  <PUBCHEM_MMFF94_PARTIAL_CHARGES>  (1) 
16
1 -0.53
10 -0.15
11 -0.15
12 0.08
13 -0.15
14 -0.15
2 -0.87
3 0.5
30 0.15
31 0.15
32 0.15
33 0.15
34 0.45
4 0.5
5 0.5
6 0.36

>  <PUBCHEM_EFFECTIVE_ROTOR_COUNT>  (1) 
4

>  <PUBCHEM_PHARMACOPHORE_FEATURES>  (1) 
3
1 1 donor
1 2 cation
6 6 10 11 12 13 14 rings

>  <PUBCHEM_HEAVY_ATOM_COUNT>  (1) 
14

>  <PUBCHEM_ATOM_DEF_STEREO_COUNT>  (1) 
0

>  <PUBCHEM_ATOM_UDEF_STEREO_COUNT>  (1) 
0

>  <PUBCHEM_BOND_DEF_STEREO_COUNT>  (1) 
0

>  <PUBCHEM_BOND_UDEF_STEREO_COUNT>  (1) 
0

>  <PUBCHEM_ISOTOPIC_ATOM_COUNT>  (1) 
0

>  <PUBCHEM_COMPONENT_COUNT>  (1) 
1

>  <PUBCHEM_CACTVS_TAUTO_COUNT>  (1) 
3

>  <PUBCHEM_CONFORMER_ID>  (1) 
0000839200000001

>  <PUBCHEM_MMFF94_ENERGY>  (1) 
63.7453

>  <PUBCHEM_FEATURE_SELFOVERLAP>  (1) 
15.223

>  <PUBCHEM_SHAPE_FINGERPRINT>  (1) 
12423570 1 14529221179831934869
12716758 59 18270389499874390218
12932764 1 18410003343296666288
13024252 1 16298677165082608429
13380536 127 18041273283910778976
13380537 58 18194939912375193520
13538477 17 17967530211546077195
13581323 91 18335691728820503490
13764800 53 18266173925186624097
13898156 1 17822555128204870272
14115302 16 17845956090113589828
14648413 74 17202474675047547816
14787075 74 16810425181254604977
14993402 34 18335986458461895967
15076042 46 17895747383867035649
15219456 202 17131549560901506362
15775835 57 18341604902191334475
15906896 17 17750498616888961159
16945 1 18409720768439088566
17844478 74 18060424594734072473
18186145 218 17560798788868957873
19837323 101 18267293232107430325
200 152 16588297310978459515
20201158 50 16988852661268588726
20511035 2 17688005540977476659
21486144 27 17561355205860721480
21524375 3 17611728034287185197
22802520 49 17914334572174256804
228727 97 17603875519572298836
23236772 104 17385734577179744364
23402539 116 18269251543915304781
23419403 2 15668797439213139944
23557571 272 18270109249132488960
25 1 17201649843885034601
2748010 2 18121778322810943295
45790113 50 16950563242362052002
5084963 1 18131346401702515293
63268167 104 14692568862039350450
77492 1 17603297146327793013
8030462 33 17531235163060141892
81228 2 18055337287713794327

>  <PUBCHEM_SHAPE_MULTIPOLES>  (1) 
277.26
4.65
1.75
1.52
1.04
0.09
-0.27
-0.06
0
-1.44
0.46
0.74
-0.05
0.09

>  <PUBCHEM_SHAPE_SELFOVERLAP>  (1) 
561.682

>  <PUBCHEM_SHAPE_VOLUME>  (1) 
164.3

>  <PUBCHEM_COORDINATE_TYPE>  (1) 
2
5
10

$$$$
