33689
     RDKit          3D

 18 18  0  0  0  0  0  0  0  0999 V2000
   -4.5359    3.5091    0.5857 Cl  0  0  0  0  0  0  0  0  0  0  0  0
   -4.1250   -3.8065    0.3034 Cl  0  0  0  0  0  0  0  0  0  0  0  0
    2.7696    0.3042   -0.9745 O   0  0  0  0  0  0  0  0  0  0  0  0
   -2.6762   -0.0424    0.0975 N   0  0  0  0  0  0  0  0  0  0  0  0
   -1.2951    0.0457   -0.1747 C   0  0  0  0  0  0  0  0  0  0  0  0
   -3.5520    1.0784   -0.1810 C   0  0  0  0  0  0  0  0  0  0  0  0
   -3.2354   -1.2498    0.6722 C   0  0  0  0  0  0  0  0  0  0  0  0
    4.9668    0.2863   -0.0229 C   0  0  0  0  0  0  0  0  0  0  0  0
    3.6372   -0.4459   -0.1356 C   0  0  0  0  0  0  0  0  0  0  0  0
   -0.4585   -1.0336    0.1094 C   0  0  0  0  0  0  0  0  0  0  0  0
   -0.7658    1.2119   -0.7276 C   0  0  0  0  0  0  0  0  0  0  0  0
    1.4273    0.2188   -0.7102 C   0  0  0  0  0  0  0  0  0  0  0  0
    5.9565   -0.4745    0.8548 C   0  0  0  0  0  0  0  0  0  0  0  0
   -3.4709    2.1214    0.9225 C   0  0  0  0  0  0  0  0  0  0  0  0
   -3.4474   -2.3136   -0.3933 C   0  0  0  0  0  0  0  0  0  0  0  0
    0.9075   -0.9466   -0.1593 C   0  0  0  0  0  0  0  0  0  0  0  0
    0.6001    1.2987   -0.9962 C   0  0  0  0  0  0  0  0  0  0  0  0
    7.2972    0.2384    0.9297 C   0  0  0  0  0  0  0  0  0  0  0  0
  1 14  1  0
  2 15  1  0
  3  9  1  0
  3 12  1  0
  4  5  1  0
  4  6  1  0
  4  7  1  0
  5 10  2  0
  5 11  1  0
  6 14  1  0
  7 15  1  0
  8  9  1  0
  8 13  1  0
 10 16  1  0
 11 17  2  0
 12 16  2  0
 12 17  1  0
 13 18  1  0
M  END
>  <PUBCHEM_COMPOUND_CID>  (1) 
33689

>  <PUBCHEM_CONFORMER_RMSD>  (1) 
0.8

>  <PUBCHEM_CONFORMER_DIVERSEORDER>  (1) 
3
59
129
163
91
141
110
8
123
55
165
116
147
131
112
105
49
21
142
22
144
30
102
108
111
45
73
157
130
34
42
94
90
103
161
43
72
153
136
135
114
97
134
81
85
26
133
82
54
148
137
140
47
124
40
56
53
36
126
70
145
65
158
64
92
139
24
146
12
162
100
155
151
41
117
164
107
69
109
13
159
143
106
101
62
128
121
48
78
39
160
9
37
80
75
79
1
29
20
120
132
18
28
138
83
88
46
2
76
87
119
68
32
118
149
98
58
113
17
67
156
86
38
89
19
50
84
93
25
7
6
77
127
33
95
23
166
122
51
66
60
11
52
71
104
5
4
27
125
99
74
150
57
10
31
154
44
35
96
63
16
61
115
14
152
15

>  <PUBCHEM_MMFF94_PARTIAL_CHARGES>  (1) 
19
1 -0.29
10 -0.15
11 -0.15
12 0.08
14 0.29
15 0.29
16 -0.15
17 -0.15
2 -0.29
27 0.15
28 0.15
3 -0.36
35 0.15
36 0.15
4 -0.84
5 0.1
6 0.37
7 0.37
9 0.28

>  <PUBCHEM_EFFECTIVE_ROTOR_COUNT>  (1) 
9

>  <PUBCHEM_PHARMACOPHORE_FEATURES>  (1) 
4
1 18 hydrophobe
1 3 acceptor
1 4 cation
6 5 10 11 12 16 17 rings

>  <PUBCHEM_HEAVY_ATOM_COUNT>  (1) 
18

>  <PUBCHEM_ATOM_DEF_STEREO_COUNT>  (1) 
0

>  <PUBCHEM_ATOM_UDEF_STEREO_COUNT>  (1) 
0

>  <PUBCHEM_BOND_DEF_STEREO_COUNT>  (1) 
0

>  <PUBCHEM_BOND_UDEF_STEREO_COUNT>  (1) 
0

>  <PUBCHEM_ISOTOPIC_ATOM_COUNT>  (1) 
0

>  <PUBCHEM_COMPONENT_COUNT>  (1) 
1

>  <PUBCHEM_CACTVS_TAUTO_COUNT>  (1) 
1

>  <PUBCHEM_CONFORMER_ID>  (1) 
0000839900000003

>  <PUBCHEM_MMFF94_ENERGY>  (1) 
52.372

>  <PUBCHEM_FEATURE_SELFOVERLAP>  (1) 
20.297

>  <PUBCHEM_SHAPE_FINGERPRINT>  (1) 
10062212 137 18113903770793564423
10291535 26 17775007838963219897
10912923 1 18040441022929208276
11315181 36 18261390079063891652
117890 112 18201998777537471792
12403260 363 18262802998380985148
12500047 106 18341615859111822729
12523318 42 18343018925663279938
12616971 3 17167871846268757340
13214271 11 18272649038997649172
13540713 5 18042423476094937925
13583140 156 17489582376865830470
13760787 5 16660651773556748838
13862211 1 18114459076122385034
14178342 30 18409738348078140135
14844126 61 18411139182011702395
15209294 21 18339082583899537640
17862501 102 18261393403025992750
21130935 74 18409722960107403746
21426921 1 18412266159923232515
220451 1 17968380053284427282
23081809 10 17822014229346698406
23402539 116 18259978301728343790
23522609 53 17896343380096113044
23557571 272 18131077025912421541
23559900 14 18265604575736920553
25147074 1 18041575735418125477
312425 54 18335411328281995130
5104073 3 18186806911291797736
573450 72 18334294275358798618
5924683 9 18409447011682463931
76465 3 18188489214978226606
77188 2 17979639267196020855

>  <PUBCHEM_SHAPE_MULTIPOLES>  (1) 
363.32
13.71
3.31
0.97
26.54
0.83
-0.01
-0.5
-5.37
-9.29
-0.71
0.33
-0.22
-0.68

>  <PUBCHEM_SHAPE_SELFOVERLAP>  (1) 
699.997

>  <PUBCHEM_SHAPE_VOLUME>  (1) 
224.9

>  <PUBCHEM_COORDINATE_TYPE>  (1) 
2
5
10

$$$$
