33695
     RDKit          3D

 36 39  0  0  0  0  0  0  0  0999 V2000
    4.5769    1.3908    2.0024 O   0  0  0  0  0  0  0  0  0  0  0  0
   -5.3793   -1.1018   -2.1516 O   0  0  0  0  0  0  0  0  0  0  0  0
    8.3692    0.4278    0.0857 N   0  0  0  0  0  0  0  0  0  0  0  0
   -8.7319    0.5645    0.0779 N   0  0  0  0  0  0  0  0  0  0  0  0
    1.0744   -0.5171    0.2769 C   0  0  0  0  0  0  0  0  0  0  0  0
    0.1502    0.4222   -0.1596 C   0  0  0  0  0  0  0  0  0  0  0  0
    0.4979   -1.7792    0.3158 C   0  0  0  0  0  0  0  0  0  0  0  0
   -1.1024   -0.2737   -0.4196 C   0  0  0  0  0  0  0  0  0  0  0  0
   -0.8850   -1.6501   -0.1225 C   0  0  0  0  0  0  0  0  0  0  0  0
    2.3929   -0.2334    0.6261 C   0  0  0  0  0  0  0  0  0  0  0  0
    2.7804    1.1162    0.5154 C   0  0  0  0  0  0  0  0  0  0  0  0
    0.5350    1.7456   -0.2668 C   0  0  0  0  0  0  0  0  0  0  0  0
   -2.3306    0.1762   -0.8653 C   0  0  0  0  0  0  0  0  0  0  0  0
    1.2615   -2.8557    0.7269 C   0  0  0  0  0  0  0  0  0  0  0  0
   -1.8951   -2.5814   -0.2698 C   0  0  0  0  0  0  0  0  0  0  0  0
   -3.3526   -0.7659   -1.0144 C   0  0  0  0  0  0  0  0  0  0  0  0
    1.8561    2.0876    0.0733 C   0  0  0  0  0  0  0  0  0  0  0  0
    3.1672   -1.3332    1.0443 C   0  0  0  0  0  0  0  0  0  0  0  0
    5.0068    2.2157   -0.2245 C   0  0  0  0  0  0  0  0  0  0  0  0
    4.1320    1.5460    0.8495 C   0  0  0  0  0  0  0  0  0  0  0  0
    6.5131    2.0261   -0.0243 C   0  0  0  0  0  0  0  0  0  0  0  0
   -3.1377   -2.1265   -0.7206 C   0  0  0  0  0  0  0  0  0  0  0  0
    2.6003   -2.6254    1.0913 C   0  0  0  0  0  0  0  0  0  0  0  0
    6.9300    0.5566   -0.1137 C   0  0  0  0  0  0  0  0  0  0  0  0
   -5.1563    1.0884   -1.1627 C   0  0  0  0  0  0  0  0  0  0  0  0
   -6.6791    1.2299   -1.0862 C   0  0  0  0  0  0  0  0  0  0  0  0
   -4.6616   -0.3344   -1.4809 C   0  0  0  0  0  0  0  0  0  0  0  0
   -7.2829    0.3992    0.0479 C   0  0  0  0  0  0  0  0  0  0  0  0
    9.0908    0.7544   -1.1451 C   0  0  0  0  0  0  0  0  0  0  0  0
    8.7085   -0.9252    0.5297 C   0  0  0  0  0  0  0  0  0  0  0  0
   -9.3657   -0.5693    0.7525 C   0  0  0  0  0  0  0  0  0  0  0  0
   -9.0934    1.8177    0.7422 C   0  0  0  0  0  0  0  0  0  0  0  0
   10.5940    0.6881   -0.9345 C   0  0  0  0  0  0  0  0  0  0  0  0
    8.3407   -1.9569   -0.5231 C   0  0  0  0  0  0  0  0  0  0  0  0
   -8.9275   -0.6592    2.2044 C   0  0  0  0  0  0  0  0  0  0  0  0
  -10.5969    2.0354    0.7231 C   0  0  0  0  0  0  0  0  0  0  0  0
  1 20  2  0
  2 27  2  0
  3 24  1  0
  3 29  1  0
  3 30  1  0
  4 28  1  0
  4 31  1  0
  4 32  1  0
  5  6  2  0
  5  7  1  0
  5 10  1  0
  6  8  1  0
  6 12  1  0
  7  9  1  0
  7 14  2  0
  8  9  2  0
  8 13  1  0
  9 15  1  0
 10 11  2  0
 10 18  1  0
 11 17  1  0
 11 20  1  0
 12 17  2  0
 13 16  2  0
 14 23  1  0
 15 22  2  0
 16 22  1  0
 16 27  1  0
 18 23  2  0
 19 20  1  0
 19 21  1  0
 21 24  1  0
 25 26  1  0
 25 27  1  0
 26 28  1  0
 29 33  1  0
 30 34  1  0
 31 35  1  0
 32 36  1  0
M  END
>  <PUBCHEM_COMPOUND_CID>  (1) 
33695

>  <PUBCHEM_CONFORMER_RMSD>  (1) 
1.6

>  <PUBCHEM_CONFORMER_DIVERSEORDER>  (1) 
1
21
26
34
11
22
25
30
39
7
38
29
28
33
12
10
24
31
35
9
20
15
27
14
32
17
36
23
3
6
37
8
5
19
13
4
18
16
2

>  <PUBCHEM_MMFF94_PARTIAL_CHARGES>  (1) 
32
1 -0.57
11 0.09
12 -0.15
13 -0.15
14 -0.15
15 -0.15
16 0.09
17 -0.15
18 -0.15
19 0.06
2 -0.57
20 0.42
22 -0.15
23 -0.15
24 0.27
25 0.06
27 0.42
28 0.27
29 0.27
3 -0.81
30 0.27
31 0.27
32 0.27
37 0.15
38 0.15
39 0.15
4 -0.81
40 0.15
41 0.15
42 0.15
47 0.15
50 0.15

>  <PUBCHEM_EFFECTIVE_ROTOR_COUNT>  (1) 
14

>  <PUBCHEM_PHARMACOPHORE_FEATURES>  (1) 
8
1 1 acceptor
1 2 acceptor
1 3 cation
1 4 cation
5 5 6 7 8 9 rings
6 5 6 10 11 12 17 rings
6 5 7 10 14 18 23 rings
6 8 9 13 15 16 22 rings

>  <PUBCHEM_HEAVY_ATOM_COUNT>  (1) 
36

>  <PUBCHEM_ATOM_DEF_STEREO_COUNT>  (1) 
0

>  <PUBCHEM_ATOM_UDEF_STEREO_COUNT>  (1) 
0

>  <PUBCHEM_BOND_DEF_STEREO_COUNT>  (1) 
0

>  <PUBCHEM_BOND_UDEF_STEREO_COUNT>  (1) 
0

>  <PUBCHEM_ISOTOPIC_ATOM_COUNT>  (1) 
0

>  <PUBCHEM_COMPONENT_COUNT>  (1) 
1

>  <PUBCHEM_CACTVS_TAUTO_COUNT>  (1) 
4

>  <PUBCHEM_CONFORMER_ID>  (1) 
0000839F00000001

>  <PUBCHEM_MMFF94_ENERGY>  (1) 
109.7421

>  <PUBCHEM_FEATURE_SELFOVERLAP>  (1) 
40.901

>  <PUBCHEM_SHAPE_FINGERPRINT>  (1) 
10 15 17967527978991043969
10190108 129 18334572438789877276
106641 1 13840264792759222308
10674148 151 17561362898263257896
11115154 58 17418375792322513264
11146346 171 17894634729771943690
11211813 128 11169903971208524496
11410812 94 13686028575002384051
11621639 183 17314505938839946085
11828042 58 18113903771611274642
12098696 120 18334850615215412652
12120059 9 12175627286751980724
12202916 173 10592045777663985036
13947947 74 18336543907163649680
15326923 82 8718824284241665058
15392192 104 13334729138298352904
1577012 14 18060411418728872229
17686467 74 13406792242604631615
20105231 36 17676204671823864922
21781055 127 17132120095973375147
23389318 12 10737286844434954225
23559900 14 18194399117103197544
3004659 81 18260824961091158072
335352 9 18410566305871375630
3418910 222 15068618249592523462
3633792 109 16128378185844453550
397830 11 17822008706298291519
4093350 32 17775565329722868983
4149490 64 16950558832201435738
474113 269 13110697012271547236
6126387 218 10087648100303714375
6698420 124 18340768234066980867

>  <PUBCHEM_SHAPE_MULTIPOLES>  (1) 
719.16
34.86
2.75
1.38
15.68
0.88
0.07
-14.34
2.65
-1.04
0.35
1.68
0.13
-0.65

>  <PUBCHEM_SHAPE_SELFOVERLAP>  (1) 
1536.403

>  <PUBCHEM_SHAPE_VOLUME>  (1) 
405.6

>  <PUBCHEM_COORDINATE_TYPE>  (1) 
2
5
10

$$$$
