33701
     RDKit          3D

 10 10  0  0  1  0  0  0  0  0999 V2000
   -1.3498   -1.5220   -0.1063 O   0  0  0  0  0  0  0  0  0  0  0  0
   -2.8693    0.2051   -0.6489 O   0  0  0  0  0  0  0  0  0  0  0  0
    1.9387    1.0942   -0.9245 O   0  0  0  0  0  0  0  0  0  0  0  0
   -0.6053    0.7007    0.0079 C   0  0  0  0  0  0  0  0  0  0  0  0
    0.5254   -0.1756    0.5141 C   0  0  0  0  0  0  0  0  0  0  0  0
   -1.8128   -0.2028    0.2044 C   0  0  0  0  0  0  0  0  0  0  0  0
    0.0651   -1.5744    0.1309 C   0  0  0  0  0  0  0  0  0  0  0  0
   -0.7283    2.0314    0.7361 C   0  0  0  0  0  0  0  0  0  0  0  0
    1.8306    0.1561   -0.1364 C   0  0  0  0  0  0  0  0  0  0  0  0
    3.0057   -0.7127    0.2227 C   0  0  0  0  0  0  0  0  0  0  0  0
  1  6  1  0
  1  7  1  0
  2  6  1  0
  3  9  2  0
  4  5  1  0
  4  6  1  0
  4  8  1  0
  5  7  1  0
  5  9  1  0
  9 10  1  0
M  END
>  <PUBCHEM_COMPOUND_CID>  (1) 
33701

>  <PUBCHEM_CONFORMER_RMSD>  (1) 
0.4

>  <PUBCHEM_CONFORMER_DIVERSEORDER>  (1) 
7
43
21
49
40
24
22
2
29
8
47
44
15
19
27
30
13
48
32
45
9
25
46
12
35
18
26
31
37
14
36
41
39
33
10
34
11
4
23
17
20
6
38
16
28
5
42
1
3

>  <PUBCHEM_MMFF94_PARTIAL_CHARGES>  (1) 
9
1 -0.56
10 0.06
2 -0.68
22 0.4
3 -0.57
5 0.06
6 0.56
7 0.28
9 0.45

>  <PUBCHEM_EFFECTIVE_ROTOR_COUNT>  (1) 
2

>  <PUBCHEM_PHARMACOPHORE_FEATURES>  (1) 
5
1 1 acceptor
1 2 acceptor
1 2 donor
1 3 acceptor
5 1 4 5 6 7 rings

>  <PUBCHEM_HEAVY_ATOM_COUNT>  (1) 
10

>  <PUBCHEM_ATOM_DEF_STEREO_COUNT>  (1) 
0

>  <PUBCHEM_ATOM_UDEF_STEREO_COUNT>  (1) 
3

>  <PUBCHEM_BOND_DEF_STEREO_COUNT>  (1) 
0

>  <PUBCHEM_BOND_UDEF_STEREO_COUNT>  (1) 
0

>  <PUBCHEM_ISOTOPIC_ATOM_COUNT>  (1) 
0

>  <PUBCHEM_COMPONENT_COUNT>  (1) 
1

>  <PUBCHEM_CACTVS_TAUTO_COUNT>  (1) 
3

>  <PUBCHEM_CONFORMER_ID>  (1) 
000083A500000007

>  <PUBCHEM_MMFF94_ENERGY>  (1) 
17.2149

>  <PUBCHEM_FEATURE_SELFOVERLAP>  (1) 
25.41

>  <PUBCHEM_SHAPE_FINGERPRINT>  (1) 
12423570 1 16894539572994010586
12897270 3 18341337768263132964
161256 15 17546167866784818499
16945 1 18340494382583321658
18185500 45 18335985367102287754
20653085 51 17312825974026612109
21040471 1 18412262800694246315
23552423 10 18187646959270199690
2748010 2 18196652019309181586
29004967 10 14836405834913080658
369184 2 14764349301732120254
5084963 1 18040999509921024376

>  <PUBCHEM_SHAPE_MULTIPOLES>  (1) 
188.19
3.51
1.7
0.79
0.98
0.25
-0.02
-0.26
-0.48
-0.38
0.19
0.04
0.17
-0.35

>  <PUBCHEM_SHAPE_SELFOVERLAP>  (1) 
374.378

>  <PUBCHEM_SHAPE_VOLUME>  (1) 
113.5

>  <PUBCHEM_COORDINATE_TYPE>  (1) 
2
5
10

$$$$
