33718
     RDKit          3D

 12 13  0  0  0  0  0  0  0  0999 V2000
    2.6753   -1.0253    0.3003 O   0  0  0  0  0  0  0  0  0  0  0  0
    0.3941   -0.9331    0.2876 N   0  0  0  0  0  0  0  0  0  0  0  0
    1.7285    0.9693   -0.2791 N   0  0  0  0  0  0  0  0  0  0  0  0
    3.7543   -0.2360   -0.1745 C   0  0  0  0  0  0  0  0  0  0  0  0
    3.1821    1.1569   -0.2613 C   0  0  0  0  0  0  0  0  0  0  0  0
    1.5636   -0.2643    0.0863 C   0  0  0  0  0  0  0  0  0  0  0  0
   -0.9182   -0.4357    0.1459 C   0  0  0  0  0  0  0  0  0  0  0  0
   -1.9527   -1.2944   -0.2255 C   0  0  0  0  0  0  0  0  0  0  0  0
   -1.1819    0.9141    0.3783 C   0  0  0  0  0  0  0  0  0  0  0  0
   -3.2509   -0.8033   -0.3647 C   0  0  0  0  0  0  0  0  0  0  0  0
   -2.4799    1.4052    0.2391 C   0  0  0  0  0  0  0  0  0  0  0  0
   -3.5145    0.5465   -0.1324 C   0  0  0  0  0  0  0  0  0  0  0  0
  1  4  1  0
  1  6  1  0
  2  6  1  0
  2  7  1  0
  3  5  1  0
  3  6  2  0
  4  5  1  0
  7  8  2  0
  7  9  1  0
  8 10  1  0
  9 11  2  0
 10 12  2  0
 11 12  1  0
M  END
>  <PUBCHEM_COMPOUND_CID>  (1) 
33718

>  <PUBCHEM_CONFORMER_RMSD>  (1) 
0.6

>  <PUBCHEM_CONFORMER_DIVERSEORDER>  (1) 
1
5
3
4
6
2

>  <PUBCHEM_MMFF94_PARTIAL_CHARGES>  (1) 
18
1 -0.43
10 -0.15
11 -0.15
12 -0.15
17 0.4
18 0.15
19 0.15
2 -0.55
20 0.15
21 0.15
22 0.15
3 -0.7
4 0.28
5 0.25
6 0.65
7 0.1
8 -0.15
9 -0.15

>  <PUBCHEM_EFFECTIVE_ROTOR_COUNT>  (1) 
2.6

>  <PUBCHEM_PHARMACOPHORE_FEATURES>  (1) 
4
1 2 donor
3 2 3 6 cation
5 1 3 4 5 6 rings
6 7 8 9 10 11 12 rings

>  <PUBCHEM_HEAVY_ATOM_COUNT>  (1) 
12

>  <PUBCHEM_ATOM_DEF_STEREO_COUNT>  (1) 
0

>  <PUBCHEM_ATOM_UDEF_STEREO_COUNT>  (1) 
0

>  <PUBCHEM_BOND_DEF_STEREO_COUNT>  (1) 
0

>  <PUBCHEM_BOND_UDEF_STEREO_COUNT>  (1) 
0

>  <PUBCHEM_ISOTOPIC_ATOM_COUNT>  (1) 
0

>  <PUBCHEM_COMPONENT_COUNT>  (1) 
1

>  <PUBCHEM_CACTVS_TAUTO_COUNT>  (1) 
2

>  <PUBCHEM_CONFORMER_ID>  (1) 
000083B600000001

>  <PUBCHEM_MMFF94_ENERGY>  (1) 
32.3357

>  <PUBCHEM_FEATURE_SELFOVERLAP>  (1) 
20.297

>  <PUBCHEM_SHAPE_FINGERPRINT>  (1) 
10608611 8 18411978074490946808
12162725 195 18410012143431519524
12897270 3 18342175595986348075
12932764 1 17489862773705471002
14144814 61 18408322172568954170
14325111 11 18410293609696937264
15442244 35 18194119608224041106
15669948 3 18272644692585976815
15775835 57 18335425646774583365
17802600 8 18409721868030227348
18186145 218 18186236221179151942
20201158 50 18060139825327366191
20279233 1 16057159501692655230
20711983 171 18271810098819920733
21119208 17 18411699876500014333
22485316 2 10735881651125592924
23402539 116 18273204296622367325
23402655 69 18410291384993867316
23463225 33 18337389344656335758
23552423 10 18338232640179179315
23559900 14 18131347493404800488
3248919 1 17346324773357249274
57096353 35 18338515360331980719
57812782 119 18060416911005671348
93112 12 18412546513523050006

>  <PUBCHEM_SHAPE_MULTIPOLES>  (1) 
231.12
6.75
1.41
0.66
2.33
0.13
-0.01
0.49
-0.7
-0.37
0.01
-0.04
0.01
-0.37

>  <PUBCHEM_SHAPE_SELFOVERLAP>  (1) 
490.529

>  <PUBCHEM_SHAPE_VOLUME>  (1) 
129.8

>  <PUBCHEM_COORDINATE_TYPE>  (1) 
2
5
10

$$$$
