33714
     RDKit          3D

 18 19  0  0  0  0  0  0  0  0999 V2000
   -0.0723   -3.5289    0.1231 O   0  0  0  0  0  0  0  0  0  0  0  0
   -0.2482    3.4969    0.1273 O   0  0  0  0  0  0  0  0  0  0  0  0
   -2.0176   -2.5217    0.2666 O   0  0  0  0  0  0  0  0  0  0  0  0
   -2.1407    2.3935    0.2685 O   0  0  0  0  0  0  0  0  0  0  0  0
    3.9878   -1.0100   -0.1811 O   0  0  0  0  0  0  0  0  0  0  0  0
    3.9328    1.1845   -0.1808 O   0  0  0  0  0  0  0  0  0  0  0  0
   -2.2561   -0.0686    0.2806 N   0  0  0  0  0  0  0  0  0  0  0  0
   -0.7684   -2.4882    0.1733 N   0  0  0  0  0  0  0  0  0  0  0  0
   -0.8915    2.4226    0.1761 N   0  0  0  0  0  0  0  0  0  0  0  0
    3.3543    0.0721   -0.1360 N   0  0  0  0  0  0  0  0  0  0  0  0
   -3.0711   -0.7194   -0.7532 C   0  0  0  0  0  0  0  0  0  0  0  0
   -3.0959    0.7573   -0.5965 C   0  0  0  0  0  0  0  0  0  0  0  0
   -0.8429   -0.0332    0.1754 C   0  0  0  0  0  0  0  0  0  0  0  0
   -0.1173   -1.2234    0.1230 C   0  0  0  0  0  0  0  0  0  0  0  0
   -0.1778    1.1920    0.1244 C   0  0  0  0  0  0  0  0  0  0  0  0
    1.2734   -1.1885    0.0196 C   0  0  0  0  0  0  0  0  0  0  0  0
    1.2130    1.2266    0.0211 C   0  0  0  0  0  0  0  0  0  0  0  0
    1.9384    0.0364   -0.0314 C   0  0  0  0  0  0  0  0  0  0  0  0
  1  8  1  0
  2  9  1  0
  3  8  2  0
  4  9  2  0
  5 10  1  0
  6 10  2  0
  7 11  1  0
  7 12  1  0
  7 13  1  0
  8 14  1  0
  9 15  1  0
 10 18  1  0
 11 12  1  0
 13 14  2  0
 13 15  1  0
 14 16  1  0
 15 17  2  0
 16 18  2  0
 17 18  1  0
M  CHG  6   1  -1   2  -1   5  -1   8   1   9   1  10   1
M  END
>  <PUBCHEM_COMPOUND_CID>  (1) 
33714

>  <PUBCHEM_CONFORMER_RMSD>  (1) 
0.6

>  <PUBCHEM_CONFORMER_DIVERSEORDER>  (1) 
1

>  <PUBCHEM_MMFF94_PARTIAL_CHARGES>  (1) 
24
1 -0.52
10 0.91
11 -0.03
12 -0.03
13 0.1
14 0.13
15 0.13
16 -0.15
17 -0.15
18 0.13
19 0.1
2 -0.52
20 0.1
21 0.1
22 0.1
23 0.15
24 0.15
3 -0.52
4 -0.52
5 -0.52
6 -0.52
7 -0.44
8 0.91
9 0.91

>  <PUBCHEM_EFFECTIVE_ROTOR_COUNT>  (1) 
4.6

>  <PUBCHEM_PHARMACOPHORE_FEATURES>  (1) 
11
1 1 acceptor
1 1 anion
1 2 acceptor
1 2 anion
1 3 acceptor
1 4 acceptor
1 5 acceptor
1 5 anion
1 6 acceptor
1 7 cation
6 13 14 15 16 17 18 rings

>  <PUBCHEM_HEAVY_ATOM_COUNT>  (1) 
18

>  <PUBCHEM_ATOM_DEF_STEREO_COUNT>  (1) 
0

>  <PUBCHEM_ATOM_UDEF_STEREO_COUNT>  (1) 
0

>  <PUBCHEM_BOND_DEF_STEREO_COUNT>  (1) 
0

>  <PUBCHEM_BOND_UDEF_STEREO_COUNT>  (1) 
0

>  <PUBCHEM_ISOTOPIC_ATOM_COUNT>  (1) 
0

>  <PUBCHEM_COMPONENT_COUNT>  (1) 
1

>  <PUBCHEM_CACTVS_TAUTO_COUNT>  (1) 
1

>  <PUBCHEM_CONFORMER_ID>  (1) 
000083B200000001

>  <PUBCHEM_MMFF94_ENERGY>  (1) 
129.5844

>  <PUBCHEM_FEATURE_SELFOVERLAP>  (1) 
56.07

>  <PUBCHEM_SHAPE_FINGERPRINT>  (1) 
10693767 8 18058425695902269223
108231 29 18342454884914668369
10967382 1 18410573976561523066
11680986 33 17908697685216997881
13027679 85 18266743669719843621
13140716 1 18266741466137623722
14614273 12 18043808680573437389
14790565 3 18339092518502343369
15490181 7 17764321539059790813
16945 1 18410858767374305616
19591789 44 18411142398604154851
20510252 161 18343302531207520056
21029758 11 18269549619162004367
21339142 51 18265331892373291316
21501502 16 17978786805400928803
221490 88 17833264599451917119
22344851 341 17910116815257124722
2334 1 17906452478146229496
23402539 116 18342446041508187462
23419403 2 15825425486256393647
23557571 272 18196387024881543868
23559900 14 18341610447922424208
238 59 15589042095386763117
25 1 18262503811502464871
2748010 2 18052535770513553608
3084891 72 18411128117648290258
3250762 1 17689427609028350717
352729 6 18337958896074730858
353137 74 18337948978921339329
43471831 8 18192147105469668202
54173680 148 18337393858667217298
589210 1 17689996060692453397
7364860 26 17547010728119897378
81228 2 18342186565501815776
8809292 202 18410012173443718410
9709674 26 18343306942502897422

>  <PUBCHEM_SHAPE_MULTIPOLES>  (1) 
315.29
5.04
3.44
0.64
3.69
0.2
0.04
-0.23
0.97
-1.27
-0.42
-0.18
0.01
-0.03

>  <PUBCHEM_SHAPE_SELFOVERLAP>  (1) 
686.907

>  <PUBCHEM_SHAPE_VOLUME>  (1) 
171.2

>  <PUBCHEM_COORDINATE_TYPE>  (1) 
2
5
10

$$$$
