33724
     RDKit          3D

 12 12  0  0  1  0  0  0  0  0999 V2000
   -1.9052    1.8958    0.9249 Cl  0  0  0  0  0  0  0  0  0  0  0  0
   -1.1580    0.9118   -1.6985 Cl  0  0  0  0  0  0  0  0  0  0  0  0
    1.2621    2.3738    0.0175 Cl  0  0  0  0  0  0  0  0  0  0  0  0
   -3.1494   -1.0661   -0.0138 Cl  0  0  0  0  0  0  0  0  0  0  0  0
    1.8736   -0.4105   -1.6917 Cl  0  0  0  0  0  0  0  0  0  0  0  0
    3.0849   -0.2769    0.9281 Cl  0  0  0  0  0  0  0  0  0  0  0  0
   -0.9242    0.6302    0.0699 C   0  0  0  0  0  0  0  0  0  0  0  0
    0.5712    0.7747    0.4930 C   0  0  0  0  0  0  0  0  0  0  0  0
   -1.4489   -0.7685    0.4841 C   0  0  0  0  0  0  0  0  0  0  0  0
    1.4954   -0.4028    0.0700 C   0  0  0  0  0  0  0  0  0  0  0  0
   -0.5705   -1.9090   -0.0372 C   0  0  0  0  0  0  0  0  0  0  0  0
    0.8688   -1.7525    0.4537 C   0  0  0  0  0  0  0  0  0  0  0  0
  1  7  1  0
  2  7  1  0
  3  8  1  0
  4  9  1  0
  5 10  1  0
  6 10  1  0
  7  8  1  0
  7  9  1  0
  8 10  1  0
  9 11  1  0
 10 12  1  0
 11 12  1  0
M  END
>  <PUBCHEM_COMPOUND_CID>  (1) 
33724

>  <PUBCHEM_CONFORMER_RMSD>  (1) 
0.4

>  <PUBCHEM_CONFORMER_DIVERSEORDER>  (1) 
1
7
2
3
4
8
5
6

>  <PUBCHEM_MMFF94_PARTIAL_CHARGES>  (1) 
10
1 -0.29
10 0.58
2 -0.29
3 -0.29
4 -0.29
5 -0.29
6 -0.29
7 0.58
8 0.29
9 0.29

>  <PUBCHEM_EFFECTIVE_ROTOR_COUNT>  (1) 
1.2

>  <PUBCHEM_PHARMACOPHORE_FEATURES>  (1) 
1
6 7 8 9 10 11 12 rings

>  <PUBCHEM_HEAVY_ATOM_COUNT>  (1) 
12

>  <PUBCHEM_ATOM_DEF_STEREO_COUNT>  (1) 
0

>  <PUBCHEM_ATOM_UDEF_STEREO_COUNT>  (1) 
2

>  <PUBCHEM_BOND_DEF_STEREO_COUNT>  (1) 
0

>  <PUBCHEM_BOND_UDEF_STEREO_COUNT>  (1) 
0

>  <PUBCHEM_ISOTOPIC_ATOM_COUNT>  (1) 
0

>  <PUBCHEM_COMPONENT_COUNT>  (1) 
1

>  <PUBCHEM_CACTVS_TAUTO_COUNT>  (1) 
1

>  <PUBCHEM_CONFORMER_ID>  (1) 
000083BC00000001

>  <PUBCHEM_MMFF94_ENERGY>  (1) 
28.0296

>  <PUBCHEM_FEATURE_SELFOVERLAP>  (1) 
5.074

>  <PUBCHEM_SHAPE_FINGERPRINT>  (1) 
10353120 184 18341065076515836455
11206711 2 18408328769818082071
12423570 1 8682175860933381462
12524768 44 18053399960820014647
14614273 12 18115580448790332239
14817 1 15797859454143061708
15775835 57 18041002842778774908
16945 1 18339939193625462699
21040471 1 18122917425246839010
21501502 16 18409451422492648625
22802520 49 17628933239403740166
2334 1 17762056940259498363
23402539 116 18201137915234572718
23419403 2 17765670914989919569
23552423 10 18410581712135265881
23559900 14 17984153561382389934
241688 4 18195252109163289026
2748010 2 18196372524323242674
5084963 1 17676482847875347194
68250623 7 17630076886126005573

>  <PUBCHEM_SHAPE_MULTIPOLES>  (1) 
258.17
3.73
2.3
1.34
0.14
0.65
0.68
-0.6
-0.51
0.33
-0.32
-0.26
0.2
-0.09

>  <PUBCHEM_SHAPE_SELFOVERLAP>  (1) 
458.62

>  <PUBCHEM_SHAPE_VOLUME>  (1) 
167.4

>  <PUBCHEM_COORDINATE_TYPE>  (1) 
2
5
10

$$$$
