33736
     RDKit          3D

 15 15  0  0  0  0  0  0  0  0999 V2000
   -2.8136   -2.3721   -0.0324 O   0  0  0  0  0  0  0  0  0  0  0  0
    3.8756    0.8421    0.6587 O   0  0  0  0  0  0  0  0  0  0  0  0
   -1.1385    1.4602   -0.0754 C   0  0  0  0  0  0  0  0  0  0  0  0
   -2.4983    1.1165   -0.7271 C   0  0  0  0  0  0  0  0  0  0  0  0
   -0.2984    0.1807    0.1210 C   0  0  0  0  0  0  0  0  0  0  0  0
   -3.2019   -0.0286   -0.0320 C   0  0  0  0  0  0  0  0  0  0  0  0
   -1.3691    2.1411    1.2910 C   0  0  0  0  0  0  0  0  0  0  0  0
   -0.4617    2.4818   -1.0238 C   0  0  0  0  0  0  0  0  0  0  0  0
   -0.8286   -1.0657    0.1300 C   0  0  0  0  0  0  0  0  0  0  0  0
   -2.3170   -1.2454   -0.0034 C   0  0  0  0  0  0  0  0  0  0  0  0
    1.1269    0.4002    0.3063 C   0  0  0  0  0  0  0  0  0  0  0  0
   -0.0841   -2.3642    0.3127 C   0  0  0  0  0  0  0  0  0  0  0  0
    2.0449   -0.3887   -0.2424 C   0  0  0  0  0  0  0  0  0  0  0  0
    3.4905   -0.1110   -0.0149 C   0  0  0  0  0  0  0  0  0  0  0  0
    4.4734   -1.0468   -0.6682 C   0  0  0  0  0  0  0  0  0  0  0  0
  1 10  2  0
  2 14  2  0
  3  4  1  0
  3  5  1  0
  3  7  1  0
  3  8  1  0
  4  6  1  0
  5  9  2  0
  5 11  1  0
  6 10  1  0
  9 10  1  0
  9 12  1  0
 11 13  2  0
 13 14  1  0
 14 15  1  0
M  END
>  <PUBCHEM_COMPOUND_CID>  (1) 
33736

>  <PUBCHEM_CONFORMER_RMSD>  (1) 
0.6

>  <PUBCHEM_CONFORMER_DIVERSEORDER>  (1) 
2
5
3
1
4

>  <PUBCHEM_MMFF94_PARTIAL_CHARGES>  (1) 
14
1 -0.57
10 0.49
11 -0.15
12 0.14
13 -0.14
14 0.49
15 0.06
2 -0.57
26 0.15
3 0.14
30 0.15
5 -0.14
6 0.06
9 -0.12

>  <PUBCHEM_EFFECTIVE_ROTOR_COUNT>  (1) 
2.6

>  <PUBCHEM_PHARMACOPHORE_FEATURES>  (1) 
4
1 1 acceptor
1 2 acceptor
3 3 7 8 hydrophobe
6 3 4 5 6 9 10 rings

>  <PUBCHEM_HEAVY_ATOM_COUNT>  (1) 
15

>  <PUBCHEM_ATOM_DEF_STEREO_COUNT>  (1) 
0

>  <PUBCHEM_ATOM_UDEF_STEREO_COUNT>  (1) 
0

>  <PUBCHEM_BOND_DEF_STEREO_COUNT>  (1) 
0

>  <PUBCHEM_BOND_UDEF_STEREO_COUNT>  (1) 
1

>  <PUBCHEM_ISOTOPIC_ATOM_COUNT>  (1) 
0

>  <PUBCHEM_COMPONENT_COUNT>  (1) 
1

>  <PUBCHEM_CACTVS_TAUTO_COUNT>  (1) 
4

>  <PUBCHEM_CONFORMER_ID>  (1) 
000083C800000002

>  <PUBCHEM_MMFF94_ENERGY>  (1) 
37.8987

>  <PUBCHEM_FEATURE_SELFOVERLAP>  (1) 
20.297

>  <PUBCHEM_SHAPE_FINGERPRINT>  (1) 
10608611 8 18342171159770642432
108231 29 18269553999812394697
10989021 7 18188496903017172324
11132069 177 18410852166062481592
11680986 33 17615686667099745043
12032990 46 18338239382987664203
13024252 1 15140970530216784761
13027679 85 18343017835237393785
13380535 220 18189895499409344877
14614273 12 18189893123960049357
15775835 57 18189337857713695856
16945 1 18336250268074672109
17870717 6 18127428782297666950
18186145 218 18270117895043885632
200 152 17131826543394997510
20510252 161 18341331166903661034
20871998 184 18272372005011977711
21029758 11 18198334246867984171
21029758 27 18042133205430905591
21296965 67 18266457792338389971
22213442 358 18265893734056468589
2334 1 18193273228920187537
23402539 116 18411691106287858222
23419403 2 17911772950721182533
23557571 272 18342186591261109126
23559900 14 18341889672193613144
2748010 2 18193261104380511221
3071541 250 18046635774134204327
353137 74 18337104549743621939
4175511 318 17604139342354606205
43471831 8 18260543381711698690
6333449 129 18411699855130724764
7364860 26 17620192474065706617
77492 1 17240477001244448706
81228 2 18336273430648573058
8809292 202 18410858771801459994
9709674 26 18201160949545309478

>  <PUBCHEM_SHAPE_MULTIPOLES>  (1) 
296.95
6.16
2.56
0.9
7.65
0.21
-0.05
1.11
0.59
-1.74
-0.02
-0.08
-0.44
0.25

>  <PUBCHEM_SHAPE_SELFOVERLAP>  (1) 
603.195

>  <PUBCHEM_SHAPE_VOLUME>  (1) 
172.8

>  <PUBCHEM_COORDINATE_TYPE>  (1) 
2
5
10

$$$$
