33740
     RDKit          3D

 15 14  0  0  1  0  0  0  0  0999 V2000
   -4.2168    1.5035    0.4488 O   0  0  0  0  0  0  0  0  0  0  0  0
   -0.3154   -0.5015    0.1450 C   0  0  0  0  0  0  0  0  0  0  0  0
   -1.6025    0.2626   -0.1834 C   0  0  0  0  0  0  0  0  0  0  0  0
    0.9519    0.3326   -0.0573 C   0  0  0  0  0  0  0  0  0  0  0  0
   -2.9109   -0.4986    0.0690 C   0  0  0  0  0  0  0  0  0  0  0  0
    2.2411   -0.4549    0.1963 C   0  0  0  0  0  0  0  0  0  0  0  0
   -4.1814    0.2852   -0.2892 C   0  0  0  0  0  0  0  0  0  0  0  0
    3.5096    0.3560   -0.0797 C   0  0  0  0  0  0  0  0  0  0  0  0
    4.7665   -0.4961    0.1175 C   0  0  0  0  0  0  0  0  0  0  0  0
   -5.4396   -0.5405    0.0139 C   0  0  0  0  0  0  0  0  0  0  0  0
    6.0350    0.3241   -0.1276 C   0  0  0  0  0  0  0  0  0  0  0  0
   -6.7570    0.1794   -0.2956 C   0  0  0  0  0  0  0  0  0  0  0  0
    7.3234   -0.4732    0.0867 C   0  0  0  0  0  0  0  0  0  0  0  0
   -7.9908   -0.6235    0.0865 C   0  0  0  0  0  0  0  0  0  0  0  0
    8.5870    0.3447   -0.1310 C   0  0  0  0  0  0  0  0  0  0  0  0
  1  7  1  0
  2  3  1  0
  2  4  1  0
  3  5  1  0
  4  6  1  0
  5  7  1  0
  6  8  1  0
  7 10  1  0
  8  9  1  0
  9 11  1  0
 10 12  1  0
 11 13  1  0
 12 14  1  0
 13 15  1  0
M  END
>  <PUBCHEM_COMPOUND_CID>  (1) 
33740

>  <PUBCHEM_CONFORMER_RMSD>  (1) 
1.2

>  <PUBCHEM_CONFORMER_DIVERSEORDER>  (1) 
1
27
65
16
31
6
15
26
3
91
21
71
81
8
33
76
13
79
64
83
55
32
82
68
4
30
63
84
80
93
95
70
54
25
41
89
48
10
20
77
86
67
60
46
87
14
44
36
37
7
58
59
66
22
2
78
69
50
12
51
94
23
49
29
75
61
45
28
42
5
19
35
17
85
73
38
18
56
57
47
9
34
74
43
39
90
88
62
72
92
24
11
52
53
40

>  <PUBCHEM_MMFF94_PARTIAL_CHARGES>  (1) 
3
1 -0.68
39 0.4
7 0.28

>  <PUBCHEM_EFFECTIVE_ROTOR_COUNT>  (1) 
11

>  <PUBCHEM_PHARMACOPHORE_FEATURES>  (1) 
4
1 1 acceptor
1 1 donor
1 14 hydrophobe
1 15 hydrophobe

>  <PUBCHEM_HEAVY_ATOM_COUNT>  (1) 
15

>  <PUBCHEM_ATOM_DEF_STEREO_COUNT>  (1) 
0

>  <PUBCHEM_ATOM_UDEF_STEREO_COUNT>  (1) 
1

>  <PUBCHEM_BOND_DEF_STEREO_COUNT>  (1) 
0

>  <PUBCHEM_BOND_UDEF_STEREO_COUNT>  (1) 
0

>  <PUBCHEM_ISOTOPIC_ATOM_COUNT>  (1) 
0

>  <PUBCHEM_COMPONENT_COUNT>  (1) 
1

>  <PUBCHEM_CACTVS_TAUTO_COUNT>  (1) 
1

>  <PUBCHEM_CONFORMER_ID>  (1) 
000083CC00000001

>  <PUBCHEM_MMFF94_ENERGY>  (1) 
0.9102

>  <PUBCHEM_FEATURE_SELFOVERLAP>  (1) 
20.297

>  <PUBCHEM_SHAPE_FINGERPRINT>  (1) 
10968037 39 18334856122064807007
11315181 36 18187087265239423657
12091667 2 18060700589511549423
14123256 10 18333449841749080691
14251764 18 18408602548092130826
14251764 46 18410012139041665110
17834076 25 18408322185754523278
18006028 8 18343863320507554456
20281389 69 17967529078154856572
21150785 3 18407759244158979978
21315763 28 18411418406251112312
22224240 67 16008749126177595386
23035841 295 9871747992335377549
23521765 1 18342175570353720358
246663 6 17775851224152134111
33684 2 16298384664967118363
42788 4 18412262835576178512
4325135 7 18408885139617933262
57583515 80 14129060314030330981
59567204 34 18338232653834831765
67123 10 18335421287820380974
8209 1 18410573989446424942

>  <PUBCHEM_SHAPE_MULTIPOLES>  (1) 
302.82
26.78
0.89
0.64
12.28
0.11
0
-0.93
-0.79
-0.47
0.06
-0.07
0.01
-0.16

>  <PUBCHEM_SHAPE_SELFOVERLAP>  (1) 
539.917

>  <PUBCHEM_SHAPE_VOLUME>  (1) 
197

>  <PUBCHEM_COORDINATE_TYPE>  (1) 
2
5
10

$$$$
