33758
     RDKit          3D

  9  9  0  0  0  0  0  0  0  0999 V2000
    3.1900   -1.2464   -0.0489 Br  0  0  0  0  0  0  0  0  0  0  0  0
   -2.0803   -0.9573    0.1005 N   0  0  0  0  0  0  0  0  0  0  0  0
   -3.2763   -0.3273   -0.1518 N   0  0  0  0  0  0  0  0  0  0  0  0
   -0.8527   -0.2643    0.0584 C   0  0  0  0  0  0  0  0  0  0  0  0
    0.3484   -0.9728    0.0307 C   0  0  0  0  0  0  0  0  0  0  0  0
   -0.8401    1.1305    0.0445 C   0  0  0  0  0  0  0  0  0  0  0  0
    1.5622   -0.2868   -0.0111 C   0  0  0  0  0  0  0  0  0  0  0  0
    0.3739    1.8166    0.0029 C   0  0  0  0  0  0  0  0  0  0  0  0
    1.5749    1.1079   -0.0251 C   0  0  0  0  0  0  0  0  0  0  0  0
  1  7  1  0
  2  3  1  0
  2  4  1  0
  4  5  2  0
  4  6  1  0
  5  7  1  0
  6  8  2  0
  7  9  2  0
  8  9  1  0
M  END
>  <PUBCHEM_COMPOUND_CID>  (1) 
33758

>  <PUBCHEM_CONFORMER_RMSD>  (1) 
0.4

>  <PUBCHEM_CONFORMER_DIVERSEORDER>  (1) 
1
2
3

>  <PUBCHEM_MMFF94_PARTIAL_CHARGES>  (1) 
16
1 -0.11
10 0.15
11 0.15
12 0.15
13 0.15
14 0.4
15 0.36
16 0.36
2 -0.51
3 -0.71
4 0.1
5 -0.15
6 -0.15
7 0.11
8 -0.15
9 -0.15

>  <PUBCHEM_EFFECTIVE_ROTOR_COUNT>  (1) 
1

>  <PUBCHEM_PHARMACOPHORE_FEATURES>  (1) 
4
1 1 hydrophobe
1 2 donor
1 3 donor
6 4 5 6 7 8 9 rings

>  <PUBCHEM_HEAVY_ATOM_COUNT>  (1) 
9

>  <PUBCHEM_ATOM_DEF_STEREO_COUNT>  (1) 
0

>  <PUBCHEM_ATOM_UDEF_STEREO_COUNT>  (1) 
0

>  <PUBCHEM_BOND_DEF_STEREO_COUNT>  (1) 
0

>  <PUBCHEM_BOND_UDEF_STEREO_COUNT>  (1) 
0

>  <PUBCHEM_ISOTOPIC_ATOM_COUNT>  (1) 
0

>  <PUBCHEM_COMPONENT_COUNT>  (1) 
1

>  <PUBCHEM_CACTVS_TAUTO_COUNT>  (1) 
1

>  <PUBCHEM_CONFORMER_ID>  (1) 
000083DE00000001

>  <PUBCHEM_MMFF94_ENERGY>  (1) 
27.3701

>  <PUBCHEM_FEATURE_SELFOVERLAP>  (1) 
21.83

>  <PUBCHEM_SHAPE_FINGERPRINT>  (1) 
10857977 72 18341036429326507010
14128692 85 18410299094723576260
16945 1 18194967563316655384
20871998 184 18057880243391721374
20871998 22 18271816661651547670
21040471 1 17617941773600320096
23552423 10 18259991440117399238
241688 4 18337111155387765592
2748010 2 18410567371123705804
29004967 10 18335985388418946825
5084963 1 18272089374852406194

>  <PUBCHEM_SHAPE_MULTIPOLES>  (1) 
181.2
4.11
1.7
0.62
0.06
0.63
0
-2.19
0.17
-0.2
-0.01
-0.09
0
0

>  <PUBCHEM_SHAPE_SELFOVERLAP>  (1) 
357.877

>  <PUBCHEM_SHAPE_VOLUME>  (1) 
111.6

>  <PUBCHEM_COORDINATE_TYPE>  (1) 
2
5
10

$$$$
