33754
     RDKit          3D

 13 14  0  0  0  0  0  0  0  0999 V2000
    3.2190   -0.3363    0.6798 O   0  0  0  0  0  0  0  0  0  0  0  0
    0.3418    0.9049   -0.1921 N   0  0  0  0  0  0  0  0  0  0  0  0
    0.2837   -1.2539   -0.3286 N   0  0  0  0  0  0  0  0  0  0  0  0
    4.6481   -0.3768    0.4182 N   0  0  0  0  0  0  0  0  0  0  0  0
   -0.9806    0.5460   -0.0306 C   0  0  0  0  0  0  0  0  0  0  0  0
    1.0904   -0.1885   -0.3706 C   0  0  0  0  0  0  0  0  0  0  0  0
   -1.0181   -0.8477   -0.1187 C   0  0  0  0  0  0  0  0  0  0  0  0
    2.5595   -0.2337   -0.5788 C   0  0  0  0  0  0  0  0  0  0  0  0
   -2.1208    1.3123    0.1809 C   0  0  0  0  0  0  0  0  0  0  0  0
    0.8527    2.2635   -0.1714 C   0  0  0  0  0  0  0  0  0  0  0  0
   -2.1984   -1.5722   -0.0016 C   0  0  0  0  0  0  0  0  0  0  0  0
   -3.3197    0.5951    0.3013 C   0  0  0  0  0  0  0  0  0  0  0  0
   -3.3576   -0.8127    0.2121 C   0  0  0  0  0  0  0  0  0  0  0  0
  1  4  1  0
  1  8  1  0
  2  5  1  0
  2  6  2  0
  2 10  1  0
  3  6  1  0
  3  7  1  0
  5  7  2  0
  5  9  1  0
  6  8  1  0
  7 11  1  0
  9 12  2  0
 11 13  2  0
 12 13  1  0
M  CHG  1   2   1
M  END
>  <PUBCHEM_COMPOUND_CID>  (1) 
33754

>  <PUBCHEM_CONFORMER_RMSD>  (1) 
0.6

>  <PUBCHEM_CONFORMER_DIVERSEORDER>  (1) 
1
3
2
4

>  <PUBCHEM_MMFF94_PARTIAL_CHARGES>  (1) 
20
1 -0.18
10 0.51
11 -0.11
12 -0.15
13 -0.15
14 0.45
17 0.15
2 -0.76
21 0.15
22 0.15
23 0.15
24 0.36
25 0.36
3 -0.7
4 -0.82
5 0.31
6 0.66
7 0.31
8 0.42
9 -0.11

>  <PUBCHEM_EFFECTIVE_ROTOR_COUNT>  (1) 
2

>  <PUBCHEM_PHARMACOPHORE_FEATURES>  (1) 
4
1 3 donor
3 2 3 6 cation
5 2 3 5 6 7 rings
6 5 7 9 11 12 13 rings

>  <PUBCHEM_HEAVY_ATOM_COUNT>  (1) 
13

>  <PUBCHEM_ATOM_DEF_STEREO_COUNT>  (1) 
0

>  <PUBCHEM_ATOM_UDEF_STEREO_COUNT>  (1) 
0

>  <PUBCHEM_BOND_DEF_STEREO_COUNT>  (1) 
0

>  <PUBCHEM_BOND_UDEF_STEREO_COUNT>  (1) 
0

>  <PUBCHEM_ISOTOPIC_ATOM_COUNT>  (1) 
0

>  <PUBCHEM_COMPONENT_COUNT>  (1) 
1

>  <PUBCHEM_CACTVS_TAUTO_COUNT>  (1) 
2

>  <PUBCHEM_CONFORMER_ID>  (1) 
000083DA00000001

>  <PUBCHEM_MMFF94_ENERGY>  (1) 
19.0313

>  <PUBCHEM_FEATURE_SELFOVERLAP>  (1) 
20.405

>  <PUBCHEM_SHAPE_FINGERPRINT>  (1) 
10130415 120 18260268559722952144
11132069 177 18412266103534594444
12032990 46 18340215115309601974
12119455 92 17060331886562778166
12251169 10 18410857667809936835
12382932 28 18340488850565100818
124424 183 18114177532172366431
13024252 1 14996004328899451671
13140716 1 18339651164913403657
13214271 11 18272364261454708420
13380535 76 18412547574696723567
14144814 61 18409452487638944955
15219456 202 17917436363206174390
15375462 189 17967810531445370666
15536298 74 18270401723689321008
16945 1 18340218431282570447
17804303 29 18342178877457491280
200 152 17988350547193125559
20645464 45 17846500322383367527
21501502 16 18267309918144818781
21501925 9 18340483481966802419
2297311 6 18342466898776647078
2334 1 18051700133366116653
23402539 116 18272360971931765943
23402655 69 18196922276950225661
23463225 33 18335422344234740182
23552423 10 18046070620836277453
23559900 14 18198915721342583318
2748010 2 18195533820790371261
53812653 166 18271805683603966553
6333449 129 18272367555657772423
7364860 26 18126287677710911968
90316 7 18188481364142103776

>  <PUBCHEM_SHAPE_MULTIPOLES>  (1) 
246.72
6.07
1.71
0.69
4.55
0.65
0
-1.28
1.27
-0.45
-0.07
0.18
-0.02
-0.16

>  <PUBCHEM_SHAPE_SELFOVERLAP>  (1) 
526.858

>  <PUBCHEM_SHAPE_VOLUME>  (1) 
141.2

>  <PUBCHEM_COORDINATE_TYPE>  (1) 
2
5
10

$$$$
