33777
     RDKit          3D

 18 19  0  0  0  0  0  0  0  0999 V2000
   -2.7631    2.7986   -0.8517 Cl  0  0  0  0  0  0  0  0  0  0  0  0
    2.1154   -2.7844   -0.3604 O   0  0  0  0  0  0  0  0  0  0  0  0
    4.0697    1.3817    0.1152 O   0  0  0  0  0  0  0  0  0  0  0  0
   -0.5696    0.9781    0.2168 N   0  0  0  0  0  0  0  0  0  0  0  0
    1.7622    1.2214    0.1720 N   0  0  0  0  0  0  0  0  0  0  0  0
    0.7486   -0.9395   -0.0747 N   0  0  0  0  0  0  0  0  0  0  0  0
    3.1377   -0.7222   -0.1249 N   0  0  0  0  0  0  0  0  0  0  0  0
   -1.8751    0.4375    0.1902 C   0  0  0  0  0  0  0  0  0  0  0  0
   -2.9583    1.1805   -0.2793 C   0  0  0  0  0  0  0  0  0  0  0  0
   -2.0689   -0.8669    0.6451 C   0  0  0  0  0  0  0  0  0  0  0  0
    0.7043    0.3936    0.0995 C   0  0  0  0  0  0  0  0  0  0  0  0
   -4.2351    0.6189   -0.2941 C   0  0  0  0  0  0  0  0  0  0  0  0
   -3.3458   -1.4283    0.6303 C   0  0  0  0  0  0  0  0  0  0  0  0
   -4.4288   -0.6854    0.1607 C   0  0  0  0  0  0  0  0  0  0  0  0
    1.9956   -1.4264   -0.1784 C   0  0  0  0  0  0  0  0  0  0  0  0
    2.9437    0.5946    0.0522 C   0  0  0  0  0  0  0  0  0  0  0  0
    0.9058   -3.5264   -0.4192 C   0  0  0  0  0  0  0  0  0  0  0  0
    3.8615    2.7745    0.3005 C   0  0  0  0  0  0  0  0  0  0  0  0
  1  9  1  0
  2 15  1  0
  2 17  1  0
  3 16  1  0
  3 18  1  0
  4  8  1  0
  4 11  1  0
  5 11  2  0
  5 16  1  0
  6 11  1  0
  6 15  2  0
  7 15  1  0
  7 16  2  0
  8  9  2  0
  8 10  1  0
  9 12  1  0
 10 13  2  0
 12 14  2  0
 13 14  1  0
M  END
>  <PUBCHEM_COMPOUND_CID>  (1) 
33777

>  <PUBCHEM_CONFORMER_RMSD>  (1) 
0.6

>  <PUBCHEM_CONFORMER_DIVERSEORDER>  (1) 
1
25
13
36
15
34
16
35
12
23
10
28
14
33
2
24
6
5
29
19
18
30
20
17
26
4
31
22
3
32
21
9
27
11
7
8

>  <PUBCHEM_MMFF94_PARTIAL_CHARGES>  (1) 
23
1 -0.18
10 -0.15
11 0.72
12 -0.15
13 -0.15
14 -0.15
15 0.7
16 0.7
17 0.28
18 0.28
19 0.4
2 -0.36
20 0.15
21 0.15
22 0.15
23 0.15
3 -0.36
4 -0.6
5 -0.62
6 -0.62
7 -0.62
8 0.1
9 0.18

>  <PUBCHEM_EFFECTIVE_ROTOR_COUNT>  (1) 
4

>  <PUBCHEM_PHARMACOPHORE_FEATURES>  (1) 
4
1 4 donor
4 4 5 6 11 cation
6 5 6 7 11 15 16 rings
6 8 9 10 12 13 14 rings

>  <PUBCHEM_HEAVY_ATOM_COUNT>  (1) 
18

>  <PUBCHEM_ATOM_DEF_STEREO_COUNT>  (1) 
0

>  <PUBCHEM_ATOM_UDEF_STEREO_COUNT>  (1) 
0

>  <PUBCHEM_BOND_DEF_STEREO_COUNT>  (1) 
0

>  <PUBCHEM_BOND_UDEF_STEREO_COUNT>  (1) 
0

>  <PUBCHEM_ISOTOPIC_ATOM_COUNT>  (1) 
0

>  <PUBCHEM_COMPONENT_COUNT>  (1) 
1

>  <PUBCHEM_CACTVS_TAUTO_COUNT>  (1) 
3

>  <PUBCHEM_CONFORMER_ID>  (1) 
000083F100000001

>  <PUBCHEM_MMFF94_ENERGY>  (1) 
63.9614

>  <PUBCHEM_FEATURE_SELFOVERLAP>  (1) 
20.297

>  <PUBCHEM_SHAPE_FINGERPRINT>  (1) 
10608611 8 18336263449044609877
10616163 171 18409732893485556791
11370993 70 18409444812490273451
12553582 1 17476936653106521742
138480 1 18051696538305105118
14415576 193 18408044009202192668
15196674 1 18410856577178556339
15219456 202 18409168796696388913
15375358 24 18334575767541817307
15375462 6 18410855443175341045
15442244 35 17980765930678744457
15927050 60 14377878244348844063
18186145 218 18272382974764685248
19049666 15 18264770952649161257
200 152 18060697308451973345
204376 136 18269275836387370296
20510252 161 18408885110244570481
20645477 56 18115308865556269173
20645477 70 18131069281965204423
221490 88 18338525135867859146
23402539 116 17968648436699666245
23557571 272 17676770894558307045
23559900 14 18267015059791317008
33824 294 18411139151334897275
474229 33 18266740375268859562
495365 180 18199729402163489617
5104073 3 18335422348587886553
58051976 378 18411417340645419077
621550 34 18409451401392053165
633830 44 17845670212669215724
7364860 26 18340487755638830874
7808743 9 17834390503859838792
81228 2 17895205355074372517
81539 233 18409730685893277422
8272917 22 18271531901014000687
9709674 26 18337393734308318439
9925002 15 17471859580702400364

>  <PUBCHEM_SHAPE_MULTIPOLES>  (1) 
340.64
8.29
3.38
0.73
1.12
1.12
-0.02
-3.14
0.22
-2.06
-0.66
0.26
-0.03
1.29

>  <PUBCHEM_SHAPE_SELFOVERLAP>  (1) 
711.496

>  <PUBCHEM_SHAPE_VOLUME>  (1) 
192.7

>  <PUBCHEM_COORDINATE_TYPE>  (1) 
2
5
10

$$$$
