33773
     RDKit          3D

 10  9  0  0  0  0  0  0  0  0999 V2000
   -1.6971   -0.0049   -0.2944 O   0  0  0  0  0  0  0  0  0  0  0  0
   -5.2567    0.4608    0.2665 O   0  0  0  0  0  0  0  0  0  0  0  0
   -2.9878   -0.3017    0.2219 C   0  0  0  0  0  0  0  0  0  0  0  0
   -0.7358   -0.9656    0.1194 C   0  0  0  0  0  0  0  0  0  0  0  0
   -3.9610    0.7687   -0.2333 C   0  0  0  0  0  0  0  0  0  0  0  0
    0.5927   -0.5948   -0.4562 C   0  0  0  0  0  0  0  0  0  0  0  0
    1.6757   -0.3289    0.2890 C   0  0  0  0  0  0  0  0  0  0  0  0
    2.9580    0.0234   -0.2772 C   0  0  0  0  0  0  0  0  0  0  0  0
    4.0408    0.2892    0.4683 C   0  0  0  0  0  0  0  0  0  0  0  0
    5.3712    0.6539   -0.1040 C   0  0  0  0  0  0  0  0  0  0  0  0
  1  3  1  0
  1  4  1  0
  2  5  1  0
  3  5  1  0
  4  6  1  0
  6  7  2  0
  7  8  1  0
  8  9  2  0
  9 10  1  0
M  END
>  <PUBCHEM_COMPOUND_CID>  (1) 
33773

>  <PUBCHEM_CONFORMER_RMSD>  (1) 
0.6

>  <PUBCHEM_CONFORMER_DIVERSEORDER>  (1) 
2
35
19
17
21
20
32
37
11
34
15
38
26
7
27
14
24
6
31
22
16
36
3
28
33
8
18
23
29
12
39
30
10
1
25
40
5
4
13
9

>  <PUBCHEM_MMFF94_PARTIAL_CHARGES>  (1) 
15
1 -0.56
10 0.14
17 0.15
18 0.15
19 0.15
2 -0.68
20 0.15
21 0.4
3 0.28
4 0.42
5 0.28
6 -0.29
7 -0.15
8 -0.15
9 -0.29

>  <PUBCHEM_EFFECTIVE_ROTOR_COUNT>  (1) 
5

>  <PUBCHEM_PHARMACOPHORE_FEATURES>  (1) 
4
1 1 acceptor
1 10 hydrophobe
1 2 acceptor
1 2 donor

>  <PUBCHEM_HEAVY_ATOM_COUNT>  (1) 
10

>  <PUBCHEM_ATOM_DEF_STEREO_COUNT>  (1) 
0

>  <PUBCHEM_ATOM_UDEF_STEREO_COUNT>  (1) 
0

>  <PUBCHEM_BOND_DEF_STEREO_COUNT>  (1) 
0

>  <PUBCHEM_BOND_UDEF_STEREO_COUNT>  (1) 
2

>  <PUBCHEM_ISOTOPIC_ATOM_COUNT>  (1) 
0

>  <PUBCHEM_COMPONENT_COUNT>  (1) 
1

>  <PUBCHEM_CACTVS_TAUTO_COUNT>  (1) 
1

>  <PUBCHEM_CONFORMER_ID>  (1) 
000083ED00000002

>  <PUBCHEM_MMFF94_ENERGY>  (1) 
8.1151

>  <PUBCHEM_FEATURE_SELFOVERLAP>  (1) 
20.297

>  <PUBCHEM_SHAPE_FINGERPRINT>  (1) 
100836 57 18412548716857168404
11062470 55 18411135835598551914
114248 4 15339116853172825453
12714333 28 16559029393952829264
13690532 89 10231757790541648452
14123238 8 17748826323610691025
14252887 29 14345788315140598880
15501527 16 18411983589207524656
17834076 25 18410855464433691584
18342897 14 18187364341853157364
187816 3 14836406938508828590
20432913 95 12973883684714612369
20605781 2 18343301470028532384
20645477 56 18413389855979018031
20645477 70 17059786516037386310
20724930 31 11314026877134350118
20767249 13 8502655900221676648
20767249 213 18334857229776063725
20828058 44 15864075389951732858
21119208 17 14908178659518065048
212847 35 18413386540902595120
21293036 1 14979956973450040834
23402539 116 18131062753435364862
23402655 69 16988844938911998625
366044 4 18341894099466664447
42 15 13767926810328949071
42788 4 18410855464618314408
449060 50 17822008709675633790

>  <PUBCHEM_SHAPE_MULTIPOLES>  (1) 
194.06
11.59
0.89
0.69
0.79
0.03
0
-4.41
0.7
0.17
-0.01
-0.12
0.01
0.05

>  <PUBCHEM_SHAPE_SELFOVERLAP>  (1) 
352.672

>  <PUBCHEM_SHAPE_VOLUME>  (1) 
124.1

>  <PUBCHEM_COORDINATE_TYPE>  (1) 
2
5
10

$$$$
