33787
     RDKit          3D

 36 39  0  0  0  0  0  0  0  0999 V2000
    7.1681    1.5317    1.4895 S   0  0  0  0  0  0  0  0  0  0  0  0
   -7.1681    1.5321   -1.4890 S   0  0  0  0  0  0  0  0  0  0  0  0
    6.5181    0.3677    2.4329 O   0  0  0  0  0  0  0  0  0  0  0  0
   -6.5181    0.3683   -2.4328 O   0  0  0  0  0  0  0  0  0  0  0  0
    8.2161    2.1754    2.2641 O   0  0  0  0  0  0  0  0  0  0  0  0
    6.0842    2.3066    0.9106 O   0  0  0  0  0  0  0  0  0  0  0  0
   -8.2162    2.1761   -2.2635 O   0  0  0  0  0  0  0  0  0  0  0  0
   -6.0842    2.3069   -0.9100 O   0  0  0  0  0  0  0  0  0  0  0  0
    0.7232   -0.9074   -0.0193 C   0  0  0  0  0  0  0  0  0  0  0  0
   -0.7231   -0.9074    0.0191 C   0  0  0  0  0  0  0  0  0  0  0  0
    3.5119   -0.9071   -0.0940 C   0  0  0  0  0  0  0  0  0  0  0  0
   -3.5119   -0.9071    0.0938 C   0  0  0  0  0  0  0  0  0  0  0  0
    1.4118    0.2596   -0.3502 C   0  0  0  0  0  0  0  0  0  0  0  0
   -1.4117    0.2595    0.3503 C   0  0  0  0  0  0  0  0  0  0  0  0
    1.4289   -2.0743    0.2743 C   0  0  0  0  0  0  0  0  0  0  0  0
   -1.4288   -2.0742   -0.2748 C   0  0  0  0  0  0  0  0  0  0  0  0
    7.2030    0.0107   -0.8086 C   0  0  0  0  0  0  0  0  0  0  0  0
   -7.2030    0.0105    0.8086 C   0  0  0  0  0  0  0  0  0  0  0  0
    2.8062    0.2597   -0.3876 C   0  0  0  0  0  0  0  0  0  0  0  0
   -2.8061    0.2595    0.3877 C   0  0  0  0  0  0  0  0  0  0  0  0
    2.8233   -2.0740    0.2370 C   0  0  0  0  0  0  0  0  0  0  0  0
   -2.8232   -2.0740   -0.2375 C   0  0  0  0  0  0  0  0  0  0  0  0
    7.9327    0.6704    0.1683 C   0  0  0  0  0  0  0  0  0  0  0  0
   -7.9327    0.6704   -0.1681 C   0  0  0  0  0  0  0  0  0  0  0  0
    4.9659   -0.9070   -0.1320 C   0  0  0  0  0  0  0  0  0  0  0  0
   -4.9658   -0.9070    0.1318 C   0  0  0  0  0  0  0  0  0  0  0  0
    5.7296   -0.0003   -0.7864 C   0  0  0  0  0  0  0  0  0  0  0  0
   -5.7297   -0.0005    0.7864 C   0  0  0  0  0  0  0  0  0  0  0  0
    7.8345   -0.6650   -1.8426 C   0  0  0  0  0  0  0  0  0  0  0  0
   -7.8345   -0.6656    1.8425 C   0  0  0  0  0  0  0  0  0  0  0  0
    9.3263    0.6547    0.1105 C   0  0  0  0  0  0  0  0  0  0  0  0
   -9.3263    0.6548   -0.1104 C   0  0  0  0  0  0  0  0  0  0  0  0
    9.2280   -0.6806   -1.9004 C   0  0  0  0  0  0  0  0  0  0  0  0
   -9.2281   -0.6812    1.9002 C   0  0  0  0  0  0  0  0  0  0  0  0
    9.9741   -0.0208   -0.9239 C   0  0  0  0  0  0  0  0  0  0  0  0
   -9.9740   -0.0210    0.9239 C   0  0  0  0  0  0  0  0  0  0  0  0
  1  3  1  0
  1  5  2  0
  1  6  2  0
  1 23  1  0
  2  4  1  0
  2  7  2  0
  2  8  2  0
  2 24  1  0
  9 10  1  0
  9 13  2  0
  9 15  1  0
 10 14  2  0
 10 16  1  0
 11 19  2  0
 11 21  1  0
 11 25  1  0
 12 20  2  0
 12 22  1  0
 12 26  1  0
 13 19  1  0
 14 20  1  0
 15 21  2  0
 16 22  2  0
 17 23  2  0
 17 27  1  0
 17 29  1  0
 18 24  2  0
 18 28  1  0
 18 30  1  0
 23 31  1  0
 24 32  1  0
 25 27  2  0
 26 28  2  0
 29 33  2  0
 30 34  2  0
 31 35  2  0
 32 36  2  0
 33 35  1  0
 34 36  1  0
M  END
>  <PUBCHEM_COMPOUND_CID>  (1) 
33787

>  <PUBCHEM_CONFORMER_RMSD>  (1) 
1

>  <PUBCHEM_CONFORMER_DIVERSEORDER>  (1) 
3
6
7
5
2
8
4
1

>  <PUBCHEM_MMFF94_PARTIAL_CHARGES>  (1) 
56
1 1.49
11 0.03
12 0.03
13 -0.15
14 -0.15
15 -0.15
16 -0.15
17 0.03
18 0.03
19 -0.15
2 1.49
20 -0.15
21 -0.15
22 -0.15
23 -0.01
24 -0.01
25 -0.18
26 -0.18
27 -0.18
28 -0.18
29 -0.15
3 -0.68
30 -0.15
31 -0.15
32 -0.15
33 -0.15
34 -0.15
35 -0.15
36 -0.15
37 0.15
38 0.15
39 0.15
4 -0.68
40 0.15
41 0.15
42 0.15
43 0.15
44 0.15
45 0.15
46 0.15
47 0.15
48 0.15
49 0.15
5 -0.65
50 0.15
51 0.15
52 0.15
53 0.15
54 0.15
55 0.15
56 0.15
57 0.5
58 0.5
6 -0.65
7 -0.65
8 -0.65

>  <PUBCHEM_EFFECTIVE_ROTOR_COUNT>  (1) 
7

>  <PUBCHEM_PHARMACOPHORE_FEATURES>  (1) 
12
1 3 acceptor
1 4 acceptor
1 5 acceptor
1 6 acceptor
1 7 acceptor
1 8 acceptor
4 1 3 5 6 anion
4 2 4 7 8 anion
6 10 12 14 16 20 22 rings
6 17 23 29 31 33 35 rings
6 18 24 30 32 34 36 rings
6 9 11 13 15 19 21 rings

>  <PUBCHEM_HEAVY_ATOM_COUNT>  (1) 
36

>  <PUBCHEM_ATOM_DEF_STEREO_COUNT>  (1) 
0

>  <PUBCHEM_ATOM_UDEF_STEREO_COUNT>  (1) 
0

>  <PUBCHEM_BOND_DEF_STEREO_COUNT>  (1) 
0

>  <PUBCHEM_BOND_UDEF_STEREO_COUNT>  (1) 
2

>  <PUBCHEM_ISOTOPIC_ATOM_COUNT>  (1) 
0

>  <PUBCHEM_COMPONENT_COUNT>  (1) 
1

>  <PUBCHEM_CACTVS_TAUTO_COUNT>  (1) 
1

>  <PUBCHEM_CONFORMER_ID>  (1) 
000083FB00000003

>  <PUBCHEM_MMFF94_ENERGY>  (1) 
109.2714

>  <PUBCHEM_FEATURE_SELFOVERLAP>  (1) 
61.013

>  <PUBCHEM_SHAPE_FINGERPRINT>  (1) 
10 15 18186238424993442131
10625338 86 18411133624355468177
11061554 47 18341890788469236440
11135609 127 16200144440267716376
11146346 60 17240756273245899339
11181472 205 16844744022981176523
11409948 35 18337957771949379766
11456790 92 16588027922018939316
11607047 141 17894622640804555634
12089408 11 15574713594897112965
12098696 120 18412825798229898762
12144603 126 15647059295858423194
12522641 33 17132122320381352294
12559415 43 18410567392377548229
12664476 115 17676487251261402405
12728208 25 13623529060571217761
14040221 8 15267072423531862274
14040222 383 16950569912636044009
14150022 121 16660360351704728895
14344974 52 17775283898355265715
15289351 153 18342172216496024072
15392192 104 16443068309619587314
15461852 350 14333127481738550963
15510794 2 17894355453554698618
15530121 191 18409444782415966341
1577012 14 18410568491899771094
15840311 113 18060142068107702000
15979999 66 13973963216311508618
1754911 235 17775283858998667397
21362267 2 17917418848198452768
21362267 20 13623818275079283065
21362267 313 16226318218753712689
21772524 286 16660914462299665445
21792934 111 17203608186781229010
22164985 6 18131633387122410199
23576562 1 17844793962300335757
249057 3 18342742939601681550
3092352 35 16515406283375243674
335507 130 17894920650561758991
395649 100 16200429191856256479
4625314 4 17774719874390975830
4760202 170 17775279482812680400
58902169 19 15769768083041504985
59521099 67 15770058333865049450
67123 10 16660369190114634423
9962374 69 11098148802301250139

>  <PUBCHEM_SHAPE_MULTIPOLES>  (1) 
713.35
41.24
1.93
1.79
0
0.22
0
14.95
0
0
0
0
0.77
4.96

>  <PUBCHEM_SHAPE_SELFOVERLAP>  (1) 
1542.729

>  <PUBCHEM_SHAPE_VOLUME>  (1) 
388.9

>  <PUBCHEM_COORDINATE_TYPE>  (1) 
2
5
10

$$$$
