33794
     RDKit          3D

 19 20  0  0  1  0  0  0  0  0999 V2000
    1.0391   -3.2544   -0.5140 Cl  0  0  0  0  0  0  0  0  0  0  0  0
   -2.0549   -2.6135   -0.0593 Cl  0  0  0  0  0  0  0  0  0  0  0  0
    3.5227   -1.6167   -0.3698 O   0  0  0  0  0  0  0  0  0  0  0  0
   -2.5702    0.1941    0.7072 O   0  0  0  0  0  0  0  0  0  0  0  0
   -5.1642    1.9050   -1.0818 O   0  0  0  0  0  0  0  0  0  0  0  0
   -5.2251   -0.0178    0.1375 O   0  0  0  0  0  0  0  0  0  0  0  0
    3.4192    0.7060    0.3413 C   0  0  0  0  0  0  0  0  0  0  0  0
    2.1779    1.5916    0.5968 C   0  0  0  0  0  0  0  0  0  0  0  0
    1.0246    0.6460    0.4830 C   0  0  0  0  0  0  0  0  0  0  0  0
    2.8579   -0.6572   -0.0221 C   0  0  0  0  0  0  0  0  0  0  0  0
    1.4105   -0.6377    0.1190 C   0  0  0  0  0  0  0  0  0  0  0  0
    4.3065    1.2501   -0.7663 C   0  0  0  0  0  0  0  0  0  0  0  0
   -0.3172    0.9294    0.6812 C   0  0  0  0  0  0  0  0  0  0  0  0
    0.5113   -1.6723   -0.0621 C   0  0  0  0  0  0  0  0  0  0  0  0
    4.8992    2.5994   -0.3977 C   0  0  0  0  0  0  0  0  0  0  0  0
   -1.2514   -0.0975    0.5085 C   0  0  0  0  0  0  0  0  0  0  0  0
   -0.8394   -1.3891    0.1389 C   0  0  0  0  0  0  0  0  0  0  0  0
   -3.1402    1.2025   -0.1225 C   0  0  0  0  0  0  0  0  0  0  0  0
   -4.6064    0.9324   -0.3176 C   0  0  0  0  0  0  0  0  0  0  0  0
  1 14  1  0
  2 17  1  0
  3 10  2  0
  4 16  1  0
  4 18  1  0
  5 19  1  0
  6 19  2  0
  7  8  1  0
  7 10  1  0
  7 12  1  0
  8  9  1  0
  9 11  2  0
  9 13  1  0
 10 11  1  0
 11 14  1  0
 12 15  1  0
 13 16  2  0
 14 17  2  0
 16 17  1  0
 18 19  1  0
M  END
>  <PUBCHEM_COMPOUND_CID>  (1) 
33794

>  <PUBCHEM_CONFORMER_RMSD>  (1) 
0.6

>  <PUBCHEM_CONFORMER_DIVERSEORDER>  (1) 
1
7
28
56
53
59
57
55
54
43
49
50
22
61
48
20
46
58
51
6
26
5
63
33
62
31
29
13
44
47
30
36
10
42
40
32
14
35
60
11
12
38
8
15
23
45
37
16
25
9
34
17
52
39
21
27
18
19
41
2
4
24
3

>  <PUBCHEM_MMFF94_PARTIAL_CHARGES>  (1) 
19
1 -0.18
10 0.42
11 0.09
13 -0.15
14 0.18
16 0.08
17 0.18
18 0.34
19 0.66
2 -0.18
25 0.15
3 -0.57
31 0.5
4 -0.36
5 -0.65
6 -0.57
7 0.06
8 0.14
9 -0.14

>  <PUBCHEM_EFFECTIVE_ROTOR_COUNT>  (1) 
4.4

>  <PUBCHEM_PHARMACOPHORE_FEATURES>  (1) 
8
1 15 hydrophobe
1 3 acceptor
1 4 acceptor
1 5 acceptor
1 6 acceptor
3 5 6 19 anion
5 7 8 9 10 11 rings
6 9 11 13 14 16 17 rings

>  <PUBCHEM_HEAVY_ATOM_COUNT>  (1) 
19

>  <PUBCHEM_ATOM_DEF_STEREO_COUNT>  (1) 
0

>  <PUBCHEM_ATOM_UDEF_STEREO_COUNT>  (1) 
1

>  <PUBCHEM_BOND_DEF_STEREO_COUNT>  (1) 
0

>  <PUBCHEM_BOND_UDEF_STEREO_COUNT>  (1) 
0

>  <PUBCHEM_ISOTOPIC_ATOM_COUNT>  (1) 
0

>  <PUBCHEM_COMPONENT_COUNT>  (1) 
1

>  <PUBCHEM_CACTVS_TAUTO_COUNT>  (1) 
2

>  <PUBCHEM_CONFORMER_ID>  (1) 
0000840200000001

>  <PUBCHEM_MMFF94_ENERGY>  (1) 
48.8476

>  <PUBCHEM_FEATURE_SELFOVERLAP>  (1) 
40.738

>  <PUBCHEM_SHAPE_FINGERPRINT>  (1) 
10411042 1 17546730356866288703
10498660 4 18340777043372179448
10693767 8 17773312323108315822
10967382 1 18341615871690769658
11471102 20 18341611473464644064
11796584 16 13254795703261824981
12403259 415 18260835860858260293
12403260 363 18267297634263922345
12500047 106 18340205318694785120
12730499 353 18409736123648882883
13140716 1 18412820292124478162
13583140 156 17675933092130077185
14790565 3 18341342101896528833
14911166 2 18342461387516168942
15196674 1 18411701006118942427
16752209 62 18126838520119825426
16945 1 18198637544410242634
17834072 32 18336550520316468340
20602899 9 15769784584115699231
20645477 56 18335420218067946009
20645477 70 18339927013050679946
20871999 31 18197779010359211638
22182313 1 18197239094257889550
23227448 37 18336548334256898533
2334 1 18270684293703311810
23402655 69 18272929397726143029
23558518 356 17901097843502203026
23559900 14 18201445779360573582
25 1 18411975841218371859
2748010 2 18270689778228790762
293599 30 18338239366171733368
3060560 45 18342454799052089926
3071541 37 18411702041269253802
335352 9 18411420610101819158
34934 24 18335979861302620976
350125 39 18123758809704083433
3759504 43 18187929537805585802
495365 180 17561069346170638824
5104073 3 18335141994296713027
53917941 68 18127680733399912084
633830 44 18337947875489148061
81539 233 18409166580277272151
8272917 22 18199189477919924295
9999458 23 18115026303736476662

>  <PUBCHEM_SHAPE_MULTIPOLES>  (1) 
371.27
9.56
3.03
0.82
5.29
1.9
-0.04
-7.85
-2.48
-0.69
-0.65
0.06
-0.18
0.43

>  <PUBCHEM_SHAPE_SELFOVERLAP>  (1) 
774.645

>  <PUBCHEM_SHAPE_VOLUME>  (1) 
213.4

>  <PUBCHEM_COORDINATE_TYPE>  (1) 
2
5
10

$$$$
