33808
     RDKit          3D

 12 12  0  0  0  0  0  0  0  0999 V2000
    1.9862   -0.7166   -0.0102 N   0  0  0  0  0  0  0  0  0  0  0  0
    0.1342    0.7219   -0.0051 N   0  0  0  0  0  0  0  0  0  0  0  0
   -0.1609   -1.6594   -0.0037 N   0  0  0  0  0  0  0  0  0  0  0  0
   -2.0756   -0.2131    0.0034 N   0  0  0  0  0  0  0  0  0  0  0  0
   -1.7560    2.1101    0.0036 N   0  0  0  0  0  0  0  0  0  0  0  0
    2.9292    0.3661   -0.0138 C   0  0  0  0  0  0  0  0  0  0  0  0
    0.6066   -0.5455   -0.0069 C   0  0  0  0  0  0  0  0  0  0  0  0
   -1.2057    0.8098   -0.0003 C   0  0  0  0  0  0  0  0  0  0  0  0
   -1.4818   -1.4174    0.0013 C   0  0  0  0  0  0  0  0  0  0  0  0
    4.3561   -0.1408    0.0226 C   0  0  0  0  0  0  0  0  0  0  0  0
   -2.3802   -2.6070    0.0068 C   0  0  0  0  0  0  0  0  0  0  0  0
   -0.9522    3.2920    0.0023 C   0  0  0  0  0  0  0  0  0  0  0  0
  1  6  1  0
  1  7  1  0
  2  7  2  0
  2  8  1  0
  3  7  1  0
  3  9  2  0
  4  8  2  0
  4  9  1  0
  5  8  1  0
  5 12  1  0
  6 10  1  0
  9 11  1  0
M  END
>  <PUBCHEM_COMPOUND_CID>  (1) 
33808

>  <PUBCHEM_CONFORMER_RMSD>  (1) 
0.6

>  <PUBCHEM_CONFORMER_DIVERSEORDER>  (1) 
1
6
9
10
11
8
4
2
5
7
3

>  <PUBCHEM_MMFF94_PARTIAL_CHARGES>  (1) 
13
1 -0.87
11 0.14
12 0.37
15 0.4
19 0.4
2 -0.62
3 -0.62
4 -0.62
5 -0.87
6 0.37
7 0.72
8 0.72
9 0.48

>  <PUBCHEM_EFFECTIVE_ROTOR_COUNT>  (1) 
3

>  <PUBCHEM_PHARMACOPHORE_FEATURES>  (1) 
5
1 1 donor
1 5 donor
4 1 2 3 7 cation
4 2 4 5 8 cation
6 2 3 4 7 8 9 rings

>  <PUBCHEM_HEAVY_ATOM_COUNT>  (1) 
12

>  <PUBCHEM_ATOM_DEF_STEREO_COUNT>  (1) 
0

>  <PUBCHEM_ATOM_UDEF_STEREO_COUNT>  (1) 
0

>  <PUBCHEM_BOND_DEF_STEREO_COUNT>  (1) 
0

>  <PUBCHEM_BOND_UDEF_STEREO_COUNT>  (1) 
0

>  <PUBCHEM_ISOTOPIC_ATOM_COUNT>  (1) 
0

>  <PUBCHEM_COMPONENT_COUNT>  (1) 
1

>  <PUBCHEM_CACTVS_TAUTO_COUNT>  (1) 
9

>  <PUBCHEM_CONFORMER_ID>  (1) 
0000841000000001

>  <PUBCHEM_MMFF94_ENERGY>  (1) 
30.9231

>  <PUBCHEM_FEATURE_SELFOVERLAP>  (1) 
25.414

>  <PUBCHEM_SHAPE_FINGERPRINT>  (1) 
1 1 17473545746355725501
100427 49 18052254286968117797
108231 29 17899702554752157530
13380535 76 18196928872990817590
14648413 74 16895963436537133497
16945 1 18410576158415614839
19021347 4 18122345679226866601
193761 8 18122626046292289135
20510252 161 18342459184066064632
20645477 70 17256792925057729151
20871998 184 18273218628970776406
21040471 1 18050568447784852879
21524375 3 17910100318250992885
2306618 200 18201444657740970762
23402539 116 18343291570577301895
23559900 14 18056762015135681142
241688 4 18339078323434021883
2748010 2 18124582330827996853
3071541 12 17617943968861124437
3071541 250 17976831104932936903
6333449 129 18412261705556791460
7364860 26 17475235081568230273
81228 2 18411430513441900251

>  <PUBCHEM_SHAPE_MULTIPOLES>  (1) 
222.05
4.92
3.08
0.58
7.04
2.32
0
-1.76
0.03
-3.08
0.01
0.02
0
0

>  <PUBCHEM_SHAPE_SELFOVERLAP>  (1) 
440.633

>  <PUBCHEM_SHAPE_VOLUME>  (1) 
124.8

>  <PUBCHEM_COORDINATE_TYPE>  (1) 
2
5
10

$$$$
