33804
     RDKit          3D

 20 21  0  0  0  0  0  0  0  0999 V2000
    1.7561   -0.3024   -0.4533 O   0  0  0  0  0  0  0  0  0  0  0  0
   -7.2204   -0.4730    0.3339 N   0  0  0  0  0  0  0  0  0  0  0  0
   -4.0282    2.6090   -0.1634 N   0  0  0  0  0  0  0  0  0  0  0  0
    2.5039   -0.1056    0.7459 C   0  0  0  0  0  0  0  0  0  0  0  0
    3.9545    0.0555    0.3975 C   0  0  0  0  0  0  0  0  0  0  0  0
    0.4082   -0.4408   -0.3271 C   0  0  0  0  0  0  0  0  0  0  0  0
   -2.3552   -0.7241   -0.0700 C   0  0  0  0  0  0  0  0  0  0  0  0
    4.7762   -1.0645    0.3357 C   0  0  0  0  0  0  0  0  0  0  0  0
    4.4640    1.3233    0.1393 C   0  0  0  0  0  0  0  0  0  0  0  0
   -0.3815   -0.6359   -1.4603 C   0  0  0  0  0  0  0  0  0  0  0  0
   -0.1839   -0.3873    0.9348 C   0  0  0  0  0  0  0  0  0  0  0  0
   -1.7632   -0.7775   -1.3318 C   0  0  0  0  0  0  0  0  0  0  0  0
   -1.5657   -0.5290    1.0633 C   0  0  0  0  0  0  0  0  0  0  0  0
    6.1246   -0.9149    0.0118 C   0  0  0  0  0  0  0  0  0  0  0  0
    5.8125    1.4728   -0.1847 C   0  0  0  0  0  0  0  0  0  0  0  0
    6.6427    0.3536   -0.2486 C   0  0  0  0  0  0  0  0  0  0  0  0
   -3.7959   -0.8714    0.0651 C   0  0  0  0  0  0  0  0  0  0  0  0
   -4.7166    0.1244    0.0623 C   0  0  0  0  0  0  0  0  0  0  0  0
   -6.0974   -0.2064    0.2125 C   0  0  0  0  0  0  0  0  0  0  0  0
   -4.3347    1.4940   -0.0629 C   0  0  0  0  0  0  0  0  0  0  0  0
  1  4  1  0
  1  6  1  0
  2 19  3  0
  3 20  3  0
  4  5  1  0
  5  8  2  0
  5  9  1  0
  6 10  2  0
  6 11  1  0
  7 12  2  0
  7 13  1  0
  7 17  1  0
  8 14  1  0
  9 15  2  0
 10 12  1  0
 11 13  2  0
 14 16  2  0
 15 16  1  0
 17 18  2  3
 18 19  1  0
 18 20  1  0
M  END
>  <PUBCHEM_COMPOUND_CID>  (1) 
33804

>  <PUBCHEM_CONFORMER_RMSD>  (1) 
0.6

>  <PUBCHEM_CONFORMER_DIVERSEORDER>  (1) 
1
71
39
61
47
52
53
19
68
40
17
72
49
56
74
38
16
25
51
28
62
57
70
73
44
59
67
76
66
21
32
58
9
35
60
20
45
14
3
50
24
29
12
46
6
11
77
78
5
63
15
13
41
48
54
65
26
34
31
36
69
42
30
33
64
55
27
75
18
43
22
8
10
37
7
23
2
4

>  <PUBCHEM_MMFF94_PARTIAL_CHARGES>  (1) 
30
1 -0.36
10 -0.15
11 -0.15
12 -0.15
13 -0.15
14 -0.15
15 -0.15
16 -0.15
17 -0.18
18 0.13
19 0.49
2 -0.56
20 0.49
23 0.15
24 0.15
25 0.15
26 0.15
27 0.15
28 0.15
29 0.15
3 -0.56
30 0.15
31 0.15
32 0.15
4 0.42
5 -0.14
6 0.08
7 0.03
8 -0.15
9 -0.15

>  <PUBCHEM_EFFECTIVE_ROTOR_COUNT>  (1) 
4

>  <PUBCHEM_PHARMACOPHORE_FEATURES>  (1) 
5
1 1 acceptor
1 2 acceptor
1 3 acceptor
6 5 8 9 14 15 16 rings
6 6 7 10 11 12 13 rings

>  <PUBCHEM_HEAVY_ATOM_COUNT>  (1) 
20

>  <PUBCHEM_ATOM_DEF_STEREO_COUNT>  (1) 
0

>  <PUBCHEM_ATOM_UDEF_STEREO_COUNT>  (1) 
0

>  <PUBCHEM_BOND_DEF_STEREO_COUNT>  (1) 
0

>  <PUBCHEM_BOND_UDEF_STEREO_COUNT>  (1) 
0

>  <PUBCHEM_ISOTOPIC_ATOM_COUNT>  (1) 
0

>  <PUBCHEM_COMPONENT_COUNT>  (1) 
1

>  <PUBCHEM_CACTVS_TAUTO_COUNT>  (1) 
1

>  <PUBCHEM_CONFORMER_ID>  (1) 
0000840C00000001

>  <PUBCHEM_MMFF94_ENERGY>  (1) 
56.5312

>  <PUBCHEM_FEATURE_SELFOVERLAP>  (1) 
25.373

>  <PUBCHEM_SHAPE_FINGERPRINT>  (1) 
106641 1 16588029047780100233
11315181 36 17313109661771121585
11991303 11 17489019465588332023
12107183 9 17687176492035351498
12166972 35 18272090521435289808
12236239 1 18131349739446115614
12516196 113 16008748017706858679
12596602 18 17894346666388812073
12616971 3 13901899042499148817
13167372 99 18409729526589912472
13533116 47 17968371256875251922
1420 363 13262396644450635546
14251752 14 18273211972393543784
14251764 18 18410575097553268549
14251764 46 17458062673027383650
14933364 13 18410013238569130216
15183329 4 17275110535145475280
15716309 27 12035445051504103505
17834072 8 16559032709757278410
17844677 252 18408891754194681416
17857418 61 9655577405050355612
18006028 8 13406792238167459655
19489759 90 18408324376256409707
20281389 69 18342454846333835280
21315763 28 18408322172822311162
22224240 67 17022901276690603107
23035841 295 10592044657077621949
23198884 109 18259704493014815219
23536379 177 18410573976872915522
23569943 247 16807843240480222306
2838139 119 18271799078229848949
29717793 49 17418382394167281524
300161 21 17703503381410723378
347723 3 15123791786308844139
34797466 226 18131641096952592612
3545911 37 17632859728317326199
4073 2 17895199956463992930
4325135 7 17274819169534204901
5104073 3 15069442870840162044
542803 24 18408601474703721522
54446538 1 18335138695698986412
59755656 215 15769786745116933428
59755656 520 18342450469920864855

>  <PUBCHEM_SHAPE_MULTIPOLES>  (1) 
395.76
18.18
1.47
0.98
3.11
0.99
-0.15
2.89
1
-0.39
-0.11
-0.18
-0.2
-0.08

>  <PUBCHEM_SHAPE_SELFOVERLAP>  (1) 
845.258

>  <PUBCHEM_SHAPE_VOLUME>  (1) 
214.7

>  <PUBCHEM_COORDINATE_TYPE>  (1) 
2
5
10

$$$$
