33818
     RDKit          3D

 17 17  0  0  0  0  0  0  0  0999 V2000
    0.3132    1.2236    0.0816 N   0  0  0  0  0  0  0  0  0  0  0  0
   -1.4817   -0.2845    0.0239 N   0  0  0  0  0  0  0  0  0  0  0  0
   -1.8669    2.0838    0.0035 N   0  0  0  0  0  0  0  0  0  0  0  0
   -3.3165   -1.7437   -0.0388 N   0  0  0  0  0  0  0  0  0  0  0  0
   -3.7241    0.5655   -0.0580 N   0  0  0  0  0  0  0  0  0  0  0  0
    3.7912   -0.3418    0.0934 C   0  0  0  0  0  0  0  0  0  0  0  0
    2.7098    0.7445    0.1019 C   0  0  0  0  0  0  0  0  0  0  0  0
    5.1905    0.2734    0.0091 C   0  0  0  0  0  0  0  0  0  0  0  0
    1.2964    0.1682    0.1193 C   0  0  0  0  0  0  0  0  0  0  0  0
    6.3100   -0.7688   -0.0336 C   0  0  0  0  0  0  0  0  0  0  0  0
    7.6973   -0.1648   -0.1883 C   0  0  0  0  0  0  0  0  0  0  0  0
   -1.0541    1.0007    0.0355 C   0  0  0  0  0  0  0  0  0  0  0  0
   -2.8164   -0.4234   -0.0229 C   0  0  0  0  0  0  0  0  0  0  0  0
   -3.1767    1.7916   -0.0421 C   0  0  0  0  0  0  0  0  0  0  0  0
   -2.4690   -2.8941   -0.0056 C   0  0  0  0  0  0  0  0  0  0  0  0
   -4.1192    2.9462   -0.0806 C   0  0  0  0  0  0  0  0  0  0  0  0
   -3.2838   -4.1764    0.0017 C   0  0  0  0  0  0  0  0  0  0  0  0
  1  9  1  0
  1 12  1  0
  2 12  2  0
  2 13  1  0
  3 12  1  0
  3 14  2  0
  4 13  1  0
  4 15  1  0
  5 13  2  0
  5 14  1  0
  6  7  1  0
  6  8  1  0
  7  9  1  0
  8 10  1  0
 10 11  1  0
 14 16  1  0
 15 17  1  0
M  END
>  <PUBCHEM_COMPOUND_CID>  (1) 
33818

>  <PUBCHEM_CONFORMER_RMSD>  (1) 
0.8

>  <PUBCHEM_CONFORMER_DIVERSEORDER>  (1) 
1
285
218
252
91
255
148
15
243
106
161
275
60
195
89
173
315
132
242
306
249
311
204
88
29
99
169
286
221
7
301
54
317
179
127
3
210
240
157
265
216
274
244
316
279
26
246
32
231
104
95
58
280
94
230
309
262
202
119
111
136
237
215
28
312
59
298
45
113
177
84
55
50
81
233
76
300
2
186
34
125
223
174
304
135
241
183
270
307
235
283
197
64
198
217
102
266
17
110
196
297
130
182
234
295
93
116
239
151
190
4
313
281
115
74
213
149
254
6
131
305
71
291
170
232
273
63
122
180
290
80
288
143
52
260
229
23
43
227
108
188
18
224
287
220
57
126
117
314
175
48
128
46
261
97
159
8
172
20
238
41
5
200
101
166
129
207
168
184
162
193
65
303
181
284
11
250
211
42
192
296
21
310
269
120
114
214
257
245
49
61
27
13
35
248
10
145
171
30
109
73
33
268
292
146
154
98
222
22
70
62
139
225
51
142
302
37
144
67
189
185
258
44
267
24
147
40
38
236
277
203
206
156
14
194
123
226
87
219
12
152
134
133
140
31
86
272
9
165
53
16
191
137
205
199
163
282
107
253
83
263
19
251
308
90
299
72
118
68
153
158
264
293
78
39
100
289
36
209
75
178
256
176
228
69
77
82
278
124
276
141
212
56
271
208
47
92
160
247
121
138
294
167
25
103
85
105
201
150
164
155
79
112
259
187
96
66

>  <PUBCHEM_MMFF94_PARTIAL_CHARGES>  (1) 
13
1 -0.87
12 0.72
13 0.72
14 0.48
15 0.37
16 0.14
2 -0.62
28 0.4
3 -0.62
32 0.4
4 -0.87
5 -0.62
9 0.37

>  <PUBCHEM_EFFECTIVE_ROTOR_COUNT>  (1) 
8

>  <PUBCHEM_PHARMACOPHORE_FEATURES>  (1) 
7
1 1 donor
1 11 hydrophobe
1 4 donor
4 1 2 3 12 cation
4 2 4 5 13 cation
4 6 7 8 10 hydrophobe
6 2 3 5 12 13 14 rings

>  <PUBCHEM_HEAVY_ATOM_COUNT>  (1) 
17

>  <PUBCHEM_ATOM_DEF_STEREO_COUNT>  (1) 
0

>  <PUBCHEM_ATOM_UDEF_STEREO_COUNT>  (1) 
0

>  <PUBCHEM_BOND_DEF_STEREO_COUNT>  (1) 
0

>  <PUBCHEM_BOND_UDEF_STEREO_COUNT>  (1) 
0

>  <PUBCHEM_ISOTOPIC_ATOM_COUNT>  (1) 
0

>  <PUBCHEM_COMPONENT_COUNT>  (1) 
1

>  <PUBCHEM_CACTVS_TAUTO_COUNT>  (1) 
9

>  <PUBCHEM_CONFORMER_ID>  (1) 
0000841A00000001

>  <PUBCHEM_MMFF94_ENERGY>  (1) 
28.444

>  <PUBCHEM_FEATURE_SELFOVERLAP>  (1) 
35.563

>  <PUBCHEM_SHAPE_FINGERPRINT>  (1) 
10411042 1 18122344850926646891
10616163 171 18410855481819906238
11315181 36 18259985981272300156
11796584 16 18341050719152465314
11809386 21 18260259780852653738
12091667 2 16805325466574721996
12500047 106 18339356379590689577
12616971 3 17385734582265756060
12757275 245 18410292531744645955
12760667 363 18269272525247822543
13167823 11 18333448738438422946
14251732 16 18340485686340222648
14508225 48 18266444581551900469
14844126 61 18337674212794880459
14866123 147 18339647841042038803
15042514 8 18337676438146712419
15250474 111 18260816082687447754
167882 2 17758950429754367605
17834072 33 18333454262035540380
17844677 252 18411987992214044048
17859628 70 16678945748794913035
20645477 56 18337671901996927717
20681677 155 18335701594455386576
21054139 6 18113896100910759194
21426921 1 18410293635683057851
220451 1 18113901521085016458
23081809 10 17676490554201742900
23402539 116 18334293150552309236
23557571 272 18273218594769195884
23559900 14 18340758359895430376
4073 2 18411421705318791210
4214541 1 18410855447723678096
5104073 3 18272649086949210632
559249 180 18334573499772633210
7062679 117 18409449202632528710
77188 2 17906171008160746975
9709674 26 18343587321650991910

>  <PUBCHEM_SHAPE_MULTIPOLES>  (1) 
324.95
14.86
3.59
0.6
36.21
3.62
0
1.64
0.79
-8.87
0.05
0.07
0.01
0.09

>  <PUBCHEM_SHAPE_SELFOVERLAP>  (1) 
628.987

>  <PUBCHEM_SHAPE_VOLUME>  (1) 
188.6

>  <PUBCHEM_COORDINATE_TYPE>  (1) 
2
5
10

$$$$
