33810
     RDKit          3D

 13 13  0  0  0  0  0  0  0  0999 V2000
    1.6576   -0.9837    0.0859 N   0  0  0  0  0  0  0  0  0  0  0  0
   -0.0282    0.6463    0.0913 N   0  0  0  0  0  0  0  0  0  0  0  0
   -0.5768   -1.6869   -0.0223 N   0  0  0  0  0  0  0  0  0  0  0  0
   -2.3242   -0.0425   -0.0166 N   0  0  0  0  0  0  0  0  0  0  0  0
   -1.7577    2.2302    0.0969 N   0  0  0  0  0  0  0  0  0  0  0  0
    2.7118   -0.0014    0.1608 C   0  0  0  0  0  0  0  0  0  0  0  0
    2.9509    0.6240   -1.2073 C   0  0  0  0  0  0  0  0  0  0  0  0
    3.9870   -0.6267    0.7125 C   0  0  0  0  0  0  0  0  0  0  0  0
    0.3090   -0.6648    0.0500 C   0  0  0  0  0  0  0  0  0  0  0  0
   -1.3502    0.8791    0.0545 C   0  0  0  0  0  0  0  0  0  0  0  0
   -1.8632   -1.3031   -0.0516 C   0  0  0  0  0  0  0  0  0  0  0  0
   -2.8836   -2.3873   -0.1292 C   0  0  0  0  0  0  0  0  0  0  0  0
   -0.8325    3.3169    0.1751 C   0  0  0  0  0  0  0  0  0  0  0  0
  1  6  1  0
  1  9  1  0
  2  9  2  0
  2 10  1  0
  3  9  1  0
  3 11  2  0
  4 10  2  0
  4 11  1  0
  5 10  1  0
  5 13  1  0
  6  7  1  0
  6  8  1  0
 11 12  1  0
M  END
>  <PUBCHEM_COMPOUND_CID>  (1) 
33810

>  <PUBCHEM_CONFORMER_RMSD>  (1) 
0.6

>  <PUBCHEM_CONFORMER_DIVERSEORDER>  (1) 
1
9
14
15
17
16
10
8
12
4
6
11
7
2
13
3
5

>  <PUBCHEM_MMFF94_PARTIAL_CHARGES>  (1) 
13
1 -0.87
10 0.72
11 0.48
12 0.14
13 0.37
15 0.4
2 -0.62
22 0.4
3 -0.62
4 -0.62
5 -0.87
6 0.37
9 0.72

>  <PUBCHEM_EFFECTIVE_ROTOR_COUNT>  (1) 
3

>  <PUBCHEM_PHARMACOPHORE_FEATURES>  (1) 
6
1 1 donor
1 5 donor
3 6 7 8 hydrophobe
4 1 2 3 9 cation
4 2 4 5 10 cation
6 2 3 4 9 10 11 rings

>  <PUBCHEM_HEAVY_ATOM_COUNT>  (1) 
13

>  <PUBCHEM_ATOM_DEF_STEREO_COUNT>  (1) 
0

>  <PUBCHEM_ATOM_UDEF_STEREO_COUNT>  (1) 
0

>  <PUBCHEM_BOND_DEF_STEREO_COUNT>  (1) 
0

>  <PUBCHEM_BOND_UDEF_STEREO_COUNT>  (1) 
0

>  <PUBCHEM_ISOTOPIC_ATOM_COUNT>  (1) 
0

>  <PUBCHEM_COMPONENT_COUNT>  (1) 
1

>  <PUBCHEM_CACTVS_TAUTO_COUNT>  (1) 
9

>  <PUBCHEM_CONFORMER_ID>  (1) 
0000841200000001

>  <PUBCHEM_MMFF94_ENERGY>  (1) 
34.2683

>  <PUBCHEM_FEATURE_SELFOVERLAP>  (1) 
30.488

>  <PUBCHEM_SHAPE_FINGERPRINT>  (1) 
1 1 17258778118664410565
100427 49 18124033691732083497
12716758 59 18199192771859231382
13380535 76 18124870166582681743
16945 1 18411985728027319967
19021347 4 18051130285415721121
20510252 161 18342174470947529578
20645477 70 17403163194439363175
20871998 184 18202001044731519663
21524375 3 17901951841983405569
2306618 200 17895738626360173532
23402539 116 18271229557033824631
23557571 272 18202285801363697156
23559900 14 17985829221461215494
23598291 2 18041003899942233438
2748010 2 18197484337053644625
305870 269 17688025314996345088
3071541 12 17763187243066657081
3071541 250 17978523244954342967
6992083 37 17969782965280124708
7364860 26 17549265182444820181
81228 2 18341059557429866931

>  <PUBCHEM_SHAPE_MULTIPOLES>  (1) 
242.63
5.26
2.9
0.76
4.48
2.5
-0.12
-2.31
0.09
-2.71
0.17
0.55
0.04
-0.51

>  <PUBCHEM_SHAPE_SELFOVERLAP>  (1) 
481.745

>  <PUBCHEM_SHAPE_VOLUME>  (1) 
137.2

>  <PUBCHEM_COORDINATE_TYPE>  (1) 
2
5
10

$$$$
