33823
     RDKit          3D

 16 16  0  0  0  0  0  0  0  0999 V2000
    1.4956    1.1487    0.0448 N   0  0  0  0  0  0  0  0  0  0  0  0
   -2.5319   -1.2479   -0.1300 N   0  0  0  0  0  0  0  0  0  0  0  0
   -0.5020   -0.0768   -0.0450 N   0  0  0  0  0  0  0  0  0  0  0  0
   -0.5353    2.3210    0.0399 N   0  0  0  0  0  0  0  0  0  0  0  0
   -2.5960    1.0948   -0.0495 N   0  0  0  0  0  0  0  0  0  0  0  0
    3.7961    0.3236    0.0052 C   0  0  0  0  0  0  0  0  0  0  0  0
    2.3137   -0.0397    0.0206 C   0  0  0  0  0  0  0  0  0  0  0  0
    4.7044   -0.9063   -0.0676 C   0  0  0  0  0  0  0  0  0  0  0  0
   -1.8619   -2.5103   -0.1620 C   0  0  0  0  0  0  0  0  0  0  0  0
   -2.8015   -3.5626   -0.7357 C   0  0  0  0  0  0  0  0  0  0  0  0
   -1.4066   -2.8801    1.2437 C   0  0  0  0  0  0  0  0  0  0  0  0
    6.1705   -0.5098   -0.1478 C   0  0  0  0  0  0  0  0  0  0  0  0
    0.1099    1.1304    0.0116 C   0  0  0  0  0  0  0  0  0  0  0  0
   -1.8431   -0.0168   -0.0727 C   0  0  0  0  0  0  0  0  0  0  0  0
   -1.8743    2.2258    0.0068 C   0  0  0  0  0  0  0  0  0  0  0  0
   -2.6376    3.5060    0.0376 C   0  0  0  0  0  0  0  0  0  0  0  0
  1  7  1  0
  1 13  1  0
  2  9  1  0
  2 14  1  0
  3 13  2  0
  3 14  1  0
  4 13  1  0
  4 15  2  0
  5 14  2  0
  5 15  1  0
  6  7  1  0
  6  8  1  0
  8 12  1  0
  9 10  1  0
  9 11  1  0
 15 16  1  0
M  END
>  <PUBCHEM_COMPOUND_CID>  (1) 
33823

>  <PUBCHEM_CONFORMER_RMSD>  (1) 
0.8

>  <PUBCHEM_CONFORMER_DIVERSEORDER>  (1) 
1
53
15
78
66
49
44
21
51
25
76
72
39
73
61
19
9
43
34
55
81
54
8
36
30
70
22
65
29
64
58
60
5
26
18
28
45
4
40
82
32
38
48
37
62
67
42
6
50
56
17
74
52
12
71
31
68
41
63
77
75
20
13
57
23
79
47
14
59
10
35
27
80
33
3
46
2
69
7
24
11
16

>  <PUBCHEM_MMFF94_PARTIAL_CHARGES>  (1) 
13
1 -0.87
13 0.72
14 0.72
15 0.48
16 0.14
2 -0.87
24 0.4
25 0.4
3 -0.62
4 -0.62
5 -0.62
7 0.37
9 0.37

>  <PUBCHEM_EFFECTIVE_ROTOR_COUNT>  (1) 
6

>  <PUBCHEM_PHARMACOPHORE_FEATURES>  (1) 
7
1 1 donor
1 12 hydrophobe
1 2 donor
3 9 10 11 hydrophobe
4 1 3 4 13 cation
4 2 3 5 14 cation
6 3 4 5 13 14 15 rings

>  <PUBCHEM_HEAVY_ATOM_COUNT>  (1) 
16

>  <PUBCHEM_ATOM_DEF_STEREO_COUNT>  (1) 
0

>  <PUBCHEM_ATOM_UDEF_STEREO_COUNT>  (1) 
0

>  <PUBCHEM_BOND_DEF_STEREO_COUNT>  (1) 
0

>  <PUBCHEM_BOND_UDEF_STEREO_COUNT>  (1) 
0

>  <PUBCHEM_ISOTOPIC_ATOM_COUNT>  (1) 
0

>  <PUBCHEM_COMPONENT_COUNT>  (1) 
1

>  <PUBCHEM_CACTVS_TAUTO_COUNT>  (1) 
9

>  <PUBCHEM_CONFORMER_ID>  (1) 
0000841F00000001

>  <PUBCHEM_MMFF94_ENERGY>  (1) 
32.1583

>  <PUBCHEM_FEATURE_SELFOVERLAP>  (1) 
35.563

>  <PUBCHEM_SHAPE_FINGERPRINT>  (1) 
10616163 171 18411139126203468390
11357001 24 18408611378581840691
12500047 106 18339638919956659952
12553582 1 18049454938885474698
12757275 245 18410013230438014542
12788726 201 18335975419932105227
14508225 48 18267008621941679301
14866123 147 18411703179894939259
15042514 8 18410017667218502131
167882 2 17469876689118379213
17539 30 18341039800680538759
17859628 70 16895122906958132099
20645476 183 18262236595210807468
20645477 70 16967717054576163623
20671657 53 17980764058289709919
20871998 22 17979914135695437289
21426921 1 18411419518615740180
21665056 4 18336826368864448005
22224240 67 18199759038192856177
23402539 116 18342730802625775893
23557571 272 18272939297884288340
23559900 14 18341039809640277440
23728640 28 18409169874511848827
257057 1 18124311872621820029
3071541 12 16898492313302292437
3091708 16 9129909709130897321
4214541 1 18411137992479535372
54173680 148 18410855503077854261
559249 180 18190739731298141450
7062679 117 18408608080854007366
77188 2 18051410966187491901
81228 2 18336821009025104065
8809292 202 18410856577109783226
9709674 26 18271811177410762614

>  <PUBCHEM_SHAPE_MULTIPOLES>  (1) 
304.37
8.64
4.25
0.74
19.92
0.88
-0.1
2.44
0.78
-7.07
-0.01
-0.23
0.45
-0.21

>  <PUBCHEM_SHAPE_SELFOVERLAP>  (1) 
595.387

>  <PUBCHEM_SHAPE_VOLUME>  (1) 
174.5

>  <PUBCHEM_COORDINATE_TYPE>  (1) 
2
5
10

$$$$
