33826
     RDKit          3D

 15 15  0  0  0  0  0  0  0  0999 V2000
   -2.3952   -0.6796   -0.1613 N   0  0  0  0  0  0  0  0  0  0  0  0
   -0.1184   -0.1398   -0.0070 N   0  0  0  0  0  0  0  0  0  0  0  0
   -1.7857    1.5838   -0.0924 N   0  0  0  0  0  0  0  0  0  0  0  0
    2.1430    0.4615    0.1505 N   0  0  0  0  0  0  0  0  0  0  0  0
    0.5362    2.1676    0.0671 N   0  0  0  0  0  0  0  0  0  0  0  0
   -2.1313   -2.1022   -0.1650 C   0  0  0  0  0  0  0  0  0  0  0  0
   -3.3238   -2.8322   -0.7688 C   0  0  0  0  0  0  0  0  0  0  0  0
   -1.8550   -2.5722    1.2573 C   0  0  0  0  0  0  0  0  0  0  0  0
   -1.4038    0.2831   -0.0852 C   0  0  0  0  0  0  0  0  0  0  0  0
    0.7877    0.8486    0.0654 C   0  0  0  0  0  0  0  0  0  0  0  0
   -0.7717    2.4605   -0.0143 C   0  0  0  0  0  0  0  0  0  0  0  0
    2.5595   -0.9057    0.1592 C   0  0  0  0  0  0  0  0  0  0  0  0
   -1.1351    3.9064   -0.0164 C   0  0  0  0  0  0  0  0  0  0  0  0
    4.0500   -0.9556    0.2628 C   0  0  0  0  0  0  0  0  0  0  0  0
    4.8437   -1.5241   -0.6520 C   0  0  0  0  0  0  0  0  0  0  0  0
  1  6  1  0
  1  9  1  0
  2  9  2  0
  2 10  1  0
  3  9  1  0
  3 11  2  0
  4 10  1  0
  4 12  1  0
  5 10  2  0
  5 11  1  0
  6  7  1  0
  6  8  1  0
 11 13  1  0
 12 14  1  0
 14 15  2  0
M  END
>  <PUBCHEM_COMPOUND_CID>  (1) 
33826

>  <PUBCHEM_CONFORMER_RMSD>  (1) 
0.6

>  <PUBCHEM_CONFORMER_DIVERSEORDER>  (1) 
1
111
112
26
53
35
120
79
95
86
78
55
17
98
81
11
118
102
20
36
117
88
37
58
125
44
71
47
107
85
43
66
62
28
77
92
75
32
54
113
60
89
41
74
110
56
76
126
18
63
59
16
91
97
94
128
122
57
13
64
31
6
49
15
119
101
105
121
3
96
8
109
45
12
42
100
108
34
84
103
7
69
22
70
61
72
82
68
46
104
21
87
33
93
115
30
124
83
90
38
99
27
50
106
51
114
19
73
116
65
80
123
48
10
2
127
5
39
24
29
67
25
40
52
23
14
4
9

>  <PUBCHEM_MMFF94_PARTIAL_CHARGES>  (1) 
18
1 -0.87
10 0.72
11 0.48
12 0.51
13 0.14
14 -0.29
15 -0.3
17 0.4
2 -0.62
24 0.4
3 -0.62
30 0.15
31 0.15
32 0.15
4 -0.87
5 -0.62
6 0.37
9 0.72

>  <PUBCHEM_EFFECTIVE_ROTOR_COUNT>  (1) 
5

>  <PUBCHEM_PHARMACOPHORE_FEATURES>  (1) 
7
1 1 donor
1 15 hydrophobe
1 4 donor
3 6 7 8 hydrophobe
4 1 2 3 9 cation
4 2 4 5 10 cation
6 2 3 5 9 10 11 rings

>  <PUBCHEM_HEAVY_ATOM_COUNT>  (1) 
15

>  <PUBCHEM_ATOM_DEF_STEREO_COUNT>  (1) 
0

>  <PUBCHEM_ATOM_UDEF_STEREO_COUNT>  (1) 
0

>  <PUBCHEM_BOND_DEF_STEREO_COUNT>  (1) 
0

>  <PUBCHEM_BOND_UDEF_STEREO_COUNT>  (1) 
0

>  <PUBCHEM_ISOTOPIC_ATOM_COUNT>  (1) 
0

>  <PUBCHEM_COMPONENT_COUNT>  (1) 
1

>  <PUBCHEM_CACTVS_TAUTO_COUNT>  (1) 
9

>  <PUBCHEM_CONFORMER_ID>  (1) 
0000842200000001

>  <PUBCHEM_MMFF94_ENERGY>  (1) 
34.9264

>  <PUBCHEM_FEATURE_SELFOVERLAP>  (1) 
35.563

>  <PUBCHEM_SHAPE_FINGERPRINT>  (1) 
10616163 171 18339645521495935110
11357001 24 18336271141151481338
12363563 72 18339081608995001406
12500047 106 18051126995998169532
12553582 1 18336835293849174442
12757275 245 18338238150880449086
12788726 201 18263358109903254883
15042514 8 18338242570190631283
15279307 12 17827358783090876778
15442244 35 18268432520028260139
15669948 3 18191020110820600434
17539 30 18340475686558988581
17859628 70 17472431318312610915
20524608 308 18195526995839385424
20645476 183 17974298620759479892
20645477 70 17615391998120975783
20671657 53 18268993270420803991
20871998 184 18201998802895539878
20871998 22 18268427021684118144
20871999 31 18261385641861749223
21426921 1 18339361860385391934
21452121 199 18264759042683951968
21665056 4 17977101258476101478
23402539 116 18199176313850833389
23526113 38 17900247899861336235
23557571 272 18200601272694194492
23559900 14 17983570807376665306
257057 1 18339636862340186637
2748010 2 18268134525832174308
3091708 16 9133842661933412177
43471831 8 17615969907118071225
54173680 148 18411417284900566748
7364860 26 17762334021589887273
81228 2 18409159991786936369
8809292 202 18410293579917191258

>  <PUBCHEM_SHAPE_MULTIPOLES>  (1) 
283.79
6.42
4.3
0.79
9.31
2.8
0.09
-6.55
-1.1
-4.19
-0.01
-0.19
-0.48
0.1

>  <PUBCHEM_SHAPE_SELFOVERLAP>  (1) 
562.141

>  <PUBCHEM_SHAPE_VOLUME>  (1) 
161.3

>  <PUBCHEM_COORDINATE_TYPE>  (1) 
2
5
10

$$$$
