33839
     RDKit          3D

 18 20  0  0  0  0  0  0  0  0999 V2000
   -4.3822   -0.7902    1.0103 O   0  0  0  0  0  0  0  0  0  0  0  0
   -0.9890    2.3005   -0.6588 O   0  0  0  0  0  0  0  0  0  0  0  0
   -2.0488   -0.1198   -0.4755 N   0  0  0  0  0  0  0  0  0  0  0  0
   -0.7845   -0.4590   -1.1253 C   0  0  0  0  0  0  0  0  0  0  0  0
   -1.9874   -0.4029    0.9652 C   0  0  0  0  0  0  0  0  0  0  0  0
   -3.1637   -0.8570   -1.0863 C   0  0  0  0  0  0  0  0  0  0  0  0
    0.3659    0.3215   -0.5628 C   0  0  0  0  0  0  0  0  0  0  0  0
   -3.3212   -0.0533    1.6192 C   0  0  0  0  0  0  0  0  0  0  0  0
   -4.4695   -0.4956   -0.3843 C   0  0  0  0  0  0  0  0  0  0  0  0
    1.5854   -0.3009   -0.2504 C   0  0  0  0  0  0  0  0  0  0  0  0
    0.1923    1.6906   -0.3577 C   0  0  0  0  0  0  0  0  0  0  0  0
    2.6439    0.4764    0.2774 C   0  0  0  0  0  0  0  0  0  0  0  0
    1.7777   -1.6776   -0.4502 C   0  0  0  0  0  0  0  0  0  0  0  0
    1.2331    2.4549    0.1614 C   0  0  0  0  0  0  0  0  0  0  0  0
    2.4515    1.8531    0.4773 C   0  0  0  0  0  0  0  0  0  0  0  0
    3.8634   -0.1461    0.5899 C   0  0  0  0  0  0  0  0  0  0  0  0
    2.9961   -2.2794   -0.1342 C   0  0  0  0  0  0  0  0  0  0  0  0
    4.0369   -1.5151    0.3848 C   0  0  0  0  0  0  0  0  0  0  0  0
  1  8  1  0
  1  9  1  0
  2 11  1  0
  3  4  1  0
  3  5  1  0
  3  6  1  0
  4  7  1  0
  5  8  1  0
  6  9  1  0
  7 10  1  0
  7 11  2  0
 10 12  2  0
 10 13  1  0
 11 14  1  0
 12 15  1  0
 12 16  1  0
 13 17  2  0
 14 15  2  0
 16 18  2  0
 17 18  1  0
M  END
>  <PUBCHEM_COMPOUND_CID>  (1) 
33839

>  <PUBCHEM_CONFORMER_RMSD>  (1) 
0.6

>  <PUBCHEM_CONFORMER_DIVERSEORDER>  (1) 
2
6
5
4
7
3
8
1

>  <PUBCHEM_MMFF94_PARTIAL_CHARGES>  (1) 
23
1 -0.56
11 0.08
13 -0.15
14 -0.15
15 -0.15
16 -0.15
17 -0.15
18 -0.15
2 -0.53
29 0.15
3 -0.81
30 0.15
31 0.15
32 0.15
33 0.15
34 0.15
35 0.45
4 0.41
5 0.27
6 0.27
7 -0.14
8 0.28
9 0.28

>  <PUBCHEM_EFFECTIVE_ROTOR_COUNT>  (1) 
3.2

>  <PUBCHEM_PHARMACOPHORE_FEATURES>  (1) 
6
1 1 acceptor
1 2 donor
1 3 cation
6 1 3 5 6 8 9 rings
6 10 12 13 16 17 18 rings
6 7 10 11 12 14 15 rings

>  <PUBCHEM_HEAVY_ATOM_COUNT>  (1) 
18

>  <PUBCHEM_ATOM_DEF_STEREO_COUNT>  (1) 
0

>  <PUBCHEM_ATOM_UDEF_STEREO_COUNT>  (1) 
0

>  <PUBCHEM_BOND_DEF_STEREO_COUNT>  (1) 
0

>  <PUBCHEM_BOND_UDEF_STEREO_COUNT>  (1) 
0

>  <PUBCHEM_ISOTOPIC_ATOM_COUNT>  (1) 
0

>  <PUBCHEM_COMPONENT_COUNT>  (1) 
1

>  <PUBCHEM_CACTVS_TAUTO_COUNT>  (1) 
3

>  <PUBCHEM_CONFORMER_ID>  (1) 
0000842F00000002

>  <PUBCHEM_MMFF94_ENERGY>  (1) 
55.5532

>  <PUBCHEM_FEATURE_SELFOVERLAP>  (1) 
30.472

>  <PUBCHEM_SHAPE_FINGERPRINT>  (1) 
10618630 7 18333733481310187366
10980938 120 18341610477185368132
11086676 242 18343026570958040352
11471102 22 18410012152084718648
11578080 2 17343746449072267257
11796584 16 16733251357865419122
12236239 1 17703788150078892887
12251169 10 18131070437132019551
12363563 72 18187932746103821394
12553582 1 18412543193714056774
12644460 14 18337390551932594744
12670546 56 17489300901983890169
12824470 246 17242443924620643930
13134695 92 18410008866403550141
13140716 1 18123459742789267642
13296908 3 17894910745760148823
13533116 47 18341896359357875699
13544653 18 18261674783555549558
13965767 371 16912603625958031825
14178342 30 17838037557567621234
14252887 29 18411698768857738698
14386348 63 17822010917109618915
14739800 52 16342562028986301272
14790565 3 17905328781811999716
15375462 189 18342176661380882642
15501101 241 18408881867095609236
15527383 91 18411424994366778793
15848702 151 18343303634945542963
16752209 62 14779815114451997963
16945 1 18411693322865373276
17357779 13 18261099751806228005
1813 80 18271821068635796102
19049666 15 18041267773762968517
19862831 5 12540697019972252623
200 152 18130495397420426311
20645477 70 18262503901200938343
20715895 44 17629215810341287249
20739085 24 18337392742339925024
20871998 22 18270966726473352502
21427221 339 17702405990658061097
2255824 54 18268996556186680588
23175994 123 18040155111045578485
23184049 59 18272089396206105263
23559900 14 17458341948685368270
2748010 2 18125988383352207756
31174 14 18412539933775700616
474 4 18055347195971094872
5104073 3 18196077851819159730
77492 1 17703508899810650727
81228 2 17969221140250088653
83771 10 18410012104966711406

>  <PUBCHEM_SHAPE_MULTIPOLES>  (1) 
353.71
7.79
2.27
1.12
4.57
0.88
-0.2
-3.62
-1.93
-2
0.19
1.01
-0.09
0.1

>  <PUBCHEM_SHAPE_SELFOVERLAP>  (1) 
768.968

>  <PUBCHEM_SHAPE_VOLUME>  (1) 
192.8

>  <PUBCHEM_COORDINATE_TYPE>  (1) 
2
5
10

$$$$
