33838
     RDKit          3D

 13 13  0  0  0  0  0  0  0  0999 V2000
   -2.8964    0.1966   -1.4631 Cl  0  0  0  0  0  0  0  0  0  0  0  0
   -2.2297   -2.1928    0.0042 Cl  0  0  0  0  0  0  0  0  0  0  0  0
   -2.8889    0.2078    1.4634 Cl  0  0  0  0  0  0  0  0  0  0  0  0
    0.3571   -0.8579   -0.0017 N   0  0  0  0  0  0  0  0  0  0  0  0
    2.6634   -1.2820   -0.0005 N   0  0  0  0  0  0  0  0  0  0  0  0
   -0.4165    1.4135   -0.0010 N   0  0  0  0  0  0  0  0  0  0  0  0
    1.9374    0.9477   -0.0015 N   0  0  0  0  0  0  0  0  0  0  0  0
    1.1513    3.1573    0.0010 N   0  0  0  0  0  0  0  0  0  0  0  0
   -0.6005    0.0833   -0.0013 C   0  0  0  0  0  0  0  0  0  0  0  0
    1.6010   -0.3522   -0.0019 C   0  0  0  0  0  0  0  0  0  0  0  0
   -2.0117   -0.3975    0.0007 C   0  0  0  0  0  0  0  0  0  0  0  0
    0.8775    1.7722   -0.0012 C   0  0  0  0  0  0  0  0  0  0  0  0
    2.4559   -2.6963    0.0029 C   0  0  0  0  0  0  0  0  0  0  0  0
  1 11  1  0
  2 11  1  0
  3 11  1  0
  4  9  2  0
  4 10  1  0
  5 10  1  0
  5 13  1  0
  6  9  1  0
  6 12  2  0
  7 10  2  0
  7 12  1  0
  8 12  1  0
  9 11  1  0
M  END
>  <PUBCHEM_COMPOUND_CID>  (1) 
33838

>  <PUBCHEM_CONFORMER_RMSD>  (1) 
0.6

>  <PUBCHEM_CONFORMER_DIVERSEORDER>  (1) 
1
2
3
4

>  <PUBCHEM_MMFF94_PARTIAL_CHARGES>  (1) 
16
1 -0.29
10 0.72
11 1.01
12 0.72
13 0.37
14 0.4
18 0.4
19 0.4
2 -0.29
3 -0.29
4 -0.62
5 -0.87
6 -0.62
7 -0.62
8 -0.9
9 0.48

>  <PUBCHEM_EFFECTIVE_ROTOR_COUNT>  (1) 
2

>  <PUBCHEM_PHARMACOPHORE_FEATURES>  (1) 
5
1 5 donor
1 8 donor
4 4 5 7 10 cation
4 6 7 8 12 cation
6 4 6 7 9 10 12 rings

>  <PUBCHEM_HEAVY_ATOM_COUNT>  (1) 
13

>  <PUBCHEM_ATOM_DEF_STEREO_COUNT>  (1) 
0

>  <PUBCHEM_ATOM_UDEF_STEREO_COUNT>  (1) 
0

>  <PUBCHEM_BOND_DEF_STEREO_COUNT>  (1) 
0

>  <PUBCHEM_BOND_UDEF_STEREO_COUNT>  (1) 
0

>  <PUBCHEM_ISOTOPIC_ATOM_COUNT>  (1) 
0

>  <PUBCHEM_COMPONENT_COUNT>  (1) 
1

>  <PUBCHEM_CACTVS_TAUTO_COUNT>  (1) 
9

>  <PUBCHEM_CONFORMER_ID>  (1) 
0000842E00000001

>  <PUBCHEM_MMFF94_ENERGY>  (1) 
34.0402

>  <PUBCHEM_FEATURE_SELFOVERLAP>  (1) 
25.415

>  <PUBCHEM_SHAPE_FINGERPRINT>  (1) 
1 1 18122060076939630428
12553582 1 18267309733524957222
12932764 1 17967530216051924155
14178342 30 18270113638177498835
14648413 74 18263352732830871245
16945 1 18410856589710082245
17990270 104 18337385049515109434
20379382 53 18263662807984301881
20645476 183 16315035372790311294
20645477 70 18192138520431722503
20711985 344 17759792655123141464
207724 885 18341057311278217043
20871998 184 17693942895182787806
21524375 3 17468474167490016944
22445834 79 18269289000515042699
22802520 49 18114731716255935453
23552423 10 18267870660374156655
2748010 2 18266170626498311716
63268167 104 18410574019711753649
6338986 31 18195788700960794150
7364860 26 18340486793449826218
74978 22 18411983576649676791
8030462 33 17845654897016005849
81228 2 17904194824492826872

>  <PUBCHEM_SHAPE_MULTIPOLES>  (1) 
248.24
4.45
2.87
0.98
0.85
0.42
0
-1.94
0
-2.08
0
1.12
0.07
0

>  <PUBCHEM_SHAPE_SELFOVERLAP>  (1) 
477.774

>  <PUBCHEM_SHAPE_VOLUME>  (1) 
149

>  <PUBCHEM_COORDINATE_TYPE>  (1) 
2
5
10

$$$$
