33833
     RDKit          3D

 15 15  0  0  0  0  0  0  0  0999 V2000
   -2.3871   -2.0713   -1.4665 Cl  0  0  0  0  0  0  0  0  0  0  0  0
   -0.2580   -3.3379    0.0065 Cl  0  0  0  0  0  0  0  0  0  0  0  0
   -2.3967   -2.0574    1.4601 Cl  0  0  0  0  0  0  0  0  0  0  0  0
    2.6505    0.7011    0.0082 N   0  0  0  0  0  0  0  0  0  0  0  0
    0.6901   -0.5857    0.0023 N   0  0  0  0  0  0  0  0  0  0  0  0
    0.5851    1.8116    0.0018 N   0  0  0  0  0  0  0  0  0  0  0  0
   -1.4385    0.5220   -0.0025 N   0  0  0  0  0  0  0  0  0  0  0  0
   -1.5098    2.8659   -0.0012 N   0  0  0  0  0  0  0  0  0  0  0  0
    3.5019   -0.4819    0.0121 C   0  0  0  0  0  0  0  0  0  0  0  0
    1.2737    0.6408    0.0034 C   0  0  0  0  0  0  0  0  0  0  0  0
   -0.6526   -0.5668   -0.0007 C   0  0  0  0  0  0  0  0  0  0  0  0
   -0.7508    1.6753   -0.0013 C   0  0  0  0  0  0  0  0  0  0  0  0
    4.9721   -0.1004   -0.0180 C   0  0  0  0  0  0  0  0  0  0  0  0
   -1.3407   -1.8893   -0.0001 C   0  0  0  0  0  0  0  0  0  0  0  0
   -2.9391    2.8740   -0.0040 C   0  0  0  0  0  0  0  0  0  0  0  0
  1 14  1  0
  2 14  1  0
  3 14  1  0
  4  9  1  0
  4 10  1  0
  5 10  2  0
  5 11  1  0
  6 10  1  0
  6 12  2  0
  7 11  2  0
  7 12  1  0
  8 12  1  0
  8 15  1  0
  9 13  1  0
 11 14  1  0
M  END
>  <PUBCHEM_COMPOUND_CID>  (1) 
33833

>  <PUBCHEM_CONFORMER_RMSD>  (1) 
0.6

>  <PUBCHEM_CONFORMER_DIVERSEORDER>  (1) 
1
5
8
15
10
6
14
7
4
3
13
11
9
12
16
2

>  <PUBCHEM_MMFF94_PARTIAL_CHARGES>  (1) 
16
1 -0.29
10 0.72
11 0.48
12 0.72
14 1.01
15 0.37
18 0.4
2 -0.29
22 0.4
3 -0.29
4 -0.87
5 -0.62
6 -0.62
7 -0.62
8 -0.87
9 0.37

>  <PUBCHEM_EFFECTIVE_ROTOR_COUNT>  (1) 
4

>  <PUBCHEM_PHARMACOPHORE_FEATURES>  (1) 
5
1 4 donor
1 8 donor
4 4 5 6 10 cation
4 6 7 8 12 cation
6 5 6 7 10 11 12 rings

>  <PUBCHEM_HEAVY_ATOM_COUNT>  (1) 
15

>  <PUBCHEM_ATOM_DEF_STEREO_COUNT>  (1) 
0

>  <PUBCHEM_ATOM_UDEF_STEREO_COUNT>  (1) 
0

>  <PUBCHEM_BOND_DEF_STEREO_COUNT>  (1) 
0

>  <PUBCHEM_BOND_UDEF_STEREO_COUNT>  (1) 
0

>  <PUBCHEM_ISOTOPIC_ATOM_COUNT>  (1) 
0

>  <PUBCHEM_COMPONENT_COUNT>  (1) 
1

>  <PUBCHEM_CACTVS_TAUTO_COUNT>  (1) 
9

>  <PUBCHEM_CONFORMER_ID>  (1) 
0000842900000001

>  <PUBCHEM_MMFF94_ENERGY>  (1) 
34.9389

>  <PUBCHEM_FEATURE_SELFOVERLAP>  (1) 
25.414

>  <PUBCHEM_SHAPE_FINGERPRINT>  (1) 
11357001 24 18335144201962688986
12507560 14 18052550051591659939
12532896 13 18265899046925557190
12553582 1 18122634013720211518
13380535 76 18193556662148862065
16752209 62 18410281519675560218
16945 1 17401767918060911553
193761 8 18122343480467660355
20510252 161 18343303656499319248
20645476 183 17752795479267466246
20671657 53 17838895185201380223
20711985 344 18337939177589620842
20711985 365 18409731806800574852
20871998 184 18341621416472248318
21041028 32 18191036805189635995
21339142 126 18342177803547141575
21524375 3 18122058702402590793
23402539 116 18271799164081248079
23419403 2 16700306815531820289
23552423 10 16899342832679909843
23557571 272 18272380797696379308
23559900 14 18200871757171230742
23598294 1 18335696131378182106
257057 1 17981318198990393822
2748010 2 18052278209904236679
3071541 12 17186441240051704112
3091708 16 8986356345452815689
31174 14 17180254816719846851
352729 6 18338524036271809372
474229 33 18337676304723313769
53917941 68 18192968487884641060
54173680 148 18336830887217522721
57426455 70 18191884524170299851
6992083 37 17983875637441442099
7364860 26 17331959422123229453
81228 2 18264192755240482201
81539 233 17757270384129154877

>  <PUBCHEM_SHAPE_MULTIPOLES>  (1) 
289.4
5.71
3.89
0.93
9.18
0.87
0
-0.47
-0.02
-4.24
-0.01
-0.84
-0.65
0

>  <PUBCHEM_SHAPE_SELFOVERLAP>  (1) 
551.806

>  <PUBCHEM_SHAPE_VOLUME>  (1) 
175.4

>  <PUBCHEM_COORDINATE_TYPE>  (1) 
2
5
10

$$$$
