33834
     RDKit          3D

 16 16  0  0  0  0  0  0  0  0999 V2000
   -2.4351   -2.2204   -1.5050 Cl  0  0  0  0  0  0  0  0  0  0  0  0
   -0.1394   -3.2983   -0.1359 Cl  0  0  0  0  0  0  0  0  0  0  0  0
   -2.3491   -2.2863    1.4197 Cl  0  0  0  0  0  0  0  0  0  0  0  0
    2.3366    1.0192   -0.1002 N   0  0  0  0  0  0  0  0  0  0  0  0
    0.5198   -0.4634   -0.0856 N   0  0  0  0  0  0  0  0  0  0  0  0
    0.1688    1.9092   -0.0105 N   0  0  0  0  0  0  0  0  0  0  0  0
   -1.7104    0.4171    0.0073 N   0  0  0  0  0  0  0  0  0  0  0  0
   -2.0224    2.7401    0.0816 N   0  0  0  0  0  0  0  0  0  0  0  0
    3.3048   -0.0749   -0.1560 C   0  0  0  0  0  0  0  0  0  0  0  0
    3.4945   -0.6848    1.2300 C   0  0  0  0  0  0  0  0  0  0  0  0
    4.6270    0.4449   -0.7114 C   0  0  0  0  0  0  0  0  0  0  0  0
    0.9764    0.8169   -0.0652 C   0  0  0  0  0  0  0  0  0  0  0  0
   -0.8170   -0.5839   -0.0475 C   0  0  0  0  0  0  0  0  0  0  0  0
   -1.1453    1.6351    0.0226 C   0  0  0  0  0  0  0  0  0  0  0  0
   -1.3650   -1.9702   -0.0660 C   0  0  0  0  0  0  0  0  0  0  0  0
   -3.4442    2.5998    0.1222 C   0  0  0  0  0  0  0  0  0  0  0  0
  1 15  1  0
  2 15  1  0
  3 15  1  0
  4  9  1  0
  4 12  1  0
  5 12  2  0
  5 13  1  0
  6 12  1  0
  6 14  2  0
  7 13  2  0
  7 14  1  0
  8 14  1  0
  8 16  1  0
  9 10  1  0
  9 11  1  0
 13 15  1  0
M  END
>  <PUBCHEM_COMPOUND_CID>  (1) 
33834

>  <PUBCHEM_CONFORMER_RMSD>  (1) 
0.6

>  <PUBCHEM_CONFORMER_DIVERSEORDER>  (1) 
1
21
25
12
24
17
31
19
5
18
29
23
27
8
30
26
32
3
28
22
20
13
9
7
14
2
10
16
4
15
11
6

>  <PUBCHEM_MMFF94_PARTIAL_CHARGES>  (1) 
16
1 -0.29
12 0.72
13 0.48
14 0.72
15 1.01
16 0.37
18 0.4
2 -0.29
25 0.4
3 -0.29
4 -0.87
5 -0.62
6 -0.62
7 -0.62
8 -0.87
9 0.37

>  <PUBCHEM_EFFECTIVE_ROTOR_COUNT>  (1) 
4

>  <PUBCHEM_PHARMACOPHORE_FEATURES>  (1) 
6
1 4 donor
1 8 donor
3 9 10 11 hydrophobe
4 4 5 6 12 cation
4 6 7 8 14 cation
6 5 6 7 12 13 14 rings

>  <PUBCHEM_HEAVY_ATOM_COUNT>  (1) 
16

>  <PUBCHEM_ATOM_DEF_STEREO_COUNT>  (1) 
0

>  <PUBCHEM_ATOM_UDEF_STEREO_COUNT>  (1) 
0

>  <PUBCHEM_BOND_DEF_STEREO_COUNT>  (1) 
0

>  <PUBCHEM_BOND_UDEF_STEREO_COUNT>  (1) 
0

>  <PUBCHEM_ISOTOPIC_ATOM_COUNT>  (1) 
0

>  <PUBCHEM_COMPONENT_COUNT>  (1) 
1

>  <PUBCHEM_CACTVS_TAUTO_COUNT>  (1) 
9

>  <PUBCHEM_CONFORMER_ID>  (1) 
0000842A00000001

>  <PUBCHEM_MMFF94_ENERGY>  (1) 
38.2309

>  <PUBCHEM_FEATURE_SELFOVERLAP>  (1) 
30.488

>  <PUBCHEM_SHAPE_FINGERPRINT>  (1) 
104564 63 18410294739268379714
11357001 24 18335144219147871907
11578080 2 17273404191830934209
11680986 33 18050296872834723955
12500047 106 18341327804340114624
12553582 1 18122345937299814482
12592029 89 18048883996076777521
12788726 201 18339637935934330643
13380535 76 18265614273614553065
14178342 30 18262502776473524888
15669948 3 18409728456910693756
15906896 17 18410292489079790095
16752209 62 18411692210205294254
16945 1 18411979199698129036
20510252 161 18271811245702828488
20524608 308 18343582923604194748
20645476 183 17896624832848341876
20711985 344 18339069497054766683
20711985 365 18338237183990483668
20871998 184 18341341058023530286
20871999 31 18413110584800597948
21041028 32 18047204213198339275
21524375 3 18194395585474002609
23402539 116 18271799164207712279
23419403 2 16485258851167284747
23557571 272 18200888374046778148
23558518 356 18115877476097160472
23559900 14 18201438027071191892
23598291 2 17677915555003481668
23598294 1 18408603673579187002
23728640 28 18410565159189278874
2748010 2 18124615088654378879
3071541 12 17330559743731562213
3071541 236 18336259050860799433
3091708 16 8984951174103672113
34934 24 17836077154147330806
352729 6 18410863126808750733
474229 33 18337957792685062153
6338986 31 17981588666124563718
7364860 26 17404860354580543017
81228 2 18264473148017251097
81539 233 17902510394180498621

>  <PUBCHEM_SHAPE_MULTIPOLES>  (1) 
309.98
6.14
3.72
1.05
7.33
0.04
-0.06
-0.9
0.2
-4.47
-0.04
-0.27
0.73
-0.45

>  <PUBCHEM_SHAPE_SELFOVERLAP>  (1) 
592.97

>  <PUBCHEM_SHAPE_VOLUME>  (1) 
187.7

>  <PUBCHEM_COORDINATE_TYPE>  (1) 
2
5
10

$$$$
