33849
     RDKit          3D

 19 20  0  0  1  0  0  0  0  0999 V2000
    0.4153   -0.4884    0.4472 N   0  0  0  0  0  0  0  0  0  0  0  0
    3.9814   -1.4614    0.0882 N   0  0  0  0  0  0  0  0  0  0  0  0
   -1.9117   -1.3360   -0.8510 N   0  0  0  0  0  0  0  0  0  0  0  0
    1.5407   -1.2589   -0.0255 C   0  0  0  0  0  0  0  0  0  0  0  0
    2.8316   -0.6757    0.5350 C   0  0  0  0  0  0  0  0  0  0  0  0
   -0.6358   -1.1742    1.2009 C   0  0  0  0  0  0  0  0  0  0  0  0
    0.3088    0.8852    0.1876 C   0  0  0  0  0  0  0  0  0  0  0  0
   -1.9483   -1.0883    0.4725 C   0  0  0  0  0  0  0  0  0  0  0  0
   -0.3667    1.7222    1.0823 C   0  0  0  0  0  0  0  0  0  0  0  0
    0.8776    1.4314   -0.9680 C   0  0  0  0  0  0  0  0  0  0  0  0
    5.2180   -0.9261    0.6565 C   0  0  0  0  0  0  0  0  0  0  0  0
    4.0543   -1.4757   -1.3724 C   0  0  0  0  0  0  0  0  0  0  0  0
   -3.0871   -0.7686    1.1840 C   0  0  0  0  0  0  0  0  0  0  0  0
   -0.4719    3.0891    0.8246 C   0  0  0  0  0  0  0  0  0  0  0  0
    0.7725    2.7983   -1.2257 C   0  0  0  0  0  0  0  0  0  0  0  0
    0.0976    3.6271   -0.3294 C   0  0  0  0  0  0  0  0  0  0  0  0
   -4.2846   -0.6974    0.4811 C   0  0  0  0  0  0  0  0  0  0  0  0
   -3.0946   -1.2574   -1.5007 C   0  0  0  0  0  0  0  0  0  0  0  0
   -4.2971   -0.9451   -0.8872 C   0  0  0  0  0  0  0  0  0  0  0  0
  1  4  1  0
  1  6  1  0
  1  7  1  0
  2  5  1  0
  2 11  1  0
  2 12  1  0
  3  8  2  0
  3 18  1  0
  4  5  1  0
  6  8  1  0
  7  9  2  0
  7 10  1  0
  8 13  1  0
  9 14  1  0
 10 15  2  0
 13 17  2  0
 14 16  2  0
 15 16  1  0
 17 19  1  0
 18 19  2  0
M  END
>  <PUBCHEM_COMPOUND_CID>  (1) 
33849

>  <PUBCHEM_CONFORMER_RMSD>  (1) 
0.8

>  <PUBCHEM_CONFORMER_DIVERSEORDER>  (1) 
9
47
45
81
25
63
99
19
66
27
94
90
96
50
89
22
79
97
65
31
84
69
39
62
16
28
42
67
82
86
21
95
107
93
52
32
92
106
103
38
34
101
30
78
18
108
98
48
83
55
72
74
46
40
85
12
26
54
104
17
76
87
56
88
44
70
102
4
77
35
43
58
64
37
100
36
61
80
71
49
57
60
68
41
73
5
14
23
15
105
13
33
7
20
29
8
51
10
6
91
75
3
59
53
24
2
11
1

>  <PUBCHEM_MMFF94_PARTIAL_CHARGES>  (1) 
28
1 -0.84
10 -0.15
11 0.27
12 0.27
13 -0.15
14 -0.15
15 -0.15
16 -0.15
17 -0.15
18 0.16
19 -0.15
2 -0.81
26 0.15
27 0.15
3 -0.62
34 0.15
35 0.15
36 0.15
37 0.15
38 0.15
39 0.15
4 0.37
40 0.15
5 0.27
6 0.51
7 0.1
8 0.17
9 -0.15

>  <PUBCHEM_EFFECTIVE_ROTOR_COUNT>  (1) 
6

>  <PUBCHEM_PHARMACOPHORE_FEATURES>  (1) 
5
1 1 cation
1 2 cation
1 3 acceptor
6 3 8 13 17 18 19 rings
6 7 9 10 14 15 16 rings

>  <PUBCHEM_HEAVY_ATOM_COUNT>  (1) 
19

>  <PUBCHEM_ATOM_DEF_STEREO_COUNT>  (1) 
0

>  <PUBCHEM_ATOM_UDEF_STEREO_COUNT>  (1) 
0

>  <PUBCHEM_BOND_DEF_STEREO_COUNT>  (1) 
0

>  <PUBCHEM_BOND_UDEF_STEREO_COUNT>  (1) 
0

>  <PUBCHEM_ISOTOPIC_ATOM_COUNT>  (1) 
0

>  <PUBCHEM_COMPONENT_COUNT>  (1) 
1

>  <PUBCHEM_CACTVS_TAUTO_COUNT>  (1) 
1

>  <PUBCHEM_CONFORMER_ID>  (1) 
0000843900000009

>  <PUBCHEM_MMFF94_ENERGY>  (1) 
66.553

>  <PUBCHEM_FEATURE_SELFOVERLAP>  (1) 
25.371

>  <PUBCHEM_SHAPE_FINGERPRINT>  (1) 
10165383 225 17177466399449634929
104564 63 18266175033129287769
10922049 32 9295289464888187016
11101153 10 18335428967997606892
11265709 11 18410016533093928236
11578080 2 17774141457875492833
12553582 1 18338251409133515262
12788726 201 18261949636009142746
13004483 165 18338786815408783490
13009979 54 17845664754108537731
13132413 78 18410576167269527401
13134695 92 18341044232965838909
13149001 5 18042689583652354419
13294875 104 17768250472110754312
13583140 156 15051440562468368426
13681431 1 18337672043698751844
13911987 19 18115039583870522766
14170010 4 18266732657586960761
14181834 199 18199465656758944748
14251757 17 17095514128274024348
14508225 48 18335981978732073548
14840074 17 18201161065714784636
15848700 24 18410847776674574194
15849732 13 18060140921287896511
17357779 13 18340473500425902892
17980427 23 15051729820120576507
1813 80 18341903982318060814
18769570 83 18116143386022466309
18785283 64 17680440140663820761
20600515 1 18410579513191326778
20671657 1 18195527232294688783
20671657 53 18333733528538931846
21029758 11 18335698355754477112
21041028 32 18408895031439552585
21304303 282 17176828308922109860
22079108 93 11097866185211404743
22112679 90 18197807468665257120
22224240 67 9367338258918226079
22620623 9 18055927497824032958
23175994 123 18260834799742946883
23402539 116 18410007693998791034
23419403 2 18056731360899100144
23557571 272 18339923719543844054
23558518 356 17681840605272387258
25 1 17975705205448444617
312423 11 18055918938461270103
314173 85 18413393120470823458
3250762 1 17610350710962683171
532947 4 17980484782742605472
621550 34 18060128835403010386
68521 5 18336547105853930040
7164475 11 18118677717543927402
7364860 26 18194963173897041169
7471813 234 18200587107501785301
7495541 125 17750244754062435083
81228 2 18264499381803712464
9971528 1 18342448287844576961
9981440 41 17188957459774816905

>  <PUBCHEM_SHAPE_MULTIPOLES>  (1) 
376.07
7.77
3.37
1.37
3.4
4.63
-0.23
-7.4
-0.67
0.78
-0.4
-0.33
-0.07
-0.42

>  <PUBCHEM_SHAPE_SELFOVERLAP>  (1) 
782.323

>  <PUBCHEM_SHAPE_VOLUME>  (1) 
212.7

>  <PUBCHEM_COORDINATE_TYPE>  (1) 
2
5
10

$$$$
