33859
     RDKit          3D

 28 30  0  0  0  0  0  0  0  0999 V2000
    8.5096    1.8947    0.2475 Cl  0  0  0  0  0  0  0  0  0  0  0  0
   -5.6317    0.2081   -0.6752 S   0  0  0  0  0  0  0  0  0  0  0  0
    2.8372    0.3670   -0.0590 O   0  0  0  0  0  0  0  0  0  0  0  0
    5.5884   -2.6139    0.3598 O   0  0  0  0  0  0  0  0  0  0  0  0
   -6.1097   -1.0633   -1.2098 O   0  0  0  0  0  0  0  0  0  0  0  0
   -5.9132    1.4410   -1.4018 O   0  0  0  0  0  0  0  0  0  0  0  0
    0.6695   -2.4404   -0.0154 O   0  0  0  0  0  0  0  0  0  0  0  0
    0.2717   -0.1276   -0.2113 N   0  0  0  0  0  0  0  0  0  0  0  0
   -6.1442    0.3440    0.8732 N   0  0  0  0  0  0  0  0  0  0  0  0
   -7.9548    0.5616    2.4387 N   0  0  0  0  0  0  0  0  0  0  0  0
   -8.3714    0.4364    0.1986 N   0  0  0  0  0  0  0  0  0  0  0  0
    5.1653   -0.2953    0.1606 C   0  0  0  0  0  0  0  0  0  0  0  0
   -1.1379   -0.0473   -0.3219 C   0  0  0  0  0  0  0  0  0  0  0  0
   -3.8939    0.1095   -0.5385 C   0  0  0  0  0  0  0  0  0  0  0  0
    4.1730    0.6753    0.0170 C   0  0  0  0  0  0  0  0  0  0  0  0
    2.4789   -0.9627    0.0113 C   0  0  0  0  0  0  0  0  0  0  0  0
   -1.8861   -1.2118   -0.2937 C   0  0  0  0  0  0  0  0  0  0  0  0
   -1.7366    1.1941   -0.4560 C   0  0  0  0  0  0  0  0  0  0  0  0
   -3.2744   -1.1329   -0.4030 C   0  0  0  0  0  0  0  0  0  0  0  0
   -3.1250    1.2731   -0.5651 C   0  0  0  0  0  0  0  0  0  0  0  0
    4.7709   -1.7127    0.2343 C   0  0  0  0  0  0  0  0  0  0  0  0
    3.3232   -1.9924    0.1479 C   0  0  0  0  0  0  0  0  0  0  0  0
    1.0500   -1.2703   -0.0713 C   0  0  0  0  0  0  0  0  0  0  0  0
    6.5100    0.0755    0.2329 C   0  0  0  0  0  0  0  0  0  0  0  0
    4.5217    2.0240   -0.0557 C   0  0  0  0  0  0  0  0  0  0  0  0
    6.8555    1.4256    0.1597 C   0  0  0  0  0  0  0  0  0  0  0  0
    5.8641    2.3975    0.0158 C   0  0  0  0  0  0  0  0  0  0  0  0
   -7.4100    0.4432    1.1805 C   0  0  0  0  0  0  0  0  0  0  0  0
  1 26  1  0
  2  5  2  0
  2  6  2  0
  2  9  1  0
  2 14  1  0
  3 15  1  0
  3 16  1  0
  4 21  2  0
  7 23  2  0
  8 13  1  0
  8 23  1  0
  9 28  2  3
 10 28  1  0
 11 28  1  0
 12 15  2  0
 12 21  1  0
 12 24  1  0
 13 17  2  0
 13 18  1  0
 14 19  2  0
 14 20  1  0
 15 25  1  0
 16 22  2  0
 16 23  1  0
 17 19  1  0
 18 20  2  0
 21 22  1  0
 24 26  2  0
 25 27  2  0
 26 27  1  0
M  END
>  <PUBCHEM_COMPOUND_CID>  (1) 
33859

>  <PUBCHEM_CONFORMER_RMSD>  (1) 
0.8

>  <PUBCHEM_CONFORMER_DIVERSEORDER>  (1) 
1
21
13
15
6
2
14
24
23
5
17
16
11
22
18
10
19
12
9
3
7
4
8
20

>  <PUBCHEM_MMFF94_PARTIAL_CHARGES>  (1) 
41
1 -0.18
10 -0.85
11 -0.85
12 0.09
13 0.12
14 -0.01
15 0.08
16 0.09
17 -0.15
18 -0.15
19 -0.15
2 1.5
20 -0.15
21 0.47
22 -0.14
23 0.62
24 -0.15
25 -0.15
26 0.18
27 -0.15
28 0.55
29 0.15
3 -0.16
30 0.15
31 0.15
32 0.15
33 0.37
34 0.15
35 0.15
36 0.15
37 0.15
38 0.4
39 0.4
4 -0.57
40 0.4
41 0.4
5 -0.65
6 -0.65
7 -0.57
8 -0.55
9 -0.64

>  <PUBCHEM_EFFECTIVE_ROTOR_COUNT>  (1) 
5

>  <PUBCHEM_PHARMACOPHORE_FEATURES>  (1) 
12
1 10 donor
1 11 donor
1 3 acceptor
1 4 acceptor
1 5 acceptor
1 6 acceptor
1 7 acceptor
1 8 donor
1 9 donor
6 12 15 24 25 26 27 rings
6 13 14 17 18 19 20 rings
6 3 12 15 16 21 22 rings

>  <PUBCHEM_HEAVY_ATOM_COUNT>  (1) 
28

>  <PUBCHEM_ATOM_DEF_STEREO_COUNT>  (1) 
0

>  <PUBCHEM_ATOM_UDEF_STEREO_COUNT>  (1) 
0

>  <PUBCHEM_BOND_DEF_STEREO_COUNT>  (1) 
0

>  <PUBCHEM_BOND_UDEF_STEREO_COUNT>  (1) 
0

>  <PUBCHEM_ISOTOPIC_ATOM_COUNT>  (1) 
0

>  <PUBCHEM_COMPONENT_COUNT>  (1) 
1

>  <PUBCHEM_CACTVS_TAUTO_COUNT>  (1) 
4

>  <PUBCHEM_CONFORMER_ID>  (1) 
0000844300000001

>  <PUBCHEM_MMFF94_ENERGY>  (1) 
76.8284

>  <PUBCHEM_FEATURE_SELFOVERLAP>  (1) 
61.076

>  <PUBCHEM_SHAPE_FINGERPRINT>  (1) 
10 15 17967813859707518505
10299344 5 18131349717833947183
10411042 1 17977660911108884834
10595046 47 18413100650045428366
106641 1 17240204360704456849
10835480 77 18260820459148001837
10906281 52 17917721197169115767
11315181 36 18131067148437200191
11456790 92 18335414639406589224
11719270 70 12612749107814868904
12236239 1 18130784559887794159
12730499 353 18187647973040925682
13533116 47 18412258407554807570
14251764 18 18131911568697772935
14341114 176 18334576819729677070
14461889 52 17312828181655497002
14849402 71 18271527593447341393
14856354 85 16988838407089694373
14933364 13 18409165519541455124
15183329 4 17489870444912694401
15475509 35 16226875659319310994
15510794 2 17748825207710556459
15690457 1 12179841723405385800
15706992 2 16917083161669600091
1577012 14 18131630084424330479
1768 4 18410014368177574017
18335252 98 18335984263433336499
18608769 82 18335420222447088611
19302320 297 18041838537027753764
20157964 124 18410854357123601910
21033648 29 18266730458912105584
21033650 10 15051749581096968938
21267235 1 18336830775749157942
21521721 280 18411702088403293571
21781055 127 16988571152365221554
21792934 111 18040436560648468805
22224240 67 18187083966551832411
23081809 10 17846489331957806679
23522609 53 17988657310742622473
23559900 14 18339349859635058057
2747138 104 17749119867968015793
3092352 35 17632577154288093063
3383291 50 16805613590213185147
34797466 226 18131073714708986150
3545911 37 18335135402001993260
397830 11 17676780880473067827
4073 2 18040435533924600618
4093350 32 17704076183797550182
4340502 62 17167859764441598154
5104073 3 18041556919440669137
5758199 1 18342458153263324843
59682541 35 18113907078709446235
9953998 17 17968103036747378083

>  <PUBCHEM_SHAPE_MULTIPOLES>  (1) 
532.68
25.82
2.28
1.02
16.26
0.53
0.38
-11.59
6.36
-4.35
-0.02
2.72
-0.21
-0.53

>  <PUBCHEM_SHAPE_SELFOVERLAP>  (1) 
1143.306

>  <PUBCHEM_SHAPE_VOLUME>  (1) 
293.5

>  <PUBCHEM_COORDINATE_TYPE>  (1) 
2
5
10

$$$$
