33853
     RDKit          3D

 23 24  0  0  1  0  0  0  0  0999 V2000
    3.2202    3.8922    0.5761 O   0  0  0  0  0  0  0  0  0  0  0  0
   -3.8785    0.1663    0.1067 N   0  0  0  0  0  0  0  0  0  0  0  0
   -0.2321   -0.3673   -0.3534 N   0  0  0  0  0  0  0  0  0  0  0  0
    0.4443   -3.4579    0.0359 N   0  0  0  0  0  0  0  0  0  0  0  0
   -2.5659    0.2680   -0.5302 C   0  0  0  0  0  0  0  0  0  0  0  0
   -1.5148   -0.4542    0.3030 C   0  0  0  0  0  0  0  0  0  0  0  0
   -3.8429    0.7500    1.4472 C   0  0  0  0  0  0  0  0  0  0  0  0
   -4.8958    0.8259   -0.7112 C   0  0  0  0  0  0  0  0  0  0  0  0
    0.1592   -1.4390   -1.2707 C   0  0  0  0  0  0  0  0  0  0  0  0
    0.6380    0.7066   -0.1187 C   0  0  0  0  0  0  0  0  0  0  0  0
   -5.1825    0.5985    2.1476 C   0  0  0  0  0  0  0  0  0  0  0  0
   -4.9469    0.2317   -2.1085 C   0  0  0  0  0  0  0  0  0  0  0  0
    1.0562   -2.4259   -0.5764 C   0  0  0  0  0  0  0  0  0  0  0  0
    1.0468    1.5271   -1.1755 C   0  0  0  0  0  0  0  0  0  0  0  0
    1.1057    0.9672    1.1739 C   0  0  0  0  0  0  0  0  0  0  0  0
    1.9129    2.5955   -0.9425 C   0  0  0  0  0  0  0  0  0  0  0  0
    1.9718    2.0355    1.4069 C   0  0  0  0  0  0  0  0  0  0  0  0
    2.4211   -2.2227   -0.6052 C   0  0  0  0  0  0  0  0  0  0  0  0
    2.3753    2.8497    0.3486 C   0  0  0  0  0  0  0  0  0  0  0  0
    3.2228   -3.1534    0.0463 C   0  0  0  0  0  0  0  0  0  0  0  0
    1.2558   -4.3420    0.6585 C   0  0  0  0  0  0  0  0  0  0  0  0
    2.6368   -4.2362    0.6926 C   0  0  0  0  0  0  0  0  0  0  0  0
    3.5924    4.6842   -0.5509 C   0  0  0  0  0  0  0  0  0  0  0  0
  1 19  1  0
  1 23  1  0
  2  5  1  0
  2  7  1  0
  2  8  1  0
  3  6  1  0
  3  9  1  0
  3 10  1  0
  4 13  2  0
  4 21  1  0
  5  6  1  0
  7 11  1  0
  8 12  1  0
  9 13  1  0
 10 14  2  0
 10 15  1  0
 13 18  1  0
 14 16  1  0
 15 17  2  0
 16 19  2  0
 17 19  1  0
 18 20  2  0
 20 22  1  0
 21 22  2  0
M  END
>  <PUBCHEM_COMPOUND_CID>  (1) 
33853

>  <PUBCHEM_CONFORMER_RMSD>  (1) 
1

>  <PUBCHEM_CONFORMER_DIVERSEORDER>  (1) 
1
41
121
56
22
93
117
95
63
20
128
49
80
141
74
146
69
77
115
135
145
31
70
52
53
82
50
36
96
62
11
21
132
119
58
91
92
10
17
54
143
108
103
87
110
101
138
67
28
124
48
71
75
76
78
4
33
139
12
105
127
142
47
122
43
68
25
137
59
111
114
148
113
98
97
99
8
73
149
131
106
18
38
5
45
61
42
147
136
35
39
86
85
66
64
3
133
134
65
116
144
112
90
55
60
100
9
27
34
79
16
150
125
13
2
37
120
15
107
130
89
81
118
83
109
30
123
19
104
26
46
57
102
140
94
126
40
44
24
51
129
84
14
6
29
88
32
23
7
72

>  <PUBCHEM_MMFF94_PARTIAL_CHARGES>  (1) 
29
1 -0.36
10 0.1
13 0.17
14 -0.15
15 -0.15
16 -0.15
17 -0.15
18 -0.15
19 0.08
2 -0.81
20 -0.15
21 0.16
22 -0.15
23 0.28
3 -0.84
4 -0.62
40 0.15
41 0.15
42 0.15
43 0.15
44 0.15
45 0.15
46 0.15
47 0.15
5 0.27
6 0.37
7 0.27
8 0.27
9 0.51

>  <PUBCHEM_EFFECTIVE_ROTOR_COUNT>  (1) 
9

>  <PUBCHEM_PHARMACOPHORE_FEATURES>  (1) 
6
1 1 acceptor
1 2 cation
1 3 cation
1 4 acceptor
6 10 14 15 16 17 19 rings
6 4 13 18 20 21 22 rings

>  <PUBCHEM_HEAVY_ATOM_COUNT>  (1) 
23

>  <PUBCHEM_ATOM_DEF_STEREO_COUNT>  (1) 
0

>  <PUBCHEM_ATOM_UDEF_STEREO_COUNT>  (1) 
0

>  <PUBCHEM_BOND_DEF_STEREO_COUNT>  (1) 
0

>  <PUBCHEM_BOND_UDEF_STEREO_COUNT>  (1) 
0

>  <PUBCHEM_ISOTOPIC_ATOM_COUNT>  (1) 
0

>  <PUBCHEM_COMPONENT_COUNT>  (1) 
1

>  <PUBCHEM_CACTVS_TAUTO_COUNT>  (1) 
1

>  <PUBCHEM_CONFORMER_ID>  (1) 
0000843D00000001

>  <PUBCHEM_MMFF94_ENERGY>  (1) 
79.3935

>  <PUBCHEM_FEATURE_SELFOVERLAP>  (1) 
30.446

>  <PUBCHEM_SHAPE_FINGERPRINT>  (1) 
107951 10 17980775040737045932
1100329 8 18411987987961261782
11578080 2 12405110670499809278
12160290 23 17407383106468792893
12549972 3 17823146627460406505
12553582 1 18053111622908104087
12788726 201 16893691854072076987
13004483 165 17474109791625930339
13134695 92 18193271893264597215
13140716 1 18338808925631151147
133893 2 18342442734599705871
13955234 65 18409459080809331577
14955137 171 17985290498500582119
15230672 131 18190746539444181444
15842332 3 17775003467176602509
17868525 174 18050581646784441177
17876694 64 17557439677555780953
17980427 23 17416672554332408495
1813 80 17984428429881468159
18785283 64 18408891740987812082
20600515 1 17985554342415035391
20739085 24 18057046809130100786
21120745 212 17474416585793846006
2132832 1 17844231940423911833
2255824 54 18343023263822763959
23366157 5 18410854339384388105
23419403 2 17553445156007050992
23558518 356 17981049926907084590
23559900 14 18335691690682742879
25147074 1 17846776283471220685
283562 15 17764868387719130135
3091708 16 9257148484478411410
312423 11 17846499219383764183
3759504 43 17979637063029004764
394222 165 18130805463630637531
4409770 3 17327727904315997887
57634706 229 17622759769150630281
59755656 520 18052270775258331592
633830 44 17987255463381791101
6442390 28 17978533123474160411
7615 1 17632290134935558749
79837 15 17977671136301390328
81228 2 17042905494556012127
9981440 41 18265606779160528617

>  <PUBCHEM_SHAPE_MULTIPOLES>  (1) 
452.52
8.46
6.34
1.59
15.53
0.46
-0.14
1.75
-0.65
-12.99
-0.54
2
0.35
-0.5

>  <PUBCHEM_SHAPE_SELFOVERLAP>  (1) 
930.19

>  <PUBCHEM_SHAPE_VOLUME>  (1) 
261.9

>  <PUBCHEM_COORDINATE_TYPE>  (1) 
2
5
10

$$$$
