33866
     RDKit          3D

 26 28  0  0  1  0  0  0  0  0999 V2000
   -0.3581   -2.5120   -1.5358 O   0  0  0  0  0  0  0  0  0  0  0  0
   -5.0641   -1.2852   -0.1617 O   0  0  0  0  0  0  0  0  0  0  0  0
   -2.4165    2.6775    0.3152 O   0  0  0  0  0  0  0  0  0  0  0  0
   -4.8871    1.4269    0.3740 O   0  0  0  0  0  0  0  0  0  0  0  0
    4.5985    1.9712   -0.1748 N   0  0  0  0  0  0  0  0  0  0  0  0
    0.9161   -1.0279   -0.2906 N   0  0  0  0  0  0  0  0  0  0  0  0
    3.3645   -0.6588   -0.5501 C   0  0  0  0  0  0  0  0  0  0  0  0
    3.6643   -0.0856    0.8492 C   0  0  0  0  0  0  0  0  0  0  0  0
    2.1931   -1.6610   -0.5309 C   0  0  0  0  0  0  0  0  0  0  0  0
    3.9279   -1.2184    1.8497 C   0  0  0  0  0  0  0  0  0  0  0  0
    3.1660    0.4889   -1.5485 C   0  0  0  0  0  0  0  0  0  0  0  0
    4.8545    0.8871    0.7857 C   0  0  0  0  0  0  0  0  0  0  0  0
    2.4435   -2.7672    0.5017 C   0  0  0  0  0  0  0  0  0  0  0  0
    2.7704   -2.2141    1.8894 C   0  0  0  0  0  0  0  0  0  0  0  0
    4.3617    1.4450   -1.5260 C   0  0  0  0  0  0  0  0  0  0  0  0
    5.7115    2.9205   -0.1834 C   0  0  0  0  0  0  0  0  0  0  0  0
   -0.2666   -1.5163   -0.8225 C   0  0  0  0  0  0  0  0  0  0  0  0
   -1.4904   -0.7367   -0.5040 C   0  0  0  0  0  0  0  0  0  0  0  0
   -1.3717    0.6124   -0.2424 C   0  0  0  0  0  0  0  0  0  0  0  0
   -2.7069   -1.3869   -0.4822 C   0  0  0  0  0  0  0  0  0  0  0  0
   -3.8565   -0.6547   -0.1853 C   0  0  0  0  0  0  0  0  0  0  0  0
   -2.5215    1.3445    0.0546 C   0  0  0  0  0  0  0  0  0  0  0  0
   -3.7638    0.7109    0.0832 C   0  0  0  0  0  0  0  0  0  0  0  0
   -5.4819   -1.8385    1.0846 C   0  0  0  0  0  0  0  0  0  0  0  0
   -2.2088    3.0578    1.6740 C   0  0  0  0  0  0  0  0  0  0  0  0
   -5.5780    2.0205   -0.7228 C   0  0  0  0  0  0  0  0  0  0  0  0
  1 17  2  0
  2 21  1  0
  2 24  1  0
  3 22  1  0
  3 25  1  0
  4 23  1  0
  4 26  1  0
  5 12  1  0
  5 15  1  0
  5 16  1  0
  6  9  1  0
  6 17  1  0
  7  8  1  0
  7  9  1  0
  7 11  1  0
  8 10  1  0
  8 12  1  0
  9 13  1  0
 10 14  1  0
 11 15  1  0
 13 14  1  0
 17 18  1  0
 18 19  2  0
 18 20  1  0
 19 22  1  0
 20 21  2  0
 21 23  1  0
 22 23  2  0
M  END
>  <PUBCHEM_COMPOUND_CID>  (1) 
33866

>  <PUBCHEM_CONFORMER_RMSD>  (1) 
0.8

>  <PUBCHEM_CONFORMER_DIVERSEORDER>  (1) 
5
20
38
52
33
34
43
46
29
47
9
49
22
35
41
40
44
27
17
23
24
16
37
50
36
6
19
26
39
48
25
30
51
13
8
42
1
15
31
18
21
4
11
28
7
45
14
32
10
3
12
2

>  <PUBCHEM_MMFF94_PARTIAL_CHARGES>  (1) 
23
1 -0.57
12 0.27
15 0.27
16 0.27
17 0.54
18 0.09
19 -0.15
2 -0.36
20 -0.15
21 0.08
22 0.08
23 0.08
24 0.28
25 0.28
26 0.28
3 -0.36
4 -0.36
42 0.37
46 0.15
47 0.15
5 -0.81
6 -0.73
9 0.3

>  <PUBCHEM_EFFECTIVE_ROTOR_COUNT>  (1) 
7.6

>  <PUBCHEM_PHARMACOPHORE_FEATURES>  (1) 
9
1 1 acceptor
1 2 acceptor
1 3 acceptor
1 4 acceptor
1 5 cation
1 6 donor
6 18 19 20 21 22 23 rings
6 5 7 8 11 12 15 rings
6 7 8 9 10 13 14 rings

>  <PUBCHEM_HEAVY_ATOM_COUNT>  (1) 
26

>  <PUBCHEM_ATOM_DEF_STEREO_COUNT>  (1) 
2

>  <PUBCHEM_ATOM_UDEF_STEREO_COUNT>  (1) 
1

>  <PUBCHEM_BOND_DEF_STEREO_COUNT>  (1) 
0

>  <PUBCHEM_BOND_UDEF_STEREO_COUNT>  (1) 
0

>  <PUBCHEM_ISOTOPIC_ATOM_COUNT>  (1) 
0

>  <PUBCHEM_COMPONENT_COUNT>  (1) 
1

>  <PUBCHEM_CACTVS_TAUTO_COUNT>  (1) 
2

>  <PUBCHEM_CONFORMER_ID>  (1) 
0000844A00000005

>  <PUBCHEM_MMFF94_ENERGY>  (1) 
88.2527

>  <PUBCHEM_FEATURE_SELFOVERLAP>  (1) 
45.697

>  <PUBCHEM_SHAPE_FINGERPRINT>  (1) 
10498660 4 18273218594732207620
10670039 82 18272663324602538900
10906281 52 17988087661209918161
11595378 159 18410849966965301558
11720765 8 16988013661731205142
12403259 118 18338222774322503507
12596602 18 18186799201223562514
12788726 201 18342741823189779361
13224815 77 18341331110863558883
13533116 47 17386287563046260387
13583140 156 17606380078164238294
13726171 33 18272944824774437249
14251764 38 18267586801559033433
14341114 328 18187640358026772146
14739800 52 18341600569265652312
14787075 74 18189332532118182051
14849402 71 18186518826845370512
15142526 21 18042402620361086448
15183329 4 10735886066579067139
15575132 122 18341335573514057685
17492 89 18336265626662218003
19377110 9 18260834834250482475
20511986 3 18261660541375418021
20715895 44 17903908960255238413
20739085 24 17822008701671015252
21065198 48 18187361021542952074
21315764 371 17167863079739743011
21756936 100 18193552505612263910
21859007 373 16808403970178118381
21864079 5 18343299241256913206
23559900 14 18126010360341867087
245318 6 17606695874768197388
312423 11 18335426707826911626
38570 142 18114477751177726100
392239 28 18044668721846408747
4340502 62 17604148232810847290
44802255 64 17127064770060123860
474 4 17895196657812519006
5104073 3 18259989241125929163
5895379 119 17915184512311739552
67856867 119 18261388914885304322
7097593 13 17611741210962084195
7808743 9 18200307861739578366
960060 61 11959730495125617138

>  <PUBCHEM_SHAPE_MULTIPOLES>  (1) 
501.63
13.43
3.45
1.48
3.71
1.05
-0.31
5.98
-1.23
-0.6
-0.71
-1.12
-0.21
-1.43

>  <PUBCHEM_SHAPE_SELFOVERLAP>  (1) 
1047.833

>  <PUBCHEM_SHAPE_VOLUME>  (1) 
284

>  <PUBCHEM_COORDINATE_TYPE>  (1) 
2
5
10

$$$$
