33868
     RDKit          3D

 14 15  0  0  0  0  0  0  0  0999 V2000
    2.8996    0.3353   -0.7676 O   0  0  0  0  0  0  0  0  0  0  0  0
    3.4989   -1.9199    0.6152 O   0  0  0  0  0  0  0  0  0  0  0  0
   -0.9012    1.9373    0.1991 N   0  0  0  0  0  0  0  0  0  0  0  0
   -0.6347   -0.2595   -0.0845 C   0  0  0  0  0  0  0  0  0  0  0  0
    0.6423    0.3682   -0.0887 C   0  0  0  0  0  0  0  0  0  0  0  0
   -1.5856    0.7469    0.0983 C   0  0  0  0  0  0  0  0  0  0  0  0
    0.4456    1.7186    0.0872 C   0  0  0  0  0  0  0  0  0  0  0  0
   -1.0743   -1.5914   -0.2188 C   0  0  0  0  0  0  0  0  0  0  0  0
    1.9274   -0.2543   -0.2460 C   0  0  0  0  0  0  0  0  0  0  0  0
   -2.9594    0.4868    0.1544 C   0  0  0  0  0  0  0  0  0  0  0  0
    1.4040    2.8390    0.1625 C   0  0  0  0  0  0  0  0  0  0  0  0
   -2.4456   -1.8666   -0.1644 C   0  0  0  0  0  0  0  0  0  0  0  0
   -3.3718   -0.8418    0.0194 C   0  0  0  0  0  0  0  0  0  0  0  0
    2.1548   -1.6986    0.2340 C   0  0  0  0  0  0  0  0  0  0  0  0
  1  9  2  0
  2 14  1  0
  3  6  1  0
  3  7  1  0
  4  5  1  0
  4  6  2  0
  4  8  1  0
  5  7  2  0
  5  9  1  0
  6 10  1  0
  7 11  1  0
  8 12  2  0
  9 14  1  0
 10 13  2  0
 12 13  1  0
M  END
>  <PUBCHEM_COMPOUND_CID>  (1) 
33868

>  <PUBCHEM_CONFORMER_RMSD>  (1) 
0.6

>  <PUBCHEM_CONFORMER_DIVERSEORDER>  (1) 
1
6
2
5
4
3

>  <PUBCHEM_MMFF94_PARTIAL_CHARGES>  (1) 
19
1 -0.57
10 -0.15
11 0.18
12 -0.15
13 -0.15
14 0.34
15 0.27
16 0.15
17 0.15
2 -0.68
21 0.15
22 0.15
25 0.4
3 0.03
5 -0.09
6 -0.15
7 -0.33
8 -0.15
9 0.6

>  <PUBCHEM_EFFECTIVE_ROTOR_COUNT>  (1) 
2

>  <PUBCHEM_PHARMACOPHORE_FEATURES>  (1) 
7
1 1 acceptor
1 2 acceptor
1 2 donor
1 3 cation
1 3 donor
5 3 4 5 6 7 rings
6 4 6 8 10 12 13 rings

>  <PUBCHEM_HEAVY_ATOM_COUNT>  (1) 
14

>  <PUBCHEM_ATOM_DEF_STEREO_COUNT>  (1) 
0

>  <PUBCHEM_ATOM_UDEF_STEREO_COUNT>  (1) 
0

>  <PUBCHEM_BOND_DEF_STEREO_COUNT>  (1) 
0

>  <PUBCHEM_BOND_UDEF_STEREO_COUNT>  (1) 
0

>  <PUBCHEM_ISOTOPIC_ATOM_COUNT>  (1) 
0

>  <PUBCHEM_COMPONENT_COUNT>  (1) 
1

>  <PUBCHEM_CACTVS_TAUTO_COUNT>  (1) 
11

>  <PUBCHEM_CONFORMER_ID>  (1) 
0000844C00000001

>  <PUBCHEM_MMFF94_ENERGY>  (1) 
23.4224

>  <PUBCHEM_FEATURE_SELFOVERLAP>  (1) 
35.618

>  <PUBCHEM_SHAPE_FINGERPRINT>  (1) 
10130415 120 18335701602797446539
10967382 1 18195246839232992319
11769659 78 18409444791205405943
12553582 1 18411986844745509046
13380535 76 17833826449371003457
15375462 189 18336560385713441979
15442244 35 18412546496453931081
15536298 74 18057612168591888484
161256 15 18337669840349049413
16945 1 18410854390903039573
18619055 16 18334574616173986479
193761 8 18411698824433921985
20510252 161 17840018546956156592
20645477 70 18127975419865148991
20871998 184 18057315094283286094
21501502 16 18270122456183011949
21650355 55 18122045525885622994
22344851 341 18053948625791382960
22445834 79 18339085985666396043
232386 152 18410575054931013766
2334 1 18052540172981665045
23402539 116 18055617431207932205
23419403 2 15115270596731184767
23463225 33 18337674113730732582
23552423 10 18193277618382019445
23559900 14 18125713488540090642
2748010 2 17620769284142316773
34934 24 18412258462845907556
43471831 8 17834105721161425136
53812654 25 18343013372296744814
7364860 26 18270400632340093640
74978 22 18411980303921527023
81228 2 18054516802741031040

>  <PUBCHEM_SHAPE_MULTIPOLES>  (1) 
271.39
4.88
2.65
0.67
0.31
0.74
0.01
-2.27
-0.12
-1.41
-0.29
-0.14
-0.05
-0.39

>  <PUBCHEM_SHAPE_SELFOVERLAP>  (1) 
588.939

>  <PUBCHEM_SHAPE_VOLUME>  (1) 
149.8

>  <PUBCHEM_COORDINATE_TYPE>  (1) 
2
5
10

$$$$
