33860
     RDKit          3D

 31 34  0  0  0  0  0  0  0  0999 V2000
    8.9072   -0.8051    1.2955 Cl  0  0  0  0  0  0  0  0  0  0  0  0
   -5.2044   -1.7465   -0.6089 S   0  0  0  0  0  0  0  0  0  0  0  0
    3.1632   -0.4678    0.0724 O   0  0  0  0  0  0  0  0  0  0  0  0
   -5.3530   -3.1847   -0.4192 O   0  0  0  0  0  0  0  0  0  0  0  0
   -5.7688   -1.1341   -1.8055 O   0  0  0  0  0  0  0  0  0  0  0  0
    0.7490    1.5320   -1.5875 O   0  0  0  0  0  0  0  0  0  0  0  0
    5.5827    2.4996   -1.3314 O   0  0  0  0  0  0  0  0  0  0  0  0
    0.5847   -0.4806   -0.3759 N   0  0  0  0  0  0  0  0  0  0  0  0
   -5.8247   -0.9557    0.7906 N   0  0  0  0  0  0  0  0  0  0  0  0
   -6.0616    1.2832    0.0872 N   0  0  0  0  0  0  0  0  0  0  0  0
   -3.5002   -1.3739   -0.5409 C   0  0  0  0  0  0  0  0  0  0  0  0
   -0.7977   -0.7833   -0.4322 C   0  0  0  0  0  0  0  0  0  0  0  0
   -3.0117   -0.2256   -1.1638 C   0  0  0  0  0  0  0  0  0  0  0  0
   -2.6272   -2.2248    0.1368 C   0  0  0  0  0  0  0  0  0  0  0  0
    5.3938    0.4782   -0.1177 C   0  0  0  0  0  0  0  0  0  0  0  0
   -1.6500    0.0721   -1.1091 C   0  0  0  0  0  0  0  0  0  0  0  0
   -1.2655   -1.9272    0.1916 C   0  0  0  0  0  0  0  0  0  0  0  0
    4.5108   -0.5039    0.3327 C   0  0  0  0  0  0  0  0  0  0  0  0
    2.6790    0.5909   -0.6666 C   0  0  0  0  0  0  0  0  0  0  0  0
    1.2396    0.6107   -0.9336 C   0  0  0  0  0  0  0  0  0  0  0  0
    4.8653    1.6049   -0.9059 C   0  0  0  0  0  0  0  0  0  0  0  0
    3.4100    1.5983   -1.1590 C   0  0  0  0  0  0  0  0  0  0  0  0
    6.7564    0.3908    0.1768 C   0  0  0  0  0  0  0  0  0  0  0  0
    4.9872   -1.5801    1.0816 C   0  0  0  0  0  0  0  0  0  0  0  0
   -5.5102    0.4352    0.9773 C   0  0  0  0  0  0  0  0  0  0  0  0
    7.2298   -0.6869    0.9264 C   0  0  0  0  0  0  0  0  0  0  0  0
    6.3477   -1.6699    1.3777 C   0  0  0  0  0  0  0  0  0  0  0  0
   -4.6894    0.8128    2.0212 C   0  0  0  0  0  0  0  0  0  0  0  0
   -4.4127    2.1679    2.1635 C   0  0  0  0  0  0  0  0  0  0  0  0
   -5.7701    2.5923    0.2571 C   0  0  0  0  0  0  0  0  0  0  0  0
   -4.9594    3.0813    1.2688 C   0  0  0  0  0  0  0  0  0  0  0  0
  1 26  1  0
  2  4  2  0
  2  5  2  0
  2  9  1  0
  2 11  1  0
  3 18  1  0
  3 19  1  0
  6 20  2  0
  7 21  2  0
  8 12  1  0
  8 20  1  0
  9 25  1  0
 10 25  2  0
 10 30  1  0
 11 13  2  0
 11 14  1  0
 12 16  2  0
 12 17  1  0
 13 16  1  0
 14 17  2  0
 15 18  2  0
 15 21  1  0
 15 23  1  0
 18 24  1  0
 19 20  1  0
 19 22  2  0
 21 22  1  0
 23 26  2  0
 24 27  2  0
 25 28  1  0
 26 27  1  0
 28 29  2  0
 29 31  1  0
 30 31  2  0
M  END
>  <PUBCHEM_COMPOUND_CID>  (1) 
33860

>  <PUBCHEM_CONFORMER_RMSD>  (1) 
0.8

>  <PUBCHEM_CONFORMER_DIVERSEORDER>  (1) 
1
126
87
72
111
57
6
98
65
94
120
106
16
5
121
125
108
59
58
129
3
52
114
56
74
42
67
50
107
92
137
23
34
21
119
40
83
75
29
63
35
123
84
18
109
66
15
116
102
53
124
128
7
101
48
12
51
100
105
14
70
133
13
97
31
71
37
38
86
90
95
10
127
45
80
41
39
99
118
93
96
9
36
43
139
19
62
135
33
110
117
88
103
131
82
81
55
2
20
30
54
8
68
89
138
28
26
44
79
130
112
22
49
25
132
136
85
60
61
24
78
4
122
134
32
47
104
113
115
17
76
64
91
46
77
73
11
69
27

>  <PUBCHEM_MMFF94_PARTIAL_CHARGES>  (1) 
45
1 -0.18
10 -0.62
11 -0.01
12 0.12
13 -0.15
14 -0.15
15 0.09
16 -0.15
17 -0.15
18 0.08
19 0.09
2 1.45
20 0.62
21 0.47
22 -0.14
23 -0.15
24 -0.15
25 0.51
26 0.18
27 -0.15
28 -0.15
29 -0.15
3 -0.16
30 0.16
31 -0.15
32 0.15
33 0.15
34 0.15
35 0.15
36 0.37
37 0.42
38 0.15
39 0.15
4 -0.65
40 0.15
41 0.15
42 0.15
43 0.15
44 0.15
45 0.15
5 -0.65
6 -0.57
7 -0.57
8 -0.55
9 -0.76

>  <PUBCHEM_EFFECTIVE_ROTOR_COUNT>  (1) 
6

>  <PUBCHEM_PHARMACOPHORE_FEATURES>  (1) 
12
1 10 acceptor
1 3 acceptor
1 4 acceptor
1 5 acceptor
1 6 acceptor
1 7 acceptor
1 8 donor
1 9 donor
6 10 25 28 29 30 31 rings
6 11 12 13 14 16 17 rings
6 15 18 23 24 26 27 rings
6 3 15 18 19 21 22 rings

>  <PUBCHEM_HEAVY_ATOM_COUNT>  (1) 
31

>  <PUBCHEM_ATOM_DEF_STEREO_COUNT>  (1) 
0

>  <PUBCHEM_ATOM_UDEF_STEREO_COUNT>  (1) 
0

>  <PUBCHEM_BOND_DEF_STEREO_COUNT>  (1) 
0

>  <PUBCHEM_BOND_UDEF_STEREO_COUNT>  (1) 
0

>  <PUBCHEM_ISOTOPIC_ATOM_COUNT>  (1) 
0

>  <PUBCHEM_COMPONENT_COUNT>  (1) 
1

>  <PUBCHEM_CACTVS_TAUTO_COUNT>  (1) 
4

>  <PUBCHEM_CONFORMER_ID>  (1) 
0000844400000001

>  <PUBCHEM_MMFF94_ENERGY>  (1) 
82.1864

>  <PUBCHEM_FEATURE_SELFOVERLAP>  (1) 
60.948

>  <PUBCHEM_SHAPE_FINGERPRINT>  (1) 
100830 39 18271806791880011745
10625338 86 16845569821001655920
11477941 20 16916770883072124741
12107183 9 18335138653044270856
12236239 1 18408886269347299726
12422481 6 18262242101427225693
13167372 99 18410576184623242532
13560911 43 18272097153487020977
13782708 43 14057008242972595624
14251764 18 18409165528621915670
14466204 15 18201725037464318089
14856354 85 18059856233639213079
15021287 119 17748832907975365461
15183329 4 18187641418809795886
15352257 5 14201397153814811304
15419008 47 16343985818976338451
15461852 350 17203317927789256949
1577012 14 18410299133489448196
16112460 7 18187650236393283976
16993438 75 17677603156511147493
18927931 339 12829493675473391545
19304671 126 15765856906040381257
21033648 29 16487265369203149356
21130935 74 18410006663681647106
21267235 1 18113893846253063806
2303208 19 15357698599882771376
23081809 10 18335985358681184676
23522609 53 18042994075691276636
23559900 14 17896873464093933198
23569943 247 17386830760667121306
249057 25 18336550511773701733
3004659 81 17385711522734030046
3504750 166 18342171202694494335
3663271 9 18409730703083637608
4073 2 17096367414201904258
4197921 191 18336273443570690325
44555599 121 18335987540704360492
5104073 3 18334575789296313232
513202 73 17313382275386814877
58083652 198 17894905256655275612
6299153 45 18335422322506631321
7226269 152 17988645155810900217
999808 66 16081090342433301810

>  <PUBCHEM_SHAPE_MULTIPOLES>  (1) 
599.4
23.46
2.86
1.64
24.28
0.52
0.31
0.33
8.37
-4.5
0.23
-0.55
0.59
-4.64

>  <PUBCHEM_SHAPE_SELFOVERLAP>  (1) 
1300.29

>  <PUBCHEM_SHAPE_VOLUME>  (1) 
326.8

>  <PUBCHEM_COORDINATE_TYPE>  (1) 
2
5
10

$$$$
