33887
     RDKit          3D

 35 38  0  0  0  0  0  0  0  0999 V2000
   -6.0540   -4.1235    2.0313 F   0  0  0  0  0  0  0  0  0  0  0  0
   -5.4568    4.7230   -0.9762 F   0  0  0  0  0  0  0  0  0  0  0  0
   -1.5335   -0.1944   -0.0865 N   0  0  0  0  0  0  0  0  0  0  0  0
    1.3199   -0.0809   -0.1540 N   0  0  0  0  0  0  0  0  0  0  0  0
    3.3682   -1.1974   -0.2380 N   0  0  0  0  0  0  0  0  0  0  0  0
    3.2655    1.1601    0.1975 N   0  0  0  0  0  0  0  0  0  0  0  0
    5.3892    0.0463    0.1178 N   0  0  0  0  0  0  0  0  0  0  0  0
    5.4580   -2.2581   -0.3108 N   0  0  0  0  0  0  0  0  0  0  0  0
    5.2574    2.3490    0.5401 N   0  0  0  0  0  0  0  0  0  0  0  0
   -0.7503   -1.3943   -0.4067 C   0  0  0  0  0  0  0  0  0  0  0  0
   -0.8490    0.9996   -0.5971 C   0  0  0  0  0  0  0  0  0  0  0  0
   -2.8792   -0.2949   -0.6503 C   0  0  0  0  0  0  0  0  0  0  0  0
    0.6415   -1.3264    0.2262 C   0  0  0  0  0  0  0  0  0  0  0  0
    0.5402    1.1472    0.0284 C   0  0  0  0  0  0  0  0  0  0  0  0
   -3.7345   -1.3256    0.0718 C   0  0  0  0  0  0  0  0  0  0  0  0
   -3.5736    1.0562   -0.7380 C   0  0  0  0  0  0  0  0  0  0  0  0
    2.7155   -0.0374   -0.0605 C   0  0  0  0  0  0  0  0  0  0  0  0
   -4.7332   -2.0111   -0.6198 C   0  0  0  0  0  0  0  0  0  0  0  0
   -4.3440    1.5153    0.3305 C   0  0  0  0  0  0  0  0  0  0  0  0
   -3.5192   -1.5852    1.4252 C   0  0  0  0  0  0  0  0  0  0  0  0
   -3.4395    1.8358   -1.8868 C   0  0  0  0  0  0  0  0  0  0  0  0
   -5.5167   -2.9563    0.0421 C   0  0  0  0  0  0  0  0  0  0  0  0
   -4.9801    2.7540    0.2500 C   0  0  0  0  0  0  0  0  0  0  0  0
   -4.3028   -2.5305    2.0872 C   0  0  0  0  0  0  0  0  0  0  0  0
   -4.0756    3.0745   -1.9674 C   0  0  0  0  0  0  0  0  0  0  0  0
   -5.3016   -3.2159    1.3957 C   0  0  0  0  0  0  0  0  0  0  0  0
   -4.8459    3.5335   -0.8989 C   0  0  0  0  0  0  0  0  0  0  0  0
    4.7018   -1.0792   -0.1349 C   0  0  0  0  0  0  0  0  0  0  0  0
    4.6057    1.1257    0.2723 C   0  0  0  0  0  0  0  0  0  0  0  0
    4.8619   -3.5280   -0.5859 C   0  0  0  0  0  0  0  0  0  0  0  0
    4.5524    3.5785    0.7267 C   0  0  0  0  0  0  0  0  0  0  0  0
    5.9435   -4.5527   -0.7081 C   0  0  0  0  0  0  0  0  0  0  0  0
    5.5426    4.6682    0.9852 C   0  0  0  0  0  0  0  0  0  0  0  0
    6.1601   -5.2824   -1.8084 C   0  0  0  0  0  0  0  0  0  0  0  0
    5.5659    5.4070    2.1004 C   0  0  0  0  0  0  0  0  0  0  0  0
  1 26  1  0
  2 27  1  0
  3 10  1  0
  3 11  1  0
  3 12  1  0
  4 13  1  0
  4 14  1  0
  4 17  1  0
  5 17  2  0
  5 28  1  0
  6 17  1  0
  6 29  2  0
  7 28  2  0
  7 29  1  0
  8 28  1  0
  8 30  1  0
  9 29  1  0
  9 31  1  0
 10 13  1  0
 11 14  1  0
 12 15  1  0
 12 16  1  0
 15 18  2  0
 15 20  1  0
 16 19  2  0
 16 21  1  0
 18 22  1  0
 19 23  1  0
 20 24  2  0
 21 25  2  0
 22 26  2  0
 23 27  2  0
 24 26  1  0
 25 27  1  0
 30 32  1  0
 31 33  1  0
 32 34  2  0
 33 35  2  0
M  END
>  <PUBCHEM_COMPOUND_CID>  (1) 
33887

>  <PUBCHEM_CONFORMER_RMSD>  (1) 
1.2

>  <PUBCHEM_CONFORMER_DIVERSEORDER>  (1) 
1
5
3
2
8
4
6
7

>  <PUBCHEM_MMFF94_PARTIAL_CHARGES>  (1) 
51
1 -0.19
10 0.27
11 0.27
12 0.56
13 0.37
14 0.37
15 -0.14
16 -0.14
17 0.72
18 -0.15
19 -0.15
2 -0.19
20 -0.15
21 -0.15
22 -0.15
23 -0.15
24 -0.15
25 -0.15
26 0.19
27 0.19
28 0.72
29 0.72
3 -0.81
30 0.51
31 0.51
32 -0.29
33 -0.29
34 -0.3
35 -0.3
4 -0.84
45 0.15
46 0.15
47 0.15
48 0.15
49 0.15
5 -0.62
50 0.15
51 0.15
52 0.15
53 0.4
54 0.4
59 0.15
6 -0.62
60 0.15
61 0.15
62 0.15
63 0.15
64 0.15
7 -0.62
8 -0.87
9 -0.87

>  <PUBCHEM_EFFECTIVE_ROTOR_COUNT>  (1) 
11.2

>  <PUBCHEM_PHARMACOPHORE_FEATURES>  (1) 
12
1 3 cation
1 34 hydrophobe
1 35 hydrophobe
1 8 donor
1 9 donor
4 4 5 6 17 cation
4 5 7 8 28 cation
4 6 7 9 29 cation
6 15 18 20 22 24 26 rings
6 16 19 21 23 25 27 rings
6 3 4 10 11 13 14 rings
6 5 6 7 17 28 29 rings

>  <PUBCHEM_HEAVY_ATOM_COUNT>  (1) 
35

>  <PUBCHEM_ATOM_DEF_STEREO_COUNT>  (1) 
0

>  <PUBCHEM_ATOM_UDEF_STEREO_COUNT>  (1) 
0

>  <PUBCHEM_BOND_DEF_STEREO_COUNT>  (1) 
0

>  <PUBCHEM_BOND_UDEF_STEREO_COUNT>  (1) 
0

>  <PUBCHEM_ISOTOPIC_ATOM_COUNT>  (1) 
0

>  <PUBCHEM_COMPONENT_COUNT>  (1) 
1

>  <PUBCHEM_CACTVS_TAUTO_COUNT>  (1) 
5

>  <PUBCHEM_CONFORMER_ID>  (1) 
0000845F00000001

>  <PUBCHEM_MMFF94_ENERGY>  (1) 
108.4641

>  <PUBCHEM_FEATURE_SELFOVERLAP>  (1) 
61.029

>  <PUBCHEM_SHAPE_FINGERPRINT>  (1) 
10050765 1 18410852144476842863
10119406 146 17981049613554027911
10290309 65 18269834371409933752
11297010 23 17910097028917793189
12643181 29 18120092784629921190
12758862 56 18121778327576104234
13540713 4 18407755941202483524
13782708 43 18409454673941699422
14068700 686 18335420230915560850
15230672 131 17753896004160501098
17844677 252 18412548734063229556
18393751 57 17835239326292506728
21133410 52 16902147682579347214
23559900 14 18268703931701436854
2747138 104 17971760122956497449
283562 15 18114736136278722187
32027 91 18268989774723671790
3418910 222 17679027242305386148
4073 2 18261111851003439474
4144715 1 18335144167545006040
5104073 3 18334286587420470176
513202 73 18335991913155615203
57307002 103 18341897381475358210
6695519 79 17912935173503467338
6697151 62 18124855890776249238
6698420 124 18124318199504844977

>  <PUBCHEM_SHAPE_MULTIPOLES>  (1) 
670.87
19.08
7.93
1.59
10.87
1.87
0.27
-3.34
1.65
9.46
0.71
-1.45
-0.01
10.46

>  <PUBCHEM_SHAPE_SELFOVERLAP>  (1) 
1428.287

>  <PUBCHEM_SHAPE_VOLUME>  (1) 
371.1

>  <PUBCHEM_COORDINATE_TYPE>  (1) 
2
5
10

$$$$
