33895
     RDKit          3D

 15 15  0  0  0  0  0  0  0  0999 V2000
    3.0809    0.7493   -1.4653 Cl  0  0  0  0  0  0  0  0  0  0  0  0
    1.8860    2.9218    0.0040 Cl  0  0  0  0  0  0  0  0  0  0  0  0
    3.0794    0.7357    1.4613 Cl  0  0  0  0  0  0  0  0  0  0  0  0
   -2.6683    0.9138    0.0037 N   0  0  0  0  0  0  0  0  0  0  0  0
   -0.3261    1.0295    0.0000 N   0  0  0  0  0  0  0  0  0  0  0  0
   -1.4504   -1.0903    0.0008 N   0  0  0  0  0  0  0  0  0  0  0  0
    0.9476   -1.0041   -0.0014 N   0  0  0  0  0  0  0  0  0  0  0  0
   -0.1788   -3.0609    0.0012 N   0  0  0  0  0  0  0  0  0  0  0  0
   -1.4360    0.2601    0.0007 C   0  0  0  0  0  0  0  0  0  0  0  0
    0.8218    0.3329   -0.0011 C   0  0  0  0  0  0  0  0  0  0  0  0
   -0.2298   -1.6498   -0.0005 C   0  0  0  0  0  0  0  0  0  0  0  0
   -2.7447    2.3691    0.0058 C   0  0  0  0  0  0  0  0  0  0  0  0
   -3.9160    0.1608   -0.0094 C   0  0  0  0  0  0  0  0  0  0  0  0
    2.0852    1.1243   -0.0002 C   0  0  0  0  0  0  0  0  0  0  0  0
    1.0492   -3.7922    0.0004 C   0  0  0  0  0  0  0  0  0  0  0  0
  1 14  1  0
  2 14  1  0
  3 14  1  0
  4  9  1  0
  4 12  1  0
  4 13  1  0
  5  9  2  0
  5 10  1  0
  6  9  1  0
  6 11  2  0
  7 10  2  0
  7 11  1  0
  8 11  1  0
  8 15  1  0
 10 14  1  0
M  END
>  <PUBCHEM_COMPOUND_CID>  (1) 
33895

>  <PUBCHEM_CONFORMER_RMSD>  (1) 
0.6

>  <PUBCHEM_CONFORMER_DIVERSEORDER>  (1) 
1
6
8
3
4
7
2
5

>  <PUBCHEM_MMFF94_PARTIAL_CHARGES>  (1) 
16
1 -0.29
10 0.48
11 0.72
12 0.37
13 0.37
14 1.01
15 0.37
2 -0.29
22 0.4
3 -0.29
4 -0.84
5 -0.62
6 -0.62
7 -0.62
8 -0.87
9 0.72

>  <PUBCHEM_EFFECTIVE_ROTOR_COUNT>  (1) 
3

>  <PUBCHEM_PHARMACOPHORE_FEATURES>  (1) 
4
1 8 donor
4 4 5 6 9 cation
4 6 7 8 11 cation
6 5 6 7 9 10 11 rings

>  <PUBCHEM_HEAVY_ATOM_COUNT>  (1) 
15

>  <PUBCHEM_ATOM_DEF_STEREO_COUNT>  (1) 
0

>  <PUBCHEM_ATOM_UDEF_STEREO_COUNT>  (1) 
0

>  <PUBCHEM_BOND_DEF_STEREO_COUNT>  (1) 
0

>  <PUBCHEM_BOND_UDEF_STEREO_COUNT>  (1) 
0

>  <PUBCHEM_ISOTOPIC_ATOM_COUNT>  (1) 
0

>  <PUBCHEM_COMPONENT_COUNT>  (1) 
1

>  <PUBCHEM_CACTVS_TAUTO_COUNT>  (1) 
4

>  <PUBCHEM_CONFORMER_ID>  (1) 
0000846700000001

>  <PUBCHEM_MMFF94_ENERGY>  (1) 
45.5059

>  <PUBCHEM_FEATURE_SELFOVERLAP>  (1) 
20.34

>  <PUBCHEM_SHAPE_FINGERPRINT>  (1) 
1 1 18410855425831831111
10967382 1 18266459815025061923
13380535 76 18335415773003492115
13538477 17 18044085989479044512
14648413 74 18048600326746227201
15775835 57 18113899424476909268
16945 1 18338517559392158944
18186145 218 18131077025759862969
20510252 161 18126573555023404377
20645476 183 18042133218194403998
20645477 70 18263074415309211991
20671657 1 18198060283488393879
20711985 344 17904490953945573598
21501502 16 18194968431459192357
21524375 3 18260265261035107513
2334 1 17906452478288829641
23402539 116 17911782876237395647
23419403 2 16598502840658531178
23526113 38 18057914409930199942
23526114 1 18122910824066766871
23557571 272 17694233570153896700
23598294 1 17975131255656185946
2748010 2 18410020960967989583
305870 269 18339913810278832240
3060560 45 18408886239103375885
3071541 12 18122910828187582741
3071541 158 17614003988706201599
3071541 236 18121203535711648971
3071541 250 17836097675285170191
3071541 37 18335708182929885239
352729 6 18265895937559379155
43471831 8 18409727352914415571
458136 41 18265639626874988777
633830 44 18202006551291238149
7364860 26 18125152745424185091
74978 22 18265614475720868916
81228 2 17765717210241930139
88987 49 18194400228671188260

>  <PUBCHEM_SHAPE_MULTIPOLES>  (1) 
289.4
5.1
3.78
0.93
2.06
3.55
0
-3.49
-0.01
-0.37
0
-1.04
-0.19
-0.01

>  <PUBCHEM_SHAPE_SELFOVERLAP>  (1) 
555.361

>  <PUBCHEM_SHAPE_VOLUME>  (1) 
175.7

>  <PUBCHEM_COORDINATE_TYPE>  (1) 
2
5
10

$$$$
