33891
     RDKit          3D

 13 13  0  0  0  0  0  0  0  0999 V2000
   -1.9241    1.5122   -0.0026 N   0  0  0  0  0  0  0  0  0  0  0  0
    2.3836   -0.3424   -0.0100 N   0  0  0  0  0  0  0  0  0  0  0  0
    0.2422    0.6140   -0.0047 N   0  0  0  0  0  0  0  0  0  0  0  0
   -1.6815   -0.8202    0.0029 N   0  0  0  0  0  0  0  0  0  0  0  0
    0.5225   -1.7691   -0.0007 N   0  0  0  0  0  0  0  0  0  0  0  0
   -1.0902    0.3940   -0.0008 C   0  0  0  0  0  0  0  0  0  0  0  0
    0.9812   -0.5071   -0.0043 C   0  0  0  0  0  0  0  0  0  0  0  0
    3.0133    0.9408   -0.0141 C   0  0  0  0  0  0  0  0  0  0  0  0
   -0.8180   -1.8485    0.0027 C   0  0  0  0  0  0  0  0  0  0  0  0
   -3.3740    1.3659   -0.0006 C   0  0  0  0  0  0  0  0  0  0  0  0
   -1.3701    2.8601    0.0075 C   0  0  0  0  0  0  0  0  0  0  0  0
    4.5227    0.8181    0.0196 C   0  0  0  0  0  0  0  0  0  0  0  0
   -1.4076   -3.2178    0.0049 C   0  0  0  0  0  0  0  0  0  0  0  0
  1  6  1  0
  1 10  1  0
  1 11  1  0
  2  7  1  0
  2  8  1  0
  3  6  2  0
  3  7  1  0
  4  6  1  0
  4  9  2  0
  5  7  2  0
  5  9  1  0
  8 12  1  0
  9 13  1  0
M  END
>  <PUBCHEM_COMPOUND_CID>  (1) 
33891

>  <PUBCHEM_CONFORMER_RMSD>  (1) 
0.6

>  <PUBCHEM_CONFORMER_DIVERSEORDER>  (1) 
1
3
10
4
9
6
8
5
7
2

>  <PUBCHEM_MMFF94_PARTIAL_CHARGES>  (1) 
13
1 -0.84
10 0.37
11 0.37
13 0.14
16 0.4
2 -0.87
3 -0.62
4 -0.62
5 -0.62
6 0.72
7 0.72
8 0.37
9 0.48

>  <PUBCHEM_EFFECTIVE_ROTOR_COUNT>  (1) 
3

>  <PUBCHEM_PHARMACOPHORE_FEATURES>  (1) 
4
1 2 donor
4 1 3 4 6 cation
4 2 3 5 7 cation
6 3 4 5 6 7 9 rings

>  <PUBCHEM_HEAVY_ATOM_COUNT>  (1) 
13

>  <PUBCHEM_ATOM_DEF_STEREO_COUNT>  (1) 
0

>  <PUBCHEM_ATOM_UDEF_STEREO_COUNT>  (1) 
0

>  <PUBCHEM_BOND_DEF_STEREO_COUNT>  (1) 
0

>  <PUBCHEM_BOND_UDEF_STEREO_COUNT>  (1) 
0

>  <PUBCHEM_ISOTOPIC_ATOM_COUNT>  (1) 
0

>  <PUBCHEM_COMPONENT_COUNT>  (1) 
1

>  <PUBCHEM_CACTVS_TAUTO_COUNT>  (1) 
4

>  <PUBCHEM_CONFORMER_ID>  (1) 
0000846300000001

>  <PUBCHEM_MMFF94_ENERGY>  (1) 
39.5554

>  <PUBCHEM_FEATURE_SELFOVERLAP>  (1) 
20.34

>  <PUBCHEM_SHAPE_FINGERPRINT>  (1) 
1 1 17977948986183434135
13380535 76 18341328907692996702
14648413 74 17400362248327224529
14897335 6 18410288082395793718
15042514 8 18336550511573416698
16945 1 18338517542233583670
17990270 104 17329145772273718283
193761 8 17834396001100758149
20510252 161 18342461447445095440
20645477 56 18411421717818662056
20871998 184 18128543849690359670
21499 59 18265042549169735269
21524375 3 18270674247447336398
2306618 200 18201167649598865194
23402539 116 18270672186142869479
23552423 10 17691685589458399349
23557571 272 18200045074102288884
23559900 14 18272652347288336280
23598294 1 18335410326795057186
2748010 2 18265066742625496407
3071541 12 17691689987051086892
3071541 250 17544201935409237422
6333449 129 18411698815653777996
68521 5 18193839468665888751
7364860 26 17691405209397571399
81228 2 18267031732902177323

>  <PUBCHEM_SHAPE_MULTIPOLES>  (1) 
242.63
5.43
3.19
0.58
6.63
1.08
0
-2.9
-0.02
-2.93
-0.01
0
-0.01
0

>  <PUBCHEM_SHAPE_SELFOVERLAP>  (1) 
481.151

>  <PUBCHEM_SHAPE_VOLUME>  (1) 
138.3

>  <PUBCHEM_COORDINATE_TYPE>  (1) 
2
5
10

$$$$
