33894
     RDKit          3D

 17 17  0  0  0  0  0  0  0  0999 V2000
    1.1621    3.0772   -1.4219 Cl  0  0  0  0  0  0  0  0  0  0  0  0
   -1.2592    3.3070    0.1243 Cl  0  0  0  0  0  0  0  0  0  0  0  0
    1.2618    3.0385    1.5028 Cl  0  0  0  0  0  0  0  0  0  0  0  0
   -2.1828   -1.5838    0.1025 N   0  0  0  0  0  0  0  0  0  0  0  0
    2.5005   -1.7814   -0.0448 N   0  0  0  0  0  0  0  0  0  0  0  0
    0.1574   -1.7142    0.0268 N   0  0  0  0  0  0  0  0  0  0  0  0
   -0.9526    0.4125    0.0815 N   0  0  0  0  0  0  0  0  0  0  0  0
    1.4436    0.3113    0.0061 N   0  0  0  0  0  0  0  0  0  0  0  0
   -3.4497   -0.8865    0.1522 C   0  0  0  0  0  0  0  0  0  0  0  0
   -4.5185   -1.8255    0.6952 C   0  0  0  0  0  0  0  0  0  0  0  0
   -3.8084   -0.3833   -1.2401 C   0  0  0  0  0  0  0  0  0  0  0  0
   -0.9566   -0.9430    0.0687 C   0  0  0  0  0  0  0  0  0  0  0  0
    1.3091   -1.0246   -0.0025 C   0  0  0  0  0  0  0  0  0  0  0  0
    3.7982   -1.1830   -0.0774 C   0  0  0  0  0  0  0  0  0  0  0  0
    0.2710    0.9644    0.0487 C   0  0  0  0  0  0  0  0  0  0  0  0
    4.8898   -2.2395   -0.0847 C   0  0  0  0  0  0  0  0  0  0  0  0
    0.3343    2.4538    0.0627 C   0  0  0  0  0  0  0  0  0  0  0  0
  1 17  1  0
  2 17  1  0
  3 17  1  0
  4  9  1  0
  4 12  1  0
  5 13  1  0
  5 14  1  0
  6 12  2  0
  6 13  1  0
  7 12  1  0
  7 15  2  0
  8 13  2  0
  8 15  1  0
  9 10  1  0
  9 11  1  0
 14 16  1  0
 15 17  1  0
M  END
>  <PUBCHEM_COMPOUND_CID>  (1) 
33894

>  <PUBCHEM_CONFORMER_RMSD>  (1) 
0.6

>  <PUBCHEM_CONFORMER_DIVERSEORDER>  (1) 
1
59
83
30
50
61
80
56
84
85
29
34
45
53
75
38
82
40
27
20
78
66
47
26
49
24
69
62
76
33
74
64
36
67
54
81
17
79
46
13
63
60
32
28
73
22
87
18
37
68
77
23
51
86
65
16
9
70
57
55
3
4
41
35
6
48
42
58
10
71
31
72
14
25
43
44
52
21
39
15
19
7
12
2
8
5
11

>  <PUBCHEM_MMFF94_PARTIAL_CHARGES>  (1) 
16
1 -0.29
12 0.72
13 0.72
14 0.37
15 0.48
17 1.01
19 0.4
2 -0.29
28 0.4
3 -0.29
4 -0.87
5 -0.87
6 -0.62
7 -0.62
8 -0.62
9 0.37

>  <PUBCHEM_EFFECTIVE_ROTOR_COUNT>  (1) 
5

>  <PUBCHEM_PHARMACOPHORE_FEATURES>  (1) 
6
1 4 donor
1 5 donor
3 9 10 11 hydrophobe
4 4 6 7 12 cation
4 5 6 8 13 cation
6 6 7 8 12 13 15 rings

>  <PUBCHEM_HEAVY_ATOM_COUNT>  (1) 
17

>  <PUBCHEM_ATOM_DEF_STEREO_COUNT>  (1) 
0

>  <PUBCHEM_ATOM_UDEF_STEREO_COUNT>  (1) 
0

>  <PUBCHEM_BOND_DEF_STEREO_COUNT>  (1) 
0

>  <PUBCHEM_BOND_UDEF_STEREO_COUNT>  (1) 
0

>  <PUBCHEM_ISOTOPIC_ATOM_COUNT>  (1) 
0

>  <PUBCHEM_COMPONENT_COUNT>  (1) 
1

>  <PUBCHEM_CACTVS_TAUTO_COUNT>  (1) 
9

>  <PUBCHEM_CONFORMER_ID>  (1) 
0000846600000001

>  <PUBCHEM_MMFF94_ENERGY>  (1) 
36.5214

>  <PUBCHEM_FEATURE_SELFOVERLAP>  (1) 
30.489

>  <PUBCHEM_SHAPE_FINGERPRINT>  (1) 
1100329 8 18268433425692184857
11680986 33 18194401319039104203
12032990 46 18410013225674133482
13052359 8 17975974259026190377
13134695 92 18200866370259186725
13140716 1 18268995297661068776
13294875 104 17698728334738068920
14508225 48 18337103454748540612
15042514 8 18049446941766892698
17357779 13 18268692961795891469
1813 80 18201455656799287951
18186145 218 17696765728447798841
18785283 64 17899984025317388065
20097449 115 18410294700697836259
20510252 161 18268990882830333818
20600515 1 18339656563460824510
20671657 1 18126008406189171419
20671657 53 18411706495145142927
21029758 11 18412820274590816842
21029758 27 18410016528530143590
21041028 32 18411990156666226777
21160774 45 17831295004157996333
21296965 67 18410575071910318690
21524375 3 17398097739620524553
221490 88 18118691160628280539
22182313 1 18264464300326683532
2297311 6 18271537382052153710
23175994 123 18335704927323946119
23402539 116 18339357444716400326
23419403 2 18194373719895894804
23526113 38 17823143474125833523
23557571 272 18055920892375633670
23559900 14 18115020935217306251
25 1 17976264861035219509
2748010 2 18266156422809413724
3071541 12 18195249042493303329
3071541 158 18334292101852126517
3071541 250 18337962275976408214
3091708 16 8923002524315313944
352729 6 17619905059049245510
458136 41 17758694616880241809
54173680 148 18122346774396067299
6049 1 18041837432808838055
68521 5 18338237042420132166
7364860 26 18197779010142933762
81228 2 18122641456597699250
9925002 15 18044962089872658628

>  <PUBCHEM_SHAPE_MULTIPOLES>  (1) 
330.56
7.05
4.24
1.02
0.69
4.05
0.06
-8.39
0.22
-1.93
-0.25
0.14
0.79
0.41

>  <PUBCHEM_SHAPE_SELFOVERLAP>  (1) 
631.38

>  <PUBCHEM_SHAPE_VOLUME>  (1) 
200.4

>  <PUBCHEM_COORDINATE_TYPE>  (1) 
2
5
10

$$$$
