33914
     RDKit          3D

 10 10  0  0  0  0  0  0  0  0999 V2000
    1.1904   -2.9152    0.0004 Br  0  0  0  0  0  0  0  0  0  0  0  0
    1.1892    2.9156    0.0004 Br  0  0  0  0  0  0  0  0  0  0  0  0
    2.9597    0.0005    0.0004 Br  0  0  0  0  0  0  0  0  0  0  0  0
   -1.7453   -0.0002   -0.0002 C   0  0  0  0  0  0  0  0  0  0  0  0
   -1.0482    1.2079   -0.0002 C   0  0  0  0  0  0  0  0  0  0  0  0
   -1.0476   -1.2082   -0.0002 C   0  0  0  0  0  0  0  0  0  0  0  0
    0.3473   -1.2080   -0.0003 C   0  0  0  0  0  0  0  0  0  0  0  0
    0.3467    1.2081   -0.0004 C   0  0  0  0  0  0  0  0  0  0  0  0
   -3.2367   -0.0007    0.0006 C   0  0  0  0  0  0  0  0  0  0  0  0
    1.0445    0.0002   -0.0004 C   0  0  0  0  0  0  0  0  0  0  0  0
  1  7  1  0
  2  8  1  0
  3 10  1  0
  4  5  2  0
  4  6  1  0
  4  9  1  0
  5  8  1  0
  6  7  2  0
  7 10  1  0
  8 10  2  0
M  END
>  <PUBCHEM_COMPOUND_CID>  (1) 
33914

>  <PUBCHEM_CONFORMER_RMSD>  (1) 
0.4

>  <PUBCHEM_CONFORMER_DIVERSEORDER>  (1) 
1

>  <PUBCHEM_MMFF94_PARTIAL_CHARGES>  (1) 
12
1 -0.11
10 0.11
11 0.15
12 0.15
2 -0.11
3 -0.11
4 -0.14
5 -0.15
6 -0.15
7 0.11
8 0.11
9 0.14

>  <PUBCHEM_EFFECTIVE_ROTOR_COUNT>  (1) 
0

>  <PUBCHEM_PHARMACOPHORE_FEATURES>  (1) 
4
1 1 hydrophobe
1 2 hydrophobe
1 3 hydrophobe
6 4 5 6 7 8 10 rings

>  <PUBCHEM_HEAVY_ATOM_COUNT>  (1) 
10

>  <PUBCHEM_ATOM_DEF_STEREO_COUNT>  (1) 
0

>  <PUBCHEM_ATOM_UDEF_STEREO_COUNT>  (1) 
0

>  <PUBCHEM_BOND_DEF_STEREO_COUNT>  (1) 
0

>  <PUBCHEM_BOND_UDEF_STEREO_COUNT>  (1) 
0

>  <PUBCHEM_ISOTOPIC_ATOM_COUNT>  (1) 
0

>  <PUBCHEM_COMPONENT_COUNT>  (1) 
1

>  <PUBCHEM_CACTVS_TAUTO_COUNT>  (1) 
1

>  <PUBCHEM_CONFORMER_ID>  (1) 
0000847A00000001

>  <PUBCHEM_MMFF94_ENERGY>  (1) 
24.1964

>  <PUBCHEM_FEATURE_SELFOVERLAP>  (1) 
20.297

>  <PUBCHEM_SHAPE_FINGERPRINT>  (1) 
1 1 18338233872665514183
12423570 1 10587191459649261983
13380535 76 17836358620423492908
13380536 305 18338805631459904244
161256 15 18125162632549774246
16945 1 18410855464602470661
193761 8 17762338007403842988
20511035 2 17898581031358349582
20588541 1 18334581226255430707
20645476 183 17751940235467865494
20871998 184 16469817541536783748
21040471 1 17906172106918390405
21501502 16 17907299853798177482
2334 1 17978228592875543175
23526114 1 18193836165899244205
23552423 10 18339356499744045047
241688 4 17906173953701268737
2748010 2 18048319130530804095
5084963 1 18059012903202404897

>  <PUBCHEM_SHAPE_MULTIPOLES>  (1) 
223.62
3.58
3.21
0.66
1.28
0
0
0
0
-1.91
0
-0.07
0
0

>  <PUBCHEM_SHAPE_SELFOVERLAP>  (1) 
419.273

>  <PUBCHEM_SHAPE_VOLUME>  (1) 
141.4

>  <PUBCHEM_COORDINATE_TYPE>  (1) 
2
5
10

$$$$
