33916
     RDKit          3D

 10 10  0  0  0  0  0  0  0  0999 V2000
    1.3139   -2.8810    0.0000 Br  0  0  0  0  0  0  0  0  0  0  0  0
    1.3147    2.8808    0.0000 Br  0  0  0  0  0  0  0  0  0  0  0  0
   -3.5647    0.0004    0.0002 Br  0  0  0  0  0  0  0  0  0  0  0  0
    1.1154   -0.0002    0.0000 C   0  0  0  0  0  0  0  0  0  0  0  0
    0.4177   -1.2081    0.0000 C   0  0  0  0  0  0  0  0  0  0  0  0
    0.4180    1.2080    0.0000 C   0  0  0  0  0  0  0  0  0  0  0  0
    2.6137   -0.0003    0.0001 C   0  0  0  0  0  0  0  0  0  0  0  0
   -0.9773   -1.2078   -0.0001 C   0  0  0  0  0  0  0  0  0  0  0  0
   -0.9769    1.2080   -0.0001 C   0  0  0  0  0  0  0  0  0  0  0  0
   -1.6746    0.0002   -0.0001 C   0  0  0  0  0  0  0  0  0  0  0  0
  1  5  1  0
  2  6  1  0
  3 10  1  0
  4  5  2  0
  4  6  1  0
  4  7  1  0
  5  8  1  0
  6  9  2  0
  8 10  2  0
  9 10  1  0
M  END
>  <PUBCHEM_COMPOUND_CID>  (1) 
33916

>  <PUBCHEM_CONFORMER_RMSD>  (1) 
0.4

>  <PUBCHEM_CONFORMER_DIVERSEORDER>  (1) 
1

>  <PUBCHEM_MMFF94_PARTIAL_CHARGES>  (1) 
12
1 -0.11
10 0.11
14 0.15
15 0.15
2 -0.11
3 -0.11
4 -0.14
5 0.11
6 0.11
7 0.14
8 -0.15
9 -0.15

>  <PUBCHEM_EFFECTIVE_ROTOR_COUNT>  (1) 
0

>  <PUBCHEM_PHARMACOPHORE_FEATURES>  (1) 
4
1 1 hydrophobe
1 2 hydrophobe
1 3 hydrophobe
6 4 5 6 8 9 10 rings

>  <PUBCHEM_HEAVY_ATOM_COUNT>  (1) 
10

>  <PUBCHEM_ATOM_DEF_STEREO_COUNT>  (1) 
0

>  <PUBCHEM_ATOM_UDEF_STEREO_COUNT>  (1) 
0

>  <PUBCHEM_BOND_DEF_STEREO_COUNT>  (1) 
0

>  <PUBCHEM_BOND_UDEF_STEREO_COUNT>  (1) 
0

>  <PUBCHEM_ISOTOPIC_ATOM_COUNT>  (1) 
0

>  <PUBCHEM_COMPONENT_COUNT>  (1) 
1

>  <PUBCHEM_CACTVS_TAUTO_COUNT>  (1) 
1

>  <PUBCHEM_CONFORMER_ID>  (1) 
0000847C00000001

>  <PUBCHEM_MMFF94_ENERGY>  (1) 
25.533

>  <PUBCHEM_FEATURE_SELFOVERLAP>  (1) 
20.297

>  <PUBCHEM_SHAPE_FINGERPRINT>  (1) 
1 1 18338233872681331943
12423570 1 11542116019998417856
13380535 76 17980475990290007100
13380536 305 18338805627128013716
161256 15 18196655086153474134
16945 1 18410575084868794245
193761 8 17762056536716824868
20511035 2 17898861406823458466
20588541 1 18334581226244894195
20645477 70 18337101359211006503
20871998 184 17408229279519615047
20871998 22 17981891847818729855
21040471 1 17906452482304352005
2334 1 17978229692424094211
23526114 1 18194119844267965749
23552423 10 18340201985773789735
23559900 14 17766014062094007388
241688 4 17906173953659070713
2748010 2 18048321329564615647
5084963 1 18131070488676791505
81228 2 17401483745660103411

>  <PUBCHEM_SHAPE_MULTIPOLES>  (1) 
223.62
3.78
3.16
0.66
3.45
0
0
0
0
-2.49
0
0.01
0
0

>  <PUBCHEM_SHAPE_SELFOVERLAP>  (1) 
420.206

>  <PUBCHEM_SHAPE_VOLUME>  (1) 
141.6

>  <PUBCHEM_COORDINATE_TYPE>  (1) 
2
5
10

$$$$
