33920
     RDKit          3D

 27 28  0  0  0  0  0  0  0  0999 V2000
    2.1773   -1.7078   -1.0990 O   0  0  0  0  0  0  0  0  0  0  0  0
   -1.8085    0.0406   -2.2746 O   0  0  0  0  0  0  0  0  0  0  0  0
    0.6064    2.0092    1.1840 O   0  0  0  0  0  0  0  0  0  0  0  0
    3.5482    0.9887    0.1240 O   0  0  0  0  0  0  0  0  0  0  0  0
   -2.5190    2.1422    0.2935 O   0  0  0  0  0  0  0  0  0  0  0  0
    5.1608    0.8307    1.7708 O   0  0  0  0  0  0  0  0  0  0  0  0
   -3.3197    4.2204   -0.3208 O   0  0  0  0  0  0  0  0  0  0  0  0
    1.3961    0.0612    0.1963 N   0  0  0  0  0  0  0  0  0  0  0  0
   -0.6132    1.0789   -0.5660 N   0  0  0  0  0  0  0  0  0  0  0  0
   -0.2155   -1.3061   -1.0477 C   0  0  0  0  0  0  0  0  0  0  0  0
   -0.2509   -2.2160   -2.2977 C   0  0  0  0  0  0  0  0  0  0  0  0
    1.2455   -1.0183   -0.6835 C   0  0  0  0  0  0  0  0  0  0  0  0
   -0.9488   -0.0065   -1.3926 C   0  0  0  0  0  0  0  0  0  0  0  0
   -0.9024   -2.0734    0.1041 C   0  0  0  0  0  0  0  0  0  0  0  0
    0.4647    1.1114    0.3475 C   0  0  0  0  0  0  0  0  0  0  0  0
    0.4338   -1.5527   -3.4727 C   0  0  0  0  0  0  0  0  0  0  0  0
   -0.1377   -2.8629    0.9527 C   0  0  0  0  0  0  0  0  0  0  0  0
   -2.2759   -1.9642    0.2760 C   0  0  0  0  0  0  0  0  0  0  0  0
    2.6605    0.1910    0.9110 C   0  0  0  0  0  0  0  0  0  0  0  0
   -1.4571    2.2662   -0.6554 C   0  0  0  0  0  0  0  0  0  0  0  0
   -0.7581   -3.5558    1.9923 C   0  0  0  0  0  0  0  0  0  0  0  0
   -2.8961   -2.6570    1.3156 C   0  0  0  0  0  0  0  0  0  0  0  0
   -2.1374   -3.4527    2.1737 C   0  0  0  0  0  0  0  0  0  0  0  0
    4.7689    1.2287    0.6820 C   0  0  0  0  0  0  0  0  0  0  0  0
   -3.3777    3.1998    0.3518 C   0  0  0  0  0  0  0  0  0  0  0  0
    5.5877    2.0718   -0.2480 C   0  0  0  0  0  0  0  0  0  0  0  0
   -4.4320    2.9326    1.3828 C   0  0  0  0  0  0  0  0  0  0  0  0
  1 12  2  0
  2 13  2  0
  3 15  2  0
  4 19  1  0
  4 24  1  0
  5 20  1  0
  5 25  1  0
  6 24  2  0
  7 25  2  0
  8 12  1  0
  8 15  1  0
  8 19  1  0
  9 13  1  0
  9 15  1  0
  9 20  1  0
 10 11  1  0
 10 12  1  0
 10 13  1  0
 10 14  1  0
 11 16  1  0
 14 17  2  0
 14 18  1  0
 17 21  1  0
 18 22  2  0
 21 23  2  0
 22 23  1  0
 24 26  1  0
 25 27  1  0
M  END
>  <PUBCHEM_COMPOUND_CID>  (1) 
33920

>  <PUBCHEM_CONFORMER_RMSD>  (1) 
1

>  <PUBCHEM_CONFORMER_DIVERSEORDER>  (1) 
1
15
11
44
29
58
30
43
53
17
37
13
47
51
41
49
54
42
38
10
6
36
27
40
28
24
18
7
35
39
31
48
45
32
57
34
55
22
12
33
20
46
8
21
50
52
14
16
56
26
23
2
19
4
25
5
9
3

>  <PUBCHEM_MMFF94_PARTIAL_CHARGES>  (1) 
30
1 -0.57
10 0.27
12 0.57
13 0.57
14 -0.14
15 0.69
17 -0.15
18 -0.15
19 0.58
2 -0.57
20 0.58
21 -0.15
22 -0.15
23 -0.15
24 0.66
25 0.66
26 0.06
27 0.06
3 -0.57
33 0.15
34 0.15
39 0.15
4 -0.43
40 0.15
41 0.15
5 -0.43
6 -0.57
7 -0.57
8 -0.42
9 -0.42

>  <PUBCHEM_EFFECTIVE_ROTOR_COUNT>  (1) 
8.6

>  <PUBCHEM_PHARMACOPHORE_FEATURES>  (1) 
8
1 1 acceptor
1 16 hydrophobe
1 2 acceptor
1 3 acceptor
1 6 acceptor
1 7 acceptor
6 14 17 18 21 22 23 rings
6 8 9 10 12 13 15 rings

>  <PUBCHEM_HEAVY_ATOM_COUNT>  (1) 
27

>  <PUBCHEM_ATOM_DEF_STEREO_COUNT>  (1) 
0

>  <PUBCHEM_ATOM_UDEF_STEREO_COUNT>  (1) 
0

>  <PUBCHEM_BOND_DEF_STEREO_COUNT>  (1) 
0

>  <PUBCHEM_BOND_UDEF_STEREO_COUNT>  (1) 
0

>  <PUBCHEM_ISOTOPIC_ATOM_COUNT>  (1) 
0

>  <PUBCHEM_COMPONENT_COUNT>  (1) 
1

>  <PUBCHEM_CACTVS_TAUTO_COUNT>  (1) 
1

>  <PUBCHEM_CONFORMER_ID>  (1) 
0000848000000001

>  <PUBCHEM_MMFF94_ENERGY>  (1) 
64.5432

>  <PUBCHEM_FEATURE_SELFOVERLAP>  (1) 
40.599

>  <PUBCHEM_SHAPE_FINGERPRINT>  (1) 
10074138 170 18262499486017302344
107951 10 18337958887558487046
1100329 8 17903632982446244218
11443803 9 17772155696968052097
11578080 2 17626433065746757780
12156800 1 18047790183754753756
12160290 23 18051096411093592744
12293681 4 18264768951326803043
12597179 24 18342182115752199369
12633257 1 17832442146989175971
12714826 92 16592492072625013818
12788726 201 18265033886035836155
13135754 10 18263093269598333194
13140716 1 17903920302756880210
13149001 5 17694819270390608846
133893 2 17400880178296227933
14713325 29 18337394949820973544
14787075 74 18271801281711394137
14817 1 15111035234975897079
14955137 171 16751005528374881400
15338160 23 18264496250910457168
15878777 1 8317547267956299087
16114785 44 17986937747328163864
16945 1 17910973644069262015
17980427 23 17480881035502852587
17980427 26 17832130637717205061
20600515 1 17824268322124910887
21041028 32 17976262661806254976
21421861 104 16464197289389113969
22182313 1 17987818374848779396
23419403 2 17269804235831458135
23558518 356 18409445860525552007
23559900 14 17489012826682091560
23598288 3 18340764961855723924
25222932 49 14886862114522517040
3052486 1 17970659370779543827
3411729 13 17912363126562269361
3552219 110 17098636866114937172
3759504 43 18409164385702302656
376196 1 18057033614837781396
394222 165 17910382892902920601
4058900 60 18050297968157464392
497634 4 17532366647115481820
5104073 3 18262780979139194472
59755656 520 18187644666205933424
9981440 41 18129921439513707242
9999458 23 17903922153919420380

>  <PUBCHEM_SHAPE_MULTIPOLES>  (1) 
504.6
7.33
5.13
2.39
11.66
2.2
-1.71
6.95
4.26
-7.35
2.04
-0.32
-2.04
1.25

>  <PUBCHEM_SHAPE_SELFOVERLAP>  (1) 
1063.168

>  <PUBCHEM_SHAPE_VOLUME>  (1) 
280.2

>  <PUBCHEM_COORDINATE_TYPE>  (1) 
2
5
10

$$$$
