33929
     RDKit          3D

 16 18  0  0  0  0  0  0  0  0999 V2000
    0.9440    0.3695   -0.0001 C   0  0  0  0  0  0  0  0  0  0  0  0
   -0.2298    1.1415    0.0000 C   0  0  0  0  0  0  0  0  0  0  0  0
   -1.5001    0.5417    0.0001 C   0  0  0  0  0  0  0  0  0  0  0  0
    0.8447   -1.0392   -0.0003 C   0  0  0  0  0  0  0  0  0  0  0  0
   -1.5994   -0.8669    0.0001 C   0  0  0  0  0  0  0  0  0  0  0  0
   -0.4257   -1.6390   -0.0002 C   0  0  0  0  0  0  0  0  0  0  0  0
    2.2146    0.9685   -0.0002 C   0  0  0  0  0  0  0  0  0  0  0  0
    2.0188   -1.8105   -0.0003 C   0  0  0  0  0  0  0  0  0  0  0  0
    3.3708    0.1879   -0.0002 C   0  0  0  0  0  0  0  0  0  0  0  0
   -0.1246    2.6430   -0.0009 C   0  0  0  0  0  0  0  0  0  0  0  0
   -2.6742    1.3130    0.0002 C   0  0  0  0  0  0  0  0  0  0  0  0
   -2.8700   -1.4660    0.0002 C   0  0  0  0  0  0  0  0  0  0  0  0
    3.2730   -1.1999   -0.0003 C   0  0  0  0  0  0  0  0  0  0  0  0
   -3.9284    0.7023    0.0003 C   0  0  0  0  0  0  0  0  0  0  0  0
   -4.0263   -0.6854    0.0002 C   0  0  0  0  0  0  0  0  0  0  0  0
    4.7125    0.8395    0.0013 C   0  0  0  0  0  0  0  0  0  0  0  0
  1  2  2  0
  1  4  1  0
  1  7  1  0
  2  3  1  0
  2 10  1  0
  3  5  2  0
  3 11  1  0
  4  6  2  0
  4  8  1  0
  5  6  1  0
  5 12  1  0
  7  9  2  0
  8 13  2  0
  9 13  1  0
  9 16  1  0
 11 14  2  0
 12 15  2  0
 14 15  1  0
M  END
>  <PUBCHEM_COMPOUND_CID>  (1) 
33929

>  <PUBCHEM_CONFORMER_RMSD>  (1) 
0.4

>  <PUBCHEM_CONFORMER_DIVERSEORDER>  (1) 
1

>  <PUBCHEM_MMFF94_PARTIAL_CHARGES>  (1) 
20
10 0.14
11 -0.15
12 -0.15
13 -0.15
14 -0.15
15 -0.15
16 0.14
17 0.15
18 0.15
19 0.15
2 -0.14
23 0.15
24 0.15
25 0.15
26 0.15
27 0.15
6 -0.15
7 -0.15
8 -0.15
9 -0.14

>  <PUBCHEM_EFFECTIVE_ROTOR_COUNT>  (1) 
0

>  <PUBCHEM_PHARMACOPHORE_FEATURES>  (1) 
3
6 1 2 3 4 5 6 rings
6 1 4 7 8 9 13 rings
6 3 5 11 12 14 15 rings

>  <PUBCHEM_HEAVY_ATOM_COUNT>  (1) 
16

>  <PUBCHEM_ATOM_DEF_STEREO_COUNT>  (1) 
0

>  <PUBCHEM_ATOM_UDEF_STEREO_COUNT>  (1) 
0

>  <PUBCHEM_BOND_DEF_STEREO_COUNT>  (1) 
0

>  <PUBCHEM_BOND_UDEF_STEREO_COUNT>  (1) 
0

>  <PUBCHEM_ISOTOPIC_ATOM_COUNT>  (1) 
0

>  <PUBCHEM_COMPONENT_COUNT>  (1) 
1

>  <PUBCHEM_CACTVS_TAUTO_COUNT>  (1) 
1

>  <PUBCHEM_CONFORMER_ID>  (1) 
0000848900000001

>  <PUBCHEM_MMFF94_ENERGY>  (1) 
58.6325

>  <PUBCHEM_FEATURE_SELFOVERLAP>  (1) 
15.274

>  <PUBCHEM_SHAPE_FINGERPRINT>  (1) 
10411042 1 15816502082604842894
10608611 8 18410570656557305381
10967382 1 18410855460165221478
11132069 177 18411414007771805328
11471102 20 18410569574299308990
11680986 33 17977384163640148025
11806522 49 18338232777660090511
12032990 46 18410860953555078051
12382932 28 18411982438098176153
12403814 3 17603300457905996669
12954195 1 17985851254310848964
13132413 78 18412265059910691965
13140716 1 18265901246170644867
13214271 11 18412822512247672767
13221675 6 18411136943700257222
13380535 76 18409449193467944954
14144814 61 18410856542576114483
15196674 1 18410575058898653831
15219456 202 18412265008275937318
15442244 35 18122343471824926442
15536298 74 18342459214447333486
16945 1 18194401314907426503
18186145 218 17968095278876307398
18522853 276 18412263947740625673
19591789 44 15884635505993458387
200 152 18131624608884269127
20510252 161 18271244923957590624
20645477 70 18341891836061221247
21029758 11 18341888615252239929
21029758 27 18188497985496441949
21267235 1 18410583889362269223
21501502 16 18267586810359555266
221490 88 18119814865906678347
2334 1 18410573993931478179
23402539 116 18343012315718836070
23402655 69 18342170034325570381
23463225 33 18409167696899911558
23557571 272 18272662254975957262
23559900 14 18268987588627373162
2748010 2 18411419492598120575
296302 2 18410013238521540430
3312278 4 18411421712974782881
335352 9 17978510836572350423
34934 24 18410567379671266879
474 4 17096939168769853756
4990 188 18060149717312159030
5104073 3 18410012100381659674
528886 8 18411414012050993890
537710 114 18410016550062950364
53812653 166 18342735238830899408
69090 78 18343015597295623463
7364860 26 18196934598235412345
8809292 202 18188213212132651683
9709674 26 18411143536623191430

>  <PUBCHEM_SHAPE_MULTIPOLES>  (1) 
329.27
7.3
2.15
0.62
1.4
0.44
0
0.05
0
-0.04
0
0
0
0

>  <PUBCHEM_SHAPE_SELFOVERLAP>  (1) 
739.761

>  <PUBCHEM_SHAPE_VOLUME>  (1) 
163.1

>  <PUBCHEM_COORDINATE_TYPE>  (1) 
2
5
10

$$$$
