33927
     RDKit          3D

 22 22  0  0  1  0  0  0  0  0999 V2000
   -2.4805    1.6557   -0.0342 O   0  0  0  0  0  0  0  0  0  0  0  0
   -5.2338    1.7604   -0.4180 O   0  0  0  0  0  0  0  0  0  0  0  0
    3.6358    1.5067    1.5793 O   0  0  0  0  0  0  0  0  0  0  0  0
   -3.7276   -1.6222   -0.4158 N   0  0  0  0  0  0  0  0  0  0  0  0
    3.7910    0.6605   -0.5750 N   0  0  0  0  0  0  0  0  0  0  0  0
   -4.5135   -0.4825    0.0371 C   0  0  0  0  0  0  0  0  0  0  0  0
   -4.4712    0.6782   -0.9597 C   0  0  0  0  0  0  0  0  0  0  0  0
   -3.7387   -2.6893    0.5756 C   0  0  0  0  0  0  0  0  0  0  0  0
   -3.0568    1.1764   -1.2482 C   0  0  0  0  0  0  0  0  0  0  0  0
   -3.4073   -4.0152   -0.1019 C   0  0  0  0  0  0  0  0  0  0  0  0
   -2.7471   -2.3824    1.6943 C   0  0  0  0  0  0  0  0  0  0  0  0
    5.6029   -0.9311   -0.0794 C   0  0  0  0  0  0  0  0  0  0  0  0
    5.2131    0.4566   -0.5776 C   0  0  0  0  0  0  0  0  0  0  0  0
    5.0303   -2.0511   -0.9511 C   0  0  0  0  0  0  0  0  0  0  0  0
   -1.1312    1.5384    0.0995 C   0  0  0  0  0  0  0  0  0  0  0  0
    1.6349    1.3021    0.3739 C   0  0  0  0  0  0  0  0  0  0  0  0
    3.1081    1.1769    0.5204 C   0  0  0  0  0  0  0  0  0  0  0  0
   -0.5673    1.3737    1.3648 C   0  0  0  0  0  0  0  0  0  0  0  0
   -0.3120    1.5849   -1.0285 C   0  0  0  0  0  0  0  0  0  0  0  0
    5.4843   -3.4191   -0.4663 C   0  0  0  0  0  0  0  0  0  0  0  0
    0.8156    1.2556    1.5019 C   0  0  0  0  0  0  0  0  0  0  0  0
    1.0711    1.4668   -0.8912 C   0  0  0  0  0  0  0  0  0  0  0  0
  1  9  1  0
  1 15  1  0
  2  7  1  0
  3 17  2  0
  4  6  1  0
  4  8  1  0
  5 13  1  0
  5 17  1  0
  6  7  1  0
  7  9  1  0
  8 10  1  0
  8 11  1  0
 12 13  1  0
 12 14  1  0
 14 20  1  0
 15 18  2  0
 15 19  1  0
 16 17  1  0
 16 21  2  0
 16 22  1  0
 18 21  1  0
 19 22  2  0
M  END
>  <PUBCHEM_COMPOUND_CID>  (1) 
33927

>  <PUBCHEM_CONFORMER_RMSD>  (1) 
1

>  <PUBCHEM_CONFORMER_DIVERSEORDER>  (1) 
1
41
52
44
36
12
70
15
4
66
19
78
69
75
68
54
20
73
25
13
77
71
14
47
46
23
18
84
35
9
72
40
33
3
58
42
81
60
29
85
50
74
17
65
11
26
28
87
61
80
57
79
86
7
43
49
2
48
5
55
21
24
64
53
31
83
59
38
32
22
16
56
51
76
6
82
39
67
8
10
45
30
63
34
27
62
37

>  <PUBCHEM_MMFF94_PARTIAL_CHARGES>  (1) 
24
1 -0.36
13 0.3
15 0.08
16 0.09
17 0.54
18 -0.15
19 -0.15
2 -0.68
21 -0.15
22 -0.15
27 0.36
3 -0.57
4 -0.9
42 0.4
43 0.37
44 0.15
45 0.15
49 0.15
5 -0.73
50 0.15
6 0.27
7 0.28
8 0.27
9 0.28

>  <PUBCHEM_EFFECTIVE_ROTOR_COUNT>  (1) 
11

>  <PUBCHEM_PHARMACOPHORE_FEATURES>  (1) 
10
1 1 acceptor
1 2 acceptor
1 2 donor
1 20 hydrophobe
1 3 acceptor
1 4 cation
1 4 donor
1 5 donor
3 8 10 11 hydrophobe
6 15 16 18 19 21 22 rings

>  <PUBCHEM_HEAVY_ATOM_COUNT>  (1) 
22

>  <PUBCHEM_ATOM_DEF_STEREO_COUNT>  (1) 
0

>  <PUBCHEM_ATOM_UDEF_STEREO_COUNT>  (1) 
1

>  <PUBCHEM_BOND_DEF_STEREO_COUNT>  (1) 
0

>  <PUBCHEM_BOND_UDEF_STEREO_COUNT>  (1) 
0

>  <PUBCHEM_ISOTOPIC_ATOM_COUNT>  (1) 
0

>  <PUBCHEM_COMPONENT_COUNT>  (1) 
1

>  <PUBCHEM_CACTVS_TAUTO_COUNT>  (1) 
2

>  <PUBCHEM_CONFORMER_ID>  (1) 
0000848700000001

>  <PUBCHEM_MMFF94_ENERGY>  (1) 
36.7543

>  <PUBCHEM_FEATURE_SELFOVERLAP>  (1) 
50.75

>  <PUBCHEM_SHAPE_FINGERPRINT>  (1) 
11135609 12 18188788243807756803
11135609 99 18339922594753783358
11186622 123 18261103084859774370
11796584 16 18409443661871411922
12596602 18 13973955502496918486
12633257 1 16128379332210435292
13941219 33 18341068362397823219
14251740 79 18335143085455815043
14251751 18 18409732872158413518
14910302 57 18261384516912549060
15537594 2 17385719180180788081
21315764 119 18188771630573770708
23379529 103 18335424624588158751
23559900 14 18412256246796250976
25122255 55 18341338816462272918
2916195 48 9583511019071954700
3089732 80 18412268354488425822
316301 35 18411979170293072250
373842 8 18053098420432441518
4073 2 18412260662317861536
44062 13 18334857242497643163
5104073 3 16128076958139172437
5365585 94 18188499084866028459
56633871 153 17978240683937592875
59755656 520 18340772538431781033
6437827 68 18410856525591859414
7970288 3 17761493990855320343

>  <PUBCHEM_SHAPE_MULTIPOLES>  (1) 
425.18
13.54
3.97
1.36
9.79
5.26
-0.39
8.65
3.05
-1.37
-0.08
-0.13
-0.25
2.27

>  <PUBCHEM_SHAPE_SELFOVERLAP>  (1) 
842.749

>  <PUBCHEM_SHAPE_VOLUME>  (1) 
253.2

>  <PUBCHEM_COORDINATE_TYPE>  (1) 
2
5
10

$$$$
