33931
     RDKit          3D

 10 10  0  0  1  0  0  0  0  0999 V2000
   -0.4096    1.1603    0.3332 O   0  0  0  0  0  0  0  0  0  0  0  0
    2.5624   -0.8414   -0.3329 O   0  0  0  0  0  0  0  0  0  0  0  0
    0.0835   -2.2962    0.1241 O   0  0  0  0  0  0  0  0  0  0  0  0
   -0.9956   -0.1492    0.4819 C   0  0  0  0  0  0  0  0  0  0  0  0
   -2.1489   -0.3072   -0.4870 C   0  0  0  0  0  0  0  0  0  0  0  0
    0.1432   -1.0788    0.1731 C   0  0  0  0  0  0  0  0  0  0  0  0
    0.9405    0.9579    0.0511 C   0  0  0  0  0  0  0  0  0  0  0  0
    1.3513   -0.3032   -0.0614 C   0  0  0  0  0  0  0  0  0  0  0  0
   -3.2807    0.6623   -0.1822 C   0  0  0  0  0  0  0  0  0  0  0  0
    1.7538    2.1954   -0.1000 C   0  0  0  0  0  0  0  0  0  0  0  0
  1  4  1  0
  1  7  1  0
  2  8  1  0
  3  6  2  0
  4  5  1  0
  4  6  1  0
  5  9  1  0
  6  8  1  0
  7  8  2  0
  7 10  1  0
M  END
>  <PUBCHEM_COMPOUND_CID>  (1) 
33931

>  <PUBCHEM_CONFORMER_RMSD>  (1) 
0.4

>  <PUBCHEM_CONFORMER_DIVERSEORDER>  (1) 
1
6
5
2
3
4

>  <PUBCHEM_MMFF94_PARTIAL_CHARGES>  (1) 
9
1 -0.36
10 0.14
2 -0.53
20 0.45
3 -0.57
4 0.34
6 0.49
7 -0.06
8 0.09

>  <PUBCHEM_EFFECTIVE_ROTOR_COUNT>  (1) 
1.4

>  <PUBCHEM_PHARMACOPHORE_FEATURES>  (1) 
5
1 1 acceptor
1 2 donor
1 3 acceptor
1 9 hydrophobe
5 1 4 6 7 8 rings

>  <PUBCHEM_HEAVY_ATOM_COUNT>  (1) 
10

>  <PUBCHEM_ATOM_DEF_STEREO_COUNT>  (1) 
0

>  <PUBCHEM_ATOM_UDEF_STEREO_COUNT>  (1) 
1

>  <PUBCHEM_BOND_DEF_STEREO_COUNT>  (1) 
0

>  <PUBCHEM_BOND_UDEF_STEREO_COUNT>  (1) 
0

>  <PUBCHEM_ISOTOPIC_ATOM_COUNT>  (1) 
0

>  <PUBCHEM_COMPONENT_COUNT>  (1) 
1

>  <PUBCHEM_CACTVS_TAUTO_COUNT>  (1) 
17

>  <PUBCHEM_CONFORMER_ID>  (1) 
0000848B00000001

>  <PUBCHEM_MMFF94_ENERGY>  (1) 
9.4521

>  <PUBCHEM_FEATURE_SELFOVERLAP>  (1) 
25.371

>  <PUBCHEM_SHAPE_FINGERPRINT>  (1) 
12423570 1 17539990780068031033
13380535 76 18195519526917689888
14325111 11 18337952402205427085
16945 1 18337952290298842155
18185500 45 18124596383908300339
193761 8 18122345950005082450
21040471 1 18194398020467089472
23552423 10 18412258433055345623
241688 4 17690564082865224994
2748010 2 18265340675439019191
29004967 10 18335986346449880915
5084963 1 18202282502496374625

>  <PUBCHEM_SHAPE_MULTIPOLES>  (1) 
188.19
3.54
1.98
0.67
2.1
0.11
0
-1.06
-0.57
-0.95
0.02
0.08
-0.01
0.06

>  <PUBCHEM_SHAPE_SELFOVERLAP>  (1) 
382.062

>  <PUBCHEM_SHAPE_VOLUME>  (1) 
110.4

>  <PUBCHEM_COORDINATE_TYPE>  (1) 
2
5
10

$$$$
