33936
     RDKit          3D

 10 10  0  0  0  0  0  0  0  0999 V2000
   -0.1612   -0.7037   -0.1058 C   0  0  0  0  0  0  0  0  0  0  0  0
   -1.4926   -0.3227    0.0615 C   0  0  0  0  0  0  0  0  0  0  0  0
    0.8352    0.2677   -0.2033 C   0  0  0  0  0  0  0  0  0  0  0  0
   -1.8277    1.0296    0.1309 C   0  0  0  0  0  0  0  0  0  0  0  0
    0.1863   -2.1584   -0.1789 C   0  0  0  0  0  0  0  0  0  0  0  0
    0.5000    1.6199   -0.1337 C   0  0  0  0  0  0  0  0  0  0  0  0
   -2.5794   -1.3417    0.1697 C   0  0  0  0  0  0  0  0  0  0  0  0
   -0.8314    2.0009    0.0333 C   0  0  0  0  0  0  0  0  0  0  0  0
    2.2358   -0.0948   -0.3782 C   0  0  0  0  0  0  0  0  0  0  0  0
    3.1351   -0.2967    0.6045 C   0  0  0  0  0  0  0  0  0  0  0  0
  1  2  2  0
  1  3  1  0
  1  5  1  0
  2  4  1  0
  2  7  1  0
  3  6  2  0
  3  9  1  0
  4  8  2  0
  6  8  1  0
  9 10  2  0
M  END
>  <PUBCHEM_COMPOUND_CID>  (1) 
33936

>  <PUBCHEM_CONFORMER_RMSD>  (1) 
0.4

>  <PUBCHEM_CONFORMER_DIVERSEORDER>  (1) 
1
2

>  <PUBCHEM_MMFF94_PARTIAL_CHARGES>  (1) 
16
1 -0.14
10 -0.3
11 0.15
15 0.15
19 0.15
2 -0.14
20 0.15
21 0.15
22 0.15
3 0.03
4 -0.15
5 0.14
6 -0.15
7 0.14
8 -0.15
9 -0.18

>  <PUBCHEM_EFFECTIVE_ROTOR_COUNT>  (1) 
1

>  <PUBCHEM_PHARMACOPHORE_FEATURES>  (1) 
2
1 10 hydrophobe
6 1 2 3 4 6 8 rings

>  <PUBCHEM_HEAVY_ATOM_COUNT>  (1) 
10

>  <PUBCHEM_ATOM_DEF_STEREO_COUNT>  (1) 
0

>  <PUBCHEM_ATOM_UDEF_STEREO_COUNT>  (1) 
0

>  <PUBCHEM_BOND_DEF_STEREO_COUNT>  (1) 
0

>  <PUBCHEM_BOND_UDEF_STEREO_COUNT>  (1) 
0

>  <PUBCHEM_ISOTOPIC_ATOM_COUNT>  (1) 
0

>  <PUBCHEM_COMPONENT_COUNT>  (1) 
1

>  <PUBCHEM_CACTVS_TAUTO_COUNT>  (1) 
1

>  <PUBCHEM_CONFORMER_ID>  (1) 
0000849000000001

>  <PUBCHEM_MMFF94_ENERGY>  (1) 
32.2462

>  <PUBCHEM_FEATURE_SELFOVERLAP>  (1) 
10.148

>  <PUBCHEM_SHAPE_FINGERPRINT>  (1) 
10857977 72 18341041986676538880
12423570 1 7876496264887123241
13024252 1 14707212067540220988
13380535 76 18122335788128063549
16945 1 18266184941466112157
18185500 45 17834962253430089716
193761 8 17906454329330115439
20871998 184 18343863324992192222
21040471 1 18050293561288208244
23552423 10 18115593784616365428
241688 4 18410575132129505937
2748010 2 18338795727370977197
369184 2 18271518719838432024
5084963 1 18131077059945151290
53812654 25 17984699175718422494

>  <PUBCHEM_SHAPE_MULTIPOLES>  (1) 
205.8
3.49
2.11
0.68
1.55
0.05
0.02
-0.77
0.56
-0.76
-0.06
0.14
-0.02
-0.03

>  <PUBCHEM_SHAPE_SELFOVERLAP>  (1) 
424.123

>  <PUBCHEM_SHAPE_VOLUME>  (1) 
115.2

>  <PUBCHEM_COORDINATE_TYPE>  (1) 
2
5
10

$$$$
