33942
     RDKit          3D

 11 11  0  0  0  0  0  0  0  0999 V2000
    3.7692   -0.0068    0.2563 O   0  0  0  0  0  0  0  0  0  0  0  0
    0.0536    0.0038   -0.2680 C   0  0  0  0  0  0  0  0  0  0  0  0
    1.5124    0.0141   -0.5978 C   0  0  0  0  0  0  0  0  0  0  0  0
   -0.6349    1.2069   -0.1134 C   0  0  0  0  0  0  0  0  0  0  0  0
   -0.6182   -1.2089   -0.1141 C   0  0  0  0  0  0  0  0  0  0  0  0
    2.4022    0.0194    0.6469 C   0  0  0  0  0  0  0  0  0  0  0  0
   -1.9953    1.1974    0.1947 C   0  0  0  0  0  0  0  0  0  0  0  0
   -1.9786   -1.2184    0.1939 C   0  0  0  0  0  0  0  0  0  0  0  0
    0.0613    2.5191   -0.2718 C   0  0  0  0  0  0  0  0  0  0  0  0
    0.0957   -2.5113   -0.2750 C   0  0  0  0  0  0  0  0  0  0  0  0
   -2.6672   -0.0153    0.3483 C   0  0  0  0  0  0  0  0  0  0  0  0
  1  6  1  0
  2  3  1  0
  2  4  2  0
  2  5  1  0
  3  6  1  0
  4  7  1  0
  4  9  1  0
  5  8  2  0
  5 10  1  0
  7 11  2  0
  8 11  1  0
M  END
>  <PUBCHEM_COMPOUND_CID>  (1) 
33942

>  <PUBCHEM_CONFORMER_RMSD>  (1) 
0.4

>  <PUBCHEM_CONFORMER_DIVERSEORDER>  (1) 
1
2
3

>  <PUBCHEM_MMFF94_PARTIAL_CHARGES>  (1) 
15
1 -0.68
10 0.14
11 -0.15
16 0.15
17 0.15
2 -0.14
24 0.15
25 0.4
3 0.14
4 -0.14
5 -0.14
6 0.28
7 -0.15
8 -0.15
9 0.14

>  <PUBCHEM_EFFECTIVE_ROTOR_COUNT>  (1) 
2

>  <PUBCHEM_PHARMACOPHORE_FEATURES>  (1) 
3
1 1 acceptor
1 1 donor
6 2 4 5 7 8 11 rings

>  <PUBCHEM_HEAVY_ATOM_COUNT>  (1) 
11

>  <PUBCHEM_ATOM_DEF_STEREO_COUNT>  (1) 
0

>  <PUBCHEM_ATOM_UDEF_STEREO_COUNT>  (1) 
0

>  <PUBCHEM_BOND_DEF_STEREO_COUNT>  (1) 
0

>  <PUBCHEM_BOND_UDEF_STEREO_COUNT>  (1) 
0

>  <PUBCHEM_ISOTOPIC_ATOM_COUNT>  (1) 
0

>  <PUBCHEM_COMPONENT_COUNT>  (1) 
1

>  <PUBCHEM_CACTVS_TAUTO_COUNT>  (1) 
1

>  <PUBCHEM_CONFORMER_ID>  (1) 
0000849600000001

>  <PUBCHEM_MMFF94_ENERGY>  (1) 
28.4009

>  <PUBCHEM_FEATURE_SELFOVERLAP>  (1) 
15.223

>  <PUBCHEM_SHAPE_FINGERPRINT>  (1) 
10857977 72 18411696603729835489
12423570 1 15106380272216043399
13024252 1 15574710279140181969
14993402 34 18409445929207955919
15076042 46 18118672236959455426
161256 15 17980776934485261567
16945 1 18338811060688677149
193761 8 17689718562866073309
20645464 45 17988925574214826622
20871998 184 18271247234750287446
21040471 1 18266189331096495693
23402539 116 18272075124071985359
23463225 33 18334576806897632978
23552423 10 17470171817584919485
241688 4 17904781980871132107
2748010 2 18122077398885451087
369184 2 18411975862561261682
5084963 1 18059865016377288683
53812653 166 18271246015269563401
54338 74 18194664072232051374
75552 356 18411136974023361264

>  <PUBCHEM_SHAPE_MULTIPOLES>  (1) 
220.51
3.77
2.33
0.73
2.74
0
0
0
0.87
-0.48
-0.3
0.11
0
0

>  <PUBCHEM_SHAPE_SELFOVERLAP>  (1) 
449.241

>  <PUBCHEM_SHAPE_VOLUME>  (1) 
130.1

>  <PUBCHEM_COORDINATE_TYPE>  (1) 
2
5
10

$$$$
