33941
     RDKit          3D

 11 11  0  0  0  0  0  0  0  0999 V2000
    3.0220   -0.5495   -0.9868 O   0  0  0  0  0  0  0  0  0  0  0  0
    0.5188   -0.0890    0.4799 C   0  0  0  0  0  0  0  0  0  0  0  0
   -0.5602    0.7367    0.1643 C   0  0  0  0  0  0  0  0  0  0  0  0
    1.8471    0.4860    0.8494 C   0  0  0  0  0  0  0  0  0  0  0  0
   -1.7906    0.1762   -0.1782 C   0  0  0  0  0  0  0  0  0  0  0  0
    0.3674   -1.4754    0.4525 C   0  0  0  0  0  0  0  0  0  0  0  0
   -1.9420   -1.2102   -0.2055 C   0  0  0  0  0  0  0  0  0  0  0  0
   -0.3981    2.2233    0.1941 C   0  0  0  0  0  0  0  0  0  0  0  0
    2.7605    0.6998   -0.3601 C   0  0  0  0  0  0  0  0  0  0  0  0
   -0.8630   -2.0360    0.1098 C   0  0  0  0  0  0  0  0  0  0  0  0
   -2.9620    1.0381   -0.5193 C   0  0  0  0  0  0  0  0  0  0  0  0
  1  9  1  0
  2  3  2  0
  2  4  1  0
  2  6  1  0
  3  5  1  0
  3  8  1  0
  4  9  1  0
  5  7  2  0
  5 11  1  0
  6 10  2  0
  7 10  1  0
M  END
>  <PUBCHEM_COMPOUND_CID>  (1) 
33941

>  <PUBCHEM_CONFORMER_RMSD>  (1) 
0.4

>  <PUBCHEM_CONFORMER_DIVERSEORDER>  (1) 
3
2
6
4
1
7
5

>  <PUBCHEM_MMFF94_PARTIAL_CHARGES>  (1) 
15
1 -0.68
10 -0.15
11 0.14
14 0.15
2 -0.14
20 0.15
21 0.15
25 0.4
3 -0.14
4 0.14
5 -0.14
6 -0.15
7 -0.15
8 0.14
9 0.28

>  <PUBCHEM_EFFECTIVE_ROTOR_COUNT>  (1) 
2

>  <PUBCHEM_PHARMACOPHORE_FEATURES>  (1) 
3
1 1 acceptor
1 1 donor
6 2 3 5 6 7 10 rings

>  <PUBCHEM_HEAVY_ATOM_COUNT>  (1) 
11

>  <PUBCHEM_ATOM_DEF_STEREO_COUNT>  (1) 
0

>  <PUBCHEM_ATOM_UDEF_STEREO_COUNT>  (1) 
0

>  <PUBCHEM_BOND_DEF_STEREO_COUNT>  (1) 
0

>  <PUBCHEM_BOND_UDEF_STEREO_COUNT>  (1) 
0

>  <PUBCHEM_ISOTOPIC_ATOM_COUNT>  (1) 
0

>  <PUBCHEM_COMPONENT_COUNT>  (1) 
1

>  <PUBCHEM_CACTVS_TAUTO_COUNT>  (1) 
1

>  <PUBCHEM_CONFORMER_ID>  (1) 
0000849500000003

>  <PUBCHEM_MMFF94_ENERGY>  (1) 
28.5528

>  <PUBCHEM_FEATURE_SELFOVERLAP>  (1) 
15.223

>  <PUBCHEM_SHAPE_FINGERPRINT>  (1) 
10353120 184 18117554256861809323
11206711 2 18263909098831588735
12423570 1 17481693574046561890
12524768 44 18126278890138700552
12716758 59 18411418427414478610
12897270 3 18412545392525977724
13024252 1 17531252810843501346
15775835 57 17748545935535182084
16945 1 18340762650493295321
193761 8 17546721561015041209
20201158 50 17988931046166783310
20645476 183 17822014215686745478
20653085 51 17749403580279634076
21040471 1 18337656560341493987
22802520 49 18272661138136825470
23402539 116 18340753902156791692
23552423 10 18261672670558188418
23559900 14 18342738516930033200
241688 4 17759517068715567795
2748010 2 18194389216063785481
353137 74 18338519612407826820
5084963 1 18057885951276644083
528886 8 18410285900415354897
53812653 8 18265332815680788969

>  <PUBCHEM_SHAPE_MULTIPOLES>  (1) 
220.51
3.87
2.04
0.83
1.34
0.05
0.02
-0.61
1.17
-0.76
-0.11
0.34
0.01
0.19

>  <PUBCHEM_SHAPE_SELFOVERLAP>  (1) 
450.043

>  <PUBCHEM_SHAPE_VOLUME>  (1) 
129.5

>  <PUBCHEM_COORDINATE_TYPE>  (1) 
2
5
10

$$$$
