3395
     RDKit          3D

 24 25  0  0  1  0  0  0  0  0999 V2000
   -1.8741    1.0052    2.0627 F   0  0  0  0  0  0  0  0  0  0  0  0
    2.9792    0.0522   -0.2625 O   0  0  0  0  0  0  0  0  0  0  0  0
    3.7381    1.8231    1.0014 O   0  0  0  0  0  0  0  0  0  0  0  0
    3.7338   -2.1965   -0.1367 O   0  0  0  0  0  0  0  0  0  0  0  0
    1.5318   -2.2940    0.5565 O   0  0  0  0  0  0  0  0  0  0  0  0
    1.9829    2.1528   -0.6643 C   0  0  0  0  0  0  0  0  0  0  0  0
    0.5876    1.5682   -0.5209 C   0  0  0  0  0  0  0  0  0  0  0  0
    2.0314    3.6357   -0.2852 C   0  0  0  0  0  0  0  0  0  0  0  0
   -0.0084    1.5559    0.7248 C   0  0  0  0  0  0  0  0  0  0  0  0
   -0.0452    1.0651   -1.6406 C   0  0  0  0  0  0  0  0  0  0  0  0
   -1.9477    0.5052   -0.2610 C   0  0  0  0  0  0  0  0  0  0  0  0
    3.0123    1.3605    0.1310 C   0  0  0  0  0  0  0  0  0  0  0  0
   -1.2890    1.0190    0.8561 C   0  0  0  0  0  0  0  0  0  0  0  0
   -1.3257    0.5282   -1.5093 C   0  0  0  0  0  0  0  0  0  0  0  0
   -3.2761   -0.0535   -0.1300 C   0  0  0  0  0  0  0  0  0  0  0  0
    3.8721   -0.8641    0.4004 C   0  0  0  0  0  0  0  0  0  0  0  0
   -3.4375   -1.4100    0.1516 C   0  0  0  0  0  0  0  0  0  0  0  0
   -4.3949    0.7646   -0.2853 C   0  0  0  0  0  0  0  0  0  0  0  0
    5.3076   -0.4264    0.1480 C   0  0  0  0  0  0  0  0  0  0  0  0
   -4.7180   -1.9485    0.2780 C   0  0  0  0  0  0  0  0  0  0  0  0
   -5.6755    0.2263   -0.1587 C   0  0  0  0  0  0  0  0  0  0  0  0
   -5.8370   -1.1303    0.1228 C   0  0  0  0  0  0  0  0  0  0  0  0
    2.5128   -2.7844    0.0140 C   0  0  0  0  0  0  0  0  0  0  0  0
    2.5394   -4.1542   -0.5927 C   0  0  0  0  0  0  0  0  0  0  0  0
  1 13  1  0
  2 12  1  0
  2 16  1  0
  3 12  2  0
  4 16  1  0
  4 23  1  0
  5 23  2  0
  6  7  1  0
  6  8  1  0
  6 12  1  0
  7  9  2  0
  7 10  1  0
  9 13  1  0
 10 14  2  0
 11 13  2  0
 11 14  1  0
 11 15  1  0
 15 17  2  0
 15 18  1  0
 16 19  1  0
 17 20  1  0
 18 21  2  0
 20 22  2  0
 21 22  1  0
 23 24  1  0
M  END
>  <PUBCHEM_COMPOUND_CID>  (1) 
3395

>  <PUBCHEM_CONFORMER_RMSD>  (1) 
1

>  <PUBCHEM_CONFORMER_DIVERSEORDER>  (1) 
2
68
396
148
36
633
137
123
337
444
183
356
656
454
359
665
41
406
581
187
442
32
394
202
429
384
39
151
228
54
30
57
419
613
4
167
446
514
138
374
111
515
122
536
1
535
211
7
161
93
588
652
487
629
519
204
669
224
544
85
53
323
113
249
239
175
314
46
14
619
3
471
285
56
103
209
13
242
270
6
177
153
205
424
26
70
129
266
65
626
158
9
84
18
584
160
52
106
8
250
51
15
346
141
321
354
72
275
47
334
411
49
600
79
5
301
22
29
682
45
42
11

>  <PUBCHEM_MMFF94_PARTIAL_CHARGES>  (1) 
28
1 -0.19
10 -0.15
12 0.66
13 0.19
14 -0.15
16 0.56
17 -0.15
18 -0.15
2 -0.43
20 -0.15
21 -0.15
22 -0.15
23 0.66
24 0.06
29 0.15
3 -0.57
30 0.15
31 0.15
33 0.15
34 0.15
38 0.15
39 0.15
4 -0.43
40 0.15
5 -0.57
6 0.2
7 -0.14
9 -0.15

>  <PUBCHEM_EFFECTIVE_ROTOR_COUNT>  (1) 
7

>  <PUBCHEM_PHARMACOPHORE_FEATURES>  (1) 
5
1 3 acceptor
1 5 acceptor
1 8 hydrophobe
6 15 17 18 20 21 22 rings
6 7 9 10 11 13 14 rings

>  <PUBCHEM_HEAVY_ATOM_COUNT>  (1) 
24

>  <PUBCHEM_ATOM_DEF_STEREO_COUNT>  (1) 
0

>  <PUBCHEM_ATOM_UDEF_STEREO_COUNT>  (1) 
2

>  <PUBCHEM_BOND_DEF_STEREO_COUNT>  (1) 
0

>  <PUBCHEM_BOND_UDEF_STEREO_COUNT>  (1) 
0

>  <PUBCHEM_ISOTOPIC_ATOM_COUNT>  (1) 
0

>  <PUBCHEM_COMPONENT_COUNT>  (1) 
1

>  <PUBCHEM_CACTVS_TAUTO_COUNT>  (1) 
1

>  <PUBCHEM_CONFORMER_ID>  (1) 
00000D4300000002

>  <PUBCHEM_MMFF94_ENERGY>  (1) 
60.0279

>  <PUBCHEM_FEATURE_SELFOVERLAP>  (1) 
25.372

>  <PUBCHEM_SHAPE_FINGERPRINT>  (1) 
11370993 70 18192147320333772225
114674 6 18260547814244451234
11595378 159 15697732423712566859
11796584 16 18201726171667902839
12107183 9 18125168126214002865
12467345 10 18413670210322731299
12596599 1 17841160952348912634
12596602 18 17060053808699795179
12788726 201 17418108632356093385
13402501 40 18260830388843500746
13533116 47 18343302574325659969
13583140 156 18130775811461775329
14251757 17 17897429624062768725
14863182 85 18408606993973950652
14866123 147 17331116096783749145
15250474 111 18198615726224591423
15422964 175 18266169548756913228
15848702 151 18259700112543954797
15927050 60 17908143536279170892
17492 54 17896340128689065038
1813 80 16877941646525695877
19784866 240 18410580577947674405
1979834 28 18272081687019734602
19930381 70 18265331698915796275
20028762 73 18200871889630370230
20645477 70 18187643647570885024
21033648 29 13973701516081223947
21033650 10 16372135373715185700
21197605 99 18120940765476463107
21285901 2 17676482839380423733
21344244 181 18129122133705624598
21421861 104 18128560235464970715
22224240 67 18198612415052654416
23559900 14 18410005559405261225
239999 70 18272378606846008788
3004659 81 18260545636458076976
3117164 225 18126860287414989137
33382 64 18337398252940715027
338550 245 18263644141850893910
3421961 26 18410853235656894886
3633792 109 18335971001486352181
392239 28 17487872666876983258
404807 14 17691693290578107827
4072396 5 17203615882798438877
4340502 62 18198338657578234648
46194498 28 17676490574574468876
463206 1 18267583688040286891
5104073 3 18270409407633545721
5309563 4 18338232653158805974
57724786 102 12103261812926869226
6443956 14 18334859389817806516
8272917 22 18409732897490529900
9709674 26 18187650262284536955
9777508 108 17116909769931771864

>  <PUBCHEM_SHAPE_MULTIPOLES>  (1) 
463.16
11.3
3.76
1.11
8.98
2.33
0.01
4.86
1.06
-4.83
-0.4
0.16
-0.39
0.37

>  <PUBCHEM_SHAPE_SELFOVERLAP>  (1) 
982.443

>  <PUBCHEM_SHAPE_VOLUME>  (1) 
260.7

>  <PUBCHEM_COORDINATE_TYPE>  (1) 
2
5
10

$$$$
