33957
     RDKit          3D

 20 22  0  0  1  0  0  0  0  0999 V2000
    0.6351    0.9681   -1.8765 O   0  0  0  0  0  0  0  0  0  0  0  0
   -1.4438    1.4352   -0.1113 N   0  0  0  0  0  0  0  0  0  0  0  0
   -2.6039    1.4141    0.7794 C   0  0  0  0  0  0  0  0  0  0  0  0
   -0.8561    2.7633    0.0622 C   0  0  0  0  0  0  0  0  0  0  0  0
   -3.2229    2.7877    0.5662 C   0  0  0  0  0  0  0  0  0  0  0  0
   -2.0751    3.6735    0.0914 C   0  0  0  0  0  0  0  0  0  0  0  0
   -0.4993    0.3673    0.1813 C   0  0  0  0  0  0  0  0  0  0  0  0
   -1.1584   -0.9885    0.0295 C   0  0  0  0  0  0  0  0  0  0  0  0
    0.7217    0.5458   -0.7241 C   0  0  0  0  0  0  0  0  0  0  0  0
    2.0759    0.2048   -0.1996 C   0  0  0  0  0  0  0  0  0  0  0  0
   -1.8092   -1.5466    1.1149 C   0  0  0  0  0  0  0  0  0  0  0  0
   -1.0934   -1.6363   -1.1909 C   0  0  0  0  0  0  0  0  0  0  0  0
   -2.4158   -2.7950    0.9751 C   0  0  0  0  0  0  0  0  0  0  0  0
   -1.7000   -2.8846   -1.3305 C   0  0  0  0  0  0  0  0  0  0  0  0
    2.1857   -0.7865    0.7489 C   0  0  0  0  0  0  0  0  0  0  0  0
    3.1642    0.8948   -0.6837 C   0  0  0  0  0  0  0  0  0  0  0  0
   -2.3612   -3.4639   -0.2477 C   0  0  0  0  0  0  0  0  0  0  0  0
    3.4519   -1.1052    1.2397 C   0  0  0  0  0  0  0  0  0  0  0  0
    4.4303    0.5761   -0.1930 C   0  0  0  0  0  0  0  0  0  0  0  0
    4.5742   -0.4240    0.7687 C   0  0  0  0  0  0  0  0  0  0  0  0
  1  9  2  0
  2  3  1  0
  2  4  1  0
  2  7  1  0
  3  5  1  0
  4  6  1  0
  5  6  1  0
  7  8  1  0
  7  9  1  0
  8 11  2  0
  8 12  1  0
  9 10  1  0
 10 15  2  0
 10 16  1  0
 11 13  1  0
 12 14  2  0
 13 17  2  0
 14 17  1  0
 15 18  1  0
 16 19  2  0
 18 20  2  0
 19 20  1  0
M  END
>  <PUBCHEM_COMPOUND_CID>  (1) 
33957

>  <PUBCHEM_CONFORMER_RMSD>  (1) 
0.8

>  <PUBCHEM_CONFORMER_DIVERSEORDER>  (1) 
1
21
8
11
7
19
3
9
20
18
12
14
15
13
2
6
10
16
4
17
5

>  <PUBCHEM_MMFF94_PARTIAL_CHARGES>  (1) 
28
1 -0.57
10 0.09
11 -0.15
12 -0.15
13 -0.15
14 -0.15
15 -0.15
16 -0.15
17 -0.15
18 -0.15
19 -0.15
2 -0.81
20 -0.15
3 0.27
30 0.15
31 0.15
32 0.15
33 0.15
34 0.15
35 0.15
36 0.15
37 0.15
38 0.15
39 0.15
4 0.27
7 0.47
8 -0.14
9 0.42

>  <PUBCHEM_EFFECTIVE_ROTOR_COUNT>  (1) 
5

>  <PUBCHEM_PHARMACOPHORE_FEATURES>  (1) 
5
1 1 acceptor
1 2 cation
5 2 3 4 5 6 rings
6 10 15 16 18 19 20 rings
6 8 11 12 13 14 17 rings

>  <PUBCHEM_HEAVY_ATOM_COUNT>  (1) 
20

>  <PUBCHEM_ATOM_DEF_STEREO_COUNT>  (1) 
0

>  <PUBCHEM_ATOM_UDEF_STEREO_COUNT>  (1) 
1

>  <PUBCHEM_BOND_DEF_STEREO_COUNT>  (1) 
0

>  <PUBCHEM_BOND_UDEF_STEREO_COUNT>  (1) 
0

>  <PUBCHEM_ISOTOPIC_ATOM_COUNT>  (1) 
0

>  <PUBCHEM_COMPONENT_COUNT>  (1) 
1

>  <PUBCHEM_CACTVS_TAUTO_COUNT>  (1) 
2

>  <PUBCHEM_CONFORMER_ID>  (1) 
000084A500000001

>  <PUBCHEM_MMFF94_ENERGY>  (1) 
59.6146

>  <PUBCHEM_FEATURE_SELFOVERLAP>  (1) 
25.373

>  <PUBCHEM_SHAPE_FINGERPRINT>  (1) 
11265709 11 18195528322995173667
11357001 24 18409732889026890491
11578080 2 17899393553335497309
12500047 106 18270674260796475192
12553582 1 18123474044656440366
12714826 92 18059300962738630738
12788726 201 18336833081982935723
12839892 36 18193275192195177881
13004483 165 18197202848976059603
13140716 1 18267871759959806601
13538477 17 18334858312039380484
136203 1 18412544323068552097
13681431 1 17619329348979778089
14081887 123 18268134521938056240
14178342 30 18336529557197931226
15042514 8 18410300220042048075
15842332 3 18113340821457185356
15906896 17 18411133606753358831
16945 1 18335711481127086752
1813 80 17840322329676887742
200 152 17970901383212071442
20197701 30 18120925119152573085
20361792 2 17982448501223429911
20600515 1 17700434734056016203
20832881 197 17972875041213057331
21041028 32 18119818151255810515
21524375 3 18124308311988605569
21731228 192 18122630457165478761
22112679 90 18052842504214037599
23402539 116 18272923939059749263
23419403 2 17759769904491821709
23558518 356 18267296530721630071
23598288 3 18263943166174427327
23598294 1 18411987996023240474
23728640 28 18410570652341563691
25147074 1 18040436599329119012
25222932 49 15876252571930523353
257057 1 18051972812202338741
266924 1 17898310521602347684
266924 78 16156270716770913669
2748010 2 17979669782485101783
3091708 16 9057852114992612681
352729 6 18339935826571556221
474229 33 18339081476420461049
5104073 3 18336249190733973744
532947 4 17405427706828308062
58807428 26 18049450236165162009
6138700 20 17116357265323334374
633830 44 17626944175450873500
6438718 38 18341906202731821747
6992083 37 18040438754622233484
7097593 13 18188204287480377626
7471813 234 17981036737030727007
81228 2 18339344349360724937
84936 31 16904940983358320063
90316 7 18269847578075705427

>  <PUBCHEM_SHAPE_MULTIPOLES>  (1) 
400.74
6.59
4.25
1.26
8.67
0.5
-0.21
0.15
1.65
-6.5
-0.04
0.06
-0.48
-1.02

>  <PUBCHEM_SHAPE_SELFOVERLAP>  (1) 
867.544

>  <PUBCHEM_SHAPE_VOLUME>  (1) 
220

>  <PUBCHEM_COORDINATE_TYPE>  (1) 
2
5
10

$$$$
