33969
     RDKit          3D

 25 27  0  0  1  0  0  0  0  0999 V2000
   -2.1309   -1.7304    1.2166 N   0  0  0  0  0  0  0  0  0  0  0  0
    1.1319   -1.4400   -0.7984 C   0  0  0  0  0  0  0  0  0  0  0  0
    1.9170   -2.5156   -1.6142 C   0  0  0  0  0  0  0  0  0  0  0  0
   -0.0729   -2.0920   -0.0704 C   0  0  0  0  0  0  0  0  0  0  0  0
    2.0049   -0.5858    0.1129 C   0  0  0  0  0  0  0  0  0  0  0  0
   -1.0200   -1.0585    0.5505 C   0  0  0  0  0  0  0  0  0  0  0  0
    3.0421   -1.8985   -2.4540 C   0  0  0  0  0  0  0  0  0  0  0  0
    1.0523   -3.4199   -2.4969 C   0  0  0  0  0  0  0  0  0  0  0  0
    2.1229    0.7857   -0.0844 C   0  0  0  0  0  0  0  0  0  0  0  0
    2.6616   -1.2507    1.1327 C   0  0  0  0  0  0  0  0  0  0  0  0
    2.9492    1.5228    0.7971 C   0  0  0  0  0  0  0  0  0  0  0  0
   -3.0821   -0.7514    1.7449 C   0  0  0  0  0  0  0  0  0  0  0  0
    1.4542    1.4564   -1.1212 C   0  0  0  0  0  0  0  0  0  0  0  0
    3.4741   -0.5257    1.9994 C   0  0  0  0  0  0  0  0  0  0  0  0
   -1.6398   -2.5936    2.2918 C   0  0  0  0  0  0  0  0  0  0  0  0
    3.6180    0.8521    1.8339 C   0  0  0  0  0  0  0  0  0  0  0  0
    3.0823    2.9091    0.6156 C   0  0  0  0  0  0  0  0  0  0  0  0
   -3.6101    0.1563    0.6661 C   0  0  0  0  0  0  0  0  0  0  0  0
    1.5979    2.8343   -1.2868 C   0  0  0  0  0  0  0  0  0  0  0  0
    2.4104    3.5592   -0.4200 C   0  0  0  0  0  0  0  0  0  0  0  0
   -2.9429    1.3395    0.3812 C   0  0  0  0  0  0  0  0  0  0  0  0
   -4.7570   -0.2027   -0.0283 C   0  0  0  0  0  0  0  0  0  0  0  0
   -3.4324    2.1808   -0.6181 C   0  0  0  0  0  0  0  0  0  0  0  0
   -5.2464    0.6385   -1.0277 C   0  0  0  0  0  0  0  0  0  0  0  0
   -4.5841    1.8302   -1.3225 C   0  0  0  0  0  0  0  0  0  0  0  0
  1  6  1  0
  1 12  1  0
  1 15  1  0
  2  3  1  0
  2  4  1  0
  2  5  1  0
  3  7  1  0
  3  8  1  0
  4  6  1  0
  5  9  1  0
  5 10  2  0
  9 11  2  0
  9 13  1  0
 10 14  1  0
 11 16  1  0
 11 17  1  0
 12 18  1  0
 13 19  2  0
 14 16  2  0
 17 20  2  0
 18 21  2  0
 18 22  1  0
 19 20  1  0
 21 23  1  0
 22 24  2  0
 23 25  2  0
 24 25  1  0
M  END
>  <PUBCHEM_COMPOUND_CID>  (1) 
33969

>  <PUBCHEM_CONFORMER_RMSD>  (1) 
0.8

>  <PUBCHEM_CONFORMER_DIVERSEORDER>  (1) 
4
85
156
101
83
152
78
70
65
145
87
153
38
7
92
67
140
114
155
15
37
120
157
96
98
91
62
90
135
12
29
102
43
159
76
34
93
47
95
22
131
107
103
42
74
129
26
68
137
111
59
154
5
132
136
94
77
30
115
55
113
60
44
1
88
104
108
106
141
35
13
50
28
110
150
27
81
2
17
10
66
75
144
48
147
82
71
134
121
14
86
39
126
151
41
128
123
36
19
24
54
148
138
46
100
23
112
89
125
73
45
25
127
79
58
119
69
143
56
64
57
146
32
16
97
124
9
142
6
116
133
3
105
122
139
63
109
117
72
130
49
51
80
158
11
53
149
99
21
61
84
8
52
33
31
118
40
18
20

>  <PUBCHEM_MMFF94_PARTIAL_CHARGES>  (1) 
31
1 -0.81
10 -0.15
12 0.41
13 -0.15
14 -0.15
15 0.27
16 -0.15
17 -0.15
18 -0.14
19 -0.15
2 0.14
20 -0.15
21 -0.15
22 -0.15
23 -0.15
24 -0.15
25 -0.15
38 0.15
41 0.15
42 0.15
46 0.15
47 0.15
48 0.15
49 0.15
5 -0.14
50 0.15
51 0.15
52 0.15
53 0.15
54 0.15
6 0.27

>  <PUBCHEM_EFFECTIVE_ROTOR_COUNT>  (1) 
7

>  <PUBCHEM_PHARMACOPHORE_FEATURES>  (1) 
5
1 1 cation
3 3 7 8 hydrophobe
6 18 21 22 23 24 25 rings
6 5 9 10 11 14 16 rings
6 9 11 13 17 19 20 rings

>  <PUBCHEM_HEAVY_ATOM_COUNT>  (1) 
25

>  <PUBCHEM_ATOM_DEF_STEREO_COUNT>  (1) 
0

>  <PUBCHEM_ATOM_UDEF_STEREO_COUNT>  (1) 
1

>  <PUBCHEM_BOND_DEF_STEREO_COUNT>  (1) 
0

>  <PUBCHEM_BOND_UDEF_STEREO_COUNT>  (1) 
0

>  <PUBCHEM_ISOTOPIC_ATOM_COUNT>  (1) 
0

>  <PUBCHEM_COMPONENT_COUNT>  (1) 
1

>  <PUBCHEM_CACTVS_TAUTO_COUNT>  (1) 
1

>  <PUBCHEM_CONFORMER_ID>  (1) 
000084B100000004

>  <PUBCHEM_MMFF94_ENERGY>  (1) 
82.6287

>  <PUBCHEM_FEATURE_SELFOVERLAP>  (1) 
25.398

>  <PUBCHEM_SHAPE_FINGERPRINT>  (1) 
10165383 225 16980167799415050618
10871710 139 17184192180358491189
11221954 11 18335145344587448267
11370993 70 18260820527735628737
12160290 23 16983217883357297038
12633257 1 17677029326887736168
12788726 201 17113557912681531662
13134695 92 17700712674253848934
133893 2 17631193925246525166
13583140 156 17821729442433407363
13899415 180 17767967536750282799
14251764 3 17096623462819066733
14251764 38 18334287665752867781
14466204 15 17824525397122978457
14790565 3 17535190265964700484
15210252 30 17681581146086747348
15238133 3 17604712149115559550
15848702 68 18186792582863757400
1601671 61 18409731760067676400
17859628 37 18187074070725389260
17921350 177 18335145331786987836
17974551 9 17677319627943034880
20600515 1 17897449393797231932
20715895 44 18189883254795538113
21756936 100 17323525563018140572
21860390 5 18340202990416264301
22749437 52 18408603673669429265
23559900 14 18339935835177185215
238 59 18130798840675243463
469060 322 17699001014223319639
5081480 168 17913241721803192053
508706 21 18041841689032024125
6287921 2 18131355163805058239
6328613 192 17967534575918755992
7097593 13 17749658688488999378
8509985 295 17676757665758211841
9709674 26 18409171004610246429

>  <PUBCHEM_SHAPE_MULTIPOLES>  (1) 
509.51
8.94
4.1
2.3
11.24
0.61
0.17
4.05
-0.22
-2.81
1.8
-1.15
-1.81
2.5

>  <PUBCHEM_SHAPE_SELFOVERLAP>  (1) 
1083.176

>  <PUBCHEM_SHAPE_VOLUME>  (1) 
285

>  <PUBCHEM_COORDINATE_TYPE>  (1) 
2
5
10

$$$$
