3397
     RDKit          3D

 19 19  0  0  0  0  0  0  0  0999 V2000
    2.1686   -2.7578    0.1360 F   0  0  0  0  0  0  0  0  0  0  0  0
    3.4024   -1.4123   -1.0348 F   0  0  0  0  0  0  0  0  0  0  0  0
    3.4234   -1.2904    1.1363 F   0  0  0  0  0  0  0  0  0  0  0  0
   -3.4647    1.4873    0.0136 O   0  0  0  0  0  0  0  0  0  0  0  0
    3.2519    2.6365   -0.1467 O   0  0  0  0  0  0  0  0  0  0  0  0
    4.0203    0.5821   -0.0579 O   0  0  0  0  0  0  0  0  0  0  0  0
   -2.2074   -0.4913    0.0973 N   0  0  0  0  0  0  0  0  0  0  0  0
    3.0688    1.3979   -0.0827 N   0  0  0  0  0  0  0  0  0  0  0  0
   -4.6201   -0.6271    0.1432 C   0  0  0  0  0  0  0  0  0  0  0  0
   -0.8735   -0.0204    0.0524 C   0  0  0  0  0  0  0  0  0  0  0  0
   -3.3762    0.2645    0.0792 C   0  0  0  0  0  0  0  0  0  0  0  0
    1.4830   -0.4681    0.0353 C   0  0  0  0  0  0  0  0  0  0  0  0
    0.1684   -0.9324    0.0799 C   0  0  0  0  0  0  0  0  0  0  0  0
   -5.7669    0.0758    0.8667 C   0  0  0  0  0  0  0  0  0  0  0  0
   -5.0487   -1.0315   -1.2661 C   0  0  0  0  0  0  0  0  0  0  0  0
    1.7367    0.9017   -0.0361 C   0  0  0  0  0  0  0  0  0  0  0  0
   -0.6388    1.3425   -0.0183 C   0  0  0  0  0  0  0  0  0  0  0  0
    0.6757    1.8070   -0.0630 C   0  0  0  0  0  0  0  0  0  0  0  0
    2.5971   -1.4641    0.0656 C   0  0  0  0  0  0  0  0  0  0  0  0
  1 19  1  0
  2 19  1  0
  3 19  1  0
  4 11  2  0
  5  8  1  0
  6  8  2  0
  7 10  1  0
  7 11  1  0
  8 16  1  0
  9 11  1  0
  9 14  1  0
  9 15  1  0
 10 13  2  0
 10 17  1  0
 12 13  1  0
 12 16  2  0
 12 19  1  0
 16 18  1  0
 17 18  2  0
M  CHG  2   5  -1   8   1
M  END
>  <PUBCHEM_COMPOUND_CID>  (1) 
3397

>  <PUBCHEM_CONFORMER_RMSD>  (1) 
0.6

>  <PUBCHEM_CONFORMER_DIVERSEORDER>  (1) 
1
4
7
8
3
2
6
5

>  <PUBCHEM_MMFF94_PARTIAL_CHARGES>  (1) 
21
1 -0.34
10 0.12
11 0.57
12 -0.14
13 -0.15
16 0.13
17 -0.15
18 -0.15
19 1.16
2 -0.34
21 0.37
22 0.15
29 0.15
3 -0.34
30 0.15
4 -0.57
5 -0.52
6 -0.52
7 -0.55
8 0.91
9 0.06

>  <PUBCHEM_EFFECTIVE_ROTOR_COUNT>  (1) 
5

>  <PUBCHEM_PHARMACOPHORE_FEATURES>  (1) 
7
1 4 acceptor
1 5 acceptor
1 5 anion
1 6 acceptor
1 7 donor
3 9 14 15 hydrophobe
6 10 12 13 16 17 18 rings

>  <PUBCHEM_HEAVY_ATOM_COUNT>  (1) 
19

>  <PUBCHEM_ATOM_DEF_STEREO_COUNT>  (1) 
0

>  <PUBCHEM_ATOM_UDEF_STEREO_COUNT>  (1) 
0

>  <PUBCHEM_BOND_DEF_STEREO_COUNT>  (1) 
0

>  <PUBCHEM_BOND_UDEF_STEREO_COUNT>  (1) 
0

>  <PUBCHEM_ISOTOPIC_ATOM_COUNT>  (1) 
0

>  <PUBCHEM_COMPONENT_COUNT>  (1) 
1

>  <PUBCHEM_CACTVS_TAUTO_COUNT>  (1) 
2

>  <PUBCHEM_CONFORMER_ID>  (1) 
00000D4500000001

>  <PUBCHEM_MMFF94_ENERGY>  (1) 
57.6679

>  <PUBCHEM_FEATURE_SELFOVERLAP>  (1) 
35.602

>  <PUBCHEM_SHAPE_FINGERPRINT>  (1) 
10912923 1 18060139864757434459
10967382 1 18410012169259449464
10980938 120 18411701010440095024
11471102 20 18408884061728802300
12107183 9 17766287475067690249
12236239 1 17846782927094635041
12346645 6 18411419535748149604
12644460 14 18408327695828396856
13167823 11 18272933834601335839
13760787 5 18413106169806092085
14251717 144 18410853278290219135
14252887 29 18131072584795281894
14576447 43 18128525154225020135
15196674 1 18410012113857612161
15442244 35 18267587914192848905
15536298 74 18413672408966120113
16945 1 18337392613516597776
17357779 13 17677033716745291669
17834072 33 18342457067047873717
18186145 218 17603586301154428395
200 152 18272363196972751389
20281475 54 18272645766902436759
20645477 70 18409729564843710959
21267235 1 18411146809282444562
21501925 9 18411129217085655963
221490 88 18335987458561450331
2255824 54 18408605868165309910
22646028 1 18202561787630679407
23402539 116 18059855095535831837
23402655 69 18412822487237634645
23557571 272 14404920059135591801
23559900 14 18334295396076224683
23596394 208 17822276964948774847
239999 70 18342465832897173246
2748010 2 18119826939196592026
2871803 45 18260544511603796269
29717793 49 18060134319901862669
300161 21 18131347527638061505
3071541 37 18261961842206003372
33824 294 18408322215782345248
42630746 31 18411981386010549512
5104073 3 18410014321576239825
5281201 14 17894629249614706829
602551 16 15410321286823531471
633830 44 18113896049085710601
7364860 26 18413109463814126740
77779 3 18411421705007372865
81539 233 18188209926445538932
8272917 22 18412552010975687311
9709674 26 18409172090941995515

>  <PUBCHEM_SHAPE_MULTIPOLES>  (1) 
341.62
10.25
2.16
0.81
11.73
0.03
0.06
-1.15
-0.04
-2.51
0.08
0.45
-0.21
-0.57

>  <PUBCHEM_SHAPE_SELFOVERLAP>  (1) 
720.008

>  <PUBCHEM_SHAPE_VOLUME>  (1) 
192.8

>  <PUBCHEM_COORDINATE_TYPE>  (1) 
2
5
10

$$$$
