33972
     RDKit          3D

 15 17  0  0  1  0  0  0  0  0999 V2000
   -3.9750   -0.6246   -0.4221 S   0  0  0  0  0  0  0  0  0  0  0  0
    2.9699   -0.4027   -1.2348 O   0  0  0  0  0  0  0  0  0  0  0  0
    0.8534   -0.0951   -0.4357 N   0  0  0  0  0  0  0  0  0  0  0  0
    2.7544   -0.0887    1.0158 N   0  0  0  0  0  0  0  0  0  0  0  0
   -0.1578    0.1614    0.5752 C   0  0  0  0  0  0  0  0  0  0  0  0
   -0.2764    1.6915    0.7736 C   0  0  0  0  0  0  0  0  0  0  0  0
   -1.1496    2.3484   -0.3087 C   0  0  0  0  0  0  0  0  0  0  0  0
   -1.5037   -0.4442    0.2779 C   0  0  0  0  0  0  0  0  0  0  0  0
   -2.5848    1.8019   -0.2922 C   0  0  0  0  0  0  0  0  0  0  0  0
   -2.5828    0.3139   -0.1367 C   0  0  0  0  0  0  0  0  0  0  0  0
   -1.8432   -1.8297    0.3556 C   0  0  0  0  0  0  0  0  0  0  0  0
    2.1806   -0.1868   -0.1432 C   0  0  0  0  0  0  0  0  0  0  0  0
   -3.1539   -2.0657    0.0014 C   0  0  0  0  0  0  0  0  0  0  0  0
    4.2977   -0.2389   -0.7628 C   0  0  0  0  0  0  0  0  0  0  0  0
    4.1712   -0.3409    0.7368 C   0  0  0  0  0  0  0  0  0  0  0  0
  1 10  1  0
  1 13  1  0
  2 12  1  0
  2 14  1  0
  3  5  1  0
  3 12  1  0
  4 12  2  0
  4 15  1  0
  5  6  1  0
  5  8  1  0
  6  7  1  0
  7  9  1  0
  8 10  2  0
  8 11  1  0
  9 10  1  0
 11 13  2  0
 14 15  1  0
M  END
>  <PUBCHEM_COMPOUND_CID>  (1) 
33972

>  <PUBCHEM_CONFORMER_RMSD>  (1) 
0.6

>  <PUBCHEM_CONFORMER_DIVERSEORDER>  (1) 
1
13
36
39
32
23
35
7
38
24
5
33
11
40
16
20
12
34
25
9
26
28
21
37
6
27
31
30
19
29
10
17
8
4
14
3
18
15
22
2

>  <PUBCHEM_MMFF94_PARTIAL_CHARGES>  (1) 
16
1 -0.08
10 -0.14
11 -0.15
12 0.65
13 -0.11
14 0.28
15 0.25
2 -0.43
23 0.4
24 0.15
25 0.15
3 -0.82
4 -0.7
5 0.55
8 -0.18
9 0.18

>  <PUBCHEM_EFFECTIVE_ROTOR_COUNT>  (1) 
3.4

>  <PUBCHEM_PHARMACOPHORE_FEATURES>  (1) 
5
1 3 donor
3 3 4 12 cation
5 1 8 10 11 13 rings
5 2 4 12 14 15 rings
6 5 6 7 8 9 10 rings

>  <PUBCHEM_HEAVY_ATOM_COUNT>  (1) 
15

>  <PUBCHEM_ATOM_DEF_STEREO_COUNT>  (1) 
0

>  <PUBCHEM_ATOM_UDEF_STEREO_COUNT>  (1) 
1

>  <PUBCHEM_BOND_DEF_STEREO_COUNT>  (1) 
0

>  <PUBCHEM_BOND_UDEF_STEREO_COUNT>  (1) 
0

>  <PUBCHEM_ISOTOPIC_ATOM_COUNT>  (1) 
0

>  <PUBCHEM_COMPONENT_COUNT>  (1) 
1

>  <PUBCHEM_CACTVS_TAUTO_COUNT>  (1) 
2

>  <PUBCHEM_CONFORMER_ID>  (1) 
000084B400000001

>  <PUBCHEM_MMFF94_ENERGY>  (1) 
16.6098

>  <PUBCHEM_FEATURE_SELFOVERLAP>  (1) 
25.428

>  <PUBCHEM_SHAPE_FINGERPRINT>  (1) 
10989021 7 18339082721449221837
11127187 94 18335134315354239871
11543360 7 15792011242052466107
11578080 2 17243259903782317356
12236239 1 17530962471138622842
12500047 106 18265608793236309356
13024252 1 17168152226039298265
13296908 3 17917993875677978222
14115302 16 18041281062333883543
14911166 2 18336536184390289615
15669948 3 18334573521047100562
16752209 62 18262506027352226539
16945 1 18408604734452108329
17804303 29 18341050804671626409
17870717 6 18341627974940343166
18175812 5 17846498149156211556
19141452 34 17917993932019416807
200 152 17240480312590452290
20279233 1 17988924461818472414
20510252 161 18342738468688627585
20645476 183 17385999572957621707
20645477 56 18337676295600577133
20871999 31 18409445873737644357
21029758 27 18186810209847383329
21061003 4 17418096546038163953
21079973 296 18342734148019826472
21501502 16 18339084911977683289
21728266 224 18262217968301694042
22213442 358 18341049734739648269
2297311 6 18341626918446745462
23402539 116 18411689981417610535
23557571 272 18272940397021337196
23559900 14 18342453687156583450
2748010 2 18120642798351836459
3082319 5 17385724711845327422
4175511 318 18040991800634102589
474 4 16807026535569594420
559249 180 18044085757778053890
573450 72 18187633670741411698
5902787 121 18337668745005548186
7364860 26 17909830173741063009
77492 1 17530963557923532888
81228 2 18339938025483938225
8809292 202 18410012169248958627
9709674 26 18342179908334519318

>  <PUBCHEM_SHAPE_MULTIPOLES>  (1) 
296.71
7.68
2.02
0.93
6.5
0.63
-0.02
-2.64
-1.03
-2.29
0.04
0.6
0
0.21

>  <PUBCHEM_SHAPE_SELFOVERLAP>  (1) 
621.338

>  <PUBCHEM_SHAPE_VOLUME>  (1) 
170.1

>  <PUBCHEM_COORDINATE_TYPE>  (1) 
2
5
10

$$$$
