33989
     RDKit          3D

 24 25  0  0  1  0  0  0  0  0999 V2000
   -7.0756    0.1271   -1.2511 Cl  0  0  0  0  0  0  0  0  0  0  0  0
   -6.3423   -2.6299   -0.6509 Cl  0  0  0  0  0  0  0  0  0  0  0  0
    0.3775    3.0265   -0.7430 O   0  0  0  0  0  0  0  0  0  0  0  0
    2.9105    3.0986   -0.0548 O   0  0  0  0  0  0  0  0  0  0  0  0
    5.8896   -2.4371    0.2005 O   0  0  0  0  0  0  0  0  0  0  0  0
   -5.7119   -0.5380    1.4918 O   0  0  0  0  0  0  0  0  0  0  0  0
    0.3809    0.9924    0.4401 N   0  0  0  0  0  0  0  0  0  0  0  0
    0.9928    1.7527   -0.6134 C   0  0  0  0  0  0  0  0  0  0  0  0
   -0.9762    0.6084    0.4362 C   0  0  0  0  0  0  0  0  0  0  0  0
    2.4571    1.9715   -0.2471 C   0  0  0  0  0  0  0  0  0  0  0  0
    3.3717    0.7963   -0.1266 C   0  0  0  0  0  0  0  0  0  0  0  0
   -1.7549    0.8090   -0.7036 C   0  0  0  0  0  0  0  0  0  0  0  0
   -1.5402    0.0293    1.5730 C   0  0  0  0  0  0  0  0  0  0  0  0
   -3.6613   -0.1486    0.4301 C   0  0  0  0  0  0  0  0  0  0  0  0
   -3.0975    0.4305   -0.7067 C   0  0  0  0  0  0  0  0  0  0  0  0
   -2.8827   -0.3493    1.5699 C   0  0  0  0  0  0  0  0  0  0  0  0
    3.1218   -0.3129   -0.9007 C   0  0  0  0  0  0  0  0  0  0  0  0
    4.4271    0.8705    0.7525 C   0  0  0  0  0  0  0  0  0  0  0  0
    3.9757   -1.4104   -0.7892 C   0  0  0  0  0  0  0  0  0  0  0  0
    5.2810   -0.2269    0.8638 C   0  0  0  0  0  0  0  0  0  0  0  0
    5.0553   -1.3672    0.0931 C   0  0  0  0  0  0  0  0  0  0  0  0
   -5.0614   -0.5421    0.4273 C   0  0  0  0  0  0  0  0  0  0  0  0
   -5.7390   -0.9806   -0.8733 C   0  0  0  0  0  0  0  0  0  0  0  0
    5.6019   -3.5698   -0.6181 C   0  0  0  0  0  0  0  0  0  0  0  0
  1 23  1  0
  2 23  1  0
  3  8  1  0
  4 10  2  0
  5 21  1  0
  5 24  1  0
  6 22  2  0
  7  8  1  0
  7  9  1  0
  8 10  1  0
  9 12  2  0
  9 13  1  0
 10 11  1  0
 11 17  2  0
 11 18  1  0
 12 15  1  0
 13 16  2  0
 14 15  2  0
 14 16  1  0
 14 22  1  0
 17 19  1  0
 18 20  2  0
 19 21  2  0
 20 21  1  0
 22 23  1  0
M  END
>  <PUBCHEM_COMPOUND_CID>  (1) 
33989

>  <PUBCHEM_CONFORMER_RMSD>  (1) 
1

>  <PUBCHEM_CONFORMER_DIVERSEORDER>  (1) 
1
94
188
461
31
251
439
388
408
7
110
136
64
89
8
486
174
25
122
530
263
123
285
160
173
533
166
375
145
309
489
35
133
225
194
26
384
472
132
453
38
159
9
150
203
236
337
575
524
12
6
119
77
450
356
24
351
104
565
266
10
230
456
14
30
15
446
290
246
84
93
20
374
116
73
2
96
167
16
36
532
187
47
158
44
45
164
180
23
34
178
464
521
310
117
97
199
28
529
162
43
274
4
5

>  <PUBCHEM_MMFF94_PARTIAL_CHARGES>  (1) 
34
1 -0.29
10 0.42
11 0.09
12 -0.15
13 -0.15
14 0.09
15 -0.15
16 -0.15
17 -0.15
18 -0.15
19 -0.15
2 -0.29
20 -0.15
21 0.08
22 0.42
23 0.64
24 0.28
26 0.4
27 0.15
28 0.15
29 0.15
3 -0.68
30 0.15
31 0.15
32 0.15
33 0.15
34 0.15
35 0.4
4 -0.57
5 -0.36
6 -0.57
7 -0.87
8 0.71
9 0.1

>  <PUBCHEM_EFFECTIVE_ROTOR_COUNT>  (1) 
7

>  <PUBCHEM_PHARMACOPHORE_FEATURES>  (1) 
9
1 3 acceptor
1 3 donor
1 4 acceptor
1 5 acceptor
1 6 acceptor
1 7 cation
1 7 donor
6 11 17 18 19 20 21 rings
6 9 12 13 14 15 16 rings

>  <PUBCHEM_HEAVY_ATOM_COUNT>  (1) 
24

>  <PUBCHEM_ATOM_DEF_STEREO_COUNT>  (1) 
0

>  <PUBCHEM_ATOM_UDEF_STEREO_COUNT>  (1) 
1

>  <PUBCHEM_BOND_DEF_STEREO_COUNT>  (1) 
0

>  <PUBCHEM_BOND_UDEF_STEREO_COUNT>  (1) 
0

>  <PUBCHEM_ISOTOPIC_ATOM_COUNT>  (1) 
0

>  <PUBCHEM_COMPONENT_COUNT>  (1) 
1

>  <PUBCHEM_CACTVS_TAUTO_COUNT>  (1) 
23

>  <PUBCHEM_CONFORMER_ID>  (1) 
000084C500000001

>  <PUBCHEM_MMFF94_ENERGY>  (1) 
82.6798

>  <PUBCHEM_FEATURE_SELFOVERLAP>  (1) 
45.721

>  <PUBCHEM_SHAPE_FINGERPRINT>  (1) 
10 15 13542455471380348010
10319926 262 15338571414249410958
10670039 82 15357963539536093143
10917259 69 17975122146770016797
11796584 16 17167866391491389202
11858739 19 18335417976210828033
12107183 9 18126862494727590081
12166972 35 18201721743350775546
12236239 1 17703794734126601081
12363563 72 18261968349387385800
12596602 18 17203612592204585442
12954195 1 17895469216580126341
13533116 47 18342459274429286888
1361 87 17677353665643732146
13782708 43 18186519925655501715
13885169 86 9871165264147950002
13911852 28 18339079281291122726
13914758 101 18343301436697740993
13955234 65 18269837687146435400
14211702 104 18269560605931882679
14251764 75 11526506455483805938
14341114 328 15841546375745992330
14528608 73 10665228176465291737
14565420 104 17630592630911815024
14866123 147 17975419014107344705
14931854 50 17313393254067236466
15183329 4 15647051547505377319
15188451 53 17703505515123402067
15475509 8 17095522860243392757
15629462 23 18198048189415312341
17857418 61 17988640830994824767
18222031 100 18271537428990338716
20028762 73 18131069312220711254
20567600 247 18271518801749246599
20645477 70 18334011731088543272
21279426 13 17822283587994307421
21307412 95 17895203177188532171
21315763 87 18272644654374357098
21315764 119 15864345814099222027
21401589 2 11599706347544120414
21521239 73 18189888885476512371
21585483 132 18269253794822274231
21682296 61 18409169892092670283
21781051 124 16081385076343249641
22061861 79 18261388979620790527
2215653 11 17967531289751439705
22224240 67 18200869699745201152
2303208 19 17313675948819290881
23559900 14 17240770630562187541
270888 7 9150589298531382934
2838139 119 9223234018307695794
2916195 48 11671788165487734871
29717793 49 18040995154645020229
3004659 81 17458348529086922924
3014063 24 18272929388909602222
3421961 26 18410577301568284952
3472631 163 10809352135091141746
34797466 226 16154283835051420373
3886686 26 15978384780699284454
4015057 19 18265335182840596873
46194498 28 17531250590936338212
465052 167 18413674612722193286
5104073 3 17489316329960111547
5207 123 18334016068694230564
5309563 4 18267023860823352494
531348 171 18412541012629922919
5326457 24 18198622331862979071
5718773 13 18337387120417788106
59682541 35 11671772815691292533
59682541 52 18334574685247157653
59755656 215 17530955866006351299
7970288 3 18339643339441630150
8988823 20 17917425471164064416
960060 61 17894920658639711332

>  <PUBCHEM_SHAPE_MULTIPOLES>  (1) 
469.19
18.03
2.96
1.26
11.73
0.89
0.31
14.05
-1.93
-4.57
-0.9
1.21
0.05
0.24

>  <PUBCHEM_SHAPE_SELFOVERLAP>  (1) 
978.351

>  <PUBCHEM_SHAPE_VOLUME>  (1) 
267.9

>  <PUBCHEM_COORDINATE_TYPE>  (1) 
2
5
10

$$$$
