33984
     RDKit          3D

 14 14  0  0  1  0  0  0  0  0999 V2000
    0.0686   -0.9224    0.5788 N   0  0  0  0  0  0  0  0  0  0  0  0
   -3.3630    0.3995    0.0021 N   0  0  0  0  0  0  0  0  0  0  0  0
   -1.2128   -0.3558    0.9007 C   0  0  0  0  0  0  0  0  0  0  0  0
   -2.0544   -0.1504   -0.3502 C   0  0  0  0  0  0  0  0  0  0  0  0
    0.2238   -2.3806    0.6096 C   0  0  0  0  0  0  0  0  0  0  0  0
    1.1703   -0.1144    0.2505 C   0  0  0  0  0  0  0  0  0  0  0  0
    0.1307   -2.9722   -0.7867 C   0  0  0  0  0  0  0  0  0  0  0  0
   -4.1878    0.5623   -1.1945 C   0  0  0  0  0  0  0  0  0  0  0  0
   -3.2104    1.6779    0.6956 C   0  0  0  0  0  0  0  0  0  0  0  0
    2.4060   -0.6969   -0.0447 C   0  0  0  0  0  0  0  0  0  0  0  0
    1.0367    1.2763    0.2177 C   0  0  0  0  0  0  0  0  0  0  0  0
    3.4998    0.1054   -0.3699 C   0  0  0  0  0  0  0  0  0  0  0  0
    2.1306    2.0784   -0.1076 C   0  0  0  0  0  0  0  0  0  0  0  0
    3.3621    1.4929   -0.4014 C   0  0  0  0  0  0  0  0  0  0  0  0
  1  3  1  0
  1  5  1  0
  1  6  1  0
  2  4  1  0
  2  8  1  0
  2  9  1  0
  3  4  1  0
  5  7  1  0
  6 10  2  0
  6 11  1  0
 10 12  1  0
 11 13  2  0
 12 14  2  0
 13 14  1  0
M  END
>  <PUBCHEM_COMPOUND_CID>  (1) 
33984

>  <PUBCHEM_CONFORMER_RMSD>  (1) 
0.6

>  <PUBCHEM_CONFORMER_DIVERSEORDER>  (1) 
10
37
36
34
38
43
51
25
63
55
66
59
54
26
27
47
4
40
16
14
21
49
46
53
28
68
41
18
24
19
30
60
48
58
23
64
42
31
29
65
50
5
11
20
17
61
12
7
39
35
22
9
8
45
15
67
56
13
6
52
33
57
62
1
2
44
3
32

>  <PUBCHEM_MMFF94_PARTIAL_CHARGES>  (1) 
18
1 -0.84
10 -0.15
11 -0.15
12 -0.15
13 -0.15
14 -0.15
2 -0.81
3 0.37
30 0.15
31 0.15
32 0.15
33 0.15
34 0.15
4 0.27
5 0.37
6 0.1
8 0.27
9 0.27

>  <PUBCHEM_EFFECTIVE_ROTOR_COUNT>  (1) 
5

>  <PUBCHEM_PHARMACOPHORE_FEATURES>  (1) 
3
1 1 cation
1 2 cation
6 6 10 11 12 13 14 rings

>  <PUBCHEM_HEAVY_ATOM_COUNT>  (1) 
14

>  <PUBCHEM_ATOM_DEF_STEREO_COUNT>  (1) 
0

>  <PUBCHEM_ATOM_UDEF_STEREO_COUNT>  (1) 
0

>  <PUBCHEM_BOND_DEF_STEREO_COUNT>  (1) 
0

>  <PUBCHEM_BOND_UDEF_STEREO_COUNT>  (1) 
0

>  <PUBCHEM_ISOTOPIC_ATOM_COUNT>  (1) 
0

>  <PUBCHEM_COMPONENT_COUNT>  (1) 
1

>  <PUBCHEM_CACTVS_TAUTO_COUNT>  (1) 
1

>  <PUBCHEM_CONFORMER_ID>  (1) 
000084C00000000A

>  <PUBCHEM_MMFF94_ENERGY>  (1) 
47.1304

>  <PUBCHEM_FEATURE_SELFOVERLAP>  (1) 
15.223

>  <PUBCHEM_SHAPE_FINGERPRINT>  (1) 
1 1 18408322155352492926
10608611 8 18193842780312475312
10980938 120 18338232640041574553
11471102 20 18335416833570218300
12138202 97 18197788897543011518
12251169 10 7997964700502041025
12500047 106 18267866271371423184
12730499 353 18187929439833350819
13380535 76 18335421257486851099
13464514 151 18120102688443768425
13618510 140 18409730677103019045
14251717 144 18339355271393986951
14911166 2 18410865360729392852
15099037 51 18408890603512808798
15279308 100 18337401546969432852
15775835 57 18333730238504325461
16945 1 18187360978629929794
1741750 31 18339363097009049144
18186145 218 18411707581666276372
201361 129 18268156348861601345
20645477 56 18122350335230151288
20645477 70 18337384929799162391
21069387 34 16629985264729091748
21499 59 18409163324966082687
21501502 16 18047185530264525436
21524375 3 18334572464469425435
21639500 275 18336253570693383397
22713019 99 18200884972174080454
231179 274 17676480623193181181
23382010 3 18129370661027773075
23402539 116 18201717332419634964
23402655 69 18413105061130069061
23559900 14 18199478817699737396
23598291 2 17771343063870758527
25 1 18336271158320664409
2748010 2 18264784309680927898
298252 57 18409729590566003386
3060560 45 18411129212806649615
58051976 378 18342735213504486615
7364860 26 18196656194223257983
81228 2 17616247426361259299
81539 233 18260545585140275335
8272917 22 18268994177106783229

>  <PUBCHEM_SHAPE_MULTIPOLES>  (1) 
278.15
6.41
2.62
0.94
3.75
1.65
-0.06
-3.97
-1.68
-0.66
-0.15
0.55
0.09
-0.22

>  <PUBCHEM_SHAPE_SELFOVERLAP>  (1) 
551.635

>  <PUBCHEM_SHAPE_VOLUME>  (1) 
165.9

>  <PUBCHEM_COORDINATE_TYPE>  (1) 
2
5
10

$$$$
