33991
     RDKit          3D

 28 30  0  0  1  0  0  0  0  0999 V2000
    7.1016    2.7364   -1.3949 Cl  0  0  0  0  0  0  0  0  0  0  0  0
    6.0372    3.6708    1.1531 Cl  0  0  0  0  0  0  0  0  0  0  0  0
    1.1612   -4.0857    0.3455 O   0  0  0  0  0  0  0  0  0  0  0  0
   -1.3730   -4.2404   -0.3267 O   0  0  0  0  0  0  0  0  0  0  0  0
    6.6410    0.6796    0.9251 O   0  0  0  0  0  0  0  0  0  0  0  0
    1.0346   -1.9305   -0.6028 N   0  0  0  0  0  0  0  0  0  0  0  0
    0.4659   -2.8471    0.3649 C   0  0  0  0  0  0  0  0  0  0  0  0
   -1.9744   -1.9943    0.0070 C   0  0  0  0  0  0  0  0  0  0  0  0
   -3.8160    0.1013    0.0313 C   0  0  0  0  0  0  0  0  0  0  0  0
   -1.0148   -3.0869   -0.0060 C   0  0  0  0  0  0  0  0  0  0  0  0
    2.1749   -1.1720   -0.3842 C   0  0  0  0  0  0  0  0  0  0  0  0
   -1.8060   -0.9277    0.8902 C   0  0  0  0  0  0  0  0  0  0  0  0
   -3.0636   -2.0129   -0.8642 C   0  0  0  0  0  0  0  0  0  0  0  0
   -4.7718    1.1874    0.0436 C   0  0  0  0  0  0  0  0  0  0  0  0
   -2.7269    0.1199    0.9024 C   0  0  0  0  0  0  0  0  0  0  0  0
   -3.9844   -0.9652   -0.8520 C   0  0  0  0  0  0  0  0  0  0  0  0
    2.5642   -0.1756   -1.2980 C   0  0  0  0  0  0  0  0  0  0  0  0
    2.9711   -1.3794    0.7569 C   0  0  0  0  0  0  0  0  0  0  0  0
    4.4879    0.3670    0.0591 C   0  0  0  0  0  0  0  0  0  0  0  0
    3.7110    0.5873   -1.0782 C   0  0  0  0  0  0  0  0  0  0  0  0
    4.1180   -0.6163    0.9767 C   0  0  0  0  0  0  0  0  0  0  0  0
   -5.8863    1.1262    0.8805 C   0  0  0  0  0  0  0  0  0  0  0  0
   -4.5787    2.2961   -0.7806 C   0  0  0  0  0  0  0  0  0  0  0  0
    5.6831    1.1629    0.2887 C   0  0  0  0  0  0  0  0  0  0  0  0
   -6.8076    2.1733    0.8927 C   0  0  0  0  0  0  0  0  0  0  0  0
   -5.5002    3.3433   -0.7681 C   0  0  0  0  0  0  0  0  0  0  0  0
   -6.6146    3.2819    0.0686 C   0  0  0  0  0  0  0  0  0  0  0  0
    5.7666    2.6005   -0.2306 C   0  0  0  0  0  0  0  0  0  0  0  0
  1 28  1  0
  2 28  1  0
  3  7  1  0
  4 10  2  0
  5 24  2  0
  6  7  1  0
  6 11  1  0
  7 10  1  0
  8 10  1  0
  8 12  2  0
  8 13  1  0
  9 14  1  0
  9 15  2  0
  9 16  1  0
 11 17  2  0
 11 18  1  0
 12 15  1  0
 13 16  2  0
 14 22  2  0
 14 23  1  0
 17 20  1  0
 18 21  2  0
 19 20  2  0
 19 21  1  0
 19 24  1  0
 22 25  1  0
 23 26  2  0
 24 28  1  0
 25 27  2  0
 26 27  1  0
M  END
>  <PUBCHEM_COMPOUND_CID>  (1) 
33991

>  <PUBCHEM_CONFORMER_RMSD>  (1) 
1

>  <PUBCHEM_CONFORMER_DIVERSEORDER>  (1) 
1
454
248
579
63
50
157
441
90
162
423
596
521
108
591
112
189
131
9
603
33
121
445
27
35
152
107
193
92
105
473
85
69
235
141
534
487
558
25
70
212
358
176
124
317
46
155
4
383
180
23
307
139
15
83
172
26
103
270
115
84
41
262
283
137
122
82
249
213
14
205
277
38
260
373
58
170
19
233
12
7
39
76
3
110
497
135
151
5
542
377
6
2
89
99
340
18
48
10
478

>  <PUBCHEM_MMFF94_PARTIAL_CHARGES>  (1) 
41
1 -0.29
10 0.42
11 0.1
12 -0.15
13 -0.15
15 -0.15
16 -0.15
17 -0.15
18 -0.15
19 0.09
2 -0.29
20 -0.15
21 -0.15
22 -0.15
23 -0.15
24 0.42
25 -0.15
26 -0.15
27 -0.15
28 0.64
3 -0.68
30 0.4
31 0.15
32 0.15
33 0.15
34 0.15
35 0.15
36 0.15
37 0.15
38 0.15
39 0.15
4 -0.57
40 0.15
41 0.4
42 0.15
43 0.15
44 0.15
5 -0.57
6 -0.87
7 0.71
8 0.09

>  <PUBCHEM_EFFECTIVE_ROTOR_COUNT>  (1) 
7

>  <PUBCHEM_PHARMACOPHORE_FEATURES>  (1) 
9
1 3 acceptor
1 3 donor
1 4 acceptor
1 5 acceptor
1 6 cation
1 6 donor
6 11 17 18 19 20 21 rings
6 14 22 23 25 26 27 rings
6 8 9 12 13 15 16 rings

>  <PUBCHEM_HEAVY_ATOM_COUNT>  (1) 
28

>  <PUBCHEM_ATOM_DEF_STEREO_COUNT>  (1) 
0

>  <PUBCHEM_ATOM_UDEF_STEREO_COUNT>  (1) 
1

>  <PUBCHEM_BOND_DEF_STEREO_COUNT>  (1) 
0

>  <PUBCHEM_BOND_UDEF_STEREO_COUNT>  (1) 
0

>  <PUBCHEM_ISOTOPIC_ATOM_COUNT>  (1) 
0

>  <PUBCHEM_COMPONENT_COUNT>  (1) 
1

>  <PUBCHEM_CACTVS_TAUTO_COUNT>  (1) 
23

>  <PUBCHEM_CONFORMER_ID>  (1) 
000084C700000001

>  <PUBCHEM_MMFF94_ENERGY>  (1) 
93.1405

>  <PUBCHEM_FEATURE_SELFOVERLAP>  (1) 
45.72

>  <PUBCHEM_SHAPE_FINGERPRINT>  (1) 
10050765 1 18410855426270804643
10673678 19 18268713801784215955
10675989 125 18196093231369494241
10864689 126 18341617027670624480
10939801 23 18186809101509256756
11135609 127 18121491355346943037
11135609 201 18409729561091984979
11720765 8 17769949982623387606
12107183 9 18262787490024862610
12422481 6 17386850509015769021
12633257 1 15574726810564672043
12895836 83 18411698790348120393
12895837 130 18263088858419428956
12988421 55 17749378299828258222
13540713 5 18268126709710010407
1361 87 12391211851920180997
13782708 43 12107786319605612656
13911852 28 8862648106637535819
13965767 371 17968090889678434390
14251764 30 9007055772774036640
14251764 75 18410293601138670921
14294032 229 18271812379959946227
14395042 24 17896894355875742131
14429114 114 18195526987682974473
14617042 71 18270971125269762209
15064981 113 17131559332352967068
15198563 99 17698432570664245391
15439362 3 18340489967906464214
15513586 35 16592262317559826588
15519825 34 16226625103490358913
155225 6 18337675217869981337
15803439 3 16630526245450229678
16120349 189 18335138700125459269
16126227 98 18342179981802202225
18393751 57 18186240615627222987
19304671 126 17845947225022100700
19438510 23 18259703406324753720
20691028 202 18411134753346603296
20715895 44 18411418371769866512
21033648 29 18261688003327827695
21298829 104 18409168813665885389
21307412 95 9439139615281277459
21365058 113 17121995591347611903
21585481 104 14548747183396527361
21682296 61 8790591616644034481
23522609 53 17460040802669625548
23569914 2 17099146777713004189
270888 7 18410856555355384785
2748736 6 18411128130459365093
2838139 119 18410849949817269342
3459 39 18339343219699917336
3472631 163 18272369746186130103
376196 1 18413388735299288382
437795 171 18044650897833292797
437795 70 15195286370590643233
474113 269 11458716040988703369
484985 159 9871210318602571139
5104073 3 18040432191801884034
5219985 13 18411702075724184903
56633871 153 11242263973661720577
57724786 102 18261667082832473938
5951187 136 17986117301142352093
6034566 193 18412549799632038979
6058803 2 18265870562714474242
6327066 14 18410575084736932143
636775 72 18052252097390203392
6697151 62 16961801141227603591
7288768 16 18041000635503727827
7808743 9 18410852191711245531
7970288 3 9151169852806592873
9849439 229 18408887317398655575
9896288 288 18043538428737285322
9981440 41 18335142020088563891

>  <PUBCHEM_SHAPE_MULTIPOLES>  (1) 
557.38
19.82
5.21
1.17
6.82
1.11
0.07
-28.34
-1.07
-1.31
0.1
0.71
-0.41
-0.42

>  <PUBCHEM_SHAPE_SELFOVERLAP>  (1) 
1187.393

>  <PUBCHEM_SHAPE_VOLUME>  (1) 
310

>  <PUBCHEM_COORDINATE_TYPE>  (1) 
2
5
10

$$$$
