33990
     RDKit          3D

 29 31  0  0  1  0  0  0  0  0999 V2000
   -6.7342   -2.6418   -1.4578 Cl  0  0  0  0  0  0  0  0  0  0  0  0
   -5.6091   -3.6165    1.0487 Cl  0  0  0  0  0  0  0  0  0  0  0  0
   -1.0950    4.3565    0.4701 O   0  0  0  0  0  0  0  0  0  0  0  0
    4.9637   -0.5604   -0.0123 O   0  0  0  0  0  0  0  0  0  0  0  0
    1.4237    4.6375   -0.2195 O   0  0  0  0  0  0  0  0  0  0  0  0
   -6.3405   -0.6475    0.9283 O   0  0  0  0  0  0  0  0  0  0  0  0
   -0.8670    2.2537   -0.5529 N   0  0  0  0  0  0  0  0  0  0  0  0
   -0.3489    3.1480    0.4441 C   0  0  0  0  0  0  0  0  0  0  0  0
   -1.9891    1.4241   -0.3475 C   0  0  0  0  0  0  0  0  0  0  0  0
    2.1234    2.4113    0.0502 C   0  0  0  0  0  0  0  0  0  0  0  0
    1.0902    3.4901    0.0725 C   0  0  0  0  0  0  0  0  0  0  0  0
   -2.7646    1.5725    0.8023 C   0  0  0  0  0  0  0  0  0  0  0  0
   -2.3241    0.4565   -1.2947 C   0  0  0  0  0  0  0  0  0  0  0  0
   -4.2102   -0.2144    0.0578 C   0  0  0  0  0  0  0  0  0  0  0  0
    1.9782    1.3444    0.9062 C   0  0  0  0  0  0  0  0  0  0  0  0
    3.1780    2.5273   -0.8254 C   0  0  0  0  0  0  0  0  0  0  0  0
   -3.8751    0.7531    1.0051 C   0  0  0  0  0  0  0  0  0  0  0  0
   -3.4347   -0.3628   -1.0920 C   0  0  0  0  0  0  0  0  0  0  0  0
    4.0241    0.4238    0.0093 C   0  0  0  0  0  0  0  0  0  0  0  0
    2.9422    0.3364    0.8854 C   0  0  0  0  0  0  0  0  0  0  0  0
    4.1420    1.5193   -0.8461 C   0  0  0  0  0  0  0  0  0  0  0  0
   -5.3689   -1.0679    0.2686 C   0  0  0  0  0  0  0  0  0  0  0  0
    4.5217   -1.8728   -0.0066 C   0  0  0  0  0  0  0  0  0  0  0  0
   -5.3960   -2.4891   -0.2992 C   0  0  0  0  0  0  0  0  0  0  0  0
    3.4798   -2.2364   -0.8405 C   0  0  0  0  0  0  0  0  0  0  0  0
    5.1327   -2.7858    0.8337 C   0  0  0  0  0  0  0  0  0  0  0  0
    3.0337   -3.5581   -0.8340 C   0  0  0  0  0  0  0  0  0  0  0  0
    4.6867   -4.1074    0.8402 C   0  0  0  0  0  0  0  0  0  0  0  0
    3.6371   -4.4936    0.0063 C   0  0  0  0  0  0  0  0  0  0  0  0
  1 24  1  0
  2 24  1  0
  3  8  1  0
  4 19  1  0
  4 23  1  0
  5 11  2  0
  6 22  2  0
  7  8  1  0
  7  9  1  0
  8 11  1  0
  9 12  2  0
  9 13  1  0
 10 11  1  0
 10 15  2  0
 10 16  1  0
 12 17  1  0
 13 18  2  0
 14 17  2  0
 14 18  1  0
 14 22  1  0
 15 20  1  0
 16 21  2  0
 19 20  2  0
 19 21  1  0
 22 24  1  0
 23 25  2  0
 23 26  1  0
 25 27  1  0
 26 28  2  0
 27 29  2  0
 28 29  1  0
M  END
>  <PUBCHEM_COMPOUND_CID>  (1) 
33990

>  <PUBCHEM_CONFORMER_RMSD>  (1) 
1

>  <PUBCHEM_CONFORMER_DIVERSEORDER>  (1) 
3
217
188
159
99
137
182
181
22
44
57
156
215
70
135
199
203
93
216
147
197
90
86
34
185
192
23
150
114
91
42
166
129
58
32
126
212
10
76
53
169
111
148
174
179
17
201
230
115
89
40
30
134
228
72
109
54
38
12
21
221
162
43
95
132
175
49
110
227
184
220
7
171
100
153
164
112
213
79
19
146
81
46
82
167
50
198
61
98
117
186
41
194
36
206
136
229
223
15
71
219
9
138
142
139
176
66
51
202
63
165
187
69
101
16
97
84
207
178
13
123
143
39
28
183
140
116
113
152
145
73
75
35
193
108
190
224
125
196
133
4
26
102
154
124
25
94
127
45
33
189
118
210
60
173
78
48
68
85
67
104
195
172
80
5
65
158
204
226
6
168
141
225
2
209
128
18
88
222
151
144
131
191
55
155
27
96
161
149
107
29
163
180
120
214
121
105
211
205
106
157
160
8
47
20
200
177
1
122
14
64
62
83
24
119
218
77
130
52
208
74
103
56
31
87
170
37
92
59
11

>  <PUBCHEM_MMFF94_PARTIAL_CHARGES>  (1) 
44
1 -0.29
10 0.09
11 0.42
12 -0.15
13 -0.15
14 0.09
15 -0.15
16 -0.15
17 -0.15
18 -0.15
19 0.08
2 -0.29
20 -0.15
21 -0.15
22 0.42
23 0.08
24 0.64
25 -0.15
26 -0.15
27 -0.15
28 -0.15
29 -0.15
3 -0.68
31 0.4
32 0.15
33 0.15
34 0.15
35 0.15
36 0.15
37 0.15
38 0.15
39 0.15
4 -0.17
40 0.4
42 0.15
43 0.15
44 0.15
45 0.15
46 0.15
5 -0.57
6 -0.57
7 -0.87
8 0.71
9 0.1

>  <PUBCHEM_EFFECTIVE_ROTOR_COUNT>  (1) 
8

>  <PUBCHEM_PHARMACOPHORE_FEATURES>  (1) 
10
1 3 acceptor
1 3 donor
1 4 acceptor
1 5 acceptor
1 6 acceptor
1 7 cation
1 7 donor
6 10 15 16 19 20 21 rings
6 23 25 26 27 28 29 rings
6 9 12 13 14 17 18 rings

>  <PUBCHEM_HEAVY_ATOM_COUNT>  (1) 
29

>  <PUBCHEM_ATOM_DEF_STEREO_COUNT>  (1) 
0

>  <PUBCHEM_ATOM_UDEF_STEREO_COUNT>  (1) 
1

>  <PUBCHEM_BOND_DEF_STEREO_COUNT>  (1) 
0

>  <PUBCHEM_BOND_UDEF_STEREO_COUNT>  (1) 
0

>  <PUBCHEM_ISOTOPIC_ATOM_COUNT>  (1) 
0

>  <PUBCHEM_COMPONENT_COUNT>  (1) 
1

>  <PUBCHEM_CACTVS_TAUTO_COUNT>  (1) 
23

>  <PUBCHEM_CONFORMER_ID>  (1) 
000084C600000003

>  <PUBCHEM_MMFF94_ENERGY>  (1) 
100.4329

>  <PUBCHEM_FEATURE_SELFOVERLAP>  (1) 
50.797

>  <PUBCHEM_SHAPE_FINGERPRINT>  (1) 
10622 236 18413103944585972753
10928967 22 18272649069183713942
11014199 57 18266740177958774750
11146346 29 18268440190344941279
117089 54 18411144618849812183
12107183 9 18270695156150643425
12422481 6 17485655857634213688
12559416 138 18270664378072544390
12655387 17 18123485895283437589
13533116 47 18125722542167652769
13553639 21 18334304175296866619
1361 2 18195808689690740227
13692114 37 17620465144782071104
13911852 28 18411415120722294413
14429380 30 18337389323577657922
14863182 85 18265891548615187708
14866123 147 18052257293899562121
15320291 9 17762613988991957335
15320467 1 18266742574261187659
15728490 83 17975979756452870219
15803439 3 16812678119546270820
16728433 281 8173618795991520023
17492 89 18338233748470190980
17909252 39 18411698777589825832
19301676 85 18049154476644397287
19301679 30 18411427176748475897
19319366 153 17981605188758659476
20771845 38 16899617113449653393
20775530 9 18270956843758658276
21315759 227 18191577550431448294
21585483 132 17843102952420344815
23569914 152 17977909482044813935
24893989 43 17412469408652426143
25222932 49 18342459291735451686
2835820 90 17315655138374579563
2838139 119 10015600380416439129
345986 75 17846504729141587857
397830 11 10375324396210676589
4394409 98 16528043773139186606
4435113 14 17606131808197054043
44880168 125 16988280859693701934
46194498 28 17676488393031925228
50009960 94 18116130234859655914
5047190 2 17842547720211930919
513202 73 18189630341304062097
5309563 4 18412826880361320566
56633871 153 18268437832597324761
613672 6 18194092197510766256
6422251 121 18261110725738339331
6431902 208 18195236729481747590
70251023 43 18335983146641989801
7970288 3 18410292497326905059
9555976 147 17561095687774875171

>  <PUBCHEM_SHAPE_MULTIPOLES>  (1) 
572.09
15.63
6.8
1.16
17.2
0.85
-0.1
19.16
0.25
-5.59
0.44
0.76
0.37
-1.08

>  <PUBCHEM_SHAPE_SELFOVERLAP>  (1) 
1219.598

>  <PUBCHEM_SHAPE_VOLUME>  (1) 
318.5

>  <PUBCHEM_COORDINATE_TYPE>  (1) 
2
5
10

$$$$
