34004
     RDKit          3D

 21 22  0  0  0  0  0  0  0  0999 V2000
    0.2642   -2.8534    0.0925 Br  0  0  0  0  0  0  0  0  0  0  0  0
    0.2644    2.8536    0.1010 Br  0  0  0  0  0  0  0  0  0  0  0  0
   -0.8348    0.0026   -2.6865 Br  0  0  0  0  0  0  0  0  0  0  0  0
   -0.4735   -0.0072    3.0569 Br  0  0  0  0  0  0  0  0  0  0  0  0
    3.6015    2.8808   -0.1343 Br  0  0  0  0  0  0  0  0  0  0  0  0
    3.6014   -2.8803   -0.1375 Br  0  0  0  0  0  0  0  0  0  0  0  0
    5.2684    0.0002   -0.2525 Br  0  0  0  0  0  0  0  0  0  0  0  0
   -4.1894    0.0017   -2.4098 Br  0  0  0  0  0  0  0  0  0  0  0  0
   -5.5532    0.0001    0.7027 Br  0  0  0  0  0  0  0  0  0  0  0  0
    0.5625    0.0002    0.0782 C   0  0  0  0  0  0  0  0  0  0  0  0
   -0.8902    0.0000    0.1816 C   0  0  0  0  0  0  0  0  0  0  0  0
    1.2601   -1.2077    0.0271 C   0  0  0  0  0  0  0  0  0  0  0  0
    1.2600    1.2083    0.0305 C   0  0  0  0  0  0  0  0  0  0  0  0
   -1.6863    0.0018   -0.9638 C   0  0  0  0  0  0  0  0  0  0  0  0
   -1.4841   -0.0017    1.4437 C   0  0  0  0  0  0  0  0  0  0  0  0
    2.6514    1.2083   -0.0681 C   0  0  0  0  0  0  0  0  0  0  0  0
    2.6515   -1.2076   -0.0712 C   0  0  0  0  0  0  0  0  0  0  0  0
    3.3472    0.0004   -0.1187 C   0  0  0  0  0  0  0  0  0  0  0  0
   -3.0763    0.0016   -0.8471 C   0  0  0  0  0  0  0  0  0  0  0  0
   -2.8743   -0.0016    1.5603 C   0  0  0  0  0  0  0  0  0  0  0  0
   -3.6703   -0.0001    0.4150 C   0  0  0  0  0  0  0  0  0  0  0  0
  1 12  1  0
  2 13  1  0
  3 14  1  0
  4 15  1  0
  5 16  1  0
  6 17  1  0
  7 18  1  0
  8 19  1  0
  9 21  1  0
 10 11  1  0
 10 12  2  0
 10 13  1  0
 11 14  2  0
 11 15  1  0
 12 17  1  0
 13 16  2  0
 14 19  1  0
 15 20  2  0
 16 18  1  0
 17 18  2  0
 19 21  2  0
 20 21  1  0
M  END
>  <PUBCHEM_COMPOUND_CID>  (1) 
34004

>  <PUBCHEM_CONFORMER_RMSD>  (1) 
0.6

>  <PUBCHEM_CONFORMER_DIVERSEORDER>  (1) 
1

>  <PUBCHEM_MMFF94_PARTIAL_CHARGES>  (1) 
20
1 -0.11
12 0.11
13 0.11
14 0.11
15 0.11
16 0.11
17 0.11
18 0.11
19 0.11
2 -0.11
20 -0.15
21 0.11
22 0.15
3 -0.11
4 -0.11
5 -0.11
6 -0.11
7 -0.11
8 -0.11
9 -0.11

>  <PUBCHEM_EFFECTIVE_ROTOR_COUNT>  (1) 
1

>  <PUBCHEM_PHARMACOPHORE_FEATURES>  (1) 
11
1 1 hydrophobe
1 2 hydrophobe
1 3 hydrophobe
1 4 hydrophobe
1 5 hydrophobe
1 6 hydrophobe
1 7 hydrophobe
1 8 hydrophobe
1 9 hydrophobe
6 10 12 13 16 17 18 rings
6 11 14 15 19 20 21 rings

>  <PUBCHEM_HEAVY_ATOM_COUNT>  (1) 
21

>  <PUBCHEM_ATOM_DEF_STEREO_COUNT>  (1) 
0

>  <PUBCHEM_ATOM_UDEF_STEREO_COUNT>  (1) 
0

>  <PUBCHEM_BOND_DEF_STEREO_COUNT>  (1) 
0

>  <PUBCHEM_BOND_UDEF_STEREO_COUNT>  (1) 
0

>  <PUBCHEM_ISOTOPIC_ATOM_COUNT>  (1) 
0

>  <PUBCHEM_COMPONENT_COUNT>  (1) 
1

>  <PUBCHEM_CACTVS_TAUTO_COUNT>  (1) 
1

>  <PUBCHEM_CONFORMER_ID>  (1) 
000084D400000001

>  <PUBCHEM_MMFF94_ENERGY>  (1) 
73.9537

>  <PUBCHEM_FEATURE_SELFOVERLAP>  (1) 
55.834

>  <PUBCHEM_SHAPE_FINGERPRINT>  (1) 
10863032 1 18341053037711930243
11582403 64 17246631074809299456
11725454 13 17532907580143565765
12236239 1 17703793612965855563
12403259 415 17748823042277094469
12553582 1 18412825755707610398
12969540 114 18261103119039352564
13009979 54 17417816089032486398
13140716 1 18266741471287087728
13583140 156 18128828615060067849
13911987 19 18334303093359155140
16945 1 18410579483458604834
17357779 13 18261392204867254564
1813 80 17914348887637910382
18186145 218 18412541041539419180
19930381 70 18408604785738385041
200 152 18272088275298534897
20511986 3 17704061898045733632
20645477 70 18334577910651688458
20691752 17 17916564549385400369
21033648 29 17676761050208629181
23175994 123 18187092745042985628
2334 1 17978795941640314638
23402539 116 18131632287605357676
23419403 2 17967809410232111518
23526113 38 17968925384659404192
23557571 272 16877664556325413821
23558518 356 17825399474729276840
23559900 14 16588580912465349354
23598291 2 17989485225475265285
2748010 2 18122351448211775476
3286 77 18261118417565472790
350125 39 17545048559610720168
4340502 62 18341058505437588843
474 4 18199747110767539568
5265222 85 16298688156848626314
633830 44 18201170913425973613
77492 1 17703793617276647105
8272917 22 18341905056297111879
9981440 41 16479906561623173624

>  <PUBCHEM_SHAPE_MULTIPOLES>  (1) 
485.65
9.09
2.72
2.2
2.28
0
-0.12
0
1.26
-3.94
0.04
2.64
0
0.01

>  <PUBCHEM_SHAPE_SELFOVERLAP>  (1) 
918.163

>  <PUBCHEM_SHAPE_VOLUME>  (1) 
304.9

>  <PUBCHEM_COORDINATE_TYPE>  (1) 
2
5
10

$$$$
