34000
     RDKit          3D

 25 26  0  0  1  0  0  0  0  0999 V2000
    1.1646    0.3011    1.8132 O   0  0  0  0  0  0  0  0  0  0  0  0
   -1.3848    0.2472    1.0218 O   0  0  0  0  0  0  0  0  0  0  0  0
   -0.5522    1.8027   -0.4532 O   0  0  0  0  0  0  0  0  0  0  0  0
   -4.7673    0.8774   -0.3029 N   0  0  0  0  0  0  0  0  0  0  0  0
    0.9204    0.0507    0.4140 C   0  0  0  0  0  0  0  0  0  0  0  0
   -3.4695    0.2135   -0.1947 C   0  0  0  0  0  0  0  0  0  0  0  0
    2.0686    0.6066   -0.4318 C   0  0  0  0  0  0  0  0  0  0  0  0
    0.7502   -1.4525    0.1825 C   0  0  0  0  0  0  0  0  0  0  0  0
   -2.6672    0.8564    0.9372 C   0  0  0  0  0  0  0  0  0  0  0  0
   -0.3928    0.8235    0.2658 C   0  0  0  0  0  0  0  0  0  0  0  0
   -3.6642   -1.2866    0.0279 C   0  0  0  0  0  0  0  0  0  0  0  0
    1.7896    1.0719   -1.6961 C   0  0  0  0  0  0  0  0  0  0  0  0
    1.4499   -2.3254    0.9835 C   0  0  0  0  0  0  0  0  0  0  0  0
    3.3353    0.6201    0.1050 C   0  0  0  0  0  0  0  0  0  0  0  0
   -0.0961   -1.8735   -0.8173 C   0  0  0  0  0  0  0  0  0  0  0  0
    1.2722    1.6884    2.0623 C   0  0  0  0  0  0  0  0  0  0  0  0
   -4.5922    2.3214   -0.4569 C   0  0  0  0  0  0  0  0  0  0  0  0
   -5.5286    0.3327   -1.4268 C   0  0  0  0  0  0  0  0  0  0  0  0
    2.8359    1.5787   -2.4668 C   0  0  0  0  0  0  0  0  0  0  0  0
    1.2947   -3.6956    0.7729 C   0  0  0  0  0  0  0  0  0  0  0  0
    4.3814    1.1271   -0.6657 C   0  0  0  0  0  0  0  0  0  0  0  0
   -0.2513   -3.2436   -1.0278 C   0  0  0  0  0  0  0  0  0  0  0  0
    4.1317    1.6064   -1.9517 C   0  0  0  0  0  0  0  0  0  0  0  0
    0.4442   -4.1546   -0.2327 C   0  0  0  0  0  0  0  0  0  0  0  0
    1.5277    1.9060    3.5384 C   0  0  0  0  0  0  0  0  0  0  0  0
  1  5  1  0
  1 16  1  0
  2  9  1  0
  2 10  1  0
  3 10  2  0
  4  6  1  0
  4 17  1  0
  4 18  1  0
  5  7  1  0
  5  8  1  0
  5 10  1  0
  6  9  1  0
  6 11  1  0
  7 12  2  0
  7 14  1  0
  8 13  2  0
  8 15  1  0
 12 19  1  0
 13 20  1  0
 14 21  2  0
 15 22  2  0
 16 25  1  0
 19 23  2  0
 20 24  2  0
 21 23  1  0
 22 24  1  0
M  END
>  <PUBCHEM_COMPOUND_CID>  (1) 
34000

>  <PUBCHEM_CONFORMER_RMSD>  (1) 
1

>  <PUBCHEM_CONFORMER_DIVERSEORDER>  (1) 
11
45
62
14
51
77
48
8
78
74
67
72
47
83
35
65
37
55
84
56
31
79
64
26
71
18
13
16
69
76
19
70
30
61
44
60
50
12
52
32
42
73
43
2
34
58
33
59
24
7
66
68
22
54
15
10
82
20
46
80
29
75
9
39
25
40
38
49
27
5
41
36
17
6
57
81
28
1
21
53
63
4
3
23

>  <PUBCHEM_MMFF94_PARTIAL_CHARGES>  (1) 
33
1 -0.56
10 0.66
12 -0.15
13 -0.15
14 -0.15
15 -0.15
16 0.28
17 0.27
18 0.27
19 -0.15
2 -0.43
20 -0.15
21 -0.15
22 -0.15
23 -0.15
24 -0.15
3 -0.57
32 0.15
33 0.15
34 0.15
35 0.15
4 -0.81
44 0.15
45 0.15
46 0.15
47 0.15
48 0.15
49 0.15
5 0.63
6 0.27
7 -0.14
8 -0.14
9 0.28

>  <PUBCHEM_EFFECTIVE_ROTOR_COUNT>  (1) 
9

>  <PUBCHEM_PHARMACOPHORE_FEATURES>  (1) 
5
1 1 acceptor
1 3 acceptor
1 4 cation
6 7 12 14 19 21 23 rings
6 8 13 15 20 22 24 rings

>  <PUBCHEM_HEAVY_ATOM_COUNT>  (1) 
25

>  <PUBCHEM_ATOM_DEF_STEREO_COUNT>  (1) 
0

>  <PUBCHEM_ATOM_UDEF_STEREO_COUNT>  (1) 
1

>  <PUBCHEM_BOND_DEF_STEREO_COUNT>  (1) 
0

>  <PUBCHEM_BOND_UDEF_STEREO_COUNT>  (1) 
0

>  <PUBCHEM_ISOTOPIC_ATOM_COUNT>  (1) 
0

>  <PUBCHEM_COMPONENT_COUNT>  (1) 
1

>  <PUBCHEM_CACTVS_TAUTO_COUNT>  (1) 
1

>  <PUBCHEM_CONFORMER_ID>  (1) 
000084D00000000B

>  <PUBCHEM_MMFF94_ENERGY>  (1) 
87.1923

>  <PUBCHEM_FEATURE_SELFOVERLAP>  (1) 
25.372

>  <PUBCHEM_SHAPE_FINGERPRINT>  (1) 
108634 29 17481966240362086983
12293681 160 18059870458312057560
12422481 6 17899387854277203482
12788726 201 17540549332313006102
13149001 5 17772483519110843008
133893 2 18047494239038282986
14022347 108 17255396544725730538
14251751 93 18116161158449541735
14251757 17 16773811328053880039
14863182 85 17916293940286324479
15163728 17 17605868921273628901
15849732 13 18114175333771622602
16752209 62 18121215643272279831
16945 1 17386021567384859152
18681886 176 18188489197867124180
20197701 30 18409452505193516622
20602899 9 18123783982797490684
21452121 99 18125163981216802474
21860390 5 17022911141771280140
22393880 68 17988629827457430677
23419403 2 17473219260126930306
23559900 14 18192701264146903635
239999 70 17203030985477654289
298252 57 18042137599129877360
3052486 1 18121483907008365007
3060560 45 18335980943133375572
3380486 77 18343589525702528992
3633792 109 18340217280748598892
376196 1 17459201800985839276
404807 78 18044935917006886683
4280585 95 17758114804617074622
44802255 64 17753929230849546750
46194498 28 17970627386120946871
53917941 68 18119532287133753596
6443956 14 17695896744789056715
6669772 16 17774143730387347786
81228 2 17405987835067278835

>  <PUBCHEM_SHAPE_MULTIPOLES>  (1) 
491.9
7.98
3.9
2.29
10.01
5.54
1.29
-6.1
-4.4
-0.87
0.13
-2.15
-1.87
-0.62

>  <PUBCHEM_SHAPE_SELFOVERLAP>  (1) 
1035.116

>  <PUBCHEM_SHAPE_VOLUME>  (1) 
277

>  <PUBCHEM_COORDINATE_TYPE>  (1) 
2
5
10

$$$$
