34002
     RDKit          3D

 28 29  0  0  0  0  0  0  0  0999 V2000
    6.1677   -1.3087    1.9061 Br  0  0  0  0  0  0  0  0  0  0  0  0
    2.8257   -1.1529   -2.7751 Br  0  0  0  0  0  0  0  0  0  0  0  0
   -2.7095    2.9232   -1.4012 O   0  0  0  0  0  0  0  0  0  0  0  0
   -2.2105   -3.2207   -2.3712 O   0  0  0  0  0  0  0  0  0  0  0  0
   -5.7536   -0.8917    1.3771 O   0  0  0  0  0  0  0  0  0  0  0  0
   -0.9664   -3.2315   -0.4700 O   0  0  0  0  0  0  0  0  0  0  0  0
   -3.9490   -1.6039    2.5597 O   0  0  0  0  0  0  0  0  0  0  0  0
    5.1645   -1.8609   -0.9323 O   0  0  0  0  0  0  0  0  0  0  0  0
   -2.6237   -0.8710    0.0505 N   0  0  0  0  0  0  0  0  0  0  0  0
    1.6932    1.4032    1.6209 N   0  0  0  0  0  0  0  0  0  0  0  0
   -2.9187    0.5579    0.1621 C   0  0  0  0  0  0  0  0  0  0  0  0
   -1.6838    1.3966    0.1239 C   0  0  0  0  0  0  0  0  0  0  0  0
   -1.6280    2.5498   -0.6588 C   0  0  0  0  0  0  0  0  0  0  0  0
   -1.9387   -1.1537   -1.2100 C   0  0  0  0  0  0  0  0  0  0  0  0
   -3.8536   -1.6554    0.1517 C   0  0  0  0  0  0  0  0  0  0  0  0
   -0.5778    1.0148    0.8833 C   0  0  0  0  0  0  0  0  0  0  0  0
   -0.4660    3.3213   -0.6820 C   0  0  0  0  0  0  0  0  0  0  0  0
    0.5804    1.7876    0.8574 C   0  0  0  0  0  0  0  0  0  0  0  0
    0.6401    2.9394    0.0773 C   0  0  0  0  0  0  0  0  0  0  0  0
   -0.3870    4.5591   -1.5136 C   0  0  0  0  0  0  0  0  0  0  0  0
   -1.6554   -2.6287   -1.2832 C   0  0  0  0  0  0  0  0  0  0  0  0
   -4.4916   -1.3795    1.4852 C   0  0  0  0  0  0  0  0  0  0  0  0
    2.5359    0.6204    1.0258 C   0  0  0  0  0  0  0  0  0  0  0  0
    3.7619    0.1209    1.6858 C   0  0  0  0  0  0  0  0  0  0  0  0
    2.2967    0.1887   -0.3668 C   0  0  0  0  0  0  0  0  0  0  0  0
    4.6224   -0.6862    1.0567 C   0  0  0  0  0  0  0  0  0  0  0  0
    3.1452   -0.6182   -1.0120 C   0  0  0  0  0  0  0  0  0  0  0  0
    4.3794   -1.1201   -0.3471 C   0  0  0  0  0  0  0  0  0  0  0  0
  1 26  1  0
  2 27  1  0
  3 13  1  0
  4 21  1  0
  5 22  1  0
  6 21  2  0
  7 22  2  0
  8 28  2  0
  9 11  1  0
  9 14  1  0
  9 15  1  0
 10 18  1  0
 10 23  2  3
 11 12  1  0
 12 13  2  0
 12 16  1  0
 13 17  1  0
 14 21  1  0
 15 22  1  0
 16 18  2  0
 17 19  2  0
 17 20  1  0
 18 19  1  0
 23 24  1  0
 23 25  1  0
 24 26  2  0
 25 27  2  0
 26 28  1  0
 27 28  1  0
M  END
>  <PUBCHEM_COMPOUND_CID>  (1) 
34002

>  <PUBCHEM_CONFORMER_RMSD>  (1) 
0.8

>  <PUBCHEM_CONFORMER_DIVERSEORDER>  (1) 
1
3
36
4
31
40
9
20
30
16
19
32
22
26
15
39
17
21
6
42
23
29
34
13
18
44
28
35
38
10
41
14
25
11
33
8
7
43
27
2
24
12
5
37

>  <PUBCHEM_MMFF94_PARTIAL_CHARGES>  (1) 
35
1 -0.11
10 -0.63
11 0.41
12 -0.14
13 0.08
14 0.33
15 0.33
16 -0.15
17 -0.14
18 0.18
19 -0.15
2 -0.11
20 0.14
21 0.66
22 0.66
23 0.42
24 -0.14
25 -0.14
26 0.12
27 0.12
28 0.54
3 -0.53
35 0.15
36 0.15
4 -0.65
40 0.45
41 0.15
42 0.15
43 0.5
44 0.5
5 -0.65
6 -0.57
7 -0.57
8 -0.57
9 -0.81

>  <PUBCHEM_EFFECTIVE_ROTOR_COUNT>  (1) 
7

>  <PUBCHEM_PHARMACOPHORE_FEATURES>  (1) 
14
1 1 hydrophobe
1 10 acceptor
1 2 hydrophobe
1 3 donor
1 4 acceptor
1 5 acceptor
1 6 acceptor
1 7 acceptor
1 8 acceptor
1 9 cation
3 4 6 21 anion
3 5 7 22 anion
6 12 13 16 17 18 19 rings
6 23 24 25 26 27 28 rings

>  <PUBCHEM_HEAVY_ATOM_COUNT>  (1) 
28

>  <PUBCHEM_ATOM_DEF_STEREO_COUNT>  (1) 
0

>  <PUBCHEM_ATOM_UDEF_STEREO_COUNT>  (1) 
0

>  <PUBCHEM_BOND_DEF_STEREO_COUNT>  (1) 
0

>  <PUBCHEM_BOND_UDEF_STEREO_COUNT>  (1) 
0

>  <PUBCHEM_ISOTOPIC_ATOM_COUNT>  (1) 
0

>  <PUBCHEM_COMPONENT_COUNT>  (1) 
1

>  <PUBCHEM_CACTVS_TAUTO_COUNT>  (1) 
3

>  <PUBCHEM_CONFORMER_ID>  (1) 
000084D200000001

>  <PUBCHEM_MMFF94_ENERGY>  (1) 
81.9661

>  <PUBCHEM_FEATURE_SELFOVERLAP>  (1) 
71.163

>  <PUBCHEM_SHAPE_FINGERPRINT>  (1) 
10483366 6 17981003550456423327
107951 10 17825661154380594153
12035758 1 18340215077309297073
12160290 23 17975099133923580209
12403259 327 16558197136733580081
12422481 6 18059862765619545699
12553582 1 18339643459425596022
12633257 1 17917992827637581330
12788726 201 17968959529433149050
13402501 40 18060421279230465982
13726171 33 18120686636640961380
14844126 61 18265593430212112650
16110190 28 18272651302846301730
17974551 9 16916787456559331283
1813 80 18336270144898572473
22182313 1 18129386998999016719
23559900 14 17983851191346942506
3187 122 18336837398572579485
3380486 145 17917414420070617940
469060 322 18263666011834687571
56633871 153 18201443601195742727
57527293 21 18129649916081411402
7970288 3 18187359973529235035

>  <PUBCHEM_SHAPE_MULTIPOLES>  (1) 
542.93
10.54
4.41
2.31
7.15
3.4
-0.46
-8.68
5.63
-3.96
-2.41
0.66
-1.22
1.3

>  <PUBCHEM_SHAPE_SELFOVERLAP>  (1) 
1126.47

>  <PUBCHEM_SHAPE_VOLUME>  (1) 
315.5

>  <PUBCHEM_COORDINATE_TYPE>  (1) 
2
5
10

$$$$
