34011
     RDKit          3D

 44 50  0  0  1  0  0  0  0  0999 V2000
    4.9231   -0.3276    1.4968 O   0  0  0  0  0  0  0  0  0  0  0  0
   -1.3082    1.3365    2.0190 O   0  0  0  0  0  0  0  0  0  0  0  0
    1.5726    1.4064   -2.6497 O   0  0  0  0  0  0  0  0  0  0  0  0
   -1.8541    2.3366   -0.4489 O   0  0  0  0  0  0  0  0  0  0  0  0
   -0.4584    3.4550    1.1051 O   0  0  0  0  0  0  0  0  0  0  0  0
   -3.0773   -0.0680    0.3028 O   0  0  0  0  0  0  0  0  0  0  0  0
    9.2648   -0.2425   -0.3081 O   0  0  0  0  0  0  0  0  0  0  0  0
   -4.7270   -1.7367    0.2369 O   0  0  0  0  0  0  0  0  0  0  0  0
    9.4824   -1.4206    1.6569 O   0  0  0  0  0  0  0  0  0  0  0  0
   -7.6887    0.8085   -0.8118 O   0  0  0  0  0  0  0  0  0  0  0  0
   -5.6277    0.7901    0.9839 O   0  0  0  0  0  0  0  0  0  0  0  0
   -7.7951   -1.2253    0.3423 O   0  0  0  0  0  0  0  0  0  0  0  0
    1.6811    0.6474   -0.3186 C   0  0  0  0  0  0  0  0  0  0  0  0
    2.6997    0.3793    0.8415 C   0  0  0  0  0  0  0  0  0  0  0  0
    4.0045   -0.3377    0.3926 C   0  0  0  0  0  0  0  0  0  0  0  0
    4.6943    0.3328   -0.8212 C   0  0  0  0  0  0  0  0  0  0  0  0
    0.3605    1.3985    0.2052 C   0  0  0  0  0  0  0  0  0  0  0  0
   -0.2524    0.5779    1.4081 C   0  0  0  0  0  0  0  0  0  0  0  0
    2.4132    1.3418   -1.5005 C   0  0  0  0  0  0  0  0  0  0  0  0
    3.6636    0.5779   -1.9450 C   0  0  0  0  0  0  0  0  0  0  0  0
    5.7051   -0.7595   -1.2982 C   0  0  0  0  0  0  0  0  0  0  0  0
    2.0432   -0.3578    2.0229 C   0  0  0  0  0  0  0  0  0  0  0  0
    3.8257   -1.7982   -0.0608 C   0  0  0  0  0  0  0  0  0  0  0  0
    0.7829    0.3322    2.5154 C   0  0  0  0  0  0  0  0  0  0  0  0
   -0.7510    1.5406   -0.9008 C   0  0  0  0  0  0  0  0  0  0  0  0
    4.9909   -2.0960   -1.0152 C   0  0  0  0  0  0  0  0  0  0  0  0
   -0.8621   -0.7723    0.9392 C   0  0  0  0  0  0  0  0  0  0  0  0
    0.7280    2.8393    0.6682 C   0  0  0  0  0  0  0  0  0  0  0  0
    5.3825    1.6691   -0.4762 C   0  0  0  0  0  0  0  0  0  0  0  0
   -1.3226    0.1944   -1.3584 C   0  0  0  0  0  0  0  0  0  0  0  0
   -1.8727   -0.6393   -0.2008 C   0  0  0  0  0  0  0  0  0  0  0  0
    7.0556   -0.7415   -0.6414 C   0  0  0  0  0  0  0  0  0  0  0  0
    8.1935   -0.0040   -1.2271 C   0  0  0  0  0  0  0  0  0  0  0  0
    7.4060   -1.3473    0.4900 C   0  0  0  0  0  0  0  0  0  0  0  0
   -4.2170   -0.5602   -0.3953 C   0  0  0  0  0  0  0  0  0  0  0  0
    8.8185   -1.0336    0.7107 C   0  0  0  0  0  0  0  0  0  0  0  0
   -5.3027    0.5119   -0.3783 C   0  0  0  0  0  0  0  0  0  0  0  0
   -6.5392    0.0139   -1.1355 C   0  0  0  0  0  0  0  0  0  0  0  0
   -6.9382   -1.4096   -0.7885 C   0  0  0  0  0  0  0  0  0  0  0  0
   -5.7636   -2.3571   -0.5293 C   0  0  0  0  0  0  0  0  0  0  0  0
   -8.5075   -0.0146    0.0379 C   0  0  0  0  0  0  0  0  0  0  0  0
   -6.1907   -3.6185    0.2100 C   0  0  0  0  0  0  0  0  0  0  0  0
   -9.8032   -0.3431   -0.7079 C   0  0  0  0  0  0  0  0  0  0  0  0
   -8.8325    0.7210    1.3322 C   0  0  0  0  0  0  0  0  0  0  0  0
  1 15  1  0
  2 18  1  0
  3 19  1  0
  4 25  1  0
  5 28  1  0
  6 31  1  0
  6 35  1  0
  7 33  1  0
  7 36  1  0
  8 35  1  0
  8 40  1  0
  9 36  2  0
 10 38  1  0
 10 41  1  0
 11 37  1  0
 12 39  1  0
 12 41  1  0
 13 14  1  0
 13 17  1  0
 13 19  1  0
 14 15  1  0
 14 22  1  0
 15 16  1  0
 15 23  1  0
 16 20  1  0
 16 21  1  0
 16 29  1  0
 17 18  1  0
 17 25  1  0
 17 28  1  0
 18 24  1  0
 18 27  1  0
 19 20  1  0
 21 26  1  0
 21 32  1  0
 22 24  1  0
 23 26  1  0
 25 30  1  0
 27 31  1  0
 30 31  1  0
 32 33  1  0
 32 34  2  0
 34 36  1  0
 35 37  1  0
 37 38  1  0
 38 39  1  0
 39 40  1  0
 40 42  1  0
 41 43  1  0
 41 44  1  0
M  END
>  <PUBCHEM_COMPOUND_CID>  (1) 
34011

>  <PUBCHEM_CONFORMER_RMSD>  (1) 
1

>  <PUBCHEM_CONFORMER_DIVERSEORDER>  (1) 
1
10
48
227
66
147
205
255
74
69
210
228
239
21
215
93
256
235
14
250
181
140
182
37
104
83
169
89
78
253
62
132
151
201
254
178
187
208
31
99
231
220
207
202
247
67
87
111
73
61
152
75
103
43
144
88
122
113
167
236
196
168
4
76
200
175
180
110
229
171
92
86
153
148
233
33
58
124
246
159
112
174
82
101
216
29
226
17
217
237
97
118
64
126
249
145
225
25
190
163
252
72
51
38
149
115
114
109
189
219
60
176
128
42
127
81
232
170
57
188
222
44
206
143
70
77
166
40
39
107
105
203
120
65
172
186
85
185
173
248
34
116
160
130
162
52
9
224
100
230
84
234
155
191
53
150
106
16
179
47
177
211
123
241
18
243
242
238
54
26
36
244
212
221
79
223
24
80
197
46
121
192
49
15
183
136
119
108
63
12
214
71
28
198
165
22
240
161
23
27
3
137
131
19
98
194
6
5
68
209
158
245
199
129
138
133
157
142
55
139
251
45
146
20
213
56
95
184
13
218
35
30
204
11
7
2
135
41
102
154
94
32
195
50
96
164
90
193
134
59
141
8
117
125
156
91

>  <PUBCHEM_MMFF94_PARTIAL_CHARGES>  (1) 
36
1 -0.68
10 -0.56
11 -0.68
12 -0.56
15 0.28
18 0.28
19 0.28
2 -0.68
21 0.14
25 0.28
28 0.28
3 -0.68
31 0.28
32 -0.28
33 0.42
34 -0.14
35 0.56
36 0.71
37 0.28
38 0.28
39 0.28
4 -0.68
40 0.28
41 0.56
5 -0.68
6 -0.56
7 -0.43
70 0.4
71 0.4
72 0.4
73 0.4
76 0.4
77 0.15
8 -0.56
83 0.4
9 -0.57

>  <PUBCHEM_EFFECTIVE_ROTOR_COUNT>  (1) 
8

>  <PUBCHEM_PHARMACOPHORE_FEATURES>  (1) 
25
1 1 acceptor
1 1 donor
1 10 acceptor
1 11 acceptor
1 11 donor
1 12 acceptor
1 2 acceptor
1 2 donor
1 3 acceptor
1 3 donor
1 4 acceptor
1 4 donor
1 5 acceptor
1 5 donor
1 6 acceptor
1 8 acceptor
1 9 acceptor
3 41 43 44 hydrophobe
5 10 12 38 39 41 rings
5 15 16 21 23 26 rings
5 7 32 33 34 36 rings
6 13 14 15 16 19 20 rings
6 13 14 17 18 22 24 rings
6 17 18 25 27 30 31 rings
6 8 35 37 38 39 40 rings

>  <PUBCHEM_HEAVY_ATOM_COUNT>  (1) 
44

>  <PUBCHEM_ATOM_DEF_STEREO_COUNT>  (1) 
10

>  <PUBCHEM_ATOM_UDEF_STEREO_COUNT>  (1) 
5

>  <PUBCHEM_BOND_DEF_STEREO_COUNT>  (1) 
0

>  <PUBCHEM_BOND_UDEF_STEREO_COUNT>  (1) 
0

>  <PUBCHEM_ISOTOPIC_ATOM_COUNT>  (1) 
0

>  <PUBCHEM_COMPONENT_COUNT>  (1) 
1

>  <PUBCHEM_CACTVS_TAUTO_COUNT>  (1) 
1

>  <PUBCHEM_CONFORMER_ID>  (1) 
000084DB00000001

>  <PUBCHEM_MMFF94_ENERGY>  (1) 
176.7662

>  <PUBCHEM_FEATURE_SELFOVERLAP>  (1) 
127.553

>  <PUBCHEM_SHAPE_FINGERPRINT>  (1) 
10 15 13614519654251237038
10076449 9 18342738498685001977
10165383 225 14201398283401577202
10369192 42 7997974557267466939
10483366 6 17095242518726409160
10674148 151 18334010601432724835
10930396 42 17346304991307778138
11115154 58 18187368726804348325
12107698 1 18040998432322103028
12539747 363 17417806249230997416
12741549 16 17203324499168913440
13150687 139 14851604358780181322
13782708 43 17489304218199757231
13811026 1 18202001048899840598
14068700 675 18334013887299575132
14856354 85 18334011727584860631
15131766 46 15480388807353947409
15183329 4 17821445763953804783
15274700 256 18342735201073285024
15392192 104 11959728270106082020
15439362 3 17982446311217896720
16090146 7 18261971686049656299
16992610 120 8430311377400432536
18603816 31 18201709696031678159
20105231 36 17676212394934945987
20501277 279 16128644277203644810
20505436 4 9871745772339244772
21792934 111 17989481927125251704
21792961 116 16443067175278586073
23559900 14 18271522122175307961
23576562 1 13985244257009360303
24771293 8 10159707906308218355
24893992 56 15357703010951386705
249057 3 17458067083568620739
3004659 81 18187363250920706908
3178227 256 15554444094561701246
335507 130 17967816042125996087
3633792 109 17603872230392455668
4353968 344 17168695325086595678
437795 51 15357699700016897897
439807 62 18412544297689365750
45266715 3 17022902303736816370
474113 269 17168417170441592570
5381727 24 10665225969248006620
57527452 28 18201722847189525830
58083652 198 18340495546514795504
6081469 158 18342738507791537524
6126387 218 16272211869242902363
6523845 18 13406795549244275607
6691757 9 11239995694453724485
9663363 56 17917988373582188028
9962374 69 18410852204548298252

>  <PUBCHEM_SHAPE_MULTIPOLES>  (1) 
835.07
29.29
2.41
1.78
13.66
0.06
0.27
14.1
-1.57
1.61
0.18
-1.39
-0.43
-1.06

>  <PUBCHEM_SHAPE_SELFOVERLAP>  (1) 
1816.02

>  <PUBCHEM_SHAPE_VOLUME>  (1) 
448.8

>  <PUBCHEM_COORDINATE_TYPE>  (1) 
2
5
10

$$$$
