3401
     RDKit          3D

 26 29  0  0  1  0  0  0  0  0999 V2000
    0.3985   -0.6795    2.4303 F   0  0  0  0  0  0  0  0  0  0  0  0
    4.9491    1.8574    0.2885 F   0  0  0  0  0  0  0  0  0  0  0  0
   -0.7599    0.0447   -1.6846 N   0  0  0  0  0  0  0  0  0  0  0  0
   -1.9719   -0.2694   -3.4119 N   0  0  0  0  0  0  0  0  0  0  0  0
   -0.3377    0.0161   -0.2081 C   0  0  0  0  0  0  0  0  0  0  0  0
    1.1737    0.5426   -0.0660 C   0  0  0  0  0  0  0  0  0  0  0  0
   -0.1169   -1.5040    0.2636 C   0  0  0  0  0  0  0  0  0  0  0  0
   -1.3955    0.7966    0.4966 C   0  0  0  0  0  0  0  0  0  0  0  0
    1.3385    1.6441    0.6802 C   0  0  0  0  0  0  0  0  0  0  0  0
    2.1036   -0.1781   -0.7093 C   0  0  0  0  0  0  0  0  0  0  0  0
    0.2303   -1.6738    1.5475 C   0  0  0  0  0  0  0  0  0  0  0  0
   -0.3043   -2.4369   -0.6817 C   0  0  0  0  0  0  0  0  0  0  0  0
   -0.0103    0.5571   -2.6333 C   0  0  0  0  0  0  0  0  0  0  0  0
   -1.5979    2.1401    0.1805 C   0  0  0  0  0  0  0  0  0  0  0  0
   -2.1825    0.1832    1.4712 C   0  0  0  0  0  0  0  0  0  0  0  0
   -1.9037   -0.4420   -2.1105 C   0  0  0  0  0  0  0  0  0  0  0  0
   -0.7943    0.3524   -3.7442 C   0  0  0  0  0  0  0  0  0  0  0  0
    2.6507    2.1009    0.8035 C   0  0  0  0  0  0  0  0  0  0  0  0
    3.4158    0.2785   -0.5861 C   0  0  0  0  0  0  0  0  0  0  0  0
    0.4215   -2.9947    1.9536 C   0  0  0  0  0  0  0  0  0  0  0  0
   -0.1129   -3.7575   -0.2755 C   0  0  0  0  0  0  0  0  0  0  0  0
   -2.5873    2.8702    0.8393 C   0  0  0  0  0  0  0  0  0  0  0  0
   -3.1719    0.9134    2.1298 C   0  0  0  0  0  0  0  0  0  0  0  0
    3.6894    1.4182    0.1705 C   0  0  0  0  0  0  0  0  0  0  0  0
    0.2500   -4.0364    1.0419 C   0  0  0  0  0  0  0  0  0  0  0  0
   -3.3742    2.2568    1.8138 C   0  0  0  0  0  0  0  0  0  0  0  0
  1 11  1  0
  2 24  1  0
  3  5  1  0
  3 13  1  0
  3 16  1  0
  4 16  2  0
  4 17  1  0
  5  6  1  0
  5  7  1  0
  5  8  1  0
  6  9  2  0
  6 10  1  0
  7 11  2  0
  7 12  1  0
  8 14  2  0
  8 15  1  0
  9 18  1  0
 10 19  2  0
 11 20  1  0
 12 21  2  0
 13 17  2  0
 14 22  1  0
 15 23  2  0
 18 24  2  0
 19 24  1  0
 20 25  2  0
 21 25  1  0
 22 26  2  0
 23 26  1  0
M  END
>  <PUBCHEM_COMPOUND_CID>  (1) 
3401

>  <PUBCHEM_CONFORMER_RMSD>  (1) 
0.8

>  <PUBCHEM_CONFORMER_DIVERSEORDER>  (1) 
2
10
4
12
11
3
6
9
1
13
8
7
5

>  <PUBCHEM_MMFF94_PARTIAL_CHARGES>  (1) 
42
1 -0.19
10 -0.15
11 0.19
12 -0.15
13 -0.3
14 -0.15
15 -0.15
16 0.04
17 0.08
18 -0.15
19 -0.15
2 -0.19
20 -0.15
21 -0.15
22 -0.15
23 -0.15
24 0.19
25 -0.15
26 -0.15
27 0.15
28 0.15
29 0.15
3 0.05
30 0.15
31 0.15
32 0.15
33 0.15
34 0.15
35 0.15
36 0.15
37 0.15
38 0.15
39 0.15
4 -0.57
40 0.15
41 0.15
42 0.15
5 0.69
6 -0.14
7 -0.14
8 -0.14
9 -0.15

>  <PUBCHEM_EFFECTIVE_ROTOR_COUNT>  (1) 
4

>  <PUBCHEM_PHARMACOPHORE_FEATURES>  (1) 
5
3 3 4 16 cation
5 3 4 13 16 17 rings
6 6 9 10 18 19 24 rings
6 7 11 12 20 21 25 rings
6 8 14 15 22 23 26 rings

>  <PUBCHEM_HEAVY_ATOM_COUNT>  (1) 
26

>  <PUBCHEM_ATOM_DEF_STEREO_COUNT>  (1) 
0

>  <PUBCHEM_ATOM_UDEF_STEREO_COUNT>  (1) 
1

>  <PUBCHEM_BOND_DEF_STEREO_COUNT>  (1) 
0

>  <PUBCHEM_BOND_UDEF_STEREO_COUNT>  (1) 
0

>  <PUBCHEM_ISOTOPIC_ATOM_COUNT>  (1) 
0

>  <PUBCHEM_COMPONENT_COUNT>  (1) 
1

>  <PUBCHEM_CACTVS_TAUTO_COUNT>  (1) 
1

>  <PUBCHEM_CONFORMER_ID>  (1) 
00000D4900000002

>  <PUBCHEM_MMFF94_ENERGY>  (1) 
127.6081

>  <PUBCHEM_FEATURE_SELFOVERLAP>  (1) 
25.374

>  <PUBCHEM_SHAPE_FINGERPRINT>  (1) 
10863032 1 18200328635884407467
10948715 1 18058746718288338009
11578080 2 16376372809771307476
11582403 64 17917159294591537665
12035759 4 17986084380360725645
12082328 90 17909005528175384996
12788726 201 17987225814810498898
12930653 34 18265071171000659681
13004483 165 17694506249048128394
13149001 5 17116586448908672567
133893 2 17901637420423246194
14713325 29 17203333359211346437
14817 1 12223033692502345879
14863182 85 17827118140589828107
14955137 171 17908706125118190506
16945 1 17914070702030888136
17980427 23 17386872636824960061
17980427 26 18267308633986351852
20600515 1 17248926988580384558
20602899 9 17973128946477384670
20905425 154 17405170438271407688
21330990 113 17462031793918329134
21524375 3 17846226526871973121
21756936 100 18341901822540724664
22149856 69 13895962994913508831
23419403 2 17245268496497706727
23559900 14 17101194051283747561
25222932 49 18343311388389874715
266924 78 17975947926766010189
298252 57 17203055092606801880
394222 165 17608048101811979643
469060 322 16807000168015978763
57527585 103 17834935839645555152
68419 9 17628038296994179109
7364860 26 17905344934992933547
81228 2 18048321338202036362
9981440 41 17243818404265651164
9999458 23 18120960337509860412

>  <PUBCHEM_SHAPE_MULTIPOLES>  (1) 
510.56
4.72
3.91
3.06
0.75
3.55
3.45
-5.42
-2.34
2.05
-1.95
-1.87
0.51
-0.68

>  <PUBCHEM_SHAPE_SELFOVERLAP>  (1) 
1160.315

>  <PUBCHEM_SHAPE_VOLUME>  (1) 
266.7

>  <PUBCHEM_COORDINATE_TYPE>  (1) 
2
5
10

$$$$
