34036
     RDKit          3D

 12 11  0  0  1  0  0  0  0  0999 V2000
   -1.7445    0.5126    1.4503 F   0  0  0  0  0  0  0  0  0  0  0  0
   -1.7692    1.7224   -0.3619 F   0  0  0  0  0  0  0  0  0  0  0  0
   -2.6248   -0.2848   -0.3769 F   0  0  0  0  0  0  0  0  0  0  0  0
    0.7481    0.7318    0.2847 O   0  0  0  0  0  0  0  0  0  0  0  0
    2.4027   -0.6017   -0.6214 O   0  0  0  0  0  0  0  0  0  0  0  0
    0.0188   -2.5543    0.6501 N   0  0  0  0  0  0  0  0  0  0  0  0
   -0.2537   -0.1089   -0.2894 C   0  0  0  0  0  0  0  0  0  0  0  0
   -1.6078    0.4640    0.1055 C   0  0  0  0  0  0  0  0  0  0  0  0
   -0.0811   -0.0995   -1.8084 C   0  0  0  0  0  0  0  0  0  0  0  0
   -0.1010   -1.4768    0.2360 C   0  0  0  0  0  0  0  0  0  0  0  0
    2.0385    0.3640    0.0359 C   0  0  0  0  0  0  0  0  0  0  0  0
    2.9741    1.3312    0.6955 C   0  0  0  0  0  0  0  0  0  0  0  0
  1  8  1  0
  2  8  1  0
  3  8  1  0
  4  7  1  0
  4 11  1  0
  5 11  2  0
  6 10  3  0
  7  8  1  0
  7  9  1  0
  7 10  1  0
 11 12  1  0
M  END
>  <PUBCHEM_COMPOUND_CID>  (1) 
34036

>  <PUBCHEM_CONFORMER_RMSD>  (1) 
0.6

>  <PUBCHEM_CONFORMER_DIVERSEORDER>  (1) 
2
5
7
6
8
1
3
4

>  <PUBCHEM_MMFF94_PARTIAL_CHARGES>  (1) 
11
1 -0.34
10 0.36
11 0.66
12 0.06
2 -0.34
3 -0.34
4 -0.43
5 -0.57
6 -0.56
7 0.48
8 1.02

>  <PUBCHEM_EFFECTIVE_ROTOR_COUNT>  (1) 
3

>  <PUBCHEM_PHARMACOPHORE_FEATURES>  (1) 
2
1 5 acceptor
1 6 acceptor

>  <PUBCHEM_HEAVY_ATOM_COUNT>  (1) 
12

>  <PUBCHEM_ATOM_DEF_STEREO_COUNT>  (1) 
0

>  <PUBCHEM_ATOM_UDEF_STEREO_COUNT>  (1) 
1

>  <PUBCHEM_BOND_DEF_STEREO_COUNT>  (1) 
0

>  <PUBCHEM_BOND_UDEF_STEREO_COUNT>  (1) 
0

>  <PUBCHEM_ISOTOPIC_ATOM_COUNT>  (1) 
0

>  <PUBCHEM_COMPONENT_COUNT>  (1) 
1

>  <PUBCHEM_CACTVS_TAUTO_COUNT>  (1) 
1

>  <PUBCHEM_CONFORMER_ID>  (1) 
000084F400000002

>  <PUBCHEM_MMFF94_ENERGY>  (1) 
18.5615

>  <PUBCHEM_FEATURE_SELFOVERLAP>  (1) 
10.149

>  <PUBCHEM_SHAPE_FINGERPRINT>  (1) 
12423570 1 17243619396623142123
13024252 1 13624345997804912004
16945 1 18261118525055420398
20645464 45 18340767126334520800
20653085 51 16701762491501669328
21028194 46 18272650173164517940
21040471 1 18335141998834382862
23211744 41 18272093772698535109
369184 2 18339915004464376168
5084963 1 18273216391271520900
68250623 7 17917997161085620311

>  <PUBCHEM_SHAPE_MULTIPOLES>  (1) 
208.41
3.39
1.74
1.16
1.67
0.9
0.32
-1.42
-0.48
-0.2
-0.43
-0.17
0.01
0.26

>  <PUBCHEM_SHAPE_SELFOVERLAP>  (1) 
418.13

>  <PUBCHEM_SHAPE_VOLUME>  (1) 
121.8

>  <PUBCHEM_COORDINATE_TYPE>  (1) 
2
5
10

$$$$
