34040
     RDKit          3D

 31 35  0  0  1  0  0  0  0  0999 V2000
   -4.4666   -3.3234   -1.9295 Br  0  0  0  0  0  0  0  0  0  0  0  0
    1.2001    0.3760   -1.7363 O   0  0  0  0  0  0  0  0  0  0  0  0
   -2.8608    1.1987    0.2475 O   0  0  0  0  0  0  0  0  0  0  0  0
   -4.5286    2.1180    1.5411 O   0  0  0  0  0  0  0  0  0  0  0  0
    1.5813    3.0392   -0.5872 N   0  0  0  0  0  0  0  0  0  0  0  0
    5.5599   -1.3782    0.3669 N   0  0  0  0  0  0  0  0  0  0  0  0
   -6.9783   -1.1313    0.5318 N   0  0  0  0  0  0  0  0  0  0  0  0
    1.3633    0.5354   -0.3191 C   0  0  0  0  0  0  0  0  0  0  0  0
    2.2686    1.8253   -0.0769 C   0  0  0  0  0  0  0  0  0  0  0  0
   -0.0226    0.7368    0.3153 C   0  0  0  0  0  0  0  0  0  0  0  0
   -0.6646    2.0477   -0.1529 C   0  0  0  0  0  0  0  0  0  0  0  0
    3.7201    1.6601   -0.6784 C   0  0  0  0  0  0  0  0  0  0  0  0
    2.0752   -0.7133    0.1804 C   0  0  0  0  0  0  0  0  0  0  0  0
    0.2828    3.2292    0.0835 C   0  0  0  0  0  0  0  0  0  0  0  0
    3.4764   -0.6963    0.1502 C   0  0  0  0  0  0  0  0  0  0  0  0
    4.3178    0.3654   -0.2400 C   0  0  0  0  0  0  0  0  0  0  0  0
   -1.9977    2.2751    0.5601 C   0  0  0  0  0  0  0  0  0  0  0  0
    4.2507   -1.7758    0.5314 C   0  0  0  0  0  0  0  0  0  0  0  0
    2.3809    4.2575   -0.4285 C   0  0  0  0  0  0  0  0  0  0  0  0
    1.4836   -1.9102    0.6060 C   0  0  0  0  0  0  0  0  0  0  0  0
    5.6110   -0.0813   -0.1023 C   0  0  0  0  0  0  0  0  0  0  0  0
    3.6715   -2.9652    0.9712 C   0  0  0  0  0  0  0  0  0  0  0  0
    2.2683   -3.0069    0.9978 C   0  0  0  0  0  0  0  0  0  0  0  0
    0.4308   -0.7757   -2.0336 C   0  0  0  0  0  0  0  0  0  0  0  0
    6.7240   -2.1916    0.6427 C   0  0  0  0  0  0  0  0  0  0  0  0
   -4.1059    1.2399    0.8051 C   0  0  0  0  0  0  0  0  0  0  0  0
   -4.9094    0.0582    0.4021 C   0  0  0  0  0  0  0  0  0  0  0  0
   -4.3649   -0.8898   -0.4303 C   0  0  0  0  0  0  0  0  0  0  0  0
   -6.1919   -0.0819    0.8606 C   0  0  0  0  0  0  0  0  0  0  0  0
   -5.1432   -1.9841   -0.7909 C   0  0  0  0  0  0  0  0  0  0  0  0
   -6.4320   -2.0575   -0.2877 C   0  0  0  0  0  0  0  0  0  0  0  0
  1 30  1  0
  2  8  1  0
  2 24  1  0
  3 17  1  0
  3 26  1  0
  4 26  2  0
  5  9  1  0
  5 14  1  0
  5 19  1  0
  6 18  1  0
  6 21  1  0
  6 25  1  0
  7 29  2  0
  7 31  1  0
  8  9  1  0
  8 10  1  0
  8 13  1  0
  9 12  1  0
 10 11  1  0
 11 14  1  0
 11 17  1  0
 12 16  1  0
 13 15  2  0
 13 20  1  0
 15 16  1  0
 15 18  1  0
 16 21  2  0
 18 22  2  0
 20 23  2  0
 22 23  1  0
 26 27  1  0
 27 28  2  0
 27 29  1  0
 28 30  1  0
 30 31  2  0
M  END
>  <PUBCHEM_COMPOUND_CID>  (1) 
34040

>  <PUBCHEM_CONFORMER_RMSD>  (1) 
0.8

>  <PUBCHEM_CONFORMER_DIVERSEORDER>  (1) 
1
16
5
80
67
70
62
34
69
71
13
49
58
81
78
54
15
51
12
42
46
53
40
38
14
26
52
23
20
41
4
35
60
45
72
66
6
22
37
73
77
79
50
47
21
82
48
63
39
55
7
33
2
11
83
17
10
44
3
36
59
61
32
19
65
8
68
25
74
9
28
24
64
76
56
18
43
75
31
27
30
29
57

>  <PUBCHEM_MMFF94_PARTIAL_CHARGES>  (1) 
35
1 -0.11
12 0.18
13 -0.14
14 0.27
16 -0.18
17 0.28
18 -0.15
19 0.27
2 -0.56
20 -0.15
21 -0.3
22 -0.15
23 -0.15
24 0.28
25 0.26
26 0.63
27 0.09
28 -0.15
29 0.16
3 -0.43
30 0.11
31 0.16
4 -0.57
45 0.15
46 0.15
47 0.15
48 0.15
5 -0.81
55 0.15
56 0.15
57 0.15
6 0.05
7 -0.62
8 0.42
9 0.27

>  <PUBCHEM_EFFECTIVE_ROTOR_COUNT>  (1) 
6

>  <PUBCHEM_PHARMACOPHORE_FEATURES>  (1) 
11
1 1 hydrophobe
1 2 acceptor
1 4 acceptor
1 5 cation
1 6 cation
1 7 acceptor
5 6 15 16 18 21 rings
6 13 15 18 20 22 23 rings
6 5 8 9 10 11 14 rings
6 7 27 28 29 30 31 rings
6 8 9 12 13 15 16 rings

>  <PUBCHEM_HEAVY_ATOM_COUNT>  (1) 
31

>  <PUBCHEM_ATOM_DEF_STEREO_COUNT>  (1) 
3

>  <PUBCHEM_ATOM_UDEF_STEREO_COUNT>  (1) 
0

>  <PUBCHEM_BOND_DEF_STEREO_COUNT>  (1) 
0

>  <PUBCHEM_BOND_UDEF_STEREO_COUNT>  (1) 
0

>  <PUBCHEM_ISOTOPIC_ATOM_COUNT>  (1) 
0

>  <PUBCHEM_COMPONENT_COUNT>  (1) 
1

>  <PUBCHEM_CACTVS_TAUTO_COUNT>  (1) 
1

>  <PUBCHEM_CONFORMER_ID>  (1) 
000084F800000001

>  <PUBCHEM_MMFF94_ENERGY>  (1) 
98.6951

>  <PUBCHEM_FEATURE_SELFOVERLAP>  (1) 
56.059

>  <PUBCHEM_SHAPE_FINGERPRINT>  (1) 
10169797 241 18120963816686974283
10622 236 17842823689430646295
1100329 8 18336267937717743106
11578080 2 11603979135972590566
11607047 403 17267194235871796504
11963148 33 18264203600597985106
12107183 9 18268440036417000033
12166972 35 17967817158342648405
12422481 6 17274538724621944390
12596602 18 17917992754849919760
128238 76 18341610404318759958
1361 2 18335421313527128592
13782708 43 17313374596380752818
14068700 675 18413107247400155408
14117953 113 18271805667188891463
14190465 44 17116349018923452536
14394314 77 18410860924113092057
14705955 166 15841282441795904555
14787075 74 18114188488966364960
14849402 71 18336830917562414364
14904385 45 17478877742866712607
14955137 171 17775289339804620636
15001296 14 18265611159990448071
15250474 111 18343018934912395959
15361156 5 17822588105175525781
15728490 51 18343017813857145386
15927050 60 17979077416459127284
17492 89 17975412421970764282
17857418 61 18409730655949650289
19315092 285 18201442523359126225
19319366 153 17548692341361506717
20028762 73 18412545384216377918
20511986 3 18410283697524276547
23522609 53 18121253980119326100
23559900 14 18334573590183744273
24771293 8 18270107041988674168
25222932 49 18410292493169289278
314194 84 18334585632923622825
3680242 22 18341341063046523803
4015057 19 18114752615509178537
439807 62 18335987562722379651
4461854 278 18059584615180404199
46194498 28 17095805524619952989
463206 1 18334301971750445291
5104073 3 18060705000448946033
581034 39 16845285081623356527
6431902 208 18333454231601647395
6823239 73 17488209061431787317

>  <PUBCHEM_SHAPE_MULTIPOLES>  (1) 
611.36
16.01
4.45
1.28
14.98
1.62
0.46
-11.48
-2.46
-1.44
0.25
0.83
-0.55
-3.67

>  <PUBCHEM_SHAPE_SELFOVERLAP>  (1) 
1331.463

>  <PUBCHEM_SHAPE_VOLUME>  (1) 
342

>  <PUBCHEM_COORDINATE_TYPE>  (1) 
2
5
10

$$$$
