34054
     RDKit          3D

 19 19  0  0  1  0  0  0  0  0999 V2000
   -3.7420    1.6644    0.2735 F   0  0  0  0  0  0  0  0  0  0  0  0
   -1.8649    2.2135   -0.6641 F   0  0  0  0  0  0  0  0  0  0  0  0
   -3.2905    0.9707   -1.7374 F   0  0  0  0  0  0  0  0  0  0  0  0
    2.4124    1.6469   -0.1682 O   0  0  0  0  0  0  0  0  0  0  0  0
    2.5686    0.1013    1.5234 O   0  0  0  0  0  0  0  0  0  0  0  0
    2.1320   -0.5227   -0.6679 N   0  0  0  0  0  0  0  0  0  0  0  0
    2.0401   -1.9506   -0.4635 C   0  0  0  0  0  0  0  0  0  0  0  0
    0.6568   -2.4830   -0.8691 C   0  0  0  0  0  0  0  0  0  0  0  0
   -0.4738   -1.8170   -0.1216 C   0  0  0  0  0  0  0  0  0  0  0  0
    3.1411   -2.6546   -1.2504 C   0  0  0  0  0  0  0  0  0  0  0  0
   -1.0543   -0.6739   -0.6467 C   0  0  0  0  0  0  0  0  0  0  0  0
   -0.9093   -2.3621    1.0754 C   0  0  0  0  0  0  0  0  0  0  0  0
   -2.0987   -0.0591    0.0439 C   0  0  0  0  0  0  0  0  0  0  0  0
   -1.9537   -1.7474    1.7660 C   0  0  0  0  0  0  0  0  0  0  0  0
   -2.5483   -0.5959    1.2502 C   0  0  0  0  0  0  0  0  0  0  0  0
    2.3880    0.3797    0.3425 C   0  0  0  0  0  0  0  0  0  0  0  0
   -2.7347    1.1721   -0.5070 C   0  0  0  0  0  0  0  0  0  0  0  0
    2.6696    2.6947    0.7735 C   0  0  0  0  0  0  0  0  0  0  0  0
    2.6618    4.0231    0.0474 C   0  0  0  0  0  0  0  0  0  0  0  0
  1 17  1  0
  2 17  1  0
  3 17  1  0
  4 16  1  0
  4 18  1  0
  5 16  2  0
  6  7  1  0
  6 16  1  0
  7  8  1  0
  7 10  1  0
  8  9  1  0
  9 11  2  0
  9 12  1  0
 11 13  1  0
 12 14  2  0
 13 15  2  0
 13 17  1  0
 14 15  1  0
 18 19  1  0
M  END
>  <PUBCHEM_COMPOUND_CID>  (1) 
34054

>  <PUBCHEM_CONFORMER_RMSD>  (1) 
0.8

>  <PUBCHEM_CONFORMER_DIVERSEORDER>  (1) 
1
90
141
130
41
85
136
30
113
139
74
18
28
32
108
66
116
46
49
106
23
128
52
72
76
133
39
63
95
57
84
7
99
104
24
87
135
53
86
29
103
77
89
132
109
25
119
126
27
55
127
3
115
70
97
9
68
6
100
5
80
91
102
81
36
79
123
82
67
110
120
118
43
51
69
138
117
20
94
124
61
83
42
17
38
48
45
114
121
137
4
96
21
111
56
71
73
65
16
35
112
105
143
22
19
78
62
142
33
37
8
12
34
47
140
40
13
93
59
88
131
11
107
26
98
14
10
101
75
134
50
129
125
64
2
92
44
54
60
122
31
15
58

>  <PUBCHEM_MMFF94_PARTIAL_CHARGES>  (1) 
22
1 -0.34
11 -0.15
12 -0.15
13 -0.14
14 -0.15
15 -0.15
16 0.78
17 1.16
18 0.28
2 -0.34
26 0.37
27 0.15
28 0.15
29 0.15
3 -0.34
30 0.15
4 -0.43
5 -0.57
6 -0.73
7 0.3
8 0.14
9 -0.14

>  <PUBCHEM_EFFECTIVE_ROTOR_COUNT>  (1) 
7

>  <PUBCHEM_PHARMACOPHORE_FEATURES>  (1) 
3
1 5 acceptor
1 6 donor
6 9 11 12 13 14 15 rings

>  <PUBCHEM_HEAVY_ATOM_COUNT>  (1) 
19

>  <PUBCHEM_ATOM_DEF_STEREO_COUNT>  (1) 
0

>  <PUBCHEM_ATOM_UDEF_STEREO_COUNT>  (1) 
1

>  <PUBCHEM_BOND_DEF_STEREO_COUNT>  (1) 
0

>  <PUBCHEM_BOND_UDEF_STEREO_COUNT>  (1) 
0

>  <PUBCHEM_ISOTOPIC_ATOM_COUNT>  (1) 
0

>  <PUBCHEM_COMPONENT_COUNT>  (1) 
1

>  <PUBCHEM_CACTVS_TAUTO_COUNT>  (1) 
2

>  <PUBCHEM_CONFORMER_ID>  (1) 
0000850600000001

>  <PUBCHEM_MMFF94_ENERGY>  (1) 
27.0382

>  <PUBCHEM_FEATURE_SELFOVERLAP>  (1) 
15.223

>  <PUBCHEM_SHAPE_FINGERPRINT>  (1) 
10165383 225 17625288650499620800
10764073 3 10154971351938936423
10871710 139 17403456767662706476
1100329 8 15527147227606243162
11221954 11 18336541711269543744
12403259 226 18190187788971509183
128993 33 18126577953180743640
13083527 12 16604373554231295619
13134695 92 18125158234640634446
13294875 104 17825093814464720538
14142880 1 17478899740802010754
14250199 8 18271520893044417757
14251757 17 17907342941348150004
14648413 74 18411142445964852538
15295992 7 18263938652322178387
15475509 84 16027625176805588593
18186145 218 18265892445977807903
18219364 16 18199475539589508416
18981168 100 18339931514360918590
19930381 70 18342170120293773573
20233049 118 18045510720557984982
20681677 76 18410015433456083199
21041028 32 16967739559956348699
23175994 123 18053967064371321582
238 59 18270666628170046591
25 1 17902239905629969279
2748010 2 18334867129401562975
2803657 2 15162902106023882245
31174 14 18268174048211175995
3524813 1 17899140408025679157
474 4 18340760447544642793
5939293 188 18338510816604695208
6049 1 18262537947206571267
7226269 152 17830735349177863146
81228 2 17823152270736300947
9862522 239 18053086600692011272
9981440 41 18054485157474767928

>  <PUBCHEM_SHAPE_MULTIPOLES>  (1) 
352.47
5.84
4.18
1.4
0.66
1.58
0.22
3.9
0.26
3.35
-0.75
-0.6
-0.35
2.04

>  <PUBCHEM_SHAPE_SELFOVERLAP>  (1) 
719.723

>  <PUBCHEM_SHAPE_VOLUME>  (1) 
205.3

>  <PUBCHEM_COORDINATE_TYPE>  (1) 
2
5
10

$$$$
