34051
     RDKit          3D

 21 23  0  0  0  0  0  0  0  0999 V2000
   -1.0170   -3.7757    1.1048 S   0  0  0  0  0  0  0  0  0  0  0  0
   -0.2906   -1.2754    1.4600 O   0  0  0  0  0  0  0  0  0  0  0  0
   -1.5494   -1.6437   -0.5761 N   0  0  0  0  0  0  0  0  0  0  0  0
    4.8571    0.4958   -0.9330 C   0  0  0  0  0  0  0  0  0  0  0  0
    3.7591   -0.5066   -1.3195 C   0  0  0  0  0  0  0  0  0  0  0  0
    4.1539    1.6864   -0.2639 C   0  0  0  0  0  0  0  0  0  0  0  0
    2.7297   -0.2269   -0.2706 C   0  0  0  0  0  0  0  0  0  0  0  0
    2.9539    1.0180    0.3287 C   0  0  0  0  0  0  0  0  0  0  0  0
    1.6451   -1.0084    0.0900 C   0  0  0  0  0  0  0  0  0  0  0  0
    2.0980    1.5073    1.3010 C   0  0  0  0  0  0  0  0  0  0  0  0
    0.7836   -0.5286    1.0789 C   0  0  0  0  0  0  0  0  0  0  0  0
    1.0084    0.7202    1.6800 C   0  0  0  0  0  0  0  0  0  0  0  0
   -2.0431   -0.2864   -0.6351 C   0  0  0  0  0  0  0  0  0  0  0  0
   -0.9726   -2.1817    0.5869 C   0  0  0  0  0  0  0  0  0  0  0  0
   -2.5244    0.2783    0.5171 C   0  0  0  0  0  0  0  0  0  0  0  0
   -2.9994    1.5885    0.4600 C   0  0  0  0  0  0  0  0  0  0  0  0
   -2.0025    0.3649   -1.8403 C   0  0  0  0  0  0  0  0  0  0  0  0
   -1.6044   -2.4316   -1.8140 C   0  0  0  0  0  0  0  0  0  0  0  0
   -2.9761    2.2870   -0.7472 C   0  0  0  0  0  0  0  0  0  0  0  0
   -2.4776    1.6750   -1.8973 C   0  0  0  0  0  0  0  0  0  0  0  0
   -3.5318    2.2436    1.6897 C   0  0  0  0  0  0  0  0  0  0  0  0
  1 14  2  0
  2 11  1  0
  2 14  1  0
  3 13  1  0
  3 14  1  0
  3 18  1  0
  4  5  1  0
  4  6  1  0
  5  7  1  0
  6  8  1  0
  7  8  2  0
  7  9  1  0
  8 10  1  0
  9 11  2  0
 10 12  2  0
 11 12  1  0
 13 15  2  0
 13 17  1  0
 15 16  1  0
 16 19  2  0
 16 21  1  0
 17 20  2  0
 19 20  1  0
M  END
>  <PUBCHEM_COMPOUND_CID>  (1) 
34051

>  <PUBCHEM_CONFORMER_RMSD>  (1) 
0.8

>  <PUBCHEM_CONFORMER_DIVERSEORDER>  (1) 
1
25
114
98
102
97
177
121
50
118
86
113
170
173
80
133
48
111
8
85
178
52
99
172
14
55
115
138
126
87
84
120
136
163
100
10
32
139
65
152
108
22
182
42
158
20
7
107
81
3
174
179
23
58
157
131
125
77
122
59
123
92
51
35
162
145
30
62
171
15
142
116
94
176
16
24
109
110
140
27
33
181
168
76
153
2
90
96
166
83
164
175
12
4
89
93
128
34
144
155
82
63
19
105
60
119
69
68
79
21
101
91
71
117
64
56
37
41
54
88
151
150
160
43
26
130
31
73
18
104
132
49
147
103
135
66
36
11
106
70
17
75
38
95
112
143
5
129
72
134
39
137
146
165
141
180
44
161
28
167
74
124
40
149
159
9
127
45
156
47
13
46
6
29
169
148
57
78
61
67
53
154

>  <PUBCHEM_MMFF94_PARTIAL_CHARGES>  (1) 
27
1 -0.38
10 -0.15
11 0.08
12 -0.15
13 0.12
14 0.59
15 -0.15
16 -0.14
17 -0.15
18 0.3
19 -0.15
2 -0.23
20 -0.15
21 0.14
28 0.15
29 0.15
3 -0.48
30 0.15
31 0.15
32 0.15
36 0.15
37 0.15
5 0.14
6 0.14
7 -0.14
8 -0.14
9 -0.15

>  <PUBCHEM_EFFECTIVE_ROTOR_COUNT>  (1) 
4.6

>  <PUBCHEM_PHARMACOPHORE_FEATURES>  (1) 
4
1 1 acceptor
5 4 5 6 7 8 rings
6 13 15 16 17 19 20 rings
6 7 8 9 10 11 12 rings

>  <PUBCHEM_HEAVY_ATOM_COUNT>  (1) 
21

>  <PUBCHEM_ATOM_DEF_STEREO_COUNT>  (1) 
0

>  <PUBCHEM_ATOM_UDEF_STEREO_COUNT>  (1) 
0

>  <PUBCHEM_BOND_DEF_STEREO_COUNT>  (1) 
0

>  <PUBCHEM_BOND_UDEF_STEREO_COUNT>  (1) 
0

>  <PUBCHEM_ISOTOPIC_ATOM_COUNT>  (1) 
0

>  <PUBCHEM_COMPONENT_COUNT>  (1) 
1

>  <PUBCHEM_CACTVS_TAUTO_COUNT>  (1) 
1

>  <PUBCHEM_CONFORMER_ID>  (1) 
0000850300000001

>  <PUBCHEM_MMFF94_ENERGY>  (1) 
93.0607

>  <PUBCHEM_FEATURE_SELFOVERLAP>  (1) 
20.381

>  <PUBCHEM_SHAPE_FINGERPRINT>  (1) 
10165383 225 18190198809662119617
10498660 4 18115013139466588109
10764073 3 17625028994047328251
11640471 11 16806978079125749662
12173636 292 18334294262379009807
12788726 201 18267007539773716739
128993 33 18262510395117948469
13583140 156 14346065473649082676
13681431 1 17257640128593746447
13693222 15 11097858488434610380
14341114 328 15069207596352011581
14386348 128 18335416816469626233
14713325 29 18042982037092916218
14787075 74 14420996112686275937
15534591 1 18334858311759818579
15664445 248 15475288164902968853
17357779 13 17907567382889828431
18186145 218 18410294666696943360
18785283 64 17899426285207198771
18981168 100 17096074792999063638
20465049 17 17702106868146566729
20600515 1 17395837122218466611
21069387 34 11743542268093302001
21524375 3 18339916005418810795
21731516 1 11383262114611875855
21756936 100 16153719738811210004
21864079 5 17530679918452591228
22182937 141 18410019861361266921
23419403 2 13605039608819294595
23557571 272 17829325040451403578
238 59 17759490323949123117
24893989 43 15538323247980190503
25 1 18199473177225522634
2637199 183 18200879448624409665
350125 39 18261103033351685299
3729539 64 17759546377678690014
3797600 57 15648208229216029220
469060 322 16588871324952206217
4921388 177 18336834198800779742
5161694 15 17989490710338360812
5262128 65 16843568731103442985
5845 1 15754253634945293819
6287921 2 17976552928686996476
6442390 28 18334870393988242811
7226269 152 18270953537087553760
7399639 24 17694501851227944400
81228 2 18120084237559982555
85463 6 9871749100394904332
9882013 296 11386376945544591372

>  <PUBCHEM_SHAPE_MULTIPOLES>  (1) 
425.17
7.27
3.29
1.9
6.85
2.64
0.26
-5.04
1.78
-2.89
-0.66
-0.92
-0.14
0.02

>  <PUBCHEM_SHAPE_SELFOVERLAP>  (1) 
906.557

>  <PUBCHEM_SHAPE_VOLUME>  (1) 
240.1

>  <PUBCHEM_COORDINATE_TYPE>  (1) 
2
5
10

$$$$
