34056
     RDKit          3D

 13 13  0  0  0  0  0  0  0  0999 V2000
    3.9199    1.3253    0.0318 O   0  0  0  0  0  0  0  0  0  0  0  0
    4.1621   -0.8595    0.1082 O   0  0  0  0  0  0  0  0  0  0  0  0
    3.4422    0.1657    0.0481 N   0  0  0  0  0  0  0  0  0  0  0  0
   -5.6344    0.0256    0.0355 N   0  0  0  0  0  0  0  0  0  0  0  0
   -0.7383   -0.3050   -0.1039 C   0  0  0  0  0  0  0  0  0  0  0  0
    2.0320    0.0075   -0.0028 C   0  0  0  0  0  0  0  0  0  0  0  0
   -0.1796    0.9730   -0.1198 C   0  0  0  0  0  0  0  0  0  0  0  0
    0.0881   -1.4267   -0.0373 C   0  0  0  0  0  0  0  0  0  0  0  0
    1.2056    1.1292   -0.0694 C   0  0  0  0  0  0  0  0  0  0  0  0
    1.4733   -1.2704    0.0133 C   0  0  0  0  0  0  0  0  0  0  0  0
   -2.1827   -0.4688   -0.1539 C   0  0  0  0  0  0  0  0  0  0  0  0
   -3.0954    0.4780    0.1598 C   0  0  0  0  0  0  0  0  0  0  0  0
   -4.4929    0.2263    0.0905 C   0  0  0  0  0  0  0  0  0  0  0  0
  1  3  1  0
  2  3  2  0
  3  6  1  0
  4 13  3  0
  5  7  2  0
  5  8  1  0
  5 11  1  0
  6  9  2  0
  6 10  1  0
  7  9  1  0
  8 10  2  0
 11 12  2  0
 12 13  1  0
M  CHG  2   1  -1   3   1
M  END
>  <PUBCHEM_COMPOUND_CID>  (1) 
34056

>  <PUBCHEM_CONFORMER_RMSD>  (1) 
0.6

>  <PUBCHEM_CONFORMER_DIVERSEORDER>  (1) 
1

>  <PUBCHEM_MMFF94_PARTIAL_CHARGES>  (1) 
19
1 -0.52
10 -0.15
11 -0.18
12 -0.09
13 0.49
14 0.15
15 0.15
16 0.15
17 0.15
18 0.15
19 0.15
2 -0.52
3 0.91
4 -0.56
5 0.03
6 0.13
7 -0.15
8 -0.15
9 -0.15

>  <PUBCHEM_EFFECTIVE_ROTOR_COUNT>  (1) 
2

>  <PUBCHEM_PHARMACOPHORE_FEATURES>  (1) 
5
1 1 acceptor
1 1 anion
1 2 acceptor
1 4 acceptor
6 5 6 7 8 9 10 rings

>  <PUBCHEM_HEAVY_ATOM_COUNT>  (1) 
13

>  <PUBCHEM_ATOM_DEF_STEREO_COUNT>  (1) 
0

>  <PUBCHEM_ATOM_UDEF_STEREO_COUNT>  (1) 
0

>  <PUBCHEM_BOND_DEF_STEREO_COUNT>  (1) 
0

>  <PUBCHEM_BOND_UDEF_STEREO_COUNT>  (1) 
1

>  <PUBCHEM_ISOTOPIC_ATOM_COUNT>  (1) 
0

>  <PUBCHEM_COMPONENT_COUNT>  (1) 
1

>  <PUBCHEM_CACTVS_TAUTO_COUNT>  (1) 
1

>  <PUBCHEM_CONFORMER_ID>  (1) 
0000850800000001

>  <PUBCHEM_MMFF94_ENERGY>  (1) 
34.4649

>  <PUBCHEM_FEATURE_SELFOVERLAP>  (1) 
25.452

>  <PUBCHEM_SHAPE_FINGERPRINT>  (1) 
10219947 1 18335141989980710660
11062470 55 17918275354928524685
11401426 45 18343015605632038523
11471102 20 18410291410668452517
13380535 76 18410858763364727003
13690532 89 18410293588259069555
14123238 8 18413388748373210813
14325111 11 18411136969749479934
17834072 33 18130783499463141847
18522853 276 18342459231774980281
200 152 18273210916058396711
20279233 1 17676497133622317723
20645477 70 18341614763383784414
21267235 1 18339651052812022750
23402539 116 17132109131269625045
23402655 69 18342731880910304973
23557571 272 16733544910337359503
366044 4 18411418427282915130
4047638 21 18341896311801667496
42788 4 18410856555988419977
449060 62 18412826889141009610
4990 188 17846224340548425071
53655031 270 18342176635273540313

>  <PUBCHEM_SHAPE_MULTIPOLES>  (1) 
245.83
8.88
1.28
0.6
7.18
0.08
-0.01
-1.03
0.48
-0.87
-0.01
0.06
0
-0.06

>  <PUBCHEM_SHAPE_SELFOVERLAP>  (1) 
513.591

>  <PUBCHEM_SHAPE_VOLUME>  (1) 
137.2

>  <PUBCHEM_COORDINATE_TYPE>  (1) 
2
5
10

$$$$
