34063
     RDKit          3D

 18 19  0  0  1  0  0  0  0  0999 V2000
   -5.8684    1.1812   -0.7136 F   0  0  0  0  0  0  0  0  0  0  0  0
   -0.7725   -1.8738    1.2978 O   0  0  0  0  0  0  0  0  0  0  0  0
    2.7656   -0.0314   -0.2696 N   0  0  0  0  0  0  0  0  0  0  0  0
    3.0376    0.9230    0.8143 C   0  0  0  0  0  0  0  0  0  0  0  0
    3.9513   -0.8462   -0.5699 C   0  0  0  0  0  0  0  0  0  0  0  0
    1.6307   -0.8872    0.0752 C   0  0  0  0  0  0  0  0  0  0  0  0
    4.1911    1.8586    0.4491 C   0  0  0  0  0  0  0  0  0  0  0  0
    5.1347    0.0317   -0.9806 C   0  0  0  0  0  0  0  0  0  0  0  0
    5.4473    1.0750    0.0860 C   0  0  0  0  0  0  0  0  0  0  0  0
    0.3922   -0.0067    0.3027 C   0  0  0  0  0  0  0  0  0  0  0  0
    1.4181   -1.8905   -1.0587 C   0  0  0  0  0  0  0  0  0  0  0  0
   -0.8444   -0.8032    0.6993 C   0  0  0  0  0  0  0  0  0  0  0  0
   -2.1854   -0.2736    0.3233 C   0  0  0  0  0  0  0  0  0  0  0  0
   -2.3546    1.0897    0.2243 C   0  0  0  0  0  0  0  0  0  0  0  0
   -3.2073   -1.1666    0.0873 C   0  0  0  0  0  0  0  0  0  0  0  0
   -3.6097    1.5855   -0.1284 C   0  0  0  0  0  0  0  0  0  0  0  0
   -4.4625   -0.6708   -0.2653 C   0  0  0  0  0  0  0  0  0  0  0  0
   -4.6637    0.7053   -0.3733 C   0  0  0  0  0  0  0  0  0  0  0  0
  1 18  1  0
  2 12  2  0
  3  4  1  0
  3  5  1  0
  3  6  1  0
  4  7  1  0
  5  8  1  0
  6 10  1  0
  6 11  1  0
  7  9  1  0
  8  9  1  0
 10 12  1  0
 12 13  1  0
 13 14  2  0
 13 15  1  0
 14 16  1  0
 15 17  2  0
 16 18  2  0
 17 18  1  0
M  END
>  <PUBCHEM_COMPOUND_CID>  (1) 
34063

>  <PUBCHEM_CONFORMER_RMSD>  (1) 
0.6

>  <PUBCHEM_CONFORMER_DIVERSEORDER>  (1) 
1
80
59
66
63
90
51
86
23
28
33
57
5
87
60
62
52
24
46
77
88
68
30
89
54
65
48
27
15
40
20
13
39
75
31
41
81
4
44
32
85
16
47
64
73
72
12
53
6
74
58
84
49
76
29
11
34
56
37
25
22
3
61
42
21
2
36
83
69
38
35
55
82
18
45
70
9
43
78
50
79
10
14
17
71
26
7
19
67
8

>  <PUBCHEM_MMFF94_PARTIAL_CHARGES>  (1) 
18
1 -0.19
10 0.06
12 0.42
13 0.09
14 -0.15
15 -0.15
16 -0.15
17 -0.15
18 0.19
2 -0.57
3 -0.81
35 0.15
36 0.15
37 0.15
38 0.15
4 0.27
5 0.27
6 0.27

>  <PUBCHEM_EFFECTIVE_ROTOR_COUNT>  (1) 
5.2

>  <PUBCHEM_PHARMACOPHORE_FEATURES>  (1) 
4
1 2 acceptor
1 3 cation
6 13 14 15 16 17 18 rings
6 3 4 5 7 8 9 rings

>  <PUBCHEM_HEAVY_ATOM_COUNT>  (1) 
18

>  <PUBCHEM_ATOM_DEF_STEREO_COUNT>  (1) 
0

>  <PUBCHEM_ATOM_UDEF_STEREO_COUNT>  (1) 
1

>  <PUBCHEM_BOND_DEF_STEREO_COUNT>  (1) 
0

>  <PUBCHEM_BOND_UDEF_STEREO_COUNT>  (1) 
0

>  <PUBCHEM_ISOTOPIC_ATOM_COUNT>  (1) 
0

>  <PUBCHEM_COMPONENT_COUNT>  (1) 
1

>  <PUBCHEM_CACTVS_TAUTO_COUNT>  (1) 
2

>  <PUBCHEM_CONFORMER_ID>  (1) 
0000850F00000001

>  <PUBCHEM_MMFF94_ENERGY>  (1) 
33.3546

>  <PUBCHEM_FEATURE_SELFOVERLAP>  (1) 
20.297

>  <PUBCHEM_SHAPE_FINGERPRINT>  (1) 
10014705 185 18335140920517997257
10498660 4 18334572417225064385
11046707 91 11743841352493734115
11128504 68 14907899414130560776
11595378 159 16660634120898732068
12236239 1 16226047812160807970
12403259 415 18342461494905994040
12596602 18 15430045378379998300
12670546 177 17632856446988471751
12730499 353 18412553093402774755
12916748 109 18259708899704008241
13288520 33 10879996860734281593
13402501 40 18411697707906215208
13533116 47 17749662987556428162
13551218 46 8790889588104968745
13675066 3 11602818025475013590
13685833 64 10735870695149538565
14251764 38 18411706508178316036
14528608 73 18272929440258915932
14573314 32 18411141337857872676
15375358 24 18409452496313398986
15961568 22 18187367674975393236
17834072 33 18131348617837029486
1813 80 12967130523062138802
200 152 17060624390693751499
20281475 54 9223220845569107138
20300324 65 18343301474866682209
20645477 56 18334860502694013595
20645477 70 17775014457903201774
20871999 31 18059562638312025287
212847 35 18113616768657979240
221357 26 18060417993221970224
22289505 5 18344145882722907708
22950370 63 10375872991418120690
23227448 37 18199465630983840575
23402539 116 18333726944396486119
23402655 69 18201719535315604735
23557571 272 18262251013706339443
23559900 14 18411419501615388042
2767999 5 17749383767553384165
2916195 48 18260828215573776433
29717793 49 16702311122308503836
3060560 45 17989491810213953238
34797466 226 17846504754705364213
351380 180 18411135853184706968
351380 3 12895354382489193900
3545911 37 18409451379827422461
4028521 119 18410011026787631745
42 15 8502655913101271379
441001 317 18408604768722130593
474 4 18040159521486419901
5104073 3 18334017163847464923
542803 24 16877663469667000076
58051976 378 17846502504174156062
5924683 9 12613333000582823857
59755656 520 17967246511734538074
67856867 119 18337100164556191474

>  <PUBCHEM_SHAPE_MULTIPOLES>  (1) 
352.31
12.73
1.81
0.94
0.24
0.02
-0.04
-5.22
3
0.17
-0.02
0.19
0.2
1.05

>  <PUBCHEM_SHAPE_SELFOVERLAP>  (1) 
730.147

>  <PUBCHEM_SHAPE_VOLUME>  (1) 
202.2

>  <PUBCHEM_COORDINATE_TYPE>  (1) 
2
5
10

$$$$
