34065
     RDKit          3D

 24 26  0  0  1  0  0  0  0  0999 V2000
   -7.6004   -1.9386    0.8229 F   0  0  0  0  0  0  0  0  0  0  0  0
   -3.1239    1.8237   -1.4461 O   0  0  0  0  0  0  0  0  0  0  0  0
    0.6701    0.8035    0.2665 N   0  0  0  0  0  0  0  0  0  0  0  0
    3.4348    0.1256    0.0292 N   0  0  0  0  0  0  0  0  0  0  0  0
   -0.5977    1.4032   -0.1480 C   0  0  0  0  0  0  0  0  0  0  0  0
    1.7037    1.8351    0.4152 C   0  0  0  0  0  0  0  0  0  0  0  0
    1.1063   -0.2036   -0.7087 C   0  0  0  0  0  0  0  0  0  0  0  0
    3.0213    1.2278    0.9031 C   0  0  0  0  0  0  0  0  0  0  0  0
    2.4032   -0.8793   -0.2572 C   0  0  0  0  0  0  0  0  0  0  0  0
   -1.6499    0.2936   -0.2975 C   0  0  0  0  0  0  0  0  0  0  0  0
   -1.0071    2.4419    0.8967 C   0  0  0  0  0  0  0  0  0  0  0  0
    4.7731   -0.2829    0.0133 C   0  0  0  0  0  0  0  0  0  0  0  0
   -3.0062    0.8124   -0.7584 C   0  0  0  0  0  0  0  0  0  0  0  0
    5.5840   -0.1579    1.1590 C   0  0  0  0  0  0  0  0  0  0  0  0
    5.3504   -0.8314   -1.1494 C   0  0  0  0  0  0  0  0  0  0  0  0
   -4.2322    0.0781   -0.3365 C   0  0  0  0  0  0  0  0  0  0  0  0
    6.9182   -0.5645    1.1427 C   0  0  0  0  0  0  0  0  0  0  0  0
    6.6846   -1.2382   -1.1657 C   0  0  0  0  0  0  0  0  0  0  0  0
    7.4685   -1.1047   -0.0196 C   0  0  0  0  0  0  0  0  0  0  0  0
   -4.1494   -1.2797   -0.1214 C   0  0  0  0  0  0  0  0  0  0  0  0
   -5.4041    0.7841   -0.1766 C   0  0  0  0  0  0  0  0  0  0  0  0
   -5.2971   -1.9668    0.2737 C   0  0  0  0  0  0  0  0  0  0  0  0
   -6.5519    0.0971    0.2186 C   0  0  0  0  0  0  0  0  0  0  0  0
   -6.4984   -1.2785    0.4438 C   0  0  0  0  0  0  0  0  0  0  0  0
  1 24  1  0
  2 13  2  0
  3  5  1  0
  3  6  1  0
  3  7  1  0
  4  8  1  0
  4  9  1  0
  4 12  1  0
  5 10  1  0
  5 11  1  0
  6  8  1  0
  7  9  1  0
 10 13  1  0
 12 14  2  0
 12 15  1  0
 13 16  1  0
 14 17  1  0
 15 18  2  0
 16 20  2  0
 16 21  1  0
 17 19  2  0
 18 19  1  0
 20 22  1  0
 21 23  2  0
 22 24  2  0
 23 24  1  0
M  END
>  <PUBCHEM_COMPOUND_CID>  (1) 
34065

>  <PUBCHEM_CONFORMER_RMSD>  (1) 
0.8

>  <PUBCHEM_CONFORMER_DIVERSEORDER>  (1) 
1
114
23
132
105
124
85
137
134
35
31
89
36
145
71
33
106
113
138
49
139
95
108
79
101
55
9
34
97
127
126
13
3
130
135
63
110
30
77
14
15
87
99
93
46
115
45
125
64
119
74
90
10
128
122
91
107
142
146
70
121
66
24
17
80
20
102
25
11
28
5
29
83
98
88
78
41
117
18
118
48
57
104
7
27
86
47
22
16
141
42
4
21
131
76
37
136
26
56
59
129
68
38
73
69
12
84
82
94
140
100
62
6
72
65
120
67
39
2
50
92
52
43
32
8
53
123
133
111
19
54
144
61
116
96
60
40
143
81
109
112
58
44
75
103
51

>  <PUBCHEM_MMFF94_PARTIAL_CHARGES>  (1) 
32
1 -0.19
10 0.06
12 0.1
13 0.42
14 -0.15
15 -0.15
16 0.09
17 -0.15
18 -0.15
19 -0.15
2 -0.57
20 -0.15
21 -0.15
22 -0.15
23 -0.15
24 0.19
3 -0.81
39 0.15
4 -0.84
40 0.15
41 0.15
42 0.15
43 0.15
44 0.15
45 0.15
46 0.15
47 0.15
5 0.27
6 0.27
7 0.27
8 0.37
9 0.37

>  <PUBCHEM_EFFECTIVE_ROTOR_COUNT>  (1) 
6.2

>  <PUBCHEM_PHARMACOPHORE_FEATURES>  (1) 
6
1 2 acceptor
1 3 cation
1 4 cation
6 12 14 15 17 18 19 rings
6 16 20 21 22 23 24 rings
6 3 4 6 7 8 9 rings

>  <PUBCHEM_HEAVY_ATOM_COUNT>  (1) 
24

>  <PUBCHEM_ATOM_DEF_STEREO_COUNT>  (1) 
0

>  <PUBCHEM_ATOM_UDEF_STEREO_COUNT>  (1) 
1

>  <PUBCHEM_BOND_DEF_STEREO_COUNT>  (1) 
0

>  <PUBCHEM_BOND_UDEF_STEREO_COUNT>  (1) 
0

>  <PUBCHEM_ISOTOPIC_ATOM_COUNT>  (1) 
0

>  <PUBCHEM_COMPONENT_COUNT>  (1) 
1

>  <PUBCHEM_CACTVS_TAUTO_COUNT>  (1) 
2

>  <PUBCHEM_CONFORMER_ID>  (1) 
0000851100000001

>  <PUBCHEM_MMFF94_ENERGY>  (1) 
75.551

>  <PUBCHEM_FEATURE_SELFOVERLAP>  (1) 
30.45

>  <PUBCHEM_SHAPE_FINGERPRINT>  (1) 
10299344 5 17749391455344416099
11297750 10 13396425982206283256
11315181 36 18335141990708938225
11524674 6 17703789236853851727
11646440 116 17775565338755538346
11963148 33 18335695036109962458
11991303 11 13984674671325907096
12166972 35 17967817154464906428
12236239 1 16081085952660253021
12516196 113 18272651246594969304
12616971 3 17489297624829359092
12760667 363 18272647953046227661
13288520 33 18187364333759030141
13402501 40 18412829088143724983
13668630 136 18410295787741364958
13673619 4 18335420188409454149
13685833 64 18343864411866707840
13782708 43 18334288786100476391
13885169 127 18341894057297674273
13911987 19 13045939110490310033
14068700 675 18113058233382949116
14123256 34 18411422821076429643
1420 363 18201718436289234796
14251757 52 11527652108467079106
14341114 176 18202001053221181704
14344974 204 18126848420526670415
14420673 8 18410858793904115451
14556957 393 15357984417024336671
14729087 3 10159697988684990423
14767858 380 16226046686832098552
14849402 71 16414904379250530456
15003188 100 12757441569966129982
15142383 8 10952047849904065258
15183329 4 15574711396000536426
15348495 7 17560511927681686779
15352257 5 18409167696990231922
15419008 91 18266156427400585536
15461852 350 18041280972978074030
15716309 27 18343581858410146263
18335252 98 18342459236671249782
18608769 82 18411698798875134326
18643901 69 18186239524816013951
20105231 36 17917999369527219838
20281389 69 10303815375963352582
21150785 3 17240488009583245190
21267235 1 18201722830394297380
21298829 104 8286212664498000455
21521239 73 15502370115373120232
21521721 280 17275096259270451186
21623969 137 17775006769537215094
21781051 124 18341909510474156262
22224240 67 16559026095149128886
22956985 138 17682952203460971290
2297311 6 18259704493495122853
23035841 295 18333732411926621099
23081809 10 16298663889602869364
23198884 109 16008751294740512013
23522609 53 17970376778379010125
23559900 14 18262796392737653617
246663 6 18186243939863156491
2747138 104 18202284701978637872
2838139 119 9727627294043477243
3004659 81 18186802499758640324
3178227 256 17989770008014598002
3383291 50 18411981394881027315
3418910 222 18342179977772129128
4107672 100 17531239518790360373
465052 167 18272091604288618532
5104073 3 17631167477655269594
5283156 175 17312821559174609063
5937810 71 12107770901644205311
59682541 35 18202557402648334290
59682541 52 14490464267189654760
59755656 215 18410013217057948574
6009941 240 18200878371083880657
636775 8 18341341024576740270
6700243 42 18120114800673771764
8863177 126 18338516464223263827
999808 66 18343303660646632327

>  <PUBCHEM_SHAPE_MULTIPOLES>  (1) 
470.8
22.19
1.97
1.07
2.45
0.44
-0.06
-13.59
2.9
-1.82
0.23
0.76
0.03
1.74

>  <PUBCHEM_SHAPE_SELFOVERLAP>  (1) 
999.398

>  <PUBCHEM_SHAPE_VOLUME>  (1) 
263.4

>  <PUBCHEM_COORDINATE_TYPE>  (1) 
2
5
10

$$$$
