34078
     RDKit          3D

 23 24  0  0  0  0  0  0  0  0999 V2000
    4.8837   -1.2662    0.1192 O   0  0  0  0  0  0  0  0  0  0  0  0
   -4.4687   -1.9181    0.4229 O   0  0  0  0  0  0  0  0  0  0  0  0
   -0.1262    2.8522   -0.4514 C   0  0  0  0  0  0  0  0  0  0  0  0
   -0.0055    1.5332    0.4201 C   0  0  0  0  0  0  0  0  0  0  0  0
    1.0118    3.8729   -0.2796 C   0  0  0  0  0  0  0  0  0  0  0  0
   -1.4535    3.5741   -0.1114 C   0  0  0  0  0  0  0  0  0  0  0  0
   -0.1878    2.4737   -1.9521 C   0  0  0  0  0  0  0  0  0  0  0  0
    1.3220    0.7726    0.3386 C   0  0  0  0  0  0  0  0  0  0  0  0
   -1.2177    0.5962    0.4208 C   0  0  0  0  0  0  0  0  0  0  0  0
    2.1438    0.7658    1.4407 C   0  0  0  0  0  0  0  0  0  0  0  0
   -1.9578    0.4807    1.5736 C   0  0  0  0  0  0  0  0  0  0  0  0
    1.6382    0.1282   -0.8341 C   0  0  0  0  0  0  0  0  0  0  0  0
   -1.5160   -0.0918   -0.7316 C   0  0  0  0  0  0  0  0  0  0  0  0
    3.3527    0.0740    1.3658 C   0  0  0  0  0  0  0  0  0  0  0  0
   -3.0609   -0.3730    1.5741 C   0  0  0  0  0  0  0  0  0  0  0  0
    2.8471   -0.5636   -0.9089 C   0  0  0  0  0  0  0  0  0  0  0  0
   -2.6192   -0.9454   -0.7310 C   0  0  0  0  0  0  0  0  0  0  0  0
    3.7044   -0.5907    0.1910 C   0  0  0  0  0  0  0  0  0  0  0  0
   -3.3916   -1.0861    0.4218 C   0  0  0  0  0  0  0  0  0  0  0  0
    4.9289   -2.4043   -0.7402 C   0  0  0  0  0  0  0  0  0  0  0  0
   -5.1523   -2.0970   -0.8166 C   0  0  0  0  0  0  0  0  0  0  0  0
    5.9351   -3.3949   -0.1943 C   0  0  0  0  0  0  0  0  0  0  0  0
   -6.6107   -2.3923   -0.5372 C   0  0  0  0  0  0  0  0  0  0  0  0
  1 18  1  0
  1 20  1  0
  2 19  1  0
  2 21  1  0
  3  4  1  0
  3  5  1  0
  3  6  1  0
  3  7  1  0
  4  8  1  0
  4  9  1  0
  8 10  2  0
  8 12  1  0
  9 11  2  0
  9 13  1  0
 10 14  1  0
 11 15  1  0
 12 16  2  0
 13 17  2  0
 14 18  2  0
 15 19  2  0
 16 18  1  0
 17 19  1  0
 20 22  1  0
 21 23  1  0
M  END
>  <PUBCHEM_COMPOUND_CID>  (1) 
34078

>  <PUBCHEM_CONFORMER_RMSD>  (1) 
0.8

>  <PUBCHEM_CONFORMER_DIVERSEORDER>  (1) 
1
6
14
9
3
11
13
10
12
5
8
4
7
2

>  <PUBCHEM_MMFF94_PARTIAL_CHARGES>  (1) 
25
1 -0.36
10 -0.15
11 -0.15
12 -0.15
13 -0.15
14 -0.15
15 -0.15
16 -0.15
17 -0.15
18 0.08
19 0.08
2 -0.36
20 0.28
21 0.28
34 0.15
35 0.15
36 0.15
37 0.15
38 0.15
39 0.15
4 0.29
40 0.15
41 0.15
8 -0.14
9 -0.14

>  <PUBCHEM_EFFECTIVE_ROTOR_COUNT>  (1) 
7

>  <PUBCHEM_PHARMACOPHORE_FEATURES>  (1) 
5
1 1 acceptor
1 2 acceptor
4 3 5 6 7 hydrophobe
6 8 10 12 14 16 18 rings
6 9 11 13 15 17 19 rings

>  <PUBCHEM_HEAVY_ATOM_COUNT>  (1) 
23

>  <PUBCHEM_ATOM_DEF_STEREO_COUNT>  (1) 
0

>  <PUBCHEM_ATOM_UDEF_STEREO_COUNT>  (1) 
0

>  <PUBCHEM_BOND_DEF_STEREO_COUNT>  (1) 
0

>  <PUBCHEM_BOND_UDEF_STEREO_COUNT>  (1) 
0

>  <PUBCHEM_ISOTOPIC_ATOM_COUNT>  (1) 
0

>  <PUBCHEM_COMPONENT_COUNT>  (1) 
1

>  <PUBCHEM_CACTVS_TAUTO_COUNT>  (1) 
1

>  <PUBCHEM_CONFORMER_ID>  (1) 
0000851E00000001

>  <PUBCHEM_MMFF94_ENERGY>  (1) 
93.3585

>  <PUBCHEM_FEATURE_SELFOVERLAP>  (1) 
25.371

>  <PUBCHEM_SHAPE_FINGERPRINT>  (1) 
11578080 2 18059281154360908257
11796584 16 17834959668899787066
11809386 21 18044372726181622474
12363563 72 18334579061475713235
12549972 3 17485619608532255552
12553582 1 18113341903082030363
12623949 98 17917721205748676662
12633257 1 15482387655084421163
12788726 201 17825102610526042313
12892183 10 15410346450620530818
13533116 47 18058728147329993043
13583140 156 15410608134345536051
13631057 29 18336829672459748234
13681431 1 18042410299082694701
13955234 65 17909554196454184953
14178000 29 18410293639798722601
15042514 8 18193844747117554256
15475509 8 18260263028480249687
17349148 13 17845664784510821239
17492 89 18267307728212950147
17539 30 18262798441394869045
1813 80 18410013268591761660
18222031 100 18410855507499571563
18393751 57 17839155744542116800
19784866 240 18411984702179320459
20645477 70 18046057422760453395
21033650 10 17096361748496293909
23559900 14 18192990637727039251
23598288 3 17972341541338395700
3286 77 17846780710954885786
427121 178 11167675316456470057
437815 12 18335134302485181839
44062 13 17977389331155977710
46194498 28 17605266488134241791
463206 1 18186795915680089907
484985 159 18192708943147788375
5104073 3 17346881139200186010
5207 123 18411134762452969903
54076057 255 14273720864474922495
57262259 84 18260822657812463733
59755656 520 17762615096992955340
70251023 43 18335419067195675616
77188 2 18411418440173572580
7970288 3 18410013251481367274
81228 2 18189330182470598681
9971528 1 18339356491539271417

>  <PUBCHEM_SHAPE_MULTIPOLES>  (1) 
461.59
11.39
4.19
1.41
1.83
2.36
-0.13
-18.37
1.06
-0.8
1.36
0.2
0.34
0.1

>  <PUBCHEM_SHAPE_SELFOVERLAP>  (1) 
961.539

>  <PUBCHEM_SHAPE_VOLUME>  (1) 
265.2

>  <PUBCHEM_COORDINATE_TYPE>  (1) 
2
5
10

$$$$
