34072
     RDKit          3D

  8  7  0  0  1  0  0  0  0  0999 V2000
   -1.5526   -1.5661    0.1448 O   0  0  0  0  0  0  0  0  0  0  0  0
    1.6162    0.1259    0.4540 C   0  0  0  0  0  0  0  0  0  0  0  0
    0.2456    0.7384    0.8126 C   0  0  0  0  0  0  0  0  0  0  0  0
   -0.8021    0.6834   -0.3091 C   0  0  0  0  0  0  0  0  0  0  0  0
    2.2489    0.7839   -0.7729 C   0  0  0  0  0  0  0  0  0  0  0  0
    1.4602   -1.3778    0.2085 C   0  0  0  0  0  0  0  0  0  0  0  0
   -2.0970    1.3644    0.1273 C   0  0  0  0  0  0  0  0  0  0  0  0
   -1.1192   -0.7522   -0.6651 C   0  0  0  0  0  0  0  0  0  0  0  0
  1  8  2  0
  2  3  1  0
  2  5  1  0
  2  6  1  0
  3  4  1  0
  4  7  1  0
  4  8  1  0
M  END
>  <PUBCHEM_COMPOUND_CID>  (1) 
34072

>  <PUBCHEM_CONFORMER_RMSD>  (1) 
0.6

>  <PUBCHEM_CONFORMER_DIVERSEORDER>  (1) 
1
2

>  <PUBCHEM_MMFF94_PARTIAL_CHARGES>  (1) 
4
1 -0.57
22 0.06
4 0.06
8 0.45

>  <PUBCHEM_EFFECTIVE_ROTOR_COUNT>  (1) 
3

>  <PUBCHEM_PHARMACOPHORE_FEATURES>  (1) 
3
1 1 acceptor
1 7 hydrophobe
3 2 5 6 hydrophobe

>  <PUBCHEM_HEAVY_ATOM_COUNT>  (1) 
8

>  <PUBCHEM_ATOM_DEF_STEREO_COUNT>  (1) 
0

>  <PUBCHEM_ATOM_UDEF_STEREO_COUNT>  (1) 
1

>  <PUBCHEM_BOND_DEF_STEREO_COUNT>  (1) 
0

>  <PUBCHEM_BOND_UDEF_STEREO_COUNT>  (1) 
0

>  <PUBCHEM_ISOTOPIC_ATOM_COUNT>  (1) 
0

>  <PUBCHEM_COMPONENT_COUNT>  (1) 
1

>  <PUBCHEM_CACTVS_TAUTO_COUNT>  (1) 
2

>  <PUBCHEM_CONFORMER_ID>  (1) 
0000851800000001

>  <PUBCHEM_MMFF94_ENERGY>  (1) 
14.8008

>  <PUBCHEM_FEATURE_SELFOVERLAP>  (1) 
15.223

>  <PUBCHEM_SHAPE_FINGERPRINT>  (1) 
12897270 3 18262799712794274780
15310529 11 16880205407638670434
16714656 1 18196378249656839294
18185500 45 18337946805678294186
21040471 1 18269829826775423937
23211744 25 18194690495224492192
23235687 12 17967243183340007756
23552423 10 18334290942300951846
24536 1 18261936510156354662
29004967 10 18122620819105710291
5084963 1 18125428710031727397

>  <PUBCHEM_SHAPE_MULTIPOLES>  (1) 
158.77
2.93
1.6
0.87
0.19
0.47
0.03
-0.51
0.28
-0.37
-0.02
0.17
-0.1
-0.28

>  <PUBCHEM_SHAPE_SELFOVERLAP>  (1) 
288.941

>  <PUBCHEM_SHAPE_VOLUME>  (1) 
101.9

>  <PUBCHEM_COORDINATE_TYPE>  (1) 
2
5
10

$$$$
