34089
     RDKit          3D

  9  9  0  0  0  0  0  0  0  0999 V2000
    0.6094    1.3592    0.1126 N   0  0  0  0  0  0  0  0  0  0  0  0
    2.2267   -0.3882    0.5505 C   0  0  0  0  0  0  0  0  0  0  0  0
    0.8206    0.0350    0.2851 C   0  0  0  0  0  0  0  0  0  0  0  0
   -1.4776   -0.4957   -0.0207 C   0  0  0  0  0  0  0  0  0  0  0  0
   -0.1783   -0.9235    0.2287 C   0  0  0  0  0  0  0  0  0  0  0  0
    2.9910   -0.6985   -0.7334 C   0  0  0  0  0  0  0  0  0  0  0  0
   -1.7346    0.8586   -0.2035 C   0  0  0  0  0  0  0  0  0  0  0  0
   -2.5910   -1.4845   -0.0916 C   0  0  0  0  0  0  0  0  0  0  0  0
   -0.6661    1.7375   -0.1277 C   0  0  0  0  0  0  0  0  0  0  0  0
  1  3  2  0
  1  9  1  0
  2  3  1  0
  2  6  1  0
  3  5  1  0
  4  5  2  0
  4  7  1  0
  4  8  1  0
  7  9  2  0
M  END
>  <PUBCHEM_COMPOUND_CID>  (1) 
34089

>  <PUBCHEM_CONFORMER_RMSD>  (1) 
0.4

>  <PUBCHEM_CONFORMER_DIVERSEORDER>  (1) 
1
2
3
4

>  <PUBCHEM_MMFF94_PARTIAL_CHARGES>  (1) 
11
1 -0.62
12 0.15
16 0.15
2 0.14
20 0.15
3 0.17
4 -0.14
5 -0.15
7 -0.15
8 0.14
9 0.16

>  <PUBCHEM_EFFECTIVE_ROTOR_COUNT>  (1) 
1

>  <PUBCHEM_PHARMACOPHORE_FEATURES>  (1) 
3
1 1 acceptor
1 6 hydrophobe
6 1 3 4 5 7 9 rings

>  <PUBCHEM_HEAVY_ATOM_COUNT>  (1) 
9

>  <PUBCHEM_ATOM_DEF_STEREO_COUNT>  (1) 
0

>  <PUBCHEM_ATOM_UDEF_STEREO_COUNT>  (1) 
0

>  <PUBCHEM_BOND_DEF_STEREO_COUNT>  (1) 
0

>  <PUBCHEM_BOND_UDEF_STEREO_COUNT>  (1) 
0

>  <PUBCHEM_ISOTOPIC_ATOM_COUNT>  (1) 
0

>  <PUBCHEM_COMPONENT_COUNT>  (1) 
1

>  <PUBCHEM_CACTVS_TAUTO_COUNT>  (1) 
2

>  <PUBCHEM_CONFORMER_ID>  (1) 
0000852900000001

>  <PUBCHEM_MMFF94_ENERGY>  (1) 
17.1524

>  <PUBCHEM_FEATURE_SELFOVERLAP>  (1) 
15.223

>  <PUBCHEM_SHAPE_FINGERPRINT>  (1) 
10857977 72 18340471348742174866
11206711 2 18261383443096755207
12716758 59 18196088833412224730
12897270 3 18410293579985717638
14128692 85 18337397139858298428
161256 15 18266738167523878489
16714656 1 18337955571500862436
16945 1 18265889172827586961
20653085 51 14996833300052209623
20871998 22 18340771558250530099
21040471 1 17977373937196422040
23552423 10 18259985985250444438
241688 4 18408599288280707009
2748010 2 18337659931943776597
29004967 10 16988556884145565386
5084963 1 18273215326146011971

>  <PUBCHEM_SHAPE_MULTIPOLES>  (1) 
180.23
3.72
1.64
0.73
1.61
0.42
-0.03
-1.63
-0.56
-0.82
-0.07
0.25
-0.06
0.13

>  <PUBCHEM_SHAPE_SELFOVERLAP>  (1) 
364.164

>  <PUBCHEM_SHAPE_VOLUME>  (1) 
106.7

>  <PUBCHEM_COORDINATE_TYPE>  (1) 
2
5
10

$$$$
