3408
     RDKit          3D

 22 25  0  0  1  0  0  0  0  0999 V2000
   -4.3870    1.2182   -1.1250 O   0  0  0  0  0  0  0  0  0  0  0  0
    4.0643   -1.9495    0.3349 O   0  0  0  0  0  0  0  0  0  0  0  0
    5.3687    0.4412    0.6634 O   0  0  0  0  0  0  0  0  0  0  0  0
   -0.8571   -0.7975   -0.0638 C   0  0  0  0  0  0  0  0  0  0  0  0
   -0.0833    0.5048    0.2536 C   0  0  0  0  0  0  0  0  0  0  0  0
   -2.2076   -0.8999    0.7070 C   0  0  0  0  0  0  0  0  0  0  0  0
   -3.0489    0.4018    0.7425 C   0  0  0  0  0  0  0  0  0  0  0  0
    1.3247    0.5971   -0.4606 C   0  0  0  0  0  0  0  0  0  0  0  0
   -0.9964    1.7054   -0.0462 C   0  0  0  0  0  0  0  0  0  0  0  0
   -2.2298    1.6879    0.8457 C   0  0  0  0  0  0  0  0  0  0  0  0
    0.0261   -2.0159    0.2573 C   0  0  0  0  0  0  0  0  0  0  0  0
   -3.1534   -1.9083    0.0225 C   0  0  0  0  0  0  0  0  0  0  0  0
    2.1108   -0.7068   -0.2477 C   0  0  0  0  0  0  0  0  0  0  0  0
    1.3362   -1.9787   -0.5155 C   0  0  0  0  0  0  0  0  0  0  0  0
   -3.8220    0.2861   -0.5657 C   0  0  0  0  0  0  0  0  0  0  0  0
   -3.8344   -1.1254   -1.0970 C   0  0  0  0  0  0  0  0  0  0  0  0
    2.0987    1.7948    0.1632 C   0  0  0  0  0  0  0  0  0  0  0  0
   -4.0860    0.3813    1.8810 C   0  0  0  0  0  0  0  0  0  0  0  0
    1.1842    0.8329   -1.9828 C   0  0  0  0  0  0  0  0  0  0  0  0
    3.5817    1.7923   -0.1604 C   0  0  0  0  0  0  0  0  0  0  0  0
    3.4057   -0.7546    0.1247 C   0  0  0  0  0  0  0  0  0  0  0  0
    4.2048    0.4928    0.2690 C   0  0  0  0  0  0  0  0  0  0  0  0
  1 15  2  0
  2 21  1  0
  3 22  2  0
  4  5  1  0
  4  6  1  0
  4 11  1  0
  5  8  1  0
  5  9  1  0
  6  7  1  0
  6 12  1  0
  7 10  1  0
  7 15  1  0
  7 18  1  0
  8 13  1  0
  8 17  1  0
  8 19  1  0
  9 10  1  0
 11 14  1  0
 12 16  1  0
 13 14  1  0
 13 21  2  0
 15 16  1  0
 17 20  1  0
 20 22  1  0
 21 22  1  0
M  END
>  <PUBCHEM_COMPOUND_CID>  (1) 
3408

>  <PUBCHEM_CONFORMER_RMSD>  (1) 
0.6

>  <PUBCHEM_CONFORMER_DIVERSEORDER>  (1) 
1
38
5
27
32
33
34
29
17
10
23
15
6
28
24
35
11
12
4
16
2
20
39
8
30
19
25
7
26
22
14
9
36
31
18
3
37
13
21

>  <PUBCHEM_MMFF94_PARTIAL_CHARGES>  (1) 
13
1 -0.57
13 -0.28
14 0.14
15 0.45
16 0.06
2 -0.53
20 0.06
21 0.09
22 0.49
3 -0.57
48 0.45
7 0.06
8 0.14

>  <PUBCHEM_EFFECTIVE_ROTOR_COUNT>  (1) 
1.6

>  <PUBCHEM_PHARMACOPHORE_FEATURES>  (1) 
7
1 1 acceptor
1 2 donor
1 3 acceptor
5 6 7 12 15 16 rings
6 4 5 6 7 9 10 rings
6 4 5 8 11 13 14 rings
6 8 13 17 20 21 22 rings

>  <PUBCHEM_HEAVY_ATOM_COUNT>  (1) 
22

>  <PUBCHEM_ATOM_DEF_STEREO_COUNT>  (1) 
0

>  <PUBCHEM_ATOM_UDEF_STEREO_COUNT>  (1) 
5

>  <PUBCHEM_BOND_DEF_STEREO_COUNT>  (1) 
0

>  <PUBCHEM_BOND_UDEF_STEREO_COUNT>  (1) 
0

>  <PUBCHEM_ISOTOPIC_ATOM_COUNT>  (1) 
0

>  <PUBCHEM_COMPONENT_COUNT>  (1) 
1

>  <PUBCHEM_CACTVS_TAUTO_COUNT>  (1) 
34

>  <PUBCHEM_CONFORMER_ID>  (1) 
00000D5000000001

>  <PUBCHEM_MMFF94_ENERGY>  (1) 
60.8608

>  <PUBCHEM_FEATURE_SELFOVERLAP>  (1) 
35.73

>  <PUBCHEM_SHAPE_FINGERPRINT>  (1) 
10062212 137 18342172284804316499
10366900 7 17704065192285221048
10863032 1 18341895233363988666
10967382 1 18411422812723735426
11132069 177 18410856555397576336
11370993 70 18409724062663212790
12011746 2 18410856556109668132
12236239 1 17917711275942017043
12251169 10 18408886248362976168
12403260 363 18270676583936185608
12403814 3 18334303071947842601
12507557 5 18409445916302156328
12553582 1 18339662073814252861
12633257 1 18272093751292127738
12670546 56 18202559592627980688
128620 24 16487259897551795335
13140716 1 18338248127762501891
13224815 77 18343027704697401135
13583140 156 17988067989225448304
13675066 3 17967821547857136513
14289901 80 15626231207995527645
14341114 328 17846504720493260520
14787075 74 18131064987261639344
14790565 3 17683533106208683556
15196674 1 18410854364943370706
15375358 24 18334011679179371815
15442244 35 18339645525579256202
15536298 74 18343305842769547798
15788980 27 18040715870085604768
1601671 61 18333455365667886916
16945 1 18340498750770770511
17349148 13 18335415811315195839
17492 89 18412546526245434934
17834072 14 18335135392889799636
1813 80 17167868539370675804
18186145 218 18341343248409268126
19050596 39 18272377481084717505
200 152 18130497596269692933
20715895 44 18189887622529378269
21033648 29 18187070763368969401
21267235 1 18339369655139539590
23175994 123 14562527371190627308
23184049 59 18333734602555257250
23402539 116 18342449374344858236
23557571 272 16558758922645583099
23559900 14 18341610396008237858
2748010 2 18265632024688182559
296302 2 18272653449886792263
3286 77 17417800768683214056
335352 9 18266177240526336822
34934 24 18340764849949060875
351380 180 18342171180928857384
474 4 18410858775869366234
5104073 3 18413109467687264234
6034566 193 15725887893122977292
633830 44 17916884472529659652
69090 78 18413105078330705690
9709674 26 18413113857149303078

>  <PUBCHEM_SHAPE_MULTIPOLES>  (1) 
435.14
9.07
2.18
1.21
2.56
0.41
0.17
-0.61
-1.11
0.35
-0.01
-0.9
-0.24
-0.37

>  <PUBCHEM_SHAPE_SELFOVERLAP>  (1) 
941.634

>  <PUBCHEM_SHAPE_VOLUME>  (1) 
235.9

>  <PUBCHEM_COORDINATE_TYPE>  (1) 
2
5
10

$$$$
