34087
     RDKit          3D

  9  9  0  0  0  0  0  0  0  0999 V2000
   -1.4605    1.0727    0.1849 N   0  0  0  0  0  0  0  0  0  0  0  0
    0.4699   -0.3103   -0.2686 C   0  0  0  0  0  0  0  0  0  0  0  0
    1.9296   -0.4323   -0.5407 C   0  0  0  0  0  0  0  0  0  0  0  0
   -0.1412    0.9166   -0.0657 C   0  0  0  0  0  0  0  0  0  0  0  0
   -0.3239   -1.4503   -0.2104 C   0  0  0  0  0  0  0  0  0  0  0  0
    2.7497   -0.5832    0.7387 C   0  0  0  0  0  0  0  0  0  0  0  0
    0.6621    2.1752   -0.1176 C   0  0  0  0  0  0  0  0  0  0  0  0
   -1.6855   -1.3304    0.0452 C   0  0  0  0  0  0  0  0  0  0  0  0
   -2.2002   -0.0579    0.2341 C   0  0  0  0  0  0  0  0  0  0  0  0
  1  4  2  0
  1  9  1  0
  2  3  1  0
  2  4  1  0
  2  5  2  0
  3  6  1  0
  4  7  1  0
  5  8  1  0
  8  9  2  0
M  END
>  <PUBCHEM_COMPOUND_CID>  (1) 
34087

>  <PUBCHEM_CONFORMER_RMSD>  (1) 
0.4

>  <PUBCHEM_CONFORMER_DIVERSEORDER>  (1) 
2
1
3

>  <PUBCHEM_MMFF94_PARTIAL_CHARGES>  (1) 
11
1 -0.62
12 0.15
19 0.15
2 -0.14
20 0.15
3 0.14
4 0.17
5 -0.15
7 0.14
8 -0.15
9 0.16

>  <PUBCHEM_EFFECTIVE_ROTOR_COUNT>  (1) 
1

>  <PUBCHEM_PHARMACOPHORE_FEATURES>  (1) 
3
1 1 acceptor
1 6 hydrophobe
6 1 2 4 5 8 9 rings

>  <PUBCHEM_HEAVY_ATOM_COUNT>  (1) 
9

>  <PUBCHEM_ATOM_DEF_STEREO_COUNT>  (1) 
0

>  <PUBCHEM_ATOM_UDEF_STEREO_COUNT>  (1) 
0

>  <PUBCHEM_BOND_DEF_STEREO_COUNT>  (1) 
0

>  <PUBCHEM_BOND_UDEF_STEREO_COUNT>  (1) 
0

>  <PUBCHEM_ISOTOPIC_ATOM_COUNT>  (1) 
0

>  <PUBCHEM_COMPONENT_COUNT>  (1) 
1

>  <PUBCHEM_CACTVS_TAUTO_COUNT>  (1) 
1

>  <PUBCHEM_CONFORMER_ID>  (1) 
0000852700000002

>  <PUBCHEM_MMFF94_ENERGY>  (1) 
19.4947

>  <PUBCHEM_FEATURE_SELFOVERLAP>  (1) 
15.223

>  <PUBCHEM_SHAPE_FINGERPRINT>  (1) 
10857977 72 18341041969554711466
16945 1 18411989052543114143
18185500 45 18335423469294723014
20653091 64 18118970427648227610
21040471 1 18050858714501589789
23552423 10 17974010853249420653
2748010 2 17907309753818964831
29004967 10 18412552006675523154
369184 2 18335974286107932082
5084963 1 18060146461146900875
54338 74 18335969917988918578

>  <PUBCHEM_SHAPE_MULTIPOLES>  (1) 
180.23
3.05
1.85
0.73
0.86
0.81
0.02
-0.85
0.57
-0.01
-0.06
0.22
-0.07
-0.14

>  <PUBCHEM_SHAPE_SELFOVERLAP>  (1) 
365.464

>  <PUBCHEM_SHAPE_VOLUME>  (1) 
105.5

>  <PUBCHEM_COORDINATE_TYPE>  (1) 
2
5
10

$$$$
