34092
     RDKit          3D

 50 53  0  0  1  0  0  0  0  0999 V2000
  -10.5426   -0.2464   -0.6625 O   0  0  0  0  0  0  0  0  0  0  0  0
    8.5185   -1.2958    0.8771 O   0  0  0  0  0  0  0  0  0  0  0  0
   -4.8938    0.6955   -1.2952 O   0  0  0  0  0  0  0  0  0  0  0  0
    5.5310    1.6500   -1.7289 O   0  0  0  0  0  0  0  0  0  0  0  0
  -12.4438    0.0838    0.6077 O   0  0  0  0  0  0  0  0  0  0  0  0
   10.3468   -2.6821    1.1460 O   0  0  0  0  0  0  0  0  0  0  0  0
   -6.6423   -0.9053   -1.3879 N   0  0  0  0  0  0  0  0  0  0  0  0
    6.5672    2.2970    0.2847 N   0  0  0  0  0  0  0  0  0  0  0  0
  -10.0141   -1.0027    2.5823 N   0  0  0  0  0  0  0  0  0  0  0  0
   11.3051    0.4343    1.5825 N   0  0  0  0  0  0  0  0  0  0  0  0
   -8.2810    0.4089   -0.1437 C   0  0  0  0  0  0  0  0  0  0  0  0
    8.4099    0.7659   -0.4014 C   0  0  0  0  0  0  0  0  0  0  0  0
   -9.7490    0.3778    0.3516 C   0  0  0  0  0  0  0  0  0  0  0  0
    9.3049   -0.4038    0.0835 C   0  0  0  0  0  0  0  0  0  0  0  0
   -7.6737   -0.9867   -0.3370 C   0  0  0  0  0  0  0  0  0  0  0  0
    7.8510    1.6188    0.7445 C   0  0  0  0  0  0  0  0  0  0  0  0
   -7.3825    1.2630    0.7660 C   0  0  0  0  0  0  0  0  0  0  0  0
    9.1297    1.6523   -1.4312 C   0  0  0  0  0  0  0  0  0  0  0  0
  -10.2767    1.8113    0.5464 C   0  0  0  0  0  0  0  0  0  0  0  0
    9.8483   -1.1978   -1.1190 C   0  0  0  0  0  0  0  0  0  0  0  0
   -7.9363    2.6750    0.9382 C   0  0  0  0  0  0  0  0  0  0  0  0
    9.6567    0.8339   -2.6077 C   0  0  0  0  0  0  0  0  0  0  0  0
   -9.3764    2.6650    1.4386 C   0  0  0  0  0  0  0  0  0  0  0  0
   10.5496   -0.3145   -2.1504 C   0  0  0  0  0  0  0  0  0  0  0  0
   -6.3543   -2.3040   -1.9831 C   0  0  0  0  0  0  0  0  0  0  0  0
   -7.0937   -0.0178   -2.5648 C   0  0  0  0  0  0  0  0  0  0  0  0
    5.7472    2.7004    1.5128 C   0  0  0  0  0  0  0  0  0  0  0  0
    6.8952    3.5620   -0.5001 C   0  0  0  0  0  0  0  0  0  0  0  0
   -5.3332   -0.3399   -0.8038 C   0  0  0  0  0  0  0  0  0  0  0  0
    5.7831    1.3122   -0.5760 C   0  0  0  0  0  0  0  0  0  0  0  0
   -9.8974   -0.3952    1.6007 C   0  0  0  0  0  0  0  0  0  0  0  0
   10.4249    0.0654    0.9228 C   0  0  0  0  0  0  0  0  0  0  0  0
   -4.6253   -1.0956    0.3047 C   0  0  0  0  0  0  0  0  0  0  0  0
    5.3368   -0.0241    0.0027 C   0  0  0  0  0  0  0  0  0  0  0  0
  -11.8785   -0.3242   -0.3979 C   0  0  0  0  0  0  0  0  0  0  0  0
    9.1733   -2.3971    1.3430 C   0  0  0  0  0  0  0  0  0  0  0  0
   -3.1277   -0.9338    0.2589 C   0  0  0  0  0  0  0  0  0  0  0  0
    3.8549   -0.1840    0.0482 C   0  0  0  0  0  0  0  0  0  0  0  0
  -12.5786   -0.9963   -1.5399 C   0  0  0  0  0  0  0  0  0  0  0  0
    8.2309   -3.2345    2.1532 C   0  0  0  0  0  0  0  0  0  0  0  0
   -2.5172    0.1110    0.9528 C   0  0  0  0  0  0  0  0  0  0  0  0
    3.1429    0.2268    1.1753 C   0  0  0  0  0  0  0  0  0  0  0  0
   -2.3521   -1.8296   -0.4770 C   0  0  0  0  0  0  0  0  0  0  0  0
    3.1806   -0.7440   -1.0369 C   0  0  0  0  0  0  0  0  0  0  0  0
   -0.3553   -0.6360    0.1748 C   0  0  0  0  0  0  0  0  0  0  0  0
    1.0825   -0.4823    0.1319 C   0  0  0  0  0  0  0  0  0  0  0  0
   -1.1310    0.2598    0.9107 C   0  0  0  0  0  0  0  0  0  0  0  0
    1.7568    0.0777    1.2171 C   0  0  0  0  0  0  0  0  0  0  0  0
   -0.9659   -1.6806   -0.5192 C   0  0  0  0  0  0  0  0  0  0  0  0
    1.7944   -0.8931   -0.9950 C   0  0  0  0  0  0  0  0  0  0  0  0
  1 13  1  0
  1 35  1  0
  2 14  1  0
  2 36  1  0
  3 29  2  0
  4 30  2  0
  5 35  2  0
  6 36  2  0
  7 15  1  0
  7 25  1  0
  7 26  1  0
  7 29  1  0
  8 16  1  0
  8 27  1  0
  8 28  1  0
  8 30  1  0
  9 31  3  0
 10 32  3  0
 11 13  1  0
 11 15  1  0
 11 17  1  0
 12 14  1  0
 12 16  1  0
 12 18  1  0
 13 19  1  0
 13 31  1  0
 14 20  1  0
 14 32  1  0
 17 21  1  0
 18 22  1  0
 19 23  1  0
 20 24  1  0
 21 23  1  0
 22 24  1  0
 29 33  1  0
 30 34  1  0
 33 37  1  0
 34 38  1  0
 35 39  1  0
 36 40  1  0
 37 41  2  0
 37 43  1  0
 38 42  2  0
 38 44  1  0
 41 47  1  0
 42 48  1  0
 43 49  2  0
 44 50  2  0
 45 46  1  0
 45 47  2  0
 45 49  1  0
 46 48  2  0
 46 50  1  0
M  CHG  2   7   1   8   1
M  END
>  <PUBCHEM_COMPOUND_CID>  (1) 
34092

>  <PUBCHEM_CONFORMER_RMSD>  (1) 
1.8

>  <PUBCHEM_CONFORMER_DIVERSEORDER>  (1) 
45
29
76
27
95
63
40
21
3
69
57
17
91
62
80
82
84
43
24
28
10
54
72
96
46
71
18
53
97
42
13
8
94
50
35
20
51
31
81
83
58
98
9
79
5
67
86
19
52
88
41
38
85
14
56
25
93
65
48
26
1
77
34
47
87
68
74
44
78
49
60
61
2
11
90
36
66
64
23
22
100
7
55
89
16
6
70
30
37
75
59
39
12
15
99
92
73
32
33
4

>  <PUBCHEM_MMFF94_PARTIAL_CHARGES>  (1) 
46
1 -0.43
10 -0.56
100 0.15
101 0.15
102 0.15
13 0.48
14 0.48
15 0.5
16 0.5
2 -0.43
25 0.5
26 0.5
27 0.5
28 0.5
29 0.9
3 -0.57
30 0.9
31 0.36
32 0.36
33 0.2
34 0.2
35 0.66
36 0.66
37 -0.14
38 -0.14
39 0.06
4 -0.57
40 0.06
41 -0.15
42 -0.15
43 -0.15
44 -0.15
47 -0.15
48 -0.15
49 -0.15
5 -0.57
50 -0.15
6 -0.57
7 -0.91
8 -0.91
9 -0.56
95 0.15
96 0.15
97 0.15
98 0.15
99 0.15

>  <PUBCHEM_EFFECTIVE_ROTOR_COUNT>  (1) 
17.4

>  <PUBCHEM_PHARMACOPHORE_FEATURES>  (1) 
10
1 10 acceptor
1 3 acceptor
1 4 acceptor
1 5 acceptor
1 6 acceptor
1 9 acceptor
6 11 13 17 19 21 23 rings
6 12 14 18 20 22 24 rings
6 37 41 43 45 47 49 rings
6 38 42 44 46 48 50 rings

>  <PUBCHEM_HEAVY_ATOM_COUNT>  (1) 
50

>  <PUBCHEM_ATOM_DEF_STEREO_COUNT>  (1) 
0

>  <PUBCHEM_ATOM_UDEF_STEREO_COUNT>  (1) 
4

>  <PUBCHEM_BOND_DEF_STEREO_COUNT>  (1) 
0

>  <PUBCHEM_BOND_UDEF_STEREO_COUNT>  (1) 
0

>  <PUBCHEM_ISOTOPIC_ATOM_COUNT>  (1) 
0

>  <PUBCHEM_COMPONENT_COUNT>  (1) 
1

>  <PUBCHEM_CACTVS_TAUTO_COUNT>  (1) 
1

>  <PUBCHEM_CONFORMER_ID>  (1) 
0000852C0000002D

>  <PUBCHEM_MMFF94_ENERGY>  (1) 
175.5321

>  <PUBCHEM_FEATURE_SELFOVERLAP>  (1) 
50.752

>  <PUBCHEM_SHAPE_FINGERPRINT>  (1) 
11409948 35 17895470333614670682
11966995 178 14706926247048085118
12013929 94 11674881086890427181
12089408 11 18411979182655786878
12144603 126 18341608192279182187
12728208 25 11097846398091792197
12728209 37 16805325522198573225
13008946 335 17385727997585396491
13947947 74 15913613865478598703
14040221 8 18341615893656203592
15065858 18 14476957891607185519
15392192 104 13117995600800959720
16728433 110 12103844566330790699
20105231 36 15502089740124470986
20501277 279 17095520704554554625
22164985 6 18412256263880583806
3092352 35 18410008845593468643
3991529 128 14996005467545833862
4625314 4 17846497084152060804
9962374 69 9223223031781372050

>  <PUBCHEM_SHAPE_MULTIPOLES>  (1) 
973.84
58.52
2.67
2.01
40.68
0.99
0.36
2.13
-0.52
-3.41
-0.7
-1.67
-0.47
-5.03

>  <PUBCHEM_SHAPE_SELFOVERLAP>  (1) 
2048.224

>  <PUBCHEM_SHAPE_VOLUME>  (1) 
538

>  <PUBCHEM_COORDINATE_TYPE>  (1) 
2
5
10

$$$$
