34106
     RDKit          3D

 19 19  0  0  0  0  0  0  0  0999 V2000
   -3.6899   -1.3756    0.1890 Si  0  0  0  0  0  4  0  0  0  0  0  0
    0.7953    0.5194   -0.1197 O   0  0  0  0  0  0  0  0  0  0  0  0
    1.5449    0.4228    2.0547 O   0  0  0  0  0  0  0  0  0  0  0  0
   -2.8179    1.4226   -0.3787 N   0  0  0  0  0  0  0  0  0  0  0  0
   -3.4076    0.4198    0.6445 C   0  0  0  0  0  0  0  0  0  0  0  0
   -1.4290    1.0279   -0.8651 C   0  0  0  0  0  0  0  0  0  0  0  0
   -3.7419    1.6320   -1.5744 C   0  0  0  0  0  0  0  0  0  0  0  0
   -2.6905    2.7758    0.3436 C   0  0  0  0  0  0  0  0  0  0  0  0
   -2.0965   -2.1890   -0.3871 C   0  0  0  0  0  0  0  0  0  0  0  0
   -4.2300   -2.2668    1.7757 C   0  0  0  0  0  0  0  0  0  0  0  0
   -5.0280   -1.6413   -1.0874 C   0  0  0  0  0  0  0  0  0  0  0  0
   -0.5117    0.8526    0.3291 C   0  0  0  0  0  0  0  0  0  0  0  0
    1.7313    0.3310    0.8512 C   0  0  0  0  0  0  0  0  0  0  0  0
    3.0478   -0.0087    0.2546 C   0  0  0  0  0  0  0  0  0  0  0  0
    4.1977    0.3624    0.9208 C   0  0  0  0  0  0  0  0  0  0  0  0
    3.0803   -0.6848   -0.9477 C   0  0  0  0  0  0  0  0  0  0  0  0
    5.4345    0.0436    0.3600 C   0  0  0  0  0  0  0  0  0  0  0  0
    4.3170   -1.0039   -1.5085 C   0  0  0  0  0  0  0  0  0  0  0  0
    5.4941   -0.6397   -0.8546 C   0  0  0  0  0  0  0  0  0  0  0  0
  1  5  1  0
  1  9  1  0
  1 10  1  0
  1 11  1  0
  2 12  1  0
  2 13  1  0
  3 13  2  0
  4  5  1  0
  4  6  1  0
  4  7  1  0
  4  8  1  0
  6 12  1  0
 13 14  1  0
 14 15  2  0
 14 16  1  0
 15 17  1  0
 16 18  2  0
 17 19  2  0
 18 19  1  0
M  CHG  1   4   1
M  END
>  <PUBCHEM_COMPOUND_CID>  (1) 
34106

>  <PUBCHEM_CONFORMER_RMSD>  (1) 
0.8

>  <PUBCHEM_CONFORMER_DIVERSEORDER>  (1) 
1
38
45
53
22
26
62
39
69
54
46
50
55
14
51
7
68
65
42
33
58
11
36
66
64
12
19
52
30
23
43
56
63
41
21
28
8
27
67
2
20
60
18
44
57
48
25
5
15
29
9
49
6
40
37
61
3
10
16
17
24
47
4
13
35
59
70
31
32
34

>  <PUBCHEM_MMFF94_PARTIAL_CHARGES>  (1) 
24
1 0.32
10 -0.08
11 -0.08
12 0.28
13 0.63
14 0.09
15 -0.15
16 -0.15
17 -0.15
18 -0.15
19 -0.15
2 -0.43
3 -0.57
4 -1.01
41 0.15
42 0.15
43 0.15
44 0.15
45 0.15
5 0.42
6 0.5
7 0.5
8 0.5
9 -0.08

>  <PUBCHEM_EFFECTIVE_ROTOR_COUNT>  (1) 
7

>  <PUBCHEM_PHARMACOPHORE_FEATURES>  (1) 
3
1 3 acceptor
1 4 cation
6 14 15 16 17 18 19 rings

>  <PUBCHEM_HEAVY_ATOM_COUNT>  (1) 
19

>  <PUBCHEM_ATOM_DEF_STEREO_COUNT>  (1) 
0

>  <PUBCHEM_ATOM_UDEF_STEREO_COUNT>  (1) 
0

>  <PUBCHEM_BOND_DEF_STEREO_COUNT>  (1) 
0

>  <PUBCHEM_BOND_UDEF_STEREO_COUNT>  (1) 
0

>  <PUBCHEM_ISOTOPIC_ATOM_COUNT>  (1) 
0

>  <PUBCHEM_COMPONENT_COUNT>  (1) 
1

>  <PUBCHEM_CACTVS_TAUTO_COUNT>  (1) 
1

>  <PUBCHEM_CONFORMER_ID>  (1) 
0000853A00000001

>  <PUBCHEM_MMFF94_ENERGY>  (1) 
60.5468

>  <PUBCHEM_FEATURE_SELFOVERLAP>  (1) 
15.223

>  <PUBCHEM_SHAPE_FINGERPRINT>  (1) 
105312 117 17969774182151470757
10680689 15 18408326566262683625
11287383 113 18412263943915358184
11370993 144 17632028480647480475
11552529 35 16055460876640235663
11796584 16 18195529191137951046
12236239 1 17095240315466169398
12596602 18 17241331403299707054
12616971 3 16588026766873072844
12633257 1 17131286769264921131
12714826 92 18408323302525180753
13103583 49 16343438279339492987
13402501 40 18131072653520261159
14251732 14 18115326577742629782
14251751 93 18334298647466967211
14251757 17 18130234752771973990
14251757 5 17387424638284505787
14251758 9 12678919904029175732
14386348 63 18131069341894305622
16752209 62 18187630428241679827
17844677 252 18202286909544738280
193927 3 18263089954026252131
200 152 15430032171249554871
20645477 70 16701734939813999620
20681677 155 18335702681135132657
20871999 31 18186803577716154479
21054139 6 17240764016929808626
21065201 7 18337106770458037464
21623969 137 17346883356004430590
23402539 116 17167863037364673044
23557571 272 18410288129614469552
23559900 14 18341601655544484409
238078 22 17313954150888704963
312423 11 18188506781478915341
314173 85 18411422855900352795
3268164 11 17967811643609921421
4325135 7 18335701710831116012
4921388 177 18335425638395469889
5104073 3 17560517301297652202
59755656 215 18413103949292825623
59755656 520 18057608668890011145
602551 16 18409166636533931234
7495541 125 18343582975771699264
90127 26 17703785886663029944

>  <PUBCHEM_SHAPE_MULTIPOLES>  (1) 
392.5
12.9
2.32
1.54
11.33
0.48
0.16
-4.67
-1.67
-4.17
-0.05
-0.21
-0.23
1.54

>  <PUBCHEM_SHAPE_SELFOVERLAP>  (1) 
759.789

>  <PUBCHEM_SHAPE_VOLUME>  (1) 
241.3

>  <PUBCHEM_COORDINATE_TYPE>  (1) 
2
5
10

$$$$
