34108
     RDKit          3D

 11 10  0  0  0  0  0  0  0  0999 V2000
    2.5573    0.0019   -0.0164 Si  0  0  0  0  0  4  0  0  0  0  0  0
    1.0530    0.0101   -0.7599 O   0  0  0  0  0  0  0  0  0  0  0  0
   -2.5698    0.0019   -0.0271 N   0  0  0  0  0  0  0  0  0  0  0  0
   -1.3439   -0.0050   -0.8646 C   0  0  0  0  0  0  0  0  0  0  0  0
   -0.1235   -0.0196    0.0347 C   0  0  0  0  0  0  0  0  0  0  0  0
   -2.6412   -1.2594    0.8444 C   0  0  0  0  0  0  0  0  0  0  0  0
   -2.5887    1.2248    0.9001 C   0  0  0  0  0  0  0  0  0  0  0  0
   -3.8283    0.0481   -0.9041 C   0  0  0  0  0  0  0  0  0  0  0  0
    3.9147    0.0464   -1.3224 C   0  0  0  0  0  0  0  0  0  0  0  0
    2.7968   -1.5513    1.0176 C   0  0  0  0  0  0  0  0  0  0  0  0
    2.7736    1.5020    1.0976 C   0  0  0  0  0  0  0  0  0  0  0  0
  1  2  1  0
  1  9  1  0
  1 10  1  0
  1 11  1  0
  2  5  1  0
  3  4  1  0
  3  6  1  0
  3  7  1  0
  3  8  1  0
  4  5  1  0
M  CHG  1   3   1
M  END
>  <PUBCHEM_COMPOUND_CID>  (1) 
34108

>  <PUBCHEM_CONFORMER_RMSD>  (1) 
0.6

>  <PUBCHEM_CONFORMER_DIVERSEORDER>  (1) 
1
3
2

>  <PUBCHEM_MMFF94_PARTIAL_CHARGES>  (1) 
11
1 0.54
10 -0.08
11 -0.08
2 -0.58
3 -1.01
4 0.5
5 0.28
6 0.5
7 0.5
8 0.5
9 -0.08

>  <PUBCHEM_EFFECTIVE_ROTOR_COUNT>  (1) 
4

>  <PUBCHEM_PHARMACOPHORE_FEATURES>  (1) 
1
1 3 cation

>  <PUBCHEM_HEAVY_ATOM_COUNT>  (1) 
11

>  <PUBCHEM_ATOM_DEF_STEREO_COUNT>  (1) 
0

>  <PUBCHEM_ATOM_UDEF_STEREO_COUNT>  (1) 
0

>  <PUBCHEM_BOND_DEF_STEREO_COUNT>  (1) 
0

>  <PUBCHEM_BOND_UDEF_STEREO_COUNT>  (1) 
0

>  <PUBCHEM_ISOTOPIC_ATOM_COUNT>  (1) 
0

>  <PUBCHEM_COMPONENT_COUNT>  (1) 
1

>  <PUBCHEM_CACTVS_TAUTO_COUNT>  (1) 
1

>  <PUBCHEM_CONFORMER_ID>  (1) 
0000853C00000001

>  <PUBCHEM_MMFF94_ENERGY>  (1) 
26.7866

>  <PUBCHEM_FEATURE_SELFOVERLAP>  (1) 
5.074

>  <PUBCHEM_SHAPE_FINGERPRINT>  (1) 
10751810 167 18200607925060465516
11062470 55 15574432128410110453
12162725 195 17918270943823207505
12500047 106 18040711476381670083
12916754 54 16917068888607084133
12932764 1 18411132541569613206
13296908 3 18343022228524375986
13533116 47 18337104567214050963
14144814 61 18341613693978553842
15775835 57 17822014206954256258
17041 50 17703799076613064712
170605 34 17987510580349629248
18186145 218 18342176669654410056
190213 19 18408890646050732836
20279233 1 17748819722209111810
20281407 28 17894348882164408677
20339313 130 16845024463308215544
20528008 55 18335132107519444911
20645477 70 18201714055137990494
21028194 46 15482671273149196172
21730867 7 17967811648295220082
22169311 21 18113889481426834227
22485316 2 17530682108521648422
3248919 1 18410857633445079591
581208 293 17530678814624630354
8030462 33 18410292497384823116

>  <PUBCHEM_SHAPE_MULTIPOLES>  (1) 
233.74
7.57
1.34
1.31
1.82
0.03
-0.05
-0.02
-0.8
-0.42
0.66
-0.47
-0.03
0

>  <PUBCHEM_SHAPE_SELFOVERLAP>  (1) 
404.351

>  <PUBCHEM_SHAPE_VOLUME>  (1) 
159

>  <PUBCHEM_COORDINATE_TYPE>  (1) 
2
5
10

$$$$
