34118
     RDKit          3D

 32 36  0  0  0  0  0  0  0  0999 V2000
   -5.7736   -0.6949   -1.0839 N   0  0  0  0  0  0  0  0  0  0  0  0
   -1.9354   -1.1064    0.6953 N   0  0  0  0  0  0  0  0  0  0  0  0
   -8.1208    0.8796   -0.3241 N   0  0  0  0  0  0  0  0  0  0  0  0
    2.9192   -0.1548    0.7137 N   0  0  0  0  0  0  0  0  0  0  0  0
   -4.6631   -0.4789   -0.1586 C   0  0  0  0  0  0  0  0  0  0  0  0
   -3.4331    0.0278   -0.9161 C   0  0  0  0  0  0  0  0  0  0  0  0
   -4.3186   -1.7671    0.5945 C   0  0  0  0  0  0  0  0  0  0  0  0
   -2.2301    0.1654    0.0206 C   0  0  0  0  0  0  0  0  0  0  0  0
   -3.0865   -1.5711    1.4818 C   0  0  0  0  0  0  0  0  0  0  0  0
   -6.9395   -1.2895   -0.4185 C   0  0  0  0  0  0  0  0  0  0  0  0
   -6.1565    0.5372   -1.7846 C   0  0  0  0  0  0  0  0  0  0  0  0
   -0.7542   -0.9721    1.5474 C   0  0  0  0  0  0  0  0  0  0  0  0
   -7.7293   -0.3034    0.4512 C   0  0  0  0  0  0  0  0  0  0  0  0
   -6.9447    1.5267   -0.9173 C   0  0  0  0  0  0  0  0  0  0  0  0
    0.5016   -0.6374    0.7367 C   0  0  0  0  0  0  0  0  0  0  0  0
    5.4437    0.5948   -0.5216 C   0  0  0  0  0  0  0  0  0  0  0  0
    1.7827   -0.5309    1.5633 C   0  0  0  0  0  0  0  0  0  0  0  0
    4.3801    1.6265   -0.0952 C   0  0  0  0  0  0  0  0  0  0  0  0
    4.9601   -0.8660   -0.4224 C   0  0  0  0  0  0  0  0  0  0  0  0
    3.1576    1.2180    0.4829 C   0  0  0  0  0  0  0  0  0  0  0  0
    3.7169   -1.1846    0.1678 C   0  0  0  0  0  0  0  0  0  0  0  0
   -8.8685    1.8215    0.5064 C   0  0  0  0  0  0  0  0  0  0  0  0
    6.6782    0.7618    0.3940 C   0  0  0  0  0  0  0  0  0  0  0  0
    5.8414    0.8807   -1.9961 C   0  0  0  0  0  0  0  0  0  0  0  0
    4.6314    3.0081   -0.2622 C   0  0  0  0  0  0  0  0  0  0  0  0
    5.7764   -1.9134   -0.9088 C   0  0  0  0  0  0  0  0  0  0  0  0
    2.2075    2.2151    0.7969 C   0  0  0  0  0  0  0  0  0  0  0  0
    3.3138   -2.5386    0.1734 C   0  0  0  0  0  0  0  0  0  0  0  0
    3.6865    3.9704    0.0821 C   0  0  0  0  0  0  0  0  0  0  0  0
    5.3644   -3.2422   -0.8653 C   0  0  0  0  0  0  0  0  0  0  0  0
    2.4671    3.5719    0.6011 C   0  0  0  0  0  0  0  0  0  0  0  0
    4.1252   -3.5539   -0.3344 C   0  0  0  0  0  0  0  0  0  0  0  0
  1  5  1  0
  1 10  1  0
  1 11  1  0
  2  8  1  0
  2  9  1  0
  2 12  1  0
  3 13  1  0
  3 14  1  0
  3 22  1  0
  4 17  1  0
  4 20  1  0
  4 21  1  0
  5  6  1  0
  5  7  1  0
  6  8  1  0
  7  9  1  0
 10 13  1  0
 11 14  1  0
 12 15  1  0
 15 17  1  0
 16 18  1  0
 16 19  1  0
 16 23  1  0
 16 24  1  0
 18 20  2  0
 18 25  1  0
 19 21  2  0
 19 26  1  0
 20 27  1  0
 21 28  1  0
 25 29  2  0
 26 30  2  0
 27 31  2  0
 28 32  2  0
 29 31  1  0
 30 32  1  0
M  END
>  <PUBCHEM_COMPOUND_CID>  (1) 
34118

>  <PUBCHEM_CONFORMER_RMSD>  (1) 
1

>  <PUBCHEM_CONFORMER_DIVERSEORDER>  (1) 
1
11
30
14
27
26
39
41
40
18
9
6
15
12
23
24
13
21
28
5
16
37
22
4
32
31
2
19
33
38
25
17
20
29
10
36
3
35
34
7
8

>  <PUBCHEM_MMFF94_PARTIAL_CHARGES>  (1) 
35
1 -0.81
10 0.27
11 0.27
12 0.27
13 0.27
14 0.27
16 0.29
17 0.37
18 -0.14
19 -0.14
2 -0.81
20 0.1
21 0.1
22 0.27
25 -0.15
26 -0.15
27 -0.15
28 -0.15
29 -0.15
3 -0.81
30 -0.15
31 -0.15
32 -0.15
4 -0.57
5 0.27
65 0.15
66 0.15
67 0.15
68 0.15
69 0.15
70 0.15
71 0.15
72 0.15
8 0.27
9 0.27

>  <PUBCHEM_EFFECTIVE_ROTOR_COUNT>  (1) 
7.8

>  <PUBCHEM_PHARMACOPHORE_FEATURES>  (1) 
10
1 1 cation
1 2 cation
1 3 cation
1 4 cation
3 16 23 24 hydrophobe
6 1 3 10 11 13 14 rings
6 18 20 25 27 29 31 rings
6 19 21 26 28 30 32 rings
6 2 5 6 7 8 9 rings
6 4 16 18 19 20 21 rings

>  <PUBCHEM_HEAVY_ATOM_COUNT>  (1) 
32

>  <PUBCHEM_ATOM_DEF_STEREO_COUNT>  (1) 
0

>  <PUBCHEM_ATOM_UDEF_STEREO_COUNT>  (1) 
0

>  <PUBCHEM_BOND_DEF_STEREO_COUNT>  (1) 
0

>  <PUBCHEM_BOND_UDEF_STEREO_COUNT>  (1) 
0

>  <PUBCHEM_ISOTOPIC_ATOM_COUNT>  (1) 
0

>  <PUBCHEM_COMPONENT_COUNT>  (1) 
1

>  <PUBCHEM_CACTVS_TAUTO_COUNT>  (1) 
1

>  <PUBCHEM_CONFORMER_ID>  (1) 
0000854600000001

>  <PUBCHEM_MMFF94_ENERGY>  (1) 
102.6569

>  <PUBCHEM_FEATURE_SELFOVERLAP>  (1) 
50.79

>  <PUBCHEM_SHAPE_FINGERPRINT>  (1) 
10693767 8 18059871532761101526
11115154 58 17846504707687746752
11135609 127 18271236248651459112
11607047 191 17200771558514462792
11720765 8 18343297059836033480
11991303 11 17845927537762578183
12144600 37 18409735097526823811
13533116 47 18341893008655507173
14537116 161 18335134267909432061
14675020 138 18271227405751367818
14933364 13 18407758140995859213
15082195 135 18341896294490163960
15183329 4 17489870432317780305
15276724 80 18410291377179691549
15320294 125 16486116294059506166
15419008 91 12319452127018287875
15439362 3 18123750014186756048
15475509 35 13613972046316675766
15484559 13 18342464729787488886
15840311 113 18335420163330747181
15950262 2 15504932141302486524
17899979 129 18337675342640434292
21033648 29 17676768794007952424
221357 26 18409448068418414072
23522609 53 17631194007610339097
23559900 14 18411414042332218483
255183 451 18057614170643001398
2747138 104 17240772779232745705
335507 130 18339639066207458055
3882209 13 17684914818610097074
4066623 53 18041836200237600788
4073 2 18115309011289582995
4093350 32 18411418397234059431
4098825 35 18411699890181585635
4144715 1 18189060948978376283
44317340 157 18410855477651052351
44555599 121 18272377434610464209
46194498 28 18408880746288246188
504579 68 17775290465011796603
5223283 242 18261681350555237842
53794403 172 17459475631073692437
58902169 19 18060129917239066415
59682541 52 18413109454976239870
9658208 31 17240488034789177475
9831232 110 18343021060615999783

>  <PUBCHEM_SHAPE_MULTIPOLES>  (1) 
638.62
24.44
3.85
1.34
48.32
1.37
0.16
3.44
6.98
-7.39
-0.02
0.24
-0.11
1.38

>  <PUBCHEM_SHAPE_SELFOVERLAP>  (1) 
1357.711

>  <PUBCHEM_SHAPE_VOLUME>  (1) 
347.6

>  <PUBCHEM_COORDINATE_TYPE>  (1) 
2
5
10

$$$$
