34116
     RDKit          3D

 31 34  0  0  0  0  0  0  0  0999 V2000
   -5.0635   -2.0386   -0.4367 O   0  0  0  0  0  0  0  0  0  0  0  0
   -2.4758    0.8916   -0.7629 N   0  0  0  0  0  0  0  0  0  0  0  0
   -6.1328    0.5761    1.3394 N   0  0  0  0  0  0  0  0  0  0  0  0
    2.4070    0.1150   -0.9356 N   0  0  0  0  0  0  0  0  0  0  0  0
   -6.8715   -0.7320   -1.0009 N   0  0  0  0  0  0  0  0  0  0  0  0
   -5.1133    0.2261    0.3507 C   0  0  0  0  0  0  0  0  0  0  0  0
   -4.8953    1.4010   -0.6109 C   0  0  0  0  0  0  0  0  0  0  0  0
   -3.8023   -0.1356    1.0599 C   0  0  0  0  0  0  0  0  0  0  0  0
   -3.6933    1.1723   -1.5350 C   0  0  0  0  0  0  0  0  0  0  0  0
   -2.6419   -0.3054    0.0720 C   0  0  0  0  0  0  0  0  0  0  0  0
   -1.3281    0.7365   -1.6566 C   0  0  0  0  0  0  0  0  0  0  0  0
   -0.0262    0.5079   -0.8824 C   0  0  0  0  0  0  0  0  0  0  0  0
   -5.6640   -0.9679   -0.3872 C   0  0  0  0  0  0  0  0  0  0  0  0
    4.4278   -0.3761    1.0982 C   0  0  0  0  0  0  0  0  0  0  0  0
    1.2211    0.3860   -1.7572 C   0  0  0  0  0  0  0  0  0  0  0  0
    3.6683   -1.5097    0.3801 C   0  0  0  0  0  0  0  0  0  0  0  0
    4.1665    1.0189    0.4957 C   0  0  0  0  0  0  0  0  0  0  0  0
    2.7084   -1.2276   -0.6171 C   0  0  0  0  0  0  0  0  0  0  0  0
    3.1888    1.2098   -0.5059 C   0  0  0  0  0  0  0  0  0  0  0  0
   -6.4075   -0.5631    2.2140 C   0  0  0  0  0  0  0  0  0  0  0  0
   -5.7063    1.7332    2.1246 C   0  0  0  0  0  0  0  0  0  0  0  0
    3.9859   -0.3568    2.5796 C   0  0  0  0  0  0  0  0  0  0  0  0
    5.9504   -0.6721    1.0085 C   0  0  0  0  0  0  0  0  0  0  0  0
    3.9146   -2.8570    0.7326 C   0  0  0  0  0  0  0  0  0  0  0  0
    4.8979    2.1362    0.9613 C   0  0  0  0  0  0  0  0  0  0  0  0
    2.0929   -2.3178   -1.2715 C   0  0  0  0  0  0  0  0  0  0  0  0
    3.0434    2.5048   -1.0514 C   0  0  0  0  0  0  0  0  0  0  0  0
    3.2727   -3.9107    0.0886 C   0  0  0  0  0  0  0  0  0  0  0  0
    4.7137    3.4068    0.4237 C   0  0  0  0  0  0  0  0  0  0  0  0
    2.3691   -3.6406   -0.9241 C   0  0  0  0  0  0  0  0  0  0  0  0
    3.7933    3.5887   -0.5936 C   0  0  0  0  0  0  0  0  0  0  0  0
  1 13  2  0
  2  9  1  0
  2 10  1  0
  2 11  1  0
  3  6  1  0
  3 20  1  0
  3 21  1  0
  4 15  1  0
  4 18  1  0
  4 19  1  0
  5 13  1  0
  6  7  1  0
  6  8  1  0
  6 13  1  0
  7  9  1  0
  8 10  1  0
 11 12  1  0
 12 15  1  0
 14 16  1  0
 14 17  1  0
 14 22  1  0
 14 23  1  0
 16 18  2  0
 16 24  1  0
 17 19  2  0
 17 25  1  0
 18 26  1  0
 19 27  1  0
 24 28  2  0
 25 29  2  0
 26 30  2  0
 27 31  2  0
 28 30  1  0
 29 31  1  0
M  END
>  <PUBCHEM_COMPOUND_CID>  (1) 
34116

>  <PUBCHEM_CONFORMER_RMSD>  (1) 
1

>  <PUBCHEM_CONFORMER_DIVERSEORDER>  (1) 
5
27
10
4
16
18
25
19
29
32
26
21
33
15
6
1
31
30
20
23
9
7
17
24
2
22
8
3
28
14
34
12
13
11
35

>  <PUBCHEM_MMFF94_PARTIAL_CHARGES>  (1) 
36
1 -0.57
10 0.27
11 0.27
13 0.57
14 0.29
15 0.37
16 -0.14
17 -0.14
18 0.1
19 0.1
2 -0.81
20 0.27
21 0.27
24 -0.15
25 -0.15
26 -0.15
27 -0.15
28 -0.15
29 -0.15
3 -0.81
30 -0.15
31 -0.15
4 -0.57
5 -0.8
58 0.37
59 0.37
6 0.33
60 0.15
61 0.15
62 0.15
63 0.15
64 0.15
65 0.15
66 0.15
67 0.15
9 0.27

>  <PUBCHEM_EFFECTIVE_ROTOR_COUNT>  (1) 
7.6

>  <PUBCHEM_PHARMACOPHORE_FEATURES>  (1) 
10
1 1 acceptor
1 2 cation
1 3 cation
1 4 cation
1 5 donor
3 14 22 23 hydrophobe
6 16 18 24 26 28 30 rings
6 17 19 25 27 29 31 rings
6 2 6 7 8 9 10 rings
6 4 14 16 17 18 19 rings

>  <PUBCHEM_HEAVY_ATOM_COUNT>  (1) 
31

>  <PUBCHEM_ATOM_DEF_STEREO_COUNT>  (1) 
0

>  <PUBCHEM_ATOM_UDEF_STEREO_COUNT>  (1) 
0

>  <PUBCHEM_BOND_DEF_STEREO_COUNT>  (1) 
0

>  <PUBCHEM_BOND_UDEF_STEREO_COUNT>  (1) 
0

>  <PUBCHEM_ISOTOPIC_ATOM_COUNT>  (1) 
0

>  <PUBCHEM_COMPONENT_COUNT>  (1) 
1

>  <PUBCHEM_CACTVS_TAUTO_COUNT>  (1) 
2

>  <PUBCHEM_CONFORMER_ID>  (1) 
0000854400000005

>  <PUBCHEM_MMFF94_ENERGY>  (1) 
120.7799

>  <PUBCHEM_FEATURE_SELFOVERLAP>  (1) 
50.785

>  <PUBCHEM_SHAPE_FINGERPRINT>  (1) 
10670039 82 14979695285393172224
10693767 8 11170183226061806984
10816530 23 18193840564188251586
11070050 100 18200586003710800504
11135609 201 17915166052257841472
11505856 67 15951075652107829284
12107183 9 17981335486793300033
12596602 18 17561083622520747451
12661589 4 15069492451810648713
13533116 47 18336272258106585709
13782708 43 17749103370428744339
14211702 104 17386015030761224315
14565420 104 18198900491130400256
14950920 106 18200877258338638753
14955137 171 18337384956149149982
15250474 111 18272085041700370935
15950262 2 15408610472986033634
16708801 149 16341185208432020273
16992610 120 18045793536477732884
17349148 13 13984659244004156973
17844677 252 18337954489586186293
19377110 9 18060413638604595517
1979834 28 18261116304710731780
21197605 99 18262799708399892530
21859007 373 17314774227786425541
23559900 14 18337950069689980678
23572383 38 17967532406754341827
312425 54 18340494361746899395
3178227 256 18409165507595446160
394071 54 18334861610315645329
50009960 94 17242424176155581474
5104073 3 18337118891156557177
57816373 69 17911803466554037799
5951187 136 15697990877822476056
6176135 31 18411135844542642379
86090 222 17386586651752930907
960060 61 8646772192141343324
9658208 31 14261348093843608981
9937071 3 17823145670405678811

>  <PUBCHEM_SHAPE_MULTIPOLES>  (1) 
612.17
17.75
3.88
1.91
26.8
1.02
0.75
-1.57
7.69
-7.45
-0.59
1.1
-0.19
-0.44

>  <PUBCHEM_SHAPE_SELFOVERLAP>  (1) 
1309.876

>  <PUBCHEM_SHAPE_VOLUME>  (1) 
337.6

>  <PUBCHEM_COORDINATE_TYPE>  (1) 
2
5
10

$$$$
