34114
     RDKit          3D

 30 33  0  0  0  0  0  0  0  0999 V2000
    4.8458   -2.4113   -0.0161 O   0  0  0  0  0  0  0  0  0  0  0  0
    1.2136   -0.9316    0.0651 N   0  0  0  0  0  0  0  0  0  0  0  0
    5.0145    0.9211   -0.0536 N   0  0  0  0  0  0  0  0  0  0  0  0
    5.5924   -1.1247    1.7393 N   0  0  0  0  0  0  0  0  0  0  0  0
   -2.1169   -0.0198   -0.7367 N   0  0  0  0  0  0  0  0  0  0  0  0
    4.0474   -0.1563    0.1546 C   0  0  0  0  0  0  0  0  0  0  0  0
    3.0462    0.2460    1.2448 C   0  0  0  0  0  0  0  0  0  0  0  0
    3.3155   -0.4606   -1.1586 C   0  0  0  0  0  0  0  0  0  0  0  0
    1.8873   -0.7517    1.3577 C   0  0  0  0  0  0  0  0  0  0  0  0
    2.1462   -1.4312   -0.9538 C   0  0  0  0  0  0  0  0  0  0  0  0
    0.0743   -1.8387    0.2042 C   0  0  0  0  0  0  0  0  0  0  0  0
    4.8619   -1.3461    0.5958 C   0  0  0  0  0  0  0  0  0  0  0  0
   -0.6940   -1.9990   -1.1113 C   0  0  0  0  0  0  0  0  0  0  0  0
    4.3345    2.1402   -0.4883 C   0  0  0  0  0  0  0  0  0  0  0  0
    6.0222    0.5195   -1.0341 C   0  0  0  0  0  0  0  0  0  0  0  0
   -1.2325   -0.6940   -1.6966 C   0  0  0  0  0  0  0  0  0  0  0  0
   -1.8493    1.3500   -0.4859 C   0  0  0  0  0  0  0  0  0  0  0  0
   -3.3014   -0.7108   -0.3760 C   0  0  0  0  0  0  0  0  0  0  0  0
   -2.0872    1.9532    0.7659 C   0  0  0  0  0  0  0  0  0  0  0  0
   -3.8860   -0.5996    0.9020 C   0  0  0  0  0  0  0  0  0  0  0  0
   -1.3480    2.1760   -1.5207 C   0  0  0  0  0  0  0  0  0  0  0  0
   -3.9603   -1.5314   -1.3231 C   0  0  0  0  0  0  0  0  0  0  0  0
   -2.5070    1.2176    1.9637 C   0  0  0  0  0  0  0  0  0  0  0  0
   -3.2763    0.1257    2.0219 C   0  0  0  0  0  0  0  0  0  0  0  0
   -1.8128    3.3248    0.9485 C   0  0  0  0  0  0  0  0  0  0  0  0
   -5.0736   -1.3024    1.1951 C   0  0  0  0  0  0  0  0  0  0  0  0
   -1.0910    3.5346   -1.3290 C   0  0  0  0  0  0  0  0  0  0  0  0
   -5.1410   -2.2129   -1.0227 C   0  0  0  0  0  0  0  0  0  0  0  0
   -1.3248    4.1108   -0.0914 C   0  0  0  0  0  0  0  0  0  0  0  0
   -5.6996   -2.0973    0.2394 C   0  0  0  0  0  0  0  0  0  0  0  0
  1 12  2  0
  2  9  1  0
  2 10  1  0
  2 11  1  0
  3  6  1  0
  3 14  1  0
  3 15  1  0
  4 12  1  0
  5 16  1  0
  5 17  1  0
  5 18  1  0
  6  7  1  0
  6  8  1  0
  6 12  1  0
  7  9  1  0
  8 10  1  0
 11 13  1  0
 13 16  1  0
 17 19  1  0
 17 21  2  0
 18 20  2  0
 18 22  1  0
 19 23  1  0
 19 25  2  0
 20 24  1  0
 20 26  1  0
 21 27  1  0
 22 28  2  0
 23 24  2  0
 25 29  1  0
 26 30  2  0
 27 29  2  0
 28 30  1  0
M  END
>  <PUBCHEM_COMPOUND_CID>  (1) 
34114

>  <PUBCHEM_CONFORMER_RMSD>  (1) 
1

>  <PUBCHEM_CONFORMER_DIVERSEORDER>  (1) 
1
23
38
25
9
36
22
28
32
20
15
34
43
29
2
35
40
27
10
14
26
44
37
19
42
24
39
41
3
11
31
16
12
5
7
30
21
45
17
33
18
13
6
4
8

>  <PUBCHEM_MMFF94_PARTIAL_CHARGES>  (1) 
39
1 -0.57
10 0.27
11 0.27
12 0.57
14 0.27
15 0.27
16 0.37
17 0.1
18 0.1
19 0.03
2 -0.81
20 0.03
21 -0.15
22 -0.15
23 -0.18
24 -0.18
25 -0.15
26 -0.15
27 -0.15
28 -0.15
29 -0.15
3 -0.81
30 -0.15
4 -0.8
5 -0.57
51 0.37
52 0.37
53 0.15
54 0.15
55 0.15
56 0.15
57 0.15
58 0.15
59 0.15
6 0.33
60 0.15
61 0.15
62 0.15
9 0.27

>  <PUBCHEM_EFFECTIVE_ROTOR_COUNT>  (1) 
7.4

>  <PUBCHEM_PHARMACOPHORE_FEATURES>  (1) 
9
1 1 acceptor
1 2 cation
1 3 cation
1 4 donor
1 5 cation
6 17 19 21 25 27 29 rings
6 18 20 22 26 28 30 rings
6 2 6 7 8 9 10 rings
7 5 17 18 19 20 23 24 rings

>  <PUBCHEM_HEAVY_ATOM_COUNT>  (1) 
30

>  <PUBCHEM_ATOM_DEF_STEREO_COUNT>  (1) 
0

>  <PUBCHEM_ATOM_UDEF_STEREO_COUNT>  (1) 
0

>  <PUBCHEM_BOND_DEF_STEREO_COUNT>  (1) 
0

>  <PUBCHEM_BOND_UDEF_STEREO_COUNT>  (1) 
0

>  <PUBCHEM_ISOTOPIC_ATOM_COUNT>  (1) 
0

>  <PUBCHEM_COMPONENT_COUNT>  (1) 
1

>  <PUBCHEM_CACTVS_TAUTO_COUNT>  (1) 
2

>  <PUBCHEM_CONFORMER_ID>  (1) 
0000854200000001

>  <PUBCHEM_MMFF94_ENERGY>  (1) 
121.0847

>  <PUBCHEM_FEATURE_SELFOVERLAP>  (1) 
45.687

>  <PUBCHEM_SHAPE_FINGERPRINT>  (1) 
10369192 42 16630247000205187708
10670039 82 18339935852921498788
1100329 8 18123754424817378359
11045515 52 18334286600616361229
11578080 2 12389865994438497723
11595378 159 18410859836953245486
12107698 1 18333448742538224360
12156800 1 15909720533121902153
12166972 35 17749389307860781599
12422481 6 18059028193676323171
12516196 113 18335702797331286575
12596602 18 17676486155485487890
12788726 201 18335698351406749226
13224815 77 18186804634663348000
13911987 19 18113900515266688527
14251751 93 18267300933141580146
14347332 77 18410569544530274678
14394314 77 18269847561165738865
14400156 266 17988378043948521877
14787075 74 18262518220722324551
14840074 17 18340216305126377725
14910302 57 17560810913514428726
14955137 171 18126853926620878439
15183329 4 11386358249388811539
15575132 122 18409732871878884397
17349148 13 17385730170680500666
17492 89 18337387128965271326
1813 80 18340210790709804885
19315092 285 17096622405898318682
25019877 29 17060068106519278487
38695281 34 8790346412528657085
392239 28 18334864913134868603
4015057 19 13479143401293396823
460360 51 18125998261587668998
469060 322 18410580582537729345
508706 21 18125439709479883324
6081469 158 18272646828002302911
6287921 2 18128276539547069748

>  <PUBCHEM_SHAPE_MULTIPOLES>  (1) 
591.59
12.72
3.74
1.76
10.37
4.14
0.3
-7.28
1.54
-2.34
-0.71
-0.67
0.12
-1.17

>  <PUBCHEM_SHAPE_SELFOVERLAP>  (1) 
1272.119

>  <PUBCHEM_SHAPE_VOLUME>  (1) 
323

>  <PUBCHEM_COORDINATE_TYPE>  (1) 
2
5
10

$$$$
