34122
     RDKit          3D

 34 36  0  0  1  0  0  0  0  0999 V2000
   -4.7560    2.7600    0.4679 O   0  0  0  0  0  0  0  0  0  0  0  0
    6.7173    1.9909   -2.3418 O   0  0  0  0  0  0  0  0  0  0  0  0
   -2.9667   -1.5597   -2.1949 O   0  0  0  0  0  0  0  0  0  0  0  0
    2.4837   -0.5293    2.4967 O   0  0  0  0  0  0  0  0  0  0  0  0
   -5.0723   -1.4927   -0.0274 N   0  0  0  0  0  0  0  0  0  0  0  0
    4.2495   -0.7236   -0.1749 N   0  0  0  0  0  0  0  0  0  0  0  0
   -6.0210    0.6879    0.5267 C   0  0  0  0  0  0  0  0  0  0  0  0
    6.1122    0.9438   -0.1986 C   0  0  0  0  0  0  0  0  0  0  0  0
   -4.7385   -0.1443    0.4722 C   0  0  0  0  0  0  0  0  0  0  0  0
    5.3196   -0.0553   -1.0480 C   0  0  0  0  0  0  0  0  0  0  0  0
   -5.7802    2.0630    1.1756 C   0  0  0  0  0  0  0  0  0  0  0  0
    7.1449    1.7642   -1.0047 C   0  0  0  0  0  0  0  0  0  0  0  0
   -6.6180    0.8337   -0.8821 C   0  0  0  0  0  0  0  0  0  0  0  0
    6.7558    0.2124    0.9975 C   0  0  0  0  0  0  0  0  0  0  0  0
   -7.0577    2.9066    1.1774 C   0  0  0  0  0  0  0  0  0  0  0  0
    8.5120    1.0881   -1.0246 C   0  0  0  0  0  0  0  0  0  0  0  0
   -7.8891    1.6803   -0.8685 C   0  0  0  0  0  0  0  0  0  0  0  0
    8.0281    0.8974    1.4797 C   0  0  0  0  0  0  0  0  0  0  0  0
   -7.6568    3.0424   -0.2222 C   0  0  0  0  0  0  0  0  0  0  0  0
    9.0931    0.9386    0.3822 C   0  0  0  0  0  0  0  0  0  0  0  0
   -3.8188   -2.3799   -0.1049 C   0  0  0  0  0  0  0  0  0  0  0  0
    3.3352    0.2930    0.4073 C   0  0  0  0  0  0  0  0  0  0  0  0
   -6.0856   -2.1895    0.8958 C   0  0  0  0  0  0  0  0  0  0  0  0
   -5.6879   -1.4238   -1.4349 C   0  0  0  0  0  0  0  0  0  0  0  0
    4.9599   -1.5129    0.9324 C   0  0  0  0  0  0  0  0  0  0  0  0
    3.4717   -1.7173   -1.0475 C   0  0  0  0  0  0  0  0  0  0  0  0
   -2.7690   -1.7608   -0.9989 C   0  0  0  0  0  0  0  0  0  0  0  0
    2.2521   -0.3353    1.2862 C   0  0  0  0  0  0  0  0  0  0  0  0
   -1.4546   -1.3874   -0.4007 C   0  0  0  0  0  0  0  0  0  0  0  0
    0.9708   -0.6989    0.7028 C   0  0  0  0  0  0  0  0  0  0  0  0
   -0.9846   -2.1173    0.6674 C   0  0  0  0  0  0  0  0  0  0  0  0
    0.2446   -1.7685    1.2268 C   0  0  0  0  0  0  0  0  0  0  0  0
   -0.7615   -0.3275   -0.9397 C   0  0  0  0  0  0  0  0  0  0  0  0
    0.4678    0.0216   -0.3804 C   0  0  0  0  0  0  0  0  0  0  0  0
  1 11  1  0
  2 12  1  0
  3 27  2  0
  4 28  2  0
  5  9  1  0
  5 21  1  0
  5 23  1  0
  5 24  1  0
  6 10  1  0
  6 22  1  0
  6 25  1  0
  6 26  1  0
  7  9  1  0
  7 11  1  0
  7 13  1  0
  8 10  1  0
  8 12  1  0
  8 14  1  0
 11 15  1  0
 12 16  1  0
 13 17  1  0
 14 18  1  0
 15 19  1  0
 16 20  1  0
 17 19  1  0
 18 20  1  0
 21 27  1  0
 22 28  1  0
 27 29  1  0
 28 30  1  0
 29 31  2  0
 29 33  1  0
 30 32  2  0
 30 34  1  0
 31 32  1  0
 33 34  2  0
M  CHG  2   5   1   6   1
M  END
>  <PUBCHEM_COMPOUND_CID>  (1) 
34122

>  <PUBCHEM_CONFORMER_RMSD>  (1) 
1.2

>  <PUBCHEM_CONFORMER_DIVERSEORDER>  (1) 
291
265
87
116
157
328
113
129
275
62
107
381
46
370
125
154
371
285
365
160
327
163
150
392
428
152
42
19
132
407
313
49
96
39
292
55
429
369
262
111
351
320
136
32
102
141
94
329
134
251
57
415
64
226
422
205
100
335
50
252
209
396
287
79
240
53
189
402
77
104
348
332
197
130
178
219
34
56
13
137
333
65
242
159
158
361
409
40
164
311
71
264
198
293
23
414
114
270
352
336
24
188
88
281
54
358
75
343
81
27
390
208
273
376
177
257
60
146
138
225
357
244
105
214
316
355
218
155
298
43
362
83
318
331
162
8
346
315
305
187
131
391
26
334
212
95
133
74
222
143
203
10
201
6
267
255
31
413
378
246
301
266
431
101
324
387
260
67
22
377
411
234
261
395
410
389
256
206
220
90
119
374
144
408
399
224
161
195
202
325
61
344
179
398
127
296
366
110
382
108
17
173
386
11
337
276
48
186
103
112
59
223
230
404
304
172
288
47
139
400
84
303
423
38
249
295
80
3
385
347
418
419
28
196
425
44
169
383
142
167
349
364
401
192
20
148
51
314
341
424
176
354
310
86
58
248
254
283
384
183
307
72
284
1
126
118
360
236
37
120
245
82
204
299
166
375
342
190
135
323
97
228
416
33
286
373
2
171
213
52
5
345
106
312
122
200
359
340
319
14
215
15
306
123
45
89
243
170
63
372
397
211
393
321
309
417
430
117
280
36
7
297
330
216
380
153
140
235
239
121
9
21
168
12
149
156
238
259
145
30
403
70
278
300
98
326
269
363
406
85
279
174
76
199
231
247
353
221
426
124
388
165
210
181
29
151
302
182
227
175
109
237
16
268
317
277
282
4
350
368
68
35
412
66
405
294
92
241
99
185
289
78
290
193
338
253
115
69
91
356
180
207
93
339
427
73
233
308
263
367
25
394
322
258
271
194
420
191
421
184
432
128
250
272
41
229
379
18
232
217
274
147

>  <PUBCHEM_MMFF94_PARTIAL_CHARGES>  (1) 
30
1 -0.68
10 0.5
11 0.28
12 0.28
2 -0.68
21 0.56
22 0.56
23 0.5
24 0.5
25 0.5
26 0.5
27 0.42
28 0.42
29 0.09
3 -0.57
30 0.09
31 -0.15
32 -0.15
33 -0.15
34 -0.15
4 -0.57
5 -1.01
6 -1.01
75 0.4
76 0.4
77 0.15
78 0.15
79 0.15
80 0.15
9 0.5

>  <PUBCHEM_EFFECTIVE_ROTOR_COUNT>  (1) 
12.4

>  <PUBCHEM_PHARMACOPHORE_FEATURES>  (1) 
11
1 1 acceptor
1 1 donor
1 2 acceptor
1 2 donor
1 3 acceptor
1 4 acceptor
1 5 cation
1 6 cation
6 29 30 31 32 33 34 rings
6 7 11 13 15 17 19 rings
6 8 12 14 16 18 20 rings

>  <PUBCHEM_HEAVY_ATOM_COUNT>  (1) 
34

>  <PUBCHEM_ATOM_DEF_STEREO_COUNT>  (1) 
0

>  <PUBCHEM_ATOM_UDEF_STEREO_COUNT>  (1) 
4

>  <PUBCHEM_BOND_DEF_STEREO_COUNT>  (1) 
0

>  <PUBCHEM_BOND_UDEF_STEREO_COUNT>  (1) 
0

>  <PUBCHEM_ISOTOPIC_ATOM_COUNT>  (1) 
0

>  <PUBCHEM_COMPONENT_COUNT>  (1) 
1

>  <PUBCHEM_CACTVS_TAUTO_COUNT>  (1) 
3

>  <PUBCHEM_CONFORMER_ID>  (1) 
0000854A00000123

>  <PUBCHEM_MMFF94_ENERGY>  (1) 
181.2289

>  <PUBCHEM_FEATURE_SELFOVERLAP>  (1) 
55.822

>  <PUBCHEM_SHAPE_FINGERPRINT>  (1) 
10533779 47 14779542341153486912
10670039 82 18342453760065519617
10906281 52 18187374259254702582
11181472 205 18335143086379000084
11315181 36 18040712602597103047
11386260 185 15984807264429958336
11408170 132 18343028757776655606
11456790 92 16515672352700324428
11475781 23 18342184349514949582
11646440 116 15936406758833931926
12082328 90 18411983584855100351
12120059 9 15626216902309006094
12166972 35 10879985874098019810
12539765 74 18333737927483002102
12645989 146 11671778286636219187
12664476 115 18201440307482535739
13782708 43 9079122150442208206
13947947 19 18409162204734440989
14251757 52 18334013869633928176
14294032 229 18335421206327843956
14394314 77 18186241723312450549
14856354 85 18339644567971127423
150020 25 17418093235267549992
15183329 4 16415480441264397051
15198563 99 16271663212935836256
15276724 80 18186794760443981428
15419008 91 17131257074198225304
15461852 350 17632289104148592215
15604295 49 17987508364268454536
1577012 14 18335136479506184066
16728433 281 17916872296904732681
16994733 274 18408040736632155904
1754908 1 12757146896734305732
19611394 137 13190345677104160108
21223535 225 18343577469022485780
21424621 283 18335143089519102306
21756936 100 18411417328589094723
21781051 124 12829494706202252610
21781055 127 18335412453774319674
21792965 106 17987517000734939161
23522609 53 18187091671575227892
23559900 14 14979671160899941578
23576562 1 16629664280021768273
24771293 8 17967535696493387550
255183 313 15140968374085128995
2747138 104 13623522459765250574
3178227 256 15430039855447110020
3525247 18 17395001055992162557
3711267 37 18260269689722110964
3918712 181 18340763724779243841
397830 11 11819284398678949486
4073 2 18335424552054431987
4098825 35 18412829049926680870
4169191 19 18260543424919379647
44555599 121 18114467859393685868
445580 204 18410293618529595120
44802255 64 17632856439211408271
4516262 110 18263353712895954183
54039377 194 10735867397063301429
5911458 16 18261116270171820428
5937810 71 18410016554342372885
6328613 192 18411983542310946489
6697151 62 14620788293498062098
9953998 17 13623523546534147695
999808 66 13912320192010742327

>  <PUBCHEM_SHAPE_MULTIPOLES>  (1) 
666.26
29.33
2.96
1.67
20.57
1
-0.11
22.57
-1.97
-6.26
0.05
1.12
0.02
-2.14

>  <PUBCHEM_SHAPE_SELFOVERLAP>  (1) 
1374.169

>  <PUBCHEM_SHAPE_VOLUME>  (1) 
378.1

>  <PUBCHEM_COORDINATE_TYPE>  (1) 
2
5
10

$$$$
