34124
     RDKit          3D

 22 23  0  0  0  0  0  0  0  0999 V2000
   -6.6371   -0.3477   -0.2109 Cl  0  0  0  0  0  0  0  0  0  0  0  0
    6.2952   -0.1083   -0.2610 O   0  0  0  0  0  0  0  0  0  0  0  0
   -0.6300    2.1543    1.1296 O   0  0  0  0  0  0  0  0  0  0  0  0
   -1.6589   -1.1997   -0.7461 O   0  0  0  0  0  0  0  0  0  0  0  0
    3.5534    0.5096    0.1890 N   0  0  0  0  0  0  0  0  0  0  0  0
   -0.0503    0.8275   -0.6827 N   0  0  0  0  0  0  0  0  0  0  0  0
    4.3031   -0.3669    1.0994 C   0  0  0  0  0  0  0  0  0  0  0  0
    4.1074    0.4171   -1.1689 C   0  0  0  0  0  0  0  0  0  0  0  0
    2.1322    0.1690    0.1940 C   0  0  0  0  0  0  0  0  0  0  0  0
    5.7842   -0.0001    1.0681 C   0  0  0  0  0  0  0  0  0  0  0  0
    5.5933    0.7643   -1.1472 C   0  0  0  0  0  0  0  0  0  0  0  0
    1.3530    1.1394   -0.6816 C   0  0  0  0  0  0  0  0  0  0  0  0
   -0.9402    1.3692    0.2375 C   0  0  0  0  0  0  0  0  0  0  0  0
   -2.3533    0.9263    0.1194 C   0  0  0  0  0  0  0  0  0  0  0  0
   -2.6400   -0.3336   -0.3656 C   0  0  0  0  0  0  0  0  0  0  0  0
   -3.3442    1.8067    0.5059 C   0  0  0  0  0  0  0  0  0  0  0  0
   -3.9733   -0.7303   -0.4687 C   0  0  0  0  0  0  0  0  0  0  0  0
   -4.6774    1.4100    0.4028 C   0  0  0  0  0  0  0  0  0  0  0  0
   -4.9920    0.1414   -0.0843 C   0  0  0  0  0  0  0  0  0  0  0  0
   -1.5921   -2.4460   -0.0565 C   0  0  0  0  0  0  0  0  0  0  0  0
   -0.1820   -2.9346   -0.0839 C   0  0  0  0  0  0  0  0  0  0  0  0
    0.5493   -3.1676    1.0116 C   0  0  0  0  0  0  0  0  0  0  0  0
  1 19  1  0
  2 10  1  0
  2 11  1  0
  3 13  2  0
  4 15  1  0
  4 20  1  0
  5  7  1  0
  5  8  1  0
  5  9  1  0
  6 12  1  0
  6 13  1  0
  7 10  1  0
  8 11  1  0
  9 12  1  0
 13 14  1  0
 14 15  2  0
 14 16  1  0
 15 17  1  0
 16 18  2  0
 17 19  2  0
 18 19  1  0
 20 21  1  0
 21 22  2  0
M  END
>  <PUBCHEM_COMPOUND_CID>  (1) 
34124

>  <PUBCHEM_CONFORMER_RMSD>  (1) 
1

>  <PUBCHEM_CONFORMER_DIVERSEORDER>  (1) 
1
46
13
37
18
22
26
12
42
55
49
33
5
36
11
39
34
17
8
24
29
50
40
28
16
43
38
35
21
4
52
51
20
30
48
14
7
47
44
6
2
15
3
31
9
25
45
10
41
23
32
53
27
54
19

>  <PUBCHEM_MMFF94_PARTIAL_CHARGES>  (1) 
29
1 -0.18
10 0.28
11 0.28
12 0.3
13 0.54
14 0.09
15 0.08
16 -0.15
17 -0.15
18 -0.15
19 0.18
2 -0.56
20 0.42
21 -0.29
22 -0.3
3 -0.57
35 0.37
36 0.15
37 0.15
38 0.15
4 -0.36
41 0.15
42 0.15
43 0.15
5 -0.81
6 -0.73
7 0.27
8 0.27
9 0.27

>  <PUBCHEM_EFFECTIVE_ROTOR_COUNT>  (1) 
9.2

>  <PUBCHEM_PHARMACOPHORE_FEATURES>  (1) 
8
1 2 acceptor
1 22 hydrophobe
1 3 acceptor
1 4 acceptor
1 5 cation
1 6 donor
6 14 15 16 17 18 19 rings
6 2 5 7 8 10 11 rings

>  <PUBCHEM_HEAVY_ATOM_COUNT>  (1) 
22

>  <PUBCHEM_ATOM_DEF_STEREO_COUNT>  (1) 
0

>  <PUBCHEM_ATOM_UDEF_STEREO_COUNT>  (1) 
0

>  <PUBCHEM_BOND_DEF_STEREO_COUNT>  (1) 
0

>  <PUBCHEM_BOND_UDEF_STEREO_COUNT>  (1) 
0

>  <PUBCHEM_ISOTOPIC_ATOM_COUNT>  (1) 
0

>  <PUBCHEM_COMPONENT_COUNT>  (1) 
1

>  <PUBCHEM_CACTVS_TAUTO_COUNT>  (1) 
2

>  <PUBCHEM_CONFORMER_ID>  (1) 
0000854C00000001

>  <PUBCHEM_MMFF94_ENERGY>  (1) 
51.3521

>  <PUBCHEM_FEATURE_SELFOVERLAP>  (1) 
40.596

>  <PUBCHEM_SHAPE_FINGERPRINT>  (1) 
1100329 8 18338796839714467017
11045977 3 17988637536829099800
11646440 116 18060147569675536819
12236239 1 18114181930045135500
12592029 89 18333735689255810539
12788726 201 18201160962282330144
12838862 33 18337932554776488873
13140716 1 18197218268741608579
13533116 47 18130788902664401654
14840074 17 17676212372768636132
14866123 147 18265897033119743163
19489759 90 17988925556877013705
20645477 70 15719386193310349912
21033648 29 15841258247543473192
21267235 1 18343026618566651357
21360443 120 18186525380654812602
23402539 116 18273209807208073229
23559900 14 18200590427480194544
3004659 81 18410015459552928388
3178227 256 18337967774441921817
34797466 226 17703800258035383820
5486654 2 18411984662991494644
59755656 215 18273219677000806175
6138700 20 18412827971356912167
7226269 152 18202285796784185825

>  <PUBCHEM_SHAPE_MULTIPOLES>  (1) 
427.05
14.3
2.56
1.04
7.72
2.4
-0.03
-2.83
0.61
-1.16
-0.54
1.01
-0.07
-1.12

>  <PUBCHEM_SHAPE_SELFOVERLAP>  (1) 
870.059

>  <PUBCHEM_SHAPE_VOLUME>  (1) 
247.9

>  <PUBCHEM_COORDINATE_TYPE>  (1) 
2
5
10

$$$$
