34131
     RDKit          3D

 34 38  0  0  0  0  0  0  0  0999 V2000
   -4.9823   -1.8970   -1.8488 O   0  0  0  0  0  0  0  0  0  0  0  0
   -5.6139    0.0766    0.7290 N   0  0  0  0  0  0  0  0  0  0  0  0
   -1.8075    0.3665   -1.0932 N   0  0  0  0  0  0  0  0  0  0  0  0
    3.1152    0.0394   -0.7266 N   0  0  0  0  0  0  0  0  0  0  0  0
   -5.0701   -2.6467    0.3248 N   0  0  0  0  0  0  0  0  0  0  0  0
   -4.4793   -0.3420   -0.0936 C   0  0  0  0  0  0  0  0  0  0  0  0
   -4.2630    0.6622   -1.2328 C   0  0  0  0  0  0  0  0  0  0  0  0
   -3.2183   -0.4480    0.7731 C   0  0  0  0  0  0  0  0  0  0  0  0
   -2.9632    0.3911   -1.9994 C   0  0  0  0  0  0  0  0  0  0  0  0
   -1.9582   -0.6766   -0.0702 C   0  0  0  0  0  0  0  0  0  0  0  0
   -5.3244    1.3564    1.3908 C   0  0  0  0  0  0  0  0  0  0  0  0
   -6.8346    0.1635   -0.0849 C   0  0  0  0  0  0  0  0  0  0  0  0
   -6.4820    1.7847    2.2940 C   0  0  0  0  0  0  0  0  0  0  0  0
   -8.0415    0.5526    0.7703 C   0  0  0  0  0  0  0  0  0  0  0  0
   -4.8600   -1.6935   -0.6434 C   0  0  0  0  0  0  0  0  0  0  0  0
   -7.7929    1.8569    1.5192 C   0  0  0  0  0  0  0  0  0  0  0  0
   -0.5702    0.1675   -1.8479 C   0  0  0  0  0  0  0  0  0  0  0  0
    0.6648    0.2025   -0.9425 C   0  0  0  0  0  0  0  0  0  0  0  0
    1.9964    0.0488   -1.6767 C   0  0  0  0  0  0  0  0  0  0  0  0
    5.6296   -0.0628    0.7323 C   0  0  0  0  0  0  0  0  0  0  0  0
    4.7135   -1.2902    0.5537 C   0  0  0  0  0  0  0  0  0  0  0  0
    4.9944    1.2561    0.2481 C   0  0  0  0  0  0  0  0  0  0  0  0
    3.4898   -1.1919   -0.1450 C   0  0  0  0  0  0  0  0  0  0  0  0
    3.7607    1.2625   -0.4398 C   0  0  0  0  0  0  0  0  0  0  0  0
    6.9270   -0.3027   -0.0738 C   0  0  0  0  0  0  0  0  0  0  0  0
    5.9688    0.0810    2.2417 C   0  0  0  0  0  0  0  0  0  0  0  0
    5.1057   -2.5444    1.0763 C   0  0  0  0  0  0  0  0  0  0  0  0
    5.6600    2.4835    0.4734 C   0  0  0  0  0  0  0  0  0  0  0  0
    2.6758   -2.3439   -0.2205 C   0  0  0  0  0  0  0  0  0  0  0  0
    3.2116    2.5122   -0.8038 C   0  0  0  0  0  0  0  0  0  0  0  0
    4.2947   -3.6700    0.9627 C   0  0  0  0  0  0  0  0  0  0  0  0
    5.1071    3.6984    0.0791 C   0  0  0  0  0  0  0  0  0  0  0  0
    3.0716   -3.5662    0.3239 C   0  0  0  0  0  0  0  0  0  0  0  0
    3.8745    3.7134   -0.5497 C   0  0  0  0  0  0  0  0  0  0  0  0
  1 15  2  0
  2  6  1  0
  2 11  1  0
  2 12  1  0
  3  9  1  0
  3 10  1  0
  3 17  1  0
  4 19  1  0
  4 23  1  0
  4 24  1  0
  5 15  1  0
  6  7  1  0
  6  8  1  0
  6 15  1  0
  7  9  1  0
  8 10  1  0
 11 13  1  0
 12 14  1  0
 13 16  1  0
 14 16  1  0
 17 18  1  0
 18 19  1  0
 20 21  1  0
 20 22  1  0
 20 25  1  0
 20 26  1  0
 21 23  2  0
 21 27  1  0
 22 24  2  0
 22 28  1  0
 23 29  1  0
 24 30  1  0
 27 31  2  0
 28 32  2  0
 29 33  2  0
 30 34  2  0
 31 33  1  0
 32 34  1  0
M  END
>  <PUBCHEM_COMPOUND_CID>  (1) 
34131

>  <PUBCHEM_CONFORMER_RMSD>  (1) 
1

>  <PUBCHEM_CONFORMER_DIVERSEORDER>  (1) 
1
60
62
42
17
61
16
56
21
54
57
49
30
46
43
13
34
9
20
11
19
44
52
41
14
55
39
47
5
59
23
6
28
18
2
3
22
29
32
50
35
4
31
25
27
45
38
12
10
15
40
33
8
24
58
26
53
36
51
7
37
48

>  <PUBCHEM_MMFF94_PARTIAL_CHARGES>  (1) 
36
1 -0.57
10 0.27
11 0.27
12 0.27
15 0.57
17 0.27
19 0.37
2 -0.81
20 0.29
21 -0.14
22 -0.14
23 0.1
24 0.1
27 -0.15
28 -0.15
29 -0.15
3 -0.81
30 -0.15
31 -0.15
32 -0.15
33 -0.15
34 -0.15
4 -0.57
5 -0.8
59 0.37
6 0.33
60 0.37
67 0.15
68 0.15
69 0.15
70 0.15
71 0.15
72 0.15
73 0.15
74 0.15
9 0.27

>  <PUBCHEM_EFFECTIVE_ROTOR_COUNT>  (1) 
8.8

>  <PUBCHEM_PHARMACOPHORE_FEATURES>  (1) 
11
1 1 acceptor
1 2 cation
1 3 cation
1 4 cation
1 5 donor
3 20 25 26 hydrophobe
6 2 11 12 13 14 16 rings
6 21 23 27 29 31 33 rings
6 22 24 28 30 32 34 rings
6 3 6 7 8 9 10 rings
6 4 20 21 22 23 24 rings

>  <PUBCHEM_HEAVY_ATOM_COUNT>  (1) 
34

>  <PUBCHEM_ATOM_DEF_STEREO_COUNT>  (1) 
0

>  <PUBCHEM_ATOM_UDEF_STEREO_COUNT>  (1) 
0

>  <PUBCHEM_BOND_DEF_STEREO_COUNT>  (1) 
0

>  <PUBCHEM_BOND_UDEF_STEREO_COUNT>  (1) 
0

>  <PUBCHEM_ISOTOPIC_ATOM_COUNT>  (1) 
0

>  <PUBCHEM_COMPONENT_COUNT>  (1) 
1

>  <PUBCHEM_CACTVS_TAUTO_COUNT>  (1) 
2

>  <PUBCHEM_CONFORMER_ID>  (1) 
0000855300000001

>  <PUBCHEM_MMFF94_ENERGY>  (1) 
112.3792

>  <PUBCHEM_FEATURE_SELFOVERLAP>  (1) 
55.861

>  <PUBCHEM_SHAPE_FINGERPRINT>  (1) 
10169797 241 17676201347904156738
10190108 129 18335986394433454308
12342043 65 17531807914218993734
12373685 5 18273206509533267335
12596602 18 17988643033901863578
12661589 4 13840563898482205625
13533116 47 18261116240011519158
13668630 136 13406793311360436489
13782708 43 17458613511094019250
13785724 45 18054233133564027310
14347424 109 18409731716590450401
15183329 4 17561090207054142817
15392192 104 17677912294959922377
1577012 14 18201721807396100324
19377110 9 18201994473362796783
1979834 28 18040715896462271948
20554085 129 15626220195630920151
21197605 99 18116713113630154690
21781051 124 14129640839037738985
21792934 111 17894630328142420389
21814621 53 17895767201527258497
21859007 373 17169249482761759109
22122407 14 18130518512713465393
23572383 38 17676765482546378107
312425 54 18408326579580284019
3178227 256 18333726928308373632
3383291 50 16515694347126939177
3663271 9 18412826915063930651
394071 54 18260267442952334010
4073 2 18263369242680012531
439807 62 11386364864118404217
5104073 3 18335990843597306795
6176135 31 18335414681839615410
6700243 42 14274301298834626983
86090 222 17023759904729800618
9555976 147 17988932167448594851

>  <PUBCHEM_SHAPE_MULTIPOLES>  (1) 
673.91
23.08
3.83
1.75
28
0.12
0.1
-5.39
10.53
-6.95
0.62
1.65
-0.31
-3.14

>  <PUBCHEM_SHAPE_SELFOVERLAP>  (1) 
1446.837

>  <PUBCHEM_SHAPE_VOLUME>  (1) 
368.5

>  <PUBCHEM_COORDINATE_TYPE>  (1) 
2
5
10

$$$$
