34141
     RDKit          3D

 12 12  0  0  0  0  0  0  0  0999 V2000
   -1.7361    0.3006    0.3162 C   0  0  0  0  0  0  0  0  0  0  0  0
   -0.7321   -0.0703   -0.8163 C   0  0  0  0  0  0  0  0  0  0  0  0
   -3.1872    0.3156   -0.2544 C   0  0  0  0  0  0  0  0  0  0  0  0
   -1.4533    1.7174    0.8615 C   0  0  0  0  0  0  0  0  0  0  0  0
   -1.6459   -0.6947    1.4885 C   0  0  0  0  0  0  0  0  0  0  0  0
    0.7359   -0.0837   -0.4539 C   0  0  0  0  0  0  0  0  0  0  0  0
   -3.6858   -0.9948   -0.8527 C   0  0  0  0  0  0  0  0  0  0  0  0
    1.4789    1.0759   -0.5974 C   0  0  0  0  0  0  0  0  0  0  0  0
    1.3071   -1.2551    0.0139 C   0  0  0  0  0  0  0  0  0  0  0  0
    2.8331    1.0638   -0.2632 C   0  0  0  0  0  0  0  0  0  0  0  0
    2.6613   -1.2671    0.3482 C   0  0  0  0  0  0  0  0  0  0  0  0
    3.4243   -0.1077    0.2096 C   0  0  0  0  0  0  0  0  0  0  0  0
  1  2  1  0
  1  3  1  0
  1  4  1  0
  1  5  1  0
  2  6  1  0
  3  7  1  0
  6  8  2  0
  6  9  1  0
  8 10  1  0
  9 11  2  0
 10 12  2  0
 11 12  1  0
M  END
>  <PUBCHEM_COMPOUND_CID>  (1) 
34141

>  <PUBCHEM_CONFORMER_RMSD>  (1) 
0.6

>  <PUBCHEM_CONFORMER_DIVERSEORDER>  (1) 
1
2
3

>  <PUBCHEM_MMFF94_PARTIAL_CHARGES>  (1) 
12
10 -0.15
11 -0.15
12 -0.15
2 0.14
26 0.15
27 0.15
28 0.15
29 0.15
30 0.15
6 -0.14
8 -0.15
9 -0.15

>  <PUBCHEM_EFFECTIVE_ROTOR_COUNT>  (1) 
3

>  <PUBCHEM_PHARMACOPHORE_FEATURES>  (1) 
3
1 7 hydrophobe
3 1 4 5 hydrophobe
6 6 8 9 10 11 12 rings

>  <PUBCHEM_HEAVY_ATOM_COUNT>  (1) 
12

>  <PUBCHEM_ATOM_DEF_STEREO_COUNT>  (1) 
0

>  <PUBCHEM_ATOM_UDEF_STEREO_COUNT>  (1) 
0

>  <PUBCHEM_BOND_DEF_STEREO_COUNT>  (1) 
0

>  <PUBCHEM_BOND_UDEF_STEREO_COUNT>  (1) 
0

>  <PUBCHEM_ISOTOPIC_ATOM_COUNT>  (1) 
0

>  <PUBCHEM_COMPONENT_COUNT>  (1) 
1

>  <PUBCHEM_CACTVS_TAUTO_COUNT>  (1) 
1

>  <PUBCHEM_CONFORMER_ID>  (1) 
0000855D00000001

>  <PUBCHEM_MMFF94_ENERGY>  (1) 
32.1418

>  <PUBCHEM_FEATURE_SELFOVERLAP>  (1) 
15.224

>  <PUBCHEM_SHAPE_FINGERPRINT>  (1) 
10219947 1 18114181938903757820
11062470 55 17967530173017738295
12162725 195 18410858728656465368
124424 183 16732696143179362424
12932764 1 18200888304472414497
13296908 3 16298396772263693545
13380536 127 15913335641217046363
14144814 61 18334580113869307712
14251717 144 18334006203054170358
14325111 11 18409729560226665549
15375462 478 18201431446205413380
15775835 57 17917998264986920392
15852999 172 17458341961480956827
16945 1 18336280001858812832
18186145 218 17676479524087456015
200 152 18412255151594972983
20201158 50 17967813838311887786
20279233 1 17095242523095138410
20528008 55 17967531293788009034
20645477 70 18187919547938748815
22802520 49 13038086337834851760
23402539 116 18201710752286832789
23402655 69 18335133164081523613
23557571 272 17060340673770674593
3248919 1 18040444286539941508
369184 2 18335708221563465785
57812782 119 17967810561304412919
581208 293 18261106392036598838
69090 78 17894628184473496411
74978 22 11891344174396408263
8030462 33 18337123301460164076
81228 2 15575549133587610676

>  <PUBCHEM_SHAPE_MULTIPOLES>  (1) 
246.95
5.9
1.46
1.06
0.67
0.19
-0.21
-0.77
0.54
-0.17
-0.17
0.58
-0.06
-0.54

>  <PUBCHEM_SHAPE_SELFOVERLAP>  (1) 
494.459

>  <PUBCHEM_SHAPE_VOLUME>  (1) 
144

>  <PUBCHEM_COORDINATE_TYPE>  (1) 
2
5
10

$$$$
