34145
     RDKit          3D

 14 15  0  0  0  0  0  0  0  0999 V2000
   -2.5949   -1.6381    0.0649 O   0  0  0  0  0  0  0  0  0  0  0  0
    1.5472    1.9183    0.1561 O   0  0  0  0  0  0  0  0  0  0  0  0
    4.3385   -1.6121   -0.3726 N   0  0  0  0  0  0  0  0  0  0  0  0
    0.8297   -0.3581    0.3724 C   0  0  0  0  0  0  0  0  0  0  0  0
    2.2350   -0.7981    0.6333 C   0  0  0  0  0  0  0  0  0  0  0  0
    0.5457    0.9906    0.1436 C   0  0  0  0  0  0  0  0  0  0  0  0
   -1.7976    0.4678   -0.1159 C   0  0  0  0  0  0  0  0  0  0  0  0
   -1.4738   -0.8651    0.1161 C   0  0  0  0  0  0  0  0  0  0  0  0
   -0.1812   -1.3238    0.3637 C   0  0  0  0  0  0  0  0  0  0  0  0
   -0.7651    1.4218   -0.1025 C   0  0  0  0  0  0  0  0  0  0  0  0
    2.9793   -1.1635   -0.6555 C   0  0  0  0  0  0  0  0  0  0  0  0
   -3.2026    0.4940   -0.3188 C   0  0  0  0  0  0  0  0  0  0  0  0
   -3.6360   -0.8062   -0.1990 C   0  0  0  0  0  0  0  0  0  0  0  0
    1.1756    3.2724   -0.0859 C   0  0  0  0  0  0  0  0  0  0  0  0
  1  8  1  0
  1 13  1  0
  2  6  1  0
  2 14  1  0
  3 11  1  0
  4  5  1  0
  4  6  1  0
  4  9  2  0
  5 11  1  0
  6 10  2  0
  7  8  2  0
  7 10  1  0
  7 12  1  0
  8  9  1  0
 12 13  2  0
M  END
>  <PUBCHEM_COMPOUND_CID>  (1) 
34145

>  <PUBCHEM_CONFORMER_RMSD>  (1) 
0.6

>  <PUBCHEM_CONFORMER_DIVERSEORDER>  (1) 
1
5
6
7
4
2
3

>  <PUBCHEM_MMFF94_PARTIAL_CHARGES>  (1) 
19
1 -0.28
10 -0.15
11 0.27
12 -0.15
13 -0.01
14 0.28
17 0.15
18 0.15
2 -0.36
21 0.15
22 0.15
23 0.36
24 0.36
3 -0.99
4 -0.14
5 0.14
6 0.08
8 0.14
9 -0.15

>  <PUBCHEM_EFFECTIVE_ROTOR_COUNT>  (1) 
3

>  <PUBCHEM_PHARMACOPHORE_FEATURES>  (1) 
6
1 1 acceptor
1 2 acceptor
1 3 cation
1 3 donor
5 1 7 8 12 13 rings
6 4 6 7 8 9 10 rings

>  <PUBCHEM_HEAVY_ATOM_COUNT>  (1) 
14

>  <PUBCHEM_ATOM_DEF_STEREO_COUNT>  (1) 
0

>  <PUBCHEM_ATOM_UDEF_STEREO_COUNT>  (1) 
0

>  <PUBCHEM_BOND_DEF_STEREO_COUNT>  (1) 
0

>  <PUBCHEM_BOND_UDEF_STEREO_COUNT>  (1) 
0

>  <PUBCHEM_ISOTOPIC_ATOM_COUNT>  (1) 
0

>  <PUBCHEM_COMPONENT_COUNT>  (1) 
1

>  <PUBCHEM_CACTVS_TAUTO_COUNT>  (1) 
1

>  <PUBCHEM_CONFORMER_ID>  (1) 
0000856100000001

>  <PUBCHEM_MMFF94_ENERGY>  (1) 
30.7593

>  <PUBCHEM_FEATURE_SELFOVERLAP>  (1) 
30.548

>  <PUBCHEM_SHAPE_FINGERPRINT>  (1) 
10465860 71 18341629087447415118
11206711 2 18188480268829945909
11680986 33 18264210394586426619
12032990 46 18411420591957014323
12138202 78 18337952406073327940
12932764 1 17531514443567144131
13380535 21 18119820363279778651
13380535 76 17903064878362755624
14648413 74 18264770028867215465
14790565 3 17763192336603549368
14911166 2 18336539418136731599
15536298 74 18342173414206395272
161256 15 18334287708074514053
16945 1 18335690603713067179
17041 50 18408877417382746989
17990270 104 18338510953695495601
18186145 218 18040987471518116367
193761 8 17977101584751431547
19591789 44 16828696414413323713
20645477 70 18266166413584034295
20671657 53 18413111640982575372
20871998 22 18412539899426310512
20871999 31 18263643974399611588
21029758 11 18411976936393016208
21029758 27 18262249827994302033
21501502 16 18268146638098618547
21524375 3 17542494385367206064
221490 88 18263932218239966963
22213442 358 18412545409848382134
2334 1 18192145112968378377
23402539 116 18268985402320253726
23552423 10 18262231243929197219
23557571 272 18128542557580040478
23559900 14 18267861676125876458
2748010 2 18262227949763121173
3071541 12 18337956817026021784
3071541 158 18334012795918588668
3071541 250 18410582807172753596
458136 41 17831882500049922249
7364860 26 18269272533473441904
81228 2 18124326999586340080
84936 31 17489299845770192112

>  <PUBCHEM_SHAPE_MULTIPOLES>  (1) 
271.39
5.64
2.57
0.71
1
2.37
0
-3.34
-1.05
1.51
-0.07
0.17
-0.08
0.3

>  <PUBCHEM_SHAPE_SELFOVERLAP>  (1) 
581.933

>  <PUBCHEM_SHAPE_VOLUME>  (1) 
152.6

>  <PUBCHEM_COORDINATE_TYPE>  (1) 
2
5
10

$$$$
