34148
     RDKit          3D

 26 28  0  0  0  0  0  0  0  0999 V2000
    0.5786    0.0083    0.4667 P   0  0  0  0  0  0  0  0  0  0  0  0
   -0.9535   -0.1498   -0.0366 O   0  0  0  0  0  0  0  0  0  0  0  0
    1.3480   -1.1781   -0.3174 O   0  0  0  0  0  0  0  0  0  0  0  0
    1.0776    1.3380   -0.3061 O   0  0  0  0  0  0  0  0  0  0  0  0
    0.7659    0.0215    1.9581 O   0  0  0  0  0  0  0  0  0  0  0  0
   -3.6152   -0.1347   -1.0745 C   0  0  0  0  0  0  0  0  0  0  0  0
   -3.0751   -1.2472   -0.2380 C   0  0  0  0  0  0  0  0  0  0  0  0
   -1.7671   -1.2058    0.2447 C   0  0  0  0  0  0  0  0  0  0  0  0
   -4.0045   -0.5998   -2.4899 C   0  0  0  0  0  0  0  0  0  0  0  0
   -4.8093    0.5741   -0.4092 C   0  0  0  0  0  0  0  0  0  0  0  0
   -3.8944   -2.3362    0.0599 C   0  0  0  0  0  0  0  0  0  0  0  0
   -1.2784   -2.2536    1.0252 C   0  0  0  0  0  0  0  0  0  0  0  0
   -3.4055   -3.3839    0.8402 C   0  0  0  0  0  0  0  0  0  0  0  0
   -2.0975   -3.3426    1.3229 C   0  0  0  0  0  0  0  0  0  0  0  0
    2.7027   -1.3714   -0.3141 C   0  0  0  0  0  0  0  0  0  0  0  0
    0.5981    2.6007   -0.0856 C   0  0  0  0  0  0  0  0  0  0  0  0
    3.5215   -0.5061    0.4046 C   0  0  0  0  0  0  0  0  0  0  0  0
   -0.3953    2.8051    0.8666 C   0  0  0  0  0  0  0  0  0  0  0  0
    3.2504   -2.4308   -1.0304 C   0  0  0  0  0  0  0  0  0  0  0  0
    1.1072    3.6694   -0.8163 C   0  0  0  0  0  0  0  0  0  0  0  0
    4.9025   -0.7025    0.4071 C   0  0  0  0  0  0  0  0  0  0  0  0
   -0.8848    4.0920    1.0905 C   0  0  0  0  0  0  0  0  0  0  0  0
    4.6313   -2.6272   -1.0278 C   0  0  0  0  0  0  0  0  0  0  0  0
    0.6179    4.9563   -0.5924 C   0  0  0  0  0  0  0  0  0  0  0  0
    5.4573   -1.7630   -0.3091 C   0  0  0  0  0  0  0  0  0  0  0  0
   -0.3782    5.1674    0.3610 C   0  0  0  0  0  0  0  0  0  0  0  0
  1  2  1  0
  1  3  1  0
  1  4  1  0
  1  5  2  0
  2  8  1  0
  3 15  1  0
  4 16  1  0
  6  7  1  0
  6  9  1  0
  6 10  1  0
  7  8  2  0
  7 11  1  0
  8 12  1  0
 11 13  2  0
 12 14  2  0
 13 14  1  0
 15 17  2  0
 15 19  1  0
 16 18  2  0
 16 20  1  0
 17 21  1  0
 18 22  1  0
 19 23  2  0
 20 24  2  0
 21 25  2  0
 22 26  2  0
 23 25  1  0
 24 26  1  0
M  END
>  <PUBCHEM_COMPOUND_CID>  (1) 
34148

>  <PUBCHEM_CONFORMER_RMSD>  (1) 
0.8

>  <PUBCHEM_CONFORMER_DIVERSEORDER>  (1) 
1
84
55
71
70
80
41
47
14
39
64
54
31
73
81
51
40
89
69
86
68
11
61
66
58
29
53
72
2
33
4
93
25
85
45
62
28
20
30
38
34
10
36
44
90
32
49
78
82
7
60
91
63
8
57
6
43
27
83
50
56
9
65
42
15
92
48
18
87
77
13
16
46
5
37
35
88
74
3
52
75
21
22
79
67
59
26
24
76
19
12
17
23

>  <PUBCHEM_MMFF94_PARTIAL_CHARGES>  (1) 
38
1 1.51
11 -0.15
12 -0.15
13 -0.15
14 -0.15
15 0.08
16 0.08
17 -0.15
18 -0.15
19 -0.15
2 -0.35
20 -0.15
21 -0.15
22 -0.15
23 -0.15
24 -0.15
25 -0.15
26 -0.15
3 -0.35
34 0.15
35 0.15
36 0.15
37 0.15
38 0.15
39 0.15
4 -0.35
40 0.15
41 0.15
42 0.15
43 0.15
44 0.15
45 0.15
46 0.15
47 0.15
5 -0.7
6 0.14
7 -0.14
8 0.08

>  <PUBCHEM_EFFECTIVE_ROTOR_COUNT>  (1) 
7

>  <PUBCHEM_PHARMACOPHORE_FEATURES>  (1) 
5
1 5 acceptor
3 6 9 10 hydrophobe
6 15 17 19 21 23 25 rings
6 16 18 20 22 24 26 rings
6 7 8 11 12 13 14 rings

>  <PUBCHEM_HEAVY_ATOM_COUNT>  (1) 
26

>  <PUBCHEM_ATOM_DEF_STEREO_COUNT>  (1) 
0

>  <PUBCHEM_ATOM_UDEF_STEREO_COUNT>  (1) 
0

>  <PUBCHEM_BOND_DEF_STEREO_COUNT>  (1) 
0

>  <PUBCHEM_BOND_UDEF_STEREO_COUNT>  (1) 
0

>  <PUBCHEM_ISOTOPIC_ATOM_COUNT>  (1) 
0

>  <PUBCHEM_COMPONENT_COUNT>  (1) 
1

>  <PUBCHEM_CACTVS_TAUTO_COUNT>  (1) 
1

>  <PUBCHEM_CONFORMER_ID>  (1) 
0000856400000001

>  <PUBCHEM_MMFF94_ENERGY>  (1) 
69.9933

>  <PUBCHEM_FEATURE_SELFOVERLAP>  (1) 
25.373

>  <PUBCHEM_SHAPE_FINGERPRINT>  (1) 
10006869 2 17617938033580721009
10165383 225 17750228120181235511
10871710 139 18050291362607922041
10930396 42 17909224193122318298
1100329 8 18409736132086310913
11115154 58 17773573002739283765
11488393 25 17902241344274715258
11578080 2 14709219866399305684
11833330 49 18337392638985961776
12293681 160 18117260477083143303
12293681 4 18410010996664929367
12553582 1 18267327407267485286
12788726 201 18192987123963652234
13004483 165 18340196398068992206
13149001 5 18188197806105949239
13540713 4 17680701825244049995
13681431 1 18339924943082041784
138480 1 15166861434816608432
13955234 65 17834406995874470059
140371 6 18337962194688553902
14068700 686 18342743975849804094
14114211 80 16606348277393926545
14251757 5 18262800653365712893
14508225 48 18412539877988709236
14866123 147 17906737998972070938
14955137 171 17978508968989927744
15230672 131 16966614244788772172
15463212 79 17759804736982462416
15775530 1 17901105540331971891
15927050 60 16827004868168497588
1813 80 18058752280593019174
19591789 44 17401776220021717816
20600515 1 18117812526029915424
21120745 212 18268455502309240068
21285901 2 17916021261502382574
21304303 282 17758660175405516230
23557571 272 18339635638733267854
23558518 356 17978513035996805414
23559900 14 18193549189433580147
23929065 36 18052229840636573418
249057 25 17702403908765468091
255183 313 17838352786518699704
283562 15 18121495752628329161
3178227 256 18263660489609486409
3298306 158 17759810638452280060
4015057 19 18338226193575738551
46194498 28 18119243119644223255
5969126 39 18271235020527676270
59755656 520 17617663155388525108
613672 6 18411410726802380694
6669772 16 17405165396512689292
7226269 152 18335132038726407530
7399639 24 18200858644488312074
81228 2 18267869389127205784
9709674 26 18119525685690365667
9981440 41 17261564779846723889

>  <PUBCHEM_SHAPE_MULTIPOLES>  (1) 
515.44
8.98
6.75
1.41
5.07
10.9
-0.31
-10.51
-2.95
-0.49
0.96
-0.99
-0.34
1.13

>  <PUBCHEM_SHAPE_SELFOVERLAP>  (1) 
1089.763

>  <PUBCHEM_SHAPE_VOLUME>  (1) 
287.7

>  <PUBCHEM_COORDINATE_TYPE>  (1) 
2
5
10

$$$$
