34140
     RDKit          3D

 17 18  0  0  0  0  0  0  0  0999 V2000
   -1.9914    1.8191   -2.1965 Cl  0  0  0  0  0  0  0  0  0  0  0  0
    1.9892    1.8191    2.1967 Cl  0  0  0  0  0  0  0  0  0  0  0  0
   -4.9751   -1.7614    0.5033 Cl  0  0  0  0  0  0  0  0  0  0  0  0
    4.9732   -1.7613   -0.5031 Cl  0  0  0  0  0  0  0  0  0  0  0  0
   -0.0011    1.3217    0.0001 O   0  0  0  0  0  0  0  0  0  0  0  0
   -1.1631    0.6156    0.0975 C   0  0  0  0  0  0  0  0  0  0  0  0
    1.1786    0.6050   -0.0987 C   0  0  0  0  0  0  0  0  0  0  0  0
   -2.1739    0.7511   -0.8542 C   0  0  0  0  0  0  0  0  0  0  0  0
    2.1717    0.7511    0.8544 C   0  0  0  0  0  0  0  0  0  0  0  0
   -1.3316   -0.2542    1.1748 C   0  0  0  0  0  0  0  0  0  0  0  0
    1.3296   -0.2542   -1.1746 C   0  0  0  0  0  0  0  0  0  0  0  0
   -3.3529    0.0164   -0.7288 C   0  0  0  0  0  0  0  0  0  0  0  0
    3.3509    0.0165    0.7289 C   0  0  0  0  0  0  0  0  0  0  0  0
   -2.5107   -0.9888    1.3004 C   0  0  0  0  0  0  0  0  0  0  0  0
    2.5087   -0.9887   -1.3003 C   0  0  0  0  0  0  0  0  0  0  0  0
   -3.5212   -0.8535    0.3486 C   0  0  0  0  0  0  0  0  0  0  0  0
    3.5192   -0.8533   -0.3484 C   0  0  0  0  0  0  0  0  0  0  0  0
  1  8  1  0
  2  9  1  0
  3 16  1  0
  4 17  1  0
  5  6  1  0
  5  7  1  0
  6  8  2  0
  6 10  1  0
  7  9  2  0
  7 11  1  0
  8 12  1  0
  9 13  1  0
 10 14  2  0
 11 15  2  0
 12 16  2  0
 13 17  2  0
 14 16  1  0
 15 17  1  0
M  END
>  <PUBCHEM_COMPOUND_CID>  (1) 
34140

>  <PUBCHEM_CONFORMER_RMSD>  (1) 
0.6

>  <PUBCHEM_CONFORMER_DIVERSEORDER>  (1) 
1
4
7
5
3
2
8
6
9
10

>  <PUBCHEM_MMFF94_PARTIAL_CHARGES>  (1) 
23
1 -0.18
10 -0.15
11 -0.15
12 -0.15
13 -0.15
14 -0.15
15 -0.15
16 0.18
17 0.18
18 0.15
19 0.15
2 -0.18
20 0.15
21 0.15
22 0.15
23 0.15
3 -0.18
4 -0.18
5 -0.17
6 0.08
7 0.08
8 0.18
9 0.18

>  <PUBCHEM_EFFECTIVE_ROTOR_COUNT>  (1) 
2

>  <PUBCHEM_PHARMACOPHORE_FEATURES>  (1) 
3
1 5 acceptor
6 6 8 10 12 14 16 rings
6 7 9 11 13 15 17 rings

>  <PUBCHEM_HEAVY_ATOM_COUNT>  (1) 
17

>  <PUBCHEM_ATOM_DEF_STEREO_COUNT>  (1) 
0

>  <PUBCHEM_ATOM_UDEF_STEREO_COUNT>  (1) 
0

>  <PUBCHEM_BOND_DEF_STEREO_COUNT>  (1) 
0

>  <PUBCHEM_BOND_UDEF_STEREO_COUNT>  (1) 
0

>  <PUBCHEM_ISOTOPIC_ATOM_COUNT>  (1) 
0

>  <PUBCHEM_COMPONENT_COUNT>  (1) 
1

>  <PUBCHEM_CACTVS_TAUTO_COUNT>  (1) 
1

>  <PUBCHEM_CONFORMER_ID>  (1) 
0000855C00000001

>  <PUBCHEM_MMFF94_ENERGY>  (1) 
48.8932

>  <PUBCHEM_FEATURE_SELFOVERLAP>  (1) 
15.223

>  <PUBCHEM_SHAPE_FINGERPRINT>  (1) 
10465860 71 17313109652500711604
11543360 7 17676782993792253734
11582403 64 16465496129890421265
11796584 16 18044650889706872970
12202030 40 18410577283686366948
12236239 1 15697995262382905648
12251169 10 15841556262222630859
12403259 118 15913341186700308051
12633257 1 17561090232190930255
13296908 3 18411133636570145036
13965767 371 14401857867127728291
14341114 328 15913052070612949103
15209294 21 14189568607691470046
15375462 189 16343984710452866322
16752209 62 17240754091154489363
17870717 6 17968669202597933118
1813 80 16988296287474658524
19050596 39 15697997452816317507
19141452 34 18340491179371655799
19433438 48 15913035487569750006
19862831 5 15647059286651218634
200 152 17131821037183705029
20645476 183 15068623824787126899
20645477 70 17988626498124631156
20871999 31 17676212338134616836
21041028 32 17418099784712888088
21061003 4 18131354085330552885
2255824 54 17203044205328988912
23402539 116 17458061551977687655
23402655 69 13551187796801546663
23403322 49 18334861563108324242
23557571 272 17967807301403708037
23559900 14 18113611288084777620
23598291 2 15502922009790642336
23622692 88 15698006210191233093
26918003 58 17775851202999284923
3060560 45 13551191108806706346
3082319 5 15719392836643327426
31174 14 18059573641342841912
3286 77 18202290220594875051
4072396 5 15338854053674189203
458136 41 17771619328836400776
474 4 16700314554952488408
57096353 35 15719111361650837991
59755656 520 18046903776284532133
603831 33 15864067663400603436
6049 1 18410566288570634852
7097593 13 15338563734552519606
77492 1 15697708306959567840
8030462 33 15791730810467984649
81228 2 17894914018863332213
90316 7 15051735265944071707

>  <PUBCHEM_SHAPE_MULTIPOLES>  (1) 
351.46
8.71
1.83
1.79
0.02
0.11
0
-5.95
0
0
0
0
0.89
2.31

>  <PUBCHEM_SHAPE_SELFOVERLAP>  (1) 
722.451

>  <PUBCHEM_SHAPE_VOLUME>  (1) 
206.5

>  <PUBCHEM_COORDINATE_TYPE>  (1) 
2
5
10

$$$$
