34158
     RDKit          3D

 30 34  0  0  0  0  0  0  0  0999 V2000
   -5.8459   -0.1992    0.2842 N   0  0  0  0  0  0  0  0  0  0  0  0
   -2.5930    1.3118   -0.3993 N   0  0  0  0  0  0  0  0  0  0  0  0
    2.1896    0.0848   -0.7077 N   0  0  0  0  0  0  0  0  0  0  0  0
   -5.2256    0.9735    0.8829 C   0  0  0  0  0  0  0  0  0  0  0  0
   -3.9100    0.5887    1.5684 C   0  0  0  0  0  0  0  0  0  0  0  0
   -4.9513    2.0348   -0.1881 C   0  0  0  0  0  0  0  0  0  0  0  0
   -2.8115    0.2238    0.5641 C   0  0  0  0  0  0  0  0  0  0  0  0
   -3.8221    1.6270   -1.1406 C   0  0  0  0  0  0  0  0  0  0  0  0
   -6.1644   -1.2286    1.2734 C   0  0  0  0  0  0  0  0  0  0  0  0
   -7.1198    0.1124   -0.3632 C   0  0  0  0  0  0  0  0  0  0  0  0
   -7.1223   -2.1403    0.5207 C   0  0  0  0  0  0  0  0  0  0  0  0
   -7.7476   -1.2599   -0.5571 C   0  0  0  0  0  0  0  0  0  0  0  0
   -1.5112    0.9695   -1.3225 C   0  0  0  0  0  0  0  0  0  0  0  0
   -0.1949    0.6990   -0.5872 C   0  0  0  0  0  0  0  0  0  0  0  0
    4.8133   -0.5114    0.3977 C   0  0  0  0  0  0  0  0  0  0  0  0
    0.9899    0.3825   -1.4993 C   0  0  0  0  0  0  0  0  0  0  0  0
    4.2572    0.9223    0.2852 C   0  0  0  0  0  0  0  0  0  0  0  0
    3.7763   -1.6027    0.0646 C   0  0  0  0  0  0  0  0  0  0  0  0
    2.9685    1.1660   -0.2397 C   0  0  0  0  0  0  0  0  0  0  0  0
    2.5049   -1.2680   -0.4519 C   0  0  0  0  0  0  0  0  0  0  0  0
    5.9995   -0.6515   -0.5839 C   0  0  0  0  0  0  0  0  0  0  0  0
    5.3081   -0.7327    1.8537 C   0  0  0  0  0  0  0  0  0  0  0  0
    5.0503    2.0202    0.6922 C   0  0  0  0  0  0  0  0  0  0  0  0
    4.1011   -2.9658    0.2561 C   0  0  0  0  0  0  0  0  0  0  0  0
    2.5030    2.4996   -0.2605 C   0  0  0  0  0  0  0  0  0  0  0  0
    1.5858   -2.3161   -0.6806 C   0  0  0  0  0  0  0  0  0  0  0  0
    4.5750    3.3271    0.6349 C   0  0  0  0  0  0  0  0  0  0  0  0
    3.1839   -3.9798   -0.0041 C   0  0  0  0  0  0  0  0  0  0  0  0
    3.2939    3.5659    0.1692 C   0  0  0  0  0  0  0  0  0  0  0  0
    1.9193   -3.6531   -0.4614 C   0  0  0  0  0  0  0  0  0  0  0  0
  1  4  1  0
  1  9  1  0
  1 10  1  0
  2  7  1  0
  2  8  1  0
  2 13  1  0
  3 16  1  0
  3 19  1  0
  3 20  1  0
  4  5  1  0
  4  6  1  0
  5  7  1  0
  6  8  1  0
  9 11  1  0
 10 12  1  0
 11 12  1  0
 13 14  1  0
 14 16  1  0
 15 17  1  0
 15 18  1  0
 15 21  1  0
 15 22  1  0
 17 19  2  0
 17 23  1  0
 18 20  2  0
 18 24  1  0
 19 25  1  0
 20 26  1  0
 23 27  2  0
 24 28  2  0
 25 29  2  0
 26 30  2  0
 27 29  1  0
 28 30  1  0
M  END
>  <PUBCHEM_COMPOUND_CID>  (1) 
34158

>  <PUBCHEM_CONFORMER_RMSD>  (1) 
1

>  <PUBCHEM_CONFORMER_DIVERSEORDER>  (1) 
1
17
5
18
7
15
13
6
10
19
3
9
12
16
8
14
11
4
2

>  <PUBCHEM_MMFF94_PARTIAL_CHARGES>  (1) 
31
1 -0.81
10 0.27
13 0.27
15 0.29
16 0.37
17 -0.14
18 -0.14
19 0.1
2 -0.81
20 0.1
23 -0.15
24 -0.15
25 -0.15
26 -0.15
27 -0.15
28 -0.15
29 -0.15
3 -0.57
30 -0.15
4 0.27
60 0.15
61 0.15
62 0.15
63 0.15
64 0.15
65 0.15
66 0.15
67 0.15
7 0.27
8 0.27
9 0.27

>  <PUBCHEM_EFFECTIVE_ROTOR_COUNT>  (1) 
7.6

>  <PUBCHEM_PHARMACOPHORE_FEATURES>  (1) 
9
1 1 cation
1 2 cation
1 3 cation
3 15 21 22 hydrophobe
5 1 9 10 11 12 rings
6 17 19 23 25 27 29 rings
6 18 20 24 26 28 30 rings
6 2 4 5 6 7 8 rings
6 3 15 17 18 19 20 rings

>  <PUBCHEM_HEAVY_ATOM_COUNT>  (1) 
30

>  <PUBCHEM_ATOM_DEF_STEREO_COUNT>  (1) 
0

>  <PUBCHEM_ATOM_UDEF_STEREO_COUNT>  (1) 
0

>  <PUBCHEM_BOND_DEF_STEREO_COUNT>  (1) 
0

>  <PUBCHEM_BOND_UDEF_STEREO_COUNT>  (1) 
0

>  <PUBCHEM_ISOTOPIC_ATOM_COUNT>  (1) 
0

>  <PUBCHEM_COMPONENT_COUNT>  (1) 
1

>  <PUBCHEM_CACTVS_TAUTO_COUNT>  (1) 
1

>  <PUBCHEM_CONFORMER_ID>  (1) 
0000856E00000001

>  <PUBCHEM_MMFF94_ENERGY>  (1) 
90.2357

>  <PUBCHEM_FEATURE_SELFOVERLAP>  (1) 
45.713

>  <PUBCHEM_SHAPE_FINGERPRINT>  (1) 
10316853 100 18335143094262546578
10835480 77 18409724042180699117
10939801 23 18057041526800517895
11135609 201 17986382506983996592
11475781 23 16951107510162382165
11828532 37 16950574336726834513
11963148 33 18260823753161642282
12107183 9 17838346177091655625
12373685 5 18060133208059292517
12596602 18 17846221021071598091
13140716 1 18267001999972065634
13533116 47 18409735049585194869
1361 2 18410293656936296632
13692114 37 18337387261708662306
13782708 43 18113616755504000051
14211702 104 17895205445564014027
14565420 104 18199746015424519096
15183329 4 13406788931274431815
15361156 5 17823717286479093621
15510800 12 17604446184168069363
16990366 60 18121782721307211126
17844677 252 18341336587374505901
17857418 61 18334580123097766655
19319366 153 18130783507662764140
19377110 9 17775845722900343301
21197605 99 18337675320717185347
21623969 137 18410011026608101733
21859007 373 17531795841519586237
23559900 14 17895763898180300117
23572383 38 18041288763584980419
23845131 108 18194680599798878674
312425 54 18339371747605959353
3178227 256 18410572869541415008
3383291 50 17313394487139069395
354706 109 18261938701254502811
3663271 9 18273220781508813201
4073 2 18260555532737940857
4144715 1 18194406580733114405
50009960 94 17678436594292288026
508706 21 17241058604494200379
5104073 3 18341623568942168281
513532 50 18040712554782309632
6441014 3 17544471951403828859

>  <PUBCHEM_SHAPE_MULTIPOLES>  (1) 
602.44
19.68
4.15
1.23
35.17
1.48
0.18
3.29
4.22
-6.03
0.03
0.28
-0.07
1.04

>  <PUBCHEM_SHAPE_SELFOVERLAP>  (1) 
1290.1

>  <PUBCHEM_SHAPE_VOLUME>  (1) 
328.6

>  <PUBCHEM_COORDINATE_TYPE>  (1) 
2
5
10

$$$$
