34172
     RDKit          3D

 30 33  0  0  1  0  0  0  0  0999 V2000
    4.0816    0.1782   -1.8447 O   0  0  0  0  0  0  0  0  0  0  0  0
    3.1934    1.9321   -0.5723 O   0  0  0  0  0  0  0  0  0  0  0  0
   -1.7731    3.4839    0.3014 O   0  0  0  0  0  0  0  0  0  0  0  0
   -0.7582   -1.3842   -1.0067 N   0  0  0  0  0  0  0  0  0  0  0  0
   -2.9478   -1.2797   -0.1771 C   0  0  0  0  0  0  0  0  0  0  0  0
   -2.1354   -1.2720   -1.4899 C   0  0  0  0  0  0  0  0  0  0  0  0
   -2.2050   -2.3986    0.5935 C   0  0  0  0  0  0  0  0  0  0  0  0
   -0.7785   -2.4133    0.0338 C   0  0  0  0  0  0  0  0  0  0  0  0
   -4.4041   -1.6718   -0.4845 C   0  0  0  0  0  0  0  0  0  0  0  0
   -2.9450    0.0333    0.6275 C   0  0  0  0  0  0  0  0  0  0  0  0
    0.1918   -1.6731   -2.0690 C   0  0  0  0  0  0  0  0  0  0  0  0
   -5.0902   -0.6080   -1.3312 C   0  0  0  0  0  0  0  0  0  0  0  0
    1.6106   -1.3258   -1.6209 C   0  0  0  0  0  0  0  0  0  0  0  0
    1.7358    0.1607   -1.2850 C   0  0  0  0  0  0  0  0  0  0  0  0
   -2.3546    1.1784    0.0924 C   0  0  0  0  0  0  0  0  0  0  0  0
   -3.5309    0.0769    1.8925 C   0  0  0  0  0  0  0  0  0  0  0  0
    3.1432    0.5093   -0.8018 C   0  0  0  0  0  0  0  0  0  0  0  0
   -6.5360   -0.9835   -1.6137 C   0  0  0  0  0  0  0  0  0  0  0  0
   -2.3499    2.3669    0.8227 C   0  0  0  0  0  0  0  0  0  0  0  0
   -3.5263    1.2652    2.6227 C   0  0  0  0  0  0  0  0  0  0  0  0
    3.4708   -0.2566    0.4716 C   0  0  0  0  0  0  0  0  0  0  0  0
   -2.9358    2.4103    2.0878 C   0  0  0  0  0  0  0  0  0  0  0  0
    4.4994    1.4289   -2.3888 C   0  0  0  0  0  0  0  0  0  0  0  0
    4.3831    2.3705   -1.2253 C   0  0  0  0  0  0  0  0  0  0  0  0
    2.6852   -0.0836    1.6113 C   0  0  0  0  0  0  0  0  0  0  0  0
    4.5564   -1.1323    0.4993 C   0  0  0  0  0  0  0  0  0  0  0  0
    2.9853   -0.7858    2.7785 C   0  0  0  0  0  0  0  0  0  0  0  0
    4.8563   -1.8345    1.6666 C   0  0  0  0  0  0  0  0  0  0  0  0
   -1.1926    3.3695   -0.9970 C   0  0  0  0  0  0  0  0  0  0  0  0
    4.0706   -1.6613    2.8062 C   0  0  0  0  0  0  0  0  0  0  0  0
  1 17  1  0
  1 23  1  0
  2 17  1  0
  2 24  1  0
  3 19  1  0
  3 29  1  0
  4  6  1  0
  4  8  1  0
  4 11  1  0
  5  6  1  0
  5  7  1  0
  5  9  1  0
  5 10  1  0
  7  8  1  0
  9 12  1  0
 10 15  2  0
 10 16  1  0
 11 13  1  0
 12 18  1  0
 13 14  1  0
 14 17  1  0
 15 19  1  0
 16 20  2  0
 17 21  1  0
 19 22  2  0
 20 22  1  0
 21 25  2  0
 21 26  1  0
 23 24  1  0
 25 27  1  0
 26 28  2  0
 27 30  2  0
 28 30  1  0
M  END
>  <PUBCHEM_COMPOUND_CID>  (1) 
34172

>  <PUBCHEM_CONFORMER_RMSD>  (1) 
1.4

>  <PUBCHEM_CONFORMER_DIVERSEORDER>  (1) 
2
111
89
81
23
10
4
62
91
24
42
20
74
19
59
96
90
104
64
76
98
32
106
33
37
58
97
87
26
52
99
29
107
8
28
94
103
95
3
40
102
36
83
15
88
75
77
14
67
72
110
69
108
93
79
101
86
100
92
9
85
38
46
53
41
25
71
35
13
45
65
49
57
80
109
54
43
61
18
51
84
34
22
78
48
50
60
21
68
27
63
66
105
56
44
17
55
5
39
82
47
70
30
31
7
6
1
11
12
16
73

>  <PUBCHEM_MMFF94_PARTIAL_CHARGES>  (1) 
33
1 -0.56
10 -0.14
11 0.27
15 -0.15
16 -0.15
17 0.7
19 0.08
2 -0.56
20 -0.15
21 -0.14
22 -0.15
23 0.28
24 0.28
25 -0.15
26 -0.15
27 -0.15
28 -0.15
29 0.28
3 -0.36
30 -0.15
4 -0.81
47 0.15
48 0.15
5 0.14
52 0.15
53 0.15
58 0.15
59 0.15
6 0.27
60 0.15
61 0.15
65 0.15
8 0.27

>  <PUBCHEM_EFFECTIVE_ROTOR_COUNT>  (1) 
11

>  <PUBCHEM_PHARMACOPHORE_FEATURES>  (1) 
9
1 1 acceptor
1 18 hydrophobe
1 2 acceptor
1 3 acceptor
1 4 cation
5 1 2 17 23 24 rings
5 4 5 6 7 8 rings
6 10 15 16 19 20 22 rings
6 21 25 26 27 28 30 rings

>  <PUBCHEM_HEAVY_ATOM_COUNT>  (1) 
30

>  <PUBCHEM_ATOM_DEF_STEREO_COUNT>  (1) 
0

>  <PUBCHEM_ATOM_UDEF_STEREO_COUNT>  (1) 
1

>  <PUBCHEM_BOND_DEF_STEREO_COUNT>  (1) 
0

>  <PUBCHEM_BOND_UDEF_STEREO_COUNT>  (1) 
0

>  <PUBCHEM_ISOTOPIC_ATOM_COUNT>  (1) 
0

>  <PUBCHEM_COMPONENT_COUNT>  (1) 
1

>  <PUBCHEM_CACTVS_TAUTO_COUNT>  (1) 
1

>  <PUBCHEM_CONFORMER_ID>  (1) 
0000857C00000002

>  <PUBCHEM_MMFF94_ENERGY>  (1) 
93.3865

>  <PUBCHEM_FEATURE_SELFOVERLAP>  (1) 
45.714

>  <PUBCHEM_SHAPE_FINGERPRINT>  (1) 
10165383 225 17415592872283879689
10366900 7 17988934408720091583
10369192 42 14762634218512495130
10670039 82 18059872674467638244
11595378 159 18411700997655303280
12166972 35 18040708195522665023
12596602 18 18042411394372902658
12633257 1 18340778026529417136
12788726 201 18411984684672312721
13533116 47 17385995174483998623
13583140 156 17385734628851013133
13726171 33 18057068928476017616
14279260 333 15622603790930113460
14347329 18 17845957172688012644
14910302 57 16415480484266687983
14950920 106 17603882069428853642
15484559 13 14885907343076597230
17349148 13 18411975880031612935
17809404 112 16081092605559241581
17921350 177 17753901506482495196
19315092 285 17459731800113553506
20764821 26 18195819461468978629
21033648 29 16845576409312922634
3493558 16 17179073512003391415
3633792 109 17822558461078724607
404807 14 16666805516931864635
469060 322 18342737399805993801
5081480 168 13686035223564499504
508706 21 17418376891375412267
5252454 2 17630348353881430537
5895379 119 18272098149987602144

>  <PUBCHEM_SHAPE_MULTIPOLES>  (1) 
594.8
11.93
3.31
2.87
0.57
2.43
-1.16
-1.78
0.65
0.92
-0.03
-1.49
-0.06
-4.25

>  <PUBCHEM_SHAPE_SELFOVERLAP>  (1) 
1261.486

>  <PUBCHEM_SHAPE_VOLUME>  (1) 
333.9

>  <PUBCHEM_COORDINATE_TYPE>  (1) 
2
5
10

$$$$
