34170
     RDKit          3D

 11 11  0  0  0  0  0  0  0  0999 V2000
    1.9556   -1.3154   -1.1880 O   0  0  0  0  0  0  0  0  0  0  0  0
    2.2591   -0.8330    1.0124 O   0  0  0  0  0  0  0  0  0  0  0  0
   -0.3126    0.7582   -0.2750 C   0  0  0  0  0  0  0  0  0  0  0  0
    0.6763    1.8341   -0.5848 C   0  0  0  0  0  0  0  0  0  0  0  0
    0.1033   -0.5409    0.0166 C   0  0  0  0  0  0  0  0  0  0  0  0
   -1.6720    1.0705   -0.2805 C   0  0  0  0  0  0  0  0  0  0  0  0
    1.1294    2.5807    0.6661 C   0  0  0  0  0  0  0  0  0  0  0  0
   -0.8402   -1.5277    0.3024 C   0  0  0  0  0  0  0  0  0  0  0  0
   -2.6155    0.0837    0.0053 C   0  0  0  0  0  0  0  0  0  0  0  0
   -2.1996   -1.2155    0.2967 C   0  0  0  0  0  0  0  0  0  0  0  0
    1.5162   -0.8947    0.0288 C   0  0  0  0  0  0  0  0  0  0  0  0
  1 11  1  0
  2 11  2  0
  3  4  1  0
  3  5  2  0
  3  6  1  0
  4  7  1  0
  5  8  1  0
  5 11  1  0
  6  9  2  0
  8 10  2  0
  9 10  1  0
M  END
>  <PUBCHEM_COMPOUND_CID>  (1) 
34170

>  <PUBCHEM_CONFORMER_RMSD>  (1) 
0.4

>  <PUBCHEM_CONFORMER_DIVERSEORDER>  (1) 
1
4
8
2
3
7
9
5
6

>  <PUBCHEM_MMFF94_PARTIAL_CHARGES>  (1) 
15
1 -0.65
10 -0.15
11 0.63
14 0.15
18 0.15
19 0.15
2 -0.57
20 0.15
21 0.5
3 -0.14
4 0.14
5 0.09
6 -0.15
8 -0.15
9 -0.15

>  <PUBCHEM_EFFECTIVE_ROTOR_COUNT>  (1) 
2

>  <PUBCHEM_PHARMACOPHORE_FEATURES>  (1) 
5
1 1 acceptor
1 2 acceptor
1 7 hydrophobe
3 1 2 11 anion
6 3 5 6 8 9 10 rings

>  <PUBCHEM_HEAVY_ATOM_COUNT>  (1) 
11

>  <PUBCHEM_ATOM_DEF_STEREO_COUNT>  (1) 
0

>  <PUBCHEM_ATOM_UDEF_STEREO_COUNT>  (1) 
0

>  <PUBCHEM_BOND_DEF_STEREO_COUNT>  (1) 
0

>  <PUBCHEM_BOND_UDEF_STEREO_COUNT>  (1) 
0

>  <PUBCHEM_ISOTOPIC_ATOM_COUNT>  (1) 
0

>  <PUBCHEM_COMPONENT_COUNT>  (1) 
1

>  <PUBCHEM_CACTVS_TAUTO_COUNT>  (1) 
1

>  <PUBCHEM_CONFORMER_ID>  (1) 
0000857A00000001

>  <PUBCHEM_MMFF94_ENERGY>  (1) 
31.089

>  <PUBCHEM_FEATURE_SELFOVERLAP>  (1) 
25.429

>  <PUBCHEM_SHAPE_FINGERPRINT>  (1) 
12423570 1 16736921390070760559
12524768 44 18337959007733331087
161256 15 18191881212892341447
16945 1 18337392647691888743
21040471 1 17398952674092984718
23552423 10 17970072347033145007
241688 4 18052827939842754523
2748010 2 18261957478645681735
7364860 26 18199758105297994853

>  <PUBCHEM_SHAPE_MULTIPOLES>  (1) 
214.64
3.07
2.34
0.87
1.02
0.78
0.04
-0.32
-0.3
-1.24
-0.09
-0.37
-0.08
0.35

>  <PUBCHEM_SHAPE_SELFOVERLAP>  (1) 
445.333

>  <PUBCHEM_SHAPE_VOLUME>  (1) 
122.9

>  <PUBCHEM_COORDINATE_TYPE>  (1) 
2
5
10

$$$$
