34174
     RDKit          3D

 17 18  0  0  0  0  0  0  0  0999 V2000
    5.4404   -0.2255    0.3254 N   0  0  0  0  0  0  0  0  0  0  0  0
   -0.0882   -0.0515   -0.5404 N   0  0  0  0  0  0  0  0  0  0  0  0
   -0.6937   -0.0484    0.5572 N   0  0  0  0  0  0  0  0  0  0  0  0
    4.0476   -0.1815    0.1074 C   0  0  0  0  0  0  0  0  0  0  0  0
   -4.8300    0.0821   -0.0881 C   0  0  0  0  0  0  0  0  0  0  0  0
    1.2995   -0.0949   -0.3229 C   0  0  0  0  0  0  0  0  0  0  0  0
   -2.0749   -0.0049    0.3413 C   0  0  0  0  0  0  0  0  0  0  0  0
    3.3234   -1.3671   -0.0167 C   0  0  0  0  0  0  0  0  0  0  0  0
    3.3944    1.0475    0.0156 C   0  0  0  0  0  0  0  0  0  0  0  0
    1.9460   -1.3237   -0.2324 C   0  0  0  0  0  0  0  0  0  0  0  0
    2.0170    1.0909   -0.2001 C   0  0  0  0  0  0  0  0  0  0  0  0
   -4.1768   -1.1469    0.0028 C   0  0  0  0  0  0  0  0  0  0  0  0
   -4.1056    1.2677    0.0357 C   0  0  0  0  0  0  0  0  0  0  0  0
   -2.7993   -1.1906    0.2174 C   0  0  0  0  0  0  0  0  0  0  0  0
   -2.7281    1.2241    0.2504 C   0  0  0  0  0  0  0  0  0  0  0  0
   -6.3029    0.1286   -0.3174 C   0  0  0  0  0  0  0  0  0  0  0  0
    6.3313    0.7941   -0.1352 C   0  0  0  0  0  0  0  0  0  0  0  0
  1  4  1  0
  1 17  1  0
  2  3  2  0
  2  6  1  0
  3  7  1  0
  4  8  2  0
  4  9  1  0
  5 12  2  0
  5 13  1  0
  5 16  1  0
  6 10  2  0
  6 11  1  0
  7 14  2  0
  7 15  1  0
  8 10  1  0
  9 11  2  0
 12 14  1  0
 13 15  2  0
M  END
>  <PUBCHEM_COMPOUND_CID>  (1) 
34174

>  <PUBCHEM_CONFORMER_RMSD>  (1) 
0.6

>  <PUBCHEM_CONFORMER_DIVERSEORDER>  (1) 
1
3
2

>  <PUBCHEM_MMFF94_PARTIAL_CHARGES>  (1) 
26
1 -0.87
10 -0.15
11 -0.15
12 -0.15
13 -0.15
14 -0.15
15 -0.15
16 0.14
17 0.37
18 0.15
19 0.15
2 -0.18
20 0.15
21 0.15
22 0.15
23 0.15
24 0.15
25 0.15
26 0.4
3 -0.18
4 0.1
5 -0.14
6 0.18
7 0.18
8 -0.15
9 -0.15

>  <PUBCHEM_EFFECTIVE_ROTOR_COUNT>  (1) 
3

>  <PUBCHEM_PHARMACOPHORE_FEATURES>  (1) 
4
1 1 cation
1 1 donor
6 4 6 8 9 10 11 rings
6 5 7 12 13 14 15 rings

>  <PUBCHEM_HEAVY_ATOM_COUNT>  (1) 
17

>  <PUBCHEM_ATOM_DEF_STEREO_COUNT>  (1) 
0

>  <PUBCHEM_ATOM_UDEF_STEREO_COUNT>  (1) 
0

>  <PUBCHEM_BOND_DEF_STEREO_COUNT>  (1) 
0

>  <PUBCHEM_BOND_UDEF_STEREO_COUNT>  (1) 
0

>  <PUBCHEM_ISOTOPIC_ATOM_COUNT>  (1) 
0

>  <PUBCHEM_COMPONENT_COUNT>  (1) 
1

>  <PUBCHEM_CACTVS_TAUTO_COUNT>  (1) 
2

>  <PUBCHEM_CONFORMER_ID>  (1) 
0000857E00000001

>  <PUBCHEM_MMFF94_ENERGY>  (1) 
56.8759

>  <PUBCHEM_FEATURE_SELFOVERLAP>  (1) 
20.297

>  <PUBCHEM_SHAPE_FINGERPRINT>  (1) 
10366900 7 16343983602393833347
10968037 39 18413107273538912063
11315181 36 18412267258981316353
11401426 45 18113900459294573475
12107183 9 17689716355136800352
12236239 1 17989487411682008574
12507557 5 18342740736267952904
12815109 37 18260829297557303887
13073987 5 18262520286780663019
13167823 11 18410854356590994835
13533116 47 18272366417222972450
14123238 8 18412262826442892505
1420 363 12535628292821839029
14251718 22 18410855468718102898
17834072 33 18411138060771471444
17834076 25 18410292514469714287
19489759 90 18411698785931840001
200 152 18059855056506222377
20279233 1 18334304157883595323
20645477 56 18334575737819937397
20645477 70 18200033932509249878
21065198 48 18270965635261320562
21267235 1 18411990160444151399
21709351 56 18409443721684586348
22224240 67 18408878569209468426
23035841 295 12895352192156015237
23402539 116 18410568509669600727
23402655 69 18413671296622286086
23557571 272 18130793321668790881
23559900 14 18339919415475079649
26918003 58 18335421283319815427
300161 21 18261106370187319835
34797466 226 17703517666008057740
351380 180 18410573989657512505
3545911 37 18411419514088677225
4073 2 17968101962251667314
4214541 1 18410293588639027057
42788 4 18410573985167294888
5104073 3 18339082588115079195
542803 24 18410576184174745672
59755656 215 18343026566974485134
59755656 520 16732979847613755315
67856867 119 18262801903017118932
69090 78 18410292506412867431
77779 3 18411139125801982987
9709674 26 18411990152213608135
9971528 1 17895198770846855422

>  <PUBCHEM_SHAPE_MULTIPOLES>  (1) 
334.91
14.63
1.37
0.67
1.57
0.08
0
-1.66
0.39
0.01
0
-0.05
0
-0.04

>  <PUBCHEM_SHAPE_SELFOVERLAP>  (1) 
712.002

>  <PUBCHEM_SHAPE_VOLUME>  (1) 
187.4

>  <PUBCHEM_COORDINATE_TYPE>  (1) 
2
5
10

$$$$
