34188
     RDKit          3D

 17 17  0  0  0  0  0  0  0  0999 V2000
   -0.5583    2.1074   -0.9212 O   0  0  0  0  0  0  0  0  0  0  0  0
   -0.3915   -2.0638    0.8875 O   0  0  0  0  0  0  0  0  0  0  0  0
    3.4247    0.5819    0.9163 O   0  0  0  0  0  0  0  0  0  0  0  0
    1.4997    1.3509   -0.1349 N   0  0  0  0  0  0  0  0  0  0  0  0
    1.5880   -0.8386    0.8119 N   0  0  0  0  0  0  0  0  0  0  0  0
   -0.2407   -0.2737   -0.7199 C   0  0  0  0  0  0  0  0  0  0  0  0
   -1.7755   -0.3614   -0.7806 C   0  0  0  0  0  0  0  0  0  0  0  0
    0.3374   -0.8211   -2.0380 C   0  0  0  0  0  0  0  0  0  0  0  0
    0.1849    1.1818   -0.5926 C   0  0  0  0  0  0  0  0  0  0  0  0
    0.2781   -1.1444    0.4149 C   0  0  0  0  0  0  0  0  0  0  0  0
   -2.4032    0.2556    0.4611 C   0  0  0  0  0  0  0  0  0  0  0  0
   -3.9284    0.1928    0.3835 C   0  0  0  0  0  0  0  0  0  0  0  0
   -0.0727   -2.2606   -2.2512 C   0  0  0  0  0  0  0  0  0  0  0  0
    2.2658    0.3728    0.5411 C   0  0  0  0  0  0  0  0  0  0  0  0
    2.0941    2.6781   -0.2559 C   0  0  0  0  0  0  0  0  0  0  0  0
    2.2726   -1.7928    1.6778 C   0  0  0  0  0  0  0  0  0  0  0  0
   -4.5751    0.8350    1.6003 C   0  0  0  0  0  0  0  0  0  0  0  0
  1  9  2  0
  2 10  2  0
  3 14  2  0
  4  9  1  0
  4 14  1  0
  4 15  1  0
  5 10  1  0
  5 14  1  0
  5 16  1  0
  6  7  1  0
  6  8  1  0
  6  9  1  0
  6 10  1  0
  7 11  1  0
  8 13  1  0
 11 12  1  0
 12 17  1  0
M  END
>  <PUBCHEM_COMPOUND_CID>  (1) 
34188

>  <PUBCHEM_CONFORMER_RMSD>  (1) 
0.6

>  <PUBCHEM_CONFORMER_DIVERSEORDER>  (1) 
1
8
9
10
11
2
7
3
5
6
4

>  <PUBCHEM_MMFF94_PARTIAL_CHARGES>  (1) 
11
1 -0.57
10 0.57
14 0.69
15 0.3
16 0.3
2 -0.57
3 -0.57
4 -0.42
5 -0.42
6 0.12
9 0.57

>  <PUBCHEM_EFFECTIVE_ROTOR_COUNT>  (1) 
4.6

>  <PUBCHEM_PHARMACOPHORE_FEATURES>  (1) 
6
1 1 acceptor
1 13 hydrophobe
1 17 hydrophobe
1 2 acceptor
1 3 acceptor
6 4 5 6 9 10 14 rings

>  <PUBCHEM_HEAVY_ATOM_COUNT>  (1) 
17

>  <PUBCHEM_ATOM_DEF_STEREO_COUNT>  (1) 
0

>  <PUBCHEM_ATOM_UDEF_STEREO_COUNT>  (1) 
0

>  <PUBCHEM_BOND_DEF_STEREO_COUNT>  (1) 
0

>  <PUBCHEM_BOND_UDEF_STEREO_COUNT>  (1) 
0

>  <PUBCHEM_ISOTOPIC_ATOM_COUNT>  (1) 
0

>  <PUBCHEM_COMPONENT_COUNT>  (1) 
1

>  <PUBCHEM_CACTVS_TAUTO_COUNT>  (1) 
1

>  <PUBCHEM_CONFORMER_ID>  (1) 
0000858C00000001

>  <PUBCHEM_MMFF94_ENERGY>  (1) 
36.0938

>  <PUBCHEM_FEATURE_SELFOVERLAP>  (1) 
30.446

>  <PUBCHEM_SHAPE_FINGERPRINT>  (1) 
11471102 22 18040156206056640713
12138202 97 14620225429042592116
12251169 10 18408039615508515321
12423570 1 11307339599789924430
12491281 212 17986954256913495573
12788726 201 17554039236005052055
13140716 1 17970902491424124832
14617773 55 17765131149148240190
14817 1 12640820039177613094
15501101 241 17458341918578593947
15906896 17 17842831389542038543
16945 1 18260817211725015860
17357990 137 18131347531273710777
20723712 36 18060136505381060656
21524375 3 18124605438026823845
22112679 90 17983832734933410102
2334 1 17538272231015310712
23419403 2 16264886690143809166
2748010 2 17901918904285095500
298252 57 17843980349048736596
9999458 23 17822021950906846132

>  <PUBCHEM_SHAPE_MULTIPOLES>  (1) 
322.28
5.22
2.41
1.81
6.14
0.19
0.24
2.37
-3.47
-1.3
0.77
-0.26
-1.04
-0.87

>  <PUBCHEM_SHAPE_SELFOVERLAP>  (1) 
651.849

>  <PUBCHEM_SHAPE_VOLUME>  (1) 
187.9

>  <PUBCHEM_COORDINATE_TYPE>  (1) 
2
5
10

$$$$
