34189
     RDKit          3D

 18 18  0  0  1  0  0  0  0  0999 V2000
   -0.4461    0.9222   -2.1950 O   0  0  0  0  0  0  0  0  0  0  0  0
    1.3003   -2.4468    0.3146 O   0  0  0  0  0  0  0  0  0  0  0  0
    2.7355    1.9100    1.0400 O   0  0  0  0  0  0  0  0  0  0  0  0
    1.0443    1.4978   -0.5002 N   0  0  0  0  0  0  0  0  0  0  0  0
    1.9624   -0.2702    0.8148 N   0  0  0  0  0  0  0  0  0  0  0  0
   -0.1392   -0.6463   -0.3904 C   0  0  0  0  0  0  0  0  0  0  0  0
   -1.1487   -0.3360    0.7303 C   0  0  0  0  0  0  0  0  0  0  0  0
   -0.7632   -1.6800   -1.3438 C   0  0  0  0  0  0  0  0  0  0  0  0
   -2.4768    0.2071    0.1807 C   0  0  0  0  0  0  0  0  0  0  0  0
    0.1340    0.6470   -1.1440 C   0  0  0  0  0  0  0  0  0  0  0  0
    1.1087   -1.2315    0.2546 C   0  0  0  0  0  0  0  0  0  0  0  0
   -1.3988   -1.5998    1.5516 C   0  0  0  0  0  0  0  0  0  0  0  0
   -3.4793    0.5936    1.2709 C   0  0  0  0  0  0  0  0  0  0  0  0
    0.1798   -2.0053   -2.4800 C   0  0  0  0  0  0  0  0  0  0  0  0
    1.9584    1.1103    0.5071 C   0  0  0  0  0  0  0  0  0  0  0  0
   -4.7418    1.1973    0.6740 C   0  0  0  0  0  0  0  0  0  0  0  0
    1.1477    2.8698   -0.9859 C   0  0  0  0  0  0  0  0  0  0  0  0
    3.0228   -0.7394    1.7006 C   0  0  0  0  0  0  0  0  0  0  0  0
  1 10  2  0
  2 11  2  0
  3 15  2  0
  4 10  1  0
  4 15  1  0
  4 17  1  0
  5 11  1  0
  5 15  1  0
  5 18  1  0
  6  7  1  0
  6  8  1  0
  6 10  1  0
  6 11  1  0
  7  9  1  0
  7 12  1  0
  8 14  1  0
  9 13  1  0
 13 16  1  0
M  END
>  <PUBCHEM_COMPOUND_CID>  (1) 
34189

>  <PUBCHEM_CONFORMER_RMSD>  (1) 
0.6

>  <PUBCHEM_CONFORMER_DIVERSEORDER>  (1) 
2
10
7
6
12
9
13
8
11
1
4
14
5
3

>  <PUBCHEM_MMFF94_PARTIAL_CHARGES>  (1) 
11
1 -0.57
10 0.57
11 0.57
15 0.69
17 0.3
18 0.3
2 -0.57
3 -0.57
4 -0.42
5 -0.42
6 0.12

>  <PUBCHEM_EFFECTIVE_ROTOR_COUNT>  (1) 
4.6

>  <PUBCHEM_PHARMACOPHORE_FEATURES>  (1) 
7
1 1 acceptor
1 12 hydrophobe
1 14 hydrophobe
1 16 hydrophobe
1 2 acceptor
1 3 acceptor
6 4 5 6 10 11 15 rings

>  <PUBCHEM_HEAVY_ATOM_COUNT>  (1) 
18

>  <PUBCHEM_ATOM_DEF_STEREO_COUNT>  (1) 
0

>  <PUBCHEM_ATOM_UDEF_STEREO_COUNT>  (1) 
1

>  <PUBCHEM_BOND_DEF_STEREO_COUNT>  (1) 
0

>  <PUBCHEM_BOND_UDEF_STEREO_COUNT>  (1) 
0

>  <PUBCHEM_ISOTOPIC_ATOM_COUNT>  (1) 
0

>  <PUBCHEM_COMPONENT_COUNT>  (1) 
1

>  <PUBCHEM_CACTVS_TAUTO_COUNT>  (1) 
1

>  <PUBCHEM_CONFORMER_ID>  (1) 
0000858D00000002

>  <PUBCHEM_MMFF94_ENERGY>  (1) 
45.5192

>  <PUBCHEM_FEATURE_SELFOVERLAP>  (1) 
35.522

>  <PUBCHEM_SHAPE_FINGERPRINT>  (1) 
11086676 242 16877661257738010073
11640471 11 18200025299661622161
11961588 58 14187564249275004370
12011746 2 18262243209402115692
12138202 97 15625661750992709716
12251169 10 17968376852726820033
12423570 1 10110432678090951646
12633257 1 17530954838897660816
12725867 57 18046929094520012551
12778500 126 8213292044664495949
13134695 92 18191028906829161725
13380537 58 17416128505965554621
14142880 1 17910928534180284888
14617773 55 17769345538652697950
14817 1 9793145967518085286
15775835 57 18059857319680031969
15881359 60 18046029788286723768
15906896 17 17911240838284708903
16945 1 18337102380621704595
18981168 100 17342141149262988459
20511035 2 18339931522718634339
21524375 3 18126299759580282253
21731516 1 11531036451989927553
23419403 2 17623006789951510846
2748010 2 17899939903772575052
68419 9 17840300348155202750
7364860 26 17701837500513286623

>  <PUBCHEM_SHAPE_MULTIPOLES>  (1) 
342.86
4.82
2.57
2.01
5.71
0.4
0.82
2.4
-3.19
-1.23
0.87
-0.41
-0.65
-0.29

>  <PUBCHEM_SHAPE_SELFOVERLAP>  (1) 
695.906

>  <PUBCHEM_SHAPE_VOLUME>  (1) 
199.5

>  <PUBCHEM_COORDINATE_TYPE>  (1) 
2
5
10

$$$$
