34193
     RDKit          3D

 11 12  0  0  1  0  0  0  0  0999 V2000
    0.0025    0.5054   -0.2118 C   0  0  0  0  0  0  0  0  0  0  0  0
    0.3549   -0.9312    0.2440 C   0  0  0  0  0  0  0  0  0  0  0  0
   -1.4112    0.9003    0.2889 C   0  0  0  0  0  0  0  0  0  0  0  0
    1.0920    1.4883    0.2546 C   0  0  0  0  0  0  0  0  0  0  0  0
   -0.7004   -1.9370   -0.2307 C   0  0  0  0  0  0  0  0  0  0  0  0
    1.7485   -1.3448   -0.2475 C   0  0  0  0  0  0  0  0  0  0  0  0
   -2.4560   -0.1303   -0.1734 C   0  0  0  0  0  0  0  0  0  0  0  0
   -2.0923   -1.5481    0.2520 C   0  0  0  0  0  0  0  0  0  0  0  0
    2.4837    1.0636   -0.2109 C   0  0  0  0  0  0  0  0  0  0  0  0
    2.8169   -0.3602    0.2156 C   0  0  0  0  0  0  0  0  0  0  0  0
   -1.8385    2.2940   -0.1808 C   0  0  0  0  0  0  0  0  0  0  0  0
  1  2  1  0
  1  3  1  0
  1  4  1  0
  2  5  1  0
  2  6  1  0
  3  7  1  0
  3 11  1  0
  4  9  1  0
  5  8  1  0
  6 10  1  0
  7  8  1  0
  9 10  1  0
M  END
>  <PUBCHEM_COMPOUND_CID>  (1) 
34193

>  <PUBCHEM_CONFORMER_RMSD>  (1) 
0.4

>  <PUBCHEM_CONFORMER_DIVERSEORDER>  (1) 
1
2
9
12
10
8
6
11
4
7
5
3

>  <PUBCHEM_MMFF94_PARTIAL_CHARGES>  (1) 
0

>  <PUBCHEM_EFFECTIVE_ROTOR_COUNT>  (1) 
1.6

>  <PUBCHEM_PHARMACOPHORE_FEATURES>  (1) 
2
6 1 2 3 5 7 8 rings
6 1 2 4 6 9 10 rings

>  <PUBCHEM_HEAVY_ATOM_COUNT>  (1) 
11

>  <PUBCHEM_ATOM_DEF_STEREO_COUNT>  (1) 
0

>  <PUBCHEM_ATOM_UDEF_STEREO_COUNT>  (1) 
3

>  <PUBCHEM_BOND_DEF_STEREO_COUNT>  (1) 
0

>  <PUBCHEM_BOND_UDEF_STEREO_COUNT>  (1) 
0

>  <PUBCHEM_ISOTOPIC_ATOM_COUNT>  (1) 
0

>  <PUBCHEM_COMPONENT_COUNT>  (1) 
1

>  <PUBCHEM_CACTVS_TAUTO_COUNT>  (1) 
1

>  <PUBCHEM_CONFORMER_ID>  (1) 
0000859100000001

>  <PUBCHEM_MMFF94_ENERGY>  (1) 
11.783

>  <PUBCHEM_FEATURE_SELFOVERLAP>  (1) 
10.165

>  <PUBCHEM_SHAPE_FINGERPRINT>  (1) 
11206711 2 18411139142723415757
12423570 1 14452199741665834003
12524768 44 18268998754898680191
12897270 3 18339079405528396804
13380535 76 18266453201139468485
14325111 11 18410573963914264328
15775835 57 18410867559093479568
16945 1 18411136969580778798
17844478 74 18188786044726433411
193761 8 18266459798088110667
19973954 147 18410295808862611134
20201158 50 18412542132487765318
20871998 184 18272092746359769455
21040471 1 18339079285469830960
21501502 16 18410576184317228944
23552423 10 18188772884793611926
23559900 14 18055077554674088630
241688 4 18122904493232199211
2748010 2 18267587901070297334
5084963 1 18202281385694107891
528886 8 18195240010229892464
66348 1 18410573976577347325

>  <PUBCHEM_SHAPE_MULTIPOLES>  (1) 
226.37
3.78
2.31
0.67
1
0.29
0
0.21
-0.01
-0.86
-0.08
0
0
0.09

>  <PUBCHEM_SHAPE_SELFOVERLAP>  (1) 
452.477

>  <PUBCHEM_SHAPE_VOLUME>  (1) 
131.3

>  <PUBCHEM_COORDINATE_TYPE>  (1) 
2
5
10

$$$$
