34227
     RDKit          3D

 12 12  0  0  0  0  0  0  0  0999 V2000
   -0.8833   -1.9912   -0.4645 O   0  0  0  0  0  0  0  0  0  0  0  0
    1.1140   -0.0467   -0.0798 N   0  0  0  0  0  0  0  0  0  0  0  0
    4.5358   -0.1643   -0.0938 N   0  0  0  0  0  0  0  0  0  0  0  0
   -0.2574    0.2883   -0.0546 C   0  0  0  0  0  0  0  0  0  0  0  0
   -1.2313   -0.6915   -0.2471 C   0  0  0  0  0  0  0  0  0  0  0  0
   -0.6347    1.6128    0.1667 C   0  0  0  0  0  0  0  0  0  0  0  0
   -2.5826   -0.3467   -0.2187 C   0  0  0  0  0  0  0  0  0  0  0  0
   -1.9860    1.9576    0.1954 C   0  0  0  0  0  0  0  0  0  0  0  0
   -2.9599    0.9778    0.0026 C   0  0  0  0  0  0  0  0  0  0  0  0
    2.1512    0.9179    0.1129 C   0  0  0  0  0  0  0  0  0  0  0  0
   -0.7471   -2.8258    0.6836 C   0  0  0  0  0  0  0  0  0  0  0  0
    3.4814    0.3118   -0.0028 C   0  0  0  0  0  0  0  0  0  0  0  0
  1  5  1  0
  1 11  1  0
  2  4  1  0
  2 10  1  0
  3 12  3  0
  4  5  2  0
  4  6  1  0
  5  7  1  0
  6  8  2  0
  7  9  2  0
  8  9  1  0
 10 12  1  0
M  END
>  <PUBCHEM_COMPOUND_CID>  (1) 
34227

>  <PUBCHEM_CONFORMER_RMSD>  (1) 
0.6

>  <PUBCHEM_CONFORMER_DIVERSEORDER>  (1) 
1
11
4
9
8
10
13
7
3
6
14
2
12
5

>  <PUBCHEM_MMFF94_PARTIAL_CHARGES>  (1) 
17
1 -0.36
10 0.57
11 0.28
12 0.36
13 0.15
14 0.4
15 0.15
16 0.15
17 0.15
2 -0.87
3 -0.56
4 0.1
5 0.08
6 -0.15
7 -0.15
8 -0.15
9 -0.15

>  <PUBCHEM_EFFECTIVE_ROTOR_COUNT>  (1) 
3

>  <PUBCHEM_PHARMACOPHORE_FEATURES>  (1) 
5
1 1 acceptor
1 2 cation
1 2 donor
1 3 acceptor
6 4 5 6 7 8 9 rings

>  <PUBCHEM_HEAVY_ATOM_COUNT>  (1) 
12

>  <PUBCHEM_ATOM_DEF_STEREO_COUNT>  (1) 
0

>  <PUBCHEM_ATOM_UDEF_STEREO_COUNT>  (1) 
0

>  <PUBCHEM_BOND_DEF_STEREO_COUNT>  (1) 
0

>  <PUBCHEM_BOND_UDEF_STEREO_COUNT>  (1) 
0

>  <PUBCHEM_ISOTOPIC_ATOM_COUNT>  (1) 
0

>  <PUBCHEM_COMPONENT_COUNT>  (1) 
1

>  <PUBCHEM_CACTVS_TAUTO_COUNT>  (1) 
1

>  <PUBCHEM_CONFORMER_ID>  (1) 
000085B300000001

>  <PUBCHEM_MMFF94_ENERGY>  (1) 
46.1647

>  <PUBCHEM_FEATURE_SELFOVERLAP>  (1) 
25.371

>  <PUBCHEM_SHAPE_FINGERPRINT>  (1) 
12716758 59 18340480166230983640
12932764 1 17313650634076494700
13024252 1 14056716846747791205
13380535 76 18342176635521648630
14325111 11 18340486664685502172
14993402 34 18260822700630196157
15279307 12 18113894953600453970
15669948 3 18339357569544290662
16945 1 18339360867826122197
193761 8 17690278635555604493
20510252 161 18272652333211561769
20645464 45 18060144227647843045
20645476 183 18040151824931425159
20871998 184 18128823117022114751
23402539 116 18271798043115675021
23552423 10 18050002186844176055
23559900 14 18272366478444056936
2748010 2 18267031552782290445
305870 269 18191305961867760665
366044 4 18410292480463481793
43471831 8 18335417903101809019
54173680 148 18265616678601326371
6333449 129 18342737416300287957
7364860 26 17837491856176668703
75552 356 18410575123544748444
81228 2 18194670703872416857
8809292 202 18340207483352910642
9709674 26 18343869926752805574

>  <PUBCHEM_SHAPE_MULTIPOLES>  (1) 
231.12
5.55
2.36
0.67
7.57
1.64
-0.03
-1.27
0.23
-1.54
-0.43
-0.09
0.11
-0.05

>  <PUBCHEM_SHAPE_SELFOVERLAP>  (1) 
470.502

>  <PUBCHEM_SHAPE_VOLUME>  (1) 
132.3

>  <PUBCHEM_COORDINATE_TYPE>  (1) 
2
5
10

$$$$
