34243
     RDKit          3D

 11 11  0  0  0  0  0  0  0  0999 V2000
    4.4414    0.3417    0.0984 Cl  0  0  0  0  0  0  0  0  0  0  0  0
   -4.9274   -0.0470    0.0090 N   0  0  0  0  0  0  0  0  0  0  0  0
   -0.0240   -0.2673   -0.0884 C   0  0  0  0  0  0  0  0  0  0  0  0
    0.5053    1.0231   -0.1079 C   0  0  0  0  0  0  0  0  0  0  0  0
    0.8275   -1.3694   -0.0107 C   0  0  0  0  0  0  0  0  0  0  0  0
    1.8861    1.2113   -0.0499 C   0  0  0  0  0  0  0  0  0  0  0  0
    2.2085   -1.1812    0.0474 C   0  0  0  0  0  0  0  0  0  0  0  0
    2.7378    0.1093    0.0278 C   0  0  0  0  0  0  0  0  0  0  0  0
   -1.4640   -0.4641   -0.1492 C   0  0  0  0  0  0  0  0  0  0  0  0
   -2.4003    0.4636    0.1512 C   0  0  0  0  0  0  0  0  0  0  0  0
   -3.7911    0.1798    0.0722 C   0  0  0  0  0  0  0  0  0  0  0  0
  1  8  1  0
  2 11  3  0
  3  4  2  0
  3  5  1  0
  3  9  1  0
  4  6  1  0
  5  7  2  0
  6  8  2  0
  7  8  1  0
  9 10  2  0
 10 11  1  0
M  END
>  <PUBCHEM_COMPOUND_CID>  (1) 
34243

>  <PUBCHEM_CONFORMER_RMSD>  (1) 
0.4

>  <PUBCHEM_CONFORMER_DIVERSEORDER>  (1) 
1

>  <PUBCHEM_MMFF94_PARTIAL_CHARGES>  (1) 
17
1 -0.18
10 -0.09
11 0.49
12 0.15
13 0.15
14 0.15
15 0.15
16 0.15
17 0.15
2 -0.56
3 0.03
4 -0.15
5 -0.15
6 -0.15
7 -0.15
8 0.18
9 -0.18

>  <PUBCHEM_EFFECTIVE_ROTOR_COUNT>  (1) 
1

>  <PUBCHEM_PHARMACOPHORE_FEATURES>  (1) 
2
1 2 acceptor
6 3 4 5 6 7 8 rings

>  <PUBCHEM_HEAVY_ATOM_COUNT>  (1) 
11

>  <PUBCHEM_ATOM_DEF_STEREO_COUNT>  (1) 
0

>  <PUBCHEM_ATOM_UDEF_STEREO_COUNT>  (1) 
0

>  <PUBCHEM_BOND_DEF_STEREO_COUNT>  (1) 
0

>  <PUBCHEM_BOND_UDEF_STEREO_COUNT>  (1) 
1

>  <PUBCHEM_ISOTOPIC_ATOM_COUNT>  (1) 
0

>  <PUBCHEM_COMPONENT_COUNT>  (1) 
1

>  <PUBCHEM_CACTVS_TAUTO_COUNT>  (1) 
1

>  <PUBCHEM_CONFORMER_ID>  (1) 
000085C300000001

>  <PUBCHEM_MMFF94_ENERGY>  (1) 
23.1518

>  <PUBCHEM_FEATURE_SELFOVERLAP>  (1) 
10.148

>  <PUBCHEM_SHAPE_FINGERPRINT>  (1) 
10219947 1 18408325475319644404
11062470 55 18411136935104878969
11471102 20 18409728447888086654
12346645 6 18272089374931735414
12932764 1 14189284899284084597
13380535 76 18410295825984971259
14251717 144 18410855447422854887
14252887 29 18271816691605379822
14325111 11 18411138030806849101
14993402 34 18059857268050428582
18522853 276 18343019982415054225
20201158 50 18261115157869749251
20279233 1 17603874394665283907
20645477 70 18338230449898917295
20871998 22 18054510193018951742
23402539 116 16343699920194030137
23402655 69 18341607084556875837
366044 4 18411981386290403730
528886 8 18411695508834889346
53812653 166 18341326773368362416

>  <PUBCHEM_SHAPE_MULTIPOLES>  (1) 
223.26
7.88
1.21
0.62
5.62
0.13
0
-0.85
0.38
-0.66
-0.01
-0.05
0
-0.04

>  <PUBCHEM_SHAPE_SELFOVERLAP>  (1) 
453.167

>  <PUBCHEM_SHAPE_VOLUME>  (1) 
128.6

>  <PUBCHEM_COORDINATE_TYPE>  (1) 
2
5
10

$$$$
