34240
     RDKit          3D

 12 12  0  0  0  0  0  0  0  0999 V2000
    3.6866    0.5347    0.0568 O   0  0  0  0  0  0  0  0  0  0  0  0
   -5.3018   -0.2071    0.0267 N   0  0  0  0  0  0  0  0  0  0  0  0
   -0.3942   -0.2065   -0.1012 C   0  0  0  0  0  0  0  0  0  0  0  0
    2.3487    0.2915    0.0052 C   0  0  0  0  0  0  0  0  0  0  0  0
    0.0768    1.1064   -0.1024 C   0  0  0  0  0  0  0  0  0  0  0  0
    0.5063   -1.2704   -0.0466 C   0  0  0  0  0  0  0  0  0  0  0  0
    1.4483    1.3554   -0.0494 C   0  0  0  0  0  0  0  0  0  0  0  0
    1.8777   -1.0213    0.0066 C   0  0  0  0  0  0  0  0  0  0  0  0
   -1.8241   -0.4664   -0.1573 C   0  0  0  0  0  0  0  0  0  0  0  0
    4.5513   -0.5991    0.1110 C   0  0  0  0  0  0  0  0  0  0  0  0
   -2.7992    0.4136    0.1633 C   0  0  0  0  0  0  0  0  0  0  0  0
   -4.1764    0.0692    0.0873 C   0  0  0  0  0  0  0  0  0  0  0  0
  1  4  1  0
  1 10  1  0
  2 12  3  0
  3  5  2  0
  3  6  1  0
  3  9  1  0
  4  7  2  0
  4  8  1  0
  5  7  1  0
  6  8  2  0
  9 11  2  0
 11 12  1  0
M  END
>  <PUBCHEM_COMPOUND_CID>  (1) 
34240

>  <PUBCHEM_CONFORMER_RMSD>  (1) 
0.6

>  <PUBCHEM_CONFORMER_DIVERSEORDER>  (1) 
1

>  <PUBCHEM_MMFF94_PARTIAL_CHARGES>  (1) 
18
1 -0.36
10 0.28
11 -0.09
12 0.49
13 0.15
14 0.15
15 0.15
16 0.15
17 0.15
2 -0.56
21 0.15
3 0.03
4 0.08
5 -0.15
6 -0.15
7 -0.15
8 -0.15
9 -0.18

>  <PUBCHEM_EFFECTIVE_ROTOR_COUNT>  (1) 
2

>  <PUBCHEM_PHARMACOPHORE_FEATURES>  (1) 
3
1 1 acceptor
1 2 acceptor
6 3 4 5 6 7 8 rings

>  <PUBCHEM_HEAVY_ATOM_COUNT>  (1) 
12

>  <PUBCHEM_ATOM_DEF_STEREO_COUNT>  (1) 
0

>  <PUBCHEM_ATOM_UDEF_STEREO_COUNT>  (1) 
0

>  <PUBCHEM_BOND_DEF_STEREO_COUNT>  (1) 
0

>  <PUBCHEM_BOND_UDEF_STEREO_COUNT>  (1) 
1

>  <PUBCHEM_ISOTOPIC_ATOM_COUNT>  (1) 
0

>  <PUBCHEM_COMPONENT_COUNT>  (1) 
1

>  <PUBCHEM_CACTVS_TAUTO_COUNT>  (1) 
1

>  <PUBCHEM_CONFORMER_ID>  (1) 
000085C000000001

>  <PUBCHEM_MMFF94_ENERGY>  (1) 
36.7766

>  <PUBCHEM_FEATURE_SELFOVERLAP>  (1) 
15.223

>  <PUBCHEM_SHAPE_FINGERPRINT>  (1) 
10219947 1 18409169908829193932
11062470 55 13398632753339146285
11401426 45 18342734130792471408
11471102 20 18409728469336646804
12032990 46 18337957796700142718
124424 183 17967535679192198617
13380535 76 18411421721807875591
13690532 89 18410856551060404498
14252887 29 18202292368052350622
18522853 276 18344146986207554745
200 152 18273210907357653343
20279233 1 17749116582280987923
20645477 70 18338513028729721767
20871998 22 18198628718146993294
23402539 116 16200428053378835265
23402655 69 18341325609733126501
366044 4 18411418427409587138
42788 4 18410855460154561545
53655031 270 18342176639689872384

>  <PUBCHEM_SHAPE_MULTIPOLES>  (1) 
236.1
8.61
1.2
0.61
5.76
0.08
0
-0.71
-0.5
-0.59
0.02
0
0
-0.05

>  <PUBCHEM_SHAPE_SELFOVERLAP>  (1) 
486.744

>  <PUBCHEM_SHAPE_VOLUME>  (1) 
133.5

>  <PUBCHEM_COORDINATE_TYPE>  (1) 
2
5
10

$$$$
