34252
     RDKit          3D

 12 12  0  0  0  0  0  0  0  0999 V2000
   -0.8296    1.7862   -0.4653 F   0  0  0  0  0  0  0  0  0  0  0  0
   -0.2585    0.8219    1.4014 F   0  0  0  0  0  0  0  0  0  0  0  0
   -1.4026   -1.5442    0.5286 F   0  0  0  0  0  0  0  0  0  0  0  0
   -1.9513   -0.5698   -1.3446 F   0  0  0  0  0  0  0  0  0  0  0  0
   -2.7813    0.1472    0.5410 F   0  0  0  0  0  0  0  0  0  0  0  0
    1.1927   -1.2011    0.0272 N   0  0  0  0  0  0  0  0  0  0  0  0
    1.8730    1.0325   -0.4477 N   0  0  0  0  0  0  0  0  0  0  0  0
    0.7653    0.0761   -0.5669 C   0  0  0  0  0  0  0  0  0  0  0  0
   -0.5096    0.5944    0.0909 C   0  0  0  0  0  0  0  0  0  0  0  0
    2.6543   -1.1239   -0.0186 C   0  0  0  0  0  0  0  0  0  0  0  0
    2.9177    0.3314    0.2961 C   0  0  0  0  0  0  0  0  0  0  0  0
   -1.6701   -0.3506   -0.0421 C   0  0  0  0  0  0  0  0  0  0  0  0
  1  9  1  0
  2  9  1  0
  3 12  1  0
  4 12  1  0
  5 12  1  0
  6  8  1  0
  6 10  1  0
  7  8  1  0
  7 11  1  0
  8  9  1  0
  9 12  1  0
 10 11  1  0
M  END
>  <PUBCHEM_COMPOUND_CID>  (1) 
34252

>  <PUBCHEM_CONFORMER_RMSD>  (1) 
0.6

>  <PUBCHEM_CONFORMER_DIVERSEORDER>  (1) 
1
3
2

>  <PUBCHEM_MMFF94_PARTIAL_CHARGES>  (1) 
14
1 -0.34
10 0.27
11 0.27
12 1.02
18 0.36
19 0.36
2 -0.34
3 -0.34
4 -0.34
5 -0.34
6 -0.9
7 -0.9
8 0.54
9 0.68

>  <PUBCHEM_EFFECTIVE_ROTOR_COUNT>  (1) 
3

>  <PUBCHEM_PHARMACOPHORE_FEATURES>  (1) 
5
1 6 cation
1 6 donor
1 7 cation
1 7 donor
5 6 7 8 10 11 rings

>  <PUBCHEM_HEAVY_ATOM_COUNT>  (1) 
12

>  <PUBCHEM_ATOM_DEF_STEREO_COUNT>  (1) 
0

>  <PUBCHEM_ATOM_UDEF_STEREO_COUNT>  (1) 
0

>  <PUBCHEM_BOND_DEF_STEREO_COUNT>  (1) 
0

>  <PUBCHEM_BOND_UDEF_STEREO_COUNT>  (1) 
0

>  <PUBCHEM_ISOTOPIC_ATOM_COUNT>  (1) 
0

>  <PUBCHEM_COMPONENT_COUNT>  (1) 
1

>  <PUBCHEM_CACTVS_TAUTO_COUNT>  (1) 
1

>  <PUBCHEM_CONFORMER_ID>  (1) 
000085CC00000001

>  <PUBCHEM_MMFF94_ENERGY>  (1) 
6.8008

>  <PUBCHEM_FEATURE_SELFOVERLAP>  (1) 
25.441

>  <PUBCHEM_SHAPE_FINGERPRINT>  (1) 
10857977 72 18341043137796313538
12897270 3 18334857242497298990
12932764 1 18201998811596165980
13024252 1 13407085777200577501
16945 1 18334853926724569606
18185500 45 18340208586869517822
20201158 50 18335416876604462626
20653085 51 16153706475181943349
23552423 10 18187088364339575126
2748010 2 18119815960938488582
29004967 10 18260835937582024784
369184 2 18411698764124583578
5084963 1 18341615884828567138
528886 8 18335137621983075017

>  <PUBCHEM_SHAPE_MULTIPOLES>  (1) 
200.62
3.81
1.37
0.91
0.92
0.02
0.02
-0.55
0.11
0.06
-0.01
-0.29
0.06
-0.05

>  <PUBCHEM_SHAPE_SELFOVERLAP>  (1) 
412.751

>  <PUBCHEM_SHAPE_VOLUME>  (1) 
116

>  <PUBCHEM_COORDINATE_TYPE>  (1) 
2
5
10

$$$$
