34268
     RDKit          3D

 13 12  0  0  1  0  0  0  0  0999 V2000
    4.6359    1.8476    0.6640 Cl  0  0  0  0  0  0  0  0  0  0  0  0
    0.4775    0.2831   -0.7031 C   0  0  0  0  0  0  0  0  0  0  0  0
   -0.7141    0.2399    0.2562 C   0  0  0  0  0  0  0  0  0  0  0  0
    1.8047    0.3274    0.0596 C   0  0  0  0  0  0  0  0  0  0  0  0
   -2.0376    0.1623   -0.5075 C   0  0  0  0  0  0  0  0  0  0  0  0
    2.9953    0.3373   -0.9066 C   0  0  0  0  0  0  0  0  0  0  0  0
   -3.2656    0.0944    0.4056 C   0  0  0  0  0  0  0  0  0  0  0  0
    4.3806    0.3171   -0.2403 C   0  0  0  0  0  0  0  0  0  0  0  0
   -4.6149   -0.0702   -0.3006 C   0  0  0  0  0  0  0  0  0  0  0  0
    4.6509   -0.8652    0.6988 C   0  0  0  0  0  0  0  0  0  0  0  0
   -5.7953   -0.1944    0.6631 C   0  0  0  0  0  0  0  0  0  0  0  0
    4.6000   -2.2148   -0.0031 C   0  0  0  0  0  0  0  0  0  0  0  0
   -7.1174   -0.2643   -0.0859 C   0  0  0  0  0  0  0  0  0  0  0  0
  1  8  1  0
  2  3  1  0
  2  4  1  0
  3  5  1  0
  4  6  1  0
  5  7  1  0
  6  8  1  0
  7  9  1  0
  8 10  1  0
  9 11  1  0
 10 12  1  0
 11 13  1  0
M  END
>  <PUBCHEM_COMPOUND_CID>  (1) 
34268

>  <PUBCHEM_CONFORMER_RMSD>  (1) 
1

>  <PUBCHEM_CONFORMER_DIVERSEORDER>  (1) 
2
552
250
35
279
61
4
32
425
477
255
36
165
450
3
292
534
17
87
176
162
33
447
376
537
111
206
539
263
1
51
44
92
572
315
9
438
169
185
290
243
156
150
65
324
271
478
551
220
54
187
409
30
498
78
373
423
160
13
95
377
172
462
339
196
11
230
80
79
549
454
439
536
115
6
571
145
269
28
113
158
239
359
511
573
201
27
60
38
481
502
112
177
362
446
457
531
184
225
137
544
195
349
256
246
233
364
433
410
237

>  <PUBCHEM_MMFF94_PARTIAL_CHARGES>  (1) 
2
1 -0.29
8 0.29

>  <PUBCHEM_EFFECTIVE_ROTOR_COUNT>  (1) 
9

>  <PUBCHEM_PHARMACOPHORE_FEATURES>  (1) 
2
1 12 hydrophobe
1 13 hydrophobe

>  <PUBCHEM_HEAVY_ATOM_COUNT>  (1) 
13

>  <PUBCHEM_ATOM_DEF_STEREO_COUNT>  (1) 
0

>  <PUBCHEM_ATOM_UDEF_STEREO_COUNT>  (1) 
1

>  <PUBCHEM_BOND_DEF_STEREO_COUNT>  (1) 
0

>  <PUBCHEM_BOND_UDEF_STEREO_COUNT>  (1) 
0

>  <PUBCHEM_ISOTOPIC_ATOM_COUNT>  (1) 
0

>  <PUBCHEM_COMPONENT_COUNT>  (1) 
1

>  <PUBCHEM_CACTVS_TAUTO_COUNT>  (1) 
1

>  <PUBCHEM_CONFORMER_ID>  (1) 
000085DC00000002

>  <PUBCHEM_MMFF94_ENERGY>  (1) 
0.6397

>  <PUBCHEM_FEATURE_SELFOVERLAP>  (1) 
10.149

>  <PUBCHEM_SHAPE_FINGERPRINT>  (1) 
10912923 1 17775286079549422393
11858739 19 18187083927601571527
13533116 47 18411700959227730242
14123238 8 16056884636966083469
1420 363 16805046220553837913
17834072 33 18342737425064185351
17834072 8 16298391253257176411
17834076 25 15410899565167240645
20281389 69 18412266112969113129
20645477 70 18261393309058971126
21150785 3 14201691861195428559
220451 1 18341055189448334823
23402539 116 18412542116151772317
29717793 49 17530967977492431431
42630746 31 18201442441142850078
42788 4 17632581556724263005
5374978 207 17989486320987279312
57483677 66 18187364337616361835

>  <PUBCHEM_SHAPE_MULTIPOLES>  (1) 
269.4
17.33
1.38
0.88
22.49
0.38
-0.02
2.48
2.42
-3.33
0.22
-0.25
-0.06
0.14

>  <PUBCHEM_SHAPE_SELFOVERLAP>  (1) 
470.854

>  <PUBCHEM_SHAPE_VOLUME>  (1) 
177.1

>  <PUBCHEM_COORDINATE_TYPE>  (1) 
2
5
10

$$$$
