34279
     RDKit          3D

 20 21  0  0  0  0  0  0  0  0999 V2000
   -1.5971    1.3394    0.3947 O   0  0  0  0  0  0  0  0  0  0  0  0
    0.2033    2.0600   -0.8359 O   0  0  0  0  0  0  0  0  0  0  0  0
    3.8789   -0.5144    0.3943 N   0  0  0  0  0  0  0  0  0  0  0  0
    0.4742    0.8127    1.1027 N   0  0  0  0  0  0  0  0  0  0  0  0
    4.3681   -1.7469   -0.2394 C   0  0  0  0  0  0  0  0  0  0  0  0
    4.4481    0.6769   -0.2512 C   0  0  0  0  0  0  0  0  0  0  0  0
    5.8931   -1.8364   -0.1677 C   0  0  0  0  0  0  0  0  0  0  0  0
    5.9759    0.6666   -0.1797 C   0  0  0  0  0  0  0  0  0  0  0  0
    6.5507   -0.6081   -0.7866 C   0  0  0  0  0  0  0  0  0  0  0  0
    2.4175   -0.4664    0.3593 C   0  0  0  0  0  0  0  0  0  0  0  0
    1.9103    0.7519    1.1167 C   0  0  0  0  0  0  0  0  0  0  0  0
   -0.2623    1.4614    0.1282 C   0  0  0  0  0  0  0  0  0  0  0  0
   -3.9270    1.7471   -0.1124 C   0  0  0  0  0  0  0  0  0  0  0  0
   -2.4805    1.9683   -0.5406 C   0  0  0  0  0  0  0  0  0  0  0  0
   -4.3007    0.2849   -0.0868 C   0  0  0  0  0  0  0  0  0  0  0  0
   -4.8207   -0.3036   -1.2290 C   0  0  0  0  0  0  0  0  0  0  0  0
   -4.1170   -0.4433    1.0781 C   0  0  0  0  0  0  0  0  0  0  0  0
   -5.1660   -1.6549   -1.2055 C   0  0  0  0  0  0  0  0  0  0  0  0
   -4.4621   -1.7947    1.1014 C   0  0  0  0  0  0  0  0  0  0  0  0
   -4.9866   -2.4004   -0.0405 C   0  0  0  0  0  0  0  0  0  0  0  0
  1 12  1  0
  1 14  1  0
  2 12  2  0
  3  5  1  0
  3  6  1  0
  3 10  1  0
  4 11  1  0
  4 12  1  0
  5  7  1  0
  6  8  1  0
  7  9  1  0
  8  9  1  0
 10 11  1  0
 13 14  1  0
 13 15  1  0
 15 16  2  0
 15 17  1  0
 16 18  1  0
 17 19  2  0
 18 20  2  0
 19 20  1  0
M  END
>  <PUBCHEM_COMPOUND_CID>  (1) 
34279

>  <PUBCHEM_CONFORMER_RMSD>  (1) 
1

>  <PUBCHEM_CONFORMER_DIVERSEORDER>  (1) 
1
19
282
95
11
90
113
266
392
230
464
609
105
334
265
515
20
156
8
259
213
3
29
158
336
88
355
289
14
60
426
420
553
80
538
40
488
576
388
459
76
50
27
44
337
433
542
189
625
69
66
16
358
26
109
310
75
290
405
42
78
193
381
391
9
24
181
287
524
354
167
13
199
56
98
134
238
477
15
530
132
543
471
525
85
314
117
22
68
288
162
486
605
127
218
453
403
507
281
296
18
112
190
81
340
444
100
21
64
204
580
273
131
2
175
277
12
70
335
147
61
508
32
201
67
462
333
620

>  <PUBCHEM_MMFF94_PARTIAL_CHARGES>  (1) 
23
1 -0.43
10 0.27
11 0.3
12 0.78
13 0.14
14 0.28
15 -0.14
16 -0.15
17 -0.15
18 -0.15
19 -0.15
2 -0.57
20 -0.15
3 -0.81
35 0.37
4 -0.73
40 0.15
41 0.15
42 0.15
43 0.15
44 0.15
5 0.27
6 0.27

>  <PUBCHEM_EFFECTIVE_ROTOR_COUNT>  (1) 
9.2

>  <PUBCHEM_PHARMACOPHORE_FEATURES>  (1) 
5
1 2 acceptor
1 3 cation
1 4 donor
6 15 16 17 18 19 20 rings
6 3 5 6 7 8 9 rings

>  <PUBCHEM_HEAVY_ATOM_COUNT>  (1) 
20

>  <PUBCHEM_ATOM_DEF_STEREO_COUNT>  (1) 
0

>  <PUBCHEM_ATOM_UDEF_STEREO_COUNT>  (1) 
0

>  <PUBCHEM_BOND_DEF_STEREO_COUNT>  (1) 
0

>  <PUBCHEM_BOND_UDEF_STEREO_COUNT>  (1) 
0

>  <PUBCHEM_ISOTOPIC_ATOM_COUNT>  (1) 
0

>  <PUBCHEM_COMPONENT_COUNT>  (1) 
1

>  <PUBCHEM_CACTVS_TAUTO_COUNT>  (1) 
2

>  <PUBCHEM_CONFORMER_ID>  (1) 
000085E700000001

>  <PUBCHEM_MMFF94_ENERGY>  (1) 
24.1396

>  <PUBCHEM_FEATURE_SELFOVERLAP>  (1) 
25.372

>  <PUBCHEM_SHAPE_FINGERPRINT>  (1) 
105312 117 13695872519242302297
11089746 13 12468643854604522734
117890 112 10737289043705999556
12596602 18 15697991968090586667
12633257 1 15912767323134539271
13103583 49 17060349538994435531
13740256 8 18343864415797925176
13785724 45 8789238113673080948
13941219 33 18271538511511982171
14123255 352 9007059058687586979
14251751 18 18412830191770393862
14251757 5 17968661643445150843
14251758 9 12031792465708781104
14251764 30 18131068234125020112
14461889 52 18341040909515330994
14466204 15 10159696889199652030
14931854 50 17822839966727185907
14950920 106 16415197948886950315
15183329 4 18113616768489635690
15188451 53 15697703909756803437
15250474 111 18115857508388098074
15880784 105 17632289138202381571
17780758 139 17561369470069376635
17844677 252 17775283863431415312
17870717 6 18040989662246803863
18927931 339 18411423903941048871
20567600 247 18272366477837388814
20871999 31 18040996228423774041
21054139 6 18114178631995562210
21623969 137 17489591147589930558
22849341 161 15051730915274160824
22950370 63 18272370854193000152
2303208 19 17847061073782999144
23379529 103 18118126003309387779
23402539 116 17822577118527330384
23559900 14 18338788014069019841
270888 7 7997430329556828951
2767999 5 12829490354952020622
2838139 119 12035448354592696182
2916195 48 8790882986507625941
314194 84 18342179998380535256
4938544 92 16916798336059476449
6431902 208 18410013255949875191
7062679 117 18334014986272606193
7495541 125 18202842154511310544
7918774 8 17489599930713433884
8217 86 18408887373069596219
8863177 126 17917422181139682170

>  <PUBCHEM_SHAPE_MULTIPOLES>  (1) 
389.89
17.85
2.42
1.1
14.62
0.3
-0.03
9.64
3.52
-1.97
0.22
-0.92
0.12
0.38

>  <PUBCHEM_SHAPE_SELFOVERLAP>  (1) 
790.51

>  <PUBCHEM_SHAPE_VOLUME>  (1) 
226.3

>  <PUBCHEM_COORDINATE_TYPE>  (1) 
2
5
10

$$$$
