3427
     RDKit          3D

 21 21  0  0  0  0  0  0  0  0999 V2000
    3.0693   -0.9900   -0.9934 S   0  0  0  0  0  0  0  0  0  0  0  0
    5.6105   -0.1891   -0.5975 N   0  0  0  0  0  0  0  0  0  0  0  0
    4.1995    0.7795    0.7615 N   0  0  0  0  0  0  0  0  0  0  0  0
    6.3949    0.6101    0.1415 N   0  0  0  0  0  0  0  0  0  0  0  0
   -2.5981   -2.9251    0.2445 C   0  0  0  0  0  0  0  0  0  0  0  0
   -4.3134    0.5807    0.9503 C   0  0  0  0  0  0  0  0  0  0  0  0
   -3.9478   -0.7471    0.3218 C   0  0  0  0  0  0  0  0  0  0  0  0
   -1.3997   -2.8624   -0.7112 C   0  0  0  0  0  0  0  0  0  0  0  0
   -2.9930   -1.5782    0.7839 C   0  0  0  0  0  0  0  0  0  0  0  0
   -4.1091    1.7916    0.0313 C   0  0  0  0  0  0  0  0  0  0  0  0
   -0.1654   -2.2207   -0.1139 C   0  0  0  0  0  0  0  0  0  0  0  0
   -4.7690   -1.1371   -0.8802 C   0  0  0  0  0  0  0  0  0  0  0  0
   -2.6879    1.9452   -0.4354 C   0  0  0  0  0  0  0  0  0  0  0  0
    0.3839   -1.0739   -0.5616 C   0  0  0  0  0  0  0  0  0  0  0  0
    0.4819   -2.9784    1.0159 C   0  0  0  0  0  0  0  0  0  0  0  0
   -1.8821    3.0116   -0.2738 C   0  0  0  0  0  0  0  0  0  0  0  0
    1.6277   -0.4061   -0.0594 C   0  0  0  0  0  0  0  0  0  0  0  0
   -2.2535    4.2679    0.4609 C   0  0  0  0  0  0  0  0  0  0  0  0
   -0.4847    3.0046   -0.8329 C   0  0  0  0  0  0  0  0  0  0  0  0
    4.3427   -0.0568   -0.2006 C   0  0  0  0  0  0  0  0  0  0  0  0
    5.4935    1.1737    0.9484 C   0  0  0  0  0  0  0  0  0  0  0  0
  1 17  1  0
  1 20  1  0
  2  4  1  0
  2 20  1  0
  3 20  2  0
  3 21  1  0
  4 21  2  0
  5  8  1  0
  5  9  1  0
  6  7  1  0
  6 10  1  0
  7  9  2  0
  7 12  1  0
  8 11  1  0
 10 13  1  0
 11 14  2  0
 11 15  1  0
 13 16  2  3
 14 17  1  0
 16 18  1  0
 16 19  1  0
M  END
>  <PUBCHEM_COMPOUND_CID>  (1) 
3427

>  <PUBCHEM_CONFORMER_RMSD>  (1) 
1.2

>  <PUBCHEM_CONFORMER_DIVERSEORDER>  (1) 
1
210
67
143
10
59
28
35
8
208
49
14
66
214
189
34
25
79
94
221
173
113
48
188
4
226
153
7
114
211
91
69
154
133
61
121
120
110
55
85
181
22
136
43
201
217
83
80
122
82
155
147
64
163
71
115
203
102
13
39
213
101
191
29
36
190
116
198
78
17
15
161
58
162
31
196
118
21
192
54
134
47
51
206
41
174
92
199
84
140
40
60
151
52
127
19
75
107
222
18
194
219
215
179
135
89
131
141
77
218
63
2
90
175
38
185
62
128
50
95
149
5
103
98
3
45
152
81
202
142
166
106
68
176
23
112
137
130
123
126
6
99
180
93
187
74
225
46
132
24
53
33
167
96
104
100
197
111
108
164
88
73
150
124
186
148
125
11
105
16
168
26
212
205
70
27
159
129
76
146
86
65
195
200
56
57
160
165
171
109
37
9
44
32
169
209
117
170
183
42
156
72
138
220
20
177
182
119
158
184
193
144
97
157
223
224
204
139
87
145
172
12
178
30
216
207

>  <PUBCHEM_MMFF94_PARTIAL_CHARGES>  (1) 
26
1 -0.29
10 0.14
11 -0.28
12 0.14
13 -0.29
14 -0.29
15 0.14
16 -0.28
17 0.37
18 0.14
19 0.14
2 0.3
20 0.24
21 0.37
28 0.15
3 -0.57
34 0.15
35 0.15
4 -0.71
47 0.27
48 0.15
5 0.14
6 0.14
7 -0.28
8 0.14
9 -0.29

>  <PUBCHEM_EFFECTIVE_ROTOR_COUNT>  (1) 
9

>  <PUBCHEM_PHARMACOPHORE_FEATURES>  (1) 
9
1 12 hydrophobe
1 15 hydrophobe
1 2 donor
3 16 18 19 hydrophobe
3 2 3 20 cation
3 3 4 21 cation
4 5 8 9 11 hydrophobe
4 6 7 10 13 hydrophobe
5 2 3 4 20 21 rings

>  <PUBCHEM_HEAVY_ATOM_COUNT>  (1) 
21

>  <PUBCHEM_ATOM_DEF_STEREO_COUNT>  (1) 
0

>  <PUBCHEM_ATOM_UDEF_STEREO_COUNT>  (1) 
0

>  <PUBCHEM_BOND_DEF_STEREO_COUNT>  (1) 
0

>  <PUBCHEM_BOND_UDEF_STEREO_COUNT>  (1) 
2

>  <PUBCHEM_ISOTOPIC_ATOM_COUNT>  (1) 
0

>  <PUBCHEM_COMPONENT_COUNT>  (1) 
1

>  <PUBCHEM_CACTVS_TAUTO_COUNT>  (1) 
3

>  <PUBCHEM_CONFORMER_ID>  (1) 
00000D6300000001

>  <PUBCHEM_MMFF94_ENERGY>  (1) 
17.6452

>  <PUBCHEM_FEATURE_SELFOVERLAP>  (1) 
48.556

>  <PUBCHEM_SHAPE_FINGERPRINT>  (1) 
10006869 2 18264758870959184559
100830 39 18410855452461627232
10087517 78 18340481283260019038
10670039 82 18408601448944525810
10871710 139 18341043039650499199
11014199 57 17763742487437909934
11135609 187 18047179758209522517
11595378 159 18041267808191194424
11646440 116 18336556018333283523
12596602 18 16950567743835743058
12788726 201 18334851740760302778
12838862 33 18336813227003422869
13402501 40 18343863324760252473
13561361 72 18338788014100688016
13773456 30 17465922883764859469
14081887 123 18411135797197326677
14251757 17 18130511834133784434
14251764 75 17838906932412033017
14765038 42 18129399124056106289
15322535 138 17975409118661093020
18336668 15 18040998496335493757
20765182 40 18411409597320551096
20765182 5 18410294730794548333
23402539 116 18339919437008198206
3524813 1 18201715176266697731
392239 28 18411984650075509488
469060 322 17312822671365359013
574716 61 13901608788551107202
7226269 152 18261673774443982678
9981440 41 18187369796688893123

>  <PUBCHEM_SHAPE_MULTIPOLES>  (1) 
421.08
12.27
4.67
1.02
18.64
2.66
0.02
3.42
1.29
-5.09
0.17
0.06
-0.13
0.42

>  <PUBCHEM_SHAPE_SELFOVERLAP>  (1) 
814.875

>  <PUBCHEM_SHAPE_VOLUME>  (1) 
258.6

>  <PUBCHEM_COORDINATE_TYPE>  (1) 
2
5
10

$$$$
