34272
     RDKit          3D

 12 12  0  0  0  0  0  0  0  0999 V2000
    3.3208   -0.0099    0.4278 O   0  0  0  0  0  0  0  0  0  0  0  0
    5.5648    0.0071    0.7935 O   0  0  0  0  0  0  0  0  0  0  0  0
    4.6201    0.0207   -0.1515 N   0  0  0  0  0  0  0  0  0  0  0  0
   -0.1396   -0.0272   -1.0628 C   0  0  0  0  0  0  0  0  0  0  0  0
    0.9641   -0.0265    0.0019 C   0  0  0  0  0  0  0  0  0  0  0  0
   -1.5045   -0.0105   -0.4613 C   0  0  0  0  0  0  0  0  0  0  0  0
    2.3555    0.0060   -0.6148 C   0  0  0  0  0  0  0  0  0  0  0  0
   -2.1526   -1.2106   -0.1693 C   0  0  0  0  0  0  0  0  0  0  0  0
   -2.1329    1.2051   -0.1911 C   0  0  0  0  0  0  0  0  0  0  0  0
   -3.4289   -1.1951    0.3930 C   0  0  0  0  0  0  0  0  0  0  0  0
   -3.4093    1.2205    0.3713 C   0  0  0  0  0  0  0  0  0  0  0  0
   -4.0574    0.0204    0.6633 C   0  0  0  0  0  0  0  0  0  0  0  0
  1  3  1  0
  1  7  1  0
  2  3  2  0
  4  5  1  0
  4  6  1  0
  5  7  1  0
  6  8  2  0
  6  9  1  0
  8 10  1  0
  9 11  2  0
 10 12  2  0
 11 12  1  0
M  END
>  <PUBCHEM_COMPOUND_CID>  (1) 
34272

>  <PUBCHEM_CONFORMER_RMSD>  (1) 
0.6

>  <PUBCHEM_CONFORMER_DIVERSEORDER>  (1) 
1
7
25
21
24
33
36
38
37
45
6
42
10
11
40
31
8
43
9
22
35
28
19
34
18
3
2
13
17
29
4
30
5
15
12
23
26
20
44
16
14
39
27
41
32

>  <PUBCHEM_MMFF94_PARTIAL_CHARGES>  (1) 
16
1 -0.09
10 -0.15
11 -0.15
12 -0.15
19 0.15
2 -0.3
20 0.15
21 0.15
22 0.15
23 0.15
3 0.12
4 0.14
6 -0.14
7 0.28
8 -0.15
9 -0.15

>  <PUBCHEM_EFFECTIVE_ROTOR_COUNT>  (1) 
5

>  <PUBCHEM_PHARMACOPHORE_FEATURES>  (1) 
1
6 6 8 9 10 11 12 rings

>  <PUBCHEM_HEAVY_ATOM_COUNT>  (1) 
12

>  <PUBCHEM_ATOM_DEF_STEREO_COUNT>  (1) 
0

>  <PUBCHEM_ATOM_UDEF_STEREO_COUNT>  (1) 
0

>  <PUBCHEM_BOND_DEF_STEREO_COUNT>  (1) 
0

>  <PUBCHEM_BOND_UDEF_STEREO_COUNT>  (1) 
0

>  <PUBCHEM_ISOTOPIC_ATOM_COUNT>  (1) 
0

>  <PUBCHEM_COMPONENT_COUNT>  (1) 
1

>  <PUBCHEM_CACTVS_TAUTO_COUNT>  (1) 
1

>  <PUBCHEM_CONFORMER_ID>  (1) 
000085E000000001

>  <PUBCHEM_MMFF94_ENERGY>  (1) 
20.1279

>  <PUBCHEM_FEATURE_SELFOVERLAP>  (1) 
5.074

>  <PUBCHEM_SHAPE_FINGERPRINT>  (1) 
12251169 10 18408889542112320909
13024252 1 14418135119713032269
13214271 11 18060419114614135693
14123238 8 18412545422849153140
15219456 202 17916597440055185279
200 152 15285637711588999253
20279233 1 17846787299170947711
20432913 95 16588022390411889072
20645464 45 17917718998082218855
20645476 183 11887668451533543925
20645477 56 17489584576163295292
20645477 70 12180108866551087616
20828058 44 18335139791221205666
21061003 4 14490200414200060909
21119208 17 10303812072822109634
21650355 55 18336833086736520425
23402539 116 18343578565024759887
23402655 69 11671793640901319226
23403322 49 12829204468711737048
42 15 18333732403610999598
449060 50 17846501430701084444
57265010 4 18410296912774766531

>  <PUBCHEM_SHAPE_MULTIPOLES>  (1) 
230.23
9.78
1.12
0.87
14.65
0.01
-0.07
0.07
3.27
-1.39
0.04
0.12
0
0.01

>  <PUBCHEM_SHAPE_SELFOVERLAP>  (1) 
457.394

>  <PUBCHEM_SHAPE_VOLUME>  (1) 
136.9

>  <PUBCHEM_COORDINATE_TYPE>  (1) 
2
5
10

$$$$
