34282
     RDKit          3D

 30 33  0  0  0  0  0  0  0  0999 V2000
   -3.6680   -0.1034    0.0866 O   0  0  0  0  0  0  0  0  0  0  0  0
    5.3750   -0.6910   -0.0706 O   0  0  0  0  0  0  0  0  0  0  0  0
    5.7517    1.3789   -1.0048 O   0  0  0  0  0  0  0  0  0  0  0  0
   -0.5762    1.2503    0.0048 N   0  0  0  0  0  0  0  0  0  0  0  0
   -1.3905    0.1838   -0.0607 N   0  0  0  0  0  0  0  0  0  0  0  0
   -1.2242    2.4397    0.2034 C   0  0  0  0  0  0  0  0  0  0  0  0
   -2.5742    2.1141    0.2716 C   0  0  0  0  0  0  0  0  0  0  0  0
    0.8017    1.0733   -0.1280 C   0  0  0  0  0  0  0  0  0  0  0  0
   -2.6052    0.7132    0.1018 C   0  0  0  0  0  0  0  0  0  0  0  0
   -0.7488    3.7471    0.3261 C   0  0  0  0  0  0  0  0  0  0  0  0
   -3.5188    3.1343    0.4726 C   0  0  0  0  0  0  0  0  0  0  0  0
    1.5731    2.0897   -0.6756 C   0  0  0  0  0  0  0  0  0  0  0  0
    1.3820   -0.1172    0.2886 C   0  0  0  0  0  0  0  0  0  0  0  0
    3.5432    0.7199   -0.3936 C   0  0  0  0  0  0  0  0  0  0  0  0
    7.0072   -2.3892    0.4057 C   0  0  0  0  0  0  0  0  0  0  0  0
   -1.7013    4.7516    0.5264 C   0  0  0  0  0  0  0  0  0  0  0  0
   -3.0632    4.4527    0.5983 C   0  0  0  0  0  0  0  0  0  0  0  0
    2.9504    1.9121   -0.8091 C   0  0  0  0  0  0  0  0  0  0  0  0
    2.7591   -0.2948    0.1553 C   0  0  0  0  0  0  0  0  0  0  0  0
   -3.4173   -1.5004   -0.1053 C   0  0  0  0  0  0  0  0  0  0  0  0
    8.4840   -2.7713    0.3645 C   0  0  0  0  0  0  0  0  0  0  0  0
    6.7722   -0.9924   -0.1516 C   0  0  0  0  0  0  0  0  0  0  0  0
   -4.7256   -2.2349   -0.1230 C   0  0  0  0  0  0  0  0  0  0  0  0
    4.9790    0.5350   -0.5314 C   0  0  0  0  0  0  0  0  0  0  0  0
    8.7198   -4.1494    0.9616 C   0  0  0  0  0  0  0  0  0  0  0  0
   -5.2567   -2.7243    1.0652 C   0  0  0  0  0  0  0  0  0  0  0  0
   -5.3950   -2.4200   -1.3275 C   0  0  0  0  0  0  0  0  0  0  0  0
   -6.4727   -3.4075    1.0487 C   0  0  0  0  0  0  0  0  0  0  0  0
   -6.6111   -3.1031   -1.3440 C   0  0  0  0  0  0  0  0  0  0  0  0
   -7.1498   -3.5969   -0.1559 C   0  0  0  0  0  0  0  0  0  0  0  0
  1  9  1  0
  1 20  1  0
  2 22  1  0
  2 24  1  0
  3 24  2  0
  4  5  1  0
  4  6  1  0
  4  8  1  0
  5  9  2  0
  6  7  2  0
  6 10  1  0
  7  9  1  0
  7 11  1  0
  8 12  2  0
  8 13  1  0
 10 16  2  0
 11 17  2  0
 12 18  1  0
 13 19  2  0
 14 18  2  0
 14 19  1  0
 14 24  1  0
 15 21  1  0
 15 22  1  0
 16 17  1  0
 20 23  1  0
 21 25  1  0
 23 26  2  0
 23 27  1  0
 26 28  1  0
 27 29  2  0
 28 30  2  0
 29 30  1  0
M  END
>  <PUBCHEM_COMPOUND_CID>  (1) 
34282

>  <PUBCHEM_CONFORMER_RMSD>  (1) 
1

>  <PUBCHEM_CONFORMER_DIVERSEORDER>  (1) 
1
45
43
51
8
35
24
47
22
11
50
25
21
18
13
7
42
33
20
29
26
19
31
49
40
48
44
27
6
9
28
52
17
23
5
16
46
4
39
36
32
10
3
30
14
41
15
12
34
38
37
2

>  <PUBCHEM_MMFF94_PARTIAL_CHARGES>  (1) 
39
1 -0.34
10 -0.15
11 -0.15
12 -0.15
13 -0.15
14 0.09
16 -0.15
17 -0.15
18 -0.15
19 -0.15
2 -0.43
20 0.42
22 0.28
23 -0.14
24 0.63
26 -0.15
27 -0.15
28 -0.15
29 -0.15
3 -0.57
30 -0.15
31 0.15
32 0.15
33 0.15
34 0.15
37 0.15
38 0.15
39 0.15
4 0.59
40 0.15
5 -0.71
50 0.15
51 0.15
52 0.15
53 0.15
54 0.15
6 -0.15
8 -0.02
9 0.35

>  <PUBCHEM_EFFECTIVE_ROTOR_COUNT>  (1) 
9

>  <PUBCHEM_PHARMACOPHORE_FEATURES>  (1) 
6
1 25 hydrophobe
1 3 acceptor
5 4 5 6 7 9 rings
6 23 26 27 28 29 30 rings
6 6 7 10 11 16 17 rings
6 8 12 13 14 18 19 rings

>  <PUBCHEM_HEAVY_ATOM_COUNT>  (1) 
30

>  <PUBCHEM_ATOM_DEF_STEREO_COUNT>  (1) 
0

>  <PUBCHEM_ATOM_UDEF_STEREO_COUNT>  (1) 
0

>  <PUBCHEM_BOND_DEF_STEREO_COUNT>  (1) 
0

>  <PUBCHEM_BOND_UDEF_STEREO_COUNT>  (1) 
0

>  <PUBCHEM_ISOTOPIC_ATOM_COUNT>  (1) 
0

>  <PUBCHEM_COMPONENT_COUNT>  (1) 
1

>  <PUBCHEM_CACTVS_TAUTO_COUNT>  (1) 
1

>  <PUBCHEM_CONFORMER_ID>  (1) 
000085EA00000001

>  <PUBCHEM_MMFF94_ENERGY>  (1) 
87.3321

>  <PUBCHEM_FEATURE_SELFOVERLAP>  (1) 
30.539

>  <PUBCHEM_SHAPE_FINGERPRINT>  (1) 
10209105 3 18410011040385404723
10280341 67 8357964526127593606
10411042 1 18340206401279803209
10595046 47 18408611379378848060
10622 236 18333729117866046692
11497681 19 18334296475088936436
117089 54 18410017598695152498
11809386 21 18409167684030859874
12013929 94 18411139144111357178
12166972 35 17968659457554210461
12760667 363 18338801234183643351
12788726 201 18335416902622076411
13165053 103 18199454498561232351
13248334 5 17763463220538918457
13782708 43 18060421309484874550
14344974 204 18340487760541233062
14347332 77 18411985762608637110
14931854 50 17676480679091553595
15042514 8 18412833486554278257
15347591 1 18410573973132537508
15629462 23 18334022709304514707
16087824 20 18339928118319160953
17492 89 18410293635936876064
18393751 57 17480277399504001032
19301676 85 18264488562851016683
19301679 30 18341338846189784839
21130935 74 18339638925122195642
21585481 151 18124595285616108210
21585483 132 18040705932476574106
21639891 77 18060135414428193673
23522609 53 18051450449601155409
23569943 247 18412265077798190315
25025965 108 18200859730214517047
3004659 81 17969777665274689647
32027 91 18123748923180471955
3504750 166 18337108939337601820
397830 11 17988065739717367416
406291 66 18410008845340683302
5104073 3 18131073731979013408
513202 73 18272371979600980647
5718773 13 18408882936943743030
6058803 2 18189063010257209932
6691757 9 18055353544186414385
6698420 124 17412478926231362137
6700243 42 17700169622784106268
77188 2 18268712899784035873
7970288 3 18268992162488326175
9555976 147 18129107723752904656

>  <PUBCHEM_SHAPE_MULTIPOLES>  (1) 
589.82
22.4
6.76
0.97
34.45
2.09
-0.08
-40.48
1.28
-7.02
1.53
-0.62
-0.47
-3.26

>  <PUBCHEM_SHAPE_SELFOVERLAP>  (1) 
1283.661

>  <PUBCHEM_SHAPE_VOLUME>  (1) 
322.1

>  <PUBCHEM_COORDINATE_TYPE>  (1) 
2
5
10

$$$$
