34289
     RDKit          3D

 11 11  0  0  0  0  0  0  0  0999 V2000
   -0.4980    3.0000   -0.0031 O   0  0  0  0  0  0  0  0  0  0  0  0
    1.7433   -0.4461    0.0005 N   0  0  0  0  0  0  0  0  0  0  0  0
    0.3326   -0.5221    0.0007 C   0  0  0  0  0  0  0  0  0  0  0  0
   -0.4470    0.6345   -0.0004 C   0  0  0  0  0  0  0  0  0  0  0  0
   -0.2793   -1.7755    0.0014 C   0  0  0  0  0  0  0  0  0  0  0  0
    2.4737   -0.4075   -1.2494 C   0  0  0  0  0  0  0  0  0  0  0  0
    2.4731   -0.3918    1.2502 C   0  0  0  0  0  0  0  0  0  0  0  0
   -1.8386    0.5377   -0.0004 C   0  0  0  0  0  0  0  0  0  0  0  0
   -1.6708   -1.8724    0.0015 C   0  0  0  0  0  0  0  0  0  0  0  0
   -2.4505   -0.7158    0.0006 C   0  0  0  0  0  0  0  0  0  0  0  0
    0.1615    1.9589   -0.0016 C   0  0  0  0  0  0  0  0  0  0  0  0
  1 11  2  0
  2  3  1  0
  2  6  1  0
  2  7  1  0
  3  4  2  0
  3  5  1  0
  4  8  1  0
  4 11  1  0
  5  9  2  0
  8 10  2  0
  9 10  1  0
M  END
>  <PUBCHEM_COMPOUND_CID>  (1) 
34289

>  <PUBCHEM_CONFORMER_RMSD>  (1) 
0.4

>  <PUBCHEM_CONFORMER_DIVERSEORDER>  (1) 
1
2
4
3
5

>  <PUBCHEM_MMFF94_PARTIAL_CHARGES>  (1) 
16
1 -0.57
10 -0.15
11 0.42
12 0.15
19 0.15
2 -0.84
20 0.15
21 0.15
22 0.06
3 0.1
4 0.09
5 -0.15
6 0.37
7 0.37
8 -0.15
9 -0.15

>  <PUBCHEM_EFFECTIVE_ROTOR_COUNT>  (1) 
2

>  <PUBCHEM_PHARMACOPHORE_FEATURES>  (1) 
3
1 1 acceptor
1 2 cation
6 3 4 5 8 9 10 rings

>  <PUBCHEM_HEAVY_ATOM_COUNT>  (1) 
11

>  <PUBCHEM_ATOM_DEF_STEREO_COUNT>  (1) 
0

>  <PUBCHEM_ATOM_UDEF_STEREO_COUNT>  (1) 
0

>  <PUBCHEM_BOND_DEF_STEREO_COUNT>  (1) 
0

>  <PUBCHEM_BOND_UDEF_STEREO_COUNT>  (1) 
0

>  <PUBCHEM_ISOTOPIC_ATOM_COUNT>  (1) 
0

>  <PUBCHEM_COMPONENT_COUNT>  (1) 
1

>  <PUBCHEM_CACTVS_TAUTO_COUNT>  (1) 
1

>  <PUBCHEM_CONFORMER_ID>  (1) 
000085F100000001

>  <PUBCHEM_MMFF94_ENERGY>  (1) 
50.9355

>  <PUBCHEM_FEATURE_SELFOVERLAP>  (1) 
15.223

>  <PUBCHEM_SHAPE_FINGERPRINT>  (1) 
10857977 72 18341602758960364746
12423570 1 10840083965833816791
12524768 44 18272087257359734510
12716758 59 18053666876147735766
161256 15 17687760740779345047
16945 1 18338517434896168611
193761 8 17834114526018481003
20645477 70 17691966386021117095
20711985 344 18340779126103880670
21040471 1 17834113044001432868
22802520 49 18057345902115400902
23552423 10 17758112987940028935
23559900 14 17481147796470422230
241688 4 18412266142247316129
2748010 2 18339919424006790325
5084963 1 18057329375038800622
528862 383 17761765569730436915
7364860 26 17767412644271013537
81228 2 18340207375704714105

>  <PUBCHEM_SHAPE_MULTIPOLES>  (1) 
215.52
3.21
2.39
0.9
0.75
1.85
0
-1.26
0
-0.63
0
0.73
-0.17
0.01

>  <PUBCHEM_SHAPE_SELFOVERLAP>  (1) 
442.368

>  <PUBCHEM_SHAPE_VOLUME>  (1) 
125.2

>  <PUBCHEM_COORDINATE_TYPE>  (1) 
2
5
10

$$$$
