34302
     RDKit          3D

 21 21  0  0  1  0  0  0  0  0999 V2000
   -2.9891   -0.6820    1.4832 O   0  0  0  0  0  0  0  0  0  0  0  0
   -1.0800   -2.6247    0.5973 O   0  0  0  0  0  0  0  0  0  0  0  0
   -0.2874   -2.3322   -1.5081 O   0  0  0  0  0  0  0  0  0  0  0  0
    0.3385    0.2591   -0.8828 N   0  0  0  0  0  0  0  0  0  0  0  0
   -4.4345    0.5878    0.1896 N   0  0  0  0  0  0  0  0  0  0  0  0
   -0.7405   -0.3731   -0.1263 C   0  0  0  0  0  0  0  0  0  0  0  0
   -2.0852    0.2412   -0.5420 C   0  0  0  0  0  0  0  0  0  0  0  0
    1.6150    0.0803   -0.2081 C   0  0  0  0  0  0  0  0  0  0  0  0
   -3.1976   -0.0010    0.4757 C   0  0  0  0  0  0  0  0  0  0  0  0
    2.7483    0.7372   -0.9969 C   0  0  0  0  0  0  0  0  0  0  0  0
   -4.7318    1.4014   -0.9871 C   0  0  0  0  0  0  0  0  0  0  0  0
   -5.5526    0.3889    1.1036 C   0  0  0  0  0  0  0  0  0  0  0  0
   -0.6683   -1.8567   -0.4465 C   0  0  0  0  0  0  0  0  0  0  0  0
    4.0810    0.5399   -0.3194 C   0  0  0  0  0  0  0  0  0  0  0  0
   -4.4559    2.8686   -0.7314 C   0  0  0  0  0  0  0  0  0  0  0  0
   -6.3601   -0.8380    0.7338 C   0  0  0  0  0  0  0  0  0  0  0  0
    4.5341    1.4728    0.6134 C   0  0  0  0  0  0  0  0  0  0  0  0
    4.8604   -0.5759   -0.6250 C   0  0  0  0  0  0  0  0  0  0  0  0
    5.7666    1.2903    1.2404 C   0  0  0  0  0  0  0  0  0  0  0  0
    6.0930   -0.7584    0.0021 C   0  0  0  0  0  0  0  0  0  0  0  0
    6.5461    0.1747    0.9348 C   0  0  0  0  0  0  0  0  0  0  0  0
  1  9  2  0
  2 13  1  0
  3 13  2  0
  4  6  1  0
  4  8  1  0
  5  9  1  0
  5 11  1  0
  5 12  1  0
  6  7  1  0
  6 13  1  0
  7  9  1  0
  8 10  1  0
 10 14  1  0
 11 15  1  0
 12 16  1  0
 14 17  2  0
 14 18  1  0
 17 19  1  0
 18 20  2  0
 19 21  2  0
 20 21  1  0
M  END
>  <PUBCHEM_COMPOUND_CID>  (1) 
34302

>  <PUBCHEM_CONFORMER_RMSD>  (1) 
1

>  <PUBCHEM_CONFORMER_DIVERSEORDER>  (1) 
1
13
81
8
43
106
76
148
121
24
73
135
146
83
147
45
97
158
109
57
142
99
2
130
157
92
91
136
82
44
125
163
65
111
103
117
40
120
116
47
48
52
49
72
78
156
112
27
96
159
51
132
86
87
162
84
50
94
62
145
3
123
16
54
85
9
150
37
129
131
118
138
160
60
25
114
80
33
108
71
100
14
141
26
127
140
64
55
59
152
35
104
32
126
161
164
28
31
143
113
42
6
53
12
122
101
7
107
69
115
5
41
77
63
74
153
39
93
70
88
17
30
128
102
95
155
134
151
67
58
89
124
11
66
19
119
68
10
34
46
137
105
90
56
38
20
98
18
79
139
15
149
133
21
61
36
4
23
154
110
144
29
75
22

>  <PUBCHEM_MMFF94_PARTIAL_CHARGES>  (1) 
26
1 -0.57
10 0.14
11 0.3
12 0.3
13 0.66
14 -0.14
17 -0.15
18 -0.15
19 -0.15
2 -0.65
20 -0.15
21 -0.15
27 0.36
3 -0.57
4 -0.9
40 0.15
41 0.15
42 0.15
43 0.15
44 0.5
45 0.15
5 -0.66
6 0.33
7 0.06
8 0.27
9 0.57

>  <PUBCHEM_EFFECTIVE_ROTOR_COUNT>  (1) 
10

>  <PUBCHEM_PHARMACOPHORE_FEATURES>  (1) 
7
1 1 acceptor
1 2 acceptor
1 3 acceptor
1 4 cation
1 4 donor
3 2 3 13 anion
6 14 17 18 19 20 21 rings

>  <PUBCHEM_HEAVY_ATOM_COUNT>  (1) 
21

>  <PUBCHEM_ATOM_DEF_STEREO_COUNT>  (1) 
0

>  <PUBCHEM_ATOM_UDEF_STEREO_COUNT>  (1) 
1

>  <PUBCHEM_BOND_DEF_STEREO_COUNT>  (1) 
0

>  <PUBCHEM_BOND_UDEF_STEREO_COUNT>  (1) 
0

>  <PUBCHEM_ISOTOPIC_ATOM_COUNT>  (1) 
0

>  <PUBCHEM_COMPONENT_COUNT>  (1) 
1

>  <PUBCHEM_CACTVS_TAUTO_COUNT>  (1) 
1

>  <PUBCHEM_CONFORMER_ID>  (1) 
000085FE00000001

>  <PUBCHEM_MMFF94_ENERGY>  (1) 
33.489

>  <PUBCHEM_FEATURE_SELFOVERLAP>  (1) 
35.582

>  <PUBCHEM_SHAPE_FINGERPRINT>  (1) 
10 15 18335420214216012568
10692045 39 18270400482438666706
11089746 13 17274816965952412960
11646440 116 18202290211884037304
12403259 118 18040438784972127253
12596602 18 17240484727564365520
12633257 1 16081091484789055200
13167372 99 17131560444549185856
13533116 47 17703514290580553022
13740256 8 9439106668254677709
13914758 101 15791723101961407749
14251758 9 18260546714948458156
14251764 18 17240769501492100012
14251764 30 11963398435482101376
14347332 77 10665764717197676656
14466204 15 18335419019682776341
14528608 73 13614518571993428912
14840074 17 13118002201442578488
15348495 7 18335140950957594496
15537594 2 13262395587889090584
16994733 274 15769509646707285611
1813 80 13551476929858160862
18222031 100 12107788548656326628
19489759 90 17967533467632551361
20157964 124 17060627676770968534
20197701 30 18412543180438758159
20281389 69 18411980278152113128
21033648 29 18341598318054410312
21236236 1 18131066095411103399
21315764 268 18336262435227132420
21403212 168 18335414647410902123
21859007 373 18263635174487006060
221357 26 11097848593579157206
22224240 67 18341617027685831779
22950370 63 13334739037606450422
23402539 116 18201431489070846516
23503953 91 18338231682886431204
23522609 53 15286504032552570740
238078 22 10592043557439465381
2767999 5 17418371394075853248
2838139 119 16773792584785159336
2916195 48 18273493472591763241
34797466 226 10303813198641611866
351380 3 14779263120707019136
4340502 62 18130794455640254254
465052 167 14779552292317586090
5104073 3 18116720617037429577
5385378 56 18268158569359946875
5924683 9 18127968813947179590
59755656 520 17846497049861193303
7226269 152 18273213093042872352
9981440 41 18188214200322925889

>  <PUBCHEM_SHAPE_MULTIPOLES>  (1) 
404.6
17.65
2.1
1.22
6.94
0.12
-0.08
-5.02
-5.48
-1.91
0.42
-0.18
0.03
1.63

>  <PUBCHEM_SHAPE_SELFOVERLAP>  (1) 
807.779

>  <PUBCHEM_SHAPE_VOLUME>  (1) 
238.3

>  <PUBCHEM_COORDINATE_TYPE>  (1) 
2
5
10

$$$$
