34320
     RDKit          3D

 11 10  0  0  0  0  0  0  0  0999 V2000
   -0.9669   -0.8881    0.1688 C   0  0  0  0  0  0  0  0  0  0  0  0
   -1.9948    0.1582   -0.2746 C   0  0  0  0  0  0  0  0  0  0  0  0
    0.4584   -0.5729   -0.2932 C   0  0  0  0  0  0  0  0  0  0  0  0
   -3.4151   -0.1453    0.2101 C   0  0  0  0  0  0  0  0  0  0  0  0
    1.4442   -1.6435    0.1875 C   0  0  0  0  0  0  0  0  0  0  0  0
   -4.4379    0.9077   -0.2247 C   0  0  0  0  0  0  0  0  0  0  0  0
    2.8941   -1.3652   -0.2227 C   0  0  0  0  0  0  0  0  0  0  0  0
   -5.8629    0.5761    0.1907 C   0  0  0  0  0  0  0  0  0  0  0  0
    3.4505   -0.1042    0.3740 C   0  0  0  0  0  0  0  0  0  0  0  0
    3.9433    0.9092   -0.3530 C   0  0  0  0  0  0  0  0  0  0  0  0
    4.4870    2.1680    0.2371 C   0  0  0  0  0  0  0  0  0  0  0  0
  1  2  1  0
  1  3  1  0
  2  4  1  0
  3  5  1  0
  4  6  1  0
  5  7  1  0
  6  8  1  0
  7  9  1  0
  9 10  2  0
 10 11  1  0
M  END
>  <PUBCHEM_COMPOUND_CID>  (1) 
34320

>  <PUBCHEM_CONFORMER_RMSD>  (1) 
0.6

>  <PUBCHEM_CONFORMER_DIVERSEORDER>  (1) 
2
212
1
63
99
184
113
228
43
123
17
211
48
61
59
16
64
146
187
181
130
167
70
150
232
18
9
224
230
60
38
41
118
116
95
114
4
122
214
106
220
76
163
23
234
3
49
151
5
21
192
36
98
215
109
6
231
77
188
19
169
195
42
12
208
32
137
115
222
196
138
96
14
126
34
157
171
134
81
56
65
90
177
153
24
213
120
202
235
15
33
111
236
204
117
88
69
28
124
129
183
156
221
83
149
140
125
217
40
31
53
74
54
104
168
27
103
154
58
11
148
86
227
85
8
73
216
159
71
175
46
206
75
55
197
35
87
30
20
178
205
179
47
25
51
161
57
102
219
136
66
105
200
185
190
145
233
52
155
201
209
186
142
13
158
199
176
39
89
203
173
110
165
166
107
45
223
82
229
172
180
97
152
121
44
131
225
50
78
62
160
207
7
112
100
174
226
84
79
194
128
68
101
164
162
80
26
10
93
67
210
119
72
135
147
191
182
92
198
133
193
22
139
144
91
37
127
94
29
143
189
218
108
132
170
141

>  <PUBCHEM_MMFF94_PARTIAL_CHARGES>  (1) 
6
10 -0.29
11 0.14
29 0.15
30 0.15
7 0.14
9 -0.29

>  <PUBCHEM_EFFECTIVE_ROTOR_COUNT>  (1) 
7

>  <PUBCHEM_PHARMACOPHORE_FEATURES>  (1) 
2
1 11 hydrophobe
1 8 hydrophobe

>  <PUBCHEM_HEAVY_ATOM_COUNT>  (1) 
11

>  <PUBCHEM_ATOM_DEF_STEREO_COUNT>  (1) 
0

>  <PUBCHEM_ATOM_UDEF_STEREO_COUNT>  (1) 
0

>  <PUBCHEM_BOND_DEF_STEREO_COUNT>  (1) 
0

>  <PUBCHEM_BOND_UDEF_STEREO_COUNT>  (1) 
1

>  <PUBCHEM_ISOTOPIC_ATOM_COUNT>  (1) 
0

>  <PUBCHEM_COMPONENT_COUNT>  (1) 
1

>  <PUBCHEM_CACTVS_TAUTO_COUNT>  (1) 
1

>  <PUBCHEM_CONFORMER_ID>  (1) 
0000861000000002

>  <PUBCHEM_MMFF94_ENERGY>  (1) 
-3.484

>  <PUBCHEM_FEATURE_SELFOVERLAP>  (1) 
10.149

>  <PUBCHEM_SHAPE_FINGERPRINT>  (1) 
100836 57 18334299803372261236
11287383 113 18408888434448738355
11858739 19 8790889566750873521
122479 349 18262238953654170826
12616999 72 16559033761729062206
13081056 2 18335702702345828757
13237642 15 18040443204572089235
13955234 65 18263363598940576762
14123238 8 18335421249434772111
1420 369 10737276940103355872
14251732 16 18410014381927301315
14455015 7 10807931596285845773
14774955 27 18409164454395139420
15342168 16 18262240035774907268
16079462 125 17676758796089114917
177051 138 8718833089309535790
17834072 32 18340488966592540702
17834072 33 18273209816277847719
20605781 2 18410293635466896993
20621476 66 18264488572184216876
20621476 91 17096386075918909785
20645477 70 18200032824381443655
20767249 142 9367355837997945668
212847 35 18272929414747529616
21354914 76 8862944978760753096
21652331 79 18410009923060469797
22926399 37 18131073757141713697
22959321 54 18413110554493272528
22959321 60 18187088398599106434
23272321 79 18410575123971918831
23402539 116 12540698133270933931
23402655 69 18131349717369827534
23532345 1 18410577262285702026
270888 7 18267302230649854616
4047638 21 18335140877885036770
42 15 10953459617916579255
42788 4 18410575046789159983
449060 50 18408604747363351647
449060 62 18413388730945369770
465052 167 8214140780660422976
4990 188 12391508676734875799
5374978 207 17967811613418458736
573450 72 13190340154345916349
59682541 52 17345775048647928596
94968 8 10087647005202968404

>  <PUBCHEM_SHAPE_MULTIPOLES>  (1) 
226.37
12.34
1.75
0.68
10.68
0.36
0
7.03
-0.53
-2.49
-0.08
-0.06
0.01
0.18

>  <PUBCHEM_SHAPE_SELFOVERLAP>  (1) 
400.58

>  <PUBCHEM_SHAPE_VOLUME>  (1) 
148.4

>  <PUBCHEM_COORDINATE_TYPE>  (1) 
2
5
10

$$$$
