34329
     RDKit          3D

 21 22  0  0  0  0  0  0  0  0999 V2000
   -3.1347   -1.6186    1.7532 S   0  0  0  0  0  0  0  0  0  0  0  0
   -3.0425   -0.1642    0.4512 P   0  0  0  0  0  0  0  0  0  0  0  0
   -0.2454   -0.6482    0.2448 O   0  0  0  0  0  0  0  0  0  0  0  0
   -2.3641    1.2006    1.0298 O   0  0  0  0  0  0  0  0  0  0  0  0
   -4.4961    0.3753   -0.0567 O   0  0  0  0  0  0  0  0  0  0  0  0
   -0.1261   -1.0067   -2.0401 O   0  0  0  0  0  0  0  0  0  0  0  0
   -2.1738   -0.5206   -1.0336 N   0  0  0  0  0  0  0  0  0  0  0  0
    2.0171    0.1926    0.1518 C   0  0  0  0  0  0  0  0  0  0  0  0
    3.4043   -0.0803    0.2145 C   0  0  0  0  0  0  0  0  0  0  0  0
    1.1339   -0.8680    0.3002 C   0  0  0  0  0  0  0  0  0  0  0  0
    1.5855    1.5128   -0.0561 C   0  0  0  0  0  0  0  0  0  0  0  0
    3.8361   -1.4004    0.4228 C   0  0  0  0  0  0  0  0  0  0  0  0
    1.5490   -2.1686    0.5047 C   0  0  0  0  0  0  0  0  0  0  0  0
    4.3192    0.9751    0.0675 C   0  0  0  0  0  0  0  0  0  0  0  0
   -0.7897   -0.7499   -1.0371 C   0  0  0  0  0  0  0  0  0  0  0  0
    2.9132   -2.4368    0.5669 C   0  0  0  0  0  0  0  0  0  0  0  0
   -2.9069   -0.5839   -2.2931 C   0  0  0  0  0  0  0  0  0  0  0  0
    2.5085    2.5489   -0.2004 C   0  0  0  0  0  0  0  0  0  0  0  0
    3.8727    2.2807   -0.1388 C   0  0  0  0  0  0  0  0  0  0  0  0
   -2.3776    2.3942    0.2643 C   0  0  0  0  0  0  0  0  0  0  0  0
   -5.4827    0.7660    0.8840 C   0  0  0  0  0  0  0  0  0  0  0  0
  1  2  2  0
  2  4  1  0
  2  5  1  0
  2  7  1  0
  3 10  1  0
  3 15  1  0
  4 20  1  0
  5 21  1  0
  6 15  2  0
  7 15  1  0
  7 17  1  0
  8  9  1  0
  8 10  2  0
  8 11  1  0
  9 12  2  0
  9 14  1  0
 10 13  1  0
 11 18  2  0
 12 16  1  0
 13 16  2  0
 14 19  2  0
 18 19  1  0
M  END
>  <PUBCHEM_COMPOUND_CID>  (1) 
34329

>  <PUBCHEM_CONFORMER_RMSD>  (1) 
0.8

>  <PUBCHEM_CONFORMER_DIVERSEORDER>  (1) 
2
66
143
132
178
10
169
165
139
76
95
92
67
87
158
166
122
55
156
152
157
105
85
173
64
125
48
90
115
16
123
58
144
127
162
80
164
179
174
117
88
61
89
43
47
159
111
46
161
142
134
8
126
65
175
148
141
107
81
24
113
119
167
53
97
118
131
28
154
35
84
145
110
160
99
86
59
15
182
20
146
102
21
112
44
93
140
52
41
137
130
42
77
138
94
23
18
106
30
170
163
181
109
149
14
79
108
114
63
128
103
68
70
176
74
116
62
147
171
31
49
57
45
72
153
185
33
101
83
177
37
40
129
60
22
71
124
120
75
7
26
133
5
32
39
91
50
27
82
56
184
13
121
54
69
34
36
151
78
6
183
172
100
96
136
38
104
150
155
1
17
51
168
98
25
11
19
180
135
4
73
3
12
9
29

>  <PUBCHEM_MMFF94_PARTIAL_CHARGES>  (1) 
26
1 -0.68
10 0.08
11 -0.15
12 -0.15
13 -0.15
14 -0.15
15 0.78
16 -0.15
17 0.3
18 -0.15
19 -0.15
2 1.48
20 0.28
21 0.28
22 0.15
23 0.15
24 0.15
25 0.15
26 0.15
3 -0.23
30 0.15
31 0.15
4 -0.55
5 -0.55
6 -0.57
7 -0.62

>  <PUBCHEM_EFFECTIVE_ROTOR_COUNT>  (1) 
6

>  <PUBCHEM_PHARMACOPHORE_FEATURES>  (1) 
3
1 6 acceptor
6 8 9 10 12 13 16 rings
6 8 9 11 14 18 19 rings

>  <PUBCHEM_HEAVY_ATOM_COUNT>  (1) 
21

>  <PUBCHEM_ATOM_DEF_STEREO_COUNT>  (1) 
0

>  <PUBCHEM_ATOM_UDEF_STEREO_COUNT>  (1) 
0

>  <PUBCHEM_BOND_DEF_STEREO_COUNT>  (1) 
0

>  <PUBCHEM_BOND_UDEF_STEREO_COUNT>  (1) 
0

>  <PUBCHEM_ISOTOPIC_ATOM_COUNT>  (1) 
0

>  <PUBCHEM_COMPONENT_COUNT>  (1) 
1

>  <PUBCHEM_CACTVS_TAUTO_COUNT>  (1) 
1

>  <PUBCHEM_CONFORMER_ID>  (1) 
0000861900000002

>  <PUBCHEM_MMFF94_ENERGY>  (1) 
52.674

>  <PUBCHEM_FEATURE_SELFOVERLAP>  (1) 
15.249

>  <PUBCHEM_SHAPE_FINGERPRINT>  (1) 
11045977 3 18113907060886291035
11370993 144 18186524280778616467
11370993 70 18187368744173699859
11552529 35 18264773340746670811
12236239 1 18060415820189635586
12553582 1 18048023087479518194
12633257 1 18113897134989887123
13140716 1 18191017014312554640
13533116 47 18188214195848993595
13583140 156 18337961189697835625
14223421 5 18261114075411266545
14251764 38 18124314905212440829
14341114 176 18334586719645047225
15342168 16 18115031942764682228
15442244 35 18267582408229164416
16752209 62 16844713357035996295
16945 1 18337381725853825086
1813 80 17984709909580816878
18186145 218 18337104666050611070
18219364 16 17969209187513716244
20261772 1 18131349683105171009
20715895 44 17695067700438271833
20739085 24 18114180848367693220
21033648 29 17385996248737402325
21041028 32 18265328405007780232
21503847 285 18341337716939894046
21756936 100 18124883606079007660
22854114 111 18410009966073023952
23557571 272 14404602377342008327
23559900 14 18335422335439357123
23598291 2 18201427074197913638
25 1 18335698407969259350
4409770 3 15605988842414744759
474 4 18336261357564276780
49207404 50 17969511591808207090
5104073 3 18260550051774174403
602551 16 15864073203871395146
6049 1 17531238414176513542
633830 44 18340773740383645004
77492 1 18060692909994284998
81228 2 17329120500797067994
8272917 22 18411423881975796538
84936 182 18129090311818336704

>  <PUBCHEM_SHAPE_MULTIPOLES>  (1) 
411.41
9.33
2.66
1.43
4.94
0.52
0.79
2.25
-2.08
-2.15
-0.58
1.78
-0.52
-0.39

>  <PUBCHEM_SHAPE_SELFOVERLAP>  (1) 
838.075

>  <PUBCHEM_SHAPE_VOLUME>  (1) 
241.2

>  <PUBCHEM_COORDINATE_TYPE>  (1) 
2
5
10

$$$$
