34338
     RDKit          3D

  7  7  0  0  0  0  0  0  0  0999 V2000
    1.7858   -0.0003    0.0001 O   0  0  0  0  0  0  0  0  0  0  0  0
   -0.3475    0.7077    0.0001 C   0  0  0  0  0  0  0  0  0  0  0  0
   -0.3475   -0.7076   -0.0003 C   0  0  0  0  0  0  0  0  0  0  0  0
   -1.5189    1.6029   -0.0002 C   0  0  0  0  0  0  0  0  0  0  0  0
   -1.5197   -1.6025    0.0003 C   0  0  0  0  0  0  0  0  0  0  0  0
    0.9739    1.0895    0.0002 C   0  0  0  0  0  0  0  0  0  0  0  0
    0.9738   -1.0898   -0.0003 C   0  0  0  0  0  0  0  0  0  0  0  0
  1  6  1  0
  1  7  1  0
  2  3  1  0
  2  4  1  0
  2  6  2  0
  3  5  1  0
  3  7  2  0
M  END
>  <PUBCHEM_COMPOUND_CID>  (1) 
34338

>  <PUBCHEM_CONFORMER_RMSD>  (1) 
0.4

>  <PUBCHEM_CONFORMER_DIVERSEORDER>  (1) 
1

>  <PUBCHEM_MMFF94_PARTIAL_CHARGES>  (1) 
9
1 -0.28
14 0.15
15 0.15
2 -0.18
3 -0.18
4 0.18
5 0.18
6 -0.01
7 -0.01

>  <PUBCHEM_EFFECTIVE_ROTOR_COUNT>  (1) 
0

>  <PUBCHEM_PHARMACOPHORE_FEATURES>  (1) 
2
1 1 acceptor
5 1 2 3 6 7 rings

>  <PUBCHEM_HEAVY_ATOM_COUNT>  (1) 
7

>  <PUBCHEM_ATOM_DEF_STEREO_COUNT>  (1) 
0

>  <PUBCHEM_ATOM_UDEF_STEREO_COUNT>  (1) 
0

>  <PUBCHEM_BOND_DEF_STEREO_COUNT>  (1) 
0

>  <PUBCHEM_BOND_UDEF_STEREO_COUNT>  (1) 
0

>  <PUBCHEM_ISOTOPIC_ATOM_COUNT>  (1) 
0

>  <PUBCHEM_COMPONENT_COUNT>  (1) 
1

>  <PUBCHEM_CACTVS_TAUTO_COUNT>  (1) 
1

>  <PUBCHEM_CONFORMER_ID>  (1) 
0000862200000001

>  <PUBCHEM_MMFF94_ENERGY>  (1) 
3.1444

>  <PUBCHEM_FEATURE_SELFOVERLAP>  (1) 
10.148

>  <PUBCHEM_SHAPE_FINGERPRINT>  (1) 
18185500 45 17836930370749137935
20096714 4 18194683657335688136
21040471 1 18266458694080958084
23552423 10 18260555515426423510
29004967 10 17831018292378806819

>  <PUBCHEM_SHAPE_MULTIPOLES>  (1) 
138.19
1.94
1.87
0.6
0.06
0
0
0
0
-0.8
0
-0.02
0
0

>  <PUBCHEM_SHAPE_SELFOVERLAP>  (1) 
281.841

>  <PUBCHEM_SHAPE_VOLUME>  (1) 
83.5

>  <PUBCHEM_COORDINATE_TYPE>  (1) 
2
5
10

$$$$
