34333
     RDKit          3D

 23 23  0  0  0  0  0  0  0  0999 V2000
   -2.4378   -2.4372    1.3479 S   0  0  0  0  0  0  0  0  0  0  0  0
   -2.4242   -0.7811    0.3105 P   0  0  0  0  0  0  0  0  0  0  0  0
   -1.9240    0.5229    1.1512 O   0  0  0  0  0  0  0  0  0  0  0  0
   -3.8951   -0.3007   -0.2065 O   0  0  0  0  0  0  0  0  0  0  0  0
    2.0161    1.3254    0.4170 O   0  0  0  0  0  0  0  0  0  0  0  0
    0.4151   -0.9617    0.2306 O   0  0  0  0  0  0  0  0  0  0  0  0
    0.6982   -0.9155   -2.0675 O   0  0  0  0  0  0  0  0  0  0  0  0
   -1.4418   -0.7990   -1.1459 N   0  0  0  0  0  0  0  0  0  0  0  0
    2.4105    2.2039   -0.6350 C   0  0  0  0  0  0  0  0  0  0  0  0
    2.5902    0.0904    0.4403 C   0  0  0  0  0  0  0  0  0  0  0  0
    1.8045   -1.0587    0.3489 C   0  0  0  0  0  0  0  0  0  0  0  0
   -0.0433   -0.8950   -1.0867 C   0  0  0  0  0  0  0  0  0  0  0  0
   -2.0930   -0.7159   -2.4485 C   0  0  0  0  0  0  0  0  0  0  0  0
   -2.0183    1.8225    0.5915 C   0  0  0  0  0  0  0  0  0  0  0  0
   -4.9679   -0.1682    0.7116 C   0  0  0  0  0  0  0  0  0  0  0  0
    3.0569    3.4439   -0.0362 C   0  0  0  0  0  0  0  0  0  0  0  0
    1.1943    2.5508   -1.4801 C   0  0  0  0  0  0  0  0  0  0  0  0
    3.9759   -0.0198    0.5570 C   0  0  0  0  0  0  0  0  0  0  0  0
    2.4047   -2.3176    0.3742 C   0  0  0  0  0  0  0  0  0  0  0  0
    4.5760   -1.2787    0.5821 C   0  0  0  0  0  0  0  0  0  0  0  0
    3.7904   -2.4276    0.4907 C   0  0  0  0  0  0  0  0  0  0  0  0
   -1.4845    2.8289    1.5885 C   0  0  0  0  0  0  0  0  0  0  0  0
   -6.2029    0.2879   -0.0356 C   0  0  0  0  0  0  0  0  0  0  0  0
  1  2  2  0
  2  3  1  0
  2  4  1  0
  2  8  1  0
  3 14  1  0
  4 15  1  0
  5  9  1  0
  5 10  1  0
  6 11  1  0
  6 12  1  0
  7 12  2  0
  8 12  1  0
  8 13  1  0
  9 16  1  0
  9 17  1  0
 10 11  2  0
 10 18  1  0
 11 19  1  0
 14 22  1  0
 15 23  1  0
 18 20  2  0
 19 21  2  0
 20 21  1  0
M  END
>  <PUBCHEM_COMPOUND_CID>  (1) 
34333

>  <PUBCHEM_CONFORMER_RMSD>  (1) 
1

>  <PUBCHEM_CONFORMER_DIVERSEORDER>  (1) 
1
21
11
15
35
25
29
48
36
70
46
10
57
12
74
37
32
72
61
60
17
23
68
63
55
13
34
64
73
18
66
19
31
7
8
9
27
5
41
45
62
39
65
26
33
30
51
40
16
75
49
24
6
4
28
58
22
3
53
59
67
38
69
50
52
71
77
47
14
2
20
54
42
76
56
43
44

>  <PUBCHEM_MMFF94_PARTIAL_CHARGES>  (1) 
23
1 -0.68
10 0.08
11 0.08
12 0.78
13 0.3
14 0.28
15 0.28
18 -0.15
19 -0.15
2 1.48
20 -0.15
21 -0.15
3 -0.55
38 0.15
39 0.15
4 -0.55
40 0.15
41 0.15
5 -0.36
6 -0.23
7 -0.57
8 -0.62
9 0.28

>  <PUBCHEM_EFFECTIVE_ROTOR_COUNT>  (1) 
10

>  <PUBCHEM_PHARMACOPHORE_FEATURES>  (1) 
4
1 5 acceptor
1 7 acceptor
3 9 16 17 hydrophobe
6 10 11 18 19 20 21 rings

>  <PUBCHEM_HEAVY_ATOM_COUNT>  (1) 
23

>  <PUBCHEM_ATOM_DEF_STEREO_COUNT>  (1) 
0

>  <PUBCHEM_ATOM_UDEF_STEREO_COUNT>  (1) 
0

>  <PUBCHEM_BOND_DEF_STEREO_COUNT>  (1) 
0

>  <PUBCHEM_BOND_UDEF_STEREO_COUNT>  (1) 
0

>  <PUBCHEM_ISOTOPIC_ATOM_COUNT>  (1) 
0

>  <PUBCHEM_COMPONENT_COUNT>  (1) 
1

>  <PUBCHEM_CACTVS_TAUTO_COUNT>  (1) 
1

>  <PUBCHEM_CONFORMER_ID>  (1) 
0000861D00000001

>  <PUBCHEM_MMFF94_ENERGY>  (1) 
47.674

>  <PUBCHEM_FEATURE_SELFOVERLAP>  (1) 
20.297

>  <PUBCHEM_SHAPE_FINGERPRINT>  (1) 
12236239 1 17917703621946779354
12403814 3 17703500009603082635
12633257 1 17968084361090410474
12788726 201 17631749235054832681
13140716 1 18192140719464969074
13533116 47 18333172769335550523
14251764 38 18339927000920691213
14341114 176 18409735044905456730
15238133 3 18263093127579673300
15375462 478 18343018874059972267
17980427 23 18128540366893985841
1813 80 18268437845730068598
192875 21 18411983533462646777
20261772 1 17774996860630814394
20715895 44 18125440813925307577
21033648 29 17458609126159179445
21041028 32 18338231575000831820
23402539 116 18201429247762633703
23557571 272 16845301488155553801
23558518 356 17912946997554084177
23559900 14 18408322189796757691
44154327 71 18201723998066531425
474 4 18337104695899097664
6992083 37 18128243507275303678

>  <PUBCHEM_SHAPE_MULTIPOLES>  (1) 
446.7
9.34
3.42
1.61
7.9
2.18
0.88
-1.48
-1.96
-2.98
-0.7
0.89
0.06
-0.81

>  <PUBCHEM_SHAPE_SELFOVERLAP>  (1) 
862.01

>  <PUBCHEM_SHAPE_VOLUME>  (1) 
274.6

>  <PUBCHEM_COORDINATE_TYPE>  (1) 
2
5
10

$$$$
