34334
     RDKit          3D

 22 23  0  0  0  0  0  0  0  0999 V2000
   -3.4175   -1.6782    1.6151 S   0  0  0  0  0  0  0  0  0  0  0  0
   -3.1923   -0.1420    0.4284 P   0  0  0  0  0  0  0  0  0  0  0  0
    1.6486    1.1873    0.1389 O   0  0  0  0  0  0  0  0  0  0  0  0
   -0.3916   -0.8181    0.2403 O   0  0  0  0  0  0  0  0  0  0  0  0
   -2.4337    1.1241    1.1206 O   0  0  0  0  0  0  0  0  0  0  0  0
   -4.5917    0.5365   -0.0646 O   0  0  0  0  0  0  0  0  0  0  0  0
   -0.2832   -1.0058   -2.0644 O   0  0  0  0  0  0  0  0  0  0  0  0
   -2.3153   -0.4495   -1.0626 N   0  0  0  0  0  0  0  0  0  0  0  0
    2.9511    1.8050   -0.0735 C   0  0  0  0  0  0  0  0  0  0  0  0
    4.0527    0.7823    0.2913 C   0  0  0  0  0  0  0  0  0  0  0  0
    3.2515   -0.4620    0.3178 C   0  0  0  0  0  0  0  0  0  0  0  0
    1.9033   -0.1540    0.2505 C   0  0  0  0  0  0  0  0  0  0  0  0
    3.0334    2.2221   -1.5473 C   0  0  0  0  0  0  0  0  0  0  0  0
    3.0266    3.0421    0.8227 C   0  0  0  0  0  0  0  0  0  0  0  0
    0.9270   -1.1303    0.3028 C   0  0  0  0  0  0  0  0  0  0  0  0
    3.6742   -1.7734    0.4408 C   0  0  0  0  0  0  0  0  0  0  0  0
    1.3394   -2.4588    0.4191 C   0  0  0  0  0  0  0  0  0  0  0  0
    2.7051   -2.7787    0.4869 C   0  0  0  0  0  0  0  0  0  0  0  0
   -0.9510   -0.7768   -1.0575 C   0  0  0  0  0  0  0  0  0  0  0  0
   -3.0208   -0.3669   -2.3367 C   0  0  0  0  0  0  0  0  0  0  0  0
   -2.3450    2.3688    0.4471 C   0  0  0  0  0  0  0  0  0  0  0  0
   -5.5707    0.9265    0.8844 C   0  0  0  0  0  0  0  0  0  0  0  0
  1  2  2  0
  2  5  1  0
  2  6  1  0
  2  8  1  0
  3  9  1  0
  3 12  1  0
  4 15  1  0
  4 19  1  0
  5 21  1  0
  6 22  1  0
  7 19  2  0
  8 19  1  0
  8 20  1  0
  9 10  1  0
  9 13  1  0
  9 14  1  0
 10 11  1  0
 11 12  2  0
 11 16  1  0
 12 15  1  0
 15 17  2  0
 16 18  2  0
 17 18  1  0
M  END
>  <PUBCHEM_COMPOUND_CID>  (1) 
34334

>  <PUBCHEM_CONFORMER_RMSD>  (1) 
0.8

>  <PUBCHEM_CONFORMER_DIVERSEORDER>  (1) 
1
219
236
286
122
253
272
247
299
189
285
230
90
171
267
199
229
277
240
252
280
19
167
266
175
301
309
35
116
225
202
243
226
242
250
138
73
262
154
121
245
170
182
233
181
217
211
53
103
79
55
212
234
143
311
193
294
164
97
222
297
74
306
187
23
237
232
84
136
163
241
137
208
95
190
197
157
273
268
192
255
39
284
92
99
201
144
54
200
180
178
49
105
185
310
288
119
149
249
113
184
246
235
60
41
174
263
248
123
133
258
38
93
34
172
107
148
100
147
303
32
120
42
156
215
271
161
52
104
275
198
40
313
30
45
287
132
77
293
43
66
282
224
68
168
196
264
166
239
274
152
110
27
308
101
218
183
130
194
98
150
220
260
59
191
129
15
300
96
289
31
117
195
209
251
290
279
307
57
204
36
91
114
134
61
278
221
88
270
169
89
153
141
283
295
269
62
106
80
281
173
70
8
155
238
140
21
126
78
94
111
265
82
67
47
58
85
86
296
304
216
24
124
244
312
22
146
186
256
71
5
254
115
159
127
207
145
205
165
128
257
37
131
75
210
51
151
292
176
7
20
135
158
139
109
206
298
214
65
28
302
314
291
14
50
231
17
276
18
177
228
11
118
72
125
64
227
6
213
188
44
261
16
179
305
142
81
203
108
259
10
12
112
33
76
102
162
69
87
63
56
83
4
46
48
26
223
2
3
29
160
13
9
25

>  <PUBCHEM_MMFF94_PARTIAL_CHARGES>  (1) 
23
1 -0.68
10 0.14
11 -0.14
12 0.08
15 0.08
16 -0.15
17 -0.15
18 -0.15
19 0.78
2 1.48
20 0.3
21 0.28
22 0.28
3 -0.36
31 0.15
32 0.15
33 0.15
4 -0.23
5 -0.55
6 -0.55
7 -0.57
8 -0.62
9 0.28

>  <PUBCHEM_EFFECTIVE_ROTOR_COUNT>  (1) 
6.6

>  <PUBCHEM_PHARMACOPHORE_FEATURES>  (1) 
5
1 3 acceptor
1 7 acceptor
3 9 13 14 hydrophobe
5 3 9 10 11 12 rings
6 11 12 15 16 17 18 rings

>  <PUBCHEM_HEAVY_ATOM_COUNT>  (1) 
22

>  <PUBCHEM_ATOM_DEF_STEREO_COUNT>  (1) 
0

>  <PUBCHEM_ATOM_UDEF_STEREO_COUNT>  (1) 
0

>  <PUBCHEM_BOND_DEF_STEREO_COUNT>  (1) 
0

>  <PUBCHEM_BOND_UDEF_STEREO_COUNT>  (1) 
0

>  <PUBCHEM_ISOTOPIC_ATOM_COUNT>  (1) 
0

>  <PUBCHEM_COMPONENT_COUNT>  (1) 
1

>  <PUBCHEM_CACTVS_TAUTO_COUNT>  (1) 
1

>  <PUBCHEM_CONFORMER_ID>  (1) 
0000861E00000001

>  <PUBCHEM_MMFF94_ENERGY>  (1) 
57.4793

>  <PUBCHEM_FEATURE_SELFOVERLAP>  (1) 
25.472

>  <PUBCHEM_SHAPE_FINGERPRINT>  (1) 
10366900 7 18041574532916810187
10498660 4 17275105059146822009
11045977 3 18187653483494314707
11370993 144 18187087213647159579
11552529 35 18336830913388922483
11725454 13 16483578879442739480
12236239 1 17989480810217379122
12596599 1 16056881385702117153
12633257 1 18040149600175289755
12670545 47 17312814974757889287
13140716 1 18263073474373978698
13533116 47 18334299717441312371
13583140 156 18411425041927845875
13878862 14 18191003665586516565
14223421 5 18260831492422677235
14251764 38 18124033430293765485
14341114 176 18335430019246359323
14787075 74 17972884940906510963
14955137 171 18270687459431864386
15342168 16 18115313404777265749
16752209 62 16701439282581302447
1813 80 17912652311147714382
18186145 218 18335978753100747438
18219364 16 17968081049833934478
18785283 64 18041282157909090518
20715895 44 17623853418933920273
20739085 24 18260545581488658760
21033648 29 17530954749373260253
21041028 32 18194395589953352344
21503847 285 18412548674028847246
21756936 100 18124602139613136372
21864079 5 18060142084522621601
23557571 272 17167578298112486709
23559900 14 18337110068777020107
25 1 18336824299233562718
312423 11 18272927232851727175
469060 322 17759514861097102715
474 4 18335979860996503232
49207404 50 18042131027576726610
5104073 3 18334016111955030379
6049 1 17676480601602300494
633830 44 18342180019902877228
6442390 28 17973176302929565842
7097593 13 18266739069530580659
81228 2 17184727119099632490
8272917 22 18411142398324787746
84936 182 18129369579097298792
9981440 41 17765695207667734032

>  <PUBCHEM_SHAPE_MULTIPOLES>  (1) 
426.12
9.25
3.04
1.55
7.24
0.46
0.94
2.59
-2.03
-3.01
-0.74
1.35
-0.03
-0.43

>  <PUBCHEM_SHAPE_SELFOVERLAP>  (1) 
857.182

>  <PUBCHEM_SHAPE_VOLUME>  (1) 
255.6

>  <PUBCHEM_COORDINATE_TYPE>  (1) 
2
5
10

$$$$
