34343
     RDKit          3D

 10 10  0  0  0  0  0  0  0  0999 V2000
   -1.6437    2.3046    0.0003 Br  0  0  0  0  0  0  0  0  0  0  0  0
   -3.2157   -0.7471   -0.0002 Br  0  0  0  0  0  0  0  0  0  0  0  0
    0.7275    0.7116    0.0003 C   0  0  0  0  0  0  0  0  0  0  0  0
    1.4665   -0.4716    0.0000 C   0  0  0  0  0  0  0  0  0  0  0  0
   -0.6666    0.6630    0.0003 C   0  0  0  0  0  0  0  0  0  0  0  0
    0.8113   -1.7031   -0.0002 C   0  0  0  0  0  0  0  0  0  0  0  0
    1.4645    2.0157   -0.0008 C   0  0  0  0  0  0  0  0  0  0  0  0
    2.9603   -0.4529    0.0004 C   0  0  0  0  0  0  0  0  0  0  0  0
   -1.3215   -0.5686    0.0000 C   0  0  0  0  0  0  0  0  0  0  0  0
   -0.5826   -1.7516   -0.0001 C   0  0  0  0  0  0  0  0  0  0  0  0
  1  5  1  0
  2  9  1  0
  3  4  2  0
  3  5  1  0
  3  7  1  0
  4  6  1  0
  4  8  1  0
  5  9  2  0
  6 10  2  0
  9 10  1  0
M  END
>  <PUBCHEM_COMPOUND_CID>  (1) 
34343

>  <PUBCHEM_CONFORMER_RMSD>  (1) 
0.4

>  <PUBCHEM_CONFORMER_DIVERSEORDER>  (1) 
1

>  <PUBCHEM_MMFF94_PARTIAL_CHARGES>  (1) 
12
1 -0.11
10 -0.15
11 0.15
18 0.15
2 -0.11
3 -0.14
4 -0.14
5 0.11
6 -0.15
7 0.14
8 0.14
9 0.11

>  <PUBCHEM_EFFECTIVE_ROTOR_COUNT>  (1) 
0

>  <PUBCHEM_PHARMACOPHORE_FEATURES>  (1) 
3
1 1 hydrophobe
1 2 hydrophobe
6 3 4 5 6 9 10 rings

>  <PUBCHEM_HEAVY_ATOM_COUNT>  (1) 
10

>  <PUBCHEM_ATOM_DEF_STEREO_COUNT>  (1) 
0

>  <PUBCHEM_ATOM_UDEF_STEREO_COUNT>  (1) 
0

>  <PUBCHEM_BOND_DEF_STEREO_COUNT>  (1) 
0

>  <PUBCHEM_BOND_UDEF_STEREO_COUNT>  (1) 
0

>  <PUBCHEM_ISOTOPIC_ATOM_COUNT>  (1) 
0

>  <PUBCHEM_COMPONENT_COUNT>  (1) 
1

>  <PUBCHEM_CACTVS_TAUTO_COUNT>  (1) 
1

>  <PUBCHEM_CONFORMER_ID>  (1) 
0000862700000001

>  <PUBCHEM_MMFF94_ENERGY>  (1) 
28.8513

>  <PUBCHEM_FEATURE_SELFOVERLAP>  (1) 
15.223

>  <PUBCHEM_SHAPE_FINGERPRINT>  (1) 
11206711 2 18409733924008410133
12423570 1 16186953855849090622
161256 15 18411702127068373005
16945 1 18410575093258567591
193761 8 17906453229686729255
21040471 1 18050567339751862276
21501502 16 18192711133638955859
2334 1 17906171003037994275
23402655 69 18195509430172517533
23552423 10 18334576879685028815
23559900 14 18055920897346113614
241688 4 18050570638228892554
2748010 2 18124315999726831862
5084963 1 18202847655704754283
528886 8 18195523916147426219
53812653 166 18198335169885188904
66348 1 18338231549025098197

>  <PUBCHEM_SHAPE_MULTIPOLES>  (1) 
217.68
3.8
2.47
0.64
0.61
1.06
0
-0.55
0
0.48
0
0.06
0.02
0

>  <PUBCHEM_SHAPE_SELFOVERLAP>  (1) 
421.559

>  <PUBCHEM_SHAPE_VOLUME>  (1) 
135.5

>  <PUBCHEM_COORDINATE_TYPE>  (1) 
2
5
10

$$$$
