34360
     RDKit          3D

 15 16  0  0  0  0  0  0  0  0999 V2000
    5.3298    1.6515    0.1253 I   0  0  0  0  0  0  0  0  0  0  0  0
   -5.3269    1.6518   -0.1253 I   0  0  0  0  0  0  0  0  0  0  0  0
    0.0013   -1.5708    0.0000 O   0  0  0  0  0  0  0  0  0  0  0  0
    1.1657   -0.8669    0.0275 C   0  0  0  0  0  0  0  0  0  0  0  0
   -1.1836   -0.8544   -0.0279 C   0  0  0  0  0  0  0  0  0  0  0  0
    1.3007    0.2249    0.8850 C   0  0  0  0  0  0  0  0  0  0  0  0
   -1.2979    0.2249   -0.8850 C   0  0  0  0  0  0  0  0  0  0  0  0
    2.2244   -1.2373   -0.8017 C   0  0  0  0  0  0  0  0  0  0  0  0
   -2.2217   -1.2371    0.8018 C   0  0  0  0  0  0  0  0  0  0  0  0
    2.4942    0.9463    0.9134 C   0  0  0  0  0  0  0  0  0  0  0  0
   -2.4914    0.9464   -0.9133 C   0  0  0  0  0  0  0  0  0  0  0  0
    3.4180   -0.5159   -0.7735 C   0  0  0  0  0  0  0  0  0  0  0  0
   -3.4152   -0.5157    0.7736 C   0  0  0  0  0  0  0  0  0  0  0  0
    3.5528    0.5760    0.0840 C   0  0  0  0  0  0  0  0  0  0  0  0
   -3.5500    0.5762   -0.0840 C   0  0  0  0  0  0  0  0  0  0  0  0
  1 14  1  0
  2 15  1  0
  3  4  1  0
  3  5  1  0
  4  6  2  0
  4  8  1  0
  5  7  2  0
  5  9  1  0
  6 10  1  0
  7 11  1  0
  8 12  2  0
  9 13  2  0
 10 14  2  0
 11 15  2  0
 12 14  1  0
 13 15  1  0
M  END
>  <PUBCHEM_COMPOUND_CID>  (1) 
34360

>  <PUBCHEM_CONFORMER_RMSD>  (1) 
0.6

>  <PUBCHEM_CONFORMER_DIVERSEORDER>  (1) 
1
2
3

>  <PUBCHEM_MMFF94_PARTIAL_CHARGES>  (1) 
23
1 -0.08
10 -0.15
11 -0.15
12 -0.15
13 -0.15
14 0.08
15 0.08
16 0.15
17 0.15
18 0.15
19 0.15
2 -0.08
20 0.15
21 0.15
22 0.15
23 0.15
3 -0.17
4 0.08
5 0.08
6 -0.15
7 -0.15
8 -0.15
9 -0.15

>  <PUBCHEM_EFFECTIVE_ROTOR_COUNT>  (1) 
2

>  <PUBCHEM_PHARMACOPHORE_FEATURES>  (1) 
5
1 1 hydrophobe
1 2 hydrophobe
1 3 acceptor
6 4 6 8 10 12 14 rings
6 5 7 9 11 13 15 rings

>  <PUBCHEM_HEAVY_ATOM_COUNT>  (1) 
15

>  <PUBCHEM_ATOM_DEF_STEREO_COUNT>  (1) 
0

>  <PUBCHEM_ATOM_UDEF_STEREO_COUNT>  (1) 
0

>  <PUBCHEM_BOND_DEF_STEREO_COUNT>  (1) 
0

>  <PUBCHEM_BOND_UDEF_STEREO_COUNT>  (1) 
0

>  <PUBCHEM_ISOTOPIC_ATOM_COUNT>  (1) 
0

>  <PUBCHEM_COMPONENT_COUNT>  (1) 
1

>  <PUBCHEM_CACTVS_TAUTO_COUNT>  (1) 
1

>  <PUBCHEM_CONFORMER_ID>  (1) 
0000863800000001

>  <PUBCHEM_MMFF94_ENERGY>  (1) 
48.1711

>  <PUBCHEM_FEATURE_SELFOVERLAP>  (1) 
25.371

>  <PUBCHEM_SHAPE_FINGERPRINT>  (1) 
100836 57 18410576192960235864
10498660 4 18334292029101946237
10608611 8 18410573989446483397
11132069 177 17822014198733327127
11471102 20 18060702775665811758
11543360 7 17489292084911812781
12251169 10 17095242518784333989
12730499 353 18343027666217139087
13214271 11 18335419114414065439
13288520 33 9943531816583793569
13764800 53 18187368705587273065
14252887 29 12179844970231616000
14341114 328 16226057694622418100
14993402 34 15770057232934375468
15219456 202 18411703192526236974
15375358 24 18410854360632527181
16752209 62 13326852193672057479
17834072 32 18337669831975600468
17870717 6 11311791599738417672
18186145 218 18131360708518380446
19050596 39 15791736316600025961
20281475 54 9295288378024311531
20645477 56 18334294275074000989
20645477 70 17775010042254938846
212847 35 18340764858312337200
22926399 37 17989488515599490601
231179 274 18342176696009652864
23402539 116 18336819888154352892
23402655 69 17775002375374103637
23557571 272 18339087102094168319
23559900 14 17968388831396305422
25 1 18131350825930371138
2916195 48 18340482382824790864
4047638 21 18408887313293248038
4072396 5 18060126619284184458
465052 167 8574417760276795257
5104073 3 18113903719501780171
59682541 52 16916516861014525212
633830 44 18341890732623345655
74978 22 15697708306964621731

>  <PUBCHEM_SHAPE_MULTIPOLES>  (1) 
326.69
11.16
1.77
1.02
0.04
0.24
0
7.88
0
0
0
0
0
0.95

>  <PUBCHEM_SHAPE_SELFOVERLAP>  (1) 
658.786

>  <PUBCHEM_SHAPE_VOLUME>  (1) 
197.6

>  <PUBCHEM_COORDINATE_TYPE>  (1) 
2
5
10

$$$$
