34384
     RDKit          3D

 14 13  0  0  1  0  0  0  0  0999 V2000
    0.4067    1.9586    0.8840 Cl  0  0  0  0  0  0  0  0  0  0  0  0
   -0.5173   -1.2564    1.7375 Cl  0  0  0  0  0  0  0  0  0  0  0  0
    2.3800   -1.4304   -1.0160 Cl  0  0  0  0  0  0  0  0  0  0  0  0
    0.4740    0.8972   -1.4413 F   0  0  0  0  0  0  0  0  0  0  0  0
   -0.4976   -1.5179   -0.8047 F   0  0  0  0  0  0  0  0  0  0  0  0
    2.8873    0.9300   -0.2107 F   0  0  0  0  0  0  0  0  0  0  0  0
    2.2039   -0.4320    1.3364 F   0  0  0  0  0  0  0  0  0  0  0  0
   -2.1817    0.5491   -1.3412 F   0  0  0  0  0  0  0  0  0  0  0  0
   -2.1876    1.1269    0.7566 F   0  0  0  0  0  0  0  0  0  0  0  0
   -2.9469   -0.8256    0.1673 F   0  0  0  0  0  0  0  0  0  0  0  0
    0.5685    0.4824   -0.1392 C   0  0  0  0  0  0  0  0  0  0  0  0
   -0.5971   -0.5075    0.1120 C   0  0  0  0  0  0  0  0  0  0  0  0
    1.9925   -0.0635    0.0480 C   0  0  0  0  0  0  0  0  0  0  0  0
   -1.9849    0.0890   -0.0886 C   0  0  0  0  0  0  0  0  0  0  0  0
  1 11  1  0
  2 12  1  0
  3 13  1  0
  4 11  1  0
  5 12  1  0
  6 13  1  0
  7 13  1  0
  8 14  1  0
  9 14  1  0
 10 14  1  0
 11 12  1  0
 11 13  1  0
 12 14  1  0
M  END
>  <PUBCHEM_COMPOUND_CID>  (1) 
34384

>  <PUBCHEM_CONFORMER_RMSD>  (1) 
0.6

>  <PUBCHEM_CONFORMER_DIVERSEORDER>  (1) 
1
10
36
3
9
35
8
19
11
12
29
7
25
31
24
26
22
23
5
33
21
17
30
16
15
32
14
2
13
20
28
6
4
27
18
34

>  <PUBCHEM_MMFF94_PARTIAL_CHARGES>  (1) 
14
1 -0.29
10 -0.34
11 0.63
12 0.63
13 0.97
14 1.02
2 -0.29
3 -0.29
4 -0.34
5 -0.34
6 -0.34
7 -0.34
8 -0.34
9 -0.34

>  <PUBCHEM_EFFECTIVE_ROTOR_COUNT>  (1) 
3

>  <PUBCHEM_PHARMACOPHORE_FEATURES>  (1) 
0

>  <PUBCHEM_HEAVY_ATOM_COUNT>  (1) 
14

>  <PUBCHEM_ATOM_DEF_STEREO_COUNT>  (1) 
0

>  <PUBCHEM_ATOM_UDEF_STEREO_COUNT>  (1) 
2

>  <PUBCHEM_BOND_DEF_STEREO_COUNT>  (1) 
0

>  <PUBCHEM_BOND_UDEF_STEREO_COUNT>  (1) 
0

>  <PUBCHEM_ISOTOPIC_ATOM_COUNT>  (1) 
0

>  <PUBCHEM_COMPONENT_COUNT>  (1) 
1

>  <PUBCHEM_CACTVS_TAUTO_COUNT>  (1) 
1

>  <PUBCHEM_CONFORMER_ID>  (1) 
0000865000000001

>  <PUBCHEM_MMFF94_ENERGY>  (1) 
15.4305

>  <PUBCHEM_FEATURE_SELFOVERLAP>  (1) 
0

>  <PUBCHEM_SHAPE_FINGERPRINT>  (1) 
10353120 184 18191879924149100840
12423570 1 13777789781865111710
12491281 212 18129396933248004768
12524768 44 18409731763850849956
12932764 1 17676492709135933605
13024252 1 17749106733377477065
15775835 57 18040992938642147497
16945 1 18117836603473859170
20653085 51 18200327519324844441
23552423 10 18340776922796389286
241688 4 17984714324236711776
2748010 2 18129947771303791981
29004967 10 18130785663767949738
369184 2 16845570907169561875
5084963 1 18114179774208585397
528886 8 18130508509502049531
63268167 104 18261101963566672545

>  <PUBCHEM_SHAPE_MULTIPOLES>  (1) 
242.81
3.61
1.65
1.39
0.03
0.34
0.28
-0.42
-0.45
0.3
0.15
-0.06
-0.23
0.26

>  <PUBCHEM_SHAPE_SELFOVERLAP>  (1) 
469.191

>  <PUBCHEM_SHAPE_VOLUME>  (1) 
151

>  <PUBCHEM_COORDINATE_TYPE>  (1) 
2
5
10

$$$$
