34388
     RDKit          3D

 26 28  0  0  0  0  0  0  0  0999 V2000
    1.1991    0.2839   -0.6880 O   0  0  0  0  0  0  0  0  0  0  0  0
   -7.4754   -0.2022   -0.7067 O   0  0  0  0  0  0  0  0  0  0  0  0
    2.9628    3.8411    0.1160 O   0  0  0  0  0  0  0  0  0  0  0  0
    1.1719    2.7064   -0.4538 O   0  0  0  0  0  0  0  0  0  0  0  0
    0.6661    0.0601    1.5788 O   0  0  0  0  0  0  0  0  0  0  0  0
    2.6253   -2.0420   -0.5569 N   0  0  0  0  0  0  0  0  0  0  0  0
    2.3844    2.7586   -0.1393 N   0  0  0  0  0  0  0  0  0  0  0  0
    4.6026   -0.8149    0.0693 C   0  0  0  0  0  0  0  0  0  0  0  0
    3.2383   -0.8745   -0.2843 C   0  0  0  0  0  0  0  0  0  0  0  0
    2.5251    0.3195   -0.3468 C   0  0  0  0  0  0  0  0  0  0  0  0
    3.1289    1.5486   -0.0702 C   0  0  0  0  0  0  0  0  0  0  0  0
    5.2101    0.4213    0.3474 C   0  0  0  0  0  0  0  0  0  0  0  0
    4.4731    1.5999    0.2773 C   0  0  0  0  0  0  0  0  0  0  0  0
    5.3209   -2.0165    0.1323 C   0  0  0  0  0  0  0  0  0  0  0  0
    4.6920   -3.2210   -0.1481 C   0  0  0  0  0  0  0  0  0  0  0  0
    3.3543   -3.1792   -0.4847 C   0  0  0  0  0  0  0  0  0  0  0  0
   -3.4893   -0.0644    0.3712 C   0  0  0  0  0  0  0  0  0  0  0  0
   -3.8772    0.4402   -0.8591 C   0  0  0  0  0  0  0  0  0  0  0  0
   -4.4103   -0.6145    1.2481 C   0  0  0  0  0  0  0  0  0  0  0  0
   -2.0678   -0.0160    0.7564 C   0  0  0  0  0  0  0  0  0  0  0  0
    0.3404    0.1463    0.4049 C   0  0  0  0  0  0  0  0  0  0  0  0
   -6.1626   -0.1569   -0.3512 C   0  0  0  0  0  0  0  0  0  0  0  0
   -1.0505    0.1222   -0.1057 C   0  0  0  0  0  0  0  0  0  0  0  0
   -5.2230    0.3938   -1.2229 C   0  0  0  0  0  0  0  0  0  0  0  0
   -5.7563   -0.6611    0.8844 C   0  0  0  0  0  0  0  0  0  0  0  0
   -8.3829   -0.7786    0.2315 C   0  0  0  0  0  0  0  0  0  0  0  0
  1 10  1  0
  1 21  1  0
  2 22  1  0
  2 26  1  0
  3  7  1  0
  4  7  2  0
  5 21  2  0
  6  9  2  0
  6 16  1  0
  7 11  1  0
  8  9  1  0
  8 12  1  0
  8 14  2  0
  9 10  1  0
 10 11  2  0
 11 13  1  0
 12 13  2  0
 14 15  1  0
 15 16  2  0
 17 18  2  0
 17 19  1  0
 17 20  1  0
 18 24  1  0
 19 25  2  0
 20 23  2  0
 21 23  1  0
 22 24  2  0
 22 25  1  0
M  CHG  2   3  -1   7   1
M  END
>  <PUBCHEM_COMPOUND_CID>  (1) 
34388

>  <PUBCHEM_CONFORMER_RMSD>  (1) 
0.8

>  <PUBCHEM_CONFORMER_DIVERSEORDER>  (1) 
1
23
25
17
24
9
13
21
2
26
11
19
16
3
27
22
15
5
14
6
18
10
4
29
20
28
12
7
8

>  <PUBCHEM_MMFF94_PARTIAL_CHARGES>  (1) 
36
1 -0.23
10 0.08
11 0.13
12 -0.15
13 -0.15
14 -0.15
15 -0.15
16 0.16
17 0.03
18 -0.15
19 -0.15
2 -0.36
20 -0.18
21 0.71
22 0.08
23 -0.14
24 -0.15
25 -0.15
26 0.28
27 0.15
28 0.15
29 0.15
3 -0.52
30 0.15
31 0.15
32 0.15
33 0.15
34 0.15
35 0.15
36 0.15
37 0.15
4 -0.52
5 -0.57
6 -0.62
7 0.91
9 0.31

>  <PUBCHEM_EFFECTIVE_ROTOR_COUNT>  (1) 
6

>  <PUBCHEM_PHARMACOPHORE_FEATURES>  (1) 
9
1 2 acceptor
1 3 acceptor
1 3 anion
1 4 acceptor
1 5 acceptor
1 6 acceptor
6 17 18 19 22 24 25 rings
6 6 8 9 14 15 16 rings
6 8 9 10 11 12 13 rings

>  <PUBCHEM_HEAVY_ATOM_COUNT>  (1) 
26

>  <PUBCHEM_ATOM_DEF_STEREO_COUNT>  (1) 
0

>  <PUBCHEM_ATOM_UDEF_STEREO_COUNT>  (1) 
0

>  <PUBCHEM_BOND_DEF_STEREO_COUNT>  (1) 
0

>  <PUBCHEM_BOND_UDEF_STEREO_COUNT>  (1) 
1

>  <PUBCHEM_ISOTOPIC_ATOM_COUNT>  (1) 
0

>  <PUBCHEM_COMPONENT_COUNT>  (1) 
1

>  <PUBCHEM_CACTVS_TAUTO_COUNT>  (1) 
1

>  <PUBCHEM_CONFORMER_ID>  (1) 
0000865400000001

>  <PUBCHEM_MMFF94_ENERGY>  (1) 
100.9439

>  <PUBCHEM_FEATURE_SELFOVERLAP>  (1) 
45.787

>  <PUBCHEM_SHAPE_FINGERPRINT>  (1) 
10165383 225 18059564842236721688
10411042 1 18194965141904906622
10595046 47 18272369823849066485
10670039 82 15719670944893511279
10673678 19 17460616924886908196
11828532 37 17458636665579288635
12107183 9 17839474288668889161
12166972 35 18202563960187968289
12236239 1 17703792509554944883
12623949 98 17201647636847468958
13073987 5 18272089366552829881
13533116 47 18272651242321127155
1361 2 18412825768049842834
13685833 64 18410013217706418231
13782708 43 18041005059594206499
13911852 28 18194965137045716238
13955234 65 18341891939477728280
14170010 4 18410572894235052208
15183329 4 16805606928344731931
15250474 111 17987787639947466607
15419008 47 17821725027276099101
17844677 252 18411986832488348093
17857418 61 17917707994397482111
19377110 9 17418099797655708051
20028762 73 18059573525690877526
20157964 124 18411982498254299809
20645477 70 18408324367598150122
20771845 171 18113345215688829398
21033650 10 15768123209213923281
21267235 1 18271529693965540438
21279426 13 18115581544249988869
21285901 2 17967532333702897244
21315759 40 17917991703268616871
21344244 78 18059283284874761200
22061861 79 18334576824309753703
221357 26 18260827077418180973
22224240 67 18201430424926272344
2303208 19 17676781932982882555
23081809 10 17846786200429375307
23522609 53 17630913641020371673
23559900 14 18408885169767003057
239999 70 18040435507943189352
255183 451 18128548063744451870
3421961 26 18411139104733308994
34797466 226 17603309280174842069
3633792 109 18409726228418662267
4015057 19 18411419544649340577
4073 2 18115029726683006715
4098825 35 18339359661736949121
439807 62 18130498752297183599
46194498 28 17894631461343613908
5718773 13 18046061563241848170
57527295 17 17606685708558813122
59755656 215 17385722474557984091
6025842 7 18411704322308208388
8988823 20 18413389834715119646

>  <PUBCHEM_SHAPE_MULTIPOLES>  (1) 
495.76
18.67
2.98
0.97
35.57
0.67
-0.1
-6.93
0.6
-7.25
0.33
0.94
-0.05
0.86

>  <PUBCHEM_SHAPE_SELFOVERLAP>  (1) 
1090.776

>  <PUBCHEM_SHAPE_VOLUME>  (1) 
264.4

>  <PUBCHEM_COORDINATE_TYPE>  (1) 
2
5
10

$$$$
