3439
     RDKit          3D

 32 34  0  0  1  0  0  0  0  0999 V2000
   -3.5382   -1.2393    1.7838 O   0  0  0  0  0  0  0  0  0  0  0  0
    4.1033    2.5896   -0.1908 O   0  0  0  0  0  0  0  0  0  0  0  0
    6.1656   -1.2194   -2.7690 O   0  0  0  0  0  0  0  0  0  0  0  0
    3.9024   -1.3792   -2.8177 O   0  0  0  0  0  0  0  0  0  0  0  0
    5.2438   -3.5125    2.3752 O   0  0  0  0  0  0  0  0  0  0  0  0
    6.7748   -1.8390    2.4306 O   0  0  0  0  0  0  0  0  0  0  0  0
   -2.2201    2.6683    0.6249 N   0  0  0  0  0  0  0  0  0  0  0  0
    3.6075    0.4202   -0.8443 N   0  0  0  0  0  0  0  0  0  0  0  0
   -5.2025   -2.5723    0.7090 N   0  0  0  0  0  0  0  0  0  0  0  0
   -6.1981   -1.5139   -1.2456 N   0  0  0  0  0  0  0  0  0  0  0  0
   -5.5581    0.6541   -2.0041 N   0  0  0  0  0  0  0  0  0  0  0  0
   -6.8605   -3.6457   -0.5426 N   0  0  0  0  0  0  0  0  0  0  0  0
   -3.2408    1.9314   -0.0937 C   0  0  0  0  0  0  0  0  0  0  0  0
   -3.5736    0.5790    0.4565 C   0  0  0  0  0  0  0  0  0  0  0  0
    4.9614    0.0133   -1.1234 C   0  0  0  0  0  0  0  0  0  0  0  0
    5.6730   -0.5607    0.1078 C   0  0  0  0  0  0  0  0  0  0  0  0
   -0.8537    2.4260    0.3729 C   0  0  0  0  0  0  0  0  0  0  0  0
   -4.5225   -0.3477   -0.0386 C   0  0  0  0  0  0  0  0  0  0  0  0
    1.8487    1.9482   -0.1276 C   0  0  0  0  0  0  0  0  0  0  0  0
    5.0599   -1.8362    0.6999 C   0  0  0  0  0  0  0  0  0  0  0  0
   -2.6217    3.6670    1.5955 C   0  0  0  0  0  0  0  0  0  0  0  0
   -4.4672   -1.4507    0.8077 C   0  0  0  0  0  0  0  0  0  0  0  0
    0.1213    3.1495    1.0597 C   0  0  0  0  0  0  0  0  0  0  0  0
   -0.4776    1.4636   -0.5641 C   0  0  0  0  0  0  0  0  0  0  0  0
   -3.0043   -0.0097    1.5622 C   0  0  0  0  0  0  0  0  0  0  0  0
    3.2879    1.6939   -0.3945 C   0  0  0  0  0  0  0  0  0  0  0  0
    1.4724    2.9106    0.8093 C   0  0  0  0  0  0  0  0  0  0  0  0
    0.8737    1.2247   -0.8143 C   0  0  0  0  0  0  0  0  0  0  0  0
   -5.4297   -0.4106   -1.0936 C   0  0  0  0  0  0  0  0  0  0  0  0
    4.9210   -0.9353   -2.3037 C   0  0  0  0  0  0  0  0  0  0  0  0
    5.7907   -2.3551    1.9194 C   0  0  0  0  0  0  0  0  0  0  0  0
   -6.0389   -2.5121   -0.3471 C   0  0  0  0  0  0  0  0  0  0  0  0
  1 22  1  0
  1 25  1  0
  2 26  2  0
  3 30  1  0
  4 30  2  0
  5 31  1  0
  6 31  2  0
  7 13  1  0
  7 17  1  0
  7 21  1  0
  8 15  1  0
  8 26  1  0
  9 22  2  0
  9 32  1  0
 10 29  1  0
 10 32  2  0
 11 29  1  0
 12 32  1  0
 13 14  1  0
 14 18  1  0
 14 25  2  0
 15 16  1  0
 15 30  1  0
 16 20  1  0
 17 23  2  0
 17 24  1  0
 18 22  1  0
 18 29  2  0
 19 26  1  0
 19 27  2  0
 19 28  1  0
 20 31  1  0
 23 27  1  0
 24 28  2  0
M  END
>  <PUBCHEM_COMPOUND_CID>  (1) 
3439

>  <PUBCHEM_CONFORMER_RMSD>  (1) 
1

>  <PUBCHEM_CONFORMER_DIVERSEORDER>  (1) 
1
178
193
92
172
246
130
149
143
183
227
201
122
214
121
84
2
219
179
151
210
161
220
114
235
74
197
32
199
164
101
115
155
186
33
75
195
80
27
76
100
217
156
95
120
79
173
49
150
25
72
136
175
42
232
166
43
204
157
192
245
78
20
202
77
237
224
56
131
39
45
203
144
228
141
86
206
194
167
128
200
61
113
52
9
152
116
171
51
106
107
154
104
117
230
244
108
138
133
215
99
71
174
54
36
198
185
98
241
229
64
189
207
40
234
28
82
94
181
3
132
73
105
110
102
91
188
111
6
168
89
140
57
231
119
212
15
211
182
238
109
29
124
23
170
233
249
216
93
134
59
16
177
85
169
236
213
158
46
243
103
127
163
196
159
68
97
218
24
221
147
118
81
19
22
38
226
209
223
191
142
60
18
11
26
176
180
69
88
145
187
34
160
184
12
96
65
48
205
4
112
208
67
129
126
162
7
50
146
125
153
21
240
90
58
70
239
87
17
135
14
190
63
83
139
225
248
10
222
165
62
137
13
242
247
55
148
44
30
47
31
8
53
123
41
66
35
37
5

>  <PUBCHEM_MMFF94_PARTIAL_CHARGES>  (1) 
42
1 -0.28
10 -0.62
11 -0.9
12 -0.9
13 0.55
14 -0.18
15 0.36
17 0.1
19 0.09
2 -0.57
20 0.06
21 0.37
22 0.4
23 -0.15
24 -0.15
25 -0.01
26 0.54
27 -0.15
28 -0.15
29 0.41
3 -0.65
30 0.66
31 0.66
32 0.72
38 0.37
4 -0.57
44 0.15
45 0.15
46 0.15
47 0.15
48 0.15
49 0.4
5 -0.65
50 0.4
51 0.5
52 0.4
53 0.4
54 0.5
6 -0.57
7 -0.84
8 -0.73
9 -0.57

>  <PUBCHEM_EFFECTIVE_ROTOR_COUNT>  (1) 
10

>  <PUBCHEM_PHARMACOPHORE_FEATURES>  (1) 
16
1 11 cation
1 11 donor
1 12 donor
1 2 acceptor
1 3 acceptor
1 4 acceptor
1 5 acceptor
1 6 acceptor
1 7 cation
1 8 donor
3 3 4 30 anion
3 5 6 31 anion
4 9 10 12 32 cation
5 1 14 18 22 25 rings
6 17 19 23 24 27 28 rings
6 9 10 18 22 29 32 rings

>  <PUBCHEM_HEAVY_ATOM_COUNT>  (1) 
32

>  <PUBCHEM_ATOM_DEF_STEREO_COUNT>  (1) 
0

>  <PUBCHEM_ATOM_UDEF_STEREO_COUNT>  (1) 
1

>  <PUBCHEM_BOND_DEF_STEREO_COUNT>  (1) 
0

>  <PUBCHEM_BOND_UDEF_STEREO_COUNT>  (1) 
0

>  <PUBCHEM_ISOTOPIC_ATOM_COUNT>  (1) 
0

>  <PUBCHEM_COMPONENT_COUNT>  (1) 
1

>  <PUBCHEM_CACTVS_TAUTO_COUNT>  (1) 
18

>  <PUBCHEM_CONFORMER_ID>  (1) 
00000D6F00000001

>  <PUBCHEM_MMFF94_ENERGY>  (1) 
88.4796

>  <PUBCHEM_FEATURE_SELFOVERLAP>  (1) 
81.437

>  <PUBCHEM_SHAPE_FINGERPRINT>  (1) 
10622 236 18115022996701161226
11475781 23 13118004418415816686
117089 54 17915762915362632206
11796584 16 18268156366268817356
1200032 147 12391505434936751298
12559416 39 18200579333179444767
13782708 43 18188484800426845751
14211702 104 18341896290063301436
14347332 77 18408885131370967929
15250474 111 18188494554065258698
16992828 155 15808877338175100331
17857418 61 18260831454148046200
18393751 57 11167947974661985293
19841028 212 18127128800597527791
19958102 18 17822006558028913199
21033650 10 17530959190633552133
21315763 87 17060336314589690158
21315764 119 16950558844331215878
21585481 104 16443337651229102471
21599406 157 16371023922104940722
21703447 108 18342172315001502600
23559900 14 18263074561117268441
25222932 49 18408326575928485742
2838139 119 11314307312370720868
4017518 198 16027309612936575786
4258327 124 10879982546241625217
437795 139 18336817611695183616
50009960 94 18190439629153731170
5104073 3 18131636690047856153
5718773 13 18200315554163370271
7970288 3 18058175097450106559
96874 4 18187353291171772498

>  <PUBCHEM_SHAPE_MULTIPOLES>  (1) 
593.44
19.23
4.5
2.26
3.03
0.49
-0.36
-21.74
-1.86
-1.74
2.11
3.81
-1.63
-2.49

>  <PUBCHEM_SHAPE_SELFOVERLAP>  (1) 
1273.151

>  <PUBCHEM_SHAPE_VOLUME>  (1) 
325.4

>  <PUBCHEM_COORDINATE_TYPE>  (1) 
2
5
10

$$$$
