34391
     RDKit          3D

 25 27  0  0  0  0  0  0  0  0999 V2000
    0.1583   -0.3149   -0.7917 O   0  0  0  0  0  0  0  0  0  0  0  0
   -3.1936    0.4372    1.4724 O   0  0  0  0  0  0  0  0  0  0  0  0
   -0.5066    0.0594    1.4107 O   0  0  0  0  0  0  0  0  0  0  0  0
    0.8049    3.6618   -1.2202 O   0  0  0  0  0  0  0  0  0  0  0  0
   -0.5480    1.9403   -1.3784 O   0  0  0  0  0  0  0  0  0  0  0  0
    2.1430   -1.9618    0.1071 N   0  0  0  0  0  0  0  0  0  0  0  0
    0.5691    2.4365   -1.0997 N   0  0  0  0  0  0  0  0  0  0  0  0
    2.3869   -0.6443   -0.0254 C   0  0  0  0  0  0  0  0  0  0  0  0
    3.6435   -0.0847    0.2873 C   0  0  0  0  0  0  0  0  0  0  0  0
    1.3857    0.2085   -0.4820 C   0  0  0  0  0  0  0  0  0  0  0  0
    1.6038    1.5803   -0.6315 C   0  0  0  0  0  0  0  0  0  0  0  0
    3.8632    1.2950    0.1372 C   0  0  0  0  0  0  0  0  0  0  0  0
    2.8440    2.1246   -0.3215 C   0  0  0  0  0  0  0  0  0  0  0  0
   -2.0382   -0.9191   -0.1328 C   0  0  0  0  0  0  0  0  0  0  0  0
    4.6517   -0.9427    0.7470 C   0  0  0  0  0  0  0  0  0  0  0  0
   -3.2001   -0.5017    0.4843 C   0  0  0  0  0  0  0  0  0  0  0  0
   -0.7337   -0.3404    0.2785 C   0  0  0  0  0  0  0  0  0  0  0  0
   -2.0401   -1.8710   -1.1334 C   0  0  0  0  0  0  0  0  0  0  0  0
    4.4034   -2.3009    0.8846 C   0  0  0  0  0  0  0  0  0  0  0  0
   -4.4148   -1.0590    0.0850 C   0  0  0  0  0  0  0  0  0  0  0  0
    3.1430   -2.7557    0.5539 C   0  0  0  0  0  0  0  0  0  0  0  0
   -3.2548   -2.4282   -1.5328 C   0  0  0  0  0  0  0  0  0  0  0  0
   -4.4421   -2.0223   -0.9235 C   0  0  0  0  0  0  0  0  0  0  0  0
   -3.9387    1.6299    1.2368 C   0  0  0  0  0  0  0  0  0  0  0  0
   -3.2899    2.7730    1.9880 C   0  0  0  0  0  0  0  0  0  0  0  0
  1 10  1  0
  1 17  1  0
  2 16  1  0
  2 24  1  0
  3 17  2  0
  4  7  1  0
  5  7  2  0
  6  8  2  0
  6 21  1  0
  7 11  1  0
  8  9  1  0
  8 10  1  0
  9 12  1  0
  9 15  2  0
 10 11  2  0
 11 13  1  0
 12 13  2  0
 14 16  2  0
 14 17  1  0
 14 18  1  0
 15 19  1  0
 16 20  1  0
 18 22  2  0
 19 21  2  0
 20 23  2  0
 22 23  1  0
 24 25  1  0
M  CHG  2   4  -1   7   1
M  END
>  <PUBCHEM_COMPOUND_CID>  (1) 
34391

>  <PUBCHEM_CONFORMER_RMSD>  (1) 
0.8

>  <PUBCHEM_CONFORMER_DIVERSEORDER>  (1) 
1
39
51
40
25
54
33
47
43
31
45
52
20
7
35
49
21
50
23
56
38
24
34
46
41
10
8
42
2
57
48
14
44
37
32
30
15
3
27
28
4
17
55
18
29
9
11
16
19
36
26
22
5
12
13
6
53

>  <PUBCHEM_MMFF94_PARTIAL_CHARGES>  (1) 
32
1 -0.23
10 0.08
11 0.13
12 -0.15
13 -0.15
14 0.09
15 -0.15
16 0.08
17 0.63
18 -0.15
19 -0.15
2 -0.36
20 -0.15
21 0.16
22 -0.15
23 -0.15
24 0.28
26 0.15
27 0.15
28 0.15
29 0.15
3 -0.57
30 0.15
31 0.15
32 0.15
33 0.15
34 0.15
4 -0.52
5 -0.52
6 -0.62
7 0.91
8 0.31

>  <PUBCHEM_EFFECTIVE_ROTOR_COUNT>  (1) 
6

>  <PUBCHEM_PHARMACOPHORE_FEATURES>  (1) 
9
1 2 acceptor
1 3 acceptor
1 4 acceptor
1 4 anion
1 5 acceptor
1 6 acceptor
6 14 16 18 20 22 23 rings
6 6 8 9 15 19 21 rings
6 8 9 10 11 12 13 rings

>  <PUBCHEM_HEAVY_ATOM_COUNT>  (1) 
25

>  <PUBCHEM_ATOM_DEF_STEREO_COUNT>  (1) 
0

>  <PUBCHEM_ATOM_UDEF_STEREO_COUNT>  (1) 
0

>  <PUBCHEM_BOND_DEF_STEREO_COUNT>  (1) 
0

>  <PUBCHEM_BOND_UDEF_STEREO_COUNT>  (1) 
0

>  <PUBCHEM_ISOTOPIC_ATOM_COUNT>  (1) 
0

>  <PUBCHEM_COMPONENT_COUNT>  (1) 
1

>  <PUBCHEM_CACTVS_TAUTO_COUNT>  (1) 
1

>  <PUBCHEM_CONFORMER_ID>  (1) 
0000865700000001

>  <PUBCHEM_MMFF94_ENERGY>  (1) 
96.2619

>  <PUBCHEM_FEATURE_SELFOVERLAP>  (1) 
45.793

>  <PUBCHEM_SHAPE_FINGERPRINT>  (1) 
10369192 42 15362248495047081324
11552529 35 18201429264214203865
11578080 2 17985796376659510049
11582403 64 15479559479428746321
11725454 13 15266205909394626241
12107183 9 17982454789145112042
12236239 1 18201438133559404342
12422481 6 17906741301727653107
12553582 1 18261112950647273838
12633257 1 18270402659569815288
12670546 56 18202280337827550249
12714826 92 14562823152819464921
12788726 201 18059584649866286763
13009979 54 18271528692794918643
13134695 92 18114175388983725148
13140716 1 18337106744493197556
13167823 11 18343020012269075386
13533116 47 18339077211190947011
13544653 18 17967811630988919478
13583140 156 18114475474438714867
13692114 37 17688569586380570133
13965767 371 17766579961976674369
14294032 229 17631752482635196609
14739800 52 17773868882529987816
14790565 3 17972615539415789668
14844126 61 17251155243552587730
15420108 30 17622726419440823601
17349148 13 18336824315912434675
17357779 13 17676476255237633390
17492 89 18343026596744460959
17818456 19 18129670690258226761
17980427 23 17917427614473927629
1813 80 18409173177658503038
20511986 3 18271790354871065699
20645477 70 17895745322346381230
20715895 44 17840314320169717889
20739085 24 18187372047299066092
21065198 48 18342738528807613490
2132832 1 18270950332593557413
2255824 54 18119249703933875348
23419403 2 17912044460951766629
23557571 272 16629704919228858129
23559900 14 18190734434901851994
23598288 3 18059580239050983391
23598291 2 18412548725283683382
238918 7 17546452172282543005
474 4 18046344403347225796
5104073 3 18411982459557416498
57527295 17 17168963630981744995
6992083 37 18339648837014813573
7064713 232 18059292054638861834
7097593 13 18411423907660820993
7471813 234 18057311984885121949
7615 1 18342181110940607993
9849439 229 16769885887371121945
9981440 41 17399232444158291561

>  <PUBCHEM_SHAPE_MULTIPOLES>  (1) 
475.18
9.45
3.58
1.43
0.47
1.46
-0.13
-3.83
-2.48
0.21
0.5
1.04
0.62
-3.25

>  <PUBCHEM_SHAPE_SELFOVERLAP>  (1) 
1048.382

>  <PUBCHEM_SHAPE_VOLUME>  (1) 
252.1

>  <PUBCHEM_COORDINATE_TYPE>  (1) 
2
5
10

$$$$
