34390
     RDKit          3D

 25 27  0  0  0  0  0  0  0  0999 V2000
    0.1337    0.2330   -0.2303 O   0  0  0  0  0  0  0  0  0  0  0  0
   -4.5279   -1.3401   -0.6231 O   0  0  0  0  0  0  0  0  0  0  0  0
    0.2643    0.9274    1.9909 O   0  0  0  0  0  0  0  0  0  0  0  0
    1.9984    3.6492   -1.3563 O   0  0  0  0  0  0  0  0  0  0  0  0
    0.1368    2.5597   -0.9481 O   0  0  0  0  0  0  0  0  0  0  0  0
    1.5745   -1.9992    0.4025 N   0  0  0  0  0  0  0  0  0  0  0  0
    1.3879    2.6098   -1.0119 N   0  0  0  0  0  0  0  0  0  0  0  0
    2.2215   -0.8781    0.0315 C   0  0  0  0  0  0  0  0  0  0  0  0
    3.6291   -0.8205   -0.0411 C   0  0  0  0  0  0  0  0  0  0  0  0
    1.5015    0.2681   -0.2939 C   0  0  0  0  0  0  0  0  0  0  0  0
    2.1399    1.4483   -0.6827 C   0  0  0  0  0  0  0  0  0  0  0  0
    4.2715    0.3665   -0.4321 C   0  0  0  0  0  0  0  0  0  0  0  0
    3.5266    1.4980   -0.7520 C   0  0  0  0  0  0  0  0  0  0  0  0
    4.3544   -1.9740    0.2863 C   0  0  0  0  0  0  0  0  0  0  0  0
   -1.8696    0.5313    1.0034 C   0  0  0  0  0  0  0  0  0  0  0  0
   -0.3857    0.5931    1.0116 C   0  0  0  0  0  0  0  0  0  0  0  0
   -2.4947   -0.3860    0.1841 C   0  0  0  0  0  0  0  0  0  0  0  0
   -3.8884   -0.4443    0.1775 C   0  0  0  0  0  0  0  0  0  0  0  0
    3.6905   -3.1308    0.6688 C   0  0  0  0  0  0  0  0  0  0  0  0
   -2.5766    1.3931    1.8164 C   0  0  0  0  0  0  0  0  0  0  0  0
    2.3116   -3.0909    0.7103 C   0  0  0  0  0  0  0  0  0  0  0  0
   -4.6262    0.4163    0.9903 C   0  0  0  0  0  0  0  0  0  0  0  0
   -3.9702    1.3351    1.8096 C   0  0  0  0  0  0  0  0  0  0  0  0
   -3.8774   -1.7039   -1.8397 C   0  0  0  0  0  0  0  0  0  0  0  0
   -4.9257   -2.0611   -2.8717 C   0  0  0  0  0  0  0  0  0  0  0  0
  1 10  1  0
  1 16  1  0
  2 18  1  0
  2 24  1  0
  3 16  2  0
  4  7  1  0
  5  7  2  0
  6  8  2  0
  6 21  1  0
  7 11  1  0
  8  9  1  0
  8 10  1  0
  9 12  1  0
  9 14  2  0
 10 11  2  0
 11 13  1  0
 12 13  2  0
 14 19  1  0
 15 16  1  0
 15 17  2  0
 15 20  1  0
 17 18  1  0
 18 22  2  0
 19 21  2  0
 20 23  2  0
 22 23  1  0
 24 25  1  0
M  CHG  2   4  -1   7   1
M  END
>  <PUBCHEM_COMPOUND_CID>  (1) 
34390

>  <PUBCHEM_CONFORMER_RMSD>  (1) 
0.8

>  <PUBCHEM_CONFORMER_DIVERSEORDER>  (1) 
1
68
81
40
45
41
46
11
75
72
64
60
70
23
2
71
42
44
38
66
53
30
7
50
55
77
6
49
39
10
73
27
69
25
78
61
65
63
17
52
51
57
62
19
3
56
26
58
80
16
67
79
15
14
24
48
47
74
20
33
43
76
9
4
22
36
28
59
37
35
34
21
13
18
5
29
12
8
54
32
31

>  <PUBCHEM_MMFF94_PARTIAL_CHARGES>  (1) 
32
1 -0.23
10 0.08
11 0.13
12 -0.15
13 -0.15
14 -0.15
15 0.09
16 0.63
17 -0.15
18 0.08
19 -0.15
2 -0.36
20 -0.15
21 0.16
22 -0.15
23 -0.15
24 0.28
26 0.15
27 0.15
28 0.15
29 0.15
3 -0.57
30 0.15
31 0.15
32 0.15
33 0.15
34 0.15
4 -0.52
5 -0.52
6 -0.62
7 0.91
8 0.31

>  <PUBCHEM_EFFECTIVE_ROTOR_COUNT>  (1) 
6

>  <PUBCHEM_PHARMACOPHORE_FEATURES>  (1) 
9
1 2 acceptor
1 3 acceptor
1 4 acceptor
1 4 anion
1 5 acceptor
1 6 acceptor
6 15 17 18 20 22 23 rings
6 6 8 9 14 19 21 rings
6 8 9 10 11 12 13 rings

>  <PUBCHEM_HEAVY_ATOM_COUNT>  (1) 
25

>  <PUBCHEM_ATOM_DEF_STEREO_COUNT>  (1) 
0

>  <PUBCHEM_ATOM_UDEF_STEREO_COUNT>  (1) 
0

>  <PUBCHEM_BOND_DEF_STEREO_COUNT>  (1) 
0

>  <PUBCHEM_BOND_UDEF_STEREO_COUNT>  (1) 
0

>  <PUBCHEM_ISOTOPIC_ATOM_COUNT>  (1) 
0

>  <PUBCHEM_COMPONENT_COUNT>  (1) 
1

>  <PUBCHEM_CACTVS_TAUTO_COUNT>  (1) 
1

>  <PUBCHEM_CONFORMER_ID>  (1) 
0000865600000001

>  <PUBCHEM_MMFF94_ENERGY>  (1) 
94.9489

>  <PUBCHEM_FEATURE_SELFOVERLAP>  (1) 
45.787

>  <PUBCHEM_SHAPE_FINGERPRINT>  (1) 
10062212 137 18201722830078007275
10622 236 18271508850289325919
11049842 53 16839704884092683441
11578080 2 18056170558382055784
12107183 9 17690573982912685289
12236239 1 18201446856822234992
12553582 1 18116442448943216106
12788726 201 17845939632295335639
13004483 165 18047468920226996760
13009979 54 18201445739819722867
13134695 92 18040725753195957508
13167823 11 18342747281977291163
13726171 33 16843628186451883673
13899415 180 18040993982335070124
14480069 147 18265614458842388127
14787075 74 17845369028419783224
14790565 3 17972342834814915068
15003188 105 16909432943820128239
15842332 3 18272102612268867929
17138139 8 17770774912047706815
17357779 13 17603305920919871764
17818456 19 17913224056724516825
1813 80 18121235194105602326
19319366 153 17765420333639357007
20511986 3 18271236141018268233
20600515 1 16630528379964455897
20626108 58 18202274814468140811
20645477 70 17894917347056311258
21033648 144 17460883048806464052
21033648 29 16298942186214110573
21728266 224 17846490440069911743
2255824 54 18263380199310356852
235170 7 17604696906910142367
23559900 14 18261122889000786464
23598288 3 18131083623477937201
23598291 2 18341618100572944575
24771293 8 18412825807674641728
25147074 1 18273220807273218547
25222932 49 16408130438493920375
46194498 28 16878516746852121455
474 4 18262532505715128928
57527295 17 17168974587400911283
59025328 239 18263902449958451349
602551 16 16630803330891553359
7471813 234 18411135827193675452
9981440 41 17759533548326468976

>  <PUBCHEM_SHAPE_MULTIPOLES>  (1) 
475.18
10.23
3.43
1.87
6.1
0.15
-0.59
5.39
-1.58
-2.28
-1.11
2.56
0.05
-4.5

>  <PUBCHEM_SHAPE_SELFOVERLAP>  (1) 
1047.183

>  <PUBCHEM_SHAPE_VOLUME>  (1) 
252.9

>  <PUBCHEM_COORDINATE_TYPE>  (1) 
2
5
10

$$$$
