34427
     RDKit          3D

 24 26  0  0  0  0  0  0  0  0999 V2000
   -0.0508    0.1141   -0.7233 O   0  0  0  0  0  0  0  0  0  0  0  0
   -3.2316   -0.5656    1.8059 O   0  0  0  0  0  0  0  0  0  0  0  0
   -0.5854   -0.0164    1.5416 O   0  0  0  0  0  0  0  0  0  0  0  0
    0.8922   -3.8254   -0.6984 O   0  0  0  0  0  0  0  0  0  0  0  0
   -0.6001   -2.2368   -0.9936 O   0  0  0  0  0  0  0  0  0  0  0  0
    1.8347    2.0002   -0.1349 N   0  0  0  0  0  0  0  0  0  0  0  0
    0.5614   -2.6170   -0.7169 N   0  0  0  0  0  0  0  0  0  0  0  0
    2.1756    0.6977   -0.1192 C   0  0  0  0  0  0  0  0  0  0  0  0
    3.4843    0.2744    0.1939 C   0  0  0  0  0  0  0  0  0  0  0  0
    1.2261   -0.2759   -0.4170 C   0  0  0  0  0  0  0  0  0  0  0  0
    1.5447   -1.6361   -0.4101 C   0  0  0  0  0  0  0  0  0  0  0  0
    3.8051   -1.0937    0.2007 C   0  0  0  0  0  0  0  0  0  0  0  0
    2.8357   -2.0459   -0.1010 C   0  0  0  0  0  0  0  0  0  0  0  0
    4.4405    1.2540    0.4937 C   0  0  0  0  0  0  0  0  0  0  0  0
   -2.2579    0.6337   -0.0286 C   0  0  0  0  0  0  0  0  0  0  0  0
   -0.8955    0.2071    0.3811 C   0  0  0  0  0  0  0  0  0  0  0  0
   -3.3547    0.2262    0.7035 C   0  0  0  0  0  0  0  0  0  0  0  0
    4.0923    2.5969    0.4785 C   0  0  0  0  0  0  0  0  0  0  0  0
    2.7873    2.9141    0.1605 C   0  0  0  0  0  0  0  0  0  0  0  0
   -2.3789    1.4362   -1.1460 C   0  0  0  0  0  0  0  0  0  0  0  0
   -4.6256    0.6377    0.3020 C   0  0  0  0  0  0  0  0  0  0  0  0
   -3.6497    1.8477   -1.5475 C   0  0  0  0  0  0  0  0  0  0  0  0
   -4.7731    1.4484   -0.8234 C   0  0  0  0  0  0  0  0  0  0  0  0
   -3.2768   -1.9757    1.5987 C   0  0  0  0  0  0  0  0  0  0  0  0
  1 10  1  0
  1 16  1  0
  2 17  1  0
  2 24  1  0
  3 16  2  0
  4  7  1  0
  5  7  2  0
  6  8  2  0
  6 19  1  0
  7 11  1  0
  8  9  1  0
  8 10  1  0
  9 12  1  0
  9 14  2  0
 10 11  2  0
 11 13  1  0
 12 13  2  0
 14 18  1  0
 15 16  1  0
 15 17  2  0
 15 20  1  0
 17 21  1  0
 18 19  2  0
 20 22  2  0
 21 23  2  0
 22 23  1  0
M  CHG  2   4  -1   7   1
M  END
>  <PUBCHEM_COMPOUND_CID>  (1) 
34427

>  <PUBCHEM_CONFORMER_RMSD>  (1) 
0.8

>  <PUBCHEM_CONFORMER_DIVERSEORDER>  (1) 
2
27
30
4
16
12
23
18
14
25
24
28
10
15
22
17
29
11
26
3
21
5
19
20
13
1
31
8
7
6
9

>  <PUBCHEM_MMFF94_PARTIAL_CHARGES>  (1) 
32
1 -0.23
10 0.08
11 0.13
12 -0.15
13 -0.15
14 -0.15
15 0.09
16 0.63
17 0.08
18 -0.15
19 0.16
2 -0.36
20 -0.15
21 -0.15
22 -0.15
23 -0.15
24 0.28
25 0.15
26 0.15
27 0.15
28 0.15
29 0.15
3 -0.57
30 0.15
31 0.15
32 0.15
33 0.15
4 -0.52
5 -0.52
6 -0.62
7 0.91
8 0.31

>  <PUBCHEM_EFFECTIVE_ROTOR_COUNT>  (1) 
5

>  <PUBCHEM_PHARMACOPHORE_FEATURES>  (1) 
9
1 2 acceptor
1 3 acceptor
1 4 acceptor
1 4 anion
1 5 acceptor
1 6 acceptor
6 15 17 20 21 22 23 rings
6 6 8 9 14 18 19 rings
6 8 9 10 11 12 13 rings

>  <PUBCHEM_HEAVY_ATOM_COUNT>  (1) 
24

>  <PUBCHEM_ATOM_DEF_STEREO_COUNT>  (1) 
0

>  <PUBCHEM_ATOM_UDEF_STEREO_COUNT>  (1) 
0

>  <PUBCHEM_BOND_DEF_STEREO_COUNT>  (1) 
0

>  <PUBCHEM_BOND_UDEF_STEREO_COUNT>  (1) 
0

>  <PUBCHEM_ISOTOPIC_ATOM_COUNT>  (1) 
0

>  <PUBCHEM_COMPONENT_COUNT>  (1) 
1

>  <PUBCHEM_CACTVS_TAUTO_COUNT>  (1) 
1

>  <PUBCHEM_CONFORMER_ID>  (1) 
0000867B00000002

>  <PUBCHEM_MMFF94_ENERGY>  (1) 
99.9664

>  <PUBCHEM_FEATURE_SELFOVERLAP>  (1) 
45.791

>  <PUBCHEM_SHAPE_FINGERPRINT>  (1) 
10366900 7 18262525771211274503
10411042 1 17548696283814891270
10646746 165 17748827388725943057
10871710 139 16821383051623954060
11370993 70 18410008840733674171
11582403 64 17245783231306493229
11725454 13 17606087676985470637
12236239 1 17131545059628087044
12403259 118 18042116729820898160
12403259 327 17095516310276016808
12403259 415 18335710446114094284
12633257 1 18188209775878934993
13140716 1 18411416224270634402
13583140 156 18187644686947696298
14955137 171 18338515219595702394
15375358 24 18334294215403303775
17138139 8 17199630230362172239
17980427 23 17386572499766657381
18186145 218 18202288008860855884
20157964 124 18340761551683632013
204376 136 18343020025169223436
20645477 70 18340765940369691766
20681677 76 18335138695804020257
21033648 144 18261383447376450437
21033648 29 18270107032850756512
21065201 7 17095527257878316849
21756936 100 17131007497569283152
23227448 37 18340200898793616727
23557571 272 17822306686196114737
23558518 356 17903627833402207416
23559900 14 18337107848167917634
283562 15 17476344480748999790
3060560 45 18271241621723657142
335352 9 18413384342264357652
3380486 145 18191040074255906033
350125 39 18268992170813905814
469060 322 17905885134726575151
474 4 18343860000508065868
49207404 50 18336273430390051584
495365 180 18341598305116383920
5104073 3 18334297556698203729
633830 44 17631473226964223416
81228 2 17333073725718326970
8272917 22 18200313208488643413
9709674 26 18336268929802733207
9925002 15 17328596527402566431

>  <PUBCHEM_SHAPE_MULTIPOLES>  (1) 
454.6
9.19
3.32
1.24
3.25
1.48
0.22
-4.78
1.06
-2.22
-0.64
1.32
0.22
1.98

>  <PUBCHEM_SHAPE_SELFOVERLAP>  (1) 
1010.775

>  <PUBCHEM_SHAPE_VOLUME>  (1) 
239.1

>  <PUBCHEM_COORDINATE_TYPE>  (1) 
2
5
10

$$$$
