34424
     RDKit          3D

 26 28  0  0  0  0  0  0  0  0999 V2000
   -6.2354    1.3759   -0.9012 Cl  0  0  0  0  0  0  0  0  0  0  0  0
    0.1874   -0.1013   -0.6423 O   0  0  0  0  0  0  0  0  0  0  0  0
    0.0219    0.8517    1.4784 O   0  0  0  0  0  0  0  0  0  0  0  0
    1.6839   -3.8644   -0.7352 O   0  0  0  0  0  0  0  0  0  0  0  0
   -0.0352   -2.5045   -0.9179 O   0  0  0  0  0  0  0  0  0  0  0  0
   -3.3598   -2.3409    1.3149 O   0  0  0  0  0  0  0  0  0  0  0  0
   -1.2606   -1.6845    1.3321 O   0  0  0  0  0  0  0  0  0  0  0  0
    1.8156    2.0317   -0.1340 N   0  0  0  0  0  0  0  0  0  0  0  0
    1.1831   -2.7160   -0.7151 N   0  0  0  0  0  0  0  0  0  0  0  0
   -2.4685   -1.4998    1.0557 N   0  0  0  0  0  0  0  0  0  0  0  0
    2.3395    0.7917   -0.1590 C   0  0  0  0  0  0  0  0  0  0  0  0
    3.7116    0.5584    0.0709 C   0  0  0  0  0  0  0  0  0  0  0  0
    1.5229   -0.3060   -0.4168 C   0  0  0  0  0  0  0  0  0  0  0  0
    2.0326   -1.6063   -0.4502 C   0  0  0  0  0  0  0  0  0  0  0  0
    4.2245   -0.7494    0.0373 C   0  0  0  0  0  0  0  0  0  0  0  0
    3.3851   -1.8286   -0.2229 C   0  0  0  0  0  0  0  0  0  0  0  0
   -1.9194    0.6925    0.1029 C   0  0  0  0  0  0  0  0  0  0  0  0
    4.5341    1.6630    0.3306 C   0  0  0  0  0  0  0  0  0  0  0  0
   -2.8435   -0.2833    0.4198 C   0  0  0  0  0  0  0  0  0  0  0  0
   -0.4808    0.5039    0.4203 C   0  0  0  0  0  0  0  0  0  0  0  0
   -2.2857    1.8739   -0.5140 C   0  0  0  0  0  0  0  0  0  0  0  0
    3.9971    2.9420    0.3570 C   0  0  0  0  0  0  0  0  0  0  0  0
    2.6436    3.0708    0.1203 C   0  0  0  0  0  0  0  0  0  0  0  0
   -4.1864   -0.0709    0.1083 C   0  0  0  0  0  0  0  0  0  0  0  0
   -3.6285    2.0863   -0.8256 C   0  0  0  0  0  0  0  0  0  0  0  0
   -4.5790    1.1140   -0.5143 C   0  0  0  0  0  0  0  0  0  0  0  0
  1 26  1  0
  2 13  1  0
  2 20  1  0
  3 20  2  0
  4  9  1  0
  5  9  2  0
  6 10  1  0
  7 10  2  0
  8 11  2  0
  8 23  1  0
  9 14  1  0
 10 19  1  0
 11 12  1  0
 11 13  1  0
 12 15  1  0
 12 18  2  0
 13 14  2  0
 14 16  1  0
 15 16  2  0
 17 19  2  0
 17 20  1  0
 17 21  1  0
 18 22  1  0
 19 24  1  0
 21 25  2  0
 22 23  2  0
 24 26  2  0
 25 26  1  0
M  CHG  4   4  -1   6  -1   9   1  10   1
M  END
>  <PUBCHEM_COMPOUND_CID>  (1) 
34424

>  <PUBCHEM_CONFORMER_RMSD>  (1) 
0.8

>  <PUBCHEM_CONFORMER_DIVERSEORDER>  (1) 
1
10
11
5
9
18
12
17
13
14
8
16
7
15
6
19
2
20
4
3

>  <PUBCHEM_MMFF94_PARTIAL_CHARGES>  (1) 
33
1 -0.18
10 0.91
11 0.31
13 0.08
14 0.13
15 -0.15
16 -0.15
17 0.09
18 -0.15
19 0.13
2 -0.23
20 0.63
21 -0.15
22 -0.15
23 0.16
24 -0.15
25 -0.15
26 0.18
27 0.15
28 0.15
29 0.15
3 -0.57
30 0.15
31 0.15
32 0.15
33 0.15
34 0.15
4 -0.52
5 -0.52
6 -0.52
7 -0.52
8 -0.62
9 0.91

>  <PUBCHEM_EFFECTIVE_ROTOR_COUNT>  (1) 
5

>  <PUBCHEM_PHARMACOPHORE_FEATURES>  (1) 
11
1 3 acceptor
1 4 acceptor
1 4 anion
1 5 acceptor
1 6 acceptor
1 6 anion
1 7 acceptor
1 8 acceptor
6 11 12 13 14 15 16 rings
6 17 19 21 24 25 26 rings
6 8 11 12 18 22 23 rings

>  <PUBCHEM_HEAVY_ATOM_COUNT>  (1) 
26

>  <PUBCHEM_ATOM_DEF_STEREO_COUNT>  (1) 
0

>  <PUBCHEM_ATOM_UDEF_STEREO_COUNT>  (1) 
0

>  <PUBCHEM_BOND_DEF_STEREO_COUNT>  (1) 
0

>  <PUBCHEM_BOND_UDEF_STEREO_COUNT>  (1) 
0

>  <PUBCHEM_ISOTOPIC_ATOM_COUNT>  (1) 
0

>  <PUBCHEM_COMPONENT_COUNT>  (1) 
1

>  <PUBCHEM_CACTVS_TAUTO_COUNT>  (1) 
1

>  <PUBCHEM_CONFORMER_ID>  (1) 
0000867800000001

>  <PUBCHEM_MMFF94_ENERGY>  (1) 
106.7661

>  <PUBCHEM_FEATURE_SELFOVERLAP>  (1) 
56.033

>  <PUBCHEM_SHAPE_FINGERPRINT>  (1) 
10411042 1 17692532217638929822
10693767 8 17845375441006657158
10871710 139 16607177326035288012
11370993 70 18409727378393770060
12011746 2 18339086991126690942
12403259 118 18044929310719178192
12403259 415 18337118959195590568
12553582 1 17764892198938541770
12633257 1 18114170900700754768
12730499 353 18411704283632552921
13140716 1 18411990143607394776
13402501 40 18334856086956352901
13583140 156 18410858788849194140
138480 1 17980482265532859750
14223421 5 18336836367532469386
14790565 3 17758123979321269004
15375358 24 18408604742931143235
18681886 176 18272079466880117802
200 152 17845930737032527965
20157964 124 18412820262296927917
20645477 56 18186522094761802701
20645477 70 18340484474025133196
20681677 76 18409169934662275354
20715895 44 18338229380267353177
21033648 144 18260818324101057677
21033648 29 18127681832959734208
21285901 2 17896600591905535965
21859007 373 17170090578987358533
22149856 69 18337410300888379137
22393880 68 18340496633315061814
23227448 37 18340483460497306063
23557571 272 17968385653452289593
23559900 14 18410291385162405920
3298306 158 18411982494143831908
335352 9 18413105061979044516
3380486 145 18192730036449318249
350125 39 18339090405520039956
474 4 18341891883305549280
495365 180 18271794731469270168
5104073 3 18335423477958550545
59755656 215 18334575711575627108
7808743 9 17834676381209637120
8272917 22 18271807878195260804
9709674 26 18338240371125508967

>  <PUBCHEM_SHAPE_MULTIPOLES>  (1) 
486.78
10.28
3.62
1
8.44
1.3
0.18
-5.15
-1.1
-2.76
-0.34
0.57
0.32
1.89

>  <PUBCHEM_SHAPE_SELFOVERLAP>  (1) 
1080.905

>  <PUBCHEM_SHAPE_VOLUME>  (1) 
259.1

>  <PUBCHEM_COORDINATE_TYPE>  (1) 
2
5
10

$$$$
