34438
     RDKit          3D

 13 14  0  0  1  0  0  0  0  0999 V2000
   -1.6509    1.2994   -0.0457 O   0  0  0  0  0  0  0  0  0  0  0  0
    3.5713   -0.3638    0.0527 O   0  0  0  0  0  0  0  0  0  0  0  0
   -4.3068   -1.2672    0.0398 N   0  0  0  0  0  0  0  0  0  0  0  0
   -2.2947    0.0435   -0.3875 C   0  0  0  0  0  0  0  0  0  0  0  0
   -1.3410   -1.1115   -0.0445 C   0  0  0  0  0  0  0  0  0  0  0  0
   -0.0604   -0.3701   -0.0532 C   0  0  0  0  0  0  0  0  0  0  0  0
   -0.3145    0.9926   -0.0280 C   0  0  0  0  0  0  0  0  0  0  0  0
   -3.6162   -0.0513    0.3574 C   0  0  0  0  0  0  0  0  0  0  0  0
    1.2358   -0.8508   -0.0227 C   0  0  0  0  0  0  0  0  0  0  0  0
    0.7026    1.9253    0.0320 C   0  0  0  0  0  0  0  0  0  0  0  0
    2.2816    0.0747    0.0248 C   0  0  0  0  0  0  0  0  0  0  0  0
    2.0165    1.4541    0.0535 C   0  0  0  0  0  0  0  0  0  0  0  0
    3.7767   -1.7748    0.0213 C   0  0  0  0  0  0  0  0  0  0  0  0
  1  4  1  0
  1  7  1  0
  2 11  1  0
  2 13  1  0
  3  8  1  0
  4  5  1  0
  4  8  1  0
  5  6  1  0
  6  7  2  0
  6  9  1  0
  7 10  1  0
  9 11  2  0
 10 12  2  0
 11 12  1  0
M  END
>  <PUBCHEM_COMPOUND_CID>  (1) 
34438

>  <PUBCHEM_CONFORMER_RMSD>  (1) 
0.6

>  <PUBCHEM_CONFORMER_DIVERSEORDER>  (1) 
1
7
3
5
4
6
2

>  <PUBCHEM_MMFF94_PARTIAL_CHARGES>  (1) 
18
1 -0.36
10 -0.15
11 0.08
12 -0.15
13 0.28
19 0.15
2 -0.36
20 0.15
21 0.15
22 0.36
23 0.36
3 -0.99
4 0.28
5 0.14
6 -0.14
7 0.08
8 0.27
9 -0.15

>  <PUBCHEM_EFFECTIVE_ROTOR_COUNT>  (1) 
2.6

>  <PUBCHEM_PHARMACOPHORE_FEATURES>  (1) 
6
1 1 acceptor
1 2 acceptor
1 3 cation
1 3 donor
5 1 4 5 6 7 rings
6 6 7 9 10 11 12 rings

>  <PUBCHEM_HEAVY_ATOM_COUNT>  (1) 
13

>  <PUBCHEM_ATOM_DEF_STEREO_COUNT>  (1) 
0

>  <PUBCHEM_ATOM_UDEF_STEREO_COUNT>  (1) 
1

>  <PUBCHEM_BOND_DEF_STEREO_COUNT>  (1) 
0

>  <PUBCHEM_BOND_UDEF_STEREO_COUNT>  (1) 
0

>  <PUBCHEM_ISOTOPIC_ATOM_COUNT>  (1) 
0

>  <PUBCHEM_COMPONENT_COUNT>  (1) 
1

>  <PUBCHEM_CACTVS_TAUTO_COUNT>  (1) 
1

>  <PUBCHEM_CONFORMER_ID>  (1) 
0000868600000001

>  <PUBCHEM_MMFF94_ENERGY>  (1) 
40.8396

>  <PUBCHEM_FEATURE_SELFOVERLAP>  (1) 
30.548

>  <PUBCHEM_SHAPE_FINGERPRINT>  (1) 
10130415 120 18411136939510661744
10219947 1 18344148098329608759
11471102 20 18410006676154475125
11543360 7 15719688618293556478
11769659 78 18412259545214550375
12032990 46 18410577253779994374
12932764 1 17240750805240770067
13690532 89 18410572881561380759
14115302 16 17676780841280759367
14252887 29 18130512959463032790
14325111 11 18410856603032814541
15442244 35 18413110563019760561
15536298 74 18271525389954434096
16945 1 18411410747902333012
17844478 74 18040716982941239333
18186145 218 17749100110986306055
19422 9 18411989074133949673
200 152 18131622401297407319
20201158 50 18408887334341108923
20645477 70 18336820983297517687
20871998 184 18058443206156009684
20871998 22 18200322000418684062
21267235 1 18411146826531015438
21296965 67 18411698755777456488
21501502 16 18196371648302758799
21501925 9 18411410722390836272
221490 88 18190748733069695387
22959321 4 18339081596436581819
23402539 116 18271235036974348279
23463225 33 18411420592172941406
23552423 10 18263081183539418972
23559900 14 18052247411617221858
2748010 2 18338220588332109348
5104073 3 18411981351508445793
7364860 26 18269555099683218496
8809292 202 18187369865086453659

>  <PUBCHEM_SHAPE_MULTIPOLES>  (1) 
250.81
6.41
1.79
0.62
1.99
0.3
0
-3.34
-0.35
-0.81
-0.02
0.05
0
0.02

>  <PUBCHEM_SHAPE_SELFOVERLAP>  (1) 
534.442

>  <PUBCHEM_SHAPE_VOLUME>  (1) 
141.5

>  <PUBCHEM_COORDINATE_TYPE>  (1) 
2
5
10

$$$$
