34446
     RDKit          3D

 22 23  0  0  0  0  0  0  0  0999 V2000
    1.5565    2.9427   -0.5290 S   0  0  0  0  0  0  0  0  0  0  0  0
   -0.5031    3.0196   -0.5390 S   0  0  0  0  0  0  0  0  0  0  0  0
    1.3495    2.6198    2.4656 S   0  0  0  0  0  0  0  0  0  0  0  0
   -0.3796    1.1654   -2.9185 S   0  0  0  0  0  0  0  0  0  0  0  0
    3.3644   -1.6602   -0.0494 N   0  0  0  0  0  0  0  0  0  0  0  0
   -3.7053   -1.0429    0.3124 N   0  0  0  0  0  0  0  0  0  0  0  0
    2.5395    0.9292    0.7957 N   0  0  0  0  0  0  0  0  0  0  0  0
   -1.6545    0.6874   -0.6361 N   0  0  0  0  0  0  0  0  0  0  0  0
    3.4489   -0.5169   -0.9728 C   0  0  0  0  0  0  0  0  0  0  0  0
    2.2183   -1.5076    0.8618 C   0  0  0  0  0  0  0  0  0  0  0  0
   -3.9324    0.4101    0.2468 C   0  0  0  0  0  0  0  0  0  0  0  0
   -2.8113   -1.4778   -0.7734 C   0  0  0  0  0  0  0  0  0  0  0  0
    3.5914    0.7953   -0.2018 C   0  0  0  0  0  0  0  0  0  0  0  0
    2.3346   -0.2157    1.6709 C   0  0  0  0  0  0  0  0  0  0  0  0
   -2.6112    1.1725    0.3478 C   0  0  0  0  0  0  0  0  0  0  0  0
   -1.4667   -0.7551   -0.6930 C   0  0  0  0  0  0  0  0  0  0  0  0
    3.2639   -2.9145   -0.7944 C   0  0  0  0  0  0  0  0  0  0  0  0
   -4.9759   -1.7641    0.2500 C   0  0  0  0  0  0  0  0  0  0  0  0
    1.8651    2.0919    0.9708 C   0  0  0  0  0  0  0  0  0  0  0  0
   -0.9022    1.5354   -1.3793 C   0  0  0  0  0  0  0  0  0  0  0  0
    3.2802   -4.1116    0.1410 C   0  0  0  0  0  0  0  0  0  0  0  0
   -5.8703   -1.4029    1.4238 C   0  0  0  0  0  0  0  0  0  0  0  0
  1  2  1  0
  1 19  1  0
  2 20  1  0
  3 19  2  0
  4 20  2  0
  5  9  1  0
  5 10  1  0
  5 17  1  0
  6 11  1  0
  6 12  1  0
  6 18  1  0
  7 13  1  0
  7 14  1  0
  7 19  1  0
  8 15  1  0
  8 16  1  0
  8 20  1  0
  9 13  1  0
 10 14  1  0
 11 15  1  0
 12 16  1  0
 17 21  1  0
 18 22  1  0
M  END
>  <PUBCHEM_COMPOUND_CID>  (1) 
34446

>  <PUBCHEM_CONFORMER_RMSD>  (1) 
1

>  <PUBCHEM_CONFORMER_DIVERSEORDER>  (1) 
1
42
35
89
104
93
23
105
56
62
98
96
21
6
9
7
29
36
16
40
17
8
54
14
11
33
19
12
22
37
87
69
91
18
85
72
71
28
43
3
38
52
82
20
58
48
39
90
107
103
112
108
65
46
5
64
31
110
57
4
79
53
84
30
47
27
88
25
101
80
59
100
111
109
74
34
81
70
99
68
45
97
60
77
102
76
10
26
44
86
63
75
66
73
50
51
92
94
106
95
67
2
32
55
78
13
24
41
61
49
15
83

>  <PUBCHEM_MMFF94_PARTIAL_CHARGES>  (1) 
20
1 -0.14
10 0.27
11 0.27
12 0.27
13 0.3
14 0.3
15 0.3
16 0.3
17 0.27
18 0.27
19 0.58
2 -0.14
20 0.58
3 -0.38
4 -0.38
5 -0.81
6 -0.81
7 -0.66
8 -0.66
9 0.27

>  <PUBCHEM_EFFECTIVE_ROTOR_COUNT>  (1) 
9.4

>  <PUBCHEM_PHARMACOPHORE_FEATURES>  (1) 
6
1 3 acceptor
1 4 acceptor
1 5 cation
1 6 cation
6 5 7 9 10 13 14 rings
6 6 8 11 12 15 16 rings

>  <PUBCHEM_HEAVY_ATOM_COUNT>  (1) 
22

>  <PUBCHEM_ATOM_DEF_STEREO_COUNT>  (1) 
0

>  <PUBCHEM_ATOM_UDEF_STEREO_COUNT>  (1) 
0

>  <PUBCHEM_BOND_DEF_STEREO_COUNT>  (1) 
0

>  <PUBCHEM_BOND_UDEF_STEREO_COUNT>  (1) 
0

>  <PUBCHEM_ISOTOPIC_ATOM_COUNT>  (1) 
0

>  <PUBCHEM_COMPONENT_COUNT>  (1) 
1

>  <PUBCHEM_CACTVS_TAUTO_COUNT>  (1) 
1

>  <PUBCHEM_CONFORMER_ID>  (1) 
0000868E00000001

>  <PUBCHEM_MMFF94_ENERGY>  (1) 
49.5238

>  <PUBCHEM_FEATURE_SELFOVERLAP>  (1) 
30.446

>  <PUBCHEM_SHAPE_FINGERPRINT>  (1) 
10064457 181 17622435469407847632
10981352 41 16375258296941495819
11140007 195 16773534208168732388
12553582 1 18336816589192182236
12596599 1 18334853871000914569
12633257 1 17915750764656927585
12712778 12 17181905785026823210
12778500 126 18058751168575947345
12892183 10 18059853986907067369
12990986 174 18048307856616848274
13135754 10 16841653188774366502
13464513 79 18261955266590019568
13533116 47 18271809090225409563
13583140 156 17844515798923076173
14251731 5 18337393725486249406
14251740 57 18264499549619368339
14251764 30 18263374615494533459
14863182 85 18191308397457622244
15003188 3 17895195562400920307
15342816 4 16733252547587222577
15422964 175 18337941342385526444
15664445 248 17095525148870410348
17492 54 16951709058654849452
1813 80 17530685428953433325
20600515 1 18053958246566066884
20775530 9 18338232652927126166
23466295 7 17763753087633175474
23559900 14 18409444800190947013
2818148 4 18194697972751699648
3117164 225 18339657659426428833
31174 14 18343012320050719892
345986 75 17846503595306735875
3737641 26 18411424977471837094
445580 42 17548122339056025474
484985 159 17402053297131804506
6287921 2 18268708492371571487
7097593 13 18130784585725909733

>  <PUBCHEM_SHAPE_MULTIPOLES>  (1) 
448.22
9.06
4.26
2.01
11.39
1.61
-0.3
8.16
2.81
-4.05
0.24
-0.24
-1.28
1.38

>  <PUBCHEM_SHAPE_SELFOVERLAP>  (1) 
845.276

>  <PUBCHEM_SHAPE_VOLUME>  (1) 
281

>  <PUBCHEM_COORDINATE_TYPE>  (1) 
2
5
10

$$$$
