34456
     RDKit          3D

 21 21  0  0  1  0  0  0  0  0999 V2000
   -0.0436    2.5638    0.8530 I   0  0  0  0  0  0  0  0  0  0  0  0
   -3.4853   -2.3000   -0.5135 I   0  0  0  0  0  0  0  0  0  0  0  0
    2.3758   -3.0294    0.2515 I   0  0  0  0  0  0  0  0  0  0  0  0
   -4.6755    1.1471   -1.2179 O   0  0  0  0  0  0  0  0  0  0  0  0
   -2.7268    0.7339   -2.2975 O   0  0  0  0  0  0  0  0  0  0  0  0
    2.9676    0.7505   -1.3524 O   0  0  0  0  0  0  0  0  0  0  0  0
    2.1446    0.1862    0.7727 N   0  0  0  0  0  0  0  0  0  0  0  0
   -2.7123    0.8321    0.1466 C   0  0  0  0  0  0  0  0  0  0  0  0
   -1.4998   -0.0504    0.1784 C   0  0  0  0  0  0  0  0  0  0  0  0
   -3.8120    0.4594    1.1748 C   0  0  0  0  0  0  0  0  0  0  0  0
   -0.2434    0.4852    0.4617 C   0  0  0  0  0  0  0  0  0  0  0  0
    0.8659   -0.3490    0.4874 C   0  0  0  0  0  0  0  0  0  0  0  0
   -1.6350   -1.4152   -0.0766 C   0  0  0  0  0  0  0  0  0  0  0  0
   -3.3122    0.5101    2.6132 C   0  0  0  0  0  0  0  0  0  0  0  0
   -3.3403    0.8921   -1.2501 C   0  0  0  0  0  0  0  0  0  0  0  0
    0.7428   -1.7086    0.2350 C   0  0  0  0  0  0  0  0  0  0  0  0
   -0.5137   -2.2442   -0.0482 C   0  0  0  0  0  0  0  0  0  0  0  0
    4.3250    1.1685    0.5962 C   0  0  0  0  0  0  0  0  0  0  0  0
    3.0739    0.6921   -0.1320 C   0  0  0  0  0  0  0  0  0  0  0  0
    5.6038    1.0541   -0.2306 C   0  0  0  0  0  0  0  0  0  0  0  0
    5.9006   -0.3784   -0.6515 C   0  0  0  0  0  0  0  0  0  0  0  0
  1 11  1  0
  2 13  1  0
  3 16  1  0
  4 15  1  0
  5 15  2  0
  6 19  2  0
  7 12  1  0
  7 19  1  0
  8  9  1  0
  8 10  1  0
  8 15  1  0
  9 11  2  0
  9 13  1  0
 10 14  1  0
 11 12  1  0
 12 16  2  0
 13 17  2  0
 16 17  1  0
 18 19  1  0
 18 20  1  0
 20 21  1  0
M  END
>  <PUBCHEM_COMPOUND_CID>  (1) 
34456

>  <PUBCHEM_CONFORMER_RMSD>  (1) 
0.8

>  <PUBCHEM_CONFORMER_DIVERSEORDER>  (1) 
1
13
15
2
14
19
18
4
17
8
5
3
7
16
10
11
9
12
20
6

>  <PUBCHEM_MMFF94_PARTIAL_CHARGES>  (1) 
20
1 -0.08
11 0.08
12 0.12
13 0.08
15 0.66
16 0.08
17 -0.15
18 0.06
19 0.57
2 -0.08
28 0.15
29 0.37
3 -0.08
37 0.5
4 -0.65
5 -0.57
6 -0.57
7 -0.55
8 0.2
9 -0.14

>  <PUBCHEM_EFFECTIVE_ROTOR_COUNT>  (1) 
7

>  <PUBCHEM_PHARMACOPHORE_FEATURES>  (1) 
11
1 1 hydrophobe
1 14 hydrophobe
1 2 hydrophobe
1 21 hydrophobe
1 3 hydrophobe
1 4 acceptor
1 5 acceptor
1 6 acceptor
1 7 donor
3 4 5 15 anion
6 9 11 12 13 16 17 rings

>  <PUBCHEM_HEAVY_ATOM_COUNT>  (1) 
21

>  <PUBCHEM_ATOM_DEF_STEREO_COUNT>  (1) 
0

>  <PUBCHEM_ATOM_UDEF_STEREO_COUNT>  (1) 
1

>  <PUBCHEM_BOND_DEF_STEREO_COUNT>  (1) 
0

>  <PUBCHEM_BOND_UDEF_STEREO_COUNT>  (1) 
0

>  <PUBCHEM_ISOTOPIC_ATOM_COUNT>  (1) 
0

>  <PUBCHEM_COMPONENT_COUNT>  (1) 
1

>  <PUBCHEM_CACTVS_TAUTO_COUNT>  (1) 
2

>  <PUBCHEM_CONFORMER_ID>  (1) 
0000869800000001

>  <PUBCHEM_MMFF94_ENERGY>  (1) 
88.9561

>  <PUBCHEM_FEATURE_SELFOVERLAP>  (1) 
55.882

>  <PUBCHEM_SHAPE_FINGERPRINT>  (1) 
10498660 4 18411414029615997848
11315181 36 17988645242200726264
11578080 2 17604987001295106318
12403259 415 18340482391467239016
12403814 3 17822294617211561625
12553582 1 18343579625206773688
12644460 14 18263088734408813842
12788726 201 17488464070324323233
13140716 1 18197227051011317120
13675066 3 17749391490252819720
14790565 3 17983589506509095401
14955137 171 18264511609296484288
15183329 4 18411704258411349598
16945 1 18342449331769705745
18186145 218 18341049700754482416
18219364 16 18336548304392723881
19591789 44 18195809797713356754
200 152 16415484865592109472
20600515 1 18200890572822425448
21756936 100 17560532728714437547
22182313 1 17968949577909716846
23402539 116 18060142046395339200
23557571 272 17988091105098131582
23559900 14 18201158849928585832
23566358 2 18413672413282862454
25147074 1 17845089567555874307
2748010 2 17328857107290119819
350125 39 18194684997824401113
469060 322 18115313418136960059
5104073 3 18342459287915465578
59755656 215 18410012156354020406
59755656 520 18201733841846646611
633830 44 18060425737517080936

>  <PUBCHEM_SHAPE_MULTIPOLES>  (1) 
445.39
10.07
2.97
1.53
10.55
1.58
0
-1.94
2.18
0.12
-0.45
-1.84
-0.57
-0.37

>  <PUBCHEM_SHAPE_SELFOVERLAP>  (1) 
849.978

>  <PUBCHEM_SHAPE_VOLUME>  (1) 
281.9

>  <PUBCHEM_COORDINATE_TYPE>  (1) 
2
5
10

$$$$
