34464
     RDKit          3D

 14 15  0  0  0  0  0  0  0  0999 V2000
    0.0685    0.0012   -0.0011 C   0  0  0  0  0  0  0  0  0  0  0  0
    1.5152    0.0010   -0.0013 C   0  0  0  0  0  0  0  0  0  0  0  0
   -0.6296    0.8597   -0.8505 C   0  0  0  0  0  0  0  0  0  0  0  0
   -0.6283   -0.8581    0.8484 C   0  0  0  0  0  0  0  0  0  0  0  0
    2.2130   -0.8499   -0.8585 C   0  0  0  0  0  0  0  0  0  0  0  0
    2.2125    0.8508    0.8575 C   0  0  0  0  0  0  0  0  0  0  0  0
   -2.0244    0.8589   -0.8501 C   0  0  0  0  0  0  0  0  0  0  0  0
   -2.0231   -0.8592    0.8486 C   0  0  0  0  0  0  0  0  0  0  0  0
   -2.7213   -0.0007   -0.0007 C   0  0  0  0  0  0  0  0  0  0  0  0
    3.6079   -0.8510   -0.8568 C   0  0  0  0  0  0  0  0  0  0  0  0
    3.6073    0.8498    0.8590 C   0  0  0  0  0  0  0  0  0  0  0  0
    4.3051   -0.0011    0.0018 C   0  0  0  0  0  0  0  0  0  0  0  0
   -4.1501   -0.0007    0.0011 C   0  0  0  0  0  0  0  0  0  0  0  0
   -5.3529   -0.0008    0.0027 C   0  0  0  0  0  0  0  0  0  0  0  0
  1  2  1  0
  1  3  2  0
  1  4  1  0
  2  5  2  0
  2  6  1  0
  3  7  1  0
  4  8  2  0
  5 10  1  0
  6 11  2  0
  7  9  2  0
  8  9  1  0
  9 13  1  0
 10 12  2  0
 11 12  1  0
 13 14  3  0
M  END
>  <PUBCHEM_COMPOUND_CID>  (1) 
34464

>  <PUBCHEM_CONFORMER_RMSD>  (1) 
0.4

>  <PUBCHEM_CONFORMER_DIVERSEORDER>  (1) 
1
2

>  <PUBCHEM_MMFF94_PARTIAL_CHARGES>  (1) 
22
10 -0.15
11 -0.15
12 -0.15
13 -0.07
14 -0.18
15 0.15
16 0.15
17 0.15
18 0.15
19 0.15
20 0.15
21 0.15
22 0.15
23 0.15
24 0.18
3 -0.15
4 -0.15
5 -0.15
6 -0.15
7 -0.15
8 -0.15
9 0.07

>  <PUBCHEM_EFFECTIVE_ROTOR_COUNT>  (1) 
1

>  <PUBCHEM_PHARMACOPHORE_FEATURES>  (1) 
3
1 14 hydrophobe
6 1 3 4 7 8 9 rings
6 2 5 6 10 11 12 rings

>  <PUBCHEM_HEAVY_ATOM_COUNT>  (1) 
14

>  <PUBCHEM_ATOM_DEF_STEREO_COUNT>  (1) 
0

>  <PUBCHEM_ATOM_UDEF_STEREO_COUNT>  (1) 
0

>  <PUBCHEM_BOND_DEF_STEREO_COUNT>  (1) 
0

>  <PUBCHEM_BOND_UDEF_STEREO_COUNT>  (1) 
0

>  <PUBCHEM_ISOTOPIC_ATOM_COUNT>  (1) 
0

>  <PUBCHEM_COMPONENT_COUNT>  (1) 
1

>  <PUBCHEM_CACTVS_TAUTO_COUNT>  (1) 
1

>  <PUBCHEM_CONFORMER_ID>  (1) 
000086A000000001

>  <PUBCHEM_MMFF94_ENERGY>  (1) 
39.595

>  <PUBCHEM_FEATURE_SELFOVERLAP>  (1) 
15.223

>  <PUBCHEM_SHAPE_FINGERPRINT>  (1) 
11132069 177 18186519925618318571
11287383 113 18131631222901945579
11401426 45 18040149626577972223
11471102 20 17917993884531637512
12236239 1 15719391733184846496
13538477 17 16153715361548445290
13581323 91 17312814974873686632
13760787 19 16559026121224627837
13862211 1 17676203602714774147
14115302 16 16008755731304533354
14911166 2 17748828527461780935
14993402 34 16443351965827455215
15219456 202 18341891874947521980
15342168 16 17772740813564485408
16945 1 17676488349981491971
17834072 33 17275097366886476525
18175812 5 18411702127131572678
18186145 218 18341327816760676001
19026448 4 18131069333826350445
19026448 5 17060620001690686469
200 152 17203327797254856987
20279233 1 18410298016618473002
20510252 161 18187359883587810173
20528008 55 18343021111764443667
20645476 183 15647347371814921243
20645477 70 17917997127058269406
22485316 2 18202562882446549823
22854114 59 18272650159947111841
23048698 100 16773800302893773578
23402539 116 18041271132569916295
23402655 69 17561082492585665401
23557571 272 18187085010202427412
23559900 14 18114187445336882182
265663 24 16917351428835949727
26918003 58 17775566446293026722
474 4 16342557630886854008
4990 188 18410857637914191647
522135 26 17418375787827033188
5374978 207 17385720313925624700
69090 78 18342735239031580271
77492 1 15770057233345734660
77779 3 17703791422801585893
8272917 22 16988575549946905103

>  <PUBCHEM_SHAPE_MULTIPOLES>  (1) 
288.11
9.11
1.03
1.03
4.52
0
0
-0.01
-0.01
-0.3
0
-0.36
0
0.88

>  <PUBCHEM_SHAPE_SELFOVERLAP>  (1) 
625.072

>  <PUBCHEM_SHAPE_VOLUME>  (1) 
148.3

>  <PUBCHEM_COORDINATE_TYPE>  (1) 
2
5
10

$$$$
