34465
     RDKit          3D

 26 28  0  0  0  0  0  0  0  0999 V2000
    0.3128   -0.2758   -0.1706 O   0  0  0  0  0  0  0  0  0  0  0  0
   -4.4571    0.9427    0.1749 O   0  0  0  0  0  0  0  0  0  0  0  0
    0.6861   -1.4837    1.7879 O   0  0  0  0  0  0  0  0  0  0  0  0
    2.2962   -3.1358   -2.2418 O   0  0  0  0  0  0  0  0  0  0  0  0
    0.4069   -2.3420   -1.4431 O   0  0  0  0  0  0  0  0  0  0  0  0
    1.6533    1.8496    0.9006 N   0  0  0  0  0  0  0  0  0  0  0  0
    1.6469   -2.2717   -1.6081 N   0  0  0  0  0  0  0  0  0  0  0  0
    2.3375    0.9136    0.2161 C   0  0  0  0  0  0  0  0  0  0  0  0
    3.7339    0.9968    0.0338 C   0  0  0  0  0  0  0  0  0  0  0  0
    1.6688   -0.1756   -0.3359 C   0  0  0  0  0  0  0  0  0  0  0  0
    2.3469   -1.1653   -1.0519 C   0  0  0  0  0  0  0  0  0  0  0  0
    4.4161    0.0015   -0.6863 C   0  0  0  0  0  0  0  0  0  0  0  0
    3.7222   -1.0769   -1.2276 C   0  0  0  0  0  0  0  0  0  0  0  0
   -1.5477   -1.0391    1.0834 C   0  0  0  0  0  0  0  0  0  0  0  0
   -3.9423    1.6536   -0.9499 C   0  0  0  0  0  0  0  0  0  0  0  0
   -5.1072    2.1714   -1.7797 C   0  0  0  0  0  0  0  0  0  0  0  0
   -3.6915   -0.0660    0.6735 C   0  0  0  0  0  0  0  0  0  0  0  0
    4.4075    2.0929    0.5893 C   0  0  0  0  0  0  0  0  0  0  0  0
   -2.3018   -0.0038    0.5703 C   0  0  0  0  0  0  0  0  0  0  0  0
   -0.0685   -0.9730    0.9739 C   0  0  0  0  0  0  0  0  0  0  0  0
   -2.1227   -2.1342    1.6956 C   0  0  0  0  0  0  0  0  0  0  0  0
   -4.2967   -1.1624    1.2878 C   0  0  0  0  0  0  0  0  0  0  0  0
    3.7053    3.0591    1.2952 C   0  0  0  0  0  0  0  0  0  0  0  0
   -3.5122   -2.1965    1.7989 C   0  0  0  0  0  0  0  0  0  0  0  0
   -4.6338    2.9289   -3.0071 C   0  0  0  0  0  0  0  0  0  0  0  0
    2.3411    2.8918    1.4210 C   0  0  0  0  0  0  0  0  0  0  0  0
  1 10  1  0
  1 20  1  0
  2 15  1  0
  2 17  1  0
  3 20  2  0
  4  7  1  0
  5  7  2  0
  6  8  2  0
  6 26  1  0
  7 11  1  0
  8  9  1  0
  8 10  1  0
  9 12  1  0
  9 18  2  0
 10 11  2  0
 11 13  1  0
 12 13  2  0
 14 19  1  0
 14 20  1  0
 14 21  2  0
 15 16  1  0
 16 25  1  0
 17 19  2  0
 17 22  1  0
 18 23  1  0
 21 24  1  0
 22 24  2  0
 23 26  2  0
M  CHG  2   4  -1   7   1
M  END
>  <PUBCHEM_COMPOUND_CID>  (1) 
34465

>  <PUBCHEM_CONFORMER_RMSD>  (1) 
0.8

>  <PUBCHEM_CONFORMER_DIVERSEORDER>  (1) 
1
132
158
164
37
114
152
112
18
142
80
166
19
62
174
27
109
75
159
99
129
160
121
154
65
153
133
157
12
186
178
145
44
148
95
147
139
146
115
149
179
171
143
123
100
70
137
94
161
31
35
122
2
46
60
141
138
55
16
168
108
17
53
128
144
125
84
14
184
81
118
88
124
177
172
169
110
103
3
102
5
167
71
104
92
181
59
156
67
127
10
85
131
107
86
187
130
4
116
93
7
120
134
117
151
119
13
155
182
97
162
89
105
183
106
165
48
101
22
170
150
173
76
140
126
176
180
52
73
15
82
98
111
6
24
185
23
78
28
136
8
68
25
40
96
33
50
54
64
51
66
87
175
39
72
32
57
77
47
26
163
56
90
30
79
83
34
58
49
42
91
11
113
45
29
36
63
69
135
41
20
61
21
43
74
38
9

>  <PUBCHEM_MMFF94_PARTIAL_CHARGES>  (1) 
32
1 -0.23
10 0.08
11 0.13
12 -0.15
13 -0.15
14 0.09
15 0.28
17 0.08
18 -0.15
19 -0.15
2 -0.36
20 0.63
21 -0.15
22 -0.15
23 -0.15
24 -0.15
26 0.16
27 0.15
28 0.15
3 -0.57
33 0.15
34 0.15
35 0.15
36 0.15
37 0.15
38 0.15
4 -0.52
42 0.15
5 -0.52
6 -0.62
7 0.91
8 0.31

>  <PUBCHEM_EFFECTIVE_ROTOR_COUNT>  (1) 
7

>  <PUBCHEM_PHARMACOPHORE_FEATURES>  (1) 
10
1 2 acceptor
1 25 hydrophobe
1 3 acceptor
1 4 acceptor
1 4 anion
1 5 acceptor
1 6 acceptor
6 14 17 19 21 22 24 rings
6 6 8 9 18 23 26 rings
6 8 9 10 11 12 13 rings

>  <PUBCHEM_HEAVY_ATOM_COUNT>  (1) 
26

>  <PUBCHEM_ATOM_DEF_STEREO_COUNT>  (1) 
0

>  <PUBCHEM_ATOM_UDEF_STEREO_COUNT>  (1) 
0

>  <PUBCHEM_BOND_DEF_STEREO_COUNT>  (1) 
0

>  <PUBCHEM_BOND_UDEF_STEREO_COUNT>  (1) 
0

>  <PUBCHEM_ISOTOPIC_ATOM_COUNT>  (1) 
0

>  <PUBCHEM_COMPONENT_COUNT>  (1) 
1

>  <PUBCHEM_CACTVS_TAUTO_COUNT>  (1) 
1

>  <PUBCHEM_CONFORMER_ID>  (1) 
000086A100000001

>  <PUBCHEM_MMFF94_ENERGY>  (1) 
94.5686

>  <PUBCHEM_FEATURE_SELFOVERLAP>  (1) 
50.859

>  <PUBCHEM_SHAPE_FINGERPRINT>  (1) 
10646746 165 18187369851963707147
10764073 3 17679835173530548922
10871710 139 16035497293059668344
1100329 8 13298423749083803680
11582403 64 18265027267386029979
11595378 159 16877938377886946929
11725454 13 18336536200794860971
12236239 1 15984843526917744314
12403259 415 18337964479263197081
12596602 18 15503225655235742609
12788726 201 16900777128534863358
13134695 92 18057618581125546910
13402501 40 18409732880606098753
13583140 156 18410018762061214010
13911987 19 17772482432178422113
14251757 17 18411144610464937385
14347329 18 17604154709647871245
15219462 58 17968928812028262291
15961568 22 17464266293583154117
20645477 70 18059586788417076138
21033648 144 18340768264015746025
21033648 29 18337104669760555153
21033650 10 17169861940344537318
21065201 7 17968385635818915418
21857420 4 15956360339229899303
21968339 14 18128794392360180988
23557571 272 18115039575311580087
23559900 14 18261685796157619134
238 59 18131060507378478639
3052486 1 17313106345239120589
328310 1195 18342172254475691013
341906 21 17676202494122678921
3459 39 17241034410822369325
474 4 17702964650277055970
495365 180 18060134379757267120
508706 21 18113614621211579269
59025328 239 17054698929422000663
7399639 24 18125169478817464595
7471813 234 16845298185684458168
7808743 9 17603592910982880093
9849439 229 17315057871954099085

>  <PUBCHEM_SHAPE_MULTIPOLES>  (1) 
495.76
10.64
3.71
2.28
5.95
1.29
1.1
7.18
1.82
1.43
0.87
0.77
-0.03
6.37

>  <PUBCHEM_SHAPE_SELFOVERLAP>  (1) 
1085.466

>  <PUBCHEM_SHAPE_VOLUME>  (1) 
266

>  <PUBCHEM_COORDINATE_TYPE>  (1) 
2
5
10

$$$$
