34460
     RDKit          3D

 20 20  0  0  0  0  0  0  0  0999 V2000
   -2.5253    1.9557    0.1567 O   0  0  0  0  0  0  0  0  0  0  0  0
    3.7848    0.9845   -1.0867 O   0  0  0  0  0  0  0  0  0  0  0  0
   -1.4596   -1.9754    0.1358 N   0  0  0  0  0  0  0  0  0  0  0  0
    4.1694   -1.0256    0.0135 N   0  0  0  0  0  0  0  0  0  0  0  0
    4.9038   -1.5531   -1.0286 N   0  0  0  0  0  0  0  0  0  0  0  0
   -1.8899   -0.7510    0.8098 C   0  0  0  0  0  0  0  0  0  0  0  0
   -0.8513    0.3350    0.7172 C   0  0  0  0  0  0  0  0  0  0  0  0
   -2.4639   -3.0267    0.2953 C   0  0  0  0  0  0  0  0  0  0  0  0
   -1.2099   -1.7178   -1.2819 C   0  0  0  0  0  0  0  0  0  0  0  0
   -1.2233    1.6334    0.3958 C   0  0  0  0  0  0  0  0  0  0  0  0
    0.4778    0.0131    0.9596 C   0  0  0  0  0  0  0  0  0  0  0  0
    1.4521    1.0081    0.8790 C   0  0  0  0  0  0  0  0  0  0  0  0
   -0.2489    2.6283    0.3152 C   0  0  0  0  0  0  0  0  0  0  0  0
    1.0888    2.3156    0.5568 C   0  0  0  0  0  0  0  0  0  0  0  0
   -2.6915   -3.3505    1.7621 C   0  0  0  0  0  0  0  0  0  0  0  0
   -0.7615   -2.9801   -1.9986 C   0  0  0  0  0  0  0  0  0  0  0  0
    2.8824    0.6741    1.1371 C   0  0  0  0  0  0  0  0  0  0  0  0
   -2.8353    2.4883   -1.1294 C   0  0  0  0  0  0  0  0  0  0  0  0
    3.6499    0.2527   -0.1088 C   0  0  0  0  0  0  0  0  0  0  0  0
   -4.2485    2.0914   -1.4998 C   0  0  0  0  0  0  0  0  0  0  0  0
  1 10  1  0
  1 18  1  0
  2 19  2  0
  3  6  1  0
  3  8  1  0
  3  9  1  0
  4  5  1  0
  4 19  1  0
  6  7  1  0
  7 10  2  0
  7 11  1  0
  8 15  1  0
  9 16  1  0
 10 13  1  0
 11 12  2  0
 12 14  1  0
 12 17  1  0
 13 14  2  0
 17 19  1  0
 18 20  1  0
M  END
>  <PUBCHEM_COMPOUND_CID>  (1) 
34460

>  <PUBCHEM_CONFORMER_RMSD>  (1) 
0.8

>  <PUBCHEM_CONFORMER_DIVERSEORDER>  (1) 
1
194
33
115
169
38
202
198
216
218
102
131
90
168
138
98
105
195
164
173
176
229
186
67
178
228
40
160
159
197
166
118
35
182
58
50
246
25
191
203
97
188
226
200
140
78
54
75
6
121
154
72
232
64
39
148
122
49
136
26
104
220
236
95
92
206
207
63
139
52
209
123
133
190
146
242
129
120
244
204
189
143
135
107
44
201
116
81
59
149
57
7
34
219
196
147
70
113
3
165
106
24
114
239
18
183
99
231
205
31
15
233
142
88
87
29
117
103
234
37
157
47
184
22
247
225
48
21
77
30
4
155
172
46
134
180
17
144
65
112
137
243
192
171
151
161
53
66
162
181
153
223
43
185
111
23
167
91
10
126
101
82
84
213
109
96
89
85
221
93
132
174
145
227
224
16
119
217
20
76
5
71
79
222
94
170
2
152
240
235
175
179
19
73
69
212
28
211
158
127
61
12
241
215
13
163
177
100
14
56
237
245
68
108
83
74
55
156
187
41
150
27
214
36
11
193
32
8
238
141
80
86
199
125
45
62
210
42
124
128
60
9
51
208
230
130
110

>  <PUBCHEM_MMFF94_PARTIAL_CHARGES>  (1) 
23
1 -0.36
10 0.08
11 -0.15
12 -0.14
13 -0.15
14 -0.15
17 0.2
18 0.28
19 0.57
2 -0.57
27 0.15
28 0.15
29 0.15
3 -0.81
4 -0.42
43 0.37
44 0.36
45 0.36
5 -0.73
6 0.41
7 -0.14
8 0.27
9 0.27

>  <PUBCHEM_EFFECTIVE_ROTOR_COUNT>  (1) 
9

>  <PUBCHEM_PHARMACOPHORE_FEATURES>  (1) 
6
1 1 acceptor
1 2 acceptor
1 3 cation
1 4 donor
1 5 donor
6 7 10 11 12 13 14 rings

>  <PUBCHEM_HEAVY_ATOM_COUNT>  (1) 
20

>  <PUBCHEM_ATOM_DEF_STEREO_COUNT>  (1) 
0

>  <PUBCHEM_ATOM_UDEF_STEREO_COUNT>  (1) 
0

>  <PUBCHEM_BOND_DEF_STEREO_COUNT>  (1) 
0

>  <PUBCHEM_BOND_UDEF_STEREO_COUNT>  (1) 
0

>  <PUBCHEM_ISOTOPIC_ATOM_COUNT>  (1) 
0

>  <PUBCHEM_COMPONENT_COUNT>  (1) 
1

>  <PUBCHEM_CACTVS_TAUTO_COUNT>  (1) 
2

>  <PUBCHEM_CONFORMER_ID>  (1) 
0000869C00000001

>  <PUBCHEM_MMFF94_ENERGY>  (1) 
49.3127

>  <PUBCHEM_FEATURE_SELFOVERLAP>  (1) 
31.958

>  <PUBCHEM_SHAPE_FINGERPRINT>  (1) 
107951 10 18188493462827638643
11488393 25 18055353540386968111
11578080 2 17127311051446504761
116883 192 18124575734006215229
12403259 327 15552219923371311674
12553582 1 18053946435769661282
12555020 224 18194964041749304518
12714826 92 18271254931510620616
13149001 5 18268971211458605317
13257819 37 18261114015751197309
13931106 250 18058713818960124422
15163728 17 17173210889744267381
18981168 100 11098673175106435812
20602899 9 17846207826810550265
20645476 183 17895756184033622080
20871999 31 18335700576395234204
21344244 181 17988628684869698807
22182313 1 18199177572075901424
2255824 54 16319211958071029745
22713019 99 18058155142436229229
22907989 373 18410581720546275117
23419403 2 15260937105788732841
23559900 14 18341892962355314232
23598288 3 18408885161435816766
23598291 2 17265829780660040239
266924 78 16103592243260095439
2748010 2 18198048369101883392
3060560 45 18121751994852076325
3759504 43 18113896005782720233
58779409 8 18261100847360569589
81228 2 18121476197985304121

>  <PUBCHEM_SHAPE_MULTIPOLES>  (1) 
384.91
7.02
4.27
1.59
7.3
1.58
0.38
0.82
2.21
-4.65
0.51
-0.7
0.9
2.18

>  <PUBCHEM_SHAPE_SELFOVERLAP>  (1) 
772.011

>  <PUBCHEM_SHAPE_VOLUME>  (1) 
228.2

>  <PUBCHEM_COORDINATE_TYPE>  (1) 
2
5
10

$$$$
