34474
     RDKit          3D

 14 14  0  0  0  0  0  0  0  0999 V2000
   -0.8043    3.1200   -0.0015 Br  0  0  0  0  0  0  0  0  0  0  0  0
    1.7974   -2.9868    0.0009 Br  0  0  0  0  0  0  0  0  0  0  0  0
   -1.0637   -2.0888    0.0021 O   0  0  0  0  0  0  0  0  0  0  0  0
    2.0566    2.2222    0.0014 O   0  0  0  0  0  0  0  0  0  0  0  0
   -2.4490    0.2777   -0.0012 C   0  0  0  0  0  0  0  0  0  0  0  0
   -0.9419    0.2714   -0.0002 C   0  0  0  0  0  0  0  0  0  0  0  0
   -2.9715   -0.4033   -1.2587 C   0  0  0  0  0  0  0  0  0  0  0  0
   -2.9861   -0.3964    1.2549 C   0  0  0  0  0  0  0  0  0  0  0  0
   -0.1514    1.3564   -0.0002 C   0  0  0  0  0  0  0  0  0  0  0  0
   -0.3398   -1.0947    0.0010 C   0  0  0  0  0  0  0  0  0  0  0  0
    1.9348   -0.1381    0.0004 C   0  0  0  0  0  0  0  0  0  0  0  0
    1.1443   -1.2231    0.0008 C   0  0  0  0  0  0  0  0  0  0  0  0
    1.3327    1.2279    0.0008 C   0  0  0  0  0  0  0  0  0  0  0  0
    3.4420   -0.1443   -0.0006 C   0  0  0  0  0  0  0  0  0  0  0  0
  1  9  1  0
  2 12  1  0
  3 10  2  0
  4 13  2  0
  5  6  1  0
  5  7  1  0
  5  8  1  0
  6  9  2  0
  6 10  1  0
  9 13  1  0
 10 12  1  0
 11 12  2  0
 11 13  1  0
 11 14  1  0
M  END
>  <PUBCHEM_COMPOUND_CID>  (1) 
34474

>  <PUBCHEM_CONFORMER_RMSD>  (1) 
0.4

>  <PUBCHEM_CONFORMER_DIVERSEORDER>  (1) 
1
2

>  <PUBCHEM_MMFF94_PARTIAL_CHARGES>  (1) 
12
1 -0.11
10 0.54
11 -0.12
12 0.12
13 0.54
14 0.14
2 -0.11
3 -0.57
4 -0.57
5 0.14
6 -0.12
9 0.12

>  <PUBCHEM_EFFECTIVE_ROTOR_COUNT>  (1) 
1

>  <PUBCHEM_PHARMACOPHORE_FEATURES>  (1) 
6
1 1 hydrophobe
1 2 hydrophobe
1 3 acceptor
1 4 acceptor
3 5 7 8 hydrophobe
6 6 9 10 11 12 13 rings

>  <PUBCHEM_HEAVY_ATOM_COUNT>  (1) 
14

>  <PUBCHEM_ATOM_DEF_STEREO_COUNT>  (1) 
0

>  <PUBCHEM_ATOM_UDEF_STEREO_COUNT>  (1) 
0

>  <PUBCHEM_BOND_DEF_STEREO_COUNT>  (1) 
0

>  <PUBCHEM_BOND_UDEF_STEREO_COUNT>  (1) 
0

>  <PUBCHEM_ISOTOPIC_ATOM_COUNT>  (1) 
0

>  <PUBCHEM_COMPONENT_COUNT>  (1) 
1

>  <PUBCHEM_CACTVS_TAUTO_COUNT>  (1) 
19

>  <PUBCHEM_CONFORMER_ID>  (1) 
000086AA00000001

>  <PUBCHEM_MMFF94_ENERGY>  (1) 
32.7233

>  <PUBCHEM_FEATURE_SELFOVERLAP>  (1) 
30.447

>  <PUBCHEM_SHAPE_FINGERPRINT>  (1) 
10967382 1 18410575123502459366
11206711 2 18337392625995714508
11471102 22 18263950811416726667
11578080 2 17271687695482671441
12423570 1 15592701966205422781
12524768 44 18409449219131824907
13140716 1 18266459982834806986
14790565 3 18266484111872359628
14817 1 13367842875675850238
16945 1 18410856551255674246
17844478 74 17895484703857187617
193761 8 17978509737213748484
20201158 50 18335135380041996275
20588541 1 18408890633060589018
21501502 16 18050284765432283462
2334 1 18050286174176340238
23388829 49 18341323414340069788
23402539 116 18342163445845653862
23419403 2 16529402941362491968
23493267 7 17385718080326333569
23526114 1 18194117649502552844
23559900 14 17261591778249283366
241688 4 17834111948884999506
2748010 2 18122065561707643814
528886 8 18339639048531093082
63268167 104 18340763767390637363
81228 2 17257085970327350610

>  <PUBCHEM_SHAPE_MULTIPOLES>  (1) 
288.26
4.44
3.21
0.85
0.53
1.15
0
-1.23
0.01
0.4
0
-0.62
-0.26
0

>  <PUBCHEM_SHAPE_SELFOVERLAP>  (1) 
570.157

>  <PUBCHEM_SHAPE_VOLUME>  (1) 
176.7

>  <PUBCHEM_COORDINATE_TYPE>  (1) 
2
5
10

$$$$
