34477
     RDKit          3D

 23 24  0  0  1  0  0  0  0  0999 V2000
   -0.6002   -4.2101   -1.4913 Cl  0  0  0  0  0  0  0  0  0  0  0  0
   -1.7617    0.4788    1.8493 O   0  0  0  0  0  0  0  0  0  0  0  0
    1.6962    0.8631   -0.0497 N   0  0  0  0  0  0  0  0  0  0  0  0
   -0.6999    0.9292   -0.7642 C   0  0  0  0  0  0  0  0  0  0  0  0
    0.4448    1.6200    0.0210 C   0  0  0  0  0  0  0  0  0  0  0  0
   -1.9715    1.8341   -0.9054 C   0  0  0  0  0  0  0  0  0  0  0  0
    2.1326    0.7514   -1.4456 C   0  0  0  0  0  0  0  0  0  0  0  0
    2.7055    1.4163    0.8546 C   0  0  0  0  0  0  0  0  0  0  0  0
    3.5496    0.2278   -1.6990 C   0  0  0  0  0  0  0  0  0  0  0  0
    3.5470    0.2961    1.4728 C   0  0  0  0  0  0  0  0  0  0  0  0
    3.9899   -0.8977   -0.7686 C   0  0  0  0  0  0  0  0  0  0  0  0
    4.5601   -0.3665    0.5442 C   0  0  0  0  0  0  0  0  0  0  0  0
   -0.9748   -0.4660   -0.2079 C   0  0  0  0  0  0  0  0  0  0  0  0
   -3.0826    1.2224   -1.7908 C   0  0  0  0  0  0  0  0  0  0  0  0
   -1.6770    3.2589   -1.3951 C   0  0  0  0  0  0  0  0  0  0  0  0
   -1.4886   -0.6004    1.0637 C   0  0  0  0  0  0  0  0  0  0  0  0
   -2.6605    0.9953   -3.2359 C   0  0  0  0  0  0  0  0  0  0  0  0
   -0.6942   -1.5512   -1.0105 C   0  0  0  0  0  0  0  0  0  0  0  0
   -1.7338   -1.8817    1.5573 C   0  0  0  0  0  0  0  0  0  0  0  0
   -0.9394   -2.8326   -0.5170 C   0  0  0  0  0  0  0  0  0  0  0  0
   -1.4591   -2.9979    0.7668 C   0  0  0  0  0  0  0  0  0  0  0  0
   -1.6471    0.2992    3.2594 C   0  0  0  0  0  0  0  0  0  0  0  0
   -1.2353    1.6116    3.8918 C   0  0  0  0  0  0  0  0  0  0  0  0
  1 20  1  0
  2 16  1  0
  2 22  1  0
  3  5  1  0
  3  7  1  0
  3  8  1  0
  4  5  1  0
  4  6  1  0
  4 13  1  0
  6 14  1  0
  6 15  1  0
  7  9  1  0
  8 10  1  0
  9 11  1  0
 10 12  1  0
 11 12  1  0
 13 16  2  0
 13 18  1  0
 14 17  1  0
 16 19  1  0
 18 20  2  0
 19 21  2  0
 20 21  1  0
 22 23  1  0
M  END
>  <PUBCHEM_COMPOUND_CID>  (1) 
34477

>  <PUBCHEM_CONFORMER_RMSD>  (1) 
0.8

>  <PUBCHEM_CONFORMER_DIVERSEORDER>  (1) 
6
75
93
47
105
159
110
89
88
99
26
72
124
154
129
11
57
108
79
8
101
137
40
53
91
19
92
62
144
118
86
23
160
34
139
119
2
145
31
148
126
161
77
85
157
114
5
71
12
69
109
138
146
106
87
90
38
95
3
162
42
102
163
133
76
10
100
70
141
111
7
156
18
27
164
103
116
127
117
150
96
136
143
50
121
120
1
166
128
49
132
135
153
149
65
107
55
98
52
125
43
13
80
140
112
61
58
97
131
44
134
33
30
122
45
41
147
74
81
130
29
151
59
67
123
36
39
48
84
15
51
20
16
78
4
54
17
37
46
24
165
68
60
113
25
63
155
9
21
83
56
73
142
152
158
22
64
94
104
82
14
28
32
115
66
35

>  <PUBCHEM_MMFF94_PARTIAL_CHARGES>  (1) 
17
1 -0.18
13 -0.14
16 0.08
18 -0.15
19 -0.15
2 -0.36
20 0.18
21 -0.15
22 0.28
3 -0.81
4 0.14
48 0.15
49 0.15
5 0.27
50 0.15
7 0.27
8 0.27

>  <PUBCHEM_EFFECTIVE_ROTOR_COUNT>  (1) 
8.4

>  <PUBCHEM_PHARMACOPHORE_FEATURES>  (1) 
6
1 15 hydrophobe
1 17 hydrophobe
1 2 acceptor
1 3 cation
6 13 16 18 19 20 21 rings
7 3 7 8 9 10 11 12 rings

>  <PUBCHEM_HEAVY_ATOM_COUNT>  (1) 
23

>  <PUBCHEM_ATOM_DEF_STEREO_COUNT>  (1) 
0

>  <PUBCHEM_ATOM_UDEF_STEREO_COUNT>  (1) 
2

>  <PUBCHEM_BOND_DEF_STEREO_COUNT>  (1) 
0

>  <PUBCHEM_BOND_UDEF_STEREO_COUNT>  (1) 
0

>  <PUBCHEM_ISOTOPIC_ATOM_COUNT>  (1) 
0

>  <PUBCHEM_COMPONENT_COUNT>  (1) 
1

>  <PUBCHEM_CACTVS_TAUTO_COUNT>  (1) 
1

>  <PUBCHEM_CONFORMER_ID>  (1) 
000086AD00000006

>  <PUBCHEM_MMFF94_ENERGY>  (1) 
60.9622

>  <PUBCHEM_FEATURE_SELFOVERLAP>  (1) 
30.446

>  <PUBCHEM_SHAPE_FINGERPRINT>  (1) 
107951 10 16299797421371009970
11578080 2 17193457731108325113
12553582 1 17757275151658813574
12788726 201 17677051359927396479
13681431 1 16814613324181814503
13931106 250 18338502153481969550
14856354 85 17127927817524721708
14863182 85 17113465782075829559
14955137 171 15679144835747488421
15163728 17 16157080730354771661
16752209 62 17822275912349282895
20567600 347 17898836955880844901
20602899 9 18271515425408741943
20645476 183 16588579812436782916
21330990 113 17330335615168211332
21524375 3 17314211277358353813
21731516 1 17898578824045937258
22907989 373 18114471135836171469
23419403 2 16909152581060065475
23598288 3 17458641015964258732
23728640 28 18187912955205790378
298252 57 17971167293005313713
5845 1 11488894752282708365
81228 2 18043519732406184245

>  <PUBCHEM_SHAPE_MULTIPOLES>  (1) 
464.35
5.77
3.71
3.35
8.6
3.67
-2.42
-1.07
1.33
-2.8
1.2
-2.85
-1.8
0.98

>  <PUBCHEM_SHAPE_SELFOVERLAP>  (1) 
926.987

>  <PUBCHEM_SHAPE_VOLUME>  (1) 
274.7

>  <PUBCHEM_COORDINATE_TYPE>  (1) 
2
5
10

$$$$
