34487
     RDKit          3D

 15 15  0  0  0  0  0  0  0  0999 V2000
   -3.8846   -0.9672   -0.2537 O   0  0  0  0  0  0  0  0  0  0  0  0
   -3.9256    1.3238   -0.1807 O   0  0  0  0  0  0  0  0  0  0  0  0
    4.2416   -0.0239   -0.3017 N   0  0  0  0  0  0  0  0  0  0  0  0
    2.2809    0.0139    0.7030 N   0  0  0  0  0  0  0  0  0  0  0  0
    2.8761    0.0349   -0.3963 N   0  0  0  0  0  0  0  0  0  0  0  0
   -1.8581    0.2010    0.0904 C   0  0  0  0  0  0  0  0  0  0  0  0
    0.8987    0.0761    0.4989 C   0  0  0  0  0  0  0  0  0  0  0  0
   -1.1217    1.3758    0.2416 C   0  0  0  0  0  0  0  0  0  0  0  0
   -1.2163   -1.0364    0.1435 C   0  0  0  0  0  0  0  0  0  0  0  0
    0.2567    1.3133    0.4458 C   0  0  0  0  0  0  0  0  0  0  0  0
    0.1622   -1.0989    0.3477 C   0  0  0  0  0  0  0  0  0  0  0  0
   -3.2952    0.2661   -0.1228 C   0  0  0  0  0  0  0  0  0  0  0  0
    4.9193   -0.7093    0.7852 C   0  0  0  0  0  0  0  0  0  0  0  0
    4.9668    0.2071   -1.5346 C   0  0  0  0  0  0  0  0  0  0  0  0
   -5.3008   -0.9762   -0.4660 C   0  0  0  0  0  0  0  0  0  0  0  0
  1 12  1  0
  1 15  1  0
  2 12  2  0
  3  5  1  0
  3 13  1  0
  3 14  1  0
  4  5  2  0
  4  7  1  0
  6  8  2  0
  6  9  1  0
  6 12  1  0
  7 10  2  0
  7 11  1  0
  8 10  1  0
  9 11  2  0
M  END
>  <PUBCHEM_COMPOUND_CID>  (1) 
34487

>  <PUBCHEM_CONFORMER_RMSD>  (1) 
0.6

>  <PUBCHEM_CONFORMER_DIVERSEORDER>  (1) 
2
7
3
5
1
6
4
8

>  <PUBCHEM_MMFF94_PARTIAL_CHARGES>  (1) 
19
1 -0.43
10 -0.15
11 -0.15
12 0.63
13 0.3
14 0.3
15 0.28
16 0.15
17 0.15
18 0.15
19 0.15
2 -0.57
3 -0.54
4 -0.18
5 -0.06
6 0.09
7 0.18
8 -0.15
9 -0.15

>  <PUBCHEM_EFFECTIVE_ROTOR_COUNT>  (1) 
4

>  <PUBCHEM_PHARMACOPHORE_FEATURES>  (1) 
2
1 2 acceptor
6 6 7 8 9 10 11 rings

>  <PUBCHEM_HEAVY_ATOM_COUNT>  (1) 
15

>  <PUBCHEM_ATOM_DEF_STEREO_COUNT>  (1) 
0

>  <PUBCHEM_ATOM_UDEF_STEREO_COUNT>  (1) 
0

>  <PUBCHEM_BOND_DEF_STEREO_COUNT>  (1) 
0

>  <PUBCHEM_BOND_UDEF_STEREO_COUNT>  (1) 
0

>  <PUBCHEM_ISOTOPIC_ATOM_COUNT>  (1) 
0

>  <PUBCHEM_COMPONENT_COUNT>  (1) 
1

>  <PUBCHEM_CACTVS_TAUTO_COUNT>  (1) 
1

>  <PUBCHEM_CONFORMER_ID>  (1) 
000086B700000002

>  <PUBCHEM_MMFF94_ENERGY>  (1) 
45.0184

>  <PUBCHEM_FEATURE_SELFOVERLAP>  (1) 
10.148

>  <PUBCHEM_SHAPE_FINGERPRINT>  (1) 
11401426 45 18342168955866740281
117890 112 12324231767908022519
12032990 46 18272650181817541833
12236239 1 17894346674635679410
13288520 33 18273215305071900631
13533116 47 13829860097578309894
13690532 89 18409727365545824058
13760787 5 17749111066952103513
13862211 1 18341324561249708355
14252887 29 16343991299433566070
14455015 7 16343713118559634638
14911166 2 18408884061823721763
14943859 89 15430038772709273448
14993402 34 17967250918428375837
17834072 33 17822010947074111014
17834076 25 11241967070908832771
187816 3 18333452053467379747
200 152 18411416206826696402
20279233 1 17632297870134794022
20645476 183 17895201042594800562
20645477 70 16845581894392257374
20871999 31 18335707160416354349
21267235 1 18340771537783132271
23402539 116 18411411787352912620
23402655 69 18262790775510819621
23557571 272 17988375792272569013
23559900 14 18343020000322598752
42 15 11887957640223590580
4990 188 18202284693040484830

>  <PUBCHEM_SHAPE_MULTIPOLES>  (1) 
282.01
10.84
1.27
0.91
3.57
0.18
-0.2
-2.23
-3.05
-0.93
0.09
1.08
0
-0.49

>  <PUBCHEM_SHAPE_SELFOVERLAP>  (1) 
575.646

>  <PUBCHEM_SHAPE_VOLUME>  (1) 
165.1

>  <PUBCHEM_COORDINATE_TYPE>  (1) 
2
5
10

$$$$
