34499
     RDKit          3D

 20 20  0  0  0  0  0  0  0  0999 V2000
   -0.3913   -2.4028   -1.1270 I   0  0  0  0  0  0  0  0  0  0  0  0
    2.2292    2.6476    1.1361 I   0  0  0  0  0  0  0  0  0  0  0  0
   -3.5710    2.7367   -0.2133 I   0  0  0  0  0  0  0  0  0  0  0  0
    3.1876   -1.8296    1.4386 O   0  0  0  0  0  0  0  0  0  0  0  0
   -4.8674   -1.6432   -0.4859 O   0  0  0  0  0  0  0  0  0  0  0  0
   -3.4299   -1.1214    1.1921 O   0  0  0  0  0  0  0  0  0  0  0  0
    1.8642   -0.4121    0.0551 N   0  0  0  0  0  0  0  0  0  0  0  0
    2.6879   -0.4304   -1.1219 C   0  0  0  0  0  0  0  0  0  0  0  0
    0.5855    0.2986   -0.0175 C   0  0  0  0  0  0  0  0  0  0  0  0
    4.0885    0.1095   -0.8587 C   0  0  0  0  0  0  0  0  0  0  0  0
   -0.4990   -0.3777   -0.4947 C   0  0  0  0  0  0  0  0  0  0  0  0
   -1.7128    0.3065   -0.5608 C   0  0  0  0  0  0  0  0  0  0  0  0
    0.5659    1.5979    0.4001 C   0  0  0  0  0  0  0  0  0  0  0  0
    2.1936   -1.1244    1.2474 C   0  0  0  0  0  0  0  0  0  0  0  0
   -1.7872    1.6364   -0.1466 C   0  0  0  0  0  0  0  0  0  0  0  0
    4.9611    0.1141   -2.1058 C   0  0  0  0  0  0  0  0  0  0  0  0
   -2.9439   -0.3781   -1.0756 C   0  0  0  0  0  0  0  0  0  0  0  0
   -0.6480    2.2821    0.3340 C   0  0  0  0  0  0  0  0  0  0  0  0
    1.2267   -0.9406    2.3947 C   0  0  0  0  0  0  0  0  0  0  0  0
   -3.7395   -1.0690    0.0097 C   0  0  0  0  0  0  0  0  0  0  0  0
  1 11  1  0
  2 13  1  0
  3 15  1  0
  4 14  2  0
  5 20  1  0
  6 20  2  0
  7  8  1  0
  7  9  1  0
  7 14  1  0
  8 10  1  0
  9 11  2  0
  9 13  1  0
 10 16  1  0
 11 12  1  0
 12 15  2  0
 12 17  1  0
 13 18  2  0
 14 19  1  0
 15 18  1  0
 17 20  1  0
M  END
>  <PUBCHEM_COMPOUND_CID>  (1) 
34499

>  <PUBCHEM_CONFORMER_RMSD>  (1) 
0.8

>  <PUBCHEM_CONFORMER_DIVERSEORDER>  (1) 
1
13
15
18
9
6
8
2
3
16
11
7
12
14
17
4
10
5

>  <PUBCHEM_MMFF94_PARTIAL_CHARGES>  (1) 
20
1 -0.08
11 0.08
12 -0.14
13 0.08
14 0.57
15 0.08
17 0.2
18 -0.15
19 0.06
2 -0.08
20 0.66
3 -0.08
30 0.15
34 0.5
4 -0.57
5 -0.65
6 -0.57
7 -0.48
8 0.3
9 0.12

>  <PUBCHEM_EFFECTIVE_ROTOR_COUNT>  (1) 
6

>  <PUBCHEM_PHARMACOPHORE_FEATURES>  (1) 
9
1 1 hydrophobe
1 16 hydrophobe
1 2 hydrophobe
1 3 hydrophobe
1 4 acceptor
1 5 acceptor
1 6 acceptor
3 5 6 20 anion
6 9 11 12 13 15 18 rings

>  <PUBCHEM_HEAVY_ATOM_COUNT>  (1) 
20

>  <PUBCHEM_ATOM_DEF_STEREO_COUNT>  (1) 
0

>  <PUBCHEM_ATOM_UDEF_STEREO_COUNT>  (1) 
0

>  <PUBCHEM_BOND_DEF_STEREO_COUNT>  (1) 
0

>  <PUBCHEM_BOND_UDEF_STEREO_COUNT>  (1) 
0

>  <PUBCHEM_ISOTOPIC_ATOM_COUNT>  (1) 
0

>  <PUBCHEM_COMPONENT_COUNT>  (1) 
1

>  <PUBCHEM_CACTVS_TAUTO_COUNT>  (1) 
1

>  <PUBCHEM_CONFORMER_ID>  (1) 
000086C300000001

>  <PUBCHEM_MMFF94_ENERGY>  (1) 
82.6932

>  <PUBCHEM_FEATURE_SELFOVERLAP>  (1) 
45.731

>  <PUBCHEM_SHAPE_FINGERPRINT>  (1) 
10366900 7 18188212103941223611
10759866 29 18115028493852994326
11578080 2 17607489554501367236
11680986 33 17982736577759682967
12236239 1 18187645757190884502
12553582 1 18343011229308758431
12788726 201 18336550417870035345
13140716 1 18125709338720766586
13538477 17 18190738631132379312
13760787 19 18114467747233665557
14178342 30 17986098626803812355
14787075 74 17752220631991215390
15238133 3 18123462774498725553
15375462 175 18201153265510985654
16752209 62 18341601595314287015
16945 1 18201424883342423854
18186145 218 16773790381340283726
18222031 100 18059002991067089847
19422 9 18114740426112105178
19591789 44 18271529783394683333
19765921 60 17969520220777513920
19784866 140 18409175410999045382
20600515 1 17842538675031579352
20645477 70 18200016482394353205
20871999 31 18343309136693005220
22182313 1 18270102613186795389
23175994 123 16056608629408829144
2334 1 18270386291645174553
23352939 185 17560257919706661984
23402539 116 18271528598653525556
23419403 2 15144945427828408397
23493267 7 18336271128419482079
23526113 38 17415847894551850124
23557571 272 17988637502685314256
23558518 356 18334851719676421001
23559900 14 17983014440827497966
23598291 2 17823413803767873316
23598294 1 18339920424623380993
2748010 2 18270664437958953397
34934 24 18052242188293080389
350125 39 18343311383261951165
59554788 170 18270966872365278869
7364860 26 17844524607573829224
77492 1 18042685005643860772
81228 2 17555165857313614376

>  <PUBCHEM_SHAPE_MULTIPOLES>  (1) 
424.81
7.85
3.16
1.71
0.25
1.35
-0.55
-0.9
2.47
1.6
-0.14
-1.9
-0.55
0.37

>  <PUBCHEM_SHAPE_SELFOVERLAP>  (1) 
810.491

>  <PUBCHEM_SHAPE_VOLUME>  (1) 
269.6

>  <PUBCHEM_COORDINATE_TYPE>  (1) 
2
5
10

$$$$
