34497
     RDKit          3D

 18 18  0  0  0  0  0  0  0  0999 V2000
   -0.0749    2.3888   -1.2704 I   0  0  0  0  0  0  0  0  0  0  0  0
    2.7707   -2.7255    0.5338 I   0  0  0  0  0  0  0  0  0  0  0  0
   -3.1702   -2.6974    0.1148 I   0  0  0  0  0  0  0  0  0  0  0  0
    4.0229    1.5955    0.5567 O   0  0  0  0  0  0  0  0  0  0  0  0
   -4.3667    1.7745    0.0443 O   0  0  0  0  0  0  0  0  0  0  0  0
   -2.7701    1.0922    1.5071 O   0  0  0  0  0  0  0  0  0  0  0  0
    2.2998    0.3489   -0.4644 N   0  0  0  0  0  0  0  0  0  0  0  0
    1.0672   -0.3084   -0.3440 C   0  0  0  0  0  0  0  0  0  0  0  0
   -1.3429   -0.3001   -0.5138 C   0  0  0  0  0  0  0  0  0  0  0  0
   -0.1209    0.3614   -0.6367 C   0  0  0  0  0  0  0  0  0  0  0  0
   -2.6263    0.4108   -0.8265 C   0  0  0  0  0  0  0  0  0  0  0  0
    1.0332   -1.6396    0.0716 C   0  0  0  0  0  0  0  0  0  0  0  0
   -1.3769   -1.6312   -0.0981 C   0  0  0  0  0  0  0  0  0  0  0  0
   -0.1889   -2.3008    0.1945 C   0  0  0  0  0  0  0  0  0  0  0  0
    3.0535    0.2051   -1.7447 C   0  0  0  0  0  0  0  0  0  0  0  0
    2.9062    1.0745    0.6138 C   0  0  0  0  0  0  0  0  0  0  0  0
   -3.2281    1.1088    0.3728 C   0  0  0  0  0  0  0  0  0  0  0  0
    2.1126    1.2426    1.8892 C   0  0  0  0  0  0  0  0  0  0  0  0
  1 10  1  0
  2 12  1  0
  3 13  1  0
  4 16  2  0
  5 17  1  0
  6 17  2  0
  7  8  1  0
  7 15  1  0
  7 16  1  0
  8 10  2  0
  8 12  1  0
  9 10  1  0
  9 11  1  0
  9 13  2  0
 11 17  1  0
 12 14  2  0
 13 14  1  0
 16 18  1  0
M  END
>  <PUBCHEM_COMPOUND_CID>  (1) 
34497

>  <PUBCHEM_CONFORMER_RMSD>  (1) 
0.6

>  <PUBCHEM_CONFORMER_DIVERSEORDER>  (1) 
1
14
11
6
4
16
9
2
7
12
15
3
10
13
5
8

>  <PUBCHEM_MMFF94_PARTIAL_CHARGES>  (1) 
20
1 -0.08
10 0.08
11 0.2
12 0.08
13 0.08
14 -0.15
15 0.3
16 0.57
17 0.66
18 0.06
2 -0.08
21 0.15
28 0.5
3 -0.08
4 -0.57
5 -0.65
6 -0.57
7 -0.48
8 0.12
9 -0.14

>  <PUBCHEM_EFFECTIVE_ROTOR_COUNT>  (1) 
4

>  <PUBCHEM_PHARMACOPHORE_FEATURES>  (1) 
8
1 1 hydrophobe
1 2 hydrophobe
1 3 hydrophobe
1 4 acceptor
1 5 acceptor
1 6 acceptor
3 5 6 17 anion
6 8 9 10 12 13 14 rings

>  <PUBCHEM_HEAVY_ATOM_COUNT>  (1) 
18

>  <PUBCHEM_ATOM_DEF_STEREO_COUNT>  (1) 
0

>  <PUBCHEM_ATOM_UDEF_STEREO_COUNT>  (1) 
0

>  <PUBCHEM_BOND_DEF_STEREO_COUNT>  (1) 
0

>  <PUBCHEM_BOND_UDEF_STEREO_COUNT>  (1) 
0

>  <PUBCHEM_ISOTOPIC_ATOM_COUNT>  (1) 
0

>  <PUBCHEM_COMPONENT_COUNT>  (1) 
1

>  <PUBCHEM_CACTVS_TAUTO_COUNT>  (1) 
1

>  <PUBCHEM_CONFORMER_ID>  (1) 
000086C100000001

>  <PUBCHEM_MMFF94_ENERGY>  (1) 
76.8402

>  <PUBCHEM_FEATURE_SELFOVERLAP>  (1) 
40.655

>  <PUBCHEM_SHAPE_FINGERPRINT>  (1) 
11132069 177 18260828215341694069
12382932 28 18334287686583638877
13140716 1 18335135345735486363
13172582 1 18186518825711318533
13380535 21 18335991899552814542
13764800 53 18342459278866386587
13965767 371 18187068547392769484
14081887 123 18197769110650057219
14178342 30 18335977670383866779
14787075 74 17697593655991484275
16945 1 18260546731664246700
18186145 218 18201163173810555477
18981168 100 17988918994119513331
19049666 15 18130515222662676570
20510252 161 18125158496263886947
20671657 1 18339081462807656258
20691752 17 17385441007870748034
20739085 24 17901409804537199277
21501502 16 18335422356872332927
21524375 3 18197215854590563255
2334 1 18334575767326104631
23388829 49 18120929770507391231
23402539 116 18051960708742269686
23557571 272 17843404231126772191
23558518 356 18119821445543082511
23559900 14 18340780303974687156
2748010 2 18335419066943117735
6049 1 17845669173107366326
7364860 26 18341607054402706598
7832392 63 18409172103726430455
81228 2 18119531187253133079
84936 182 17983573001545901657
90316 7 17751893987038898012

>  <PUBCHEM_SHAPE_MULTIPOLES>  (1) 
383.65
6.46
3.45
1.37
1.43
1.48
0.23
-0.76
1.22
0.52
-0.05
-0.67
-0.71
-0.16

>  <PUBCHEM_SHAPE_SELFOVERLAP>  (1) 
729.921

>  <PUBCHEM_SHAPE_VOLUME>  (1) 
245.7

>  <PUBCHEM_COORDINATE_TYPE>  (1) 
2
5
10

$$$$
