345
     RDKit          3D

 13 12  0  0  0  0  0  0  0  0999 V2000
   -0.1619    2.7208    1.1358 O   0  0  0  0  0  0  0  0  0  0  0  0
   -2.7104   -1.9742    0.4757 O   0  0  0  0  0  0  0  0  0  0  0  0
    3.0863   -1.1433    0.2495 O   0  0  0  0  0  0  0  0  0  0  0  0
   -1.1687    2.3046   -0.8706 O   0  0  0  0  0  0  0  0  0  0  0  0
   -1.8252   -0.8890   -1.3109 O   0  0  0  0  0  0  0  0  0  0  0  0
    1.0604   -2.1768    0.0529 O   0  0  0  0  0  0  0  0  0  0  0  0
   -0.0178    0.5490    0.2860 C   0  0  0  0  0  0  0  0  0  0  0  0
   -1.0004   -0.3934    0.9341 C   0  0  0  0  0  0  0  0  0  0  0  0
    1.2171    0.2056   -0.1409 C   0  0  0  0  0  0  0  0  0  0  0  0
    2.1743    1.1229   -0.8482 C   0  0  0  0  0  0  0  0  0  0  0  0
   -0.5432    1.9280    0.1078 C   0  0  0  0  0  0  0  0  0  0  0  0
   -1.8615   -1.0840   -0.1039 C   0  0  0  0  0  0  0  0  0  0  0  0
    1.7510   -1.1702    0.0327 C   0  0  0  0  0  0  0  0  0  0  0  0
  1 11  1  0
  2 12  1  0
  3 13  1  0
  4 11  2  0
  5 12  2  0
  6 13  2  0
  7  8  1  0
  7  9  2  0
  7 11  1  0
  8 12  1  0
  9 10  1  0
  9 13  1  0
M  END
>  <PUBCHEM_COMPOUND_CID>  (1) 
345

>  <PUBCHEM_CONFORMER_RMSD>  (1) 
0.6

>  <PUBCHEM_CONFORMER_DIVERSEORDER>  (1) 
2
11
22
25
20
9
21
3
14
24
6
4
23
15
19
13
17
18
1
8
10
12
16
7
5

>  <PUBCHEM_MMFF94_PARTIAL_CHARGES>  (1) 
16
1 -0.65
10 0.14
11 0.71
12 0.66
13 0.71
19 0.5
2 -0.65
20 0.5
21 0.5
3 -0.65
4 -0.57
5 -0.57
6 -0.57
7 -0.12
8 0.2
9 -0.12

>  <PUBCHEM_EFFECTIVE_ROTOR_COUNT>  (1) 
4

>  <PUBCHEM_PHARMACOPHORE_FEATURES>  (1) 
10
1 1 acceptor
1 10 hydrophobe
1 2 acceptor
1 3 acceptor
1 4 acceptor
1 5 acceptor
1 6 acceptor
3 1 4 11 anion
3 2 5 12 anion
3 3 6 13 anion

>  <PUBCHEM_HEAVY_ATOM_COUNT>  (1) 
13

>  <PUBCHEM_ATOM_DEF_STEREO_COUNT>  (1) 
0

>  <PUBCHEM_ATOM_UDEF_STEREO_COUNT>  (1) 
0

>  <PUBCHEM_BOND_DEF_STEREO_COUNT>  (1) 
0

>  <PUBCHEM_BOND_UDEF_STEREO_COUNT>  (1) 
1

>  <PUBCHEM_ISOTOPIC_ATOM_COUNT>  (1) 
0

>  <PUBCHEM_COMPONENT_COUNT>  (1) 
1

>  <PUBCHEM_CACTVS_TAUTO_COUNT>  (1) 
1

>  <PUBCHEM_CONFORMER_ID>  (1) 
0000015900000002

>  <PUBCHEM_MMFF94_ENERGY>  (1) 
28.0282

>  <PUBCHEM_FEATURE_SELFOVERLAP>  (1) 
50.919

>  <PUBCHEM_SHAPE_FINGERPRINT>  (1) 
1 1 17546444939235219977
10702982 57 17685764731853096773
12423570 1 11542679270325548441
14817 1 12926999555581571605
16945 1 18193286195183750600
17775402 16 18191592058377098564
18185500 45 18270686479445915991
20871998 184 18129102212512973246
21061003 4 18266466596857725755
23419403 2 16605112103768618836
23552423 10 18260554402660440218
2748010 2 18338795722922691206
81228 2 18267305335198221971

>  <PUBCHEM_SHAPE_MULTIPOLES>  (1) 
232.32
3.26
2.76
0.98
0.17
1.24
-0.08
-2.08
-0.31
-0.14
0.29
-0.23
0.27
-0.12

>  <PUBCHEM_SHAPE_SELFOVERLAP>  (1) 
466.022

>  <PUBCHEM_SHAPE_VOLUME>  (1) 
135.1

>  <PUBCHEM_COORDINATE_TYPE>  (1) 
2
5
10

$$$$
