34500
     RDKit          3D

 24 25  0  0  0  0  0  0  0  0999 V2000
    1.5068    2.3434   -1.3053 I   0  0  0  0  0  0  0  0  0  0  0  0
   -1.4083   -2.3012    1.4198 I   0  0  0  0  0  0  0  0  0  0  0  0
    4.3370   -2.9199   -0.0224 I   0  0  0  0  0  0  0  0  0  0  0  0
   -2.0972    2.2332    1.2786 O   0  0  0  0  0  0  0  0  0  0  0  0
    5.9323    1.3174   -0.6842 O   0  0  0  0  0  0  0  0  0  0  0  0
    4.5023    1.0406    1.0573 O   0  0  0  0  0  0  0  0  0  0  0  0
   -0.8545    0.6250    0.0800 N   0  0  0  0  0  0  0  0  0  0  0  0
   -1.7021    0.5926   -1.1130 C   0  0  0  0  0  0  0  0  0  0  0  0
    0.3585   -0.1732    0.0443 C   0  0  0  0  0  0  0  0  0  0  0  0
    2.6470   -0.3986   -0.5384 C   0  0  0  0  0  0  0  0  0  0  0  0
    1.4864    0.3746   -0.5078 C   0  0  0  0  0  0  0  0  0  0  0  0
   -3.1021    0.1810   -0.8040 C   0  0  0  0  0  0  0  0  0  0  0  0
    0.3068   -1.4385    0.5684 C   0  0  0  0  0  0  0  0  0  0  0  0
   -1.1407    1.4600    1.1831 C   0  0  0  0  0  0  0  0  0  0  0  0
    3.9106    0.1505   -1.1309 C   0  0  0  0  0  0  0  0  0  0  0  0
    2.6374   -1.6919   -0.0156 C   0  0  0  0  0  0  0  0  0  0  0  0
    1.4674   -2.2117    0.5379 C   0  0  0  0  0  0  0  0  0  0  0  0
   -3.4571   -1.1674   -0.8414 C   0  0  0  0  0  0  0  0  0  0  0  0
   -4.0566    1.1446   -0.4779 C   0  0  0  0  0  0  0  0  0  0  0  0
   -0.1997    1.3518    2.3611 C   0  0  0  0  0  0  0  0  0  0  0  0
   -4.7664   -1.5522   -0.5527 C   0  0  0  0  0  0  0  0  0  0  0  0
   -5.3658    0.7598   -0.1889 C   0  0  0  0  0  0  0  0  0  0  0  0
    4.7789    0.8690   -0.1219 C   0  0  0  0  0  0  0  0  0  0  0  0
   -5.7208   -0.5887   -0.2263 C   0  0  0  0  0  0  0  0  0  0  0  0
  1 11  1  0
  2 13  1  0
  3 16  1  0
  4 14  2  0
  5 23  1  0
  6 23  2  0
  7  8  1  0
  7  9  1  0
  7 14  1  0
  8 12  1  0
  9 11  1  0
  9 13  2  0
 10 11  2  0
 10 15  1  0
 10 16  1  0
 12 18  2  0
 12 19  1  0
 13 17  1  0
 14 20  1  0
 15 23  1  0
 16 17  2  0
 18 21  1  0
 19 22  2  0
 21 24  2  0
 22 24  1  0
M  END
>  <PUBCHEM_COMPOUND_CID>  (1) 
34500

>  <PUBCHEM_CONFORMER_RMSD>  (1) 
0.8

>  <PUBCHEM_CONFORMER_DIVERSEORDER>  (1) 
1
13
33
16
25
3
20
28
15
18
26
34
22
11
35
23
6
27
32
10
8
14
24
31
29
5
19
21
17
7
30
4
36
9
12
2

>  <PUBCHEM_MMFF94_PARTIAL_CHARGES>  (1) 
31
1 -0.08
10 -0.14
11 0.08
12 -0.14
13 0.08
14 0.57
15 0.2
16 0.08
17 -0.15
18 -0.15
19 -0.15
2 -0.08
20 0.06
21 -0.15
22 -0.15
23 0.66
24 -0.15
29 0.15
3 -0.08
30 0.15
31 0.15
35 0.15
36 0.15
37 0.15
38 0.5
4 -0.57
5 -0.65
6 -0.57
7 -0.48
8 0.44
9 0.12

>  <PUBCHEM_EFFECTIVE_ROTOR_COUNT>  (1) 
6

>  <PUBCHEM_PHARMACOPHORE_FEATURES>  (1) 
9
1 1 hydrophobe
1 2 hydrophobe
1 3 hydrophobe
1 4 acceptor
1 5 acceptor
1 6 acceptor
3 5 6 23 anion
6 12 18 19 21 22 24 rings
6 9 10 11 13 16 17 rings

>  <PUBCHEM_HEAVY_ATOM_COUNT>  (1) 
24

>  <PUBCHEM_ATOM_DEF_STEREO_COUNT>  (1) 
0

>  <PUBCHEM_ATOM_UDEF_STEREO_COUNT>  (1) 
0

>  <PUBCHEM_BOND_DEF_STEREO_COUNT>  (1) 
0

>  <PUBCHEM_BOND_UDEF_STEREO_COUNT>  (1) 
0

>  <PUBCHEM_ISOTOPIC_ATOM_COUNT>  (1) 
0

>  <PUBCHEM_COMPONENT_COUNT>  (1) 
1

>  <PUBCHEM_CACTVS_TAUTO_COUNT>  (1) 
1

>  <PUBCHEM_CONFORMER_ID>  (1) 
000086C400000001

>  <PUBCHEM_MMFF94_ENERGY>  (1) 
104.9129

>  <PUBCHEM_FEATURE_SELFOVERLAP>  (1) 
45.73

>  <PUBCHEM_SHAPE_FINGERPRINT>  (1) 
10906281 52 17968673695439465572
11135609 187 18335704991996518364
12166972 35 18333732416744185404
12236239 1 18342459201499043805
12467345 10 18413108359685804757
12592029 89 17675918794262881288
12788726 201 17703796872999020971
13009979 54 17842841027917902194
13140716 1 17969787582064318244
13533116 47 18341330003342459642
14787075 74 18270673293911829681
15196674 1 18335419041447458031
15420108 30 16971679114228943624
15849732 13 11674874503058574640
17349148 13 18334292084973054400
17492 89 17986957345232884838
200 152 18342740727825379919
21033648 29 18053655052736143376
22182313 1 18117020895244435138
22393880 68 17897438402622831543
23402539 116 18409726287487998996
23419403 2 17698731628893212571
23557571 272 16271658801365982104
23559900 14 18408323289904282558
23598288 3 17845645933493164565
23622692 88 12179843909785981586
3004659 81 18337106757130563062
312423 11 17988369148501532738
3680242 22 17968090902388658762
4340502 62 18260828206630472339
474 4 18334582356169602276
5104073 3 18336546023617260531
59755656 215 18260553308177386390
70251023 43 17899979335772601626
9709674 26 18260834821017680543

>  <PUBCHEM_SHAPE_MULTIPOLES>  (1) 
507.13
11.32
2.99
1.47
2.11
1
0.77
0.47
-2.93
-2.18
0.19
0.27
-0.49
-0.35

>  <PUBCHEM_SHAPE_SELFOVERLAP>  (1) 
1014.852

>  <PUBCHEM_SHAPE_VOLUME>  (1) 
306.3

>  <PUBCHEM_COORDINATE_TYPE>  (1) 
2
5
10

$$$$
