34503
     RDKit          3D

 21 21  0  0  0  0  0  0  0  0999 V2000
    0.4567    0.8401   -2.6113 I   0  0  0  0  0  0  0  0  0  0  0  0
   -2.2872   -2.2508    1.9073 I   0  0  0  0  0  0  0  0  0  0  0  0
    3.6612   -1.9982    1.7529 I   0  0  0  0  0  0  0  0  0  0  0  0
   -3.6060    1.1479   -0.7621 O   0  0  0  0  0  0  0  0  0  0  0  0
    4.7017    1.5007   -1.0054 O   0  0  0  0  0  0  0  0  0  0  0  0
    2.9516    1.8149    0.4062 O   0  0  0  0  0  0  0  0  0  0  0  0
   -1.8787   -0.4417   -0.7808 N   0  0  0  0  0  0  0  0  0  0  0  0
   -0.5888   -0.7879   -0.2182 C   0  0  0  0  0  0  0  0  0  0  0  0
   -2.4858   -1.3412   -1.7743 C   0  0  0  0  0  0  0  0  0  0  0  0
   -1.7334    1.5951    0.6477 C   0  0  0  0  0  0  0  0  0  0  0  0
   -2.5115    0.7484   -0.3572 C   0  0  0  0  0  0  0  0  0  0  0  0
    0.5449   -0.3380   -0.8454 C   0  0  0  0  0  0  0  0  0  0  0  0
   -2.4832    2.8639    1.0565 C   0  0  0  0  0  0  0  0  0  0  0  0
    1.7822   -0.6748   -0.2965 C   0  0  0  0  0  0  0  0  0  0  0  0
   -0.5692   -1.5519    0.9215 C   0  0  0  0  0  0  0  0  0  0  0  0
   -3.3497   -2.3775   -1.0816 C   0  0  0  0  0  0  0  0  0  0  0  0
    1.8439   -1.4502    0.8614 C   0  0  0  0  0  0  0  0  0  0  0  0
    3.0528   -0.2094   -0.9440 C   0  0  0  0  0  0  0  0  0  0  0  0
    0.6682   -1.8887    1.4704 C   0  0  0  0  0  0  0  0  0  0  0  0
   -1.6988    3.6696    2.0796 C   0  0  0  0  0  0  0  0  0  0  0  0
    3.5292    1.1298   -0.4267 C   0  0  0  0  0  0  0  0  0  0  0  0
  1 12  1  0
  2 15  1  0
  3 17  1  0
  4 11  2  0
  5 21  1  0
  6 21  2  0
  7  8  1  0
  7  9  1  0
  7 11  1  0
  8 12  2  0
  8 15  1  0
  9 16  1  0
 10 11  1  0
 10 13  1  0
 12 14  1  0
 13 20  1  0
 14 17  2  0
 14 18  1  0
 15 19  2  0
 17 19  1  0
 18 21  1  0
M  END
>  <PUBCHEM_COMPOUND_CID>  (1) 
34503

>  <PUBCHEM_CONFORMER_RMSD>  (1) 
0.8

>  <PUBCHEM_CONFORMER_DIVERSEORDER>  (1) 
1
42
40
20
23
29
37
17
8
21
34
31
32
30
41
10
3
22
7
44
36
39
35
15
33
38
19
12
6
11
27
16
4
2
28
13
14
26
18
43
25
24
5
9

>  <PUBCHEM_MMFF94_PARTIAL_CHARGES>  (1) 
20
1 -0.08
10 0.06
11 0.57
12 0.08
14 -0.14
15 0.08
17 0.08
18 0.2
19 -0.15
2 -0.08
21 0.66
3 -0.08
33 0.15
37 0.5
4 -0.57
5 -0.65
6 -0.57
7 -0.48
8 0.12
9 0.3

>  <PUBCHEM_EFFECTIVE_ROTOR_COUNT>  (1) 
7

>  <PUBCHEM_PHARMACOPHORE_FEATURES>  (1) 
9
1 1 hydrophobe
1 2 hydrophobe
1 20 hydrophobe
1 3 hydrophobe
1 4 acceptor
1 5 acceptor
1 6 acceptor
3 5 6 21 anion
6 8 12 14 15 17 19 rings

>  <PUBCHEM_HEAVY_ATOM_COUNT>  (1) 
21

>  <PUBCHEM_ATOM_DEF_STEREO_COUNT>  (1) 
0

>  <PUBCHEM_ATOM_UDEF_STEREO_COUNT>  (1) 
0

>  <PUBCHEM_BOND_DEF_STEREO_COUNT>  (1) 
0

>  <PUBCHEM_BOND_UDEF_STEREO_COUNT>  (1) 
0

>  <PUBCHEM_ISOTOPIC_ATOM_COUNT>  (1) 
0

>  <PUBCHEM_COMPONENT_COUNT>  (1) 
1

>  <PUBCHEM_CACTVS_TAUTO_COUNT>  (1) 
1

>  <PUBCHEM_CONFORMER_ID>  (1) 
000086C700000001

>  <PUBCHEM_MMFF94_ENERGY>  (1) 
86.0083

>  <PUBCHEM_FEATURE_SELFOVERLAP>  (1) 
45.731

>  <PUBCHEM_SHAPE_FINGERPRINT>  (1) 
11640471 11 18265618675819128297
12491281 212 18342465798394672132
12596599 1 18265041453853042990
12633257 1 18044374924956256490
12788726 201 18341893004809030267
13140716 1 17530677689322490010
13965767 371 16901867817977917785
14123250 116 18341905038790708593
14178342 30 17604153726258297122
14787075 74 18049442848610208213
16945 1 18129653089645667351
17357990 137 17837492955598391977
19930381 70 17266646704772313404
20510252 161 17826808228349508098
21524375 3 18051137986545381409
2334 1 17458345290392191730
23419403 2 17471012952997474547
23557571 272 17988655145788402861
23559900 14 17531514482517560822
23598288 3 18341322362585370255
2748010 2 17458627834821092226
4340502 62 17894921694317562761
474 4 18187921729771014138
539174 4 18187929417741771284
5895379 119 17915459390086873224
7615 1 18336533937589831934
81228 2 17024330692919408971
9981440 41 18119232111948408368

>  <PUBCHEM_SHAPE_MULTIPOLES>  (1) 
445.39
6.63
3.59
2.4
4.43
0.46
-0.07
0.73
0.39
-1.22
2.34
-1.31
1.01
-2.54

>  <PUBCHEM_SHAPE_SELFOVERLAP>  (1) 
849.529

>  <PUBCHEM_SHAPE_VOLUME>  (1) 
282.5

>  <PUBCHEM_COORDINATE_TYPE>  (1) 
2
5
10

$$$$
