34517
     RDKit          3D

 25 27  0  0  1  0  0  0  0  0999 V2000
   -0.7652    0.1491    0.0846 O   0  0  0  0  0  0  0  0  0  0  0  0
   -5.5252   -2.3997    0.0103 O   0  0  0  0  0  0  0  0  0  0  0  0
    0.6961   -0.1396    1.8200 O   0  0  0  0  0  0  0  0  0  0  0  0
   -3.5696   -0.3397   -0.1739 N   0  0  0  0  0  0  0  0  0  0  0  0
    1.4082   -0.0814   -0.4094 N   0  0  0  0  0  0  0  0  0  0  0  0
   -3.0442    0.9819    0.1621 C   0  0  0  0  0  0  0  0  0  0  0  0
   -1.7014    0.8550    0.8998 C   0  0  0  0  0  0  0  0  0  0  0  0
   -2.9129    1.8432   -1.1020 C   0  0  0  0  0  0  0  0  0  0  0  0
   -1.1314    2.2389    1.2265 C   0  0  0  0  0  0  0  0  0  0  0  0
   -2.3353    3.2193   -0.7724 C   0  0  0  0  0  0  0  0  0  0  0  0
   -1.0111    3.1172   -0.0203 C   0  0  0  0  0  0  0  0  0  0  0  0
   -3.6988   -1.1716    1.0306 C   0  0  0  0  0  0  0  0  0  0  0  0
   -4.8695   -0.2279   -0.8503 C   0  0  0  0  0  0  0  0  0  0  0  0
   -4.2595   -2.5405    0.6564 C   0  0  0  0  0  0  0  0  0  0  0  0
   -5.4036   -1.6191   -1.1794 C   0  0  0  0  0  0  0  0  0  0  0  0
    0.4855   -0.0361    0.6177 C   0  0  0  0  0  0  0  0  0  0  0  0
    2.8076   -0.2562   -0.3151 C   0  0  0  0  0  0  0  0  0  0  0  0
    3.6281    0.8563   -0.1925 C   0  0  0  0  0  0  0  0  0  0  0  0
    3.3400   -1.5374   -0.3463 C   0  0  0  0  0  0  0  0  0  0  0  0
    5.0093    0.6841   -0.0993 C   0  0  0  0  0  0  0  0  0  0  0  0
    4.7210   -1.7096   -0.2529 C   0  0  0  0  0  0  0  0  0  0  0  0
    5.5556   -0.5988   -0.1295 C   0  0  0  0  0  0  0  0  0  0  0  0
    3.0725    2.2432   -0.1574 C   0  0  0  0  0  0  0  0  0  0  0  0
    2.4716   -2.7467   -0.4785 C   0  0  0  0  0  0  0  0  0  0  0  0
    7.0321   -0.7838   -0.0286 C   0  0  0  0  0  0  0  0  0  0  0  0
  1  7  1  0
  1 16  1  0
  2 14  1  0
  2 15  1  0
  3 16  2  0
  4  6  1  0
  4 12  1  0
  4 13  1  0
  5 16  1  0
  5 17  1  0
  6  7  1  0
  6  8  1  0
  7  9  1  0
  8 10  1  0
  9 11  1  0
 10 11  1  0
 12 14  1  0
 13 15  1  0
 17 18  2  0
 17 19  1  0
 18 20  1  0
 18 23  1  0
 19 21  2  0
 19 24  1  0
 20 22  2  0
 21 22  1  0
 22 25  1  0
M  END
>  <PUBCHEM_COMPOUND_CID>  (1) 
34517

>  <PUBCHEM_CONFORMER_RMSD>  (1) 
0.8

>  <PUBCHEM_CONFORMER_DIVERSEORDER>  (1) 
1
26
79
41
58
96
107
99
32
89
9
101
66
95
57
45
82
55
81
104
24
38
47
5
42
46
83
78
77
68
59
98
44
118
14
60
36
105
39
48
80
6
62
67
16
65
106
15
84
92
11
119
50
109
116
35
13
102
94
20
71
34
53
49
52
108
56
18
115
103
73
75
112
12
114
19
54
37
110
17
70
117
31
111
90
43
33
113
63
88
69
10
97
72
76
74
64
93
2
61
100
86
40
91
51
85
87
8
21
29
27
7
25
30
23
28
22
3
4

>  <PUBCHEM_MMFF94_PARTIAL_CHARGES>  (1) 
24
1 -0.43
12 0.27
13 0.27
14 0.28
15 0.28
16 0.78
17 0.12
18 -0.14
19 -0.14
2 -0.56
20 -0.15
21 -0.15
22 -0.14
23 0.14
24 0.14
25 0.14
3 -0.57
4 -0.81
44 0.37
45 0.15
46 0.15
5 -0.55
6 0.27
7 0.28

>  <PUBCHEM_EFFECTIVE_ROTOR_COUNT>  (1) 
7.4

>  <PUBCHEM_PHARMACOPHORE_FEATURES>  (1) 
7
1 2 acceptor
1 3 acceptor
1 4 cation
1 5 donor
6 17 18 19 20 21 22 rings
6 2 4 12 13 14 15 rings
6 6 7 8 9 10 11 rings

>  <PUBCHEM_HEAVY_ATOM_COUNT>  (1) 
25

>  <PUBCHEM_ATOM_DEF_STEREO_COUNT>  (1) 
0

>  <PUBCHEM_ATOM_UDEF_STEREO_COUNT>  (1) 
2

>  <PUBCHEM_BOND_DEF_STEREO_COUNT>  (1) 
0

>  <PUBCHEM_BOND_UDEF_STEREO_COUNT>  (1) 
0

>  <PUBCHEM_ISOTOPIC_ATOM_COUNT>  (1) 
0

>  <PUBCHEM_COMPONENT_COUNT>  (1) 
1

>  <PUBCHEM_CACTVS_TAUTO_COUNT>  (1) 
2

>  <PUBCHEM_CONFORMER_ID>  (1) 
000086D500000001

>  <PUBCHEM_MMFF94_ENERGY>  (1) 
80.0712

>  <PUBCHEM_FEATURE_SELFOVERLAP>  (1) 
35.522

>  <PUBCHEM_SHAPE_FINGERPRINT>  (1) 
11045515 52 18187365428522692309
11089746 13 13695589983778077054
12166972 35 17676490587559610396
12403259 226 18410292506344679032
12403260 363 18334016082096116448
12788726 201 18333725806293697051
12916754 54 18412268328396654352
13103583 49 16558480789675947571
13544653 18 18342182202089232473
13583140 156 18201148854811668372
13631057 29 18413106151935516138
14347332 77 18336542737787787618
14790565 3 17762902066103320953
15238133 3 9151169887757097314
17349148 13 17822019704897257060
17492 89 18341051800856781902
17857418 61 18410293597028651074
18681886 176 18413103983783913066
18927931 339 18261968378924545259
19489759 90 17821729412236708200
200 152 18342738507216569944
20028762 73 18201439199133839550
21033650 10 17023174999409755757
22393880 68 18040703754178269037
23402539 116 18408324380081936897
23557571 272 18341897346493601853
23559900 14 18410003330100976217
2838139 119 13984651573361280855
3004659 81 18259980500493038811
314194 84 18200314471705049735
329604 57 18411702109946383150
4214541 1 18337393738497582876
4280585 95 18261947539869806137
463206 1 18268432515216860887
5104073 3 18272088245634652144
5283173 99 18187075140430832533
6669772 16 17697870720343607880
7495541 125 17846494868012252752
9709674 26 18267593415966976678

>  <PUBCHEM_SHAPE_MULTIPOLES>  (1) 
486.92
14.23
3.34
1.07
8.45
1.01
0.18
-8.71
-2.5
-2.89
-0.31
-0.91
0.08
0.5

>  <PUBCHEM_SHAPE_SELFOVERLAP>  (1) 
1016.701

>  <PUBCHEM_SHAPE_VOLUME>  (1) 
274.8

>  <PUBCHEM_COORDINATE_TYPE>  (1) 
2
5
10

$$$$
