34511
     RDKit          3D

 24 26  0  0  1  0  0  0  0  0999 V2000
    3.3724    2.3374   -0.1613 Cl  0  0  0  0  0  0  0  0  0  0  0  0
    2.5629   -3.0532   -0.4975 Cl  0  0  0  0  0  0  0  0  0  0  0  0
   -0.4611    0.1290    0.0839 O   0  0  0  0  0  0  0  0  0  0  0  0
   -5.2917   -2.2835    0.0188 O   0  0  0  0  0  0  0  0  0  0  0  0
    0.9934   -0.1983    1.8182 O   0  0  0  0  0  0  0  0  0  0  0  0
   -3.2785   -0.2802   -0.1708 N   0  0  0  0  0  0  0  0  0  0  0  0
    1.7044   -0.1640   -0.4120 N   0  0  0  0  0  0  0  0  0  0  0  0
   -2.7154    1.0264    0.1624 C   0  0  0  0  0  0  0  0  0  0  0  0
   -1.3758    0.8626    0.8989 C   0  0  0  0  0  0  0  0  0  0  0  0
   -2.5610    1.8816   -1.1032 C   0  0  0  0  0  0  0  0  0  0  0  0
   -0.7664    2.2303    1.2227 C   0  0  0  0  0  0  0  0  0  0  0  0
   -1.9441    3.2412   -0.7765 C   0  0  0  0  0  0  0  0  0  0  0  0
   -0.6225    3.1027   -0.0257 C   0  0  0  0  0  0  0  0  0  0  0  0
   -3.4299   -1.1061    1.0351 C   0  0  0  0  0  0  0  0  0  0  0  0
   -4.5754   -0.1326   -0.8460 C   0  0  0  0  0  0  0  0  0  0  0  0
   -4.0299   -2.4592    0.6638 C   0  0  0  0  0  0  0  0  0  0  0  0
   -5.1492   -1.5085   -1.1723 C   0  0  0  0  0  0  0  0  0  0  0  0
    0.7845   -0.0908    0.6160 C   0  0  0  0  0  0  0  0  0  0  0  0
    3.0984   -0.3784   -0.3189 C   0  0  0  0  0  0  0  0  0  0  0  0
    3.9531    0.7097   -0.1989 C   0  0  0  0  0  0  0  0  0  0  0  0
    3.5952   -1.6751   -0.3468 C   0  0  0  0  0  0  0  0  0  0  0  0
    5.3287    0.4973   -0.1050 C   0  0  0  0  0  0  0  0  0  0  0  0
    4.9706   -1.8873   -0.2529 C   0  0  0  0  0  0  0  0  0  0  0  0
    5.8374   -0.8011   -0.1320 C   0  0  0  0  0  0  0  0  0  0  0  0
  1 20  1  0
  2 21  1  0
  3  9  1  0
  3 18  1  0
  4 16  1  0
  4 17  1  0
  5 18  2  0
  6  8  1  0
  6 14  1  0
  6 15  1  0
  7 18  1  0
  7 19  1  0
  8  9  1  0
  8 10  1  0
  9 11  1  0
 10 12  1  0
 11 13  1  0
 12 13  1  0
 14 16  1  0
 15 17  1  0
 19 20  2  0
 19 21  1  0
 20 22  1  0
 21 23  2  0
 22 24  2  0
 23 24  1  0
M  END
>  <PUBCHEM_COMPOUND_CID>  (1) 
34511

>  <PUBCHEM_CONFORMER_RMSD>  (1) 
0.8

>  <PUBCHEM_CONFORMER_DIVERSEORDER>  (1) 
1
54
79
67
81
22
14
9
61
26
31
48
36
20
51
58
17
3
56
55
43
28
60
80
7
69
66
90
45
89
25
30
78
53
87
62
18
72
46
85
40
8
5
71
63
12
64
39
27
83
21
73
42
70
49
38
47
76
23
86
65
33
24
16
68
11
88
59
41
82
52
29
44
19
57
50
75
10
35
77
84
13
37
6
2
4
74
15
32
34

>  <PUBCHEM_MMFF94_PARTIAL_CHARGES>  (1) 
24
1 -0.18
14 0.27
15 0.27
16 0.28
17 0.28
18 0.78
19 0.12
2 -0.18
20 0.18
21 0.18
22 -0.15
23 -0.15
24 -0.15
3 -0.43
4 -0.56
43 0.37
44 0.15
45 0.15
46 0.15
5 -0.57
6 -0.81
7 -0.55
8 0.27
9 0.28

>  <PUBCHEM_EFFECTIVE_ROTOR_COUNT>  (1) 
7.4

>  <PUBCHEM_PHARMACOPHORE_FEATURES>  (1) 
7
1 4 acceptor
1 5 acceptor
1 6 cation
1 7 donor
6 19 20 21 22 23 24 rings
6 4 6 14 15 16 17 rings
6 8 9 10 11 12 13 rings

>  <PUBCHEM_HEAVY_ATOM_COUNT>  (1) 
24

>  <PUBCHEM_ATOM_DEF_STEREO_COUNT>  (1) 
0

>  <PUBCHEM_ATOM_UDEF_STEREO_COUNT>  (1) 
2

>  <PUBCHEM_BOND_DEF_STEREO_COUNT>  (1) 
0

>  <PUBCHEM_BOND_UDEF_STEREO_COUNT>  (1) 
0

>  <PUBCHEM_ISOTOPIC_ATOM_COUNT>  (1) 
0

>  <PUBCHEM_COMPONENT_COUNT>  (1) 
1

>  <PUBCHEM_CACTVS_TAUTO_COUNT>  (1) 
2

>  <PUBCHEM_CONFORMER_ID>  (1) 
000086CF00000001

>  <PUBCHEM_MMFF94_ENERGY>  (1) 
74.1322

>  <PUBCHEM_FEATURE_SELFOVERLAP>  (1) 
35.522

>  <PUBCHEM_SHAPE_FINGERPRINT>  (1) 
11045515 52 18187085044288320285
11089746 13 13768210536464810542
12403259 226 18410011018614850800
12403260 363 18333732395295553496
12553582 1 18261104189166847371
12596602 18 15769772511221488779
12788726 201 18261667091390474659
12916754 54 18412549790667726704
13103583 49 16558479681484694891
13544653 18 18342462568806125217
13631057 29 18413107243068257818
14251764 30 18339920541046888863
15238133 3 9079114488510722114
15352361 1 18410857685169212543
17349148 13 17749399156695291106
17492 89 18340770326027744814
200 152 18342458131851687848
20871999 31 18335412448978314741
21033650 10 16950554451033742477
221490 88 18411703166972691472
22393880 68 17968365775963932901
23402539 116 18408887325735064193
23557571 272 18341896238376215244
23559900 14 18409721855108402304
2838139 119 13912592879706178167
3004659 81 18260263061964677979
314194 84 18200313363471631567
329604 57 18411139155808809838
4214541 1 18337675196394586180
4280585 95 18261663870038213257
46194498 28 17533772965226083941
463206 1 18268151031534236055
5104073 3 18272369720679895616
5283173 99 18186793661053711549
6669772 16 17767680929720442400
6913067 236 18341039805070471024
7495541 125 17846212285055214560
9709674 26 18267310833020624430

>  <PUBCHEM_SHAPE_MULTIPOLES>  (1) 
470.08
12.54
3.57
1.1
3.88
0.84
0.19
-7.88
-2.48
-1.5
-0.4
-0.8
0.09
0.59

>  <PUBCHEM_SHAPE_SELFOVERLAP>  (1) 
967.812

>  <PUBCHEM_SHAPE_VOLUME>  (1) 
270.3

>  <PUBCHEM_COORDINATE_TYPE>  (1) 
2
5
10

$$$$
