34529
     RDKit          3D

  8  7  0  0  0  0  0  0  0  0999 V2000
   -1.3925    1.6077    0.8293 Br  0  0  0  0  0  0  0  0  0  0  0  0
   -1.3897   -1.6149    0.8166 Br  0  0  0  0  0  0  0  0  0  0  0  0
   -1.2563    0.0066   -1.7396 Cl  0  0  0  0  0  0  0  0  0  0  0  0
    1.3403    1.0918   -0.5829 F   0  0  0  0  0  0  0  0  0  0  0  0
    1.2540   -0.0064    1.2969 F   0  0  0  0  0  0  0  0  0  0  0  0
    1.3371   -1.0869   -0.5903 F   0  0  0  0  0  0  0  0  0  0  0  0
   -0.7042    0.0005   -0.0480 C   0  0  0  0  0  0  0  0  0  0  0  0
    0.8112    0.0015    0.0180 C   0  0  0  0  0  0  0  0  0  0  0  0
  1  7  1  0
  2  7  1  0
  3  7  1  0
  4  8  1  0
  5  8  1  0
  6  8  1  0
  7  8  1  0
M  END
>  <PUBCHEM_COMPOUND_CID>  (1) 
34529

>  <PUBCHEM_CONFORMER_RMSD>  (1) 
0.4

>  <PUBCHEM_CONFORMER_DIVERSEORDER>  (1) 
1

>  <PUBCHEM_MMFF94_PARTIAL_CHARGES>  (1) 
8
1 -0.23
2 -0.23
3 -0.29
4 -0.34
5 -0.34
6 -0.34
7 0.75
8 1.02

>  <PUBCHEM_EFFECTIVE_ROTOR_COUNT>  (1) 
1

>  <PUBCHEM_PHARMACOPHORE_FEATURES>  (1) 
3
1 1 hydrophobe
1 2 hydrophobe
3 1 2 7 hydrophobe

>  <PUBCHEM_HEAVY_ATOM_COUNT>  (1) 
8

>  <PUBCHEM_ATOM_DEF_STEREO_COUNT>  (1) 
0

>  <PUBCHEM_ATOM_UDEF_STEREO_COUNT>  (1) 
0

>  <PUBCHEM_BOND_DEF_STEREO_COUNT>  (1) 
0

>  <PUBCHEM_BOND_UDEF_STEREO_COUNT>  (1) 
0

>  <PUBCHEM_ISOTOPIC_ATOM_COUNT>  (1) 
0

>  <PUBCHEM_COMPONENT_COUNT>  (1) 
1

>  <PUBCHEM_CACTVS_TAUTO_COUNT>  (1) 
1

>  <PUBCHEM_CONFORMER_ID>  (1) 
000086E100000001

>  <PUBCHEM_MMFF94_ENERGY>  (1) 
4.3072

>  <PUBCHEM_FEATURE_SELFOVERLAP>  (1) 
16.543

>  <PUBCHEM_SHAPE_FINGERPRINT>  (1) 
137420 1 12595299162723948259
21040471 1 18195542393175978409
23552333 60 17604991601352571659
24536 1 18410569591410463341
29004967 10 17981345686834043771
5084963 1 17984150253471211233
5943 1 8627117773560344359

>  <PUBCHEM_SHAPE_MULTIPOLES>  (1) 
156.57
2.01
1.7
1.48
0.31
0
0.57
0
-0.19
-0.79
-0.51
-0.37
0
0

>  <PUBCHEM_SHAPE_SELFOVERLAP>  (1) 
265.432

>  <PUBCHEM_SHAPE_VOLUME>  (1) 
110.6

>  <PUBCHEM_COORDINATE_TYPE>  (1) 
2
5
10

$$$$
