34520
     RDKit          3D

 21 22  0  0  1  0  0  0  0  0999 V2000
    0.3422    1.1764   -0.0156 O   0  0  0  0  0  0  0  0  0  0  0  0
    4.2200   -0.0753    0.6992 O   0  0  0  0  0  0  0  0  0  0  0  0
    4.0612    1.1309    0.0668 N   0  0  0  0  0  0  0  0  0  0  0  0
    2.6684    1.6378    0.3086 C   0  0  0  0  0  0  0  0  0  0  0  0
   -0.6558    0.3063   -0.5312 C   0  0  0  0  0  0  0  0  0  0  0  0
    1.6495    0.6735   -0.2602 C   0  0  0  0  0  0  0  0  0  0  0  0
   -0.4778   -1.1068   -0.0104 C   0  0  0  0  0  0  0  0  0  0  0  0
   -2.0350    0.8682   -0.2556 C   0  0  0  0  0  0  0  0  0  0  0  0
    5.0584    2.1120    0.6133 C   0  0  0  0  0  0  0  0  0  0  0  0
    4.2851    0.9506   -1.4075 C   0  0  0  0  0  0  0  0  0  0  0  0
   -0.1560   -2.1325   -0.8809 C   0  0  0  0  0  0  0  0  0  0  0  0
   -0.6462   -1.3305    1.3450 C   0  0  0  0  0  0  0  0  0  0  0  0
   -3.0658    0.5867   -1.1345 C   0  0  0  0  0  0  0  0  0  0  0  0
   -2.2327    1.6497    0.8689 C   0  0  0  0  0  0  0  0  0  0  0  0
    0.0029   -3.4246   -0.3800 C   0  0  0  0  0  0  0  0  0  0  0  0
    0.0254   -1.8948   -2.3442 C   0  0  0  0  0  0  0  0  0  0  0  0
   -0.4871   -2.6226    1.8456 C   0  0  0  0  0  0  0  0  0  0  0  0
   -0.1627   -3.6696    0.9832 C   0  0  0  0  0  0  0  0  0  0  0  0
   -4.3361    1.1039   -0.8808 C   0  0  0  0  0  0  0  0  0  0  0  0
   -3.5030    2.1668    1.1226 C   0  0  0  0  0  0  0  0  0  0  0  0
   -4.5548    1.8939    0.2478 C   0  0  0  0  0  0  0  0  0  0  0  0
  1  5  1  0
  1  6  1  0
  2  3  1  0
  3  4  1  0
  3  9  1  0
  3 10  1  0
  4  6  1  0
  5  7  1  0
  5  8  1  0
  7 11  2  0
  7 12  1  0
  8 13  2  0
  8 14  1  0
 11 15  1  0
 11 16  1  0
 12 17  2  0
 13 19  1  0
 14 20  2  0
 15 18  2  0
 17 18  1  0
 19 21  2  0
 20 21  1  0
M  CHG  2   2  -1   3   1
M  END
>  <PUBCHEM_COMPOUND_CID>  (1) 
34520

>  <PUBCHEM_CONFORMER_RMSD>  (1) 
0.8

>  <PUBCHEM_CONFORMER_DIVERSEORDER>  (1) 
2
47
20
35
25
28
42
50
34
51
40
38
36
37
46
45
13
24
12
43
14
27
30
11
16
31
41
5
39
8
44
48
10
1
3
18
4
19
32
26
29
9
22
7
21
33
52
6
15
23
49
17

>  <PUBCHEM_MMFF94_PARTIAL_CHARGES>  (1) 
30
1 -0.56
10 0.26
11 -0.14
12 -0.15
13 -0.15
14 -0.15
15 -0.15
16 0.14
17 -0.15
18 -0.15
19 -0.15
2 -0.75
20 -0.15
21 -0.15
3 -0.02
33 0.15
34 0.15
35 0.15
36 0.15
4 0.26
40 0.15
41 0.15
42 0.15
43 0.15
44 0.15
5 0.57
6 0.28
7 -0.14
8 -0.14
9 0.26

>  <PUBCHEM_EFFECTIVE_ROTOR_COUNT>  (1) 
6

>  <PUBCHEM_PHARMACOPHORE_FEATURES>  (1) 
4
1 1 acceptor
1 2 anion
6 7 11 12 15 17 18 rings
6 8 13 14 19 20 21 rings

>  <PUBCHEM_HEAVY_ATOM_COUNT>  (1) 
21

>  <PUBCHEM_ATOM_DEF_STEREO_COUNT>  (1) 
0

>  <PUBCHEM_ATOM_UDEF_STEREO_COUNT>  (1) 
1

>  <PUBCHEM_BOND_DEF_STEREO_COUNT>  (1) 
0

>  <PUBCHEM_BOND_UDEF_STEREO_COUNT>  (1) 
0

>  <PUBCHEM_ISOTOPIC_ATOM_COUNT>  (1) 
0

>  <PUBCHEM_COMPONENT_COUNT>  (1) 
1

>  <PUBCHEM_CACTVS_TAUTO_COUNT>  (1) 
1

>  <PUBCHEM_CONFORMER_ID>  (1) 
000086D800000002

>  <PUBCHEM_MMFF94_ENERGY>  (1) 
71.3519

>  <PUBCHEM_FEATURE_SELFOVERLAP>  (1) 
20.297

>  <PUBCHEM_SHAPE_FINGERPRINT>  (1) 
10382601 240 18195255408009687833
10764073 3 14854386011033477461
107951 10 18260843609016556046
12592029 89 18263640675817210027
12643181 29 18409176494322548478
12716301 132 17754215051494539195
12788726 201 18050552238647492818
13004483 165 17615975842520300922
13135754 10 17606142794512101562
133893 2 17975967675041616945
14251757 17 15123494909273338544
14468879 13 17988361585053373806
14713325 29 17987235706453050175
15664445 248 17264700114378206759
16752209 62 18191295181505466955
1813 80 9727626207042107421
20197701 30 18409439293684066901
204376 136 18259988158541105361
20554085 129 18128793322897533265
20567600 347 18411704249093388895
20602899 9 16630251384860408126
20645476 183 18187085108728036764
21524375 3 18412821369865649061
21731228 192 18334581239061159545
22224240 67 18408609184539588705
2255824 54 17980199691260682023
22907989 373 17977964688525885525
23175994 123 11383827195280948345
23419403 2 17694833645598915663
23558518 356 18123458651314102165
23559900 14 16912836654062423549
23598288 3 18048046456295680116
23728640 28 18339355396243652090
298252 57 17918267658199515479
3380486 145 17188686988293236803
3411729 13 18196093236012575345
3759504 43 18334295408971831868
394222 165 18198901409968149451
404807 14 15475947528366861910
4340502 62 18261967241544384033
474 4 18339079272563901681
59755656 520 18408317800561421660
6138700 20 18124600778309132670
633830 44 18272091539347495309
7364860 26 18124313796830329155
81228 2 17831846216223877065
81539 233 18262796251140311453
9981440 41 17988354983809997826

>  <PUBCHEM_SHAPE_MULTIPOLES>  (1) 
415.45
8.06
3.92
1.59
5.35
4.06
0.3
-10.23
0.05
-0.11
-1.04
-0.15
0.91
0

>  <PUBCHEM_SHAPE_SELFOVERLAP>  (1) 
869.789

>  <PUBCHEM_SHAPE_VOLUME>  (1) 
237.1

>  <PUBCHEM_COORDINATE_TYPE>  (1) 
2
5
10

$$$$
