34548
     RDKit          3D

 17 18  0  0  0  0  0  0  0  0999 V2000
    0.1984    0.1154    0.5370 N   0  0  0  0  0  0  0  0  0  0  0  0
   -0.4042    0.1583   -0.5612 N   0  0  0  0  0  0  0  0  0  0  0  0
    2.3097   -1.0270    0.1584 C   0  0  0  0  0  0  0  0  0  0  0  0
    4.3380    0.2610   -0.0946 C   0  0  0  0  0  0  0  0  0  0  0  0
    1.5871    0.1515    0.3247 C   0  0  0  0  0  0  0  0  0  0  0  0
    3.6875   -0.9722   -0.0516 C   0  0  0  0  0  0  0  0  0  0  0  0
    3.6105    1.4393    0.0723 C   0  0  0  0  0  0  0  0  0  0  0  0
    2.2327    1.3845    0.2821 C   0  0  0  0  0  0  0  0  0  0  0  0
    1.6351   -2.3593    0.2005 C   0  0  0  0  0  0  0  0  0  0  0  0
    5.8112    0.3200   -0.3195 C   0  0  0  0  0  0  0  0  0  0  0  0
   -4.5434    0.0501    0.0696 C   0  0  0  0  0  0  0  0  0  0  0  0
   -1.7862    0.1222   -0.3502 C   0  0  0  0  0  0  0  0  0  0  0  0
   -3.8765    1.2744    0.0242 C   0  0  0  0  0  0  0  0  0  0  0  0
   -3.8316   -1.1382   -0.0949 C   0  0  0  0  0  0  0  0  0  0  0  0
   -2.4981    1.3104   -0.1856 C   0  0  0  0  0  0  0  0  0  0  0  0
   -2.4530   -1.1021   -0.3048 C   0  0  0  0  0  0  0  0  0  0  0  0
   -6.0172    0.0115    0.2936 C   0  0  0  0  0  0  0  0  0  0  0  0
  1  2  2  0
  1  5  1  0
  2 12  1  0
  3  5  2  0
  3  6  1  0
  3  9  1  0
  4  6  2  0
  4  7  1  0
  4 10  1  0
  5  8  1  0
  7  8  2  0
 11 13  2  0
 11 14  1  0
 11 17  1  0
 12 15  2  0
 12 16  1  0
 13 15  1  0
 14 16  2  0
M  END
>  <PUBCHEM_COMPOUND_CID>  (1) 
34548

>  <PUBCHEM_CONFORMER_RMSD>  (1) 
0.6

>  <PUBCHEM_CONFORMER_DIVERSEORDER>  (1) 
1
2
3

>  <PUBCHEM_MMFF94_PARTIAL_CHARGES>  (1) 
24
1 -0.18
10 0.14
11 -0.14
12 0.18
13 -0.15
14 -0.15
15 -0.15
16 -0.15
17 0.14
18 0.15
19 0.15
2 -0.18
20 0.15
27 0.15
28 0.15
29 0.15
3 -0.14
30 0.15
4 -0.14
5 0.18
6 -0.15
7 -0.15
8 -0.15
9 0.14

>  <PUBCHEM_EFFECTIVE_ROTOR_COUNT>  (1) 
2

>  <PUBCHEM_PHARMACOPHORE_FEATURES>  (1) 
2
6 11 12 13 14 15 16 rings
6 3 4 5 6 7 8 rings

>  <PUBCHEM_HEAVY_ATOM_COUNT>  (1) 
17

>  <PUBCHEM_ATOM_DEF_STEREO_COUNT>  (1) 
0

>  <PUBCHEM_ATOM_UDEF_STEREO_COUNT>  (1) 
0

>  <PUBCHEM_BOND_DEF_STEREO_COUNT>  (1) 
0

>  <PUBCHEM_BOND_UDEF_STEREO_COUNT>  (1) 
0

>  <PUBCHEM_ISOTOPIC_ATOM_COUNT>  (1) 
0

>  <PUBCHEM_COMPONENT_COUNT>  (1) 
1

>  <PUBCHEM_CACTVS_TAUTO_COUNT>  (1) 
1

>  <PUBCHEM_CONFORMER_ID>  (1) 
000086F400000001

>  <PUBCHEM_MMFF94_ENERGY>  (1) 
46.2574

>  <PUBCHEM_FEATURE_SELFOVERLAP>  (1) 
10.149

>  <PUBCHEM_SHAPE_FINGERPRINT>  (1) 
10354089 29 18413390938405735128
10366900 7 18334856138685585337
10616163 171 18340485668295735919
11471102 20 18411134723650350194
12107183 9 17620196438605241107
12236239 1 17775287162044782792
12730499 353 18334866021368637522
128620 24 16877660162647807127
13167823 11 18413668015462619679
13760787 19 18272649060736372415
13836976 161 18408326605481690550
14123238 8 18333731312298955245
14341114 176 18411143519353034287
15196674 1 18410291367745328623
15242433 33 18412825780807592039
17834072 33 18341890809848373655
1813 80 16950569852495926205
18186145 218 18408594877491569124
19050596 39 18411132554375491035
200 152 18202282502575489489
20645477 70 18270400486438111662
21065198 48 18340206285146719009
21267235 1 18411989056626948381
21652331 79 18410009936029618285
21709351 56 18408878564260477676
2297311 6 18272661138100136181
23402539 116 17313097549451728548
23402655 69 18412824668542749284
23557571 272 17167857526336063829
23559900 14 18411130381444026713
300161 21 18410566284654904077
3545911 37 18410575089206121981
4214541 1 18411981338940294369
449060 50 18408040710703992269
474 4 17822578303885608764
4990 188 18131077034792422310
5104073 3 18337670819469354641
542803 24 17458346342336815093
77779 3 18411418410245178381
8272917 22 18272092647417415494
9709674 26 18410578379193833903

>  <PUBCHEM_SHAPE_MULTIPOLES>  (1) 
339.89
12.53
1.68
0.68
3.46
0.47
0
-1.42
-0.12
-0.55
0.07
0
0
-0.06

>  <PUBCHEM_SHAPE_SELFOVERLAP>  (1) 
725.23

>  <PUBCHEM_SHAPE_VOLUME>  (1) 
190.9

>  <PUBCHEM_COORDINATE_TYPE>  (1) 
2
5
10

$$$$
