34545
     RDKit          3D

 16 17  0  0  0  0  0  0  0  0999 V2000
    0.1713    0.1160   -0.5573 N   0  0  0  0  0  0  0  0  0  0  0  0
    0.7849    0.1596    0.5341 N   0  0  0  0  0  0  0  0  0  0  0  0
   -1.9348   -1.0273   -0.1532 C   0  0  0  0  0  0  0  0  0  0  0  0
   -3.9607    0.2597    0.1233 C   0  0  0  0  0  0  0  0  0  0  0  0
   -1.2100    0.1513   -0.3293 C   0  0  0  0  0  0  0  0  0  0  0  0
   -3.3102   -0.9731    0.0730 C   0  0  0  0  0  0  0  0  0  0  0  0
   -3.2358    1.4383   -0.0525 C   0  0  0  0  0  0  0  0  0  0  0  0
   -1.8604    1.3842   -0.2788 C   0  0  0  0  0  0  0  0  0  0  0  0
   -1.2601   -2.3592   -0.2028 C   0  0  0  0  0  0  0  0  0  0  0  0
   -5.4312    0.3182    0.3656 C   0  0  0  0  0  0  0  0  0  0  0  0
    2.1712    0.1240    0.3057 C   0  0  0  0  0  0  0  0  0  0  0  0
    2.8734    1.3127    0.1335 C   0  0  0  0  0  0  0  0  0  0  0  0
    2.8309   -1.0998    0.2531 C   0  0  0  0  0  0  0  0  0  0  0  0
    4.2491    1.2773   -0.0935 C   0  0  0  0  0  0  0  0  0  0  0  0
    4.2067   -1.1352    0.0262 C   0  0  0  0  0  0  0  0  0  0  0  0
    4.9159    0.0533   -0.1471 C   0  0  0  0  0  0  0  0  0  0  0  0
  1  2  2  0
  1  5  1  0
  2 11  1  0
  3  5  2  0
  3  6  1  0
  3  9  1  0
  4  6  2  0
  4  7  1  0
  4 10  1  0
  5  8  1  0
  7  8  2  0
 11 12  2  0
 11 13  1  0
 12 14  1  0
 13 15  2  0
 14 16  2  0
 15 16  1  0
M  END
>  <PUBCHEM_COMPOUND_CID>  (1) 
34545

>  <PUBCHEM_CONFORMER_RMSD>  (1) 
0.6

>  <PUBCHEM_CONFORMER_DIVERSEORDER>  (1) 
1
2
3

>  <PUBCHEM_MMFF94_PARTIAL_CHARGES>  (1) 
24
1 -0.18
10 0.14
11 0.18
12 -0.15
13 -0.15
14 -0.15
15 -0.15
16 -0.15
17 0.15
18 0.15
19 0.15
2 -0.18
26 0.15
27 0.15
28 0.15
29 0.15
3 -0.14
30 0.15
4 -0.14
5 0.18
6 -0.15
7 -0.15
8 -0.15
9 0.14

>  <PUBCHEM_EFFECTIVE_ROTOR_COUNT>  (1) 
2

>  <PUBCHEM_PHARMACOPHORE_FEATURES>  (1) 
2
6 11 12 13 14 15 16 rings
6 3 4 5 6 7 8 rings

>  <PUBCHEM_HEAVY_ATOM_COUNT>  (1) 
16

>  <PUBCHEM_ATOM_DEF_STEREO_COUNT>  (1) 
0

>  <PUBCHEM_ATOM_UDEF_STEREO_COUNT>  (1) 
0

>  <PUBCHEM_BOND_DEF_STEREO_COUNT>  (1) 
0

>  <PUBCHEM_BOND_UDEF_STEREO_COUNT>  (1) 
0

>  <PUBCHEM_ISOTOPIC_ATOM_COUNT>  (1) 
0

>  <PUBCHEM_COMPONENT_COUNT>  (1) 
1

>  <PUBCHEM_CACTVS_TAUTO_COUNT>  (1) 
1

>  <PUBCHEM_CONFORMER_ID>  (1) 
000086F100000001

>  <PUBCHEM_MMFF94_ENERGY>  (1) 
43.6975

>  <PUBCHEM_FEATURE_SELFOVERLAP>  (1) 
10.149

>  <PUBCHEM_SHAPE_FINGERPRINT>  (1) 
10616163 171 18340206405232431502
12107183 9 17689716359352691840
12173636 292 18410848850258065069
12236239 1 17749109989173787997
12251169 10 18408885152492318012
12390115 104 18128833949499730665
12500047 106 18342170102786661910
12592029 89 18337674100861928235
128620 24 14417851440769395178
13167823 11 18409165506730575034
13760787 19 18412546548199319006
13897977 58 18409171038585213805
14341114 176 18409455786263687416
15042514 8 18337396071229664819
15196674 1 18410855485956325651
15242433 33 18410576197397296694
17804303 29 18341614845251341633
17834072 33 18341328976343823719
17834074 16 18410575089327499726
1813 80 16805325483237386804
18186145 218 18040426690396461942
19050596 39 18335415803189322514
200 152 17489864942980265279
20510252 161 18342739568458958465
20645477 56 18410288142277727856
20645477 70 18271246024065408222
21267235 1 18409456864511299866
21652331 79 18335420170686188109
23175994 123 17203895166671792433
23402539 116 18273207600127529125
23402655 69 18410576214967445612
23559900 14 18271522083056424160
300161 21 18341041991208941240
3004659 81 18335988554791480518
3545911 37 18411419518705612268
42 15 18334859406944564222
4214541 1 18410573972377513932
449060 50 18335138713079114412
474 4 17313954163784305692
5104073 3 18410571824988779930
522135 26 18411982447263065048
542803 24 17275106128213779736
58051976 100 18410857693759303198
69090 78 18411978066011652103
77779 3 18410012139310644960
9709674 26 18412831300004526638

>  <PUBCHEM_SHAPE_MULTIPOLES>  (1) 
319.31
10.81
1.74
0.67
1.54
0.5
0
-1.48
-0.68
-0.15
0.09
-0.03
0
-0.08

>  <PUBCHEM_SHAPE_SELFOVERLAP>  (1) 
683.144

>  <PUBCHEM_SHAPE_VOLUME>  (1) 
178.5

>  <PUBCHEM_COORDINATE_TYPE>  (1) 
2
5
10

$$$$
