34543
     RDKit          3D

 12 12  0  0  0  0  0  0  0  0999 V2000
   -0.0001    2.3764    0.0001 S   0  0  0  0  0  0  0  0  0  0  0  0
    1.0572   -0.1380    0.4121 N   0  0  0  0  0  0  0  0  0  0  0  0
   -1.0571   -0.1379   -0.4122 N   0  0  0  0  0  0  0  0  0  0  0  0
    0.7380   -1.5309    0.1748 C   0  0  0  0  0  0  0  0  0  0  0  0
   -0.7380   -1.5309   -0.1748 C   0  0  0  0  0  0  0  0  0  0  0  0
    0.0000    0.7049    0.0000 C   0  0  0  0  0  0  0  0  0  0  0  0
    2.3816    0.2310    0.8864 C   0  0  0  0  0  0  0  0  0  0  0  0
   -2.3816    0.2312   -0.8864 C   0  0  0  0  0  0  0  0  0  0  0  0
    3.3111    0.3139   -0.2784 C   0  0  0  0  0  0  0  0  0  0  0  0
   -3.3110    0.3139    0.2784 C   0  0  0  0  0  0  0  0  0  0  0  0
    4.4256   -0.4167   -0.3964 C   0  0  0  0  0  0  0  0  0  0  0  0
   -4.4256   -0.4168    0.3963 C   0  0  0  0  0  0  0  0  0  0  0  0
  1  6  2  0
  2  4  1  0
  2  6  1  0
  2  7  1  0
  3  5  1  0
  3  6  1  0
  3  8  1  0
  4  5  1  0
  7  9  1  0
  8 10  1  0
  9 11  2  0
 10 12  2  0
M  END
>  <PUBCHEM_COMPOUND_CID>  (1) 
34543

>  <PUBCHEM_CONFORMER_RMSD>  (1) 
0.6

>  <PUBCHEM_CONFORMER_DIVERSEORDER>  (1) 
1
5
8
14
9
6
10
7
13
2
11
12
4
3

>  <PUBCHEM_MMFF94_PARTIAL_CHARGES>  (1) 
18
1 -0.38
10 -0.29
11 -0.3
12 -0.3
2 -0.66
21 0.15
22 0.15
23 0.15
24 0.15
25 0.15
26 0.15
3 -0.66
4 0.3
5 0.3
6 0.5
7 0.44
8 0.44
9 -0.29

>  <PUBCHEM_EFFECTIVE_ROTOR_COUNT>  (1) 
4.8

>  <PUBCHEM_PHARMACOPHORE_FEATURES>  (1) 
4
1 1 acceptor
1 11 hydrophobe
1 12 hydrophobe
5 2 3 4 5 6 rings

>  <PUBCHEM_HEAVY_ATOM_COUNT>  (1) 
12

>  <PUBCHEM_ATOM_DEF_STEREO_COUNT>  (1) 
0

>  <PUBCHEM_ATOM_UDEF_STEREO_COUNT>  (1) 
0

>  <PUBCHEM_BOND_DEF_STEREO_COUNT>  (1) 
0

>  <PUBCHEM_BOND_UDEF_STEREO_COUNT>  (1) 
0

>  <PUBCHEM_ISOTOPIC_ATOM_COUNT>  (1) 
0

>  <PUBCHEM_COMPONENT_COUNT>  (1) 
1

>  <PUBCHEM_CACTVS_TAUTO_COUNT>  (1) 
1

>  <PUBCHEM_CONFORMER_ID>  (1) 
000086EF00000001

>  <PUBCHEM_MMFF94_ENERGY>  (1) 
23.7162

>  <PUBCHEM_FEATURE_SELFOVERLAP>  (1) 
20.297

>  <PUBCHEM_SHAPE_FINGERPRINT>  (1) 
10219947 1 18410855464708017729
11062470 55 10447929468505958803
11132069 177 18340756122095571480
12032990 46 18410858758663142563
12251169 10 18410579513655426779
14943859 89 18412825806535158766
14993402 34 18410852179015825309
16945 1 18338498803222504548
18186145 218 18131057255956424992
18511873 20 17704071828110017297
19026448 5 15697708306959398945
193761 8 17763179137867153644
20671657 1 18120944064237881437
20871999 31 18193562387915527790
21061003 4 18410572894726065357
21256008 23 18409452487908009337
21293036 1 18334576849820756820
21501502 16 18050284760973812032
23235685 24 18410568487593377222
23402539 116 18343576326808663452
23557571 272 16660922180191786871
25610 137 18334577901876812660
2748010 2 18122047969347629992
4990 188 17989211434057897150
53655031 270 18343305829499465785
537710 114 18334020514159526868
53812653 8 18336261237252276144

>  <PUBCHEM_SHAPE_MULTIPOLES>  (1) 
240.84
7.04
1.68
0.81
0
0.69
0
-1.01
0
0
0
0
0.02
0.12

>  <PUBCHEM_SHAPE_SELFOVERLAP>  (1) 
458.651

>  <PUBCHEM_SHAPE_VOLUME>  (1) 
151.4

>  <PUBCHEM_COORDINATE_TYPE>  (1) 
2
5
10

$$$$
