34553
     RDKit          3D

 18 19  0  0  0  0  0  0  0  0999 V2000
   -0.1046   -0.1519   -0.5482 N   0  0  0  0  0  0  0  0  0  0  0  0
   -0.7249   -0.1469    0.5403 N   0  0  0  0  0  0  0  0  0  0  0  0
    1.9182    1.1399   -0.2241 C   0  0  0  0  0  0  0  0  0  0  0  0
    2.0078   -1.2735   -0.1606 C   0  0  0  0  0  0  0  0  0  0  0  0
    1.2794   -0.0954   -0.3106 C   0  0  0  0  0  0  0  0  0  0  0  0
    4.0230    0.0191    0.1643 C   0  0  0  0  0  0  0  0  0  0  0  0
    3.2915    1.1972    0.0137 C   0  0  0  0  0  0  0  0  0  0  0  0
    3.3812   -1.2162    0.0771 C   0  0  0  0  0  0  0  0  0  0  0  0
    1.1573    2.4161   -0.3802 C   0  0  0  0  0  0  0  0  0  0  0  0
    1.3441   -2.6091   -0.2480 C   0  0  0  0  0  0  0  0  0  0  0  0
    5.4913    0.0803    0.4186 C   0  0  0  0  0  0  0  0  0  0  0  0
   -2.1040   -0.2031    0.3040 C   0  0  0  0  0  0  0  0  0  0  0  0
   -2.8506    0.9655    0.1537 C   0  0  0  0  0  0  0  0  0  0  0  0
   -2.7303   -1.4466    0.2199 C   0  0  0  0  0  0  0  0  0  0  0  0
   -4.2237    0.8904   -0.0806 C   0  0  0  0  0  0  0  0  0  0  0  0
   -2.2023    2.3085    0.2395 C   0  0  0  0  0  0  0  0  0  0  0  0
   -4.1033   -1.5214   -0.0143 C   0  0  0  0  0  0  0  0  0  0  0  0
   -4.8501   -0.3530   -0.1646 C   0  0  0  0  0  0  0  0  0  0  0  0
  1  2  2  0
  1  5  1  0
  2 12  1  0
  3  5  2  0
  3  7  1  0
  3  9  1  0
  4  5  1  0
  4  8  2  0
  4 10  1  0
  6  7  2  0
  6  8  1  0
  6 11  1  0
 12 13  2  0
 12 14  1  0
 13 15  1  0
 13 16  1  0
 14 17  2  0
 15 18  2  0
 17 18  1  0
M  END
>  <PUBCHEM_COMPOUND_CID>  (1) 
34553

>  <PUBCHEM_CONFORMER_RMSD>  (1) 
0.6

>  <PUBCHEM_CONFORMER_DIVERSEORDER>  (1) 
3
5
2
4
1

>  <PUBCHEM_MMFF94_PARTIAL_CHARGES>  (1) 
24
1 -0.18
10 0.14
11 0.14
12 0.18
13 -0.14
14 -0.15
15 -0.15
16 0.14
17 -0.15
18 -0.15
19 0.15
2 -0.18
20 0.15
3 -0.14
30 0.15
31 0.15
35 0.15
36 0.15
4 -0.14
5 0.18
6 -0.14
7 -0.15
8 -0.15
9 0.14

>  <PUBCHEM_EFFECTIVE_ROTOR_COUNT>  (1) 
2

>  <PUBCHEM_PHARMACOPHORE_FEATURES>  (1) 
2
6 12 13 14 15 17 18 rings
6 3 4 5 6 7 8 rings

>  <PUBCHEM_HEAVY_ATOM_COUNT>  (1) 
18

>  <PUBCHEM_ATOM_DEF_STEREO_COUNT>  (1) 
0

>  <PUBCHEM_ATOM_UDEF_STEREO_COUNT>  (1) 
0

>  <PUBCHEM_BOND_DEF_STEREO_COUNT>  (1) 
0

>  <PUBCHEM_BOND_UDEF_STEREO_COUNT>  (1) 
0

>  <PUBCHEM_ISOTOPIC_ATOM_COUNT>  (1) 
0

>  <PUBCHEM_COMPONENT_COUNT>  (1) 
1

>  <PUBCHEM_CACTVS_TAUTO_COUNT>  (1) 
1

>  <PUBCHEM_CONFORMER_ID>  (1) 
000086F900000003

>  <PUBCHEM_MMFF94_ENERGY>  (1) 
51.6757

>  <PUBCHEM_FEATURE_SELFOVERLAP>  (1) 
10.149

>  <PUBCHEM_SHAPE_FINGERPRINT>  (1) 
10366900 7 18202557384840788947
10616163 171 18412547643316226847
10967382 1 18410295782939852567
11370993 70 18410571794908592979
11806522 49 18409167722775320798
12107183 9 17688869739905203240
12236239 1 17847059991113630526
12251169 10 18409449193367328502
12403260 363 18409727404190090520
12507557 5 18408884053107446553
13140716 1 18194689399796731419
14251717 144 18409730672860786342
14341114 176 18410862044402892322
14790565 3 18336835290303436444
15196674 1 18410293592627876856
15375462 478 18343864415819082821
15442244 35 18122909728665502963
15536298 74 18342460300789300726
17492 89 18411421678990506687
17802600 8 18411416228402103849
17834072 33 18334579079061946244
1813 80 17168432567060162788
18522853 276 18412544305751786105
18681886 176 18341609369500342416
19050596 39 18411705404476358537
200 152 18272929436396380663
20645477 56 18260829246835633869
20645477 70 18341613672477960943
21033648 29 17346019105046123360
21267235 1 18410583889356806090
21421861 104 17607522432491192866
21709351 56 18408879663523958220
221490 88 18263371454440405315
23402539 116 18410004455703771455
23557571 272 17917436397412977249
23559900 14 18411130359842557161
26918003 58 18260266378074933131
34934 24 18337104562591600519
351380 180 18409727378393763689
3545911 37 18410857646646382061
4214541 1 18410011009692210521
5104073 3 18339361868374038131
58051976 378 18342458136268228055
59755656 215 18410857624923937934
67856867 119 18263924504468212308
69090 78 18410291411148708199
7364860 26 18341616970980916206
77779 3 18410857659367779627
9709674 26 18410582777351127783
9981440 41 17252589483024112264

>  <PUBCHEM_SHAPE_MULTIPOLES>  (1) 
360.47
10
2.33
0.68
0.09
0.15
0
-0.69
-0.77
0.14
0.15
-0.04
0.01
-0.06

>  <PUBCHEM_SHAPE_SELFOVERLAP>  (1) 
769.686

>  <PUBCHEM_SHAPE_VOLUME>  (1) 
203.7

>  <PUBCHEM_COORDINATE_TYPE>  (1) 
2
5
10

$$$$
