3456
     RDKit          3D

 31 34  0  0  0  0  0  0  0  0999 V2000
   -3.3309   -0.7846   -0.2236 O   0  0  0  0  0  0  0  0  0  0  0  0
    3.0338    0.2960    0.4652 N   0  0  0  0  0  0  0  0  0  0  0  0
    0.2925   -0.6220    0.4274 N   0  0  0  0  0  0  0  0  0  0  0  0
    2.6970   -1.1098    0.7210 C   0  0  0  0  0  0  0  0  0  0  0  0
    1.9307    1.1713    0.8802 C   0  0  0  0  0  0  0  0  0  0  0  0
    1.3951   -1.4975    0.0115 C   0  0  0  0  0  0  0  0  0  0  0  0
    0.6293    0.7834    0.1695 C   0  0  0  0  0  0  0  0  0  0  0  0
    4.2735    0.6651    1.1457 C   0  0  0  0  0  0  0  0  0  0  0  0
   -0.9480   -0.9914   -0.2512 C   0  0  0  0  0  0  0  0  0  0  0  0
    5.4824    0.2143    0.3274 C   0  0  0  0  0  0  0  0  0  0  0  0
   -2.1512   -0.4159    0.4787 C   0  0  0  0  0  0  0  0  0  0  0  0
    6.7918    0.6113    1.0143 C   0  0  0  0  0  0  0  0  0  0  0  0
    7.9943    0.1406    0.2370 C   0  0  0  0  0  0  0  0  0  0  0  0
   -4.4960   -0.2750    0.4106 C   0  0  0  0  0  0  0  0  0  0  0  0
   -4.6897    1.1830    0.0490 C   0  0  0  0  0  0  0  0  0  0  0  0
   -5.7165   -1.1241    0.1116 C   0  0  0  0  0  0  0  0  0  0  0  0
    8.5421   -1.1165    0.4933 C   0  0  0  0  0  0  0  0  0  0  0  0
    8.5593    0.9615   -0.7390 C   0  0  0  0  0  0  0  0  0  0  0  0
   -5.3114    2.0482    0.9494 C   0  0  0  0  0  0  0  0  0  0  0  0
   -6.7487   -1.2148    1.0455 C   0  0  0  0  0  0  0  0  0  0  0  0
   -4.2458    1.6608   -1.1840 C   0  0  0  0  0  0  0  0  0  0  0  0
   -5.8072   -1.8140   -1.0973 C   0  0  0  0  0  0  0  0  0  0  0  0
    9.6548   -1.5524   -0.2260 C   0  0  0  0  0  0  0  0  0  0  0  0
    9.6720    0.5255   -1.4585 C   0  0  0  0  0  0  0  0  0  0  0  0
   10.2197   -0.7315   -1.2019 C   0  0  0  0  0  0  0  0  0  0  0  0
   -5.4897    3.3911    0.6167 C   0  0  0  0  0  0  0  0  0  0  0  0
   -7.8714   -1.9955    0.7707 C   0  0  0  0  0  0  0  0  0  0  0  0
   -4.4239    3.0038   -1.5166 C   0  0  0  0  0  0  0  0  0  0  0  0
   -6.9301   -2.5946   -1.3722 C   0  0  0  0  0  0  0  0  0  0  0  0
   -5.0459    3.8688   -0.6162 C   0  0  0  0  0  0  0  0  0  0  0  0
   -7.9622   -2.6854   -0.4382 C   0  0  0  0  0  0  0  0  0  0  0  0
  1 11  1  0
  1 14  1  0
  2  4  1  0
  2  5  1  0
  2  8  1  0
  3  6  1  0
  3  7  1  0
  3  9  1  0
  4  6  1  0
  5  7  1  0
  8 10  1  0
  9 11  1  0
 10 12  1  0
 12 13  1  0
 13 17  2  0
 13 18  1  0
 14 15  1  0
 14 16  1  0
 15 19  2  0
 15 21  1  0
 16 20  2  0
 16 22  1  0
 17 23  1  0
 18 24  2  0
 19 26  1  0
 20 27  1  0
 21 28  2  0
 22 29  2  0
 23 25  2  0
 24 25  1  0
 26 30  2  0
 27 31  2  0
 28 30  1  0
 29 31  1  0
M  END
>  <PUBCHEM_COMPOUND_CID>  (1) 
3456

>  <PUBCHEM_CONFORMER_RMSD>  (1) 
1.4

>  <PUBCHEM_CONFORMER_DIVERSEORDER>  (1) 
1
27
12
7
19
31
3
38
29
24
21
37
28
36
14
13
25
22
10
5
17
2
30
11
23
34
35
20
16
26
15
33
32
4
18
8
9
6

>  <PUBCHEM_MMFF94_PARTIAL_CHARGES>  (1) 
45
1 -0.56
11 0.28
12 0.14
13 -0.14
14 0.57
15 -0.14
16 -0.14
17 -0.15
18 -0.15
19 -0.15
2 -0.81
20 -0.15
21 -0.15
22 -0.15
23 -0.15
24 -0.15
25 -0.15
26 -0.15
27 -0.15
28 -0.15
29 -0.15
3 -0.81
30 -0.15
31 -0.15
4 0.27
5 0.27
51 0.15
52 0.15
53 0.15
54 0.15
55 0.15
56 0.15
57 0.15
58 0.15
59 0.15
6 0.27
60 0.15
61 0.15
62 0.15
63 0.15
64 0.15
65 0.15
7 0.27
8 0.27
9 0.27

>  <PUBCHEM_EFFECTIVE_ROTOR_COUNT>  (1) 
11.2

>  <PUBCHEM_PHARMACOPHORE_FEATURES>  (1) 
7
1 1 acceptor
1 2 cation
1 3 cation
6 13 17 18 23 24 25 rings
6 15 19 21 26 28 30 rings
6 16 20 22 27 29 31 rings
6 2 3 4 5 6 7 rings

>  <PUBCHEM_HEAVY_ATOM_COUNT>  (1) 
31

>  <PUBCHEM_ATOM_DEF_STEREO_COUNT>  (1) 
0

>  <PUBCHEM_ATOM_UDEF_STEREO_COUNT>  (1) 
0

>  <PUBCHEM_BOND_DEF_STEREO_COUNT>  (1) 
0

>  <PUBCHEM_BOND_UDEF_STEREO_COUNT>  (1) 
0

>  <PUBCHEM_ISOTOPIC_ATOM_COUNT>  (1) 
0

>  <PUBCHEM_COMPONENT_COUNT>  (1) 
1

>  <PUBCHEM_CACTVS_TAUTO_COUNT>  (1) 
1

>  <PUBCHEM_CONFORMER_ID>  (1) 
00000D8000000001

>  <PUBCHEM_MMFF94_ENERGY>  (1) 
74.6712

>  <PUBCHEM_FEATURE_SELFOVERLAP>  (1) 
35.525

>  <PUBCHEM_SHAPE_FINGERPRINT>  (1) 
10669705 176 18412821374186730380
10670039 82 18334572447764316425
11101153 10 18261955271333802149
11135926 11 15554447388026463412
11315181 36 13695583348243365671
11408170 108 15123246395083498196
12082328 90 18409446977507108286
12539745 222 18059860580425009513
12645989 146 18340483486594059671
12664476 115 18131632292211685137
13974486 27 18340768260154718048
14118638 360 18260258634228150475
14279260 333 15984835813325662539
14856354 85 17749111118528959123
15461852 350 18408321098753361694
15554971 5 17894625947217281584
1577012 14 17967809406338226760
17686467 74 18040715917726234713
1818759 1 18201161035434235402
21792961 116 17632577132733693275
21927370 108 18113905996604872025
335507 130 18413111679537450839
3711267 37 16081096978917267740
4353968 344 18341606028089821271
58260988 114 14404325331362894717
6126387 218 8646773291816390990
6523845 18 16845568747318171863
6691757 9 16443072698474452499
6703917 75 18040721380998813418
9953998 17 10375874077897049771

>  <PUBCHEM_SHAPE_MULTIPOLES>  (1) 
622.13
36.29
3.31
1.25
78.5
2.44
-0.26
-11.66
-7.72
-10.93
-0.82
-0.02
0.18
-0.12

>  <PUBCHEM_SHAPE_SELFOVERLAP>  (1) 
1312.245

>  <PUBCHEM_SHAPE_VOLUME>  (1) 
348.4

>  <PUBCHEM_COORDINATE_TYPE>  (1) 
2
5
10

$$$$
