34567
     RDKit          3D

 19 20  0  0  0  0  0  0  0  0999 V2000
    0.9060   -2.1285    0.1044 O   0  0  0  0  0  0  0  0  0  0  0  0
    5.0648    0.1845    0.3652 O   0  0  0  0  0  0  0  0  0  0  0  0
   -0.4078    0.2589   -0.5591 N   0  0  0  0  0  0  0  0  0  0  0  0
   -1.0181    0.4819    0.5120 N   0  0  0  0  0  0  0  0  0  0  0  0
   -3.1634   -0.6511    0.3688 C   0  0  0  0  0  0  0  0  0  0  0  0
    0.9773    0.2293   -0.3233 C   0  0  0  0  0  0  0  0  0  0  0  0
   -2.3985    0.5119    0.2774 C   0  0  0  0  0  0  0  0  0  0  0  0
    1.6106   -0.9663    0.0055 C   0  0  0  0  0  0  0  0  0  0  0  0
    3.7229    0.1989    0.1385 C   0  0  0  0  0  0  0  0  0  0  0  0
    2.9861   -0.9815    0.2369 C   0  0  0  0  0  0  0  0  0  0  0  0
    1.7089    1.4096   -0.4226 C   0  0  0  0  0  0  0  0  0  0  0  0
    3.0842    1.3944   -0.1913 C   0  0  0  0  0  0  0  0  0  0  0  0
   -4.5373   -0.6024    0.1326 C   0  0  0  0  0  0  0  0  0  0  0  0
   -3.0075    1.7232   -0.0505 C   0  0  0  0  0  0  0  0  0  0  0  0
   -2.5341   -1.9597    0.7194 C   0  0  0  0  0  0  0  0  0  0  0  0
   -5.1463    0.6090   -0.1950 C   0  0  0  0  0  0  0  0  0  0  0  0
   -4.3814    1.7718   -0.2865 C   0  0  0  0  0  0  0  0  0  0  0  0
    0.7772   -2.9107   -1.0810 C   0  0  0  0  0  0  0  0  0  0  0  0
    5.7565    1.4269    0.2486 C   0  0  0  0  0  0  0  0  0  0  0  0
  1  8  1  0
  1 18  1  0
  2  9  1  0
  2 19  1  0
  3  4  2  0
  3  6  1  0
  4  7  1  0
  5  7  2  0
  5 13  1  0
  5 15  1  0
  6  8  2  0
  6 11  1  0
  7 14  1  0
  8 10  1  0
  9 10  2  0
  9 12  1  0
 11 12  2  0
 13 16  2  0
 14 17  2  0
 16 17  1  0
M  END
>  <PUBCHEM_COMPOUND_CID>  (1) 
34567

>  <PUBCHEM_CONFORMER_RMSD>  (1) 
0.6

>  <PUBCHEM_CONFORMER_DIVERSEORDER>  (1) 
4
11
9
27
24
20
15
19
25
26
21
14
10
3
12
22
23
13
6
18
16
5
17
7
2
1
8

>  <PUBCHEM_MMFF94_PARTIAL_CHARGES>  (1) 
26
1 -0.36
10 -0.15
11 -0.15
12 -0.15
13 -0.15
14 -0.15
15 0.14
16 -0.15
17 -0.15
18 0.28
19 0.28
2 -0.36
20 0.15
21 0.15
22 0.15
23 0.15
24 0.15
28 0.15
29 0.15
3 -0.18
4 -0.18
5 -0.14
6 0.18
7 0.18
8 0.08
9 0.08

>  <PUBCHEM_EFFECTIVE_ROTOR_COUNT>  (1) 
4

>  <PUBCHEM_PHARMACOPHORE_FEATURES>  (1) 
4
1 1 acceptor
1 2 acceptor
6 5 7 13 14 16 17 rings
6 6 8 9 10 11 12 rings

>  <PUBCHEM_HEAVY_ATOM_COUNT>  (1) 
19

>  <PUBCHEM_ATOM_DEF_STEREO_COUNT>  (1) 
0

>  <PUBCHEM_ATOM_UDEF_STEREO_COUNT>  (1) 
0

>  <PUBCHEM_BOND_DEF_STEREO_COUNT>  (1) 
0

>  <PUBCHEM_BOND_UDEF_STEREO_COUNT>  (1) 
0

>  <PUBCHEM_ISOTOPIC_ATOM_COUNT>  (1) 
0

>  <PUBCHEM_COMPONENT_COUNT>  (1) 
1

>  <PUBCHEM_CACTVS_TAUTO_COUNT>  (1) 
1

>  <PUBCHEM_CONFORMER_ID>  (1) 
0000870700000004

>  <PUBCHEM_MMFF94_ENERGY>  (1) 
71.6785

>  <PUBCHEM_FEATURE_SELFOVERLAP>  (1) 
20.297

>  <PUBCHEM_SHAPE_FINGERPRINT>  (1) 
10366900 7 17917424320138800185
10616163 171 18410296951677807471
11370993 70 18409728452505106083
12107183 9 17686050596181298752
12236239 1 17917709097686943692
12251169 10 18259985985013087124
12500047 106 18408600362254379473
12507557 5 18187646937579254221
13380535 76 18408888425589856195
138480 1 17688871930524094795
14341114 176 18335708225710733592
14790565 3 18263369247429037260
15196674 1 18409167684078586051
15375358 24 18408888408457433779
15536298 74 18340771421075288271
17980427 23 17894918472179617733
18681886 176 18340483460924814168
200 152 18202279204425838217
20279233 1 18335991899953279795
204376 136 18343865532631755958
20645477 56 18260549983751379677
20645477 70 18270117898837933607
21033648 29 18058998584177579816
21054139 6 18129930286914319959
21267235 1 18335431174682213027
21709351 56 18334852839908200029
23402539 116 18334006212181960861
23559900 14 18197495112852576051
2916195 48 17988352780555468768
300161 21 18260822691966369297
33824 294 18410012092018837258
34934 24 18409443657528965243
351380 180 18334856134090002385
3545911 37 18409168801033853033
4214541 1 18334295366396841593
474229 33 18341331175441023126
5104073 3 18334861558997564945
542803 24 17418376878664648785
58051976 378 18412546496480194533
59755656 215 18339647746256761566
69090 78 18334293146156894171
7364860 26 18198910218629737574
8272917 22 18199472069398305999
9709674 26 18410018706643175399

>  <PUBCHEM_SHAPE_MULTIPOLES>  (1) 
369.31
11.17
2.34
0.77
2.29
1.31
0.05
-5.04
-1.01
-0.08
0.4
-0.03
0.2
0.53

>  <PUBCHEM_SHAPE_SELFOVERLAP>  (1) 
786.156

>  <PUBCHEM_SHAPE_VOLUME>  (1) 
207.4

>  <PUBCHEM_COORDINATE_TYPE>  (1) 
2
5
10

$$$$
