34572
     RDKit          3D

 20 21  0  0  0  0  0  0  0  0999 V2000
    5.7885    0.1522   -0.2225 O   0  0  0  0  0  0  0  0  0  0  0  0
   -5.7880   -0.1527    0.2224 O   0  0  0  0  0  0  0  0  0  0  0  0
    0.2922    0.0666    0.5502 N   0  0  0  0  0  0  0  0  0  0  0  0
   -0.2916   -0.0661   -0.5505 N   0  0  0  0  0  0  0  0  0  0  0  0
    2.3369    1.3123    0.1354 C   0  0  0  0  0  0  0  0  0  0  0  0
   -2.3363   -1.3122   -0.1358 C   0  0  0  0  0  0  0  0  0  0  0  0
    1.6780    0.1024    0.3541 C   0  0  0  0  0  0  0  0  0  0  0  0
   -1.6827   -0.1022   -0.3531 C   0  0  0  0  0  0  0  0  0  0  0  0
    3.7182    1.3293   -0.0585 C   0  0  0  0  0  0  0  0  0  0  0  0
   -3.7176   -1.3293    0.0578 C   0  0  0  0  0  0  0  0  0  0  0  0
    4.4406    0.1362   -0.0336 C   0  0  0  0  0  0  0  0  0  0  0  0
   -4.4401   -0.1364    0.0333 C   0  0  0  0  0  0  0  0  0  0  0  0
    2.4002   -1.0905    0.3789 C   0  0  0  0  0  0  0  0  0  0  0  0
   -2.3999    1.0907   -0.3784 C   0  0  0  0  0  0  0  0  0  0  0  0
    3.7815   -1.0737    0.1852 C   0  0  0  0  0  0  0  0  0  0  0  0
   -3.7812    1.0737   -0.1847 C   0  0  0  0  0  0  0  0  0  0  0  0
    1.5846    2.6023    0.1042 C   0  0  0  0  0  0  0  0  0  0  0  0
   -1.5839   -2.6022   -0.1056 C   0  0  0  0  0  0  0  0  0  0  0  0
    6.4644   -1.1036   -0.1841 C   0  0  0  0  0  0  0  0  0  0  0  0
   -6.4640    1.1032    0.1853 C   0  0  0  0  0  0  0  0  0  0  0  0
  1 11  1  0
  1 19  1  0
  2 12  1  0
  2 20  1  0
  3  4  2  0
  3  7  1  0
  4  8  1  0
  5  7  2  0
  5  9  1  0
  5 17  1  0
  6  8  2  0
  6 10  1  0
  6 18  1  0
  7 13  1  0
  8 14  1  0
  9 11  2  0
 10 12  2  0
 11 15  1  0
 12 16  1  0
 13 15  2  0
 14 16  2  0
M  END
>  <PUBCHEM_COMPOUND_CID>  (1) 
34572

>  <PUBCHEM_CONFORMER_RMSD>  (1) 
0.6

>  <PUBCHEM_CONFORMER_DIVERSEORDER>  (1) 
1
11
12
15
18
9
8
17
16
7
13
14
2
10
5
3
4
6

>  <PUBCHEM_MMFF94_PARTIAL_CHARGES>  (1) 
26
1 -0.36
10 -0.15
11 0.08
12 0.08
13 -0.15
14 -0.15
15 -0.15
16 -0.15
17 0.14
18 0.14
19 0.28
2 -0.36
20 0.28
21 0.15
22 0.15
23 0.15
24 0.15
25 0.15
26 0.15
3 -0.18
4 -0.18
5 -0.14
6 -0.14
7 0.18
8 0.18
9 -0.15

>  <PUBCHEM_EFFECTIVE_ROTOR_COUNT>  (1) 
4

>  <PUBCHEM_PHARMACOPHORE_FEATURES>  (1) 
4
1 1 acceptor
1 2 acceptor
6 5 7 9 11 13 15 rings
6 6 8 10 12 14 16 rings

>  <PUBCHEM_HEAVY_ATOM_COUNT>  (1) 
20

>  <PUBCHEM_ATOM_DEF_STEREO_COUNT>  (1) 
0

>  <PUBCHEM_ATOM_UDEF_STEREO_COUNT>  (1) 
0

>  <PUBCHEM_BOND_DEF_STEREO_COUNT>  (1) 
0

>  <PUBCHEM_BOND_UDEF_STEREO_COUNT>  (1) 
0

>  <PUBCHEM_ISOTOPIC_ATOM_COUNT>  (1) 
0

>  <PUBCHEM_COMPONENT_COUNT>  (1) 
1

>  <PUBCHEM_CACTVS_TAUTO_COUNT>  (1) 
1

>  <PUBCHEM_CONFORMER_ID>  (1) 
0000870C00000001

>  <PUBCHEM_MMFF94_ENERGY>  (1) 
73.1288

>  <PUBCHEM_FEATURE_SELFOVERLAP>  (1) 
20.297

>  <PUBCHEM_SHAPE_FINGERPRINT>  (1) 
10366900 7 17240480316785517969
10616163 171 18339923843323117750
11089746 13 17274818064868000457
11315181 36 17560805454605447546
12107183 9 17761772858448213915
12236239 1 18060700606459446536
12553582 1 18336248090431138630
12788726 201 17988645125461000505
13533116 47 17274543114010370598
14341114 176 18409452517735624353
14617045 38 18333735693355845538
15042514 8 18264211495032308939
15099037 51 18413107268769379455
15196674 1 18338797934809710592
15788980 27 17489586787949996980
1813 80 16949997045608625156
19141452 34 18411698824291361031
19489759 90 14979959164426765379
200 152 18130787884197561066
20286276 3 18049446134302543346
20681677 155 18408881866948072146
21033648 29 18115006568578276581
21065198 57 18267584782918720161
21267235 1 18409454682351304976
221357 26 18408881823961482164
221490 88 18192153917899469538
23402539 116 18202277018366560709
23559900 14 18341887549604407193
29717793 49 17917998269756680388
3004659 81 18261114042054172798
335352 9 18411418414387106837
350125 39 18408885105706931821
3545911 37 18410292505879786176
4073 2 18041846237470761106
4214541 1 18410855481877330863
5104073 3 18337104686908217712
559249 180 18272649064963125391
58051976 100 18337388339544454279
59755656 215 18411703140680772046
59755656 520 16877661275113208147
633830 44 17677045879913071666
77779 3 18409448123899320676
9709674 26 18192993944234801890

>  <PUBCHEM_SHAPE_MULTIPOLES>  (1) 
389.89
14.34
2.06
0.67
0.01
0
0
0
0
0
0
0
0
0

>  <PUBCHEM_SHAPE_SELFOVERLAP>  (1) 
829.211

>  <PUBCHEM_SHAPE_VOLUME>  (1) 
219.8

>  <PUBCHEM_COORDINATE_TYPE>  (1) 
2
5
10

$$$$
