34587
     RDKit          3D

 19 19  0  0  0  0  0  0  0  0999 V2000
    0.3792    0.7444    0.4285 O   0  0  0  0  0  0  0  0  0  0  0  0
    0.0297    0.3641   -1.8147 O   0  0  0  0  0  0  0  0  0  0  0  0
    3.9645   -0.0059    0.0172 N   0  0  0  0  0  0  0  0  0  0  0  0
   -5.7265   -0.6399    0.8231 N   0  0  0  0  0  0  0  0  0  0  0  0
    2.5477   -0.2545    0.2817 C   0  0  0  0  0  0  0  0  0  0  0  0
    4.7217   -1.2558    0.0730 C   0  0  0  0  0  0  0  0  0  0  0  0
    4.5013    0.9601    0.9748 C   0  0  0  0  0  0  0  0  0  0  0  0
    1.7488    1.0352    0.1820 C   0  0  0  0  0  0  0  0  0  0  0  0
   -1.7750    0.1439   -0.2722 C   0  0  0  0  0  0  0  0  0  0  0  0
    4.1590   -2.2522   -0.9225 C   0  0  0  0  0  0  0  0  0  0  0  0
    5.9538    1.2590    0.6564 C   0  0  0  0  0  0  0  0  0  0  0  0
   -2.1367   -1.1485    0.0585 C   0  0  0  0  0  0  0  0  0  0  0  0
   -2.6850    1.1842   -0.2500 C   0  0  0  0  0  0  0  0  0  0  0  0
   -0.3698    0.4226   -0.6622 C   0  0  0  0  0  0  0  0  0  0  0  0
   -3.4570   -1.4102    0.4250 C   0  0  0  0  0  0  0  0  0  0  0  0
   -4.0052    0.9224    0.1166 C   0  0  0  0  0  0  0  0  0  0  0  0
   -4.3912   -0.3748    0.4541 C   0  0  0  0  0  0  0  0  0  0  0  0
   -1.1584   -2.2777    0.0374 C   0  0  0  0  0  0  0  0  0  0  0  0
   -2.3010    2.5835   -0.6066 C   0  0  0  0  0  0  0  0  0  0  0  0
  1  8  1  0
  1 14  1  0
  2 14  2  0
  3  5  1  0
  3  6  1  0
  3  7  1  0
  4 17  1  0
  5  8  1  0
  6 10  1  0
  7 11  1  0
  9 12  2  0
  9 13  1  0
  9 14  1  0
 12 15  1  0
 12 18  1  0
 13 16  2  0
 13 19  1  0
 15 17  2  0
 16 17  1  0
M  END
>  <PUBCHEM_COMPOUND_CID>  (1) 
34587

>  <PUBCHEM_CONFORMER_RMSD>  (1) 
0.8

>  <PUBCHEM_CONFORMER_DIVERSEORDER>  (1) 
3
41
34
38
8
44
25
16
62
18
47
61
52
50
40
23
7
24
33
57
56
29
30
35
45
20
42
4
49
12
39
10
11
53
51
17
43
54
46
21
58
31
63
28
19
2
13
59
48
6
55
37
1
26
5
22
9
32
27
14
36
15
60

>  <PUBCHEM_MMFF94_PARTIAL_CHARGES>  (1) 
21
1 -0.43
12 -0.14
13 -0.14
14 0.63
15 -0.15
16 -0.15
17 0.1
18 0.14
19 0.14
2 -0.57
3 -0.81
34 0.15
35 0.15
4 -0.9
42 0.4
43 0.4
5 0.27
6 0.27
7 0.27
8 0.28
9 0.09

>  <PUBCHEM_EFFECTIVE_ROTOR_COUNT>  (1) 
7

>  <PUBCHEM_PHARMACOPHORE_FEATURES>  (1) 
5
1 2 acceptor
1 3 cation
1 4 cation
1 4 donor
6 9 12 13 15 16 17 rings

>  <PUBCHEM_HEAVY_ATOM_COUNT>  (1) 
19

>  <PUBCHEM_ATOM_DEF_STEREO_COUNT>  (1) 
0

>  <PUBCHEM_ATOM_UDEF_STEREO_COUNT>  (1) 
0

>  <PUBCHEM_BOND_DEF_STEREO_COUNT>  (1) 
0

>  <PUBCHEM_BOND_UDEF_STEREO_COUNT>  (1) 
0

>  <PUBCHEM_ISOTOPIC_ATOM_COUNT>  (1) 
0

>  <PUBCHEM_COMPONENT_COUNT>  (1) 
1

>  <PUBCHEM_CACTVS_TAUTO_COUNT>  (1) 
2

>  <PUBCHEM_CONFORMER_ID>  (1) 
0000871B00000003

>  <PUBCHEM_MMFF94_ENERGY>  (1) 
57.0886

>  <PUBCHEM_FEATURE_SELFOVERLAP>  (1) 
25.371

>  <PUBCHEM_SHAPE_FINGERPRINT>  (1) 
11128504 68 16153721907611633742
12236239 1 17313104176649712565
12507560 40 18341892970122107956
12596602 18 16558747970653298506
13533116 47 17846782879945343290
13551218 46 18411421687448189235
13583140 156 17845926441933311200
13675066 3 18342735200397739652
14341114 176 18413675707759563856
14617045 38 18412554210526807854
14866123 147 17120023058664649218
15042514 8 18263650722542917315
15196674 1 18411418393186933890
15375358 24 18343297068277904166
17804303 29 18408045095849699181
17844677 252 18410580552700278952
1813 80 17167865257493435436
19141452 34 18341613762935920559
20510252 161 18341330007305085321
20645477 56 18411130359731787304
20645477 70 17632296736252833414
21065199 12 18412542089923045260
21267235 1 18187655712719354811
21637258 2 15936973058830033155
2297311 6 18409459071792343252
23402539 116 18342733040535514261
23557571 272 18186800258424139044
23559900 14 18341328921068417944
239999 70 18411420592964530930
2838139 119 15984260691846342945
3004659 81 18335143051724148354
3545911 37 18342457058737754352
4214541 1 18409728426693188760
4325135 7 17968097560416337428
474 4 13830136117450818208
5104073 3 18340201882789631312
542803 24 15985104124005635984
5924683 9 17987225806432204327
59755656 215 18260547776190872143
59755656 520 14979959189695695677
77779 3 18410855439101861160
9709674 26 18410576214630303130

>  <PUBCHEM_SHAPE_MULTIPOLES>  (1) 
369.31
12.34
2.21
0.97
8.81
0.29
0.21
0.48
-3.27
0.2
0.3
0.21
-0.05
1.53

>  <PUBCHEM_SHAPE_SELFOVERLAP>  (1) 
748.698

>  <PUBCHEM_SHAPE_VOLUME>  (1) 
219.3

>  <PUBCHEM_COORDINATE_TYPE>  (1) 
2
5
10

$$$$
