34580
     RDKit          3D

 24 27  0  0  1  0  0  0  0  0999 V2000
    0.2728   -0.9809    1.8305 S   0  0  0  0  0  0  0  0  0  0  0  0
    1.0865    1.2091   -0.2922 N   0  0  0  0  0  0  0  0  0  0  0  0
    2.8473    3.4794    0.0299 N   0  0  0  0  0  0  0  0  0  0  0  0
   -5.8602    1.3497   -1.0617 N   0  0  0  0  0  0  0  0  0  0  0  0
    0.0558    0.4514   -0.9991 C   0  0  0  0  0  0  0  0  0  0  0  0
    2.2806    1.3727   -1.1302 C   0  0  0  0  0  0  0  0  0  0  0  0
    0.5736    2.5181    0.1307 C   0  0  0  0  0  0  0  0  0  0  0  0
    3.3609    2.1706   -0.3922 C   0  0  0  0  0  0  0  0  0  0  0  0
    1.6544    3.3148    0.8695 C   0  0  0  0  0  0  0  0  0  0  0  0
    0.5892   -0.8691   -1.5784 C   0  0  0  0  0  0  0  0  0  0  0  0
   -1.2115    0.2404   -0.1964 C   0  0  0  0  0  0  0  0  0  0  0  0
    1.0098   -2.0475   -0.7196 C   0  0  0  0  0  0  0  0  0  0  0  0
   -1.2210   -0.4191    1.0439 C   0  0  0  0  0  0  0  0  0  0  0  0
    3.8778    4.2386    0.7354 C   0  0  0  0  0  0  0  0  0  0  0  0
   -2.4329    0.6904   -0.7305 C   0  0  0  0  0  0  0  0  0  0  0  0
    0.8978   -2.1914    0.6755 C   0  0  0  0  0  0  0  0  0  0  0  0
    1.5570   -3.1283   -1.4539 C   0  0  0  0  0  0  0  0  0  0  0  0
   -2.4320   -0.6017    1.7289 C   0  0  0  0  0  0  0  0  0  0  0  0
   -3.6327    0.4987   -0.0460 C   0  0  0  0  0  0  0  0  0  0  0  0
    1.3470   -3.3843    1.2829 C   0  0  0  0  0  0  0  0  0  0  0  0
   -3.6321   -0.1477    1.1841 C   0  0  0  0  0  0  0  0  0  0  0  0
    1.9890   -4.3021   -0.8397 C   0  0  0  0  0  0  0  0  0  0  0  0
    1.8846   -4.4296    0.5345 C   0  0  0  0  0  0  0  0  0  0  0  0
   -4.8617    0.9680   -0.6057 C   0  0  0  0  0  0  0  0  0  0  0  0
  1 13  1  0
  1 16  1  0
  2  5  1  0
  2  6  1  0
  2  7  1  0
  3  8  1  0
  3  9  1  0
  3 14  1  0
  4 24  3  0
  5 10  1  0
  5 11  1  0
  6  8  1  0
  7  9  1  0
 10 12  1  0
 11 13  2  0
 11 15  1  0
 12 16  2  0
 12 17  1  0
 13 18  1  0
 15 19  2  0
 16 20  1  0
 17 22  2  0
 18 21  2  0
 19 21  1  0
 19 24  1  0
 20 23  2  0
 22 23  1  0
M  END
>  <PUBCHEM_COMPOUND_CID>  (1) 
34580

>  <PUBCHEM_CONFORMER_RMSD>  (1) 
0.6

>  <PUBCHEM_CONFORMER_DIVERSEORDER>  (1) 
1
2
4
6
5
3

>  <PUBCHEM_MMFF94_PARTIAL_CHARGES>  (1) 
31
1 -0.2
10 0.14
11 -0.14
12 -0.14
13 0.1
14 0.27
15 -0.15
16 0.1
17 -0.15
18 -0.15
19 0.07
2 -0.81
20 -0.15
21 -0.15
22 -0.15
23 -0.15
24 0.48
3 -0.81
39 0.15
4 -0.56
40 0.15
41 0.15
42 0.15
43 0.15
44 0.15
45 0.15
5 0.41
6 0.27
7 0.27
8 0.27
9 0.27

>  <PUBCHEM_EFFECTIVE_ROTOR_COUNT>  (1) 
2.8

>  <PUBCHEM_PHARMACOPHORE_FEATURES>  (1) 
7
1 2 cation
1 3 cation
1 4 acceptor
6 11 13 15 18 19 21 rings
6 12 16 17 20 22 23 rings
6 2 3 6 7 8 9 rings
7 1 5 10 11 12 13 16 rings

>  <PUBCHEM_HEAVY_ATOM_COUNT>  (1) 
24

>  <PUBCHEM_ATOM_DEF_STEREO_COUNT>  (1) 
0

>  <PUBCHEM_ATOM_UDEF_STEREO_COUNT>  (1) 
1

>  <PUBCHEM_BOND_DEF_STEREO_COUNT>  (1) 
0

>  <PUBCHEM_BOND_UDEF_STEREO_COUNT>  (1) 
0

>  <PUBCHEM_ISOTOPIC_ATOM_COUNT>  (1) 
0

>  <PUBCHEM_COMPONENT_COUNT>  (1) 
1

>  <PUBCHEM_CACTVS_TAUTO_COUNT>  (1) 
1

>  <PUBCHEM_CONFORMER_ID>  (1) 
0000871400000001

>  <PUBCHEM_MMFF94_ENERGY>  (1) 
73.7985

>  <PUBCHEM_FEATURE_SELFOVERLAP>  (1) 
35.536

>  <PUBCHEM_SHAPE_FINGERPRINT>  (1) 
10764073 3 17387663077883510704
11115154 58 17832987149044062245
11578080 2 16880467074083697228
12160290 23 17333680638772400103
12549972 3 17824000956484903041
12553582 1 17760671177989267979
12643181 29 18124892394294778476
12730499 353 18409738387291956361
12788726 201 17112430917541379086
13004483 165 17689987947573805383
13134695 92 18194124010486437431
13140716 1 18338804523521690266
13540713 4 17894921707328929075
13590594 115 17762345712934713001
13681431 1 18196372524333532419
13955234 65 18411140208429134419
15230672 131 18190752032738975780
15664445 248 17981044115974789751
17980427 26 18340756117843212292
1813 80 17912358724157130039
18915476 22 18410584989464279723
20197701 30 18196087961254132878
20369508 70 18117276952688713911
20567600 347 18190178078103187411
20600515 1 16888042623574273940
20775438 99 18261658364803607303
21033648 29 18124592239192000905
21120745 212 17547023927060923958
21304303 172 17549539605006278453
21304303 282 17551196972571445132
21731228 192 18122072158508567112
22182313 1 17676785223117683227
23419403 2 17175234128409068570
23557571 272 17687175396924939194
23558518 356 17835516394727457740
23559900 14 18265045843731430523
3298306 158 18335710455083525574
35225 105 17764302143171891426
376196 1 18115294696216482289
394222 165 18202844361739138423
404807 78 16816822217959477023
4058900 60 18338252547226327148
495365 180 18409162233918211085
5265222 85 17826259529556816924
57527295 17 18193011326404941813
5895379 119 17484807013700407217
6004065 56 18264478486989004843
633830 44 17558020408711314753
6786 2 18195815286786945658
7364860 26 18336829693290434903
7471813 234 18123468267983047071
77188 2 17978785714516158924
81228 2 17184472014646859306
9981440 41 18264483065429183809

>  <PUBCHEM_SHAPE_MULTIPOLES>  (1) 
482.82
6.86
5.99
1.6
11.34
1.08
0.24
-5.09
-1.23
-10.5
0.68
0.18
0.69
1.24

>  <PUBCHEM_SHAPE_SELFOVERLAP>  (1) 
1030.51

>  <PUBCHEM_SHAPE_VOLUME>  (1) 
266.7

>  <PUBCHEM_COORDINATE_TYPE>  (1) 
2
5
10

$$$$
