34581
     RDKit          3D

 16 18  0  0  1  0  0  0  0  0999 V2000
    0.5380    0.2644    0.4586 C   0  0  0  0  0  0  0  0  0  0  0  0
    0.0594    1.6476   -0.0071 C   0  0  0  0  0  0  0  0  0  0  0  0
   -0.3194   -0.8315   -0.1995 C   0  0  0  0  0  0  0  0  0  0  0  0
   -1.3815    1.8897    0.4428 C   0  0  0  0  0  0  0  0  0  0  0  0
   -1.8021   -0.5578   -0.1143 C   0  0  0  0  0  0  0  0  0  0  0  0
   -2.3010    0.7314    0.1476 C   0  0  0  0  0  0  0  0  0  0  0  0
    2.0171    0.0422    0.2021 C   0  0  0  0  0  0  0  0  0  0  0  0
   -2.7012   -1.6072   -0.3599 C   0  0  0  0  0  0  0  0  0  0  0  0
   -3.6884    0.9365    0.1938 C   0  0  0  0  0  0  0  0  0  0  0  0
    2.7689   -0.7224    1.0917 C   0  0  0  0  0  0  0  0  0  0  0  0
    2.6188    0.6037   -0.9221 C   0  0  0  0  0  0  0  0  0  0  0  0
   -4.0776   -1.3877   -0.3213 C   0  0  0  0  0  0  0  0  0  0  0  0
   -4.5712   -0.1168   -0.0424 C   0  0  0  0  0  0  0  0  0  0  0  0
    4.1285   -0.9264    0.8562 C   0  0  0  0  0  0  0  0  0  0  0  0
    3.9784    0.3997   -1.1577 C   0  0  0  0  0  0  0  0  0  0  0  0
    4.7333   -0.3653   -0.2685 C   0  0  0  0  0  0  0  0  0  0  0  0
  1  2  1  0
  1  3  1  0
  1  7  1  0
  2  4  1  0
  3  5  1  0
  4  6  1  0
  5  6  2  0
  5  8  1  0
  6  9  1  0
  7 10  2  0
  7 11  1  0
  8 12  2  0
  9 13  2  0
 10 14  1  0
 11 15  2  0
 12 13  1  0
 14 16  2  0
 15 16  1  0
M  END
>  <PUBCHEM_COMPOUND_CID>  (1) 
34581

>  <PUBCHEM_CONFORMER_RMSD>  (1) 
0.6

>  <PUBCHEM_CONFORMER_DIVERSEORDER>  (1) 
1
2
4
5
7
3
6

>  <PUBCHEM_MMFF94_PARTIAL_CHARGES>  (1) 
24
1 0.14
10 -0.15
11 -0.15
12 -0.15
13 -0.15
14 -0.15
15 -0.15
16 -0.15
24 0.15
25 0.15
26 0.15
27 0.15
28 0.15
29 0.15
3 0.14
30 0.15
31 0.15
32 0.15
4 0.14
5 -0.14
6 -0.14
7 -0.14
8 -0.15
9 -0.15

>  <PUBCHEM_EFFECTIVE_ROTOR_COUNT>  (1) 
1.8

>  <PUBCHEM_PHARMACOPHORE_FEATURES>  (1) 
3
6 1 2 3 4 5 6 rings
6 5 6 8 9 12 13 rings
6 7 10 11 14 15 16 rings

>  <PUBCHEM_HEAVY_ATOM_COUNT>  (1) 
16

>  <PUBCHEM_ATOM_DEF_STEREO_COUNT>  (1) 
0

>  <PUBCHEM_ATOM_UDEF_STEREO_COUNT>  (1) 
1

>  <PUBCHEM_BOND_DEF_STEREO_COUNT>  (1) 
0

>  <PUBCHEM_BOND_UDEF_STEREO_COUNT>  (1) 
0

>  <PUBCHEM_ISOTOPIC_ATOM_COUNT>  (1) 
0

>  <PUBCHEM_COMPONENT_COUNT>  (1) 
1

>  <PUBCHEM_CACTVS_TAUTO_COUNT>  (1) 
1

>  <PUBCHEM_CONFORMER_ID>  (1) 
0000871500000001

>  <PUBCHEM_MMFF94_ENERGY>  (1) 
43.7495

>  <PUBCHEM_FEATURE_SELFOVERLAP>  (1) 
15.244

>  <PUBCHEM_SHAPE_FINGERPRINT>  (1) 
10062212 137 18410009953330689887
10616163 171 18411139155640667303
11046707 91 18342174479579661785
11132069 177 18272369750354360153
11471102 20 17022624174243475566
11543360 7 16588305042056794063
11578080 2 17970318543191646236
12032990 46 18272090543299697379
12236239 1 18186803561100638220
12403814 3 17894631422931520317
12553582 1 18411132558870905491
13103583 49 17903675026619603275
13167823 11 18260267438662894762
13288520 33 18342740693703005326
13675066 3 16128656349047905393
13760787 19 18114180830760192195
13760787 5 18113338613416707653
13862211 1 18343015623545618119
14115302 16 18113623425345753966
14252887 29 16200156482564755486
14386348 63 17203612579593736590
14576447 43 18259703415389610058
15196674 1 18340768234219961177
15242433 33 18333170569911361743
15375462 189 18260546714568604633
15536298 74 18271523220748309272
16752209 62 18338785750341017243
16945 1 18272370841476727873
17804303 29 18201999954126077617
17834072 33 18186803607944527342
18186145 218 15791449331301600464
18222031 100 18059286669182350239
18915474 69 18333732442075937630
19141452 34 17275103972667854663
19422 9 18260548922134438554
19862831 5 17967249806026584330
200 152 17894348869553839344
20279233 1 16989126452427357606
20281475 54 18410007719546717394
20645477 70 15792006736974469754
21029758 27 18334300898509813229
21267235 1 18411144653620364107
22646028 1 18260827094471157146
22646028 28 18335136488307050058
22854114 59 15913326896747793758
2297311 6 18131361799339678036
23048698 100 17675926486707563584
23175994 123 16558752321343945233
23366157 5 18046339996579573865
23402539 116 18412820274532651950
23402655 69 17894630314508139572
23463225 33 18408601431258293363
23557571 272 17917153801834885096
23559900 14 18059580157361916396
465052 167 18268718388646407495
474 4 17532663540798575028
4921388 177 15719683155453625539
5104073 3 18342459291751295545
559249 180 18190172395634530202
57096353 35 18114189652733560886
573450 72 18409724024013775666
67856867 119 18261953067967956988
7364860 26 17985545799719776544
77492 1 18114185207395059840
9709674 26 18411145714345735766

>  <PUBCHEM_SHAPE_MULTIPOLES>  (1) 
329.27
9.56
1.57
0.93
2.06
0.25
-0.02
-2.36
-0.73
-1.1
0.05
0.82
-0.03
-0.87

>  <PUBCHEM_SHAPE_SELFOVERLAP>  (1) 
716.383

>  <PUBCHEM_SHAPE_VOLUME>  (1) 
169.3

>  <PUBCHEM_COORDINATE_TYPE>  (1) 
2
5
10

$$$$
