34611
     RDKit          3D

 22 24  0  0  0  0  0  0  0  0999 V2000
    1.4686    3.0228   -0.4160 O   0  0  0  0  0  0  0  0  0  0  0  0
    3.4671   -2.0383    0.0510 O   0  0  0  0  0  0  0  0  0  0  0  0
   -1.3708    1.0736    2.3039 O   0  0  0  0  0  0  0  0  0  0  0  0
    0.8975   -2.7768    0.1491 N   0  0  0  0  0  0  0  0  0  0  0  0
    1.2245    0.8623    0.1978 C   0  0  0  0  0  0  0  0  0  0  0  0
    1.6839   -0.4585    0.3424 C   0  0  0  0  0  0  0  0  0  0  0  0
    0.8295   -1.5402    0.9257 C   0  0  0  0  0  0  0  0  0  0  0  0
    2.0824    1.8076   -0.3549 C   0  0  0  0  0  0  0  0  0  0  0  0
    0.0199    1.5563    0.4863 C   0  0  0  0  0  0  0  0  0  0  0  0
    2.9858   -0.7671   -0.0756 C   0  0  0  0  0  0  0  0  0  0  0  0
    3.3807    1.5311   -0.7794 C   0  0  0  0  0  0  0  0  0  0  0  0
    0.2204    2.8601    0.0957 C   0  0  0  0  0  0  0  0  0  0  0  0
    3.8171    0.2119   -0.6261 C   0  0  0  0  0  0  0  0  0  0  0  0
   -1.1941    1.0607    1.0659 C   0  0  0  0  0  0  0  0  0  0  0  0
    0.0975   -3.8243    0.7834 C   0  0  0  0  0  0  0  0  0  0  0  0
    0.4421   -2.5460   -1.2216 C   0  0  0  0  0  0  0  0  0  0  0  0
   -2.3257    0.4990    0.2475 C   0  0  0  0  0  0  0  0  0  0  0  0
   -2.1817    0.4619   -1.1145 C   0  0  0  0  0  0  0  0  0  0  0  0
   -3.4411    0.0534    0.9065 C   0  0  0  0  0  0  0  0  0  0  0  0
   -3.2302   -0.0588   -1.8731 C   0  0  0  0  0  0  0  0  0  0  0  0
   -4.4895   -0.4674    0.1479 C   0  0  0  0  0  0  0  0  0  0  0  0
   -4.3839   -0.5234   -1.2419 C   0  0  0  0  0  0  0  0  0  0  0  0
  1  8  1  0
  1 12  1  0
  2 10  1  0
  3 14  2  0
  4  7  1  0
  4 15  1  0
  4 16  1  0
  5  6  1  0
  5  8  2  0
  5  9  1  0
  6  7  1  0
  6 10  2  0
  8 11  1  0
  9 12  2  0
  9 14  1  0
 10 13  1  0
 11 13  2  0
 14 17  1  0
 17 18  2  0
 17 19  1  0
 18 20  1  0
 19 21  2  0
 20 22  2  0
 21 22  1  0
M  END
>  <PUBCHEM_COMPOUND_CID>  (1) 
34611

>  <PUBCHEM_CONFORMER_RMSD>  (1) 
0.6

>  <PUBCHEM_CONFORMER_DIVERSEORDER>  (1) 
3
5
4
6
2
1

>  <PUBCHEM_MMFF94_PARTIAL_CHARGES>  (1) 
30
1 -0.28
10 0.08
11 -0.15
12 -0.01
13 -0.15
14 0.57
15 0.27
16 0.27
17 0.09
18 -0.15
19 -0.15
2 -0.53
20 -0.15
21 -0.15
22 -0.15
25 0.15
26 0.15
27 0.15
3 -0.57
34 0.45
35 0.15
36 0.15
37 0.15
38 0.15
39 0.15
4 -0.81
6 -0.14
7 0.41
8 0.14
9 -0.09

>  <PUBCHEM_EFFECTIVE_ROTOR_COUNT>  (1) 
4

>  <PUBCHEM_PHARMACOPHORE_FEATURES>  (1) 
7
1 1 acceptor
1 2 donor
1 3 acceptor
1 4 cation
5 1 5 8 9 12 rings
6 17 18 19 20 21 22 rings
6 5 6 8 10 11 13 rings

>  <PUBCHEM_HEAVY_ATOM_COUNT>  (1) 
22

>  <PUBCHEM_ATOM_DEF_STEREO_COUNT>  (1) 
0

>  <PUBCHEM_ATOM_UDEF_STEREO_COUNT>  (1) 
0

>  <PUBCHEM_BOND_DEF_STEREO_COUNT>  (1) 
0

>  <PUBCHEM_BOND_UDEF_STEREO_COUNT>  (1) 
0

>  <PUBCHEM_ISOTOPIC_ATOM_COUNT>  (1) 
0

>  <PUBCHEM_COMPONENT_COUNT>  (1) 
1

>  <PUBCHEM_CACTVS_TAUTO_COUNT>  (1) 
3

>  <PUBCHEM_CONFORMER_ID>  (1) 
0000873300000003

>  <PUBCHEM_MMFF94_ENERGY>  (1) 
69.075

>  <PUBCHEM_FEATURE_SELFOVERLAP>  (1) 
35.622

>  <PUBCHEM_SHAPE_FINGERPRINT>  (1) 
10064457 181 18193563495911146591
10967382 1 18409738378263925194
11578080 2 12038236883505190623
12156800 1 9061028973600678047
12236239 1 17917720118868632129
12553582 1 18265335006150780067
12596599 1 17773049552602706990
13083527 12 17972577915195684946
13149001 5 18123483927486679124
13583140 156 16878231965035422904
13911987 19 18187379756701838364
14178342 30 18052532167405517792
14787075 74 17559663122286080256
16752209 62 17346593033505930929
16945 1 18337948003816356033
17492 54 18335706078332496444
20645477 70 18334570261657409773
21634736 98 18128811030920574022
22182313 1 17623307369650038252
23566358 2 17836103529784374844
238 59 18117529981949161599
2748010 2 17834129910865914800
3060560 45 18262226832697350965
3323516 105 18260545671308360649
4409770 3 15605923593371998737
46194498 28 17822007653461988741
77492 1 17989215858127633809
81228 2 17183884888459588225
8272917 22 18411989040217322893

>  <PUBCHEM_SHAPE_MULTIPOLES>  (1) 
430.16
6.81
3.45
1.4
4.09
2.11
0.05
0.08
-2.13
-2.29
0.35
1.12
-0.01
-0.57

>  <PUBCHEM_SHAPE_SELFOVERLAP>  (1) 
948.54

>  <PUBCHEM_SHAPE_VOLUME>  (1) 
234.2

>  <PUBCHEM_COORDINATE_TYPE>  (1) 
2
5
10

$$$$
