34619
     RDKit          3D

 26 28  0  0  0  0  0  0  0  0999 V2000
   -2.2358   -2.8903   -0.8818 O   0  0  0  0  0  0  0  0  0  0  0  0
   -3.9988    2.2256   -0.1432 O   0  0  0  0  0  0  0  0  0  0  0  0
    0.0239   -1.5432    2.6733 O   0  0  0  0  0  0  0  0  0  0  0  0
    2.9355    0.1223   -2.1954 O   0  0  0  0  0  0  0  0  0  0  0  0
    4.9729    0.6988   -0.3964 O   0  0  0  0  0  0  0  0  0  0  0  0
   -1.4906    2.7118    0.6480 N   0  0  0  0  0  0  0  0  0  0  0  0
   -2.0241   -0.8588    0.0834 C   0  0  0  0  0  0  0  0  0  0  0  0
   -2.4297    0.4677    0.3124 C   0  0  0  0  0  0  0  0  0  0  0  0
   -1.6796    1.3835    1.2285 C   0  0  0  0  0  0  0  0  0  0  0  0
   -0.9641   -1.6894    0.5334 C   0  0  0  0  0  0  0  0  0  0  0  0
   -2.7774   -1.6436   -0.7837 C   0  0  0  0  0  0  0  0  0  0  0  0
   -3.5751    0.9429   -0.3409 C   0  0  0  0  0  0  0  0  0  0  0  0
   -3.9199   -1.1996   -1.4470 C   0  0  0  0  0  0  0  0  0  0  0  0
   -1.1389   -2.9079   -0.0805 C   0  0  0  0  0  0  0  0  0  0  0  0
    0.1029   -1.3838    1.4408 C   0  0  0  0  0  0  0  0  0  0  0  0
   -4.3054    0.1221   -1.2040 C   0  0  0  0  0  0  0  0  0  0  0  0
    1.4009   -0.8279    0.9476 C   0  0  0  0  0  0  0  0  0  0  0  0
   -0.7350    2.6215   -0.6010 C   0  0  0  0  0  0  0  0  0  0  0  0
   -0.8074    3.5919    1.5956 C   0  0  0  0  0  0  0  0  0  0  0  0
    1.5530   -0.6147   -0.4019 C   0  0  0  0  0  0  0  0  0  0  0  0
    2.3880   -0.5541    1.8644 C   0  0  0  0  0  0  0  0  0  0  0  0
    2.7637   -0.0969   -0.8619 C   0  0  0  0  0  0  0  0  0  0  0  0
    3.7867    0.1921    0.0412 C   0  0  0  0  0  0  0  0  0  0  0  0
    3.5988   -0.0366    1.4043 C   0  0  0  0  0  0  0  0  0  0  0  0
    2.5645    1.4058   -2.6944 C   0  0  0  0  0  0  0  0  0  0  0  0
    5.9908   -0.2392   -0.7408 C   0  0  0  0  0  0  0  0  0  0  0  0
  1 11  1  0
  1 14  1  0
  2 12  1  0
  3 15  2  0
  4 22  1  0
  4 25  1  0
  5 23  1  0
  5 26  1  0
  6  9  1  0
  6 18  1  0
  6 19  1  0
  7  8  1  0
  7 10  1  0
  7 11  2  0
  8  9  1  0
  8 12  2  0
 10 14  2  0
 10 15  1  0
 11 13  1  0
 12 16  1  0
 13 16  2  0
 15 17  1  0
 17 20  2  0
 17 21  1  0
 20 22  1  0
 21 24  2  0
 22 23  2  0
 23 24  1  0
M  END
>  <PUBCHEM_COMPOUND_CID>  (1) 
34619

>  <PUBCHEM_CONFORMER_RMSD>  (1) 
0.8

>  <PUBCHEM_CONFORMER_DIVERSEORDER>  (1) 
1
38
29
21
46
30
20
34
36
9
26
37
43
41
39
2
25
44
16
31
32
6
13
11
17
22
5
27
10
40
8
18
4
23
35
7
3
33
12
19
14
24
15
42
28
45

>  <PUBCHEM_MMFF94_PARTIAL_CHARGES>  (1) 
32
1 -0.28
10 -0.09
11 0.14
12 0.08
13 -0.15
14 -0.01
15 0.57
16 -0.15
17 0.09
18 0.27
19 0.27
2 -0.53
20 -0.15
21 -0.15
22 0.08
23 0.08
24 -0.15
25 0.28
26 0.28
29 0.15
3 -0.57
30 0.15
31 0.15
38 0.15
39 0.15
4 -0.36
40 0.45
41 0.15
5 -0.36
6 -0.81
8 -0.14
9 0.41

>  <PUBCHEM_EFFECTIVE_ROTOR_COUNT>  (1) 
6

>  <PUBCHEM_PHARMACOPHORE_FEATURES>  (1) 
9
1 1 acceptor
1 2 donor
1 3 acceptor
1 4 acceptor
1 5 acceptor
1 6 cation
5 1 7 10 11 14 rings
6 17 20 21 22 23 24 rings
6 7 8 11 12 13 16 rings

>  <PUBCHEM_HEAVY_ATOM_COUNT>  (1) 
26

>  <PUBCHEM_ATOM_DEF_STEREO_COUNT>  (1) 
0

>  <PUBCHEM_ATOM_UDEF_STEREO_COUNT>  (1) 
0

>  <PUBCHEM_BOND_DEF_STEREO_COUNT>  (1) 
0

>  <PUBCHEM_BOND_UDEF_STEREO_COUNT>  (1) 
0

>  <PUBCHEM_ISOTOPIC_ATOM_COUNT>  (1) 
0

>  <PUBCHEM_COMPONENT_COUNT>  (1) 
1

>  <PUBCHEM_CACTVS_TAUTO_COUNT>  (1) 
3

>  <PUBCHEM_CONFORMER_ID>  (1) 
0000873B00000001

>  <PUBCHEM_MMFF94_ENERGY>  (1) 
100.5091

>  <PUBCHEM_FEATURE_SELFOVERLAP>  (1) 
45.778

>  <PUBCHEM_SHAPE_FINGERPRINT>  (1) 
10498660 4 18271232829719886601
10871710 139 18262518087610357269
11640471 11 17967816032971584614
12156800 1 15366066922758111756
12166972 35 17968651726401931246
12236239 1 18040425590589818311
12788726 201 18270957938844008729
13009979 54 18116130230421978234
13149001 5 18123730205470026039
13583140 156 16081092592885297577
13947920 75 18408321082317128404
13994607 96 17895207609414790347
14739800 52 18193814150667343896
14790565 3 18057041299199419617
14955137 171 18271255984405271579
15183329 4 18187931630594342982
15420108 30 17326317837068010496
15475509 8 17775008969151164581
17492 54 18261657213334718229
17818456 19 18195509421092264858
192875 21 17676478407042920720
20600515 1 18198317693652926393
20715895 44 17177683690678135789
20775438 99 16832030692226305071
20905425 154 17547836912566445041
21475661 188 14852708225404913151
21756936 100 17967259701868754498
23402539 116 18342453746785063350
23557571 272 18131633408554872614
23559900 14 18131626777747963882
350125 39 17694498148829017555
465052 167 12030929443986859157
474 4 17458338641502930746
484985 159 14760169941849580653
70251023 43 17761775465394135707

>  <PUBCHEM_SHAPE_MULTIPOLES>  (1) 
500.74
8.76
3.12
2.06
7.63
1.54
-0.12
0.51
-3.94
-3.11
0.68
1.28
0.22
-1.31

>  <PUBCHEM_SHAPE_SELFOVERLAP>  (1) 
1092.803

>  <PUBCHEM_SHAPE_VOLUME>  (1) 
276.1

>  <PUBCHEM_COORDINATE_TYPE>  (1) 
2
5
10

$$$$
