34623
     RDKit          3D

 22 24  0  0  1  0  0  0  0  0999 V2000
   -0.1849    2.6847   -0.6754 O   0  0  0  0  0  0  0  0  0  0  0  0
   -1.0994   -1.5845   -1.5340 O   0  0  0  0  0  0  0  0  0  0  0  0
    4.2746    0.0136    0.9999 O   0  0  0  0  0  0  0  0  0  0  0  0
    3.0730   -2.0929    0.0161 N   0  0  0  0  0  0  0  0  0  0  0  0
    0.8428    0.7706   -0.0558 C   0  0  0  0  0  0  0  0  0  0  0  0
   -0.5120    0.4802   -0.3664 C   0  0  0  0  0  0  0  0  0  0  0  0
    1.9570    0.0301    0.3757 C   0  0  0  0  0  0  0  0  0  0  0  0
   -1.1860   -0.8307   -0.3116 C   0  0  0  0  0  0  0  0  0  0  0  0
    0.9929    2.1382   -0.2613 C   0  0  0  0  0  0  0  0  0  0  0  0
    1.8878   -1.4449    0.6215 C   0  0  0  0  0  0  0  0  0  0  0  0
    3.1709    0.7000    0.5815 C   0  0  0  0  0  0  0  0  0  0  0  0
   -1.0894    1.6729   -0.7357 C   0  0  0  0  0  0  0  0  0  0  0  0
   -2.6462   -0.5761    0.0428 C   0  0  0  0  0  0  0  0  0  0  0  0
    2.1857    2.8317   -0.0651 C   0  0  0  0  0  0  0  0  0  0  0  0
    3.2805    2.0758    0.3647 C   0  0  0  0  0  0  0  0  0  0  0  0
   -2.9974   -0.4592    1.3713 C   0  0  0  0  0  0  0  0  0  0  0  0
   -3.5693   -0.4704   -0.9762 C   0  0  0  0  0  0  0  0  0  0  0  0
    3.0951   -1.8396   -1.4179 C   0  0  0  0  0  0  0  0  0  0  0  0
    3.0516   -3.5217    0.2971 C   0  0  0  0  0  0  0  0  0  0  0  0
   -4.3337   -0.2261    1.6958 C   0  0  0  0  0  0  0  0  0  0  0  0
   -4.9057   -0.2370   -0.6515 C   0  0  0  0  0  0  0  0  0  0  0  0
   -5.2878   -0.1148    0.6845 C   0  0  0  0  0  0  0  0  0  0  0  0
  1  9  1  0
  1 12  1  0
  2  8  1  0
  3 11  1  0
  4 10  1  0
  4 18  1  0
  4 19  1  0
  5  6  1  0
  5  7  1  0
  5  9  2  0
  6  8  1  0
  6 12  2  0
  7 10  1  0
  7 11  2  0
  8 13  1  0
  9 14  1  0
 11 15  1  0
 13 16  2  0
 13 17  1  0
 14 15  2  0
 16 20  1  0
 17 21  2  0
 20 22  2  0
 21 22  1  0
M  END
>  <PUBCHEM_COMPOUND_CID>  (1) 
34623

>  <PUBCHEM_CONFORMER_RMSD>  (1) 
0.6

>  <PUBCHEM_CONFORMER_DIVERSEORDER>  (1) 
3
1
15
13
4
17
16
11
5
8
2
18
7
19
6
12
14
20
9
10

>  <PUBCHEM_MMFF94_PARTIAL_CHARGES>  (1) 
31
1 -0.28
10 0.41
11 0.08
12 -0.01
13 -0.14
14 -0.15
15 -0.15
16 -0.15
17 -0.15
18 0.27
19 0.27
2 -0.68
20 -0.15
21 -0.15
22 -0.15
26 0.15
27 0.15
28 0.15
29 0.15
3 -0.53
30 0.15
37 0.4
38 0.45
39 0.15
4 -0.81
40 0.15
41 0.15
6 -0.18
7 -0.14
8 0.6
9 0.14

>  <PUBCHEM_EFFECTIVE_ROTOR_COUNT>  (1) 
4

>  <PUBCHEM_PHARMACOPHORE_FEATURES>  (1) 
8
1 1 acceptor
1 2 acceptor
1 2 donor
1 3 donor
1 4 cation
5 1 5 6 9 12 rings
6 13 16 17 20 21 22 rings
6 5 7 9 11 14 15 rings

>  <PUBCHEM_HEAVY_ATOM_COUNT>  (1) 
22

>  <PUBCHEM_ATOM_DEF_STEREO_COUNT>  (1) 
0

>  <PUBCHEM_ATOM_UDEF_STEREO_COUNT>  (1) 
1

>  <PUBCHEM_BOND_DEF_STEREO_COUNT>  (1) 
0

>  <PUBCHEM_BOND_UDEF_STEREO_COUNT>  (1) 
0

>  <PUBCHEM_ISOTOPIC_ATOM_COUNT>  (1) 
0

>  <PUBCHEM_COMPONENT_COUNT>  (1) 
1

>  <PUBCHEM_CACTVS_TAUTO_COUNT>  (1) 
3

>  <PUBCHEM_CONFORMER_ID>  (1) 
0000873F00000003

>  <PUBCHEM_MMFF94_ENERGY>  (1) 
65.705

>  <PUBCHEM_FEATURE_SELFOVERLAP>  (1) 
40.698

>  <PUBCHEM_SHAPE_FINGERPRINT>  (1) 
10369192 42 16591983024511275324
10382601 240 18341612646449853042
10906281 52 18260839240945034760
11140007 195 16701190659629876014
114674 6 18260267417304551714
11578080 2 17557669613152507281
11640471 11 17773890864045500785
11680986 33 18265602187598083972
12107183 9 17983023250079267641
12236239 1 17989205988672134311
12422481 6 18125178056437023185
12553582 1 18339642222623428726
12596602 18 17203040897787186355
12633257 1 18261943146081566874
12670546 56 17489587865897280105
12892183 10 18339654437884406553
13140716 1 18123463041123853320
13533116 47 18272090526505132267
13583140 156 17987237927298794931
13675066 3 18040996280517178341
14178342 30 17982998248520885442
14251739 40 18342454872451714255
14252887 29 18335138695724925200
14386348 63 17749389282428386363
14739800 52 16773502369765838106
14790565 3 17831022686384461284
15142526 21 16984318455820656712
15375358 24 17968368052512780193
15475509 84 17987522498235556193
15635459 17 18261107478331086898
15664445 248 18043271174196533116
15848702 151 18412545392800459747
16945 1 18339353162855318364
17349148 13 17561082510514549751
17492 89 18340208604667377367
17818456 19 17559125276495410953
1813 80 18199481964755374070
20157964 124 18411132568067397679
20511986 3 17774424080003732617
20645477 70 18334847359735359415
20739085 24 18270412602297695287
20871998 22 18336546027801366444
21279426 13 17972024856847156989
21421861 104 18261946363112077538
22182313 1 18265038168239796364
23184049 59 18342179960000330943
23557571 272 16878209888370505476
23559900 14 17603874372826794743
2748010 2 18195230132242955132
341906 21 15985111795033362025
3421961 26 18410012100519075370
345986 75 18059010558129344923
460360 51 18264494996495053229
474 4 18267864071857511944
5326457 24 18200018673207800791
602551 16 15575274419190168937
7364860 26 18341612646349574420
8272917 22 18411140272442245581
9709674 26 18333444335775067541

>  <PUBCHEM_SHAPE_MULTIPOLES>  (1) 
430.16
9.07
3.03
1.23
8.46
0.32
0.04
2.42
2.07
-4.56
-0.38
0.73
0.32
0.31

>  <PUBCHEM_SHAPE_SELFOVERLAP>  (1) 
944.034

>  <PUBCHEM_SHAPE_VOLUME>  (1) 
235.2

>  <PUBCHEM_COORDINATE_TYPE>  (1) 
2
5
10

$$$$
