34626
     RDKit          3D

 24 26  0  0  1  0  0  0  0  0999 V2000
    0.0713   -0.6393   -0.2398 O   0  0  0  0  0  0  0  0  0  0  0  0
   -3.5712   -0.1105    0.0446 N   0  0  0  0  0  0  0  0  0  0  0  0
    2.4368   -0.6558   -0.6493 C   0  0  0  0  0  0  0  0  0  0  0  0
    2.7998   -0.8739    0.8437 C   0  0  0  0  0  0  0  0  0  0  0  0
    2.8929   -2.9457    0.0110 C   0  0  0  0  0  0  0  0  0  0  0  0
    2.4475   -2.1115   -1.2117 C   0  0  0  0  0  0  0  0  0  0  0  0
    3.8555   -1.9790    0.7080 C   0  0  0  0  0  0  0  0  0  0  0  0
    1.1290    0.0820   -0.8949 C   0  0  0  0  0  0  0  0  0  0  0  0
    1.7156   -1.6785    1.5226 C   0  0  0  0  0  0  0  0  0  0  0  0
    1.7684   -2.9202    1.0186 C   0  0  0  0  0  0  0  0  0  0  0  0
    0.7733    0.0704   -2.3931 C   0  0  0  0  0  0  0  0  0  0  0  0
    1.2042    1.4907   -0.3021 C   0  0  0  0  0  0  0  0  0  0  0  0
   -1.1727    0.0090   -0.4260 C   0  0  0  0  0  0  0  0  0  0  0  0
   -2.2639   -0.7754    0.2755 C   0  0  0  0  0  0  0  0  0  0  0  0
    1.6691    2.5149   -1.0947 C   0  0  0  0  0  0  0  0  0  0  0  0
    0.8037    1.6796    1.0007 C   0  0  0  0  0  0  0  0  0  0  0  0
   -3.8766   -0.0171   -1.4565 C   0  0  0  0  0  0  0  0  0  0  0  0
   -4.7071   -0.8948    0.7152 C   0  0  0  0  0  0  0  0  0  0  0  0
   -3.5680    1.3120    0.6208 C   0  0  0  0  0  0  0  0  0  0  0  0
    1.7376    3.7991   -0.5547 C   0  0  0  0  0  0  0  0  0  0  0  0
    0.8720    2.9640    1.5407 C   0  0  0  0  0  0  0  0  0  0  0  0
   -3.8858   -1.4086   -2.0506 C   0  0  0  0  0  0  0  0  0  0  0  0
   -4.4704   -0.9352    2.2091 C   0  0  0  0  0  0  0  0  0  0  0  0
    1.3390    4.0237    0.7629 C   0  0  0  0  0  0  0  0  0  0  0  0
  1  8  1  0
  1 13  1  0
  2 14  1  0
  2 17  1  0
  2 18  1  0
  2 19  1  0
  3  4  1  0
  3  6  1  0
  3  8  1  0
  4  7  1  0
  4  9  1  0
  5  6  1  0
  5  7  1  0
  5 10  1  0
  8 11  1  0
  8 12  1  0
  9 10  2  0
 12 15  2  0
 12 16  1  0
 13 14  1  0
 15 20  1  0
 16 21  2  0
 17 22  1  0
 18 23  1  0
 20 24  2  0
 21 24  1  0
M  CHG  1   2   1
M  END
>  <PUBCHEM_COMPOUND_CID>  (1) 
34626

>  <PUBCHEM_CONFORMER_RMSD>  (1) 
0.8

>  <PUBCHEM_CONFORMER_DIVERSEORDER>  (1) 
6
58
42
64
45
37
67
63
52
60
11
53
54
35
73
59
56
68
1
62
48
75
12
43
72
71
38
65
44
9
33
57
49
66
3
39
30
55
47
74
2
23
40
7
61
70
32
17
51
24
28
5
50
21
4
20
13
41
46
36
29
10
69
15
19
26
31
16
27
8
14
34
22
18
25

>  <PUBCHEM_MMFF94_PARTIAL_CHARGES>  (1) 
25
1 -0.56
10 -0.29
12 -0.14
13 0.28
14 0.5
15 -0.15
16 -0.15
17 0.5
18 0.5
19 0.5
2 -1.01
20 -0.15
21 -0.15
24 -0.15
32 0.15
33 0.15
4 0.14
41 0.15
42 0.15
5 0.14
50 0.15
51 0.15
58 0.15
8 0.42
9 -0.29

>  <PUBCHEM_EFFECTIVE_ROTOR_COUNT>  (1) 
8.6

>  <PUBCHEM_PHARMACOPHORE_FEATURES>  (1) 
4
1 1 acceptor
1 2 cation
6 12 15 16 20 21 24 rings
7 3 4 5 6 7 9 10 rings

>  <PUBCHEM_HEAVY_ATOM_COUNT>  (1) 
24

>  <PUBCHEM_ATOM_DEF_STEREO_COUNT>  (1) 
0

>  <PUBCHEM_ATOM_UDEF_STEREO_COUNT>  (1) 
4

>  <PUBCHEM_BOND_DEF_STEREO_COUNT>  (1) 
0

>  <PUBCHEM_BOND_UDEF_STEREO_COUNT>  (1) 
0

>  <PUBCHEM_ISOTOPIC_ATOM_COUNT>  (1) 
0

>  <PUBCHEM_COMPONENT_COUNT>  (1) 
1

>  <PUBCHEM_CACTVS_TAUTO_COUNT>  (1) 
1

>  <PUBCHEM_CONFORMER_ID>  (1) 
0000874200000006

>  <PUBCHEM_MMFF94_ENERGY>  (1) 
122.0574

>  <PUBCHEM_FEATURE_SELFOVERLAP>  (1) 
20.297

>  <PUBCHEM_SHAPE_FINGERPRINT>  (1) 
10165383 225 17683272473995479861
1100329 8 18266742574977696456
11578080 2 17823122459057193564
12160290 23 17475513876432945300
12422481 6 10924049889909015292
12506688 2 18115305562214501050
12549972 3 17968088721220895265
12553582 1 18340773641315073591
12707595 3 18335140860626286695
12788726 201 17615955626140438544
13004483 165 17905879288822073667
13134695 92 18337662040535069639
13140716 1 18050849119729455336
133893 2 18196069231070664429
13533116 47 18336554914948707739
13544653 18 18189890925005651270
13583140 156 18335704962136890911
13681431 1 18411133623964909092
14251757 17 14563679594693772377
14787075 74 18408317788029901962
14866123 147 16678658140261869563
14955137 171 18340783580091026854
15238133 3 18048054977690480889
15842332 3 17845937450356510239
17349148 13 17203030925511324687
17868525 174 18337114454344960441
17980427 23 17489291002063219245
1813 80 18200320909286039670
19078846 21 18198359380974571489
20600515 1 18130509613234746070
21033648 29 17129852825845277931
21120745 212 17979376174431554036
21304303 282 12566999592913913104
21421861 104 18270136668013867921
21524375 3 17696750330399433132
22112679 90 18053123738794152248
2255824 54 18339641255943823270
23419403 2 17827036755070016940
23558518 356 17404577166196659836
23559900 14 17530968016632556935
238 59 18265616674395802635
25222932 49 17480288407589238999
312423 11 18058733632272138327
35225 105 16896214704686702032
5895379 119 17130172843700565657
6049 1 17748826332754468365
6442390 28 17616551982476153921
6786 2 17615708644341805952
7097593 13 18342173362856821719
7364860 26 18410293657094616808
7471813 234 18129080312838721509
7615 1 17846776360522117463
81228 2 17835244441577275104
8509985 295 18267028254564262425
9981440 41 17834941345888405273

>  <PUBCHEM_SHAPE_MULTIPOLES>  (1) 
483.06
7.53
4.3
1.93
11.06
3.93
0.34
-4.71
-1.07
-5.03
-0.99
1.08
-0.29
-0.46

>  <PUBCHEM_SHAPE_SELFOVERLAP>  (1) 
1021.998

>  <PUBCHEM_SHAPE_VOLUME>  (1) 
276.6

>  <PUBCHEM_COORDINATE_TYPE>  (1) 
2
5
10

$$$$
