34630
     RDKit          3D

 22 23  0  0  1  0  0  0  0  0999 V2000
    0.8495    0.2721    0.1414 O   0  0  0  0  0  0  0  0  0  0  0  0
    1.9714   -2.0401    1.4445 O   0  0  0  0  0  0  0  0  0  0  0  0
   -3.2359   -1.4098    0.0481 O   0  0  0  0  0  0  0  0  0  0  0  0
   -1.1104    2.7677    0.5555 O   0  0  0  0  0  0  0  0  0  0  0  0
   -2.3638   -0.4754   -1.8679 O   0  0  0  0  0  0  0  0  0  0  0  0
   -1.1534    1.9036   -1.5788 O   0  0  0  0  0  0  0  0  0  0  0  0
    0.0515   -0.6856    0.8509 C   0  0  0  0  0  0  0  0  0  0  0  0
   -1.1745    0.0390    1.3865 C   0  0  0  0  0  0  0  0  0  0  0  0
   -2.0757    0.6309    0.2903 C   0  0  0  0  0  0  0  0  0  0  0  0
    0.8692   -1.3001    1.9792 C   0  0  0  0  0  0  0  0  0  0  0  0
    2.0988   -0.2100   -0.1476 C   0  0  0  0  0  0  0  0  0  0  0  0
    2.6382   -1.3371    0.4761 C   0  0  0  0  0  0  0  0  0  0  0  0
   -2.5557   -0.4576   -0.6596 C   0  0  0  0  0  0  0  0  0  0  0  0
   -1.3987    1.8162   -0.3833 C   0  0  0  0  0  0  0  0  0  0  0  0
    2.8426    0.4835   -1.1028 C   0  0  0  0  0  0  0  0  0  0  0  0
    3.9040   -1.7978    0.1132 C   0  0  0  0  0  0  0  0  0  0  0  0
    4.1140    0.0303   -1.4551 C   0  0  0  0  0  0  0  0  0  0  0  0
    4.6417   -1.1118   -0.8520 C   0  0  0  0  0  0  0  0  0  0  0  0
   -3.7509   -2.5011   -0.7215 C   0  0  0  0  0  0  0  0  0  0  0  0
   -0.4696    3.9486    0.0622 C   0  0  0  0  0  0  0  0  0  0  0  0
   -4.4711   -3.4596    0.2029 C   0  0  0  0  0  0  0  0  0  0  0  0
   -0.2210    4.8942    1.2180 C   0  0  0  0  0  0  0  0  0  0  0  0
  1  7  1  0
  1 11  1  0
  2 10  1  0
  2 12  1  0
  3 13  1  0
  3 19  1  0
  4 14  1  0
  4 20  1  0
  5 13  2  0
  6 14  2  0
  7  8  1  0
  7 10  1  0
  8  9  1  0
  9 13  1  0
  9 14  1  0
 11 12  2  0
 11 15  1  0
 12 16  1  0
 15 17  2  0
 16 18  2  0
 17 18  1  0
 19 21  1  0
 20 22  1  0
M  END
>  <PUBCHEM_COMPOUND_CID>  (1) 
34630

>  <PUBCHEM_CONFORMER_RMSD>  (1) 
0.8

>  <PUBCHEM_CONFORMER_DIVERSEORDER>  (1) 
1
138
127
98
89
77
21
88
71
60
78
24
133
30
66
49
18
75
124
65
94
148
102
29
37
120
67
150
80
74
134
41
48
111
70
145
114
14
149
22
81
17
32
7
115
112
69
140
73
63
141
79
107
97
28
6
50
132
101
33
72
105
146
13
34
3
61
151
10
128
76
5
46
144
4
117
93
62
9
113
82
19
103
99
40
56
135
108
125
23
83
53
43
136
131
87
27
15
8
12
126
51
64
139
85
26
123
104
45
58
42
130
57
59
116
39
121
52
47
84
143
110
20
25
147
142
95
11
86
44
118
137
91
38
2
109
122
106
90
31
68
119
35
36
16
100
129
96
55
92
54

>  <PUBCHEM_MMFF94_PARTIAL_CHARGES>  (1) 
23
1 -0.36
10 0.28
11 0.08
12 0.08
13 0.66
14 0.66
15 -0.15
16 -0.15
17 -0.15
18 -0.15
19 0.28
2 -0.36
20 0.28
29 0.15
3 -0.43
30 0.15
31 0.15
32 0.15
4 -0.43
5 -0.57
6 -0.57
7 0.28
9 0.12

>  <PUBCHEM_EFFECTIVE_ROTOR_COUNT>  (1) 
8.8

>  <PUBCHEM_PHARMACOPHORE_FEATURES>  (1) 
7
1 1 acceptor
1 2 acceptor
1 5 acceptor
1 6 acceptor
1 9 anion
6 1 2 7 10 11 12 rings
6 11 12 15 16 17 18 rings

>  <PUBCHEM_HEAVY_ATOM_COUNT>  (1) 
22

>  <PUBCHEM_ATOM_DEF_STEREO_COUNT>  (1) 
0

>  <PUBCHEM_ATOM_UDEF_STEREO_COUNT>  (1) 
1

>  <PUBCHEM_BOND_DEF_STEREO_COUNT>  (1) 
0

>  <PUBCHEM_BOND_UDEF_STEREO_COUNT>  (1) 
0

>  <PUBCHEM_ISOTOPIC_ATOM_COUNT>  (1) 
0

>  <PUBCHEM_COMPONENT_COUNT>  (1) 
1

>  <PUBCHEM_CACTVS_TAUTO_COUNT>  (1) 
1

>  <PUBCHEM_CONFORMER_ID>  (1) 
0000874600000001

>  <PUBCHEM_MMFF94_ENERGY>  (1) 
46.8572

>  <PUBCHEM_FEATURE_SELFOVERLAP>  (1) 
35.571

>  <PUBCHEM_SHAPE_FINGERPRINT>  (1) 
11045515 52 18260551151518085509
12173636 292 17836637527025864153
12403260 363 18259703402863170400
12553582 1 18410285935150094339
12714826 92 17774719775126608390
12788726 201 18265607681087582737
13009979 54 17971169466333093498
13583140 156 17343474762732075882
14251757 5 18335412440583351639
14713325 29 18128548067559000630
14787075 74 18118408586107878084
15664445 248 18199765789158011663
17349148 13 17748816398537655298
1813 80 17987529263219990159
200 152 18114184146137568374
20388580 30 18055072318533597159
21524375 3 17614571332443549192
22950370 63 18339088193554444891
23419403 2 17321291311997124643
23557571 272 18198598000472164840
5385378 56 8573342442336947823
621550 5 17846786221292418602
6786 2 17193220876225300369
7615 1 17824253809514436930

>  <PUBCHEM_SHAPE_MULTIPOLES>  (1) 
417.53
7.44
4.68
1.55
2.22
6.74
0.09
-8.58
-2.8
-3.78
1.41
0.26
-0.08
-0.6

>  <PUBCHEM_SHAPE_SELFOVERLAP>  (1) 
867.118

>  <PUBCHEM_SHAPE_VOLUME>  (1) 
236.4

>  <PUBCHEM_COORDINATE_TYPE>  (1) 
2
5
10

$$$$
