34641
     RDKit          3D

 30 33  0  0  1  0  0  0  0  0999 V2000
   -2.4971   -0.6240   -1.7696 S   0  0  0  0  0  0  0  0  0  0  0  0
    2.4408   -1.6106   -1.5063 O   0  0  0  0  0  0  0  0  0  0  0  0
    3.0453   -2.1300    1.4053 O   0  0  0  0  0  0  0  0  0  0  0  0
    4.5044   -2.1484   -0.4360 O   0  0  0  0  0  0  0  0  0  0  0  0
    1.3080    0.7477    0.0138 O   0  0  0  0  0  0  0  0  0  0  0  0
   -1.1286   -1.0592   -0.9875 O   0  0  0  0  0  0  0  0  0  0  0  0
   -2.8472   -1.6594   -2.7223 O   0  0  0  0  0  0  0  0  0  0  0  0
   -2.3566    0.7620   -2.1748 O   0  0  0  0  0  0  0  0  0  0  0  0
    2.9046   -0.8921    0.7091 C   0  0  0  0  0  0  0  0  0  0  0  0
    1.4547   -0.6110    0.4037 C   0  0  0  0  0  0  0  0  0  0  0  0
    3.5039   -1.1596   -0.6504 C   0  0  0  0  0  0  0  0  0  0  0  0
    1.2007   -1.5460   -0.7761 C   0  0  0  0  0  0  0  0  0  0  0  0
    4.1764   -2.7764    0.8092 C   0  0  0  0  0  0  0  0  0  0  0  0
    0.0867   -1.1229   -1.7161 C   0  0  0  0  0  0  0  0  0  0  0  0
    5.3731   -2.6509    1.7452 C   0  0  0  0  0  0  0  0  0  0  0  0
    3.8271   -4.2365    0.5552 C   0  0  0  0  0  0  0  0  0  0  0  0
    1.7310    1.6340    1.0412 C   0  0  0  0  0  0  0  0  0  0  0  0
    1.5529    3.0481    0.5721 C   0  0  0  0  0  0  0  0  0  0  0  0
   -3.7434   -0.6723   -0.5206 C   0  0  0  0  0  0  0  0  0  0  0  0
    2.5910    3.6880   -0.0957 C   0  0  0  0  0  0  0  0  0  0  0  0
    0.3513    3.7062    0.8100 C   0  0  0  0  0  0  0  0  0  0  0  0
   -4.0041    0.4675    0.2224 C   0  0  0  0  0  0  0  0  0  0  0  0
   -4.4405   -1.8497   -0.3037 C   0  0  0  0  0  0  0  0  0  0  0  0
    2.4256    5.0028   -0.5314 C   0  0  0  0  0  0  0  0  0  0  0  0
    0.1858    5.0209    0.3743 C   0  0  0  0  0  0  0  0  0  0  0  0
    1.2230    5.6692   -0.2964 C   0  0  0  0  0  0  0  0  0  0  0  0
   -4.9892    0.4291    1.2093 C   0  0  0  0  0  0  0  0  0  0  0  0
   -5.4257   -1.8882    0.6831 C   0  0  0  0  0  0  0  0  0  0  0  0
   -5.6999   -0.7487    1.4396 C   0  0  0  0  0  0  0  0  0  0  0  0
   -6.7541   -0.7896    2.4937 C   0  0  0  0  0  0  0  0  0  0  0  0
  1  6  1  0
  1  7  2  0
  1  8  2  0
  1 19  1  0
  2 11  1  0
  2 12  1  0
  3  9  1  0
  3 13  1  0
  4 11  1  0
  4 13  1  0
  5 10  1  0
  5 17  1  0
  6 14  1  0
  9 10  1  0
  9 11  1  0
 10 12  1  0
 12 14  1  0
 13 15  1  0
 13 16  1  0
 17 18  1  0
 18 20  2  0
 18 21  1  0
 19 22  2  0
 19 23  1  0
 20 24  1  0
 21 25  2  0
 22 27  1  0
 23 28  2  0
 24 26  2  0
 25 26  1  0
 27 29  2  0
 28 29  1  0
 29 30  1  0
M  END
>  <PUBCHEM_COMPOUND_CID>  (1) 
34641

>  <PUBCHEM_CONFORMER_RMSD>  (1) 
1

>  <PUBCHEM_CONFORMER_DIVERSEORDER>  (1) 
4
19
8
31
25
16
28
11
33
22
18
5
10
32
23
30
34
17
3
14
6
20
26
2
12
27
15
1
24
21
29
13
7
9

>  <PUBCHEM_MMFF94_PARTIAL_CHARGES>  (1) 
37
1 1.49
10 0.28
11 0.56
12 0.28
13 0.56
14 0.28
17 0.42
18 -0.14
19 -0.01
2 -0.56
20 -0.15
21 -0.15
22 -0.15
23 -0.15
24 -0.15
25 -0.15
26 -0.15
27 -0.15
28 -0.15
29 -0.14
3 -0.56
30 0.14
4 -0.56
45 0.15
46 0.15
47 0.15
48 0.15
49 0.15
5 -0.56
50 0.15
51 0.15
52 0.15
53 0.15
6 -0.46
7 -0.65
8 -0.65
9 0.28

>  <PUBCHEM_EFFECTIVE_ROTOR_COUNT>  (1) 
8.2

>  <PUBCHEM_PHARMACOPHORE_FEATURES>  (1) 
11
1 2 acceptor
1 3 acceptor
1 4 acceptor
1 5 acceptor
1 7 acceptor
1 8 acceptor
3 13 15 16 hydrophobe
5 2 9 10 11 12 rings
5 3 4 9 11 13 rings
6 18 20 21 24 25 26 rings
6 19 22 23 27 28 29 rings

>  <PUBCHEM_HEAVY_ATOM_COUNT>  (1) 
30

>  <PUBCHEM_ATOM_DEF_STEREO_COUNT>  (1) 
3

>  <PUBCHEM_ATOM_UDEF_STEREO_COUNT>  (1) 
1

>  <PUBCHEM_BOND_DEF_STEREO_COUNT>  (1) 
0

>  <PUBCHEM_BOND_UDEF_STEREO_COUNT>  (1) 
0

>  <PUBCHEM_ISOTOPIC_ATOM_COUNT>  (1) 
0

>  <PUBCHEM_COMPONENT_COUNT>  (1) 
1

>  <PUBCHEM_CACTVS_TAUTO_COUNT>  (1) 
1

>  <PUBCHEM_CONFORMER_ID>  (1) 
0000875100000004

>  <PUBCHEM_MMFF94_ENERGY>  (1) 
76.7519

>  <PUBCHEM_FEATURE_SELFOVERLAP>  (1) 
56.582

>  <PUBCHEM_SHAPE_FINGERPRINT>  (1) 
10074138 170 17399769637440251968
11049842 53 16845026704669338911
11421498 54 18263370188053125090
12107183 9 18269851826532085241
12160290 23 17410485490459703524
12293681 4 18049434847202511525
12422481 6 17345185606412993590
12549972 3 17533186779373088229
12633046 712 18188204304612813271
12788726 201 18193280689721765318
13540713 5 17844802784342522959
13583140 156 18335129866074414239
13590594 115 18339357470486041688
14114211 80 17469898034953366509
14363568 33 18337103570634055740
14849402 71 18265621051162688464
14950920 106 18411427241437009011
151778 21 18125439963009976077
15842332 3 17773020080885372967
1813 80 18272932678944052774
18785283 64 18339926038061201935
19319366 153 17910680087813810601
20739085 24 18273213101700943202
21365058 27 17684663407760490236
23845131 108 17686892135030459763
3380486 145 18127107702889397991
3552219 110 18115601348839627750
38570 142 17910415092294194885
474144 1 18059023903173248417
513202 73 17838902534049010254
6086070 43 18264467539491400903
6703917 75 17253728572764770052
6786 2 17614852137884889852
79837 15 17185588564715977120

>  <PUBCHEM_SHAPE_MULTIPOLES>  (1) 
580.15
12.37
7.04
1.95
17.9
12.2
0.49
-11.73
-7.24
-11.81
-0.86
2.03
-1.11
-1.41

>  <PUBCHEM_SHAPE_SELFOVERLAP>  (1) 
1231.351

>  <PUBCHEM_SHAPE_VOLUME>  (1) 
327.6

>  <PUBCHEM_COORDINATE_TYPE>  (1) 
2
5
10

$$$$
