34645
     RDKit          3D

 11 11  0  0  1  0  0  0  0  0999 V2000
   -0.6250    2.0353   -0.2108 O   0  0  0  0  0  0  0  0  0  0  0  0
    2.2038   -0.0762   -0.2982 C   0  0  0  0  0  0  0  0  0  0  0  0
    1.5661   -1.4215    0.0755 C   0  0  0  0  0  0  0  0  0  0  0  0
   -0.6836   -0.3122    0.4136 C   0  0  0  0  0  0  0  0  0  0  0  0
    0.0795   -1.4415   -0.2816 C   0  0  0  0  0  0  0  0  0  0  0  0
    1.4826    1.0820    0.3939 C   0  0  0  0  0  0  0  0  0  0  0  0
   -0.0074    1.0252    0.1250 C   0  0  0  0  0  0  0  0  0  0  0  0
    3.6900   -0.0684    0.0528 C   0  0  0  0  0  0  0  0  0  0  0  0
   -2.1116   -0.2763   -0.0223 C   0  0  0  0  0  0  0  0  0  0  0  0
   -3.1377   -0.4370    1.0598 C   0  0  0  0  0  0  0  0  0  0  0  0
   -2.4565   -0.1094   -1.3077 C   0  0  0  0  0  0  0  0  0  0  0  0
  1  7  2  0
  2  3  1  0
  2  6  1  0
  2  8  1  0
  3  5  1  0
  4  5  1  0
  4  7  1  0
  4  9  1  0
  6  7  1  0
  9 10  1  0
  9 11  2  0
M  END
>  <PUBCHEM_COMPOUND_CID>  (1) 
34645

>  <PUBCHEM_CONFORMER_RMSD>  (1) 
0.4

>  <PUBCHEM_CONFORMER_DIVERSEORDER>  (1) 
2
18
29
12
10
17
3
11
1
5
22
14
24
25
21
28
27
9
30
23
26
6
31
16
20
19
13
8
4
7
15

>  <PUBCHEM_MMFF94_PARTIAL_CHARGES>  (1) 
9
1 -0.57
10 0.14
11 -0.3
26 0.15
27 0.15
4 0.2
6 0.06
7 0.45
9 -0.28

>  <PUBCHEM_EFFECTIVE_ROTOR_COUNT>  (1) 
2

>  <PUBCHEM_PHARMACOPHORE_FEATURES>  (1) 
2
1 1 acceptor
6 2 3 4 5 6 7 rings

>  <PUBCHEM_HEAVY_ATOM_COUNT>  (1) 
11

>  <PUBCHEM_ATOM_DEF_STEREO_COUNT>  (1) 
0

>  <PUBCHEM_ATOM_UDEF_STEREO_COUNT>  (1) 
2

>  <PUBCHEM_BOND_DEF_STEREO_COUNT>  (1) 
0

>  <PUBCHEM_BOND_UDEF_STEREO_COUNT>  (1) 
0

>  <PUBCHEM_ISOTOPIC_ATOM_COUNT>  (1) 
0

>  <PUBCHEM_COMPONENT_COUNT>  (1) 
1

>  <PUBCHEM_CACTVS_TAUTO_COUNT>  (1) 
5

>  <PUBCHEM_CONFORMER_ID>  (1) 
0000875500000002

>  <PUBCHEM_MMFF94_ENERGY>  (1) 
13.8733

>  <PUBCHEM_FEATURE_SELFOVERLAP>  (1) 
10.148

>  <PUBCHEM_SHAPE_FINGERPRINT>  (1) 
10219947 1 18411425041643035011
10353120 184 18337688446073158988
11206711 2 18338515240384372996
12032990 46 18409457998208833122
12897270 3 18410006620145755502
12932764 1 17846492608627261762
14128692 85 17630874083579848839
14993402 34 18060131063747102407
15310529 11 16950277425273547210
15775835 57 18060139829648687590
16945 1 18411976966520941402
17844478 74 18040442100617768201
193761 8 17763184644215791146
20201158 50 18333447634020014947
21061003 4 18336274517238459985
21501502 16 18121775037113586176
23235685 24 18410856581257148402
23402655 69 18196353854976217821
23552423 10 18046067064571909034
2748010 2 18124875651498602894
29004967 10 18335706052425574899
369184 2 16081088173189915326
5084963 1 17988916786553405570
528886 8 18413668015341248483
63268167 104 18272083911585440259

>  <PUBCHEM_SHAPE_MULTIPOLES>  (1) 
220.51
4.73
1.51
0.92
0.95
0.31
-0.09
-0.56
0.27
0.24
-0.04
-0.7
-0.05
0.15

>  <PUBCHEM_SHAPE_SELFOVERLAP>  (1) 
436.727

>  <PUBCHEM_SHAPE_VOLUME>  (1) 
131.6

>  <PUBCHEM_COORDINATE_TYPE>  (1) 
2
5
10

$$$$
