34653
     RDKit          3D

 17 18  0  0  1  0  0  0  0  0999 V2000
    1.2257    3.0789   -0.4666 O   0  0  0  0  0  0  0  0  0  0  0  0
    2.2789   -0.3306    0.5400 N   0  0  0  0  0  0  0  0  0  0  0  0
   -4.0634   -0.4455   -0.1553 C   0  0  0  0  0  0  0  0  0  0  0  0
   -4.4220   -1.6203    0.7001 C   0  0  0  0  0  0  0  0  0  0  0  0
   -4.2176   -1.7990   -0.7759 C   0  0  0  0  0  0  0  0  0  0  0  0
   -2.7029    0.1508   -0.0409 C   0  0  0  0  0  0  0  0  0  0  0  0
   -2.2289    0.5736    1.2008 C   0  0  0  0  0  0  0  0  0  0  0  0
   -1.9037    0.2875   -1.1761 C   0  0  0  0  0  0  0  0  0  0  0  0
    3.3163   -1.2442    0.0500 C   0  0  0  0  0  0  0  0  0  0  0  0
   -0.1764    1.2614    0.1709 C   0  0  0  0  0  0  0  0  0  0  0  0
    1.2051    1.8675    0.2872 C   0  0  0  0  0  0  0  0  0  0  0  0
    2.2852    0.9059   -0.2231 C   0  0  0  0  0  0  0  0  0  0  0  0
   -0.9558    1.1334    1.3076 C   0  0  0  0  0  0  0  0  0  0  0  0
   -0.6305    0.8473   -1.0693 C   0  0  0  0  0  0  0  0  0  0  0  0
    3.2623   -2.5332    0.8769 C   0  0  0  0  0  0  0  0  0  0  0  0
    3.0373   -1.5534   -1.4247 C   0  0  0  0  0  0  0  0  0  0  0  0
    4.6904   -0.5803    0.1984 C   0  0  0  0  0  0  0  0  0  0  0  0
  1 11  1  0
  2  9  1  0
  2 12  1  0
  3  4  1  0
  3  5  1  0
  3  6  1  0
  4  5  1  0
  6  7  2  0
  6  8  1  0
  7 13  1  0
  8 14  2  0
  9 15  1  0
  9 16  1  0
  9 17  1  0
 10 11  1  0
 10 13  2  0
 10 14  1  0
 11 12  1  0
M  END
>  <PUBCHEM_COMPOUND_CID>  (1) 
34653

>  <PUBCHEM_CONFORMER_RMSD>  (1) 
0.8

>  <PUBCHEM_CONFORMER_DIVERSEORDER>  (1) 
3
40
26
21
41
16
43
18
12
28
13
27
34
5
17
37
22
25
31
2
24
33
11
15
23
30
32
10
42
29
35
7
39
36
20
6
38
1
4
9
19
8
14

>  <PUBCHEM_MMFF94_PARTIAL_CHARGES>  (1) 
25
1 -0.68
10 -0.14
11 0.42
12 0.27
13 -0.15
14 -0.15
18 0.1
19 0.1
2 -0.9
20 0.1
21 0.1
22 0.1
23 0.15
24 0.15
28 0.15
29 0.15
3 -0.07
30 0.36
4 -0.2
40 0.4
5 -0.2
6 -0.03
7 -0.15
8 -0.15
9 0.27

>  <PUBCHEM_EFFECTIVE_ROTOR_COUNT>  (1) 
5.6

>  <PUBCHEM_PHARMACOPHORE_FEATURES>  (1) 
6
1 1 acceptor
1 1 donor
1 2 cation
1 2 donor
4 9 15 16 17 hydrophobe
6 6 7 8 10 13 14 rings

>  <PUBCHEM_HEAVY_ATOM_COUNT>  (1) 
17

>  <PUBCHEM_ATOM_DEF_STEREO_COUNT>  (1) 
0

>  <PUBCHEM_ATOM_UDEF_STEREO_COUNT>  (1) 
1

>  <PUBCHEM_BOND_DEF_STEREO_COUNT>  (1) 
0

>  <PUBCHEM_BOND_UDEF_STEREO_COUNT>  (1) 
0

>  <PUBCHEM_ISOTOPIC_ATOM_COUNT>  (1) 
0

>  <PUBCHEM_COMPONENT_COUNT>  (1) 
1

>  <PUBCHEM_CACTVS_TAUTO_COUNT>  (1) 
1

>  <PUBCHEM_CONFORMER_ID>  (1) 
0000875D00000003

>  <PUBCHEM_MMFF94_ENERGY>  (1) 
40.3176

>  <PUBCHEM_FEATURE_SELFOVERLAP>  (1) 
30.446

>  <PUBCHEM_SHAPE_FINGERPRINT>  (1) 
11578080 2 18058989731870752752
11640471 11 10881402040842086945
11769659 78 18341048596942443529
11806522 49 18411701002245825472
122479 349 10159687014985319028
12363563 72 18334576798328726074
12553582 1 18263940855545546506
12596599 1 18057334893950781754
12596602 18 16486972955082347203
12824470 246 18411698751292488027
12892183 10 16916787340616046298
13464513 79 18343302583037180238
13533116 47 18198341965346611099
14123255 52 8574706897173994182
14252887 29 18060140921066357094
14848160 33 18409444791031495183
15099037 8 18342744026597945601
15342168 16 10591753307644238971
15342816 4 18337115570909512334
15375462 189 17988354974692633476
15422964 175 18271807852678632206
17834072 32 9654993598904848930
1813 80 18337686234128201973
18186145 218 13334750006705024262
19107657 9 9871451128701952554
193927 3 18341061782355230019
19862831 5 13479135691810632478
200 152 17967535627816199178
20281475 54 18335422318443863360
20291156 8 18342174440608685370
20361792 2 18338797814920235924
20374829 77 17967524671238530507
20645477 70 18263353858397139495
20671657 53 18334857212306076657
21475661 188 11959467660328518779
2255824 54 18196940087335582980
22646028 28 18342176656827549939
231179 274 8358262561690003768
23559900 14 18337382859382592449
25 1 9223231845122874132
27216 239 11239123759429775462
3323516 105 18040994076998593155
33382 64 18191877932060080339
4028521 119 12324251550406042446
4072396 5 16988572303689983661
4463277 69 18411695526125522135
94968 8 18408044022139731474
9709674 26 18116714217351632787

>  <PUBCHEM_SHAPE_MULTIPOLES>  (1) 
339
8.84
2.54
1.22
1
0.28
0.06
-7.11
-0.24
-1.19
-0.04
0.16
-0.13
-0.37

>  <PUBCHEM_SHAPE_SELFOVERLAP>  (1) 
694.45

>  <PUBCHEM_SHAPE_VOLUME>  (1) 
199.1

>  <PUBCHEM_COORDINATE_TYPE>  (1) 
2
5
10

$$$$
