34657
     RDKit          3D

 14 14  0  0  1  0  0  0  0  0999 V2000
   -3.8394    1.0548    0.1718 O   0  0  0  0  0  0  0  0  0  0  0  0
    3.7831    0.0599    0.2410 O   0  0  0  0  0  0  0  0  0  0  0  0
   -1.8725    2.1404   -0.1222 O   0  0  0  0  0  0  0  0  0  0  0  0
   -1.8489   -0.2716    0.2872 C   0  0  0  0  0  0  0  0  0  0  0  0
   -2.4262   -1.2649   -0.7412 C   0  0  0  0  0  0  0  0  0  0  0  0
   -0.3299   -0.1823    0.2746 C   0  0  0  0  0  0  0  0  0  0  0  0
   -1.9351   -2.6917   -0.5309 C   0  0  0  0  0  0  0  0  0  0  0  0
    0.3668   -0.5096    1.4196 C   0  0  0  0  0  0  0  0  0  0  0  0
    0.3047    0.2234   -0.8817 C   0  0  0  0  0  0  0  0  0  0  0  0
   -2.4829    1.1008    0.0896 C   0  0  0  0  0  0  0  0  0  0  0  0
    1.7593   -0.4276    1.4081 C   0  0  0  0  0  0  0  0  0  0  0  0
    1.6971    0.3054   -0.8933 C   0  0  0  0  0  0  0  0  0  0  0  0
    2.4245   -0.0202    0.2516 C   0  0  0  0  0  0  0  0  0  0  0  0
    4.3992    0.4832   -0.9743 C   0  0  0  0  0  0  0  0  0  0  0  0
  1 10  1  0
  2 13  1  0
  2 14  1  0
  3 10  2  0
  4  5  1  0
  4  6  1  0
  4 10  1  0
  5  7  1  0
  6  8  2  0
  6  9  1  0
  8 11  1  0
  9 12  2  0
 11 13  2  0
 12 13  1  0
M  END
>  <PUBCHEM_COMPOUND_CID>  (1) 
34657

>  <PUBCHEM_CONFORMER_RMSD>  (1) 
0.6

>  <PUBCHEM_CONFORMER_DIVERSEORDER>  (1) 
1
12
5
15
17
14
9
13
2
16
3
7
18
10
11
21
4
19
20
8
6

>  <PUBCHEM_MMFF94_PARTIAL_CHARGES>  (1) 
17
1 -0.65
10 0.66
11 -0.15
12 -0.15
13 0.08
14 0.28
2 -0.36
21 0.15
22 0.15
23 0.15
24 0.15
25 0.5
3 -0.57
4 0.2
6 -0.14
8 -0.15
9 -0.15

>  <PUBCHEM_EFFECTIVE_ROTOR_COUNT>  (1) 
4

>  <PUBCHEM_PHARMACOPHORE_FEATURES>  (1) 
6
1 1 acceptor
1 2 acceptor
1 3 acceptor
1 7 hydrophobe
3 1 3 10 anion
6 6 8 9 11 12 13 rings

>  <PUBCHEM_HEAVY_ATOM_COUNT>  (1) 
14

>  <PUBCHEM_ATOM_DEF_STEREO_COUNT>  (1) 
0

>  <PUBCHEM_ATOM_UDEF_STEREO_COUNT>  (1) 
1

>  <PUBCHEM_BOND_DEF_STEREO_COUNT>  (1) 
0

>  <PUBCHEM_BOND_UDEF_STEREO_COUNT>  (1) 
0

>  <PUBCHEM_ISOTOPIC_ATOM_COUNT>  (1) 
0

>  <PUBCHEM_COMPONENT_COUNT>  (1) 
1

>  <PUBCHEM_CACTVS_TAUTO_COUNT>  (1) 
1

>  <PUBCHEM_CONFORMER_ID>  (1) 
0000876100000001

>  <PUBCHEM_MMFF94_ENERGY>  (1) 
39.3386

>  <PUBCHEM_FEATURE_SELFOVERLAP>  (1) 
30.505

>  <PUBCHEM_SHAPE_FINGERPRINT>  (1) 
11543360 7 18270409424691874388
12138202 97 18131627859636571983
12186901 62 18272092707678508103
124424 183 17060338500786098470
12491281 212 18260552216595848816
12500047 106 18272929405952022406
12716758 59 18201718427340837891
12932764 1 18341891909238708402
13296908 3 16917067793585745170
13538477 17 18334283275989803563
15219456 202 17131260380647750986
15279307 12 18261667095411414403
15309172 13 16225767415183958984
15342168 16 16516266113856973484
15653759 3 17632293514378611938
15669948 3 18410003351628358747
15775835 57 18187366493399820017
16945 1 18339346513897511713
18186145 218 16805326608925012630
18534176 82 17989489623489880727
19026448 4 17917711340245142242
19026448 5 18335699460162504202
200 152 17386007329679094955
20645477 56 18342178851540163344
20645477 70 15358237339469594698
20715346 28 13695861507083350354
20871999 31 18272649086500745607
21061003 4 16343151349395522642
21339142 149 18188211017198401274
22094290 60 18342460391120575686
23236772 104 17967530185902653281
23402539 116 18272925008359179213
23493267 7 17917999347498111434
23557571 272 18059570368704369384
23559900 14 17988924458161685194
23598291 2 18114729435380803594
23598294 1 18411129260399514411
25 1 16772678693944245873
2748010 2 14906467910146969026
53748568 43 18186516605202657354
63268167 104 17095511898969595706
633830 44 17530975678780347062
77492 1 18040705974486340035
81228 2 18127675223199737235
88987 49 18269815601785626642

>  <PUBCHEM_SHAPE_MULTIPOLES>  (1) 
270.51
6.23
1.73
1.18
4.07
0.52
-0.23
-1.11
1.25
-2.31
0.32
0.6
0.19
-0.65

>  <PUBCHEM_SHAPE_SELFOVERLAP>  (1) 
555.021

>  <PUBCHEM_SHAPE_VOLUME>  (1) 
156.5

>  <PUBCHEM_COORDINATE_TYPE>  (1) 
2
5
10

$$$$
