34667
     RDKit          3D

 11 11  0  0  0  0  0  0  0  0999 V2000
    3.6475    0.8718    0.0015 Br  0  0  0  0  0  0  0  0  0  0  0  0
    2.2855   -2.1887    0.0014 Cl  0  0  0  0  0  0  0  0  0  0  0  0
   -3.1436    0.8885    0.0037 O   0  0  0  0  0  0  0  0  0  0  0  0
   -2.8233   -1.2833   -0.0005 O   0  0  0  0  0  0  0  0  0  0  0  0
   -2.3820   -0.1086    0.0006 N   0  0  0  0  0  0  0  0  0  0  0  0
   -0.9772    0.0985   -0.0024 C   0  0  0  0  0  0  0  0  0  0  0  0
   -0.1099   -0.9940   -0.0016 C   0  0  0  0  0  0  0  0  0  0  0  0
   -0.4645    1.3959   -0.0018 C   0  0  0  0  0  0  0  0  0  0  0  0
    1.2698   -0.7891   -0.0002 C   0  0  0  0  0  0  0  0  0  0  0  0
    0.9152    1.6007   -0.0007 C   0  0  0  0  0  0  0  0  0  0  0  0
    1.7824    0.5082    0.0002 C   0  0  0  0  0  0  0  0  0  0  0  0
  1 11  1  0
  2  9  1  0
  3  5  1  0
  4  5  2  0
  5  6  1  0
  6  7  2  0
  6  8  1  0
  7  9  1  0
  8 10  2  0
  9 11  2  0
 10 11  1  0
M  CHG  2   3  -1   5   1
M  END
>  <PUBCHEM_COMPOUND_CID>  (1) 
34667

>  <PUBCHEM_CONFORMER_RMSD>  (1) 
0.4

>  <PUBCHEM_CONFORMER_DIVERSEORDER>  (1) 
1

>  <PUBCHEM_MMFF94_PARTIAL_CHARGES>  (1) 
14
1 -0.11
10 -0.15
11 0.11
12 0.15
13 0.15
14 0.15
2 -0.18
3 -0.52
4 -0.52
5 0.91
6 0.13
7 -0.15
8 -0.15
9 0.18

>  <PUBCHEM_EFFECTIVE_ROTOR_COUNT>  (1) 
1

>  <PUBCHEM_PHARMACOPHORE_FEATURES>  (1) 
5
1 1 hydrophobe
1 3 acceptor
1 3 anion
1 4 acceptor
6 6 7 8 9 10 11 rings

>  <PUBCHEM_HEAVY_ATOM_COUNT>  (1) 
11

>  <PUBCHEM_ATOM_DEF_STEREO_COUNT>  (1) 
0

>  <PUBCHEM_ATOM_UDEF_STEREO_COUNT>  (1) 
0

>  <PUBCHEM_BOND_DEF_STEREO_COUNT>  (1) 
0

>  <PUBCHEM_BOND_UDEF_STEREO_COUNT>  (1) 
0

>  <PUBCHEM_ISOTOPIC_ATOM_COUNT>  (1) 
0

>  <PUBCHEM_COMPONENT_COUNT>  (1) 
1

>  <PUBCHEM_CACTVS_TAUTO_COUNT>  (1) 
1

>  <PUBCHEM_CONFORMER_ID>  (1) 
0000876B00000001

>  <PUBCHEM_MMFF94_ENERGY>  (1) 
29.1546

>  <PUBCHEM_FEATURE_SELFOVERLAP>  (1) 
25.453

>  <PUBCHEM_SHAPE_FINGERPRINT>  (1) 
10219947 1 18335138739049313104
12032990 46 18339651130453503126
12932764 1 17489579091199764875
13380535 76 18335419118820068858
14128692 85 18266747878803598486
14325111 11 18410575123565944768
161256 15 18338237042667837684
16945 1 18410856602710963716
19021347 11 18409729595024370574
193761 8 18050568439559168480
20201158 50 18335419092643849259
20588541 1 18335704978836666554
20645476 183 17606978449466648340
20645477 70 18339637846267759231
20711985 365 18122342367791412940
20871998 22 18126288532604517782
21040471 1 18050286165438907456
21501502 16 18268432321974675688
23235685 24 18336822087024828840
23402655 69 18341316805198142373
23463225 33 18334570244525039448
23552423 10 18261678056341624006
241688 4 18048318851569095560
2748010 2 18265610983695978244
29004967 10 18408606971755432433
3312278 4 18412830200318305785
528862 383 18335132081929145154
528886 8 18411414037899983872
53812653 166 18343016722582323416
63268167 104 18412267211673223193
7364860 26 18270962332943399934

>  <PUBCHEM_SHAPE_MULTIPOLES>  (1) 
217.47
4.92
1.97
0.61
0.72
0.64
0
-0.22
0.01
-0.9
0
-0.13
-0.01
0

>  <PUBCHEM_SHAPE_SELFOVERLAP>  (1) 
432.13

>  <PUBCHEM_SHAPE_VOLUME>  (1) 
134.3

>  <PUBCHEM_COORDINATE_TYPE>  (1) 
2
5
10

$$$$
