34675
     RDKit          3D

 20 21  0  0  0  0  0  0  0  0999 V2000
    3.1324    1.5197   -0.4021 S   0  0  0  0  0  0  0  0  0  0  0  0
   -4.2001    0.4208   -0.0363 S   0  0  0  0  0  0  0  0  0  0  0  0
    3.9079    2.7109    0.3991 O   0  0  0  0  0  0  0  0  0  0  0  0
    1.9816    2.0896   -1.0819 O   0  0  0  0  0  0  0  0  0  0  0  0
    4.1161    0.7256   -1.1186 O   0  0  0  0  0  0  0  0  0  0  0  0
   -4.4091    0.9728   -1.5609 O   0  0  0  0  0  0  0  0  0  0  0  0
   -4.8574   -0.8757    0.0398 O   0  0  0  0  0  0  0  0  0  0  0  0
   -4.5581    1.4890    0.8839 O   0  0  0  0  0  0  0  0  0  0  0  0
    3.6086   -1.9402    0.3105 N   0  0  0  0  0  0  0  0  0  0  0  0
    1.6660   -0.4714    0.5139 C   0  0  0  0  0  0  0  0  0  0  0  0
    0.2851   -0.2488    0.3885 C   0  0  0  0  0  0  0  0  0  0  0  0
   -0.5455   -1.2964   -0.0759 C   0  0  0  0  0  0  0  0  0  0  0  0
    2.5803    0.6138    1.0033 C   0  0  0  0  0  0  0  0  0  0  0  0
    2.2201   -1.7091    0.1861 C   0  0  0  0  0  0  0  0  0  0  0  0
   -0.2898    0.9905    0.7139 C   0  0  0  0  0  0  0  0  0  0  0  0
   -1.9264   -1.0738   -0.2013 C   0  0  0  0  0  0  0  0  0  0  0  0
   -2.4806    0.1639    0.1266 C   0  0  0  0  0  0  0  0  0  0  0  0
    0.0294   -2.5358   -0.4013 C   0  0  0  0  0  0  0  0  0  0  0  0
    1.4034   -2.7393   -0.2706 C   0  0  0  0  0  0  0  0  0  0  0  0
   -1.6638    1.1940    0.5833 C   0  0  0  0  0  0  0  0  0  0  0  0
  1  3  1  0
  1  4  2  0
  1  5  2  0
  1 13  1  0
  2  6  1  0
  2  7  2  0
  2  8  2  0
  2 17  1  0
  9 14  1  0
 10 11  2  0
 10 13  1  0
 10 14  1  0
 11 12  1  0
 11 15  1  0
 12 16  1  0
 12 18  2  0
 14 19  2  0
 15 20  2  0
 16 17  2  0
 17 20  1  0
 18 19  1  0
M  END
>  <PUBCHEM_COMPOUND_CID>  (1) 
34675

>  <PUBCHEM_CONFORMER_RMSD>  (1) 
0.6

>  <PUBCHEM_CONFORMER_DIVERSEORDER>  (1) 
2
1

>  <PUBCHEM_MMFF94_PARTIAL_CHARGES>  (1) 
27
1 1.38
10 -0.14
13 0.25
14 0.1
15 -0.15
16 -0.15
17 -0.01
18 -0.15
19 -0.15
2 1.49
20 -0.15
23 0.15
24 0.15
25 0.15
26 0.15
27 0.15
28 0.4
29 0.4
3 -0.68
30 0.5
31 0.5
4 -0.65
5 -0.65
6 -0.68
7 -0.65
8 -0.65
9 -0.9

>  <PUBCHEM_EFFECTIVE_ROTOR_COUNT>  (1) 
3

>  <PUBCHEM_PHARMACOPHORE_FEATURES>  (1) 
12
1 3 acceptor
1 4 acceptor
1 5 acceptor
1 6 acceptor
1 7 acceptor
1 8 acceptor
1 9 cation
1 9 donor
4 1 3 4 5 anion
4 2 6 7 8 anion
6 10 11 12 14 18 19 rings
6 11 12 15 16 17 20 rings

>  <PUBCHEM_HEAVY_ATOM_COUNT>  (1) 
20

>  <PUBCHEM_ATOM_DEF_STEREO_COUNT>  (1) 
0

>  <PUBCHEM_ATOM_UDEF_STEREO_COUNT>  (1) 
0

>  <PUBCHEM_BOND_DEF_STEREO_COUNT>  (1) 
0

>  <PUBCHEM_BOND_UDEF_STEREO_COUNT>  (1) 
0

>  <PUBCHEM_ISOTOPIC_ATOM_COUNT>  (1) 
0

>  <PUBCHEM_COMPONENT_COUNT>  (1) 
1

>  <PUBCHEM_CACTVS_TAUTO_COUNT>  (1) 
1

>  <PUBCHEM_CONFORMER_ID>  (1) 
0000877300000002

>  <PUBCHEM_MMFF94_ENERGY>  (1) 
58.1185

>  <PUBCHEM_FEATURE_SELFOVERLAP>  (1) 
61.034

>  <PUBCHEM_SHAPE_FINGERPRINT>  (1) 
10498660 4 18340205292561198781
10967382 1 18412824694117374394
11471102 20 18340199696224041395
11796584 16 12895077310128378845
12173636 292 18051410974597909750
12644460 14 18261682484410669810
13140716 1 18411135835630740066
13583140 156 17241034415090741627
13760787 5 18342736287377789417
14123255 52 18339079418592971496
14415576 193 18410855426053299035
14790565 3 18269565008072881825
15196674 1 18413106148120466931
16945 1 18269280049534458162
17134986 127 18337393850435732076
18186145 218 18188207594457612755
19591789 44 17907866450268685931
19784866 34 18341893038688727353
19862831 5 17703798028129153273
20612939 158 18410292463220237717
20645476 183 18337393862798550486
20645477 70 18410012092061022427
21267235 1 18272374123037834011
21524375 3 18261955270494323936
21709351 56 18267858398416639239
2255824 54 18338799996531767018
22854114 111 18410576162710588715
231179 274 18040433300018931700
23558518 356 18195252109516743209
23559900 14 18266454317499286443
2748010 2 18341617074176370778
3060560 45 18409733967453922684
350125 39 18339925913913514216
394222 165 18334287704122289538
474 4 18333452057756987707
4990 188 17561091310163917828
5104073 3 18408606946571230883
537710 114 18343582949632526433
57096353 35 18060127735585187253
58051976 378 18342455928491312516
633830 44 18059862744482124501
7364860 26 18413109433749225850
81539 233 18333167267092067178
8272917 22 18340775832027546863
9709674 26 18339929203964425635
9999458 23 18262238824288576982

>  <PUBCHEM_SHAPE_MULTIPOLES>  (1) 
379.09
8.37
2.77
0.97
6.66
0.68
-0.16
-3.71
-0.95
-2.54
-0.24
0.05
-0.34
-0.4

>  <PUBCHEM_SHAPE_SELFOVERLAP>  (1) 
798.436

>  <PUBCHEM_SHAPE_VOLUME>  (1) 
214.4

>  <PUBCHEM_COORDINATE_TYPE>  (1) 
2
5
10

$$$$
