34677
     RDKit          3D

 11 12  0  0  1  0  0  0  0  0999 V2000
   -3.5304    0.7529    0.0204 N   0  0  0  0  0  0  0  0  0  0  0  0
   -2.2058    0.2238    0.3417 C   0  0  0  0  0  0  0  0  0  0  0  0
   -1.9992   -1.1274   -0.3452 C   0  0  0  0  0  0  0  0  0  0  0  0
   -1.1144    1.2087   -0.0999 C   0  0  0  0  0  0  0  0  0  0  0  0
   -0.6625   -1.7387    0.0761 C   0  0  0  0  0  0  0  0  0  0  0  0
    0.2755    0.6242   -0.0252 C   0  0  0  0  0  0  0  0  0  0  0  0
    0.4879   -0.7658    0.0157 C   0  0  0  0  0  0  0  0  0  0  0  0
    1.3801    1.4891   -0.0580 C   0  0  0  0  0  0  0  0  0  0  0  0
    1.8003   -1.2607    0.0602 C   0  0  0  0  0  0  0  0  0  0  0  0
    2.6794    0.9840   -0.0237 C   0  0  0  0  0  0  0  0  0  0  0  0
    2.8893   -0.3902    0.0378 C   0  0  0  0  0  0  0  0  0  0  0  0
  1  2  1  0
  2  3  1  0
  2  4  1  0
  3  5  1  0
  4  6  1  0
  5  7  1  0
  6  7  2  0
  6  8  1  0
  7  9  1  0
  8 10  2  0
  9 11  2  0
 10 11  1  0
M  END
>  <PUBCHEM_COMPOUND_CID>  (1) 
34677

>  <PUBCHEM_CONFORMER_RMSD>  (1) 
0.4

>  <PUBCHEM_CONFORMER_DIVERSEORDER>  (1) 
1
3
2

>  <PUBCHEM_MMFF94_PARTIAL_CHARGES>  (1) 
16
1 -0.99
10 -0.15
11 -0.15
19 0.15
2 0.27
20 0.36
21 0.36
22 0.15
23 0.15
24 0.15
4 0.14
5 0.14
6 -0.14
7 -0.14
8 -0.15
9 -0.15

>  <PUBCHEM_EFFECTIVE_ROTOR_COUNT>  (1) 
0.8

>  <PUBCHEM_PHARMACOPHORE_FEATURES>  (1) 
4
1 1 cation
1 1 donor
6 2 3 4 5 6 7 rings
6 6 7 8 9 10 11 rings

>  <PUBCHEM_HEAVY_ATOM_COUNT>  (1) 
11

>  <PUBCHEM_ATOM_DEF_STEREO_COUNT>  (1) 
0

>  <PUBCHEM_ATOM_UDEF_STEREO_COUNT>  (1) 
1

>  <PUBCHEM_BOND_DEF_STEREO_COUNT>  (1) 
0

>  <PUBCHEM_BOND_UDEF_STEREO_COUNT>  (1) 
0

>  <PUBCHEM_ISOTOPIC_ATOM_COUNT>  (1) 
0

>  <PUBCHEM_COMPONENT_COUNT>  (1) 
1

>  <PUBCHEM_CACTVS_TAUTO_COUNT>  (1) 
1

>  <PUBCHEM_CONFORMER_ID>  (1) 
0000877500000001

>  <PUBCHEM_MMFF94_ENERGY>  (1) 
17.0492

>  <PUBCHEM_FEATURE_SELFOVERLAP>  (1) 
20.318

>  <PUBCHEM_SHAPE_FINGERPRINT>  (1) 
12524768 44 18412268302584470678
12932764 1 17313093159763056198
13380535 76 18411979169612609774
14325111 11 18410856585515283281
15775835 57 18410016549962593596
16945 1 18410011022481958998
17844478 74 17895202095003907457
193761 8 17834114530060117289
19973954 147 18265899240267741546
20201158 50 18412262809342326526
21040471 1 18338518654809221032
21501502 16 18338795731655135038
23235685 24 18411976957751684721
23402655 69 18341601587146527653
23463225 33 18335699399721829714
23552423 10 18261955274973991966
23559900 14 18343028813854154684
2748010 2 18266742569923197334
369184 2 18411417336371459635
5084963 1 18272930496778529712
528886 8 18411132545679983602
53812653 166 18343014523606488720
63268167 104 18411703170729439433

>  <PUBCHEM_SHAPE_MULTIPOLES>  (1) 
221.39
4.41
1.74
0.63
0.95
0.21
0
-0.71
0.05
-0.05
-0.03
0.02
0.01
-0.11

>  <PUBCHEM_SHAPE_SELFOVERLAP>  (1) 
467.551

>  <PUBCHEM_SHAPE_VOLUME>  (1) 
123.6

>  <PUBCHEM_COORDINATE_TYPE>  (1) 
2
5
10

$$$$
