34687
     RDKit          3D

 21 23  0  0  1  0  0  0  0  0999 V2000
   -1.0501    1.9939   -0.1630 O   0  0  0  0  0  0  0  0  0  0  0  0
   -3.9840   -0.8116    1.5345 O   0  0  0  0  0  0  0  0  0  0  0  0
   -3.4857   -1.6293   -1.9386 O   0  0  0  0  0  0  0  0  0  0  0  0
    0.7765    3.2154   -0.6848 O   0  0  0  0  0  0  0  0  0  0  0  0
    3.1276    2.2864   -0.2578 O   0  0  0  0  0  0  0  0  0  0  0  0
    3.5516   -2.3999    0.2776 O   0  0  0  0  0  0  0  0  0  0  0  0
   -1.6453    0.8075    0.4403 C   0  0  0  0  0  0  0  0  0  0  0  0
   -3.1268    0.8342   -0.0104 C   0  0  0  0  0  0  0  0  0  0  0  0
   -0.9398   -0.4371   -0.0436 C   0  0  0  0  0  0  0  0  0  0  0  0
   -3.8459   -0.5067    0.1508 C   0  0  0  0  0  0  0  0  0  0  0  0
   -3.0962   -1.6359   -0.5643 C   0  0  0  0  0  0  0  0  0  0  0  0
   -1.5983   -1.5158   -0.5055 C   0  0  0  0  0  0  0  0  0  0  0  0
   -1.5290    0.9656    1.9679 C   0  0  0  0  0  0  0  0  0  0  0  0
    0.5290   -0.3365   -0.0494 C   0  0  0  0  0  0  0  0  0  0  0  0
    1.1145    0.9319   -0.1676 C   0  0  0  0  0  0  0  0  0  0  0  0
    0.2843    2.1447   -0.3538 C   0  0  0  0  0  0  0  0  0  0  0  0
    1.3669   -1.4524    0.1074 C   0  0  0  0  0  0  0  0  0  0  0  0
    2.5089    1.0756   -0.1507 C   0  0  0  0  0  0  0  0  0  0  0  0
    2.7553   -1.3061    0.1263 C   0  0  0  0  0  0  0  0  0  0  0  0
    3.3255   -0.0439   -0.0037 C   0  0  0  0  0  0  0  0  0  0  0  0
    4.9612   -2.1800    0.2883 C   0  0  0  0  0  0  0  0  0  0  0  0
  1  7  1  0
  1 16  1  0
  2 10  1  0
  3 11  1  0
  4 16  2  0
  5 18  1  0
  6 19  1  0
  6 21  1  0
  7  8  1  0
  7  9  1  0
  7 13  1  0
  8 10  1  0
  9 12  2  0
  9 14  1  0
 10 11  1  0
 11 12  1  0
 14 15  2  0
 14 17  1  0
 15 16  1  0
 15 18  1  0
 17 19  2  0
 18 20  2  0
 19 20  1  0
M  END
>  <PUBCHEM_COMPOUND_CID>  (1) 
34687

>  <PUBCHEM_CONFORMER_RMSD>  (1) 
0.6

>  <PUBCHEM_CONFORMER_DIVERSEORDER>  (1) 
1
2

>  <PUBCHEM_MMFF94_PARTIAL_CHARGES>  (1) 
25
1 -0.43
10 0.28
11 0.42
12 -0.29
14 0.03
15 0.09
16 0.63
17 -0.15
18 0.08
19 0.08
2 -0.68
20 -0.15
21 0.28
26 0.15
3 -0.68
30 0.15
31 0.4
32 0.4
33 0.15
34 0.45
4 -0.57
5 -0.53
6 -0.36
7 0.42
9 -0.17

>  <PUBCHEM_EFFECTIVE_ROTOR_COUNT>  (1) 
1.8

>  <PUBCHEM_PHARMACOPHORE_FEATURES>  (1) 
10
1 2 acceptor
1 2 donor
1 3 acceptor
1 3 donor
1 4 acceptor
1 5 donor
1 6 acceptor
6 1 7 9 14 15 16 rings
6 14 15 17 18 19 20 rings
6 7 8 9 10 11 12 rings

>  <PUBCHEM_HEAVY_ATOM_COUNT>  (1) 
21

>  <PUBCHEM_ATOM_DEF_STEREO_COUNT>  (1) 
3

>  <PUBCHEM_ATOM_UDEF_STEREO_COUNT>  (1) 
0

>  <PUBCHEM_BOND_DEF_STEREO_COUNT>  (1) 
0

>  <PUBCHEM_BOND_UDEF_STEREO_COUNT>  (1) 
0

>  <PUBCHEM_ISOTOPIC_ATOM_COUNT>  (1) 
0

>  <PUBCHEM_COMPONENT_COUNT>  (1) 
1

>  <PUBCHEM_CACTVS_TAUTO_COUNT>  (1) 
4

>  <PUBCHEM_CONFORMER_ID>  (1) 
0000877F00000001

>  <PUBCHEM_MMFF94_ENERGY>  (1) 
73.7147

>  <PUBCHEM_FEATURE_SELFOVERLAP>  (1) 
50.798

>  <PUBCHEM_SHAPE_FINGERPRINT>  (1) 
10062212 137 18130785689907343551
10967382 1 18337392767803182572
10989021 7 18410011022524157058
11578080 2 17915994980893365209
11769659 78 18272082816374060999
12236239 1 18130510811762899139
12553582 1 18335979766660788266
12633257 1 17131836451758319563
13009979 54 18131078133782167922
13140716 1 18338522919538010776
138480 1 18408886256863759692
14576447 43 18055342798030027079
14787075 74 17198533033273660928
14790565 3 17903644321571680364
15042514 8 17687741645771673386
15196674 1 18410011022318409197
15375462 189 18129669741370900755
15442244 35 18412263908758820332
15536298 74 18343020012711582880
16945 1 18193273216103909461
17492 89 18338234976499288315
1813 80 18339939116458515510
19141452 34 18201154326257111927
200 152 18272642437923130231
20291156 8 18410856546855309346
20645477 70 18261381299808185231
21029758 27 18335710403264531278
21267235 1 18410864243394791595
21501502 16 18342458153210408332
22112679 90 18342469105445669368
221490 88 18261962937190665754
2255824 54 18120096340651351972
2334 1 18410576197091263644
23388829 49 18341898544942295669
23402539 116 18341321198121588686
23419403 2 17556536033606398225
23463225 33 18411702079918502918
23559900 14 18342727495410858234
2748010 2 18337384942151463724
3091708 16 9500305468292917512
335352 9 18265614277957110477
5104073 3 18411985753876271955
6992083 37 18198916824320840529
7364860 26 18340487880219269216
77492 1 18131075982182627503
9709674 26 18334577996329475394
9981440 41 17617371127324305768

>  <PUBCHEM_SHAPE_MULTIPOLES>  (1) 
396.95
7.48
2.84
1.1
2.53
1.1
0.23
-4.93
0.49
1.68
-0.57
-1.14
-0.09
-1.07

>  <PUBCHEM_SHAPE_SELFOVERLAP>  (1) 
870.626

>  <PUBCHEM_SHAPE_VOLUME>  (1) 
213.3

>  <PUBCHEM_COORDINATE_TYPE>  (1) 
2
5
10

$$$$
