34681
     RDKit          3D

  9  9  0  0  0  0  0  0  0  0999 V2000
   -2.8814   -0.9173   -0.0001 Br  0  0  0  0  0  0  0  0  0  0  0  0
    2.8814   -0.9173    0.0004 Br  0  0  0  0  0  0  0  0  0  0  0  0
    0.0001   -0.7196   -0.0006 C   0  0  0  0  0  0  0  0  0  0  0  0
   -1.2079   -0.0222   -0.0001 C   0  0  0  0  0  0  0  0  0  0  0  0
    1.2081   -0.0220   -0.0007 C   0  0  0  0  0  0  0  0  0  0  0  0
    0.0000   -2.2177    0.0005 C   0  0  0  0  0  0  0  0  0  0  0  0
   -1.2080    1.3728    0.0004 C   0  0  0  0  0  0  0  0  0  0  0  0
    1.2078    1.3730   -0.0003 C   0  0  0  0  0  0  0  0  0  0  0  0
   -0.0001    2.0703    0.0003 C   0  0  0  0  0  0  0  0  0  0  0  0
  1  4  1  0
  2  5  1  0
  3  4  2  0
  3  5  1  0
  3  6  1  0
  4  7  1  0
  5  8  2  0
  7  9  2  0
  8  9  1  0
M  END
>  <PUBCHEM_COMPOUND_CID>  (1) 
34681

>  <PUBCHEM_CONFORMER_RMSD>  (1) 
0.4

>  <PUBCHEM_CONFORMER_DIVERSEORDER>  (1) 
1

>  <PUBCHEM_MMFF94_PARTIAL_CHARGES>  (1) 
12
1 -0.11
13 0.15
14 0.15
15 0.15
2 -0.11
3 -0.14
4 0.11
5 0.11
6 0.14
7 -0.15
8 -0.15
9 -0.15

>  <PUBCHEM_EFFECTIVE_ROTOR_COUNT>  (1) 
0

>  <PUBCHEM_PHARMACOPHORE_FEATURES>  (1) 
3
1 1 hydrophobe
1 2 hydrophobe
6 3 4 5 7 8 9 rings

>  <PUBCHEM_HEAVY_ATOM_COUNT>  (1) 
9

>  <PUBCHEM_ATOM_DEF_STEREO_COUNT>  (1) 
0

>  <PUBCHEM_ATOM_UDEF_STEREO_COUNT>  (1) 
0

>  <PUBCHEM_BOND_DEF_STEREO_COUNT>  (1) 
0

>  <PUBCHEM_BOND_UDEF_STEREO_COUNT>  (1) 
0

>  <PUBCHEM_ISOTOPIC_ATOM_COUNT>  (1) 
0

>  <PUBCHEM_COMPONENT_COUNT>  (1) 
1

>  <PUBCHEM_CACTVS_TAUTO_COUNT>  (1) 
1

>  <PUBCHEM_CONFORMER_ID>  (1) 
0000877900000001

>  <PUBCHEM_MMFF94_ENERGY>  (1) 
24.5875

>  <PUBCHEM_FEATURE_SELFOVERLAP>  (1) 
15.223

>  <PUBCHEM_SHAPE_FINGERPRINT>  (1) 
12423570 1 11857799745423044773
16945 1 18410575084663215335
18185500 45 18266457594600803447
20871998 184 18200870669679673190
21040471 1 17834396005189932165
23552423 10 17973453104881527630
241688 4 18410855430063631417
2748010 2 18410003342922496621
5084963 1 18202001027408978675

>  <PUBCHEM_SHAPE_MULTIPOLES>  (1) 
197.1
3.49
2.28
0.65
0
0.27
0
-1.51
0
0
0
0
-0.03
0

>  <PUBCHEM_SHAPE_SELFOVERLAP>  (1) 
378.715

>  <PUBCHEM_SHAPE_VOLUME>  (1) 
123

>  <PUBCHEM_COORDINATE_TYPE>  (1) 
2
5
10

$$$$
