34683
     RDKit          3D

 21 22  0  0  0  0  0  0  0  0999 V2000
    4.5945   -0.9565   -0.2191 O   0  0  0  0  0  0  0  0  0  0  0  0
   -1.6473    0.4617   -0.5016 N   0  0  0  0  0  0  0  0  0  0  0  0
    6.7062    0.0770    0.2342 C   0  0  0  0  0  0  0  0  0  0  0  0
    7.5498    1.3408    0.0927 C   0  0  0  0  0  0  0  0  0  0  0  0
    5.3318    0.2450   -0.3977 C   0  0  0  0  0  0  0  0  0  0  0  0
    8.9054    1.1838    0.7627 C   0  0  0  0  0  0  0  0  0  0  0  0
   -5.8047    0.4493    0.0035 C   0  0  0  0  0  0  0  0  0  0  0  0
    3.2311   -0.8393   -0.1383 C   0  0  0  0  0  0  0  0  0  0  0  0
   -7.2851    0.4434    0.1835 C   0  0  0  0  0  0  0  0  0  0  0  0
    0.4658   -0.6036    0.0223 C   0  0  0  0  0  0  0  0  0  0  0  0
   -4.9965    1.1590    0.8915 C   0  0  0  0  0  0  0  0  0  0  0  0
   -5.2283   -0.2565   -1.0526 C   0  0  0  0  0  0  0  0  0  0  0  0
   -3.0421    0.4570   -0.3318 C   0  0  0  0  0  0  0  0  0  0  0  0
    2.5057   -1.7528    0.6176 C   0  0  0  0  0  0  0  0  0  0  0  0
    2.5883    0.1909   -0.8148 C   0  0  0  0  0  0  0  0  0  0  0  0
   -3.6117    1.1628    0.7234 C   0  0  0  0  0  0  0  0  0  0  0  0
   -3.8436   -0.2527   -1.2206 C   0  0  0  0  0  0  0  0  0  0  0  0
    1.1182   -1.6346    0.6982 C   0  0  0  0  0  0  0  0  0  0  0  0
    1.2009    0.3092   -0.7341 C   0  0  0  0  0  0  0  0  0  0  0  0
   -7.7571   -0.7025    1.0750 C   0  0  0  0  0  0  0  0  0  0  0  0
   -0.9811   -0.4814    0.1062 C   0  0  0  0  0  0  0  0  0  0  0  0
  1  5  1  0
  1  8  1  0
  2 13  1  0
  2 21  2  0
  3  4  1  0
  3  5  1  0
  4  6  1  0
  7  9  1  0
  7 11  2  0
  7 12  1  0
  8 14  2  0
  8 15  1  0
  9 20  1  0
 10 18  2  0
 10 19  1  0
 10 21  1  0
 11 16  1  0
 12 17  2  0
 13 16  2  0
 13 17  1  0
 14 18  1  0
 15 19  2  0
M  END
>  <PUBCHEM_COMPOUND_CID>  (1) 
34683

>  <PUBCHEM_CONFORMER_RMSD>  (1) 
0.8

>  <PUBCHEM_CONFORMER_DIVERSEORDER>  (1) 
1
24
25
12
23
14
22
9
19
4
26
6
27
29
10
21
18
7
8
16
15
20
28
2
17
5
13
11
3

>  <PUBCHEM_MMFF94_PARTIAL_CHARGES>  (1) 
26
1 -0.36
10 0.09
11 -0.15
12 -0.15
13 0.18
14 -0.15
15 -0.15
16 -0.15
17 -0.15
18 -0.15
19 -0.15
2 -0.63
21 0.3
33 0.15
34 0.15
35 0.15
36 0.15
37 0.15
38 0.15
39 0.15
40 0.15
44 0.06
5 0.28
7 -0.14
8 0.08
9 0.14

>  <PUBCHEM_EFFECTIVE_ROTOR_COUNT>  (1) 
7

>  <PUBCHEM_PHARMACOPHORE_FEATURES>  (1) 
6
1 1 acceptor
1 2 acceptor
1 20 hydrophobe
1 6 hydrophobe
6 7 11 12 13 16 17 rings
6 8 10 14 15 18 19 rings

>  <PUBCHEM_HEAVY_ATOM_COUNT>  (1) 
21

>  <PUBCHEM_ATOM_DEF_STEREO_COUNT>  (1) 
0

>  <PUBCHEM_ATOM_UDEF_STEREO_COUNT>  (1) 
0

>  <PUBCHEM_BOND_DEF_STEREO_COUNT>  (1) 
0

>  <PUBCHEM_BOND_UDEF_STEREO_COUNT>  (1) 
0

>  <PUBCHEM_ISOTOPIC_ATOM_COUNT>  (1) 
0

>  <PUBCHEM_COMPONENT_COUNT>  (1) 
1

>  <PUBCHEM_CACTVS_TAUTO_COUNT>  (1) 
1

>  <PUBCHEM_CONFORMER_ID>  (1) 
0000877B00000001

>  <PUBCHEM_MMFF94_ENERGY>  (1) 
53.2883

>  <PUBCHEM_FEATURE_SELFOVERLAP>  (1) 
30.446

>  <PUBCHEM_SHAPE_FINGERPRINT>  (1) 
10 15 16805326617625775596
106641 1 18260550043189409809
10883706 142 18272087202290070226
10968037 39 18131348605811899069
11315181 36 17988925566300151417
11408170 108 12324507711289096928
11638347 137 17167856445006456114
11719270 70 15502374509277651434
11724838 91 18040155136325063907
12236239 1 18341896238818884991
12592606 108 9223226343153996377
12741549 16 16443060604300591805
13073987 5 17749666268905790085
13540713 5 16880211167860124158
13631057 29 18337105795717524891
14123256 10 18343864424577692320
14216079 64 9007067859751212424
14251764 18 18040435512090645262
14251764 46 18186519908037568225
14849402 71 18341613771705619272
14933364 13 17203326715128904672
15048467 5 18201718458064822932
15183329 4 10735879469472273300
15690457 1 13190339084767509288
15706992 2 18341902930874168264
18006028 8 9007060171511696246
200 152 18113337471572526957
20281389 69 18261388932587347988
20735858 18 17603303752467568134
21130935 74 17895473609719740723
21150785 3 16630527345520908312
21304303 172 8718559327936775198
21792961 116 14404913457681108374
21795232 338 17560234872923110711
220451 1 16271922688593755095
22224240 67 17894349986419513810
2297311 6 16128654137809635073
23536379 177 17561083571086622086
23559900 14 14836112261198301959
28498 318 9439409021114685520
34797466 226 17417817240558228788
3545911 37 18041000635302897079
4073 2 18273217508148290846
4325135 7 17989487428703940432
4340502 62 15936408927781827842
5104073 3 17242163553197430792
5283156 175 14979962446240579270
542803 24 17632291251131190159
543368 44 18342455928739271249
559249 180 10737295653756120625
5758199 1 18410575085169624162
59682541 35 18113621213384881792
59755656 215 11743845750350471132

>  <PUBCHEM_SHAPE_MULTIPOLES>  (1) 
421.32
24.56
1.35
1.02
16.73
0.22
0.04
-8.59
-5.36
1.09
-0.34
-0.81
0.01
0

>  <PUBCHEM_SHAPE_SELFOVERLAP>  (1) 
874.67

>  <PUBCHEM_SHAPE_VOLUME>  (1) 
241

>  <PUBCHEM_COORDINATE_TYPE>  (1) 
2
5
10

$$$$
