34698
     RDKit          3D

 46 53  0  0  1  0  0  0  0  0999 V2000
    8.8613    2.2699    0.3130 S   0  0  0  0  0  0  0  0  0  0  0  0
    0.5988   -0.9082   -1.2393 O   0  0  0  0  0  0  0  0  0  0  0  0
   -1.1212    2.7415   -1.8253 O   0  0  0  0  0  0  0  0  0  0  0  0
    2.3223    0.3067   -0.2304 O   0  0  0  0  0  0  0  0  0  0  0  0
    5.9672    0.0545   -0.3772 O   0  0  0  0  0  0  0  0  0  0  0  0
   -3.1827    2.4055   -2.7928 O   0  0  0  0  0  0  0  0  0  0  0  0
    2.5505   -2.7374   -2.2769 O   0  0  0  0  0  0  0  0  0  0  0  0
    5.3599    1.6100    1.3453 O   0  0  0  0  0  0  0  0  0  0  0  0
    5.1225   -1.4574   -2.7153 O   0  0  0  0  0  0  0  0  0  0  0  0
   -1.5921   -5.0074    1.4495 O   0  0  0  0  0  0  0  0  0  0  0  0
   -3.8378   -4.8577    0.5911 O   0  0  0  0  0  0  0  0  0  0  0  0
   -4.6138    1.1587    3.1938 O   0  0  0  0  0  0  0  0  0  0  0  0
   -7.0456    2.6318   -0.6601 O   0  0  0  0  0  0  0  0  0  0  0  0
   -6.6975    2.6101    2.0872 O   0  0  0  0  0  0  0  0  0  0  0  0
   -0.9905    0.7874   -0.5878 C   0  0  0  0  0  0  0  0  0  0  0  0
   -1.9943    0.5711   -1.7069 C   0  0  0  0  0  0  0  0  0  0  0  0
   -0.3139   -0.5246   -0.2112 C   0  0  0  0  0  0  0  0  0  0  0  0
   -3.1786   -0.2888   -1.2405 C   0  0  0  0  0  0  0  0  0  0  0  0
   -1.3347   -1.6316   -0.0078 C   0  0  0  0  0  0  0  0  0  0  0  0
   -2.6674   -1.5414   -0.5161 C   0  0  0  0  0  0  0  0  0  0  0  0
   -0.1540    1.9068   -1.1609 C   0  0  0  0  0  0  0  0  0  0  0  0
   -2.2185    1.9877   -2.1730 C   0  0  0  0  0  0  0  0  0  0  0  0
    1.9375   -0.9686   -0.7485 C   0  0  0  0  0  0  0  0  0  0  0  0
   -4.1136    0.4820   -0.3561 C   0  0  0  0  0  0  0  0  0  0  0  0
    2.8441   -1.3892   -1.9114 C   0  0  0  0  0  0  0  0  0  0  0  0
    4.6345    0.0437   -0.8909 C   0  0  0  0  0  0  0  0  0  0  0  0
    4.3271   -1.3030   -1.5395 C   0  0  0  0  0  0  0  0  0  0  0  0
    3.6582    0.2956    0.2563 C   0  0  0  0  0  0  0  0  0  0  0  0
   -0.9226   -2.7950    0.6688 C   0  0  0  0  0  0  0  0  0  0  0  0
   -3.5567   -2.6195   -0.3380 C   0  0  0  0  0  0  0  0  0  0  0  0
    3.9997    1.6272    0.9126 C   0  0  0  0  0  0  0  0  0  0  0  0
   -1.8296   -3.8221    0.8242 C   0  0  0  0  0  0  0  0  0  0  0  0
   -3.1092   -3.7373    0.3340 C   0  0  0  0  0  0  0  0  0  0  0  0
   -5.1560    1.2073   -0.9223 C   0  0  0  0  0  0  0  0  0  0  0  0
   -3.9293    0.4646    1.0220 C   0  0  0  0  0  0  0  0  0  0  0  0
    6.2460    1.3076    0.2610 C   0  0  0  0  0  0  0  0  0  0  0  0
   -4.7984    1.1816    1.8444 C   0  0  0  0  0  0  0  0  0  0  0  0
   -6.0250    1.9244   -0.0999 C   0  0  0  0  0  0  0  0  0  0  0  0
   -2.8705   -5.6579    1.3006 C   0  0  0  0  0  0  0  0  0  0  0  0
   -5.8462    1.9116    1.2834 C   0  0  0  0  0  0  0  0  0  0  0  0
    7.6304    1.2001    0.8451 C   0  0  0  0  0  0  0  0  0  0  0  0
    8.0975    0.3205    1.8020 C   0  0  0  0  0  0  0  0  0  0  0  0
    9.4756    0.5283    2.0988 C   0  0  0  0  0  0  0  0  0  0  0  0
   10.0145    1.5581    1.3598 C   0  0  0  0  0  0  0  0  0  0  0  0
   -3.7707    2.1658    3.7498 C   0  0  0  0  0  0  0  0  0  0  0  0
   -6.7770    3.9869   -1.0147 C   0  0  0  0  0  0  0  0  0  0  0  0
  1 41  1  0
  1 44  1  0
  2 17  1  0
  2 23  1  0
  3 21  1  0
  3 22  1  0
  4 23  1  0
  4 28  1  0
  5 26  1  0
  5 36  1  0
  6 22  2  0
  7 25  1  0
  8 31  1  0
  8 36  1  0
  9 27  1  0
 10 32  1  0
 10 39  1  0
 11 33  1  0
 11 39  1  0
 12 37  1  0
 12 45  1  0
 13 38  1  0
 13 46  1  0
 14 40  1  0
 15 16  1  0
 15 17  1  0
 15 21  1  0
 16 18  1  0
 16 22  1  0
 17 19  1  0
 18 20  1  0
 18 24  1  0
 19 20  2  0
 19 29  1  0
 20 30  1  0
 23 25  1  0
 24 34  2  0
 24 35  1  0
 25 27  1  0
 26 27  1  0
 26 28  1  0
 28 31  1  0
 29 32  2  0
 30 33  2  0
 32 33  1  0
 34 38  1  0
 35 37  2  0
 36 41  1  0
 37 40  1  0
 38 40  2  0
 41 42  2  0
 42 43  1  0
 43 44  2  0
M  END
>  <PUBCHEM_COMPOUND_CID>  (1) 
34698

>  <PUBCHEM_CONFORMER_RMSD>  (1) 
1.2

>  <PUBCHEM_CONFORMER_DIVERSEORDER>  (1) 
1
9
11
5
6
2
3
12
4
8
7
10

>  <PUBCHEM_MMFF94_PARTIAL_CHARGES>  (1) 
55
1 -0.08
10 -0.36
11 -0.36
12 -0.36
13 -0.36
14 -0.53
16 0.06
17 0.42
18 0.29
19 -0.14
2 -0.56
20 -0.14
21 0.28
22 0.66
23 0.56
24 -0.14
25 0.28
26 0.28
27 0.28
28 0.28
29 -0.15
3 -0.43
30 -0.15
31 0.28
32 0.08
33 0.08
34 -0.15
35 -0.15
36 0.74
37 0.08
38 0.08
39 0.56
4 -0.56
40 0.08
41 -0.14
42 -0.15
43 -0.15
44 -0.11
45 0.28
46 0.28
5 -0.56
58 0.15
59 0.15
6 -0.57
62 0.15
63 0.15
65 0.4
66 0.4
69 0.15
7 -0.68
70 0.45
71 0.15
72 0.15
8 -0.56
9 -0.68

>  <PUBCHEM_EFFECTIVE_ROTOR_COUNT>  (1) 
9

>  <PUBCHEM_PHARMACOPHORE_FEATURES>  (1) 
22
1 10 acceptor
1 11 acceptor
1 12 acceptor
1 13 acceptor
1 14 donor
1 2 acceptor
1 4 acceptor
1 5 acceptor
1 6 acceptor
1 7 acceptor
1 7 donor
1 8 acceptor
1 9 acceptor
1 9 donor
5 1 41 42 43 44 rings
5 10 11 32 33 39 rings
5 3 15 16 21 22 rings
6 15 16 17 18 19 20 rings
6 19 20 29 30 32 33 rings
6 24 34 35 37 38 40 rings
6 4 23 25 26 27 28 rings
6 5 8 26 28 31 36 rings

>  <PUBCHEM_HEAVY_ATOM_COUNT>  (1) 
46

>  <PUBCHEM_ATOM_DEF_STEREO_COUNT>  (1) 
9

>  <PUBCHEM_ATOM_UDEF_STEREO_COUNT>  (1) 
1

>  <PUBCHEM_BOND_DEF_STEREO_COUNT>  (1) 
0

>  <PUBCHEM_BOND_UDEF_STEREO_COUNT>  (1) 
0

>  <PUBCHEM_ISOTOPIC_ATOM_COUNT>  (1) 
0

>  <PUBCHEM_COMPONENT_COUNT>  (1) 
1

>  <PUBCHEM_CACTVS_TAUTO_COUNT>  (1) 
4

>  <PUBCHEM_CONFORMER_ID>  (1) 
0000878A00000001

>  <PUBCHEM_MMFF94_ENERGY>  (1) 
153.1902

>  <PUBCHEM_FEATURE_SELFOVERLAP>  (1) 
112.03

>  <PUBCHEM_SHAPE_FINGERPRINT>  (1) 
10290309 65 18115862993055722287
10816530 145 18410857680748346617
10930396 42 18260822700778142709
11007060 377 18412549795547899335
12128747 34 17846512425632700577
13383668 254 16701737280607943642
13560911 23 18265601256001169938
14068700 675 18048596225253673103
14705955 166 18129676308260456483
15289351 153 17275102805058930352
15324884 4 17985579777158862727
16114785 44 18263351517830368221
21033648 29 18261958431806993437
22122407 14 17060622234831562120
24771293 8 18411694370732490189
255183 313 18187372017149684303
3886686 26 18265328594208407257
4073 2 18341899614869330382
4403749 210 18130219480327108262
4616759 239 18272086140895293058
5080951 261 18187356679442025991
57527293 21 17968383459051231196
6009941 240 18272651272855546384
6691757 9 18261385676443195791
6695519 79 18119541946863491657
6698420 124 18271257001653443003
9896288 288 18263923409484238978

>  <PUBCHEM_SHAPE_MULTIPOLES>  (1) 
874.21
23.68
5.4
2.64
58.65
7.84
-0.88
-21.56
-12.21
-11.13
-1.5
-1.3
-1.19
2.75

>  <PUBCHEM_SHAPE_SELFOVERLAP>  (1) 
1935.917

>  <PUBCHEM_SHAPE_VOLUME>  (1) 
472.8

>  <PUBCHEM_COORDINATE_TYPE>  (1) 
2
5
10

$$$$
