34691
     RDKit          3D

  8  7  0  0  1  0  0  0  0  0999 V2000
    2.4535    1.5908   -0.2836 Cl  0  0  0  0  0  0  0  0  0  0  0  0
   -0.3233    0.1952    0.3339 C   0  0  0  0  0  0  0  0  0  0  0  0
    0.8779   -0.6493   -0.1060 C   0  0  0  0  0  0  0  0  0  0  0  0
   -1.6383   -0.4164   -0.1559 C   0  0  0  0  0  0  0  0  0  0  0  0
    2.2257   -0.0697    0.3435 C   0  0  0  0  0  0  0  0  0  0  0  0
   -2.8369    0.4373    0.2576 C   0  0  0  0  0  0  0  0  0  0  0  0
    3.3836   -0.9385   -0.1336 C   0  0  0  0  0  0  0  0  0  0  0  0
   -4.1421   -0.1494   -0.2558 C   0  0  0  0  0  0  0  0  0  0  0  0
  1  5  1  0
  2  3  1  0
  2  4  1  0
  3  5  1  0
  4  6  1  0
  5  7  1  0
  6  8  1  0
M  END
>  <PUBCHEM_COMPOUND_CID>  (1) 
34691

>  <PUBCHEM_CONFORMER_RMSD>  (1) 
0.6

>  <PUBCHEM_CONFORMER_DIVERSEORDER>  (1) 
1
26
18
47
2
31
15
35
52
40
41
3
39
53
42
5
33
46
34
28
10
43
29
6
38
50
20
23
44
30
48
13
51
22
32
49
36
16
4
11
37
19
12
45
7
9
8
27
14
17
25
21
24

>  <PUBCHEM_MMFF94_PARTIAL_CHARGES>  (1) 
2
1 -0.29
5 0.29

>  <PUBCHEM_EFFECTIVE_ROTOR_COUNT>  (1) 
4

>  <PUBCHEM_PHARMACOPHORE_FEATURES>  (1) 
2
1 8 hydrophobe
4 2 3 4 6 hydrophobe

>  <PUBCHEM_HEAVY_ATOM_COUNT>  (1) 
8

>  <PUBCHEM_ATOM_DEF_STEREO_COUNT>  (1) 
0

>  <PUBCHEM_ATOM_UDEF_STEREO_COUNT>  (1) 
1

>  <PUBCHEM_BOND_DEF_STEREO_COUNT>  (1) 
0

>  <PUBCHEM_BOND_UDEF_STEREO_COUNT>  (1) 
0

>  <PUBCHEM_ISOTOPIC_ATOM_COUNT>  (1) 
0

>  <PUBCHEM_COMPONENT_COUNT>  (1) 
1

>  <PUBCHEM_CACTVS_TAUTO_COUNT>  (1) 
1

>  <PUBCHEM_CONFORMER_ID>  (1) 
0000878300000001

>  <PUBCHEM_MMFF94_ENERGY>  (1) 
-0.1272

>  <PUBCHEM_FEATURE_SELFOVERLAP>  (1) 
10.149

>  <PUBCHEM_SHAPE_FINGERPRINT>  (1) 
11062470 55 10953461821208402307
12932741 1 17677063424569587466
12932764 1 17240472620024580243
14325111 11 18410575110696685291
14390081 3 18333449863260996361
190213 19 18201717349441021179
20606313 2 18408602591052691004
22485316 2 9511458910102649017
3248919 1 17775295958006014043
5460574 1 10809345533694700323

>  <PUBCHEM_SHAPE_MULTIPOLES>  (1) 
166.51
7.01
1.18
0.68
4.42
0.38
0
-0.21
0.54
-1.14
0.11
-0.01
0.02
-0.16

>  <PUBCHEM_SHAPE_SELFOVERLAP>  (1) 
282.138

>  <PUBCHEM_SHAPE_VOLUME>  (1) 
112.7

>  <PUBCHEM_COORDINATE_TYPE>  (1) 
2
5
10

$$$$
