34705
     RDKit          3D

 22 23  0  0  0  0  0  0  0  0999 V2000
    0.1214    1.5610    0.0993 O   0  0  0  0  0  0  0  0  0  0  0  0
   -1.5678    0.1015    1.0425 O   0  0  0  0  0  0  0  0  0  0  0  0
    1.8263    0.7996   -1.9603 O   0  0  0  0  0  0  0  0  0  0  0  0
   -0.2118   -2.3079    1.3321 O   0  0  0  0  0  0  0  0  0  0  0  0
   -3.2083    2.2838    1.3861 O   0  0  0  0  0  0  0  0  0  0  0  0
   -2.1125    3.1266   -0.4164 O   0  0  0  0  0  0  0  0  0  0  0  0
   -1.0234    1.4177    0.9417 C   0  0  0  0  0  0  0  0  0  0  0  0
    1.2771    0.8921    0.3684 C   0  0  0  0  0  0  0  0  0  0  0  0
   -1.4212   -0.7470   -0.0219 C   0  0  0  0  0  0  0  0  0  0  0  0
    2.1327    0.5103   -0.6649 C   0  0  0  0  0  0  0  0  0  0  0  0
   -0.7420   -1.9518    0.1288 C   0  0  0  0  0  0  0  0  0  0  0  0
    1.6020    0.5890    1.6907 C   0  0  0  0  0  0  0  0  0  0  0  0
   -1.9594   -0.3894   -1.2543 C   0  0  0  0  0  0  0  0  0  0  0  0
    3.3132   -0.1744   -0.3761 C   0  0  0  0  0  0  0  0  0  0  0  0
   -0.5992   -2.8074   -0.9635 C   0  0  0  0  0  0  0  0  0  0  0  0
    2.7826   -0.0956    1.9796 C   0  0  0  0  0  0  0  0  0  0  0  0
   -1.8168   -1.2450   -2.3467 C   0  0  0  0  0  0  0  0  0  0  0  0
    3.6380   -0.4772    0.9462 C   0  0  0  0  0  0  0  0  0  0  0  0
   -1.1368   -2.4540   -2.2012 C   0  0  0  0  0  0  0  0  0  0  0  0
   -2.1415    2.3771    0.5507 C   0  0  0  0  0  0  0  0  0  0  0  0
    2.2964    2.0437   -2.4753 C   0  0  0  0  0  0  0  0  0  0  0  0
   -1.0490   -3.0528    2.2143 C   0  0  0  0  0  0  0  0  0  0  0  0
  1  7  1  0
  1  8  1  0
  2  7  1  0
  2  9  1  0
  3 10  1  0
  3 21  1  0
  4 11  1  0
  4 22  1  0
  5 20  1  0
  6 20  2  0
  7 20  1  0
  8 10  2  0
  8 12  1  0
  9 11  2  0
  9 13  1  0
 10 14  1  0
 11 15  1  0
 12 16  2  0
 13 17  2  0
 14 18  2  0
 15 19  2  0
 16 18  1  0
 17 19  1  0
M  END
>  <PUBCHEM_COMPOUND_CID>  (1) 
34705

>  <PUBCHEM_CONFORMER_RMSD>  (1) 
0.8

>  <PUBCHEM_CONFORMER_DIVERSEORDER>  (1) 
2
182
95
12
176
210
139
160
243
27
31
181
68
75
238
208
76
71
109
156
138
16
230
134
116
79
5
205
178
112
150
197
74
140
8
117
186
193
159
241
187
48
201
244
108
231
141
3
94
213
35
237
80
147
143
114
13
165
157
29
38
132
185
183
1
83
119
151
206
207
226
200
87
135
229
129
146
82
184
30
99
204
149
41
58
64
198
228
170
122
78
163
214
73
232
219
91
33
154
49
67
236
85
155
61
164
121
137
179
89
172
102
110
18
17
56
142
222
161
158
215
44
203
86
97
60
37
212
131
24
191
52
136
239
59
195
9
84
26
6
211
125
62
100
188
113
218
153
96
148
42
47
190
40
92
88
246
70
224
174
234
106
202
128
120
43
227
103
235
101
7
118
123
194
25
225
69
177
175
192
39
130
63
98
221
115
162
53
199
20
126
167
168
55
240
10
245
133
233
23
111
51
196
171
90
173
22
81
32
220
54
14
209
21
28
77
180
50
169
223
93
166
104
127
11
152
34
124
66
145
105
57
144
242
4
46
15
189
216
107
45
72
217
36
65
19

>  <PUBCHEM_MMFF94_PARTIAL_CHARGES>  (1) 
31
1 -0.36
10 0.08
11 0.08
12 -0.15
13 -0.15
14 -0.15
15 -0.15
16 -0.15
17 -0.15
18 -0.15
19 -0.15
2 -0.36
20 0.66
21 0.28
22 0.28
24 0.15
25 0.15
26 0.15
27 0.15
28 0.15
29 0.15
3 -0.36
30 0.15
31 0.15
38 0.5
4 -0.36
5 -0.65
6 -0.57
7 0.62
8 0.08
9 0.08

>  <PUBCHEM_EFFECTIVE_ROTOR_COUNT>  (1) 
7

>  <PUBCHEM_PHARMACOPHORE_FEATURES>  (1) 
9
1 1 acceptor
1 2 acceptor
1 3 acceptor
1 4 acceptor
1 5 acceptor
1 6 acceptor
3 5 6 20 anion
6 8 10 12 14 16 18 rings
6 9 11 13 15 17 19 rings

>  <PUBCHEM_HEAVY_ATOM_COUNT>  (1) 
22

>  <PUBCHEM_ATOM_DEF_STEREO_COUNT>  (1) 
0

>  <PUBCHEM_ATOM_UDEF_STEREO_COUNT>  (1) 
0

>  <PUBCHEM_BOND_DEF_STEREO_COUNT>  (1) 
0

>  <PUBCHEM_BOND_UDEF_STEREO_COUNT>  (1) 
0

>  <PUBCHEM_ISOTOPIC_ATOM_COUNT>  (1) 
0

>  <PUBCHEM_COMPONENT_COUNT>  (1) 
1

>  <PUBCHEM_CACTVS_TAUTO_COUNT>  (1) 
1

>  <PUBCHEM_CONFORMER_ID>  (1) 
0000879100000002

>  <PUBCHEM_MMFF94_ENERGY>  (1) 
94.9391

>  <PUBCHEM_FEATURE_SELFOVERLAP>  (1) 
45.778

>  <PUBCHEM_SHAPE_FINGERPRINT>  (1) 
107951 10 18046377178522749766
12035759 4 17841114837527122791
133893 2 17330864334322415769
14181834 199 17475218112337371925
14817 1 9623010313001164924
16752209 62 18343302574114637509
16945 1 18128510799916743818
17492 54 14800872582958420702
19930381 70 16405629642051336238
20600515 1 16983766530847790846
20645476 183 18116456802491492256
20691752 17 16886426375973492441
20905425 154 17258507638650853812
21524375 3 18269274565055997337
21731516 1 17768262554022205662
22889148 1 17988097654516991925
229495 10 16660930014270312261
22956985 138 17833285121022156323
23419403 2 14591410364947711051
23559900 14 17703226197343906582
7364860 26 17123672358989344617
81228 2 18198606908313529441
90525 40 18262249815072795168

>  <PUBCHEM_SHAPE_MULTIPOLES>  (1) 
417.53
4.51
3.49
2.54
3.43
1.08
-0.77
-0.03
-0.25
-3.24
0.71
0.11
-0.63
-1.49

>  <PUBCHEM_SHAPE_SELFOVERLAP>  (1) 
885.803

>  <PUBCHEM_SHAPE_VOLUME>  (1) 
232.7

>  <PUBCHEM_COORDINATE_TYPE>  (1) 
2
5
10

$$$$
