34713
     RDKit          3D

 16 16  0  0  1  0  0  0  0  0999 V2000
   -4.1765    1.2337   -0.0247 O   0  0  0  0  0  0  0  0  0  0  0  0
   -5.5932   -1.4104   -0.2622 O   0  0  0  0  0  0  0  0  0  0  0  0
   -3.1030    0.3186   -0.3202 C   0  0  0  0  0  0  0  0  0  0  0  0
   -3.3573   -0.9434    0.5129 C   0  0  0  0  0  0  0  0  0  0  0  0
   -1.7830    0.9877    0.0593 C   0  0  0  0  0  0  0  0  0  0  0  0
   -4.8366   -0.8738    0.8152 C   0  0  0  0  0  0  0  0  0  0  0  0
   -0.5937    0.0628   -0.2035 C   0  0  0  0  0  0  0  0  0  0  0  0
   -5.0815    0.6156    0.9028 C   0  0  0  0  0  0  0  0  0  0  0  0
   -3.1308    0.0381   -1.8240 C   0  0  0  0  0  0  0  0  0  0  0  0
    0.7547    0.6849    0.1740 C   0  0  0  0  0  0  0  0  0  0  0  0
    1.9492   -0.2129   -0.1592 C   0  0  0  0  0  0  0  0  0  0  0  0
    3.3004    0.4333    0.1631 C   0  0  0  0  0  0  0  0  0  0  0  0
    4.4951   -0.4721   -0.1453 C   0  0  0  0  0  0  0  0  0  0  0  0
    5.8165    0.2155    0.2060 C   0  0  0  0  0  0  0  0  0  0  0  0
    7.0131   -0.6716   -0.1364 C   0  0  0  0  0  0  0  0  0  0  0  0
    8.3266   -0.0058    0.2421 C   0  0  0  0  0  0  0  0  0  0  0  0
  1  3  1  0
  1  8  1  0
  2  6  1  0
  3  4  1  0
  3  5  1  0
  3  9  1  0
  4  6  1  0
  5  7  1  0
  6  8  1  0
  7 10  1  0
 10 11  1  0
 11 12  1  0
 12 13  1  0
 13 14  1  0
 14 15  1  0
 15 16  1  0
M  END
>  <PUBCHEM_COMPOUND_CID>  (1) 
34713

>  <PUBCHEM_CONFORMER_RMSD>  (1) 
1

>  <PUBCHEM_CONFORMER_DIVERSEORDER>  (1) 
1
317
84
58
546
108
401
111
482
31
115
505
104
417
337
443
5
306
3
91
246
15
393
93
375
153
231
63
55
62
196
503
175
313
484
38
202
140
341
8
331
11
56
57
465
430
9
388
259
541
316
220
2
360
29
160
374
400
448
37
193
500
161
407
377
476
358
20
382
384
372
215
347
66
438
475
59
25
504
12
28
325
164
149
146
26
272
72
330
454
6
90
312
34
61
172
16
446
355
36
141
212
535
356
168
235
383
262
332
163
399
463
79
344
47
151
117
480
180
414
162
76
4
456
411
245
354
106
101
82
43
402
453
211
419
389
310
478
394
385
54
191
74

>  <PUBCHEM_MMFF94_PARTIAL_CHARGES>  (1) 
6
1 -0.56
2 -0.68
3 0.28
35 0.4
6 0.28
8 0.28

>  <PUBCHEM_EFFECTIVE_ROTOR_COUNT>  (1) 
9

>  <PUBCHEM_PHARMACOPHORE_FEATURES>  (1) 
5
1 1 acceptor
1 16 hydrophobe
1 2 acceptor
1 2 donor
5 1 3 4 6 8 rings

>  <PUBCHEM_HEAVY_ATOM_COUNT>  (1) 
16

>  <PUBCHEM_ATOM_DEF_STEREO_COUNT>  (1) 
0

>  <PUBCHEM_ATOM_UDEF_STEREO_COUNT>  (1) 
2

>  <PUBCHEM_BOND_DEF_STEREO_COUNT>  (1) 
0

>  <PUBCHEM_BOND_UDEF_STEREO_COUNT>  (1) 
0

>  <PUBCHEM_ISOTOPIC_ATOM_COUNT>  (1) 
0

>  <PUBCHEM_COMPONENT_COUNT>  (1) 
1

>  <PUBCHEM_CACTVS_TAUTO_COUNT>  (1) 
1

>  <PUBCHEM_CONFORMER_ID>  (1) 
0000879900000001

>  <PUBCHEM_MMFF94_ENERGY>  (1) 
21.4776

>  <PUBCHEM_FEATURE_SELFOVERLAP>  (1) 
25.372

>  <PUBCHEM_SHAPE_FINGERPRINT>  (1) 
10968037 39 18040436594163850162
11089746 13 10303807670992451170
11315181 36 18259705609928007233
12091667 2 17918272043493064708
12166972 35 17312828191063609372
12616971 3 17775000228444616700
13288520 33 18040716983093960149
13533116 47 16588013577888292328
14123256 10 14923943453195292778
1420 363 18412547604998520534
14251718 22 17458063759896637544
14251764 18 16559028307405211934
14251764 46 18131633387227742174
14729087 3 9655576293059975290
15048467 5 11240002248188624074
15716309 27 18343021111822446486
17093844 174 17918270939760283913
17834072 8 11241971482246297718
17834076 25 14045741521879563752
17844677 252 18410299116156883696
19489759 90 14779265302239013260
20281389 69 12391517468833890450
21150785 3 13695873644903385514
220451 1 17458626692659679562
23035841 295 18259987072177876914
23402539 116 18411698777088860172
23559900 14 16660933312473074885
42788 4 18409167710386284568
4325135 7 17458062668431963178
57583515 80 8790886285237584214
8209 1 18260830392800351104

>  <PUBCHEM_SHAPE_MULTIPOLES>  (1) 
317.53
20.41
1.06
0.96
36.63
0.08
0.31
3.72
-2.1
-1.21
-0.06
-1.15
-0.01
0.19

>  <PUBCHEM_SHAPE_SELFOVERLAP>  (1) 
604.637

>  <PUBCHEM_SHAPE_VOLUME>  (1) 
197.1

>  <PUBCHEM_COORDINATE_TYPE>  (1) 
2
5
10

$$$$
