34711
     RDKit          3D

 12 12  0  0  1  0  0  0  0  0999 V2000
    0.9181    0.0999   -1.2851 O   0  0  0  0  0  0  0  0  0  0  0  0
    2.8548    0.3775    1.0006 O   0  0  0  0  0  0  0  0  0  0  0  0
    0.1032   -0.2002   -0.1348 C   0  0  0  0  0  0  0  0  0  0  0  0
    0.9498   -1.0867    0.7866 C   0  0  0  0  0  0  0  0  0  0  0  0
   -0.2785    1.1267    0.5247 C   0  0  0  0  0  0  0  0  0  0  0  0
   -1.1548   -0.9237   -0.6126 C   0  0  0  0  0  0  0  0  0  0  0  0
    2.3678   -0.7913    0.3540 C   0  0  0  0  0  0  0  0  0  0  0  0
    2.2063   -0.5129   -1.1233 C   0  0  0  0  0  0  0  0  0  0  0  0
   -1.1466    1.9539   -0.4026 C   0  0  0  0  0  0  0  0  0  0  0  0
   -2.0413   -1.2909    0.5620 C   0  0  0  0  0  0  0  0  0  0  0  0
   -1.5011    3.2816    0.2464 C   0  0  0  0  0  0  0  0  0  0  0  0
   -3.2778   -2.0340    0.0841 C   0  0  0  0  0  0  0  0  0  0  0  0
  1  3  1  0
  1  8  1  0
  2  7  1  0
  3  4  1  0
  3  5  1  0
  3  6  1  0
  4  7  1  0
  5  9  1  0
  6 10  1  0
  7  8  1  0
  9 11  1  0
 10 12  1  0
M  END
>  <PUBCHEM_COMPOUND_CID>  (1) 
34711

>  <PUBCHEM_CONFORMER_RMSD>  (1) 
0.6

>  <PUBCHEM_CONFORMER_DIVERSEORDER>  (1) 
4
9
13
14
15
16
8
6
3
11
5
12
10
1
7
2

>  <PUBCHEM_MMFF94_PARTIAL_CHARGES>  (1) 
6
1 -0.56
2 -0.68
26 0.4
3 0.28
7 0.28
8 0.28

>  <PUBCHEM_EFFECTIVE_ROTOR_COUNT>  (1) 
5

>  <PUBCHEM_PHARMACOPHORE_FEATURES>  (1) 
6
1 1 acceptor
1 11 hydrophobe
1 12 hydrophobe
1 2 acceptor
1 2 donor
5 1 3 4 7 8 rings

>  <PUBCHEM_HEAVY_ATOM_COUNT>  (1) 
12

>  <PUBCHEM_ATOM_DEF_STEREO_COUNT>  (1) 
0

>  <PUBCHEM_ATOM_UDEF_STEREO_COUNT>  (1) 
1

>  <PUBCHEM_BOND_DEF_STEREO_COUNT>  (1) 
0

>  <PUBCHEM_BOND_UDEF_STEREO_COUNT>  (1) 
0

>  <PUBCHEM_ISOTOPIC_ATOM_COUNT>  (1) 
0

>  <PUBCHEM_COMPONENT_COUNT>  (1) 
1

>  <PUBCHEM_CACTVS_TAUTO_COUNT>  (1) 
1

>  <PUBCHEM_CONFORMER_ID>  (1) 
0000879700000004

>  <PUBCHEM_MMFF94_ENERGY>  (1) 
25.5918

>  <PUBCHEM_FEATURE_SELFOVERLAP>  (1) 
30.447

>  <PUBCHEM_SHAPE_FINGERPRINT>  (1) 
1 1 17112410018478495069
12138202 97 18053957147001067758
12423570 1 17099179702504123158
12716758 59 18125161532863819758
12725867 57 18196369436542079899
13538477 17 18187654543976430349
13898156 1 17750532709848843990
14817 1 14730867437499560565
16945 1 18337113354252479445
18380122 1 18060134366756307162
18410436 195 18266175218071305335
19021347 4 17833832673084622409
20388701 513 18411976962162644793
20653091 64 17908434889227241347
20711985 327 18196653114800382523
20711985 344 18338254668902630943
21040471 1 17977670805430756660
21524375 3 17621309148335656013
21930827 45 18126012567695937700
228727 97 17897471555501431902
23419403 2 17684611657704406301
2748010 2 18341039835087944405
305870 269 17112689294126300352
7364860 26 17692256652620880011
81228 2 18337399253335687985

>  <PUBCHEM_SHAPE_MULTIPOLES>  (1) 
235.22
3.89
2.76
1.05
0.27
2.53
-0.13
-1.91
0.36
-3.1
0.26
0.5
-0.07
0.08

>  <PUBCHEM_SHAPE_SELFOVERLAP>  (1) 
457.843

>  <PUBCHEM_SHAPE_VOLUME>  (1) 
143.7

>  <PUBCHEM_COORDINATE_TYPE>  (1) 
2
5
10

$$$$
