34710
     RDKit          3D

 11 11  0  0  1  0  0  0  0  0999 V2000
   -0.6508   -0.8343    0.6809 O   0  0  0  0  0  0  0  0  0  0  0  0
   -3.3908    0.3967    0.5012 O   0  0  0  0  0  0  0  0  0  0  0  0
   -0.4174    0.3597   -0.0919 C   0  0  0  0  0  0  0  0  0  0  0  0
   -1.5778    0.4744   -1.0878 C   0  0  0  0  0  0  0  0  0  0  0  0
    0.9256    0.2154   -0.8057 C   0  0  0  0  0  0  0  0  0  0  0  0
   -2.6669   -0.3634   -0.4578 C   0  0  0  0  0  0  0  0  0  0  0  0
   -1.8793   -1.4411    0.2522 C   0  0  0  0  0  0  0  0  0  0  0  0
   -0.3660    1.5407    0.8796 C   0  0  0  0  0  0  0  0  0  0  0  0
    2.0688    0.0635    0.1932 C   0  0  0  0  0  0  0  0  0  0  0  0
    3.4064   -0.1128   -0.5251 C   0  0  0  0  0  0  0  0  0  0  0  0
    4.5483   -0.2988    0.4612 C   0  0  0  0  0  0  0  0  0  0  0  0
  1  3  1  0
  1  7  1  0
  2  6  1  0
  3  4  1  0
  3  5  1  0
  3  8  1  0
  4  6  1  0
  5  9  1  0
  6  7  1  0
  9 10  1  0
 10 11  1  0
M  END
>  <PUBCHEM_COMPOUND_CID>  (1) 
34710

>  <PUBCHEM_CONFORMER_RMSD>  (1) 
0.6

>  <PUBCHEM_CONFORMER_DIVERSEORDER>  (1) 
12
22
25
24
17
29
14
16
23
1
26
13
20
27
8
19
28
18
10
6
4
15
21
5
9
3
2
11
7

>  <PUBCHEM_MMFF94_PARTIAL_CHARGES>  (1) 
6
1 -0.56
2 -0.68
26 0.4
3 0.28
6 0.28
7 0.28

>  <PUBCHEM_EFFECTIVE_ROTOR_COUNT>  (1) 
4

>  <PUBCHEM_PHARMACOPHORE_FEATURES>  (1) 
5
1 1 acceptor
1 11 hydrophobe
1 2 acceptor
1 2 donor
5 1 3 4 6 7 rings

>  <PUBCHEM_HEAVY_ATOM_COUNT>  (1) 
11

>  <PUBCHEM_ATOM_DEF_STEREO_COUNT>  (1) 
0

>  <PUBCHEM_ATOM_UDEF_STEREO_COUNT>  (1) 
2

>  <PUBCHEM_BOND_DEF_STEREO_COUNT>  (1) 
0

>  <PUBCHEM_BOND_UDEF_STEREO_COUNT>  (1) 
0

>  <PUBCHEM_ISOTOPIC_ATOM_COUNT>  (1) 
0

>  <PUBCHEM_COMPONENT_COUNT>  (1) 
1

>  <PUBCHEM_CACTVS_TAUTO_COUNT>  (1) 
1

>  <PUBCHEM_CONFORMER_ID>  (1) 
000087960000000C

>  <PUBCHEM_MMFF94_ENERGY>  (1) 
22.552

>  <PUBCHEM_FEATURE_SELFOVERLAP>  (1) 
25.372

>  <PUBCHEM_SHAPE_FINGERPRINT>  (1) 
10130415 120 18412829105138640016
11062470 55 17489870431595041660
12932764 1 17530953713853364956
13024252 1 13118004396434610165
13214271 11 17561080323685060412
14577589 140 17060339630172463639
15310529 11 16226037873363852835
16945 1 18041267833681442511
190213 19 13470688157349889718
20201158 50 18411981364625676286
20281407 28 17632301181179935590
20645464 45 18272092699188806743
20653085 51 16515406269799232284
21061003 4 18131354154123733472
21119208 17 17022896852684253902
21293036 1 12540695929219117732
23402539 116 17775560936667455693
23559900 14 18410004447646638776
29004967 10 17774729748235562807
3248919 1 18412270515109533868
369184 2 17704072893151032983

>  <PUBCHEM_SHAPE_MULTIPOLES>  (1) 
214.64
6.28
1.15
0.97
6.43
0.08
-0.1
-1.06
0.43
-0.56
0.28
-0.11
0.1
0.02

>  <PUBCHEM_SHAPE_SELFOVERLAP>  (1) 
416.273

>  <PUBCHEM_SHAPE_VOLUME>  (1) 
132.3

>  <PUBCHEM_COORDINATE_TYPE>  (1) 
2
5
10

$$$$
