34726
     RDKit          3D

 12 12  0  0  1  0  0  0  0  0999 V2000
   -0.2318    0.7360   -0.4466 O   0  0  0  0  0  0  0  0  0  0  0  0
   -1.7843   -2.3946    0.3477 O   0  0  0  0  0  0  0  0  0  0  0  0
    0.9297   -0.0175   -0.0372 C   0  0  0  0  0  0  0  0  0  0  0  0
    0.4486   -1.4482    0.2047 C   0  0  0  0  0  0  0  0  0  0  0  0
   -0.9996   -1.2447    0.5882 C   0  0  0  0  0  0  0  0  0  0  0  0
   -1.3937   -0.1013   -0.3306 C   0  0  0  0  0  0  0  0  0  0  0  0
    1.4718    0.6279    1.2403 C   0  0  0  0  0  0  0  0  0  0  0  0
    1.9722    0.0522   -1.1490 C   0  0  0  0  0  0  0  0  0  0  0  0
   -2.5618    0.7150    0.1924 C   0  0  0  0  0  0  0  0  0  0  0  0
    1.9136    2.0554    0.9900 C   0  0  0  0  0  0  0  0  0  0  0  0
    3.1810   -0.8073   -0.8304 C   0  0  0  0  0  0  0  0  0  0  0  0
   -2.9457    1.8271   -0.7695 C   0  0  0  0  0  0  0  0  0  0  0  0
  1  3  1  0
  1  6  1  0
  2  5  1  0
  3  4  1  0
  3  7  1  0
  3  8  1  0
  4  5  1  0
  5  6  1  0
  6  9  1  0
  7 10  1  0
  8 11  1  0
  9 12  1  0
M  END
>  <PUBCHEM_COMPOUND_CID>  (1) 
34726

>  <PUBCHEM_CONFORMER_RMSD>  (1) 
0.6

>  <PUBCHEM_CONFORMER_DIVERSEORDER>  (1) 
1
29
6
15
14
19
27
24
22
13
26
21
23
2
28
25
9
17
10
5
18
11
16
4
12
8
7
20
3

>  <PUBCHEM_MMFF94_PARTIAL_CHARGES>  (1) 
6
1 -0.56
2 -0.68
29 0.4
3 0.28
5 0.28
6 0.28

>  <PUBCHEM_EFFECTIVE_ROTOR_COUNT>  (1) 
4

>  <PUBCHEM_PHARMACOPHORE_FEATURES>  (1) 
7
1 1 acceptor
1 10 hydrophobe
1 11 hydrophobe
1 12 hydrophobe
1 2 acceptor
1 2 donor
5 1 3 4 5 6 rings

>  <PUBCHEM_HEAVY_ATOM_COUNT>  (1) 
12

>  <PUBCHEM_ATOM_DEF_STEREO_COUNT>  (1) 
0

>  <PUBCHEM_ATOM_UDEF_STEREO_COUNT>  (1) 
2

>  <PUBCHEM_BOND_DEF_STEREO_COUNT>  (1) 
0

>  <PUBCHEM_BOND_UDEF_STEREO_COUNT>  (1) 
0

>  <PUBCHEM_ISOTOPIC_ATOM_COUNT>  (1) 
0

>  <PUBCHEM_COMPONENT_COUNT>  (1) 
1

>  <PUBCHEM_CACTVS_TAUTO_COUNT>  (1) 
1

>  <PUBCHEM_CONFORMER_ID>  (1) 
000087A600000001

>  <PUBCHEM_MMFF94_ENERGY>  (1) 
26.9983

>  <PUBCHEM_FEATURE_SELFOVERLAP>  (1) 
35.522

>  <PUBCHEM_SHAPE_FINGERPRINT>  (1) 
12716758 59 18408888451011344443
12932741 1 18272089430486475301
12932764 1 18340198592934300693
13380536 127 17605275275088819520
13839132 238 18338790242713525344
14648413 74 18271242824035087288
15219456 202 18200877408541213848
15279308 132 18409730616931123082
15775835 57 18265615373337359461
161256 15 18053394467641362522
16945 1 18271248205333372178
18186145 218 18200584805531391221
18380122 1 17838615909110222794
19973954 147 18270400627886922896
20233049 118 18191300481811601624
20388701 513 18047178932973297331
20645464 45 18340194280307107176
20653085 51 17989486303744138921
21040471 1 18261669294624047503
21501502 16 18269557302752995268
21922407 69 15574987420473785625
21930827 45 18407759252653930059
21947302 44 18131339821770796672
22802520 49 18342746246726460404
230 275 18200011972452007785
23211744 41 17912069857372397914
23235685 24 18041845004234755261
23526113 38 18201450120839468998
23559900 14 18341337687582212966
25 1 18196376914027557221
2748010 2 18340769363463842781
3250762 1 18270398433406307450
4369600 1 17985546645854005816
5084963 1 18267037200405938571
528886 8 17895766097029007838
5337951 7 18201723929162236992
53812653 166 18338233760832963953
549884 4 18129093433768807093
81228 2 18118405279183383651

>  <PUBCHEM_SHAPE_MULTIPOLES>  (1) 
235.22
4.23
2.11
1.11
0.61
0.18
0.01
-1.15
-1.13
0.6
0.49
-0.49
-0.25
1.05

>  <PUBCHEM_SHAPE_SELFOVERLAP>  (1) 
460.043

>  <PUBCHEM_SHAPE_VOLUME>  (1) 
144.4

>  <PUBCHEM_COORDINATE_TYPE>  (1) 
2
5
10

$$$$
