34720
     RDKit          3D

 11 11  0  0  1  0  0  0  0  0999 V2000
    0.5312   -0.7256   -0.3343 O   0  0  0  0  0  0  0  0  0  0  0  0
   -1.1854    1.7890   -0.7427 O   0  0  0  0  0  0  0  0  0  0  0  0
   -0.7789   -0.4268    0.1961 C   0  0  0  0  0  0  0  0  0  0  0  0
   -0.8008    1.0887    0.4373 C   0  0  0  0  0  0  0  0  0  0  0  0
    1.3680    0.4366   -0.2091 C   0  0  0  0  0  0  0  0  0  0  0  0
    0.6520    1.3933    0.7334 C   0  0  0  0  0  0  0  0  0  0  0  0
   -1.8221   -0.9157   -0.8070 C   0  0  0  0  0  0  0  0  0  0  0  0
   -0.9179   -1.2046    1.5107 C   0  0  0  0  0  0  0  0  0  0  0  0
    2.7434    0.0255    0.2808 C   0  0  0  0  0  0  0  0  0  0  0  0
   -3.2269   -0.5575   -0.3625 C   0  0  0  0  0  0  0  0  0  0  0  0
    3.4374   -0.9029   -0.7029 C   0  0  0  0  0  0  0  0  0  0  0  0
  1  3  1  0
  1  5  1  0
  2  4  1  0
  3  4  1  0
  3  7  1  0
  3  8  1  0
  4  6  1  0
  5  6  1  0
  5  9  1  0
  7 10  1  0
  9 11  1  0
M  END
>  <PUBCHEM_COMPOUND_CID>  (1) 
34720

>  <PUBCHEM_CONFORMER_RMSD>  (1) 
0.6

>  <PUBCHEM_CONFORMER_DIVERSEORDER>  (1) 
5
21
41
23
35
31
25
33
18
17
40
37
28
19
7
15
16
1
29
26
24
11
39
38
30
9
10
14
27
32
3
20
8
22
13
36
34
6
12
2
4

>  <PUBCHEM_MMFF94_PARTIAL_CHARGES>  (1) 
6
1 -0.56
2 -0.68
26 0.4
3 0.28
4 0.28
5 0.28

>  <PUBCHEM_EFFECTIVE_ROTOR_COUNT>  (1) 
3

>  <PUBCHEM_PHARMACOPHORE_FEATURES>  (1) 
6
1 1 acceptor
1 10 hydrophobe
1 11 hydrophobe
1 2 acceptor
1 2 donor
5 1 3 4 5 6 rings

>  <PUBCHEM_HEAVY_ATOM_COUNT>  (1) 
11

>  <PUBCHEM_ATOM_DEF_STEREO_COUNT>  (1) 
0

>  <PUBCHEM_ATOM_UDEF_STEREO_COUNT>  (1) 
3

>  <PUBCHEM_BOND_DEF_STEREO_COUNT>  (1) 
0

>  <PUBCHEM_BOND_UDEF_STEREO_COUNT>  (1) 
0

>  <PUBCHEM_ISOTOPIC_ATOM_COUNT>  (1) 
0

>  <PUBCHEM_COMPONENT_COUNT>  (1) 
1

>  <PUBCHEM_CACTVS_TAUTO_COUNT>  (1) 
1

>  <PUBCHEM_CONFORMER_ID>  (1) 
000087A000000005

>  <PUBCHEM_MMFF94_ENERGY>  (1) 
25.4393

>  <PUBCHEM_FEATURE_SELFOVERLAP>  (1) 
30.446

>  <PUBCHEM_SHAPE_FINGERPRINT>  (1) 
10353120 184 18187633722201878197
11206711 2 18334854983096737596
11769659 78 17274813714060984895
12032990 46 18338239366118933879
12423570 1 12333594362705489424
12716758 59 18268140955661752704
13024252 1 17895205367415409768
14128692 85 17488171789304470503
16945 1 18335126596870643331
20201158 50 18411135857384904086
20653085 51 15430039863478005534
20711985 344 18334857156556105824
21028194 46 8286214850319206162
23552423 10 18409453557549992846
2748010 2 18046347714714283050
29004967 10 18197216055984267971
369184 2 16845571998259975802
5084963 1 18408882927752070984
68250623 7 18049439245264703923
8030462 33 18186525376069103670

>  <PUBCHEM_SHAPE_MULTIPOLES>  (1) 
214.64
4.31
1.52
1.07
1.8
0.5
0.28
-1.66
-1.1
-0.17
0
-0.26
-0.19
0.34

>  <PUBCHEM_SHAPE_SELFOVERLAP>  (1) 
420.703

>  <PUBCHEM_SHAPE_VOLUME>  (1) 
131.6

>  <PUBCHEM_COORDINATE_TYPE>  (1) 
2
5
10

$$$$
