3473
     RDKit          3D

 21 21  0  0  1  0  0  0  0  0999 V2000
    3.6966    1.8593   -0.2515 O   0  0  0  0  0  0  0  0  0  0  0  0
    1.0161    1.1038   -1.6014 O   0  0  0  0  0  0  0  0  0  0  0  0
   -5.5607   -2.0581   -0.1330 O   0  0  0  0  0  0  0  0  0  0  0  0
   -6.8933   -0.0103    1.1927 O   0  0  0  0  0  0  0  0  0  0  0  0
    4.4402   -0.3104    0.5010 C   0  0  0  0  0  0  0  0  0  0  0  0
    3.3340    0.4810   -0.2080 C   0  0  0  0  0  0  0  0  0  0  0  0
    5.8090   -0.1047   -0.1586 C   0  0  0  0  0  0  0  0  0  0  0  0
    1.9651    0.3258    0.4593 C   0  0  0  0  0  0  0  0  0  0  0  0
    6.9416   -0.8553    0.5495 C   0  0  0  0  0  0  0  0  0  0  0  0
    0.8114    0.7074   -0.4543 C   0  0  0  0  0  0  0  0  0  0  0  0
    8.3194   -0.6018   -0.0624 C   0  0  0  0  0  0  0  0  0  0  0  0
   -0.5912    0.5285    0.1085 C   0  0  0  0  0  0  0  0  0  0  0  0
   -1.7011    0.8597   -0.8910 C   0  0  0  0  0  0  0  0  0  0  0  0
   -3.0859    0.6243   -0.3368 C   0  0  0  0  0  0  0  0  0  0  0  0
    9.4122   -1.3128    0.7213 C   0  0  0  0  0  0  0  0  0  0  0  0
   -3.6962   -0.6205   -0.4898 C   0  0  0  0  0  0  0  0  0  0  0  0
   -3.7546    1.6519    0.3284 C   0  0  0  0  0  0  0  0  0  0  0  0
   -4.9752   -0.8380    0.0226 C   0  0  0  0  0  0  0  0  0  0  0  0
   -5.0337    1.4345    0.8405 C   0  0  0  0  0  0  0  0  0  0  0  0
   -5.6440    0.1896    0.6877 C   0  0  0  0  0  0  0  0  0  0  0  0
   -4.8098   -3.0539   -0.8248 C   0  0  0  0  0  0  0  0  0  0  0  0
  1  6  1  0
  2 10  2  0
  3 18  1  0
  3 21  1  0
  4 20  1  0
  5  6  1  0
  5  7  1  0
  6  8  1  0
  7  9  1  0
  8 10  1  0
  9 11  1  0
 10 12  1  0
 11 15  1  0
 12 13  1  0
 13 14  1  0
 14 16  2  0
 14 17  1  0
 16 18  1  0
 17 19  2  0
 18 20  2  0
 19 20  1  0
M  END
>  <PUBCHEM_COMPOUND_CID>  (1) 
3473

>  <PUBCHEM_CONFORMER_RMSD>  (1) 
1

>  <PUBCHEM_CONFORMER_DIVERSEORDER>  (1) 
1
99
166
8
369
223
71
204
217
20
236
131
43
390
417
271
170
169
245
117
265
423
121
23
349
226
79
181
5
136
28
58
359
101
222
254
407
419
394
301
361
36
104
33
144
352
30
95
52
46
328
124
322
161
110
220
159
44
13
2
76
201
83
383
295
323
116
371
27
21
286
87
91
366
80
397
183
133
213
9
392
19
422
311
211
47
334
157
141
202
412
155
59
326
197
340
156
17
49
339
198
331
421
281
6
61
358
149
73
115
140
66
332
229
69
134
96
330
25
60
231
415
200
242
365
88
212
119
237
208
337
72
221
158
409
319
270
247
167
346
94
257
77
196
109
138
65
396
215
233
203
42
264
258
309
31
22
4
164
363
191
118
327
171
310
291
18
246
404
12
145
147
405
266
210
353
38
62
129
81
168
302
48
306
384
51
325
74
379
148
268
64
283
347
24
305
401
86
289
393
41
418
414
413
187
411
122
50
85
357
56
54
127
272
273
292
106
219
345
53
313
385
185
278
297
335
26
303
177
11
82
318
92
3
182
173
7
146
55
111
314
113
255
243
160
373
199
344
317
333
235
175
29
78
154
68
135
205
194
374
57
267
386
277
174
240
293
142
84
165
307
381
206
342
260
193
163
98
261
370
380
192
362
304
388
275
420
402
216
114
287
102
294
252
189
15
178
120
274
262
399
354
107
103
89
70
375
195
39
32
269
377
93
263
256
350
172
400
209
150
137
372
288
336
130
329
16
244
162
341
248
67
348
90
364
126
125
132
282
406
180
75
367
280
389
408
108
105
230
100
97
356
250
143
63
316
351
35
153
395
40
14
276
387
190
10
224
296
416
360
176
338
123
299
218
139
227
308
179
225
228
112
312
239
320
355
279
253
368
234
398
259
214
376
324
232
207
37
285
151
300
251
241
249
152
321
45
382
284
343
403
315
238
298
188
34
128
290
378
410
391
184
186

>  <PUBCHEM_MMFF94_PARTIAL_CHARGES>  (1) 
21
1 -0.68
10 0.45
12 0.06
13 0.14
14 -0.14
16 -0.15
17 -0.15
18 0.08
19 -0.15
2 -0.57
20 0.08
21 0.28
3 -0.36
37 0.4
4 -0.53
41 0.15
42 0.15
43 0.15
44 0.45
6 0.28
8 0.06

>  <PUBCHEM_EFFECTIVE_ROTOR_COUNT>  (1) 
10

>  <PUBCHEM_PHARMACOPHORE_FEATURES>  (1) 
8
1 1 acceptor
1 1 donor
1 15 hydrophobe
1 2 acceptor
1 3 acceptor
1 4 donor
4 5 7 9 11 hydrophobe
6 14 16 17 18 19 20 rings

>  <PUBCHEM_HEAVY_ATOM_COUNT>  (1) 
21

>  <PUBCHEM_ATOM_DEF_STEREO_COUNT>  (1) 
0

>  <PUBCHEM_ATOM_UDEF_STEREO_COUNT>  (1) 
1

>  <PUBCHEM_BOND_DEF_STEREO_COUNT>  (1) 
0

>  <PUBCHEM_BOND_UDEF_STEREO_COUNT>  (1) 
0

>  <PUBCHEM_ISOTOPIC_ATOM_COUNT>  (1) 
0

>  <PUBCHEM_COMPONENT_COUNT>  (1) 
1

>  <PUBCHEM_CACTVS_TAUTO_COUNT>  (1) 
9

>  <PUBCHEM_CONFORMER_ID>  (1) 
00000D9100000001

>  <PUBCHEM_MMFF94_ENERGY>  (1) 
41.166

>  <PUBCHEM_FEATURE_SELFOVERLAP>  (1) 
40.597

>  <PUBCHEM_SHAPE_FINGERPRINT>  (1) 
10 15 16988841713507649464
10066227 49 14057269850337859720
10299344 5 18334297565757369518
11089746 13 10375864182719680442
11315181 36 18410855469119354385
11524674 6 17418372506208847486
12091667 2 17168144511719151269
12498461 61 18130785690419546711
125118 31 10015569629063256858
12596602 18 18202280333812327248
13288520 33 18333448742485574325
13668630 136 16226053314230341649
13968360 50 12685088169220949880
14123256 10 15791734088123760344
14251764 18 18335140904155779732
14251764 46 18411982438124751241
14344974 204 17988079031724582934
14556957 393 15285647538643537606
14617042 71 15697415851402343922
14729087 3 11024105447920319546
14849402 71 18270679900464101352
15183329 4 17603579734381944698
15348495 7 17774998041751933546
155225 1 12103850038804804803
15716309 27 18260832604782439492
17093844 174 16630804400749379033
1754908 1 18201990029148033026
17780758 139 18272651238590616561
1818759 1 18342740664693905870
195137 175 11455884789756655130
21150785 3 13551475860700850328
21267235 1 17603589625111267660
21315759 40 18260552204338726732
23035841 295 18334859411556023120
23522609 53 18044123235647394100
23559900 14 18197207260788492817
246663 6 17967818224195988594
300161 21 11095884860773397804
33532 11 18261389998135240298
397830 11 17703214248148660858
445580 204 9799695904503772910
5104073 3 17916310609739605337
559249 180 18408040728580245599
58260988 114 17314248803458031147
5937810 71 12468631695088742566
5969126 39 16805316665901734388
6327066 14 9438313899688168051
68570916 9 18199464536432071428
7495541 125 17988361584557956433
9953998 17 18131349704827680723
9980921 7 11671793654979114827

>  <PUBCHEM_SHAPE_MULTIPOLES>  (1) 
408.69
25.13
1.94
0.98
46.51
1.32
0.08
11.61
-6.9
-3.21
0.34
-0.42
-0.09
-1.59

>  <PUBCHEM_SHAPE_SELFOVERLAP>  (1) 
811.551

>  <PUBCHEM_SHAPE_VOLUME>  (1) 
242.8

>  <PUBCHEM_COORDINATE_TYPE>  (1) 
2
5
10

$$$$
