34739
     RDKit          3D

 23 25  0  0  1  0  0  0  0  0999 V2000
   -0.3504   -0.0973   -0.1678 O   0  0  0  0  0  0  0  0  0  0  0  0
   -5.1603    2.3335    0.1726 O   0  0  0  0  0  0  0  0  0  0  0  0
    1.0522    0.3125   -1.9271 O   0  0  0  0  0  0  0  0  0  0  0  0
   -3.1559    0.3127    0.1952 N   0  0  0  0  0  0  0  0  0  0  0  0
    1.8312    0.1582    0.2751 N   0  0  0  0  0  0  0  0  0  0  0  0
   -2.6121   -0.9777   -0.2229 C   0  0  0  0  0  0  0  0  0  0  0  0
   -1.2948   -0.7826   -0.9911 C   0  0  0  0  0  0  0  0  0  0  0  0
   -2.4247   -1.8985    0.9912 C   0  0  0  0  0  0  0  0  0  0  0  0
   -0.7049   -2.1347   -1.4043 C   0  0  0  0  0  0  0  0  0  0  0  0
   -1.8275   -3.2425    0.5752 C   0  0  0  0  0  0  0  0  0  0  0  0
   -0.5286   -3.0718   -0.2081 C   0  0  0  0  0  0  0  0  0  0  0  0
   -3.3387    1.2012   -0.9609 C   0  0  0  0  0  0  0  0  0  0  0  0
   -4.4324    0.1368    0.9018 C   0  0  0  0  0  0  0  0  0  0  0  0
   -3.9177    2.5361   -0.5013 C   0  0  0  0  0  0  0  0  0  0  0  0
   -4.9865    1.4967    1.3168 C   0  0  0  0  0  0  0  0  0  0  0  0
    0.8797    0.1435   -0.7262 C   0  0  0  0  0  0  0  0  0  0  0  0
    3.2231    0.3700    0.1501 C   0  0  0  0  0  0  0  0  0  0  0  0
    4.0370    0.3492    1.2723 C   0  0  0  0  0  0  0  0  0  0  0  0
    3.7485    0.5956   -1.1136 C   0  0  0  0  0  0  0  0  0  0  0  0
    5.4084    0.5591    1.1283 C   0  0  0  0  0  0  0  0  0  0  0  0
    3.4845    0.1075    2.6396 C   0  0  0  0  0  0  0  0  0  0  0  0
    5.1200    0.8054   -1.2578 C   0  0  0  0  0  0  0  0  0  0  0  0
    5.9499    0.7871   -0.1369 C   0  0  0  0  0  0  0  0  0  0  0  0
  1  7  1  0
  1 16  1  0
  2 14  1  0
  2 15  1  0
  3 16  2  0
  4  6  1  0
  4 12  1  0
  4 13  1  0
  5 16  1  0
  5 17  1  0
  6  7  1  0
  6  8  1  0
  7  9  1  0
  8 10  1  0
  9 11  1  0
 10 11  1  0
 12 14  1  0
 13 15  1  0
 17 18  2  0
 17 19  1  0
 18 20  1  0
 18 21  1  0
 19 22  2  0
 20 23  2  0
 22 23  1  0
M  END
>  <PUBCHEM_COMPOUND_CID>  (1) 
34739

>  <PUBCHEM_CONFORMER_RMSD>  (1) 
0.8

>  <PUBCHEM_CONFORMER_DIVERSEORDER>  (1) 
1
106
16
56
77
93
95
81
79
119
83
99
88
90
2
116
58
111
29
51
86
27
117
105
9
102
19
39
98
71
75
59
46
36
109
44
64
17
57
67
120
53
92
78
37
94
30
62
114
21
61
25
97
6
14
101
107
74
50
42
33
87
32
65
76
41
55
112
47
72
34
103
22
82
43
73
84
15
11
110
10
63
12
115
118
70
23
35
54
100
108
31
5
20
104
89
38
24
26
68
60
8
48
113
80
66
45
18
3
40
96
13
85
52
69
91
4
28
49
7

>  <PUBCHEM_MMFF94_PARTIAL_CHARGES>  (1) 
24
1 -0.43
12 0.27
13 0.27
14 0.28
15 0.28
16 0.78
17 0.12
18 -0.14
19 -0.15
2 -0.56
20 -0.15
21 0.14
22 -0.15
23 -0.15
3 -0.57
4 -0.81
42 0.37
43 0.15
44 0.15
48 0.15
49 0.15
5 -0.55
6 0.27
7 0.28

>  <PUBCHEM_EFFECTIVE_ROTOR_COUNT>  (1) 
7.4

>  <PUBCHEM_PHARMACOPHORE_FEATURES>  (1) 
7
1 2 acceptor
1 3 acceptor
1 4 cation
1 5 donor
6 17 18 19 20 22 23 rings
6 2 4 12 13 14 15 rings
6 6 7 8 9 10 11 rings

>  <PUBCHEM_HEAVY_ATOM_COUNT>  (1) 
23

>  <PUBCHEM_ATOM_DEF_STEREO_COUNT>  (1) 
0

>  <PUBCHEM_ATOM_UDEF_STEREO_COUNT>  (1) 
2

>  <PUBCHEM_BOND_DEF_STEREO_COUNT>  (1) 
0

>  <PUBCHEM_BOND_UDEF_STEREO_COUNT>  (1) 
0

>  <PUBCHEM_ISOTOPIC_ATOM_COUNT>  (1) 
0

>  <PUBCHEM_COMPONENT_COUNT>  (1) 
1

>  <PUBCHEM_CACTVS_TAUTO_COUNT>  (1) 
2

>  <PUBCHEM_CONFORMER_ID>  (1) 
000087B300000001

>  <PUBCHEM_MMFF94_ENERGY>  (1) 
57.9054

>  <PUBCHEM_FEATURE_SELFOVERLAP>  (1) 
35.522

>  <PUBCHEM_SHAPE_FINGERPRINT>  (1) 
105312 117 18343864411560778871
10692045 39 18197495130307057466
10764073 3 15651248211684722183
11089746 13 16845566505366134216
11545043 162 18059296577835633650
11552529 35 17024883794607552026
11725454 13 17847056666782608903
12166972 35 12535627172421060858
12236239 1 17748828539919492836
12403259 415 17489307524596594067
12422481 6 17823124632457908706
12596602 18 17385730192197691497
12616971 3 17095514124575005752
12633257 1 18335699463809008548
12788726 201 17899708039436099635
12892183 10 16443347529316246277
13004483 165 17764870582468757815
13103583 49 16370735803082854721
13544653 18 12829212165493390183
13583140 156 17203046408599901566
13726171 33 18051444995177260572
15003188 100 16630515258829290681
15537594 2 17095518505304705674
17093844 174 18059568144623239082
17844677 252 18267869565701029576
1813 80 11386376906731610867
19078846 21 18334569192247807692
19377110 9 17168413983111790464
20554085 129 18270668776218450249
20567600 254 18340201904581004197
20645477 70 16271938120949138052
20681677 155 18410292545262446714
20775438 99 10010728418535549477
21033648 144 15553876823502136264
21033648 29 17846774135291377392
212916 134 18412820274727973515
21401589 2 18272658926629387203
21623969 137 14779266419352750328
22224240 67 18411989044744567969
23559900 14 18200609025015251118
2838139 119 16845291596846105161
314173 85 11458426817141501093
495365 180 17560796594288752750
5352402 22 14851606557318236920
5385378 56 18198353861851866939
57724786 102 16772963656423826112
59755656 520 18059857255714309047
7226269 152 18131069320794282152
90127 26 18058730346516421496
9862522 239 18187633675052066871
9981440 41 18335989671229348051

>  <PUBCHEM_SHAPE_MULTIPOLES>  (1) 
445.76
12.78
2.72
1.71
8.58
1.84
-0.51
-9.04
-3.1
-4.6
0.08
1.39
-0.07
-0.15

>  <PUBCHEM_SHAPE_SELFOVERLAP>  (1) 
932.558

>  <PUBCHEM_SHAPE_VOLUME>  (1) 
249.7

>  <PUBCHEM_COORDINATE_TYPE>  (1) 
2
5
10

$$$$
