34735
     RDKit          3D

 25 26  0  0  0  0  0  0  0  0999 V2000
   -5.5398    2.6229   -0.6376 Cl  0  0  0  0  0  0  0  0  0  0  0  0
    5.4043   -0.5115   -0.1883 F   0  0  0  0  0  0  0  0  0  0  0  0
    3.6750   -1.6580    0.4432 F   0  0  0  0  0  0  0  0  0  0  0  0
    3.8589   -1.0253   -1.6292 F   0  0  0  0  0  0  0  0  0  0  0  0
   -0.7363    3.0343   -0.2577 O   0  0  0  0  0  0  0  0  0  0  0  0
    0.0312   -4.4925   -0.9393 O   0  0  0  0  0  0  0  0  0  0  0  0
   -0.1791   -4.1434    1.3054 O   0  0  0  0  0  0  0  0  0  0  0  0
   -0.8699    0.7338    0.1842 N   0  0  0  0  0  0  0  0  0  0  0  0
   -2.2606    0.4778    0.1009 C   0  0  0  0  0  0  0  0  0  0  0  0
    1.2539    1.8944    0.1308 C   0  0  0  0  0  0  0  0  0  0  0  0
   -2.7572   -0.7992    0.3075 C   0  0  0  0  0  0  0  0  0  0  0  0
    3.3230    0.6583   -0.0380 C   0  0  0  0  0  0  0  0  0  0  0  0
    1.9338    0.7104   -0.1548 C   0  0  0  0  0  0  0  0  0  0  0  0
   -0.1944    1.9496    0.0089 C   0  0  0  0  0  0  0  0  0  0  0  0
    1.9630    3.0263    0.5331 C   0  0  0  0  0  0  0  0  0  0  0  0
   -3.1030    1.5396   -0.1901 C   0  0  0  0  0  0  0  0  0  0  0  0
    4.0319    1.7904    0.3641 C   0  0  0  0  0  0  0  0  0  0  0  0
   -4.1316   -1.0208    0.2209 C   0  0  0  0  0  0  0  0  0  0  0  0
    3.3519    2.9743    0.6498 C   0  0  0  0  0  0  0  0  0  0  0  0
   -4.4774    1.3180   -0.2766 C   0  0  0  0  0  0  0  0  0  0  0  0
   -4.9916    0.0377   -0.0713 C   0  0  0  0  0  0  0  0  0  0  0  0
    4.0506   -0.6069   -0.3441 C   0  0  0  0  0  0  0  0  0  0  0  0
   -1.8904   -1.9294    0.6186 C   0  0  0  0  0  0  0  0  0  0  0  0
   -1.3070   -2.7361   -0.2927 C   0  0  0  0  0  0  0  0  0  0  0  0
   -0.4392   -3.8448    0.1522 C   0  0  0  0  0  0  0  0  0  0  0  0
  1 20  1  0
  2 22  1  0
  3 22  1  0
  4 22  1  0
  5 14  2  0
  6 25  1  0
  7 25  2  0
  8  9  1  0
  8 14  1  0
  9 11  2  0
  9 16  1  0
 10 13  1  0
 10 14  1  0
 10 15  2  0
 11 18  1  0
 11 23  1  0
 12 13  2  0
 12 17  1  0
 12 22  1  0
 15 19  1  0
 16 20  2  0
 17 19  2  0
 18 21  2  0
 20 21  1  0
 23 24  2  0
 24 25  1  0
M  END
>  <PUBCHEM_COMPOUND_CID>  (1) 
34735

>  <PUBCHEM_CONFORMER_RMSD>  (1) 
0.8

>  <PUBCHEM_CONFORMER_DIVERSEORDER>  (1) 
1
19
20
21
10
16
17
5
8
7
14
9
13
12
6
15
18
11
2
4
3

>  <PUBCHEM_MMFF94_PARTIAL_CHARGES>  (1) 
36
1 -0.18
10 0.09
11 0.03
12 -0.14
13 -0.15
14 0.54
15 -0.15
16 -0.15
17 -0.15
18 -0.15
19 -0.15
2 -0.34
20 0.18
21 -0.15
22 1.16
23 -0.18
24 -0.14
25 0.71
26 0.37
27 0.15
28 0.15
29 0.15
3 -0.34
30 0.15
31 0.15
32 0.15
33 0.15
34 0.15
35 0.15
36 0.5
4 -0.34
5 -0.57
6 -0.65
7 -0.57
8 -0.55
9 0.12

>  <PUBCHEM_EFFECTIVE_ROTOR_COUNT>  (1) 
6

>  <PUBCHEM_PHARMACOPHORE_FEATURES>  (1) 
7
1 5 acceptor
1 6 acceptor
1 7 acceptor
1 8 donor
3 6 7 25 anion
6 10 12 13 15 17 19 rings
6 9 11 16 18 20 21 rings

>  <PUBCHEM_HEAVY_ATOM_COUNT>  (1) 
25

>  <PUBCHEM_ATOM_DEF_STEREO_COUNT>  (1) 
0

>  <PUBCHEM_ATOM_UDEF_STEREO_COUNT>  (1) 
0

>  <PUBCHEM_BOND_DEF_STEREO_COUNT>  (1) 
0

>  <PUBCHEM_BOND_UDEF_STEREO_COUNT>  (1) 
1

>  <PUBCHEM_ISOTOPIC_ATOM_COUNT>  (1) 
0

>  <PUBCHEM_COMPONENT_COUNT>  (1) 
1

>  <PUBCHEM_CACTVS_TAUTO_COUNT>  (1) 
3

>  <PUBCHEM_CONFORMER_ID>  (1) 
000087AF00000001

>  <PUBCHEM_MMFF94_ENERGY>  (1) 
70.5237

>  <PUBCHEM_FEATURE_SELFOVERLAP>  (1) 
35.576

>  <PUBCHEM_SHAPE_FINGERPRINT>  (1) 
10616163 171 17834960046117605800
11014199 57 17399800891579946442
11370993 70 18340203085047936619
13140716 1 18411144619371330889
13402501 40 18341055133809016750
13544592 145 18411139129928742973
13583140 156 17628917030018304169
138480 1 17906449927089104251
14117953 113 18051684452156143726
14178342 30 17834663173599152520
14251757 5 18265356026280117054
14790565 3 18409732837714623321
15042514 8 17830737917763206011
15196674 1 18410574011169623001
15403338 16 16881305988555704731
15420108 30 16476305158230749449
17093844 170 18412542102981910208
17859628 97 18336263453307922315
19591789 44 18409447012004009523
19930381 70 18267022747899282579
20642791 35 17907586826723553727
20645477 70 18272934938054827900
20775438 99 16689594446174379575
21033648 29 18269825562448646593
21065198 57 18339078327587324113
21133410 171 16830595748543848214
21279426 13 18338796706913911557
21521239 73 18128797760442463509
23559900 14 18341609334845990864
3004659 81 18260830376201081436
3298306 158 18337388223901967447
335352 9 18410572847138521124
4403749 210 17554027129231177840
5104073 3 18412545431328961905
5265222 85 18262252078752643508
532947 4 18268150864420635335
5385378 56 18267027164022611457
59755656 215 18263923242549674333
6138700 20 18338518521496871631
6433294 58 18411702114789924658
6700243 42 16189464539402778247
9709674 26 18195810897219449704

>  <PUBCHEM_SHAPE_MULTIPOLES>  (1) 
471.95
10.4
5.18
0.85
0.21
5.25
-0.07
-5.12
-1.23
0.42
0.25
-0.25
0.35
1.4

>  <PUBCHEM_SHAPE_SELFOVERLAP>  (1) 
1008.946

>  <PUBCHEM_SHAPE_VOLUME>  (1) 
262.5

>  <PUBCHEM_COORDINATE_TYPE>  (1) 
2
5
10

$$$$
