34730
     RDKit          3D

 10 10  0  0  1  0  0  0  0  0999 V2000
   -0.1750    0.7035    0.7882 O   0  0  0  0  0  0  0  0  0  0  0  0
    0.9195   -1.9919   -0.1883 O   0  0  0  0  0  0  0  0  0  0  0  0
    1.0645    0.4270    0.1034 C   0  0  0  0  0  0  0  0  0  0  0  0
   -1.2723    0.0929    0.0805 C   0  0  0  0  0  0  0  0  0  0  0  0
    0.7700   -0.7386   -0.8459 C   0  0  0  0  0  0  0  0  0  0  0  0
   -0.6895   -0.5267   -1.1944 C   0  0  0  0  0  0  0  0  0  0  0  0
    2.1282    0.1214    1.1565 C   0  0  0  0  0  0  0  0  0  0  0  0
    1.4517    1.6947   -0.6693 C   0  0  0  0  0  0  0  0  0  0  0  0
   -2.3039    1.1740   -0.2374 C   0  0  0  0  0  0  0  0  0  0  0  0
   -1.8931   -0.9562    1.0065 C   0  0  0  0  0  0  0  0  0  0  0  0
  1  3  1  0
  1  4  1  0
  2  5  1  0
  3  5  1  0
  3  7  1  0
  3  8  1  0
  4  6  1  0
  4  9  1  0
  4 10  1  0
  5  6  1  0
M  END
>  <PUBCHEM_COMPOUND_CID>  (1) 
34730

>  <PUBCHEM_CONFORMER_RMSD>  (1) 
0.4

>  <PUBCHEM_CONFORMER_DIVERSEORDER>  (1) 
2
4
3
1

>  <PUBCHEM_MMFF94_PARTIAL_CHARGES>  (1) 
6
1 -0.56
2 -0.68
26 0.4
3 0.28
4 0.28
5 0.28

>  <PUBCHEM_EFFECTIVE_ROTOR_COUNT>  (1) 
1

>  <PUBCHEM_PHARMACOPHORE_FEATURES>  (1) 
6
1 1 acceptor
1 2 acceptor
1 2 donor
3 3 7 8 hydrophobe
3 4 9 10 hydrophobe
5 1 3 4 5 6 rings

>  <PUBCHEM_HEAVY_ATOM_COUNT>  (1) 
10

>  <PUBCHEM_ATOM_DEF_STEREO_COUNT>  (1) 
0

>  <PUBCHEM_ATOM_UDEF_STEREO_COUNT>  (1) 
1

>  <PUBCHEM_BOND_DEF_STEREO_COUNT>  (1) 
0

>  <PUBCHEM_BOND_UDEF_STEREO_COUNT>  (1) 
0

>  <PUBCHEM_ISOTOPIC_ATOM_COUNT>  (1) 
0

>  <PUBCHEM_COMPONENT_COUNT>  (1) 
1

>  <PUBCHEM_CACTVS_TAUTO_COUNT>  (1) 
1

>  <PUBCHEM_CONFORMER_ID>  (1) 
000087AA00000002

>  <PUBCHEM_MMFF94_ENERGY>  (1) 
31.3907

>  <PUBCHEM_FEATURE_SELFOVERLAP>  (1) 
30.446

>  <PUBCHEM_SHAPE_FINGERPRINT>  (1) 
12423570 1 14688609683723414620
13024252 1 15505989608751401120
16945 1 18336829693211365629
20653085 51 13613135476216940082
21040471 1 17988641929910398940
21922407 69 16298964184788414189
241688 4 17474674948923724057
24536 1 18408042905279358029
29004967 10 18335421214484196626
369184 2 17488160759896876712
5084963 1 17987528154733078254
68250623 7 17677054654262277520

>  <PUBCHEM_SHAPE_MULTIPOLES>  (1) 
194.06
2.72
1.59
1.18
0.47
0.09
0.01
-0.55
0.65
-0.17
-0.24
-0.11
0.16
0.1

>  <PUBCHEM_SHAPE_SELFOVERLAP>  (1) 
385.193

>  <PUBCHEM_SHAPE_VOLUME>  (1) 
119.2

>  <PUBCHEM_COORDINATE_TYPE>  (1) 
2
5
10

$$$$
