34734
     RDKit          3D

 14 14  0  0  1  0  0  0  0  0999 V2000
    0.0771    0.3852    0.7253 O   0  0  0  0  0  0  0  0  0  0  0  0
   -0.7907   -2.1727   -0.7315 O   0  0  0  0  0  0  0  0  0  0  0  0
   -1.1299    0.1393   -0.0260 C   0  0  0  0  0  0  0  0  0  0  0  0
    1.2261   -0.0065   -0.0520 C   0  0  0  0  0  0  0  0  0  0  0  0
   -0.7347   -0.8156   -1.1567 C   0  0  0  0  0  0  0  0  0  0  0  0
    0.7065   -0.4347   -1.4288 C   0  0  0  0  0  0  0  0  0  0  0  0
   -2.1759   -0.4271    0.9327 C   0  0  0  0  0  0  0  0  0  0  0  0
   -1.6092    1.4895   -0.5748 C   0  0  0  0  0  0  0  0  0  0  0  0
    1.9187   -1.1517    0.6912 C   0  0  0  0  0  0  0  0  0  0  0  0
    2.1724    1.1889   -0.1523 C   0  0  0  0  0  0  0  0  0  0  0  0
   -3.4502   -0.8015    0.2013 C   0  0  0  0  0  0  0  0  0  0  0  0
   -1.9669    2.4394    0.5484 C   0  0  0  0  0  0  0  0  0  0  0  0
    2.3931   -0.7103    2.0607 C   0  0  0  0  0  0  0  0  0  0  0  0
    3.3634    0.8778   -1.0375 C   0  0  0  0  0  0  0  0  0  0  0  0
  1  3  1  0
  1  4  1  0
  2  5  1  0
  3  5  1  0
  3  7  1  0
  3  8  1  0
  4  6  1  0
  4  9  1  0
  4 10  1  0
  5  6  1  0
  7 11  1  0
  8 12  1  0
  9 13  1  0
 10 14  1  0
M  END
>  <PUBCHEM_COMPOUND_CID>  (1) 
34734

>  <PUBCHEM_CONFORMER_RMSD>  (1) 
0.6

>  <PUBCHEM_CONFORMER_DIVERSEORDER>  (1) 
3
14
17
18
19
9
13
7
11
20
21
12
15
2
4
1
8
5
16
6
10

>  <PUBCHEM_MMFF94_PARTIAL_CHARGES>  (1) 
6
1 -0.56
2 -0.68
26 0.4
3 0.28
4 0.28
5 0.28

>  <PUBCHEM_EFFECTIVE_ROTOR_COUNT>  (1) 
5

>  <PUBCHEM_PHARMACOPHORE_FEATURES>  (1) 
8
1 1 acceptor
1 11 hydrophobe
1 12 hydrophobe
1 13 hydrophobe
1 14 hydrophobe
1 2 acceptor
1 2 donor
5 1 3 4 5 6 rings

>  <PUBCHEM_HEAVY_ATOM_COUNT>  (1) 
14

>  <PUBCHEM_ATOM_DEF_STEREO_COUNT>  (1) 
0

>  <PUBCHEM_ATOM_UDEF_STEREO_COUNT>  (1) 
1

>  <PUBCHEM_BOND_DEF_STEREO_COUNT>  (1) 
0

>  <PUBCHEM_BOND_UDEF_STEREO_COUNT>  (1) 
0

>  <PUBCHEM_ISOTOPIC_ATOM_COUNT>  (1) 
0

>  <PUBCHEM_COMPONENT_COUNT>  (1) 
1

>  <PUBCHEM_CACTVS_TAUTO_COUNT>  (1) 
1

>  <PUBCHEM_CONFORMER_ID>  (1) 
000087AE00000003

>  <PUBCHEM_MMFF94_ENERGY>  (1) 
39.5983

>  <PUBCHEM_FEATURE_SELFOVERLAP>  (1) 
40.598

>  <PUBCHEM_SHAPE_FINGERPRINT>  (1) 
11769659 78 17458613523947396379
12423570 1 16677047583328016229
12932764 1 18341044207280203712
13024252 1 17459188649816272213
13380536 127 18409448080981452224
13538477 17 18337945809151234862
13571099 52 17485907662977057921
14648413 74 18051150097999604884
14787075 74 17321569500975596249
14993402 34 18199190766441839775
15076042 46 18335979787876609779
15310529 11 18187362142513221776
15490181 8 17979635637257942669
15852999 172 17836627648864522129
16945 1 18272359910341640022
20379382 53 17314228869760227330
20511035 2 17697871484388142351
20645464 45 16702006608932032122
20653091 64 17822285748103985312
21501502 16 18261396589838842465
21922407 69 18189599696157899474
228727 97 18188779473205060708
23235685 24 17417822750325841116
23236772 104 18114192976574368264
23402539 116 18272089434955659341
23419403 2 15104320178046406963
23598294 1 18411424998804313969
2748010 2 16606032094116278741
369184 2 17603297146443948013
5084963 1 17775010050522807783
528886 8 17559972054903791516
53812653 8 18411985775319433084
53812654 72 17459737134314598475
5845 1 10052422470184102367
68250623 7 18187370861280995544
81228 2 17128432513971927639

>  <PUBCHEM_SHAPE_MULTIPOLES>  (1) 
276.37
4.54
1.9
1.46
0.25
0.58
0.23
0.4
0.62
-0.73
0.08
0.74
-0.37
-0.84

>  <PUBCHEM_SHAPE_SELFOVERLAP>  (1) 
546.939

>  <PUBCHEM_SHAPE_VOLUME>  (1) 
167.6

>  <PUBCHEM_COORDINATE_TYPE>  (1) 
2
5
10

$$$$
