34731
     RDKit          3D

 11 11  0  0  1  0  0  0  0  0999 V2000
    0.6175   -0.9540    0.5756 O   0  0  0  0  0  0  0  0  0  0  0  0
   -0.9299    1.5793    0.9057 O   0  0  0  0  0  0  0  0  0  0  0  0
   -0.8398    0.7298   -0.2428 C   0  0  0  0  0  0  0  0  0  0  0  0
   -0.7653   -0.7439    0.2054 C   0  0  0  0  0  0  0  0  0  0  0  0
    1.4505    0.0414   -0.0527 C   0  0  0  0  0  0  0  0  0  0  0  0
    0.5246    0.9378   -0.8858 C   0  0  0  0  0  0  0  0  0  0  0  0
   -2.0003    1.0874   -1.1644 C   0  0  0  0  0  0  0  0  0  0  0  0
   -1.0851   -1.7552   -0.9057 C   0  0  0  0  0  0  0  0  0  0  0  0
   -1.6219   -1.0636    1.4332 C   0  0  0  0  0  0  0  0  0  0  0  0
    2.4820   -0.6715   -0.9269 C   0  0  0  0  0  0  0  0  0  0  0  0
    2.1678    0.8125    1.0583 C   0  0  0  0  0  0  0  0  0  0  0  0
  1  4  1  0
  1  5  1  0
  2  3  1  0
  3  4  1  0
  3  6  1  0
  3  7  1  0
  4  8  1  0
  4  9  1  0
  5  6  1  0
  5 10  1  0
  5 11  1  0
M  END
>  <PUBCHEM_COMPOUND_CID>  (1) 
34731

>  <PUBCHEM_CONFORMER_RMSD>  (1) 
0.4

>  <PUBCHEM_CONFORMER_DIVERSEORDER>  (1) 
1
2
3

>  <PUBCHEM_MMFF94_PARTIAL_CHARGES>  (1) 
6
1 -0.56
2 -0.68
29 0.4
3 0.28
4 0.28
5 0.28

>  <PUBCHEM_EFFECTIVE_ROTOR_COUNT>  (1) 
1

>  <PUBCHEM_PHARMACOPHORE_FEATURES>  (1) 
6
1 1 acceptor
1 2 acceptor
1 2 donor
3 4 8 9 hydrophobe
3 5 10 11 hydrophobe
5 1 3 4 5 6 rings

>  <PUBCHEM_HEAVY_ATOM_COUNT>  (1) 
11

>  <PUBCHEM_ATOM_DEF_STEREO_COUNT>  (1) 
0

>  <PUBCHEM_ATOM_UDEF_STEREO_COUNT>  (1) 
1

>  <PUBCHEM_BOND_DEF_STEREO_COUNT>  (1) 
0

>  <PUBCHEM_BOND_UDEF_STEREO_COUNT>  (1) 
0

>  <PUBCHEM_ISOTOPIC_ATOM_COUNT>  (1) 
0

>  <PUBCHEM_COMPONENT_COUNT>  (1) 
1

>  <PUBCHEM_CACTVS_TAUTO_COUNT>  (1) 
1

>  <PUBCHEM_CONFORMER_ID>  (1) 
000087AB00000001

>  <PUBCHEM_MMFF94_ENERGY>  (1) 
39.4479

>  <PUBCHEM_FEATURE_SELFOVERLAP>  (1) 
30.447

>  <PUBCHEM_SHAPE_FINGERPRINT>  (1) 
12138202 97 18268403854846925164
12423570 1 10798566114906144244
13024252 1 15502958383800009286
137420 1 15085045064980424141
16945 1 18265595624776837725
20653091 64 16960724108714109859
21040471 1 17896029945280704452
21922407 69 17055009386584537003
23235685 24 18118413855779509861
2748010 2 18409167727170417604
29004967 10 17244433228464106713
369184 2 18271793670670064904
5084963 1 17899127218006987421

>  <PUBCHEM_SHAPE_MULTIPOLES>  (1) 
214.64
2.83
1.64
1.35
1.26
0.04
-0.14
0.04
0.12
-0.74
0.11
-0.15
0.06
0.47

>  <PUBCHEM_SHAPE_SELFOVERLAP>  (1) 
428.737

>  <PUBCHEM_SHAPE_VOLUME>  (1) 
131.6

>  <PUBCHEM_COORDINATE_TYPE>  (1) 
2
5
10

$$$$
