34757
     RDKit          3D

 12 13  0  0  0  0  0  0  0  0999 V2000
   -2.0317    1.4761   -0.0001 S   0  0  0  0  0  0  0  0  0  0  0  0
   -1.8503   -1.0967    0.0001 N   0  0  0  0  0  0  0  0  0  0  0  0
   -4.0530   -0.2454   -0.0001 N   0  0  0  0  0  0  0  0  0  0  0  0
    1.9520    0.6576    0.0000 C   0  0  0  0  0  0  0  0  0  0  0  0
    1.8727   -0.7307    0.0000 C   0  0  0  0  0  0  0  0  0  0  0  0
   -0.4491    0.7917   -0.0001 C   0  0  0  0  0  0  0  0  0  0  0  0
   -0.5540   -0.6026    0.0000 C   0  0  0  0  0  0  0  0  0  0  0  0
    0.7955    1.4416    0.0000 C   0  0  0  0  0  0  0  0  0  0  0  0
    0.6303   -1.3712    0.0000 C   0  0  0  0  0  0  0  0  0  0  0  0
    3.2792    1.3460    0.0001 C   0  0  0  0  0  0  0  0  0  0  0  0
    3.1101   -1.5687   -0.0001 C   0  0  0  0  0  0  0  0  0  0  0  0
   -2.7017   -0.0977    0.0002 C   0  0  0  0  0  0  0  0  0  0  0  0
  1  6  1  0
  1 12  1  0
  2  7  1  0
  2 12  2  0
  3 12  1  0
  4  5  1  0
  4  8  2  0
  4 10  1  0
  5  9  2  0
  5 11  1  0
  6  7  2  0
  6  8  1  0
  7  9  1  0
M  END
>  <PUBCHEM_COMPOUND_CID>  (1) 
34757

>  <PUBCHEM_CONFORMER_RMSD>  (1) 
0.4

>  <PUBCHEM_CONFORMER_DIVERSEORDER>  (1) 
1

>  <PUBCHEM_MMFF94_PARTIAL_CHARGES>  (1) 
16
1 -0.08
10 0.14
11 0.14
12 0.46
13 0.15
14 0.15
2 -0.57
21 0.4
22 0.4
3 -0.88
4 -0.14
5 -0.14
6 0.04
7 0.23
8 -0.15
9 -0.15

>  <PUBCHEM_EFFECTIVE_ROTOR_COUNT>  (1) 
0

>  <PUBCHEM_PHARMACOPHORE_FEATURES>  (1) 
4
1 3 donor
3 2 3 12 cation
5 1 2 6 7 12 rings
6 4 5 6 7 8 9 rings

>  <PUBCHEM_HEAVY_ATOM_COUNT>  (1) 
12

>  <PUBCHEM_ATOM_DEF_STEREO_COUNT>  (1) 
0

>  <PUBCHEM_ATOM_UDEF_STEREO_COUNT>  (1) 
0

>  <PUBCHEM_BOND_DEF_STEREO_COUNT>  (1) 
0

>  <PUBCHEM_BOND_UDEF_STEREO_COUNT>  (1) 
0

>  <PUBCHEM_ISOTOPIC_ATOM_COUNT>  (1) 
0

>  <PUBCHEM_COMPONENT_COUNT>  (1) 
1

>  <PUBCHEM_CACTVS_TAUTO_COUNT>  (1) 
2

>  <PUBCHEM_CONFORMER_ID>  (1) 
000087C500000001

>  <PUBCHEM_MMFF94_ENERGY>  (1) 
25.5821

>  <PUBCHEM_FEATURE_SELFOVERLAP>  (1) 
20.368

>  <PUBCHEM_SHAPE_FINGERPRINT>  (1) 
10219947 1 18412266138073758743
10608611 8 18409162186525929797
10967382 1 18410855498825097956
11471102 20 18410288112571399677
12032990 46 18338521841453707415
12932764 1 17489860561786777033
13380535 76 18337107977227848450
14144814 61 18411702075649987369
14325111 11 18410856542555158241
14576447 43 17913473908273582983
15219456 202 18335977593042910949
15442244 35 18267868272361836168
15536298 74 18343302557219520256
15775835 57 18272373121682219405
16945 1 18338516472813003268
17844478 74 18113344102532734857
18186145 218 17894629214969981903
19973954 147 18410576149862687948
20201158 50 18408885156824117523
20645477 70 18411413986729933967
20871998 22 18127132970488084558
21501502 16 18339646641843641040
21501925 9 18337942412064043570
23235685 24 18336822108199017444
2334 1 18410573976756929228
23402655 69 18341602712470053253
23463225 33 18409448046885327946
23552423 10 18333733489968713090
23559900 14 18125157131488238198
2748010 2 18410008797736535020
5084963 1 18271805683472091226
528886 8 18339356478126705872
53812653 166 18200307857186388864
63268167 104 18412266142152513448
7364860 26 18343301470698321892
8809292 202 18259992573730822531

>  <PUBCHEM_SHAPE_MULTIPOLES>  (1) 
240.84
5.44
1.78
0.61
1.64
0.13
0
-0.29
0
-0.82
0
-0.02
0.02
0

>  <PUBCHEM_SHAPE_SELFOVERLAP>  (1) 
508.972

>  <PUBCHEM_SHAPE_VOLUME>  (1) 
138.6

>  <PUBCHEM_COORDINATE_TYPE>  (1) 
2
5
10

$$$$
