34767
     RDKit          3D

 12 12  0  0  0  0  0  0  0  0999 V2000
   -2.0497   -0.3475   -0.0802 O   0  0  0  0  0  0  0  0  0  0  0  0
    3.9286   -0.7297    0.2261 O   0  0  0  0  0  0  0  0  0  0  0  0
   -1.5558    1.8649    0.2154 O   0  0  0  0  0  0  0  0  0  0  0  0
    0.1074    0.3766   -0.4294 N   0  0  0  0  0  0  0  0  0  0  0  0
    0.5363   -0.9826   -0.7755 C   0  0  0  0  0  0  0  0  0  0  0  0
    1.1669    1.3841   -0.4667 C   0  0  0  0  0  0  0  0  0  0  0  0
    1.6391   -1.4526    0.1639 C   0  0  0  0  0  0  0  0  0  0  0  0
    2.2976    1.0143    0.4839 C   0  0  0  0  0  0  0  0  0  0  0  0
    2.7400   -0.4148    0.2446 C   0  0  0  0  0  0  0  0  0  0  0  0
   -1.1976    0.7249   -0.0746 C   0  0  0  0  0  0  0  0  0  0  0  0
   -3.4100   -0.0746    0.2755 C   0  0  0  0  0  0  0  0  0  0  0  0
   -4.2029   -1.3629    0.2169 C   0  0  0  0  0  0  0  0  0  0  0  0
  1 10  1  0
  1 11  1  0
  2  9  2  0
  3 10  2  0
  4  5  1  0
  4  6  1  0
  4 10  1  0
  5  7  1  0
  6  8  1  0
  7  9  1  0
  8  9  1  0
 11 12  1  0
M  END
>  <PUBCHEM_COMPOUND_CID>  (1) 
34767

>  <PUBCHEM_CONFORMER_RMSD>  (1) 
0.6

>  <PUBCHEM_CONFORMER_DIVERSEORDER>  (1) 
1
6
5
12
7
9
8
4
2
10
3
11

>  <PUBCHEM_MMFF94_PARTIAL_CHARGES>  (1) 
11
1 -0.43
10 0.78
11 0.28
2 -0.57
3 -0.57
4 -0.66
5 0.3
6 0.3
7 0.06
8 0.06
9 0.45

>  <PUBCHEM_EFFECTIVE_ROTOR_COUNT>  (1) 
4

>  <PUBCHEM_PHARMACOPHORE_FEATURES>  (1) 
3
1 2 acceptor
1 3 acceptor
6 4 5 6 7 8 9 rings

>  <PUBCHEM_HEAVY_ATOM_COUNT>  (1) 
12

>  <PUBCHEM_ATOM_DEF_STEREO_COUNT>  (1) 
0

>  <PUBCHEM_ATOM_UDEF_STEREO_COUNT>  (1) 
0

>  <PUBCHEM_BOND_DEF_STEREO_COUNT>  (1) 
0

>  <PUBCHEM_BOND_UDEF_STEREO_COUNT>  (1) 
0

>  <PUBCHEM_ISOTOPIC_ATOM_COUNT>  (1) 
0

>  <PUBCHEM_COMPONENT_COUNT>  (1) 
1

>  <PUBCHEM_CACTVS_TAUTO_COUNT>  (1) 
2

>  <PUBCHEM_CONFORMER_ID>  (1) 
000087CF00000001

>  <PUBCHEM_MMFF94_ENERGY>  (1) 
12.4696

>  <PUBCHEM_FEATURE_SELFOVERLAP>  (1) 
15.223

>  <PUBCHEM_SHAPE_FINGERPRINT>  (1) 
10219947 1 18410575110432882725
10857977 72 18337662032208950256
11062470 55 13479134588083288518
11806522 49 18334576862631909550
12032990 46 18341052909163676278
12251169 10 18202001044768286679
12932764 1 17418080010419472196
14251717 144 18338232777697111119
14252887 29 18201730543301356414
14325111 11 18411698794136873420
15775835 57 17917147324691633584
16945 1 18271793623567901398
177051 138 18409167735776260723
18186145 218 13262396691800875047
20201158 50 18260268555544399915
20645477 70 18408882967045320687
20653085 51 10663804313170699023
20871998 22 18269847431783177390
21293036 1 10809342243633628999
21501925 9 18410291445444902707
2748010 2 18055068753304280558
581208 293 18336543927425033291

>  <PUBCHEM_SHAPE_MULTIPOLES>  (1) 
224.37
6.42
1.65
0.72
3.92
0.24
0.04
-2.48
-1.22
0.02
-0.02
-0.09
-0.02
0.01

>  <PUBCHEM_SHAPE_SELFOVERLAP>  (1) 
440.649

>  <PUBCHEM_SHAPE_VOLUME>  (1) 
134.3

>  <PUBCHEM_COORDINATE_TYPE>  (1) 
2
5
10

$$$$
