34765
     RDKit          3D

 26 29  0  0  0  0  0  0  0  0999 V2000
    2.1810    1.4229   -0.4001 O   0  0  0  0  0  0  0  0  0  0  0  0
    1.6206   -2.0863   -0.1378 O   0  0  0  0  0  0  0  0  0  0  0  0
    2.1067    1.5318    1.9154 O   0  0  0  0  0  0  0  0  0  0  0  0
    1.3639    0.2503   -0.3194 N   0  0  0  0  0  0  0  0  0  0  0  0
   -3.1525   -1.5311    0.9382 C   0  0  0  0  0  0  0  0  0  0  0  0
   -2.1448   -0.6033    0.2924 C   0  0  0  0  0  0  0  0  0  0  0  0
   -2.8037    0.4296   -0.4117 C   0  0  0  0  0  0  0  0  0  0  0  0
   -4.4645   -0.9029    0.5173 C   0  0  0  0  0  0  0  0  0  0  0  0
   -4.2323    0.2450   -0.2731 C   0  0  0  0  0  0  0  0  0  0  0  0
   -0.7638   -0.6821    0.3355 C   0  0  0  0  0  0  0  0  0  0  0  0
   -2.0765    1.3986   -1.0825 C   0  0  0  0  0  0  0  0  0  0  0  0
   -0.0310    0.2950   -0.3408 C   0  0  0  0  0  0  0  0  0  0  0  0
   -5.7472   -1.3256    0.8191 C   0  0  0  0  0  0  0  0  0  0  0  0
   -5.2933    0.9831   -0.7706 C   0  0  0  0  0  0  0  0  0  0  0  0
   -0.6807    1.3251   -1.0425 C   0  0  0  0  0  0  0  0  0  0  0  0
   -6.8166   -0.5815    0.3174 C   0  0  0  0  0  0  0  0  0  0  0  0
   -6.5920    0.5613   -0.4695 C   0  0  0  0  0  0  0  0  0  0  0  0
    2.0906   -0.9540   -0.2165 C   0  0  0  0  0  0  0  0  0  0  0  0
    3.5654   -0.8840   -0.2030 C   0  0  0  0  0  0  0  0  0  0  0  0
    4.2245   -0.7584    1.0072 C   0  0  0  0  0  0  0  0  0  0  0  0
    4.2550   -0.9454   -1.4012 C   0  0  0  0  0  0  0  0  0  0  0  0
    2.4703    1.9591    0.8279 C   0  0  0  0  0  0  0  0  0  0  0  0
    5.6178   -0.6920    1.0199 C   0  0  0  0  0  0  0  0  0  0  0  0
    5.6483   -0.8791   -1.3887 C   0  0  0  0  0  0  0  0  0  0  0  0
    6.3296   -0.7523   -0.1781 C   0  0  0  0  0  0  0  0  0  0  0  0
    3.3251    3.1762    0.6454 C   0  0  0  0  0  0  0  0  0  0  0  0
  1  4  1  0
  1 22  1  0
  2 18  2  0
  3 22  2  0
  4 12  1  0
  4 18  1  0
  5  6  1  0
  5  8  1  0
  6  7  2  0
  6 10  1  0
  7  9  1  0
  7 11  1  0
  8  9  2  0
  8 13  1  0
  9 14  1  0
 10 12  2  0
 11 15  2  0
 12 15  1  0
 13 16  2  0
 14 17  2  0
 16 17  1  0
 18 19  1  0
 19 20  2  0
 19 21  1  0
 20 23  1  0
 21 24  2  0
 22 26  1  0
 23 25  2  0
 24 25  1  0
M  END
>  <PUBCHEM_COMPOUND_CID>  (1) 
34765

>  <PUBCHEM_CONFORMER_RMSD>  (1) 
0.8

>  <PUBCHEM_CONFORMER_DIVERSEORDER>  (1) 
1
7
14
36
18
17
31
20
38
8
30
32
33
2
24
25
27
39
29
11
19
12
35
40
9
21
23
15
10
13
26
16
3
5
22
37
28
41
6
4
34

>  <PUBCHEM_MMFF94_PARTIAL_CHARGES>  (1) 
36
1 -0.19
10 -0.15
11 -0.15
12 0.12
13 -0.15
14 -0.15
15 -0.15
16 -0.15
17 -0.15
18 0.54
19 0.09
2 -0.57
20 -0.15
21 -0.15
22 0.66
23 -0.15
24 -0.15
25 -0.15
26 0.06
29 0.15
3 -0.57
30 0.15
31 0.15
32 0.15
33 0.15
34 0.15
35 0.15
36 0.15
37 0.15
38 0.15
39 0.15
4 -0.14
40 0.15
5 0.29
6 -0.14
8 -0.14

>  <PUBCHEM_EFFECTIVE_ROTOR_COUNT>  (1) 
5.2

>  <PUBCHEM_PHARMACOPHORE_FEATURES>  (1) 
6
1 2 acceptor
1 3 acceptor
5 5 6 7 8 9 rings
6 19 20 21 23 24 25 rings
6 6 7 10 11 12 15 rings
6 8 9 13 14 16 17 rings

>  <PUBCHEM_HEAVY_ATOM_COUNT>  (1) 
26

>  <PUBCHEM_ATOM_DEF_STEREO_COUNT>  (1) 
0

>  <PUBCHEM_ATOM_UDEF_STEREO_COUNT>  (1) 
0

>  <PUBCHEM_BOND_DEF_STEREO_COUNT>  (1) 
0

>  <PUBCHEM_BOND_UDEF_STEREO_COUNT>  (1) 
0

>  <PUBCHEM_ISOTOPIC_ATOM_COUNT>  (1) 
0

>  <PUBCHEM_COMPONENT_COUNT>  (1) 
1

>  <PUBCHEM_CACTVS_TAUTO_COUNT>  (1) 
1

>  <PUBCHEM_CONFORMER_ID>  (1) 
000087CD00000001

>  <PUBCHEM_MMFF94_ENERGY>  (1) 
98.6608

>  <PUBCHEM_FEATURE_SELFOVERLAP>  (1) 
30.613

>  <PUBCHEM_SHAPE_FINGERPRINT>  (1) 
10 15 18410283740790428432
10366900 7 18260555506308838530
11045977 3 18409449214979392963
11315181 36 18335989709746864121
11524674 6 18131913763147337887
11545043 162 18334297587031739793
11646440 116 17989486308170761066
11719270 70 18261671480842451554
12035758 1 18270661144372412088
12166972 35 16415759721491493770
12236239 1 16081089255521790935
12403259 415 18260258655845223301
12516196 113 18343585126869604973
12596602 18 15841545288914025455
12616971 3 17561078142290216533
12788726 201 15213289799543043845
13140716 1 18266457788107057578
13402501 40 18335140877684771543
13533116 47 17917713521482042697
13685833 64 18407763642274127883
13782708 43 18411420648266537779
14170010 4 18060134354087702816
14294032 229 15937797529700986869
14341114 176 18343301487387912264
14849402 71 17917146221207442280
14955137 171 17846782906041785430
15183329 4 17894916204737461239
15238133 3 16702034079468822913
15849732 13 16702019764575044004
17844677 252 18411141342380108865
1813 80 16660638605171416157
18681886 176 17458350778964062125
18785283 64 18339920545510751968
21033648 29 17059194965759272450
21033650 10 17461744800283047062
21150785 3 13912327910826667507
21267235 1 17967823769167787123
21365058 113 18271823297851040388
21792961 116 18338805507855574654
21859007 373 18116133529099272973
23198884 109 14056722336048188063
23522609 53 17751388121205898500
23536379 177 15864072052841505255
23559900 14 18261111906685248053
23569943 247 17128755500135303862
23622692 88 17418093226086511876
3004659 81 17748832912380719334
3178227 256 18413394237120258994
335352 9 18040154016562082839
3411729 13 18265610073902007048
34797466 226 18410866456014599590
350125 39 18408041805636101932
3633792 109 17917427584952020791
397830 11 17845363526350645947
4073 2 17313675960944660835
4093350 32 17632295701160517904
5104073 3 18335425707589792057
542803 24 15791451526177646727
59755656 215 18335701615782841399
6823239 73 18187359956554749208
7495541 125 18261110777377601500
8863177 126 18189625006479660347

>  <PUBCHEM_SHAPE_MULTIPOLES>  (1) 
512.48
16.67
2.07
1.23
7.8
1.31
-0.07
-4.41
0.24
-1.48
-0.45
-1.02
0.16
1.9

>  <PUBCHEM_SHAPE_SELFOVERLAP>  (1) 
1140.33

>  <PUBCHEM_SHAPE_VOLUME>  (1) 
273.1

>  <PUBCHEM_COORDINATE_TYPE>  (1) 
2
5
10

$$$$
