34778
     RDKit          3D

 11 12  0  0  0  0  0  0  0  0999 V2000
   -1.3102   -2.1743   -0.0006 S   0  0  0  0  0  0  0  0  0  0  0  0
   -0.1998    0.1607    0.0002 C   0  0  0  0  0  0  0  0  0  0  0  0
   -1.6202    0.3667    0.0004 C   0  0  0  0  0  0  0  0  0  0  0  0
    0.8660    1.0928    0.0002 C   0  0  0  0  0  0  0  0  0  0  0  0
    0.1138   -1.2020    0.0000 C   0  0  0  0  0  0  0  0  0  0  0  0
   -2.3315   -0.8097   -0.0002 C   0  0  0  0  0  0  0  0  0  0  0  0
    2.1918    0.6512   -0.0001 C   0  0  0  0  0  0  0  0  0  0  0  0
    1.4493   -1.6505    0.0002 C   0  0  0  0  0  0  0  0  0  0  0  0
   -2.2843    1.6950    0.0004 C   0  0  0  0  0  0  0  0  0  0  0  0
    0.6472    2.5763   -0.0008 C   0  0  0  0  0  0  0  0  0  0  0  0
    2.4780   -0.7064    0.0004 C   0  0  0  0  0  0  0  0  0  0  0  0
  1  5  1  0
  1  6  1  0
  2  3  1  0
  2  4  1  0
  2  5  2  0
  3  6  2  0
  3  9  1  0
  4  7  2  0
  4 10  1  0
  5  8  1  0
  7 11  1  0
  8 11  2  0
M  END
>  <PUBCHEM_COMPOUND_CID>  (1) 
34778

>  <PUBCHEM_CONFORMER_RMSD>  (1) 
0.4

>  <PUBCHEM_CONFORMER_DIVERSEORDER>  (1) 
1

>  <PUBCHEM_MMFF94_PARTIAL_CHARGES>  (1) 
14
1 -0.08
10 0.14
11 -0.15
12 0.15
13 0.15
14 0.15
21 0.15
3 -0.18
4 -0.14
5 0.04
6 -0.11
7 -0.15
8 -0.15
9 0.18

>  <PUBCHEM_EFFECTIVE_ROTOR_COUNT>  (1) 
0

>  <PUBCHEM_PHARMACOPHORE_FEATURES>  (1) 
2
5 1 2 3 5 6 rings
6 2 4 5 7 8 11 rings

>  <PUBCHEM_HEAVY_ATOM_COUNT>  (1) 
11

>  <PUBCHEM_ATOM_DEF_STEREO_COUNT>  (1) 
0

>  <PUBCHEM_ATOM_UDEF_STEREO_COUNT>  (1) 
0

>  <PUBCHEM_BOND_DEF_STEREO_COUNT>  (1) 
0

>  <PUBCHEM_BOND_UDEF_STEREO_COUNT>  (1) 
0

>  <PUBCHEM_ISOTOPIC_ATOM_COUNT>  (1) 
0

>  <PUBCHEM_COMPONENT_COUNT>  (1) 
1

>  <PUBCHEM_CACTVS_TAUTO_COUNT>  (1) 
1

>  <PUBCHEM_CONFORMER_ID>  (1) 
000087DA00000001

>  <PUBCHEM_MMFF94_ENERGY>  (1) 
26.1655

>  <PUBCHEM_FEATURE_SELFOVERLAP>  (1) 
10.208

>  <PUBCHEM_SHAPE_FINGERPRINT>  (1) 
10967382 1 18122624955296268709
11206711 2 18337675337748601839
12382932 28 18339634543200057600
12524768 44 18198909101948699118
12897270 3 18122062275862568119
16945 1 18338517563676726151
18185500 45 18410573968114188674
193761 8 18266459986892455461
19973954 147 18338518667483119851
21040471 1 18410855430168983202
21501502 16 18338237184022008611
2334 1 18410575046119298947
23552423 10 18119246417930654079
23559900 14 18270971138201344230
241688 4 18338234856096948032
2748010 2 18339362946416155295
5084963 1 18058172902078038315
528886 8 18267017250214082097
66348 1 18411135814128970697

>  <PUBCHEM_SHAPE_MULTIPOLES>  (1) 
230.22
3.27
2.61
0.62
0.04
0.61
0
-0.12
0
0.27
0
0.01
-0.02
0

>  <PUBCHEM_SHAPE_SELFOVERLAP>  (1) 
486.063

>  <PUBCHEM_SHAPE_VOLUME>  (1) 
132

>  <PUBCHEM_COORDINATE_TYPE>  (1) 
2
5
10

$$$$
