34772
     RDKit          3D

 22 24  0  0  1  0  0  0  0  0999 V2000
    2.6968   -2.2375    0.1359 O   0  0  0  0  0  0  0  0  0  0  0  0
   -8.1487   -0.7996   -0.7001 O   0  0  0  0  0  0  0  0  0  0  0  0
   -0.5544    0.4491    0.5735 N   0  0  0  0  0  0  0  0  0  0  0  0
    1.8568   -0.0185    0.5903 C   0  0  0  0  0  0  0  0  0  0  0  0
    2.1232    1.3273   -0.0824 C   0  0  0  0  0  0  0  0  0  0  0  0
    3.5011    1.8529    0.3015 C   0  0  0  0  0  0  0  0  0  0  0  0
    0.4648   -0.5280    0.2230 C   0  0  0  0  0  0  0  0  0  0  0  0
    2.9266   -1.0329    0.1994 C   0  0  0  0  0  0  0  0  0  0  0  0
    4.5763    0.8452    0.0002 C   0  0  0  0  0  0  0  0  0  0  0  0
    4.3053   -0.5308   -0.0437 C   0  0  0  0  0  0  0  0  0  0  0  0
   -1.8831   -0.0301    0.2150 C   0  0  0  0  0  0  0  0  0  0  0  0
    5.8928    1.2847   -0.2014 C   0  0  0  0  0  0  0  0  0  0  0  0
    5.3316   -1.4451   -0.3130 C   0  0  0  0  0  0  0  0  0  0  0  0
   -2.9556    1.0024    0.5709 C   0  0  0  0  0  0  0  0  0  0  0  0
    6.9141    0.3722   -0.4669 C   0  0  0  0  0  0  0  0  0  0  0  0
    6.6327   -0.9903   -0.5256 C   0  0  0  0  0  0  0  0  0  0  0  0
   -4.3366    0.5229    0.2329 C   0  0  0  0  0  0  0  0  0  0  0  0
   -4.8688    0.7880   -1.0237 C   0  0  0  0  0  0  0  0  0  0  0  0
   -5.0713   -0.1819    1.1797 C   0  0  0  0  0  0  0  0  0  0  0  0
   -6.1527    0.3426   -1.3378 C   0  0  0  0  0  0  0  0  0  0  0  0
   -6.3552   -0.6275    0.8657 C   0  0  0  0  0  0  0  0  0  0  0  0
   -6.8960   -0.3653   -0.3932 C   0  0  0  0  0  0  0  0  0  0  0  0
  1  8  2  0
  2 22  1  0
  3  7  1  0
  3 11  1  0
  4  5  1  0
  4  7  1  0
  4  8  1  0
  5  6  1  0
  6  9  1  0
  8 10  1  0
  9 10  2  0
  9 12  1  0
 10 13  1  0
 11 14  1  0
 12 15  2  0
 13 16  2  0
 14 17  1  0
 15 16  1  0
 17 18  2  0
 17 19  1  0
 18 20  1  0
 19 21  2  0
 20 22  2  0
 21 22  1  0
M  END
>  <PUBCHEM_COMPOUND_CID>  (1) 
34772

>  <PUBCHEM_CONFORMER_RMSD>  (1) 
0.8

>  <PUBCHEM_CONFORMER_DIVERSEORDER>  (1) 
6
47
46
38
7
26
44
13
28
32
37
18
5
31
36
20
35
9
39
41
33
12
29
1
40
48
21
2
24
30
27
15
42
10
4
3
49
22
16
25
34
19
45
8
14
23
17
11
43

>  <PUBCHEM_MMFF94_PARTIAL_CHARGES>  (1) 
31
1 -0.57
10 0.09
11 0.27
12 -0.15
13 -0.15
14 0.14
15 -0.15
16 -0.15
17 -0.14
18 -0.15
19 -0.15
2 -0.53
20 -0.15
21 -0.15
22 0.08
3 -0.9
30 0.36
33 0.15
34 0.15
37 0.15
38 0.15
39 0.15
4 0.06
40 0.15
41 0.15
42 0.15
43 0.45
6 0.14
7 0.27
8 0.42
9 -0.14

>  <PUBCHEM_EFFECTIVE_ROTOR_COUNT>  (1) 
5.6

>  <PUBCHEM_PHARMACOPHORE_FEATURES>  (1) 
7
1 1 acceptor
1 2 donor
1 3 cation
1 3 donor
6 17 18 19 20 21 22 rings
6 4 5 6 8 9 10 rings
6 9 10 12 13 15 16 rings

>  <PUBCHEM_HEAVY_ATOM_COUNT>  (1) 
22

>  <PUBCHEM_ATOM_DEF_STEREO_COUNT>  (1) 
0

>  <PUBCHEM_ATOM_UDEF_STEREO_COUNT>  (1) 
1

>  <PUBCHEM_BOND_DEF_STEREO_COUNT>  (1) 
0

>  <PUBCHEM_BOND_UDEF_STEREO_COUNT>  (1) 
0

>  <PUBCHEM_ISOTOPIC_ATOM_COUNT>  (1) 
0

>  <PUBCHEM_COMPONENT_COUNT>  (1) 
1

>  <PUBCHEM_CACTVS_TAUTO_COUNT>  (1) 
4

>  <PUBCHEM_CONFORMER_ID>  (1) 
000087D400000006

>  <PUBCHEM_MMFF94_ENERGY>  (1) 
44.8851

>  <PUBCHEM_FEATURE_SELFOVERLAP>  (1) 
35.542

>  <PUBCHEM_SHAPE_FINGERPRINT>  (1) 
10087517 78 14201389461881818647
10299344 5 17632297878429245087
10411042 1 18122345671972152230
10595046 47 18342740671938278625
10693767 8 17986400984577161790
11315181 36 17385447627153465733
11524674 6 13902186002618894141
11719270 70 18334851698043394466
12166972 35 17989207057581688216
12236239 1 17846502508411023088
12516196 113 17632856425492763673
12730499 353 18261112963510947018
13533116 47 17846219926008028530
13668630 136 17989489606362863423
14123256 10 18413670214522616493
14170010 4 18411136961624191336
14251757 52 15574723521299718934
14251764 18 17632579361452584413
14251764 46 18333732420774979640
14933364 13 18333732407953628109
15003188 100 18261111902485297628
15142383 8 10159703473484769730
15183329 4 18201719552543180686
15419008 47 17676483956568429725
15461852 350 15285365041907227611
15475509 35 14332852509906992382
15716309 27 17561365080612754033
15849732 13 18113620101020020311
17093844 174 12463571764848300011
17844677 252 18411704266526868073
19489759 90 16370724829773560361
20157964 124 18411702102195296472
20281389 69 8358259237612520607
21150785 3 18410855468723371167
21267235 1 18272656735631816792
21315759 40 17489871557414530453
221357 26 18409728448310722792
22956985 138 16197643969915412166
23035841 295 16558750122552752261
23081809 10 18060141998622951337
23424782 7 18188213199474570555
23522609 53 17345499104898206825
23559900 14 18336263552471991625
300161 21 12685093683367665313
3004659 81 18408318887003511865
335352 9 18410863158070637534
34797466 226 15985105232809013376
351380 3 17418089914972694409
3545911 37 18335422387041917009
4073 2 17967821595038960962
4325135 7 18272932726504807943
5283156 175 17775568628769266353
59755656 215 18113617872090216290
59755656 520 17095238155161476027

>  <PUBCHEM_SHAPE_MULTIPOLES>  (1) 
436.03
23.38
1.51
0.95
20.04
0.1
-0.07
2.71
-5.09
-2.12
0.01
1.35
-0.03
0.43

>  <PUBCHEM_SHAPE_SELFOVERLAP>  (1) 
932.944

>  <PUBCHEM_SHAPE_VOLUME>  (1) 
240.4

>  <PUBCHEM_COORDINATE_TYPE>  (1) 
2
5
10

$$$$
