34774
     RDKit          3D

 12 12  0  0  1  0  0  0  0  0999 V2000
   -0.1154   -0.6030    0.8971 O   0  0  0  0  0  0  0  0  0  0  0  0
    1.0729    1.9047   -0.4139 O   0  0  0  0  0  0  0  0  0  0  0  0
    1.0336   -0.4951    0.0311 C   0  0  0  0  0  0  0  0  0  0  0  0
   -1.2413    0.0736    0.3034 C   0  0  0  0  0  0  0  0  0  0  0  0
    0.7155    0.6361   -0.9516 C   0  0  0  0  0  0  0  0  0  0  0  0
   -0.7921    0.5538   -1.0810 C   0  0  0  0  0  0  0  0  0  0  0  0
    2.2607   -0.2372    0.9040 C   0  0  0  0  0  0  0  0  0  0  0  0
   -2.4036   -0.9134    0.2092 C   0  0  0  0  0  0  0  0  0  0  0  0
    1.1877   -1.8390   -0.6928 C   0  0  0  0  0  0  0  0  0  0  0  0
   -1.6230    1.2336    1.2265 C   0  0  0  0  0  0  0  0  0  0  0  0
    3.5020   -0.0182    0.0613 C   0  0  0  0  0  0  0  0  0  0  0  0
   -3.5970   -0.2959   -0.4932 C   0  0  0  0  0  0  0  0  0  0  0  0
  1  3  1  0
  1  4  1  0
  2  5  1  0
  3  5  1  0
  3  7  1  0
  3  9  1  0
  4  6  1  0
  4  8  1  0
  4 10  1  0
  5  6  1  0
  7 11  1  0
  8 12  1  0
M  END
>  <PUBCHEM_COMPOUND_CID>  (1) 
34774

>  <PUBCHEM_CONFORMER_RMSD>  (1) 
0.6

>  <PUBCHEM_CONFORMER_DIVERSEORDER>  (1) 
5
25
20
30
14
22
6
31
19
15
24
27
1
23
7
16
29
3
9
21
28
18
4
26
32
13
12
11
8
2
10
17

>  <PUBCHEM_MMFF94_PARTIAL_CHARGES>  (1) 
6
1 -0.56
2 -0.68
26 0.4
3 0.28
4 0.28
5 0.28

>  <PUBCHEM_EFFECTIVE_ROTOR_COUNT>  (1) 
3

>  <PUBCHEM_PHARMACOPHORE_FEATURES>  (1) 
6
1 1 acceptor
1 11 hydrophobe
1 12 hydrophobe
1 2 acceptor
1 2 donor
5 1 3 4 5 6 rings

>  <PUBCHEM_HEAVY_ATOM_COUNT>  (1) 
12

>  <PUBCHEM_ATOM_DEF_STEREO_COUNT>  (1) 
0

>  <PUBCHEM_ATOM_UDEF_STEREO_COUNT>  (1) 
3

>  <PUBCHEM_BOND_DEF_STEREO_COUNT>  (1) 
0

>  <PUBCHEM_BOND_UDEF_STEREO_COUNT>  (1) 
0

>  <PUBCHEM_ISOTOPIC_ATOM_COUNT>  (1) 
0

>  <PUBCHEM_COMPONENT_COUNT>  (1) 
1

>  <PUBCHEM_CACTVS_TAUTO_COUNT>  (1) 
1

>  <PUBCHEM_CONFORMER_ID>  (1) 
000087D600000005

>  <PUBCHEM_MMFF94_ENERGY>  (1) 
34.7023

>  <PUBCHEM_FEATURE_SELFOVERLAP>  (1) 
30.446

>  <PUBCHEM_SHAPE_FINGERPRINT>  (1) 
10219947 1 18409728469568826758
11062470 55 16805599265605968175
12423570 1 9134114048036913893
12932764 1 16271632413192053162
13024252 1 15502370085034009410
13839132 238 16986608454767308817
14128692 85 18262233455747865695
14943859 89 8790884094508896574
14993402 34 18409169943621540190
15310529 11 17346313748160525619
16945 1 18339655502482310063
20201158 50 18334572443221546119
21028194 46 12463568491091677482
21501502 16 18127695915877311730
21922407 69 18199772339035852769
23419403 2 16182628278426738310
2748010 2 18120656829387779823
29004967 10 18410855425858224150
369184 2 17603861161601928434
5084963 1 18260544558553154392

>  <PUBCHEM_SHAPE_MULTIPOLES>  (1) 
235.22
4.51
1.45
1.12
0.46
0.01
0
-0.59
-0.24
-0.16
0.13
0.08
0.19
-0.2

>  <PUBCHEM_SHAPE_SELFOVERLAP>  (1) 
465.86

>  <PUBCHEM_SHAPE_VOLUME>  (1) 
143.1

>  <PUBCHEM_COORDINATE_TYPE>  (1) 
2
5
10

$$$$
