34781
     RDKit          3D

 27 30  0  0  0  0  0  0  0  0999 V2000
    4.4956    1.6154   -0.2162 O   0  0  0  0  0  0  0  0  0  0  0  0
   -4.6453   -2.1278   -0.5924 O   0  0  0  0  0  0  0  0  0  0  0  0
   -5.9756    0.2454   -0.0393 O   0  0  0  0  0  0  0  0  0  0  0  0
    6.0251   -0.6328    0.1707 O   0  0  0  0  0  0  0  0  0  0  0  0
    0.3138    1.3334   -0.2590 N   0  0  0  0  0  0  0  0  0  0  0  0
   -0.3109    0.1301   -0.1023 C   0  0  0  0  0  0  0  0  0  0  0  0
   -0.4615    2.5756   -0.5071 C   0  0  0  0  0  0  0  0  0  0  0  0
   -1.6977    2.5943    0.3716 C   0  0  0  0  0  0  0  0  0  0  0  0
   -1.7864    0.1402   -0.1200 C   0  0  0  0  0  0  0  0  0  0  0  0
   -2.4857    1.3403    0.1225 C   0  0  0  0  0  0  0  0  0  0  0  0
    0.4715   -1.0200    0.0981 C   0  0  0  0  0  0  0  0  0  0  0  0
    1.8678   -0.9416    0.1213 C   0  0  0  0  0  0  0  0  0  0  0  0
    1.6637    1.4261   -0.2478 C   0  0  0  0  0  0  0  0  0  0  0  0
    2.4766    0.3099   -0.0576 C   0  0  0  0  0  0  0  0  0  0  0  0
   -2.5489   -1.0170   -0.3602 C   0  0  0  0  0  0  0  0  0  0  0  0
   -3.8871    1.3661    0.1626 C   0  0  0  0  0  0  0  0  0  0  0  0
   -0.1352   -2.3492    0.4455 C   0  0  0  0  0  0  0  0  0  0  0  0
    3.8777    0.4088   -0.0410 C   0  0  0  0  0  0  0  0  0  0  0  0
    2.6734   -2.0762    0.3190 C   0  0  0  0  0  0  0  0  0  0  0  0
   -3.9466   -0.9857   -0.3362 C   0  0  0  0  0  0  0  0  0  0  0  0
   -4.6151    0.2038   -0.0693 C   0  0  0  0  0  0  0  0  0  0  0  0
    4.6660   -0.7251    0.1544 C   0  0  0  0  0  0  0  0  0  0  0  0
    4.0643   -1.9669    0.3350 C   0  0  0  0  0  0  0  0  0  0  0  0
    4.7578    2.3803    0.9561 C   0  0  0  0  0  0  0  0  0  0  0  0
   -4.9768   -2.9482    0.5258 C   0  0  0  0  0  0  0  0  0  0  0  0
   -6.5802    1.5064    0.2421 C   0  0  0  0  0  0  0  0  0  0  0  0
    6.6999   -0.7855   -1.0765 C   0  0  0  0  0  0  0  0  0  0  0  0
  1 18  1  0
  1 24  1  0
  2 20  1  0
  2 25  1  0
  3 21  1  0
  3 26  1  0
  4 22  1  0
  4 27  1  0
  5  6  2  0
  5  7  1  0
  5 13  1  0
  6  9  1  0
  6 11  1  0
  7  8  1  0
  8 10  1  0
  9 10  2  0
  9 15  1  0
 10 16  1  0
 11 12  2  0
 11 17  1  0
 12 14  1  0
 12 19  1  0
 13 14  2  0
 14 18  1  0
 15 20  2  0
 16 21  2  0
 18 22  2  0
 19 23  2  0
 20 21  1  0
 22 23  1  0
M  CHG  1   5   1
M  END
>  <PUBCHEM_COMPOUND_CID>  (1) 
34781

>  <PUBCHEM_CONFORMER_RMSD>  (1) 
0.8

>  <PUBCHEM_CONFORMER_DIVERSEORDER>  (1) 
1
2

>  <PUBCHEM_MMFF94_PARTIAL_CHARGES>  (1) 
29
1 -0.36
10 -0.14
11 -0.14
13 0.21
15 -0.15
16 -0.15
17 0.14
18 0.08
19 -0.15
2 -0.36
20 0.08
21 0.08
22 0.08
23 -0.15
24 0.28
25 0.28
26 0.28
27 0.28
3 -0.36
32 0.15
33 0.15
34 0.15
38 0.15
39 0.15
4 -0.36
5 -0.21
6 0.36
7 0.49
8 0.14

>  <PUBCHEM_EFFECTIVE_ROTOR_COUNT>  (1) 
4.4

>  <PUBCHEM_PHARMACOPHORE_FEATURES>  (1) 
8
1 1 acceptor
1 2 acceptor
1 3 acceptor
1 4 acceptor
6 12 14 18 19 22 23 rings
6 5 6 11 12 13 14 rings
6 5 6 7 8 9 10 rings
6 9 10 15 16 20 21 rings

>  <PUBCHEM_HEAVY_ATOM_COUNT>  (1) 
27

>  <PUBCHEM_ATOM_DEF_STEREO_COUNT>  (1) 
0

>  <PUBCHEM_ATOM_UDEF_STEREO_COUNT>  (1) 
0

>  <PUBCHEM_BOND_DEF_STEREO_COUNT>  (1) 
0

>  <PUBCHEM_BOND_UDEF_STEREO_COUNT>  (1) 
0

>  <PUBCHEM_ISOTOPIC_ATOM_COUNT>  (1) 
0

>  <PUBCHEM_COMPONENT_COUNT>  (1) 
1

>  <PUBCHEM_CACTVS_TAUTO_COUNT>  (1) 
1

>  <PUBCHEM_CONFORMER_ID>  (1) 
000087DD00000001

>  <PUBCHEM_MMFF94_ENERGY>  (1) 
142.5588

>  <PUBCHEM_FEATURE_SELFOVERLAP>  (1) 
40.687

>  <PUBCHEM_SHAPE_FINGERPRINT>  (1) 
10906281 52 18338816524029528423
11135609 12 17823710848708050635
11524674 6 16702015357780525399
11578080 2 16987134236801660210
11963148 33 18409162221239966526
12107183 9 17619067226888281594
12166972 35 17749111118897958492
12236239 1 18201999937051748829
12403259 415 18261101955251467020
12788726 201 18262514767679661937
12838862 33 18265315262729692325
13140716 1 18338796719434186355
13533116 47 17604141515856192522
14341114 176 18410016524662099873
14787075 74 18261391186727649722
14790565 3 18411421683269078121
15196674 1 18410572915741537199
15927050 60 17621319469405819028
16087824 20 18193276300793515101
17349148 13 17894349977750334176
17492 89 18339359669610062990
1813 80 17313105237264146085
18608769 82 18410572895021022786
18681886 176 18343297081458257338
20028762 73 18343297080889214462
21236236 1 18410856590306389179
21267235 1 18410581664568846183
21279426 13 18411134748977172453
21792934 111 18338503137335649745
221357 26 18342740672650265932
22149856 69 18266474259580607251
23402539 116 18411978070264415087
23522609 53 18119559599142687652
23559900 14 18412819200796498880
239999 70 18273498966635416582
3004659 81 18333731312673508156
335352 9 18410291394448770477
34797466 226 17346322621563238620
34934 24 18411133620213007293
350125 39 18410291376873333388
3545911 37 18409449159070926069
4073 2 18187368769637561315
4214541 1 18411698751276845285
4325135 7 18334580101337814518
4340502 62 16008753481005590354
5104073 3 18411416224143820291
59755656 215 18339081488614182270
59755656 520 17095244713560621763
7495541 125 17632570587256255800
9709674 26 18339084791839963718
9981440 41 17471572608521738641

>  <PUBCHEM_SHAPE_MULTIPOLES>  (1) 
527.19
14.7
3
0.76
0.48
0.14
0.01
1.63
0.43
-1.18
-0.41
0.36
-0.01
0.21

>  <PUBCHEM_SHAPE_SELFOVERLAP>  (1) 
1163.96

>  <PUBCHEM_SHAPE_VOLUME>  (1) 
286.1

>  <PUBCHEM_COORDINATE_TYPE>  (1) 
2
5
10

$$$$
