34795
     RDKit          3D

 16 17  0  0  1  0  0  0  0  0999 V2000
    1.0157    2.9740   -0.6619 Cl  0  0  0  0  0  0  0  0  0  0  0  0
   -3.2626   -0.8050    0.7395 O   0  0  0  0  0  0  0  0  0  0  0  0
    2.4026    0.1271    0.4170 N   0  0  0  0  0  0  0  0  0  0  0  0
    1.4414   -0.0826   -0.6720 C   0  0  0  0  0  0  0  0  0  0  0  0
    1.4337   -1.5647   -1.0789 C   0  0  0  0  0  0  0  0  0  0  0  0
    0.6628   -2.4200   -0.0789 C   0  0  0  0  0  0  0  0  0  0  0  0
    0.0589    0.4113   -0.2907 C   0  0  0  0  0  0  0  0  0  0  0  0
   -0.7960   -1.9759   -0.0125 C   0  0  0  0  0  0  0  0  0  0  0  0
   -0.9744   -0.4795    0.0593 C   0  0  0  0  0  0  0  0  0  0  0  0
   -2.2317    0.0309    0.4206 C   0  0  0  0  0  0  0  0  0  0  0  0
   -0.1888    1.7947   -0.2557 C   0  0  0  0  0  0  0  0  0  0  0  0
    3.7164   -0.3611    0.0367 C   0  0  0  0  0  0  0  0  0  0  0  0
   -2.4610    1.4057    0.4518 C   0  0  0  0  0  0  0  0  0  0  0  0
   -1.4400    2.2876    0.1135 C   0  0  0  0  0  0  0  0  0  0  0  0
    4.7323   -0.1203    1.1404 C   0  0  0  0  0  0  0  0  0  0  0  0
   -4.1092   -1.2222   -0.3282 C   0  0  0  0  0  0  0  0  0  0  0  0
  1 11  1  0
  2 10  1  0
  2 16  1  0
  3  4  1  0
  3 12  1  0
  4  5  1  0
  4  7  1  0
  5  6  1  0
  6  8  1  0
  7  9  2  0
  7 11  1  0
  8  9  1  0
  9 10  1  0
 10 13  2  0
 11 14  2  0
 12 15  1  0
 13 14  1  0
M  END
>  <PUBCHEM_COMPOUND_CID>  (1) 
34795

>  <PUBCHEM_CONFORMER_RMSD>  (1) 
0.6

>  <PUBCHEM_CONFORMER_DIVERSEORDER>  (1) 
1
6
3
5
4
2

>  <PUBCHEM_MMFF94_PARTIAL_CHARGES>  (1) 
16
1 -0.18
10 0.08
11 0.18
12 0.27
13 -0.15
14 -0.15
16 0.28
2 -0.36
24 0.36
27 0.15
28 0.15
3 -0.9
4 0.41
7 -0.14
8 0.14
9 -0.14

>  <PUBCHEM_EFFECTIVE_ROTOR_COUNT>  (1) 
3.8

>  <PUBCHEM_PHARMACOPHORE_FEATURES>  (1) 
5
1 2 acceptor
1 3 cation
1 3 donor
6 4 5 6 7 8 9 rings
6 7 9 10 11 13 14 rings

>  <PUBCHEM_HEAVY_ATOM_COUNT>  (1) 
16

>  <PUBCHEM_ATOM_DEF_STEREO_COUNT>  (1) 
1

>  <PUBCHEM_ATOM_UDEF_STEREO_COUNT>  (1) 
0

>  <PUBCHEM_BOND_DEF_STEREO_COUNT>  (1) 
0

>  <PUBCHEM_BOND_UDEF_STEREO_COUNT>  (1) 
0

>  <PUBCHEM_ISOTOPIC_ATOM_COUNT>  (1) 
0

>  <PUBCHEM_COMPONENT_COUNT>  (1) 
1

>  <PUBCHEM_CACTVS_TAUTO_COUNT>  (1) 
1

>  <PUBCHEM_CONFORMER_ID>  (1) 
000087EB00000001

>  <PUBCHEM_MMFF94_ENERGY>  (1) 
43.1718

>  <PUBCHEM_FEATURE_SELFOVERLAP>  (1) 
25.392

>  <PUBCHEM_SHAPE_FINGERPRINT>  (1) 
10967382 1 18122915488385555917
11132069 177 18338520733399559400
12251169 10 18411415150781660834
12382932 28 18266463109339019536
13140716 1 18123195859677140459
13214271 11 18341607075407804412
14178342 30 18268722618766837249
14181834 199 18117002289113182893
14420673 8 17688015420183895978
14614273 12 18043247942612387629
14787075 74 17702937175017536728
15209294 21 17845949428619288137
15219456 202 18058452002370558830
15490181 7 17541947481474438221
16945 1 18338535108887136287
193761 8 17690567810881117351
20510252 161 18272088266919733560
20645477 70 18264491874786765955
20871998 184 18341047437037562180
21501502 16 18122626054644652091
22182313 1 18268158547948024159
2334 1 17763473111420475719
23388829 49 18413388761099805263
23402539 116 18341319059211856183
23419403 2 16479320435688261389
23463225 33 18335141977428040188
23557571 272 18200043845198212775
23559900 14 18124322606156712294
24859131 72 18335412414354877994
2748010 2 18123483691083902463
3009799 131 18262497274356427605
34934 24 18338514115429767757
43471831 8 18262798454416985970
5255222 1 17545054701149845644
53812654 25 18200598128118601311
58807428 26 18264210197186937794
59554788 191 18261104175638730957
81228 2 18119265973233471825
90316 7 18115017499148549864
9925002 15 17556562572177457846

>  <PUBCHEM_SHAPE_MULTIPOLES>  (1) 
320.29
6.1
2.84
0.9
2.89
1.18
-0.01
-1.6
1.96
-0.5
-0.54
0.41
-0.03
-0.11

>  <PUBCHEM_SHAPE_SELFOVERLAP>  (1) 
656.728

>  <PUBCHEM_SHAPE_VOLUME>  (1) 
186.3

>  <PUBCHEM_COORDINATE_TYPE>  (1) 
2
5
10

$$$$
