3479
     RDKit          3D

 13 13  0  0  1  0  0  0  0  0999 V2000
   -0.4952   -1.5555   -1.6123 O   0  0  0  0  0  0  0  0  0  0  0  0
    0.7160   -1.8594    1.8221 O   0  0  0  0  0  0  0  0  0  0  0  0
    2.1800   -0.5606   -1.1920 O   0  0  0  0  0  0  0  0  0  0  0  0
   -3.1704    1.1429    0.2276 O   0  0  0  0  0  0  0  0  0  0  0  0
    0.8409    3.1376    0.0308 O   0  0  0  0  0  0  0  0  0  0  0  0
   -0.4543    0.8985    0.1955 N   0  0  0  0  0  0  0  0  0  0  0  0
    1.5886    1.9961    0.0529 N   0  0  0  0  0  0  0  0  0  0  0  0
   -0.5915   -1.5677   -0.1922 C   0  0  0  0  0  0  0  0  0  0  0  0
    0.8045   -1.6925    0.4097 C   0  0  0  0  0  0  0  0  0  0  0  0
   -1.2737   -0.3053    0.3405 C   0  0  0  0  0  0  0  0  0  0  0  0
    1.6350   -0.4512    0.1194 C   0  0  0  0  0  0  0  0  0  0  0  0
    0.8356    0.8479    0.1341 C   0  0  0  0  0  0  0  0  0  0  0  0
   -2.6155   -0.0307   -0.3362 C   0  0  0  0  0  0  0  0  0  0  0  0
  1  8  1  0
  2  9  1  0
  3 11  1  0
  4 13  1  0
  5  7  1  0
  6 10  1  0
  6 12  2  0
  7 12  1  0
  8  9  1  0
  8 10  1  0
  9 11  1  0
 10 13  1  0
 11 12  1  0
M  END
>  <PUBCHEM_COMPOUND_CID>  (1) 
3479

>  <PUBCHEM_CONFORMER_RMSD>  (1) 
0.6

>  <PUBCHEM_CONFORMER_DIVERSEORDER>  (1) 
2
84
68
65
63
76
75
35
20
25
52
67
33
80
49
1
41
47
85
64
59
58
32
83
70
26
81
61
69
79
78
53
37
55
16
54
22
66
44
45
28
43
34
31
17
56
51
39
46
29
38
5
82
50
71
15
60
77
7
30
72
10
48
6
73
18
40
62
9
3
14
21
42
24
27
57
74
13
23
4
36
12
11
19
8

>  <PUBCHEM_MMFF94_PARTIAL_CHARGES>  (1) 
19
1 -0.68
10 0.25
11 0.34
12 0.44
13 0.28
2 -0.68
20 0.4
21 0.4
22 0.4
23 0.4
24 0.4
25 0.4
3 -0.68
4 -0.68
5 -0.38
6 -0.7
7 -0.47
8 0.28
9 0.28

>  <PUBCHEM_EFFECTIVE_ROTOR_COUNT>  (1) 
2.8

>  <PUBCHEM_PHARMACOPHORE_FEATURES>  (1) 
11
1 1 acceptor
1 1 donor
1 2 acceptor
1 2 donor
1 3 acceptor
1 3 donor
1 4 acceptor
1 4 donor
1 7 donor
3 6 7 12 cation
6 6 8 9 10 11 12 rings

>  <PUBCHEM_HEAVY_ATOM_COUNT>  (1) 
13

>  <PUBCHEM_ATOM_DEF_STEREO_COUNT>  (1) 
0

>  <PUBCHEM_ATOM_UDEF_STEREO_COUNT>  (1) 
4

>  <PUBCHEM_BOND_DEF_STEREO_COUNT>  (1) 
0

>  <PUBCHEM_BOND_UDEF_STEREO_COUNT>  (1) 
0

>  <PUBCHEM_ISOTOPIC_ATOM_COUNT>  (1) 
0

>  <PUBCHEM_COMPONENT_COUNT>  (1) 
1

>  <PUBCHEM_CACTVS_TAUTO_COUNT>  (1) 
3

>  <PUBCHEM_CONFORMER_ID>  (1) 
00000D9700000002

>  <PUBCHEM_MMFF94_ENERGY>  (1) 
32.3146

>  <PUBCHEM_FEATURE_SELFOVERLAP>  (1) 
55.83

>  <PUBCHEM_SHAPE_FINGERPRINT>  (1) 
12423570 1 11023832738439389363
13024252 1 16166622782097599504
13380536 305 18412832386651643293
15557651 10 18113059328530628335
16945 1 18411709797911664091
21040471 1 18193275427727236792
21524375 3 18122617524997961689
23419403 2 16467353316866981751
241688 4 17766011497031997906
2748010 2 18193563482646481949
3060560 45 18129938962863834655
4369600 1 18340211777988066118
5084963 1 17632859715796427607
528886 8 18059298634639658815
68250623 7 18126293179410978991

>  <PUBCHEM_SHAPE_MULTIPOLES>  (1) 
228.23
2.95
2.57
1.08
2.18
1.55
0.01
0.95
0.26
-1
-0.26
-0.22
-0.72
-0.25

>  <PUBCHEM_SHAPE_SELFOVERLAP>  (1) 
460.465

>  <PUBCHEM_SHAPE_VOLUME>  (1) 
131.5

>  <PUBCHEM_COORDINATE_TYPE>  (1) 
2
5
10

$$$$
