34805
     RDKit          3D

  9  8  0  0  0  0  0  0  0  0999 V2000
   -2.6525    1.3505   -0.4324 O   0  0  0  0  0  0  0  0  0  0  0  0
    1.0162   -0.9523   -0.5058 C   0  0  0  0  0  0  0  0  0  0  0  0
   -0.2617   -0.1632   -0.4907 C   0  0  0  0  0  0  0  0  0  0  0  0
    2.0981   -0.2677    0.2779 C   0  0  0  0  0  0  0  0  0  0  0  0
   -1.3945   -0.6100    0.0681 C   0  0  0  0  0  0  0  0  0  0  0  0
    3.2954    0.0571   -0.2318 C   0  0  0  0  0  0  0  0  0  0  0  0
   -2.6278    0.2238    0.0575 C   0  0  0  0  0  0  0  0  0  0  0  0
    4.3756    0.7308    0.5477 C   0  0  0  0  0  0  0  0  0  0  0  0
   -3.8489   -0.3690    0.7095 C   0  0  0  0  0  0  0  0  0  0  0  0
  1  7  2  0
  2  3  1  0
  2  4  1  0
  3  5  2  0
  4  6  2  0
  5  7  1  0
  6  8  1  0
  7  9  1  0
M  END
>  <PUBCHEM_COMPOUND_CID>  (1) 
34805

>  <PUBCHEM_CONFORMER_RMSD>  (1) 
0.6

>  <PUBCHEM_CONFORMER_DIVERSEORDER>  (1) 
2
12
6
11
4
3
9
1
5
8
10
7

>  <PUBCHEM_MMFF94_PARTIAL_CHARGES>  (1) 
13
1 -0.57
12 0.15
13 0.15
14 0.15
15 0.15
2 0.28
3 -0.29
4 -0.29
5 -0.14
6 -0.29
7 0.49
8 0.14
9 0.06

>  <PUBCHEM_EFFECTIVE_ROTOR_COUNT>  (1) 
3

>  <PUBCHEM_PHARMACOPHORE_FEATURES>  (1) 
2
1 1 acceptor
1 8 hydrophobe

>  <PUBCHEM_HEAVY_ATOM_COUNT>  (1) 
9

>  <PUBCHEM_ATOM_DEF_STEREO_COUNT>  (1) 
0

>  <PUBCHEM_ATOM_UDEF_STEREO_COUNT>  (1) 
0

>  <PUBCHEM_BOND_DEF_STEREO_COUNT>  (1) 
0

>  <PUBCHEM_BOND_UDEF_STEREO_COUNT>  (1) 
2

>  <PUBCHEM_ISOTOPIC_ATOM_COUNT>  (1) 
0

>  <PUBCHEM_COMPONENT_COUNT>  (1) 
1

>  <PUBCHEM_CACTVS_TAUTO_COUNT>  (1) 
5

>  <PUBCHEM_CONFORMER_ID>  (1) 
000087F500000002

>  <PUBCHEM_MMFF94_ENERGY>  (1) 
5.7869

>  <PUBCHEM_FEATURE_SELFOVERLAP>  (1) 
10.148

>  <PUBCHEM_SHAPE_FINGERPRINT>  (1) 
11062470 55 18410013234226605635
12932764 1 17703216352234372375
14325111 11 18410011005207345710
14390081 3 18343019960691959965
170605 34 18343303652304695286
177051 138 12973879308685925432
190213 19 17530964678820391134
20211469 26 13117994500703359566
20281407 28 11746938685286190742
20711985 327 15430040950252638982
21119208 17 12463575075281602754
21293036 1 16415477168625645114
22485316 2 10737286865872763312
23402539 116 18113893897180832679
3248919 1 16298683702028360995
449060 50 18412266155390700094
93112 12 11455884763047678907

>  <PUBCHEM_SHAPE_MULTIPOLES>  (1) 
179.35
7.97
0.99
0.78
2.66
0.11
0.03
2.04
1.76
-0.11
-0.1
-0.11
0.01
0.46

>  <PUBCHEM_SHAPE_SELFOVERLAP>  (1) 
330.299

>  <PUBCHEM_SHAPE_VOLUME>  (1) 
113.3

>  <PUBCHEM_COORDINATE_TYPE>  (1) 
2
5
10

$$$$
