34801
     RDKit          3D

 23 24  0  0  0  0  0  0  0  0999 V2000
   -4.5098    1.2965    0.2009 O   0  0  0  0  0  0  0  0  0  0  0  0
   -3.7957   -2.1721   -0.2128 O   0  0  0  0  0  0  0  0  0  0  0  0
    2.0595    2.2881   -0.6780 O   0  0  0  0  0  0  0  0  0  0  0  0
    3.4400   -2.2059    0.2352 O   0  0  0  0  0  0  0  0  0  0  0  0
    4.0803    0.4488   -0.2269 O   0  0  0  0  0  0  0  0  0  0  0  0
    3.9164    0.8678    2.0704 O   0  0  0  0  0  0  0  0  0  0  0  0
   -4.7060   -0.0995    0.1537 N   0  0  0  0  0  0  0  0  0  0  0  0
   -6.7528    0.8531    0.6997 C   0  0  0  0  0  0  0  0  0  0  0  0
   -6.1211   -0.4129    0.1958 C   0  0  0  0  0  0  0  0  0  0  0  0
   -5.8143    1.8897    0.1282 C   0  0  0  0  0  0  0  0  0  0  0  0
   -3.6709   -0.9606   -0.0398 C   0  0  0  0  0  0  0  0  0  0  0  0
   -2.3165   -0.3734   -0.0304 C   0  0  0  0  0  0  0  0  0  0  0  0
    0.1276   -0.7622   -0.2114 C   0  0  0  0  0  0  0  0  0  0  0  0
   -1.2814   -1.1940   -0.2058 C   0  0  0  0  0  0  0  0  0  0  0  0
    1.1243   -1.6972    0.0165 C   0  0  0  0  0  0  0  0  0  0  0  0
    0.4279    0.5699   -0.4443 C   0  0  0  0  0  0  0  0  0  0  0  0
    1.7615    0.9785   -0.4494 C   0  0  0  0  0  0  0  0  0  0  0  0
    2.4580   -1.2885    0.0115 C   0  0  0  0  0  0  0  0  0  0  0  0
    2.7766    0.0493   -0.2215 C   0  0  0  0  0  0  0  0  0  0  0  0
    2.2679    2.6781   -2.0340 C   0  0  0  0  0  0  0  0  0  0  0  0
    3.9734   -2.8754   -0.9055 C   0  0  0  0  0  0  0  0  0  0  0  0
    4.5596    0.8516    1.0294 C   0  0  0  0  0  0  0  0  0  0  0  0
    5.9957    1.2703    0.9186 C   0  0  0  0  0  0  0  0  0  0  0  0
  1  7  1  0
  1 10  1  0
  2 11  2  0
  3 17  1  0
  3 20  1  0
  4 18  1  0
  4 21  1  0
  5 19  1  0
  5 22  1  0
  6 22  2  0
  7  9  1  0
  7 11  1  0
  8  9  1  0
  8 10  1  0
 11 12  1  0
 12 14  2  0
 13 14  1  0
 13 15  2  0
 13 16  1  0
 15 18  1  0
 16 17  2  0
 17 19  1  0
 18 19  2  0
 22 23  1  0
M  END
>  <PUBCHEM_COMPOUND_CID>  (1) 
34801

>  <PUBCHEM_CONFORMER_RMSD>  (1) 
0.8

>  <PUBCHEM_CONFORMER_DIVERSEORDER>  (1) 
2
16
45
65
50
10
33
54
46
63
21
61
36
18
51
34
53
43
25
31
55
40
47
58
56
12
37
32
11
57
28
68
60
3
62
6
49
9
48
24
17
35
39
22
29
19
64
66
41
67
8
44
5
42
30
13
20
14
7
15
52
26
38
59
23
27
1
4

>  <PUBCHEM_MMFF94_PARTIAL_CHARGES>  (1) 
26
1 -0.32
10 0.28
11 0.62
12 -0.14
13 0.03
14 -0.18
15 -0.15
16 -0.15
17 0.08
18 0.08
19 0.08
2 -0.57
20 0.28
21 0.28
22 0.66
23 0.06
3 -0.36
30 0.15
31 0.15
32 0.15
33 0.15
4 -0.36
5 -0.23
6 -0.57
7 -0.32
9 0.3

>  <PUBCHEM_EFFECTIVE_ROTOR_COUNT>  (1) 
8

>  <PUBCHEM_PHARMACOPHORE_FEATURES>  (1) 
6
1 2 acceptor
1 3 acceptor
1 4 acceptor
1 6 acceptor
5 1 7 8 9 10 rings
6 13 15 16 17 18 19 rings

>  <PUBCHEM_HEAVY_ATOM_COUNT>  (1) 
23

>  <PUBCHEM_ATOM_DEF_STEREO_COUNT>  (1) 
0

>  <PUBCHEM_ATOM_UDEF_STEREO_COUNT>  (1) 
0

>  <PUBCHEM_BOND_DEF_STEREO_COUNT>  (1) 
0

>  <PUBCHEM_BOND_UDEF_STEREO_COUNT>  (1) 
1

>  <PUBCHEM_ISOTOPIC_ATOM_COUNT>  (1) 
0

>  <PUBCHEM_COMPONENT_COUNT>  (1) 
1

>  <PUBCHEM_CACTVS_TAUTO_COUNT>  (1) 
1

>  <PUBCHEM_CONFORMER_ID>  (1) 
000087F100000002

>  <PUBCHEM_MMFF94_ENERGY>  (1) 
85.6894

>  <PUBCHEM_FEATURE_SELFOVERLAP>  (1) 
30.449

>  <PUBCHEM_SHAPE_FINGERPRINT>  (1) 
10 15 18260548944047229209
10906281 52 18041288772206322636
11089746 13 17489580190785401736
11405975 8 17749675202817541731
11724838 91 18411416254746758199
11961588 58 13398335941683120426
12236239 1 18131913750261857231
12403259 118 18337109093998512087
12633257 1 17676763270679924963
13073987 5 18413390926132938443
13140716 1 17973720574259594568
13533116 47 18059857212184685843
13583140 156 17774437316982390083
14170010 4 18408045104170647469
14251764 18 17968095373523648501
14341114 176 18410580548399556127
15081414 286 18408882915146945780
15142383 8 17023171700505483965
15188451 53 16443919392155034659
15196674 1 18411983529663505863
15238133 3 18334580182779039436
15475509 8 18335433365738169772
15475509 84 17914892041965550552
1601671 61 18334856138991579308
17844677 252 18337685131076116859
17980427 26 17057773435280832600
1813 80 16877947118092322565
20281389 69 18340770347939911577
20739085 24 18335985272929830374
21033648 29 17987784341490963912
21065198 57 18334021601176779067
21304253 335 18413389847510506812
21421861 104 17895743011954702482
21452121 103 18342171159659976706
21475661 188 17058347405782830016
21503847 285 18113907048069687797
21859007 373 17678443183457486957
22182313 1 18189600671463499534
23503953 91 18334011726798474007
23559900 14 18412548690876718903
2748010 2 18191290612446039950
300161 21 18272929427811987095
33382 64 14346059898765838368
3421961 26 18339079268580807238
34797466 226 16200155430508920289
3545911 37 18342178868951926723
4073 2 18334017228246197755
474 4 18187650236430226507
5104073 3 18410859841633614699
513532 50 17917441916830620476
59755656 215 18342462525977641804
633830 44 18040437724210111075
653340 110 18194962942254546777
7495541 125 14056726759352995055
8272917 22 18408891736835691838
9841814 1 17675920997924073144
9971528 1 18408887308755759238

>  <PUBCHEM_SHAPE_MULTIPOLES>  (1) 
433.13
15.28
2.66
1.13
19.73
0.3
0
-4.39
4.57
-2.14
-0.95
-1.57
-0.7
0.13

>  <PUBCHEM_SHAPE_SELFOVERLAP>  (1) 
905.963

>  <PUBCHEM_SHAPE_VOLUME>  (1) 
246.2

>  <PUBCHEM_COORDINATE_TYPE>  (1) 
2
5
10

$$$$
