34829
     RDKit          3D

 14 15  0  0  0  0  0  0  0  0999 V2000
   -0.7771   -2.8501   -0.1678 S   0  0  0  0  0  0  0  0  0  0  0  0
    2.7778    1.7982    0.1467 O   0  0  0  0  0  0  0  0  0  0  0  0
   -3.9701    2.4376   -0.3020 N   0  0  0  0  0  0  0  0  0  0  0  0
   -1.6325   -0.4900    0.3332 C   0  0  0  0  0  0  0  0  0  0  0  0
   -0.2129   -0.3502    0.1742 C   0  0  0  0  0  0  0  0  0  0  0  0
   -2.5493    0.6372    0.6380 C   0  0  0  0  0  0  0  0  0  0  0  0
    0.3884   -1.5808   -0.1072 C   0  0  0  0  0  0  0  0  0  0  0  0
   -3.0940    1.3173   -0.6278 C   0  0  0  0  0  0  0  0  0  0  0  0
   -2.0637   -1.7855    0.1738 C   0  0  0  0  0  0  0  0  0  0  0  0
    0.6148    0.7956    0.2582 C   0  0  0  0  0  0  0  0  0  0  0  0
    1.7788   -1.6933   -0.3044 C   0  0  0  0  0  0  0  0  0  0  0  0
    1.9942    0.6874    0.0631 C   0  0  0  0  0  0  0  0  0  0  0  0
    2.5679   -0.5450   -0.2152 C   0  0  0  0  0  0  0  0  0  0  0  0
    4.1777    1.6215   -0.0627 C   0  0  0  0  0  0  0  0  0  0  0  0
  1  7  1  0
  1  9  1  0
  2 12  1  0
  2 14  1  0
  3  8  1  0
  4  5  1  0
  4  6  1  0
  4  9  2  0
  5  7  2  0
  5 10  1  0
  6  8  1  0
  7 11  1  0
 10 12  2  0
 11 13  2  0
 12 13  1  0
M  END
>  <PUBCHEM_COMPOUND_CID>  (1) 
34829

>  <PUBCHEM_CONFORMER_RMSD>  (1) 
0.6

>  <PUBCHEM_CONFORMER_DIVERSEORDER>  (1) 
1
6
7
5
4
3
2

>  <PUBCHEM_MMFF94_PARTIAL_CHARGES>  (1) 
19
1 -0.08
10 -0.15
11 -0.15
12 0.08
13 -0.15
14 0.28
19 0.15
2 -0.36
20 0.15
21 0.15
22 0.15
23 0.36
24 0.36
3 -0.99
4 -0.18
6 0.18
7 0.04
8 0.27
9 -0.11

>  <PUBCHEM_EFFECTIVE_ROTOR_COUNT>  (1) 
3

>  <PUBCHEM_PHARMACOPHORE_FEATURES>  (1) 
5
1 2 acceptor
1 3 cation
1 3 donor
5 1 4 5 7 9 rings
6 5 7 10 11 12 13 rings

>  <PUBCHEM_HEAVY_ATOM_COUNT>  (1) 
14

>  <PUBCHEM_ATOM_DEF_STEREO_COUNT>  (1) 
0

>  <PUBCHEM_ATOM_UDEF_STEREO_COUNT>  (1) 
0

>  <PUBCHEM_BOND_DEF_STEREO_COUNT>  (1) 
0

>  <PUBCHEM_BOND_UDEF_STEREO_COUNT>  (1) 
0

>  <PUBCHEM_ISOTOPIC_ATOM_COUNT>  (1) 
0

>  <PUBCHEM_COMPONENT_COUNT>  (1) 
1

>  <PUBCHEM_CACTVS_TAUTO_COUNT>  (1) 
1

>  <PUBCHEM_CONFORMER_ID>  (1) 
0000880D00000001

>  <PUBCHEM_MMFF94_ENERGY>  (1) 
31.4654

>  <PUBCHEM_FEATURE_SELFOVERLAP>  (1) 
25.431

>  <PUBCHEM_SHAPE_FINGERPRINT>  (1) 
1 1 18193275196136749463
10411042 1 16969705487021670731
10608611 8 18410857680642208049
10967382 1 18267305322302757298
11206711 2 18055353797219524382
11471102 20 18122623843152985741
12500047 106 18412259571158648376
12730499 353 18191594047722624305
13140716 1 18337959986811931547
13380535 21 18340782519144050642
13380535 76 18413385453732608470
13380536 305 18194965141018423439
14614273 12 18198069268470494787
14897335 6 18411978070100605202
14911166 2 18196944262032979022
15219456 202 18409453574212819336
15279308 100 18410019801374091222
16945 1 18125451816739625610
17134986 127 18337950065627056799
1741750 31 18412826897372475649
17834072 32 18336267937248991780
18186145 218 18200887183512187585
20510252 161 18270406125634894643
20645477 56 18269563891069589592
21501502 16 18410003355891826886
21524375 3 18334850593972379187
21639500 275 18049148987359142653
2334 1 18412548746700490923
23402539 116 18054223512594684423
23402655 69 18200587008865380157
23419403 2 17047910531899891306
23559900 14 18130799984202063412
238 59 17395537664450922117
25 1 18193276282826512479
2748010 2 18340219534651698799
305870 269 18333446551946816866
3060560 45 18053658075765177423
3071541 12 18124036723963222203
81228 2 18050569839755573571
84936 182 18057595474027824145

>  <PUBCHEM_SHAPE_MULTIPOLES>  (1) 
281.11
5.95
2.9
0.71
1.36
0.64
0
-5.38
0.46
-1.31
0.32
-0.19
-0.03
0.46

>  <PUBCHEM_SHAPE_SELFOVERLAP>  (1) 
584.296

>  <PUBCHEM_SHAPE_VOLUME>  (1) 
162.9

>  <PUBCHEM_COORDINATE_TYPE>  (1) 
2
5
10

$$$$
