34824
     RDKit          3D

 24 26  0  0  0  0  0  0  0  0999 V2000
    0.1374   -0.8975    0.0828 N   0  0  0  0  0  0  0  0  0  0  0  0
    3.8464   -1.2829    0.2092 N   0  0  0  0  0  0  0  0  0  0  0  0
    1.4722   -0.9137    0.6754 C   0  0  0  0  0  0  0  0  0  0  0  0
   -0.0104    0.0884   -1.0039 C   0  0  0  0  0  0  0  0  0  0  0  0
   -0.9007   -0.8414    1.1202 C   0  0  0  0  0  0  0  0  0  0  0  0
    2.5113   -1.2840   -0.3787 C   0  0  0  0  0  0  0  0  0  0  0  0
    0.0036    1.5564   -0.6180 C   0  0  0  0  0  0  0  0  0  0  0  0
   -2.2621   -1.2805    0.6239 C   0  0  0  0  0  0  0  0  0  0  0  0
   -2.5647    1.7999   -0.6960 C   0  0  0  0  0  0  0  0  0  0  0  0
   -3.1883    1.1153    0.5248 C   0  0  0  0  0  0  0  0  0  0  0  0
   -1.1671    2.3269   -0.4496 C   0  0  0  0  0  0  0  0  0  0  0  0
   -3.3121   -0.3820    0.3511 C   0  0  0  0  0  0  0  0  0  0  0  0
    4.1737    0.0410    0.7409 C   0  0  0  0  0  0  0  0  0  0  0  0
    4.8446   -1.6945   -0.7791 C   0  0  0  0  0  0  0  0  0  0  0  0
    1.2540    2.1778   -0.4230 C   0  0  0  0  0  0  0  0  0  0  0  0
   -2.4671   -2.6578    0.4060 C   0  0  0  0  0  0  0  0  0  0  0  0
   -1.0473    3.6709   -0.0407 C   0  0  0  0  0  0  0  0  0  0  0  0
   -4.5321   -0.8889   -0.1379 C   0  0  0  0  0  0  0  0  0  0  0  0
    1.3520    3.5120   -0.0312 C   0  0  0  0  0  0  0  0  0  0  0  0
   -3.6840   -3.1410   -0.0710 C   0  0  0  0  0  0  0  0  0  0  0  0
    0.1992    4.2574    0.1687 C   0  0  0  0  0  0  0  0  0  0  0  0
   -4.7176   -2.2551   -0.3442 C   0  0  0  0  0  0  0  0  0  0  0  0
    5.5354    0.0410    1.4146 C   0  0  0  0  0  0  0  0  0  0  0  0
    4.5237   -3.0676   -1.3443 C   0  0  0  0  0  0  0  0  0  0  0  0
  1  3  1  0
  1  4  1  0
  1  5  1  0
  2  6  1  0
  2 13  1  0
  2 14  1  0
  3  6  1  0
  4  7  1  0
  5  8  1  0
  7 11  2  0
  7 15  1  0
  8 12  2  0
  8 16  1  0
  9 10  1  0
  9 11  1  0
 10 12  1  0
 11 17  1  0
 12 18  1  0
 13 23  1  0
 14 24  1  0
 15 19  2  0
 16 20  2  0
 17 21  2  0
 18 22  2  0
 19 21  1  0
 20 22  1  0
M  END
>  <PUBCHEM_COMPOUND_CID>  (1) 
34824

>  <PUBCHEM_CONFORMER_RMSD>  (1) 
0.8

>  <PUBCHEM_CONFORMER_DIVERSEORDER>  (1) 
4
45
24
27
48
14
32
25
36
35
19
46
8
38
28
42
23
47
13
21
41
17
34
6
33
22
29
26
3
30
12
44
18
20
15
11
5
40
37
16
2
1
31
9
39
7
10
43

>  <PUBCHEM_MMFF94_PARTIAL_CHARGES>  (1) 
30
1 -0.81
10 0.14
11 -0.14
12 -0.14
13 0.27
14 0.27
15 -0.15
16 -0.15
17 -0.15
18 -0.15
19 -0.15
2 -0.81
20 -0.15
21 -0.15
22 -0.15
3 0.27
4 0.41
41 0.15
42 0.15
43 0.15
44 0.15
45 0.15
46 0.15
47 0.15
48 0.15
5 0.41
6 0.27
7 -0.14
8 -0.14
9 0.14

>  <PUBCHEM_EFFECTIVE_ROTOR_COUNT>  (1) 
6

>  <PUBCHEM_PHARMACOPHORE_FEATURES>  (1) 
4
1 1 cation
1 2 cation
6 7 11 15 17 19 21 rings
6 8 12 16 18 20 22 rings

>  <PUBCHEM_HEAVY_ATOM_COUNT>  (1) 
24

>  <PUBCHEM_ATOM_DEF_STEREO_COUNT>  (1) 
0

>  <PUBCHEM_ATOM_UDEF_STEREO_COUNT>  (1) 
0

>  <PUBCHEM_BOND_DEF_STEREO_COUNT>  (1) 
0

>  <PUBCHEM_BOND_UDEF_STEREO_COUNT>  (1) 
0

>  <PUBCHEM_ISOTOPIC_ATOM_COUNT>  (1) 
0

>  <PUBCHEM_COMPONENT_COUNT>  (1) 
1

>  <PUBCHEM_CACTVS_TAUTO_COUNT>  (1) 
1

>  <PUBCHEM_CONFORMER_ID>  (1) 
0000880800000004

>  <PUBCHEM_MMFF94_ENERGY>  (1) 
72.3347

>  <PUBCHEM_FEATURE_SELFOVERLAP>  (1) 
20.297

>  <PUBCHEM_SHAPE_FINGERPRINT>  (1) 
10319926 262 18122603000362936594
10369192 42 17414971812161481240
10411042 1 18410014359677322983
1100329 8 18337394846947681681
11963148 33 16966882528944873267
12553582 1 18336847345564096263
12788726 201 18188776020188784434
13140716 1 18263092166192879283
138480 1 15095359093982318001
14081887 123 18265042553448611960
14787075 74 18187085096191346104
14790565 3 17834115238920664553
14910302 57 18270398261893101818
15420108 30 17405695361069492360
15927050 60 17187004736136041196
15961568 22 18336547218235587108
16728300 4 16746740475583672712
17492 89 18122628524773690819
17818456 19 17684915917799282938
17980427 23 17775012306029458849
20028762 73 16757201276423721007
20905425 154 18266185117960776133
21033648 29 17631718439537615291
23419403 2 17988059189053945073
23557571 272 18409727336156461626
23559900 14 18339916142926264875
335352 9 18408318900584648637
392239 28 18335134268236466904
4280585 95 18263628692916729691
621550 34 18201429308066249450
6443956 14 18263361558909621180
7364860 26 18121782991588073793
7399639 24 18200864133351508090
81228 2 18043545923090238394
9709674 26 17973723872731700819

>  <PUBCHEM_SHAPE_MULTIPOLES>  (1) 
483.95
9.7
4.99
1.05
7.19
4.02
0.03
-9.79
0.5
-0.67
-0.78
0.85
-0.29
1.14

>  <PUBCHEM_SHAPE_SELFOVERLAP>  (1) 
1009.804

>  <PUBCHEM_SHAPE_VOLUME>  (1) 
273.5

>  <PUBCHEM_COORDINATE_TYPE>  (1) 
2
5
10

$$$$
