34835
     RDKit          3D

 24 27  0  0  1  0  0  0  0  0999 V2000
   -2.9234   -0.8356    0.1369 N   0  0  0  0  0  0  0  0  0  0  0  0
    1.5566    1.1034    1.0780 N   0  0  0  0  0  0  0  0  0  0  0  0
   -1.1939    0.6363    0.6798 N   0  0  0  0  0  0  0  0  0  0  0  0
   -2.9934    1.3232   -0.7511 N   0  0  0  0  0  0  0  0  0  0  0  0
   -1.2338    2.8632   -0.2131 N   0  0  0  0  0  0  0  0  0  0  0  0
   -3.0062    3.5063   -1.6072 N   0  0  0  0  0  0  0  0  0  0  0  0
   -4.0278   -3.4983    0.2801 C   0  0  0  0  0  0  0  0  0  0  0  0
   -4.9216   -2.2756    0.1137 C   0  0  0  0  0  0  0  0  0  0  0  0
   -2.7598   -3.1231    1.0374 C   0  0  0  0  0  0  0  0  0  0  0  0
   -4.1803   -1.1239   -0.5636 C   0  0  0  0  0  0  0  0  0  0  0  0
   -2.0206   -1.9751    0.3533 C   0  0  0  0  0  0  0  0  0  0  0  0
    2.7813    1.4043    1.8293 C   0  0  0  0  0  0  0  0  0  0  0  0
    1.8721    0.8899   -0.3456 C   0  0  0  0  0  0  0  0  0  0  0  0
    3.7037    0.1809    1.8328 C   0  0  0  0  0  0  0  0  0  0  0  0
    2.9804   -0.1136   -0.5688 C   0  0  0  0  0  0  0  0  0  0  0  0
    3.8848   -0.4190    0.4628 C   0  0  0  0  0  0  0  0  0  0  0  0
    0.5784    2.1802    1.2268 C   0  0  0  0  0  0  0  0  0  0  0  0
   -2.3431    0.4331    0.0157 C   0  0  0  0  0  0  0  0  0  0  0  0
   -0.7100    1.8705    0.5120 C   0  0  0  0  0  0  0  0  0  0  0  0
    3.1500   -0.6979   -1.8312 C   0  0  0  0  0  0  0  0  0  0  0  0
    4.9216   -1.3314    0.2281 C   0  0  0  0  0  0  0  0  0  0  0  0
    4.1912   -1.5977   -2.0579 C   0  0  0  0  0  0  0  0  0  0  0  0
    5.0745   -1.9160   -1.0288 C   0  0  0  0  0  0  0  0  0  0  0  0
   -2.3804    2.5159   -0.8194 C   0  0  0  0  0  0  0  0  0  0  0  0
  1 10  1  0
  1 11  1  0
  1 18  1  0
  2 12  1  0
  2 13  1  0
  2 17  1  0
  3 18  2  0
  3 19  1  0
  4 18  1  0
  4 24  2  0
  5 19  2  0
  5 24  1  0
  6 24  1  0
  7  8  1  0
  7  9  1  0
  8 10  1  0
  9 11  1  0
 12 14  1  0
 13 15  1  0
 14 16  1  0
 15 16  2  0
 15 20  1  0
 16 21  1  0
 17 19  1  0
 20 22  2  0
 21 23  2  0
 22 23  1  0
M  END
>  <PUBCHEM_COMPOUND_CID>  (1) 
34835

>  <PUBCHEM_CONFORMER_RMSD>  (1) 
0.8

>  <PUBCHEM_CONFORMER_DIVERSEORDER>  (1) 
2
83
63
35
71
90
19
30
65
27
91
25
85
60
38
89
32
36
87
33
62
69
55
29
48
78
49
37
54
88
79
70
80
44
72
75
13
68
24
67
10
5
93
77
52
6
76
42
39
56
59
66
86
46
74
17
58
57
18
11
23
47
34
61
82
12
73
53
50
84
14
21
43
81
9
3
92
64
40
4
7
45
8
16
20
28
1
31
41
26
15
51
22

>  <PUBCHEM_MMFF94_PARTIAL_CHARGES>  (1) 
27
1 -0.84
10 0.37
11 0.37
12 0.27
13 0.41
14 0.14
15 -0.14
16 -0.14
17 0.41
18 0.72
19 0.48
2 -0.81
20 -0.15
21 -0.15
22 -0.15
23 -0.15
24 0.72
3 -0.62
4 -0.62
43 0.15
44 0.15
45 0.15
46 0.15
47 0.4
48 0.4
5 -0.62
6 -0.9

>  <PUBCHEM_EFFECTIVE_ROTOR_COUNT>  (1) 
5

>  <PUBCHEM_PHARMACOPHORE_FEATURES>  (1) 
8
1 2 cation
1 6 donor
4 1 3 4 18 cation
4 4 5 6 24 cation
6 1 7 8 9 10 11 rings
6 15 16 20 21 22 23 rings
6 2 12 13 14 15 16 rings
6 3 4 5 18 19 24 rings

>  <PUBCHEM_HEAVY_ATOM_COUNT>  (1) 
24

>  <PUBCHEM_ATOM_DEF_STEREO_COUNT>  (1) 
0

>  <PUBCHEM_ATOM_UDEF_STEREO_COUNT>  (1) 
0

>  <PUBCHEM_BOND_DEF_STEREO_COUNT>  (1) 
0

>  <PUBCHEM_BOND_UDEF_STEREO_COUNT>  (1) 
0

>  <PUBCHEM_ISOTOPIC_ATOM_COUNT>  (1) 
0

>  <PUBCHEM_COMPONENT_COUNT>  (1) 
1

>  <PUBCHEM_CACTVS_TAUTO_COUNT>  (1) 
4

>  <PUBCHEM_CONFORMER_ID>  (1) 
0000881300000002

>  <PUBCHEM_MMFF94_ENERGY>  (1) 
67.0446

>  <PUBCHEM_FEATURE_SELFOVERLAP>  (1) 
40.664

>  <PUBCHEM_SHAPE_FINGERPRINT>  (1) 
107951 10 18051409574697450173
10928967 22 18335147530489426291
11582403 64 16255516836836275352
11796584 16 18121216481624293858
12363563 72 18340778138114034418
12549972 3 17560224834872020345
13402501 40 18272937111012906582
13911882 115 18201719613268555706
14251764 30 17897183501083892643
14866123 147 18341058411317352755
15352361 1 18341335581945911818
15361156 5 18201715158934477765
15475509 8 18409729587125558511
15664445 248 17756718794258990109
16752209 62 18186799153884074106
17913733 40 17058910347388721368
1813 80 18189902109532564961
20403669 9 18342741840090560327
20693207 138 18343304760269075148
21781051 124 17968948483611149137
221490 88 18273213093448813744
2260408 40 17836110109753199435
22849339 104 18264776471497481783
22907989 373 17168728416812618523
23557571 272 18411690006839748416
23559900 14 18411415111863665764
314173 41 17972879443363865011
3380486 145 17559653196220837668
44062 13 18337111159450481247
484985 159 17914071814380159787
4921388 177 18339084765732400516
508706 21 18410853222730198127
574716 61 16877954853370789326
59755656 520 18055354626803028889
633830 44 15865221000207243300
7399639 24 17982717873198916384
7918774 8 17970362609909186979
7987 15 17988374714615501094
9709674 26 18343010103884752288
9862886 166 18411702050460614214

>  <PUBCHEM_SHAPE_MULTIPOLES>  (1) 
464.02
10.89
4.01
1.65
2.72
0.39
-0.15
-9.27
-1.67
-5.13
-0.42
1.75
0.27
3.2

>  <PUBCHEM_SHAPE_SELFOVERLAP>  (1) 
994.741

>  <PUBCHEM_SHAPE_VOLUME>  (1) 
246.1

>  <PUBCHEM_COORDINATE_TYPE>  (1) 
2
5
10

$$$$
