34830
     RDKit          3D

 15 16  0  0  0  0  0  0  0  0999 V2000
   -0.4601   -2.9307   -0.1720 S   0  0  0  0  0  0  0  0  0  0  0  0
    2.8950    1.8602    0.1933 O   0  0  0  0  0  0  0  0  0  0  0  0
   -3.8929    2.0758    0.1438 O   0  0  0  0  0  0  0  0  0  0  0  0
   -2.7421    0.9346   -1.4459 O   0  0  0  0  0  0  0  0  0  0  0  0
    0.0094   -0.4263    0.2670 C   0  0  0  0  0  0  0  0  0  0  0  0
   -1.3919   -0.6408    0.4922 C   0  0  0  0  0  0  0  0  0  0  0  0
    0.6490   -1.6120   -0.1075 C   0  0  0  0  0  0  0  0  0  0  0  0
   -2.3403    0.4255    0.9013 C   0  0  0  0  0  0  0  0  0  0  0  0
    0.7882    0.7520    0.3660 C   0  0  0  0  0  0  0  0  0  0  0  0
   -1.7726   -1.9461    0.2898 C   0  0  0  0  0  0  0  0  0  0  0  0
    2.0302   -1.6487   -0.3823 C   0  0  0  0  0  0  0  0  0  0  0  0
    2.1585    0.7189    0.0942 C   0  0  0  0  0  0  0  0  0  0  0  0
    2.7709   -0.4701   -0.2759 C   0  0  0  0  0  0  0  0  0  0  0  0
   -2.9893    1.1472   -0.2668 C   0  0  0  0  0  0  0  0  0  0  0  0
    4.2880    1.7605   -0.0973 C   0  0  0  0  0  0  0  0  0  0  0  0
  1  7  1  0
  1 10  1  0
  2 12  1  0
  2 15  1  0
  3 14  1  0
  4 14  2  0
  5  6  1  0
  5  7  2  0
  5  9  1  0
  6  8  1  0
  6 10  2  0
  7 11  1  0
  8 14  1  0
  9 12  2  0
 11 13  2  0
 12 13  1  0
M  END
>  <PUBCHEM_COMPOUND_CID>  (1) 
34830

>  <PUBCHEM_CONFORMER_RMSD>  (1) 
0.6

>  <PUBCHEM_CONFORMER_DIVERSEORDER>  (1) 
1
9
6
12
7
11
8
4
3
10
5
2

>  <PUBCHEM_MMFF94_PARTIAL_CHARGES>  (1) 
19
1 -0.08
10 -0.11
11 -0.15
12 0.08
13 -0.15
14 0.66
15 0.28
18 0.15
19 0.15
2 -0.36
20 0.15
21 0.15
25 0.5
3 -0.65
4 -0.57
6 -0.18
7 0.04
8 0.24
9 -0.15

>  <PUBCHEM_EFFECTIVE_ROTOR_COUNT>  (1) 
3

>  <PUBCHEM_PHARMACOPHORE_FEATURES>  (1) 
6
1 2 acceptor
1 3 acceptor
1 4 acceptor
3 3 4 14 anion
5 1 5 6 7 10 rings
6 5 7 9 11 12 13 rings

>  <PUBCHEM_HEAVY_ATOM_COUNT>  (1) 
15

>  <PUBCHEM_ATOM_DEF_STEREO_COUNT>  (1) 
0

>  <PUBCHEM_ATOM_UDEF_STEREO_COUNT>  (1) 
0

>  <PUBCHEM_BOND_DEF_STEREO_COUNT>  (1) 
0

>  <PUBCHEM_BOND_UDEF_STEREO_COUNT>  (1) 
0

>  <PUBCHEM_ISOTOPIC_ATOM_COUNT>  (1) 
0

>  <PUBCHEM_COMPONENT_COUNT>  (1) 
1

>  <PUBCHEM_CACTVS_TAUTO_COUNT>  (1) 
1

>  <PUBCHEM_CONFORMER_ID>  (1) 
0000880E00000001

>  <PUBCHEM_MMFF94_ENERGY>  (1) 
37.3861

>  <PUBCHEM_FEATURE_SELFOVERLAP>  (1) 
30.565

>  <PUBCHEM_SHAPE_FINGERPRINT>  (1) 
1 1 18265052431768241767
10608611 8 18410578400398982528
11206711 2 18055071231474140294
11471102 20 18122626055018867125
11543360 7 14764349383700690936
12138202 97 18339073895133023670
12500047 106 18340484564615254120
12730499 353 18263651654582001273
13140716 1 18336549326215138762
13380535 76 18413385449601106538
13380536 305 18267306421761949323
13583140 156 17240473736668786705
13897977 150 18410857629086652777
14614273 12 18195814182890822491
14897335 6 18412260653400463354
14911166 2 18197227953360533414
15219456 202 18408891728118760194
15279308 100 18410020913913078102
16945 1 18196662795498522666
17134986 127 18337952281698416591
1741750 31 18412263960441021832
17834072 32 18335987579095614404
18186145 218 18200323125436052929
18219364 16 18338252469916084675
20510252 161 18198349639571974035
20645477 56 18338804527732508528
21499 59 18411978036068024973
21501502 16 18410004464056712274
21524375 3 18334569148865345323
21639500 275 18193547870741151959
21947302 44 18340765936106444251
2334 1 18340491165695203450
23402539 116 17981040031387207039
23402655 69 18200869583258727485
23559900 14 18201168698341148374
238 59 17612274517441099557
25 1 18265617567886150095
27216 239 18188495807837331233
2748010 2 18340220651480404250
305870 269 18260261971486122754
3060560 45 18125717885879681455
3071541 12 18124320410679369755
474 4 18268993090174492057
6333449 129 18338233881060302188
81228 2 18046346602650322763
84936 182 18058442114992217401

>  <PUBCHEM_SHAPE_MULTIPOLES>  (1) 
294.93
6.04
2.81
0.83
1.85
1.09
0.11
-5.32
0.48
-0.58
0.19
-0.43
-0.1
0.43

>  <PUBCHEM_SHAPE_SELFOVERLAP>  (1) 
621.39

>  <PUBCHEM_SHAPE_VOLUME>  (1) 
167.9

>  <PUBCHEM_COORDINATE_TYPE>  (1) 
2
5
10

$$$$
