34833
     RDKit          3D

 13 13  0  0  0  0  0  0  0  0999 V2000
    0.0138   -0.9702   -0.0004 S   0  0  0  0  0  0  0  0  0  0  0  0
    2.6654   -0.2048   -0.0012 C   0  0  0  0  0  0  0  0  0  0  0  0
   -2.6320   -0.1872    0.0012 C   0  0  0  0  0  0  0  0  0  0  0  0
    1.1916    0.2338   -0.0016 C   0  0  0  0  0  0  0  0  0  0  0  0
   -1.2118    0.2257    0.0011 C   0  0  0  0  0  0  0  0  0  0  0  0
    3.5220    0.8533    0.7271 C   0  0  0  0  0  0  0  0  0  0  0  0
    3.1648   -0.3494   -1.4550 C   0  0  0  0  0  0  0  0  0  0  0  0
    2.9148   -1.5576    0.7034 C   0  0  0  0  0  0  0  0  0  0  0  0
   -3.5387    0.8605   -0.7258 C   0  0  0  0  0  0  0  0  0  0  0  0
   -3.1879   -0.3461    1.4553 C   0  0  0  0  0  0  0  0  0  0  0  0
   -2.9468   -1.5543   -0.7042 C   0  0  0  0  0  0  0  0  0  0  0  0
    0.7348    1.4955   -0.0007 C   0  0  0  0  0  0  0  0  0  0  0  0
   -0.6900    1.5006    0.0009 C   0  0  0  0  0  0  0  0  0  0  0  0
  1  4  1  0
  1  5  1  0
  2  4  1  0
  2  6  1  0
  2  7  1  0
  2  8  1  0
  3  5  1  0
  3  9  1  0
  3 10  1  0
  3 11  1  0
  4 12  2  0
  5 13  2  0
 12 13  1  0
M  END
>  <PUBCHEM_COMPOUND_CID>  (1) 
34833

>  <PUBCHEM_CONFORMER_RMSD>  (1) 
0.6

>  <PUBCHEM_CONFORMER_DIVERSEORDER>  (1) 
1

>  <PUBCHEM_MMFF94_PARTIAL_CHARGES>  (1) 
9
1 -0.08
12 -0.15
13 -0.15
2 0.18
3 0.18
32 0.15
33 0.15
4 -0.14
5 -0.14

>  <PUBCHEM_EFFECTIVE_ROTOR_COUNT>  (1) 
2

>  <PUBCHEM_PHARMACOPHORE_FEATURES>  (1) 
3
4 2 6 7 8 hydrophobe
4 3 9 10 11 hydrophobe
5 1 4 5 12 13 rings

>  <PUBCHEM_HEAVY_ATOM_COUNT>  (1) 
13

>  <PUBCHEM_ATOM_DEF_STEREO_COUNT>  (1) 
0

>  <PUBCHEM_ATOM_UDEF_STEREO_COUNT>  (1) 
0

>  <PUBCHEM_BOND_DEF_STEREO_COUNT>  (1) 
0

>  <PUBCHEM_BOND_UDEF_STEREO_COUNT>  (1) 
0

>  <PUBCHEM_ISOTOPIC_ATOM_COUNT>  (1) 
0

>  <PUBCHEM_COMPONENT_COUNT>  (1) 
1

>  <PUBCHEM_CACTVS_TAUTO_COUNT>  (1) 
1

>  <PUBCHEM_CONFORMER_ID>  (1) 
0000881100000001

>  <PUBCHEM_MMFF94_ENERGY>  (1) 
36.9767

>  <PUBCHEM_FEATURE_SELFOVERLAP>  (1) 
15.223

>  <PUBCHEM_SHAPE_FINGERPRINT>  (1) 
10219947 1 18202565076937272708
10922523 26 18041274361931499407
11132069 177 18343295976928787162
11543360 7 15719402770902877966
11769659 78 18410846664035327970
12032990 46 18410581686027936291
124424 183 18187639172573295013
12932764 1 18410577287986615495
13296908 3 18410855460128168300
13571099 22 18335977584410570423
13705890 14 16587746451574163234
13760787 19 17168151126037183555
14144814 61 18343584040327424595
14252887 29 18130516309268258018
14325111 11 18410852170188507296
14445660 50 17917999398879301177
14993402 34 18272650164284277415
15309172 13 18343306959118328811
15375358 24 18411125939988789576
15375462 189 18409453604288315651
16945 1 18410578387498295232
18175812 5 17775005678314575020
18186145 218 18201443575156016954
19107657 162 17847063302401703175
20201158 50 18334573538168973483
20279233 1 18410568487593318755
20281407 28 18410293605396786225
20281475 54 18410296912521552111
20645476 183 17822025232309670942
20645477 70 18341605971632987998
21501925 9 18269827773865251051
22485316 2 18410567388081697479
23402539 116 18411125953548678022
23463225 33 18335980870245356426
23552423 10 18263363762153919669
23559900 14 18412258412039431982
2748010 2 18266457800764605869
3248919 1 17203889656254923567
581208 293 18411694426608567280
7364860 26 17914052259552524224
74978 22 18341893026088434541
8030462 33 18188217502852043566
81228 2 18191027798343269792

>  <PUBCHEM_SHAPE_MULTIPOLES>  (1) 
271.38
6.71
1.56
1.1
0.11
0.03
0
0.9
0
0
0
0.01
0.16
0.09

>  <PUBCHEM_SHAPE_SELFOVERLAP>  (1) 
534.073

>  <PUBCHEM_SHAPE_VOLUME>  (1) 
165.1

>  <PUBCHEM_COORDINATE_TYPE>  (1) 
2
5
10

$$$$
