34836
     RDKit          3D

 24 27  0  0  1  0  0  0  0  0999 V2000
   -3.9624   -3.4408    0.2140 O   0  0  0  0  0  0  0  0  0  0  0  0
    1.5587    1.1195    1.0670 N   0  0  0  0  0  0  0  0  0  0  0  0
   -2.9247   -0.8293    0.1701 N   0  0  0  0  0  0  0  0  0  0  0  0
   -1.1934    0.6478    0.6862 N   0  0  0  0  0  0  0  0  0  0  0  0
   -1.2363    2.8623   -0.2368 N   0  0  0  0  0  0  0  0  0  0  0  0
   -2.9985    1.3157   -0.7468 N   0  0  0  0  0  0  0  0  0  0  0  0
   -3.0141    3.4869   -1.6325 N   0  0  0  0  0  0  0  0  0  0  0  0
    2.7865    1.4302    1.8093 C   0  0  0  0  0  0  0  0  0  0  0  0
    1.8685    0.8866   -0.3548 C   0  0  0  0  0  0  0  0  0  0  0  0
    3.7086    0.2068    1.8257 C   0  0  0  0  0  0  0  0  0  0  0  0
    2.9756   -0.1202   -0.5686 C   0  0  0  0  0  0  0  0  0  0  0  0
    3.8841   -0.4118    0.4633 C   0  0  0  0  0  0  0  0  0  0  0  0
    0.5814    2.1986    1.2051 C   0  0  0  0  0  0  0  0  0  0  0  0
   -2.0363   -1.9778    0.3953 C   0  0  0  0  0  0  0  0  0  0  0  0
   -4.1827   -1.1384   -0.5184 C   0  0  0  0  0  0  0  0  0  0  0  0
   -0.7099    1.8795    0.4996 C   0  0  0  0  0  0  0  0  0  0  0  0
    3.1402   -0.7217   -1.8237 C   0  0  0  0  0  0  0  0  0  0  0  0
    4.9198   -1.3276    0.2369 C   0  0  0  0  0  0  0  0  0  0  0  0
   -2.8251   -3.1247    1.0168 C   0  0  0  0  0  0  0  0  0  0  0  0
   -4.8570   -2.3306    0.1514 C   0  0  0  0  0  0  0  0  0  0  0  0
   -2.3453    0.4359    0.0294 C   0  0  0  0  0  0  0  0  0  0  0  0
    4.1802   -1.6248   -2.0423 C   0  0  0  0  0  0  0  0  0  0  0  0
    5.0675   -1.9293   -1.0125 C   0  0  0  0  0  0  0  0  0  0  0  0
   -2.3855    2.5072   -0.8337 C   0  0  0  0  0  0  0  0  0  0  0  0
  1 19  1  0
  1 20  1  0
  2  8  1  0
  2  9  1  0
  2 13  1  0
  3 14  1  0
  3 15  1  0
  3 21  1  0
  4 16  2  0
  4 21  1  0
  5 16  1  0
  5 24  2  0
  6 21  2  0
  6 24  1  0
  7 24  1  0
  8 10  1  0
  9 11  1  0
 10 12  1  0
 11 12  2  0
 11 17  1  0
 12 18  1  0
 13 16  1  0
 14 19  1  0
 15 20  1  0
 17 22  2  0
 18 23  2  0
 22 23  1  0
M  END
>  <PUBCHEM_COMPOUND_CID>  (1) 
34836

>  <PUBCHEM_CONFORMER_RMSD>  (1) 
0.8

>  <PUBCHEM_CONFORMER_DIVERSEORDER>  (1) 
2
46
71
8
15
28
72
61
78
40
63
76
49
30
67
84
27
85
23
44
43
73
22
68
52
57
82
31
64
29
47
79
88
26
11
50
87
74
19
62
58
77
51
80
34
45
16
69
4
6
55
59
9
5
54
75
81
65
41
24
7
83
12
3
17
18
10
56
1
66
42
14
33
70
36
39
48
60
38
53
37
32
13
35
25
86
20
21

>  <PUBCHEM_MMFF94_PARTIAL_CHARGES>  (1) 
30
1 -0.56
10 0.14
11 -0.14
12 -0.14
13 0.41
14 0.37
15 0.37
16 0.48
17 -0.15
18 -0.15
19 0.28
2 -0.81
20 0.28
21 0.72
22 -0.15
23 -0.15
24 0.72
3 -0.84
37 0.15
38 0.15
4 -0.62
43 0.15
44 0.15
45 0.4
46 0.4
5 -0.62
6 -0.62
7 -0.9
8 0.27
9 0.41

>  <PUBCHEM_EFFECTIVE_ROTOR_COUNT>  (1) 
5

>  <PUBCHEM_PHARMACOPHORE_FEATURES>  (1) 
9
1 1 acceptor
1 2 cation
1 7 donor
4 3 4 6 21 cation
4 5 6 7 24 cation
6 1 3 14 15 19 20 rings
6 11 12 17 18 22 23 rings
6 2 8 9 10 11 12 rings
6 4 5 6 16 21 24 rings

>  <PUBCHEM_HEAVY_ATOM_COUNT>  (1) 
24

>  <PUBCHEM_ATOM_DEF_STEREO_COUNT>  (1) 
0

>  <PUBCHEM_ATOM_UDEF_STEREO_COUNT>  (1) 
0

>  <PUBCHEM_BOND_DEF_STEREO_COUNT>  (1) 
0

>  <PUBCHEM_BOND_UDEF_STEREO_COUNT>  (1) 
0

>  <PUBCHEM_ISOTOPIC_ATOM_COUNT>  (1) 
0

>  <PUBCHEM_COMPONENT_COUNT>  (1) 
1

>  <PUBCHEM_CACTVS_TAUTO_COUNT>  (1) 
4

>  <PUBCHEM_CONFORMER_ID>  (1) 
0000881400000002

>  <PUBCHEM_MMFF94_ENERGY>  (1) 
73.6063

>  <PUBCHEM_FEATURE_SELFOVERLAP>  (1) 
45.738

>  <PUBCHEM_SHAPE_FINGERPRINT>  (1) 
107951 10 18051409574697469661
10928967 22 18335710476100407515
11582403 64 16255235361849041160
11796584 16 18120933907130667682
12363563 72 18340496663153128530
12549972 3 17559943359868942425
13402501 40 18272937106717926294
13911882 115 18201719608989412658
14251764 30 17897184600595494443
14866123 147 18341058407038144747
15352361 1 18341617052643466450
15361156 5 18273491277990420309
15475509 8 18408885179396505119
15664445 248 17756718794264284381
16752209 62 18186517678907356962
17913733 40 17058910343099035320
1813 80 18189620630255677257
20403669 9 18342460365145478671
20693207 138 18343305859780702932
21781051 124 17968948479305697281
221490 88 18273213093454120992
2260408 40 17836111204938198419
22849339 104 18264776471486932279
22907989 373 17168729516318945547
23557571 272 18411690002550068856
23559900 14 18411695478781057508
314173 41 17972880542875499299
3380486 145 17559653196210288180
44062 13 18336830779674606807
4921388 177 18339084765721864004
508706 21 18410571747753480967
574716 61 16588314903275429798
59755656 520 18055073151821049977
633830 44 15792881926902918652
7399639 24 17982717873204197624
7918774 8 17970081134937738099
7987 15 17988374714615501102
9709674 26 18343010099600366968
9862886 166 18411703145708916686

>  <PUBCHEM_SHAPE_MULTIPOLES>  (1) 
458.15
10.76
3.91
1.64
2.96
0.09
-0.17
-8.68
-1.74
-5.12
-0.32
1.66
0.3
3.22

>  <PUBCHEM_SHAPE_SELFOVERLAP>  (1) 
985.012

>  <PUBCHEM_SHAPE_VOLUME>  (1) 
247.7

>  <PUBCHEM_COORDINATE_TYPE>  (1) 
2
5
10

$$$$
