34847
     RDKit          3D

 29 32  0  0  0  0  0  0  0  0999 V2000
   -6.4763    0.4240   -2.6772 Cl  0  0  0  0  0  0  0  0  0  0  0  0
    6.3081   -2.4586    0.9582 O   0  0  0  0  0  0  0  0  0  0  0  0
    7.7565   -2.1350   -0.9405 O   0  0  0  0  0  0  0  0  0  0  0  0
   -4.3348    1.7360   -0.8204 O   0  0  0  0  0  0  0  0  0  0  0  0
    0.0896    1.3826    0.3589 N   0  0  0  0  0  0  0  0  0  0  0  0
    2.9487    1.5046    0.7702 N   0  0  0  0  0  0  0  0  0  0  0  0
   -3.1922   -0.2254   -0.3425 N   0  0  0  0  0  0  0  0  0  0  0  0
   -9.1887   -1.9835    0.9292 N   0  0  0  0  0  0  0  0  0  0  0  0
    0.9729    0.3050   -0.1034 C   0  0  0  0  0  0  0  0  0  0  0  0
    0.6623    2.0438    1.5379 C   0  0  0  0  0  0  0  0  0  0  0  0
    2.3754    0.8427   -0.4081 C   0  0  0  0  0  0  0  0  0  0  0  0
    2.0651    2.5812    1.2345 C   0  0  0  0  0  0  0  0  0  0  0  0
   -1.2473    0.8689    0.6500 C   0  0  0  0  0  0  0  0  0  0  0  0
    4.2849    2.0195    0.4776 C   0  0  0  0  0  0  0  0  0  0  0  0
   -1.8714    0.2773   -0.6053 C   0  0  0  0  0  0  0  0  0  0  0  0
    5.2313    0.9227    0.0677 C   0  0  0  0  0  0  0  0  0  0  0  0
    5.2539   -0.2629    0.7937 C   0  0  0  0  0  0  0  0  0  0  0  0
    6.0681    1.1212   -1.0363 C   0  0  0  0  0  0  0  0  0  0  0  0
    6.1377   -1.2383    0.3801 C   0  0  0  0  0  0  0  0  0  0  0  0
    6.9649   -1.0536   -0.7041 C   0  0  0  0  0  0  0  0  0  0  0  0
    6.9540    0.1170   -1.4343 C   0  0  0  0  0  0  0  0  0  0  0  0
   -4.3331    0.5578   -0.4739 C   0  0  0  0  0  0  0  0  0  0  0  0
    7.3347   -3.0214    0.1159 C   0  0  0  0  0  0  0  0  0  0  0  0
   -5.6214   -0.1023   -0.1395 C   0  0  0  0  0  0  0  0  0  0  0  0
   -6.6316   -0.2021   -1.0750 C   0  0  0  0  0  0  0  0  0  0  0  0
   -5.7557   -0.6067    1.1401 C   0  0  0  0  0  0  0  0  0  0  0  0
   -7.8244   -0.8310   -0.7182 C   0  0  0  0  0  0  0  0  0  0  0  0
   -6.9485   -1.2357    1.4969 C   0  0  0  0  0  0  0  0  0  0  0  0
   -7.9828   -1.3478    0.5677 C   0  0  0  0  0  0  0  0  0  0  0  0
  1 25  1  0
  2 19  1  0
  2 23  1  0
  3 20  1  0
  3 23  1  0
  4 22  2  0
  5  9  1  0
  5 10  1  0
  5 13  1  0
  6 11  1  0
  6 12  1  0
  6 14  1  0
  7 15  1  0
  7 22  1  0
  8 29  1  0
  9 11  1  0
 10 12  1  0
 13 15  1  0
 14 16  1  0
 16 17  1  0
 16 18  2  0
 17 19  2  0
 18 21  1  0
 19 20  1  0
 20 21  2  0
 22 24  1  0
 24 25  2  0
 24 26  1  0
 25 27  1  0
 26 28  2  0
 27 29  2  0
 28 29  1  0
M  END
>  <PUBCHEM_COMPOUND_CID>  (1) 
34847

>  <PUBCHEM_CONFORMER_RMSD>  (1) 
1

>  <PUBCHEM_CONFORMER_DIVERSEORDER>  (1) 
2
131
113
211
19
118
108
213
141
232
16
59
63
15
53
183
153
48
114
80
212
166
88
161
138
100
64
162
237
129
140
110
61
18
22
148
89
97
170
242
60
9
126
24
5
134
44
123
185
207
239
121
76
154
243
87
181
68
198
225
43
86
171
26
165
127
102
17
152
235
128
217
70
62
83
204
57
95
34
172
42
167
157
178
54
233
14
236
109
112
220
200
158
56
234
91
98
10
245
124
188
115
156
130
222
40
215
94
74
119
203
116
133
58
227
12
99
33
246
216
92
214
31
175
122
186
197
144
11
37
201
38
79
139
39
221
137
155
78
177
238
67
73
84
132
193
85
45
117
240
107
244
51
226
52
173
104
150
163
224
93
142
36
194
101
105
202
176
7
190
30
103
168
6
208
184
164
229
120
96
151
77
4
179
241
82
20
195
23
210
196
145
147
41
135
3
27
90
187
136
49
218
191
8
160
111
174
228
69
182
206
125
50
72
219
13
81
199
46
66
71
169
209
143
25
192
106
180
29
149
55
47
21
205
35
28
231
159
1
189
146
65
32
75
230
223

>  <PUBCHEM_MMFF94_PARTIAL_CHARGES>  (1) 
38
1 -0.18
10 0.27
11 0.27
12 0.27
13 0.27
14 0.41
15 0.3
16 -0.14
17 -0.15
18 -0.15
19 0.08
2 -0.36
20 0.08
21 -0.15
22 0.54
23 0.56
24 0.09
25 0.18
26 -0.15
27 -0.15
28 -0.15
29 0.1
3 -0.36
4 -0.57
44 0.15
45 0.15
46 0.37
47 0.15
5 -0.81
50 0.15
51 0.15
52 0.15
53 0.4
54 0.4
6 -0.81
7 -0.73
8 -0.9
9 0.27

>  <PUBCHEM_EFFECTIVE_ROTOR_COUNT>  (1) 
8.8

>  <PUBCHEM_PHARMACOPHORE_FEATURES>  (1) 
12
1 2 acceptor
1 3 acceptor
1 4 acceptor
1 5 cation
1 6 cation
1 7 donor
1 8 cation
1 8 donor
5 2 3 19 20 23 rings
6 16 17 18 19 20 21 rings
6 24 25 26 27 28 29 rings
6 5 6 9 10 11 12 rings

>  <PUBCHEM_HEAVY_ATOM_COUNT>  (1) 
29

>  <PUBCHEM_ATOM_DEF_STEREO_COUNT>  (1) 
0

>  <PUBCHEM_ATOM_UDEF_STEREO_COUNT>  (1) 
0

>  <PUBCHEM_BOND_DEF_STEREO_COUNT>  (1) 
0

>  <PUBCHEM_BOND_UDEF_STEREO_COUNT>  (1) 
0

>  <PUBCHEM_ISOTOPIC_ATOM_COUNT>  (1) 
0

>  <PUBCHEM_COMPONENT_COUNT>  (1) 
1

>  <PUBCHEM_CACTVS_TAUTO_COUNT>  (1) 
3

>  <PUBCHEM_CONFORMER_ID>  (1) 
0000881F00000002

>  <PUBCHEM_MMFF94_ENERGY>  (1) 
82.6979

>  <PUBCHEM_FEATURE_SELFOVERLAP>  (1) 
61.055

>  <PUBCHEM_SHAPE_FINGERPRINT>  (1) 
10 15 11239997862663121840
10066227 49 18334857190678766090
10258705 36 18260557753010381931
10280341 67 12470082038001745814
11135609 127 16878516747785831148
11135926 11 16271928191111616813
11146346 77 18260551155856680738
11315181 36 13117997813241528701
11386260 185 17022910081558319924
11578821 258 9295287249092478355
12082328 90 18333730204841302941
12166972 35 18409732876269349116
125118 31 10879996869419597114
12539765 74 13045936867826441856
13553644 42 18188767228549367939
13627175 4 18060699498215700414
13668630 136 18333730208460679368
13673619 4 18412261739917153421
13782708 43 18340760516074189637
14347424 109 17060335258349768624
14565420 104 10303816475871321108
150020 25 17676487246201640967
15183329 4 18131350821171219452
15352257 5 18334015016527690811
15510794 2 18113332024936953680
15554971 5 13912588468943582869
1577012 14 16558468711901038913
16993089 31 18335982056342444519
17093844 174 11743841379186626357
17134984 74 18040997328863933938
1754908 1 14261350280251032927
1754911 235 12901547940410881890
1818759 1 18060426802558252910
18335252 98 18408885166184763504
19301679 30 17703240494699074476
2026 5 18338515236010920682
21150785 3 16515404087955890976
21267235 1 18202005429877401808
21344244 181 18260831514214558498
21365058 113 18040998479367270789
21781051 124 18335142015814234074
21792934 111 13398639333276569131
22956985 138 17199406798022152702
23081809 10 16701737271723239121
23522609 53 17915488144561507449
23569943 247 18131062710998050871
23576562 1 14563113484093060599
24771293 8 11959431406667120914
312425 54 14189567525628821724
328311 84 18410575102154191021
33532 11 18412262856708383555
3383291 50 18202280299142066407
34797466 226 17240484749640199316
397638 26 14477245964033321645
406291 66 18202000997724178122
4169191 19 10953738881153957375
439807 62 18408326583854022314
445580 126 7925911457687892940
45377200 153 17604439630006076995
465052 167 18273496754795993196
504579 68 14996280349494712311
54039377 194 18271810073989263382
5470011 282 18186523228211221700
58083652 198 16844994776299841137
60111433 81 11748093207642475022
68570916 9 14116936054818677665
9831232 110 17895184464363923042

>  <PUBCHEM_SHAPE_MULTIPOLES>  (1) 
561.14
30.83
2.48
1.56
18.67
0.66
-0.53
22.43
-3.82
-4.7
0.84
1.98
-0.19
1.76

>  <PUBCHEM_SHAPE_SELFOVERLAP>  (1) 
1199.035

>  <PUBCHEM_SHAPE_VOLUME>  (1) 
312.2

>  <PUBCHEM_COORDINATE_TYPE>  (1) 
2
5
10

$$$$
