34850
     RDKit          3D

 15 16  0  0  0  0  0  0  0  0999 V2000
    0.2215    0.0055    0.6545 O   0  0  0  0  0  0  0  0  0  0  0  0
    4.6968    1.3379   -0.3345 O   0  0  0  0  0  0  0  0  0  0  0  0
    1.9210   -2.2797    0.1882 O   0  0  0  0  0  0  0  0  0  0  0  0
    1.6062    0.0218    0.3762 N   0  0  0  0  0  0  0  0  0  0  0  0
    3.5800   -0.7011   -0.2350 N   0  0  0  0  0  0  0  0  0  0  0  0
    2.3685    1.2413    0.3526 C   0  0  0  0  0  0  0  0  0  0  0  0
   -0.4788    0.1415   -0.5760 C   0  0  0  0  0  0  0  0  0  0  0  0
    3.6954    0.6687   -0.1203 C   0  0  0  0  0  0  0  0  0  0  0  0
    2.3111   -1.1239    0.1109 C   0  0  0  0  0  0  0  0  0  0  0  0
   -1.9471    0.1278   -0.3145 C   0  0  0  0  0  0  0  0  0  0  0  0
   -2.6449   -1.0802   -0.3179 C   0  0  0  0  0  0  0  0  0  0  0  0
   -2.6226    1.3226   -0.0657 C   0  0  0  0  0  0  0  0  0  0  0  0
   -4.0180   -1.0932   -0.0732 C   0  0  0  0  0  0  0  0  0  0  0  0
   -3.9957    1.3095    0.1793 C   0  0  0  0  0  0  0  0  0  0  0  0
   -4.6934    0.1015    0.1755 C   0  0  0  0  0  0  0  0  0  0  0  0
  1  4  1  0
  1  7  1  0
  2  8  2  0
  3  9  2  0
  4  6  1  0
  4  9  1  0
  5  8  1  0
  5  9  1  0
  6  8  1  0
  7 10  1  0
 10 11  2  0
 10 12  1  0
 11 13  1  0
 12 14  2  0
 13 15  2  0
 14 15  1  0
M  END
>  <PUBCHEM_COMPOUND_CID>  (1) 
34850

>  <PUBCHEM_CONFORMER_RMSD>  (1) 
0.6

>  <PUBCHEM_CONFORMER_DIVERSEORDER>  (1) 
1
10
6
5
2
9
7
4
8
3

>  <PUBCHEM_MMFF94_PARTIAL_CHARGES>  (1) 
21
1 -0.32
10 -0.14
11 -0.15
12 -0.15
13 -0.15
14 -0.15
15 -0.15
2 -0.57
20 0.37
21 0.15
22 0.15
23 0.15
24 0.15
25 0.15
3 -0.57
4 -0.32
5 -0.49
6 0.36
7 0.42
8 0.57
9 0.69

>  <PUBCHEM_EFFECTIVE_ROTOR_COUNT>  (1) 
3.6

>  <PUBCHEM_PHARMACOPHORE_FEATURES>  (1) 
5
1 2 acceptor
1 3 acceptor
1 5 donor
5 4 5 6 8 9 rings
6 10 11 12 13 14 15 rings

>  <PUBCHEM_HEAVY_ATOM_COUNT>  (1) 
15

>  <PUBCHEM_ATOM_DEF_STEREO_COUNT>  (1) 
0

>  <PUBCHEM_ATOM_UDEF_STEREO_COUNT>  (1) 
0

>  <PUBCHEM_BOND_DEF_STEREO_COUNT>  (1) 
0

>  <PUBCHEM_BOND_UDEF_STEREO_COUNT>  (1) 
0

>  <PUBCHEM_ISOTOPIC_ATOM_COUNT>  (1) 
0

>  <PUBCHEM_COMPONENT_COUNT>  (1) 
1

>  <PUBCHEM_CACTVS_TAUTO_COUNT>  (1) 
3

>  <PUBCHEM_CONFORMER_ID>  (1) 
0000882200000001

>  <PUBCHEM_MMFF94_ENERGY>  (1) 
39.5547

>  <PUBCHEM_FEATURE_SELFOVERLAP>  (1) 
25.371

>  <PUBCHEM_SHAPE_FINGERPRINT>  (1) 
10014705 185 18187077331080502797
10616163 171 18341050825915075471
11471102 20 18411416202816630548
11615757 297 17775570857498480233
12107183 9 17691971458128443825
12932764 1 17489010635172136075
13760787 19 18272651255490904495
13897977 58 18412548725774280597
14144814 61 18411696561080647873
14415576 193 18409169909172111484
14445660 50 18411985732760241129
15196674 1 18411136926615405031
15239154 128 18411983550637546181
15242433 33 18413108355543629431
15375358 24 17894912936204129899
15442244 35 18124314895962142512
17834072 33 18342452673333298767
17834074 16 18411700984870842251
18186145 218 18187079516527603798
19050596 39 18410006624293094659
19422 9 18411980222074555291
20279233 1 15430035452804996777
20645477 70 18271807869679471590
21652331 79 18410012126447225429
22485316 2 18408601448807284759
23402539 116 17603576435461679172
23402655 69 18413671300938501732
23559900 14 18198900305992989186
2916195 48 17915731171475618160
3545911 37 18410856559940723301
4214541 1 18411982429861903121
449060 50 18334577940753110005
474 4 17822859796063385140
4990 188 18060147539637087382
5104073 3 18410572868470563099
58051976 378 18411417345009023102
74978 22 15123212386435272951
77779 3 18411702067102120733
9709674 26 18410860962293212439

>  <PUBCHEM_SHAPE_MULTIPOLES>  (1) 
281.12
9.81
1.65
0.68
0.2
0.38
0.01
-1.62
0.18
0.39
-0.05
-0.03
-0.02
-0.23

>  <PUBCHEM_SHAPE_SELFOVERLAP>  (1) 
595.157

>  <PUBCHEM_SHAPE_VOLUME>  (1) 
158.8

>  <PUBCHEM_COORDINATE_TYPE>  (1) 
2
5
10

$$$$
