34852
     RDKit          3D

 17 18  0  0  0  0  0  0  0  0999 V2000
    6.2840    0.0873    0.3333 Cl  0  0  0  0  0  0  0  0  0  0  0  0
   -0.3149   -0.1442    0.6338 O   0  0  0  0  0  0  0  0  0  0  0  0
   -4.7293   -1.6396   -0.2293 O   0  0  0  0  0  0  0  0  0  0  0  0
   -2.0709    2.0834    0.3388 O   0  0  0  0  0  0  0  0  0  0  0  0
   -1.6792   -0.2060    0.4198 N   0  0  0  0  0  0  0  0  0  0  0  0
   -3.7093    0.4595   -0.0715 N   0  0  0  0  0  0  0  0  0  0  0  0
   -2.3874   -1.4546    0.3623 C   0  0  0  0  0  0  0  0  0  0  0  0
   -3.7584   -0.9226   -0.0244 C   0  0  0  0  0  0  0  0  0  0  0  0
   -2.4425    0.9214    0.2490 C   0  0  0  0  0  0  0  0  0  0  0  0
    0.3647   -0.1816   -0.6243 C   0  0  0  0  0  0  0  0  0  0  0  0
    1.8443   -0.1143   -0.3840 C   0  0  0  0  0  0  0  0  0  0  0  0
   -4.8323    1.3103   -0.4107 C   0  0  0  0  0  0  0  0  0  0  0  0
    2.4783    1.1220   -0.3349 C   0  0  0  0  0  0  0  0  0  0  0  0
    2.5683   -1.2891   -0.2135 C   0  0  0  0  0  0  0  0  0  0  0  0
    3.8538    1.1846   -0.1127 C   0  0  0  0  0  0  0  0  0  0  0  0
    3.9439   -1.2267    0.0089 C   0  0  0  0  0  0  0  0  0  0  0  0
    4.5868    0.0102    0.0594 C   0  0  0  0  0  0  0  0  0  0  0  0
  1 17  1  0
  2  5  1  0
  2 10  1  0
  3  8  2  0
  4  9  2  0
  5  7  1  0
  5  9  1  0
  6  8  1  0
  6  9  1  0
  6 12  1  0
  7  8  1  0
 10 11  1  0
 11 13  2  0
 11 14  1  0
 13 15  1  0
 14 16  2  0
 15 17  2  0
 16 17  1  0
M  END
>  <PUBCHEM_COMPOUND_CID>  (1) 
34852

>  <PUBCHEM_CONFORMER_RMSD>  (1) 
0.6

>  <PUBCHEM_CONFORMER_DIVERSEORDER>  (1) 
1
9
5
3
10
6
4
7
8
2

>  <PUBCHEM_MMFF94_PARTIAL_CHARGES>  (1) 
21
1 -0.18
10 0.42
11 -0.14
12 0.3
13 -0.15
14 -0.15
15 -0.15
16 -0.15
17 0.18
2 -0.32
25 0.15
26 0.15
27 0.15
28 0.15
3 -0.57
4 -0.57
5 -0.32
6 -0.42
7 0.36
8 0.57
9 0.69

>  <PUBCHEM_EFFECTIVE_ROTOR_COUNT>  (1) 
3.6

>  <PUBCHEM_PHARMACOPHORE_FEATURES>  (1) 
4
1 3 acceptor
1 4 acceptor
5 5 6 7 8 9 rings
6 11 13 14 15 16 17 rings

>  <PUBCHEM_HEAVY_ATOM_COUNT>  (1) 
17

>  <PUBCHEM_ATOM_DEF_STEREO_COUNT>  (1) 
0

>  <PUBCHEM_ATOM_UDEF_STEREO_COUNT>  (1) 
0

>  <PUBCHEM_BOND_DEF_STEREO_COUNT>  (1) 
0

>  <PUBCHEM_BOND_UDEF_STEREO_COUNT>  (1) 
0

>  <PUBCHEM_ISOTOPIC_ATOM_COUNT>  (1) 
0

>  <PUBCHEM_COMPONENT_COUNT>  (1) 
1

>  <PUBCHEM_CACTVS_TAUTO_COUNT>  (1) 
1

>  <PUBCHEM_CONFORMER_ID>  (1) 
0000882400000001

>  <PUBCHEM_MMFF94_ENERGY>  (1) 
37.7451

>  <PUBCHEM_FEATURE_SELFOVERLAP>  (1) 
20.297

>  <PUBCHEM_SHAPE_FINGERPRINT>  (1) 
10014705 185 18260547805949486789
11315181 36 17894632590793106014
12107183 9 17688588265165843402
12236239 1 18335137596830508058
12507557 5 18411981368836370944
128620 24 16773802501837894836
13167823 11 18410291415042943790
15196674 1 18410013238516265692
17492 89 18411984620048077375
17802600 8 18413387652887843336
17834072 33 18336266825257832044
18186145 218 17167860885179765187
18522853 276 18413389821819915064
19050596 39 18410860966334354984
19489759 90 18407757040661337688
200 152 18343299279690111495
20300324 65 18413389847832045665
20645477 56 18261394412759960821
20645477 70 18341052917637910750
21267235 1 18337681891905897602
21709351 56 18335978740136620644
23402539 116 18409725170996890493
23402655 69 18411138008983970092
23557571 272 18272377481263974397
23559900 14 18412821391461727032
26918003 58 18334857238086423546
300161 21 18335697221957015826
351380 180 18410573989768301800
3545911 37 18410013217073220660
42 15 18334859415851009942
4214541 1 18408886230576490973
5104073 3 18410295808736030979
542803 24 17385446526950566278
573450 72 18334850589292426795
58051976 378 18202004300263800654
67856867 119 18335702810068670948
69090 78 18408322198265275091
7495541 125 17631450231793755970
77779 3 18410295808772998854
9709674 26 18411146826420577038
9971528 1 17748828514634869180

>  <PUBCHEM_SHAPE_MULTIPOLES>  (1) 
324.15
12.7
1.65
0.7
4.32
0.11
-0.01
0.13
0.21
-1.19
0.01
0.04
0.01
0.03

>  <PUBCHEM_SHAPE_SELFOVERLAP>  (1) 
675.265

>  <PUBCHEM_SHAPE_VOLUME>  (1) 
186.8

>  <PUBCHEM_COORDINATE_TYPE>  (1) 
2
5
10

$$$$
