34865
     RDKit          3D

 18 20  0  0  0  0  0  0  0  0999 V2000
   -4.1688   -1.7020    0.1529 O   0  0  0  0  0  0  0  0  0  0  0  0
    0.0340    1.9111    1.8243 O   0  0  0  0  0  0  0  0  0  0  0  0
   -2.2556    0.3847   -0.1429 N   0  0  0  0  0  0  0  0  0  0  0  0
    1.7439    0.3680   -2.0468 N   0  0  0  0  0  0  0  0  0  0  0  0
   -2.2616   -0.4911    1.0370 C   0  0  0  0  0  0  0  0  0  0  0  0
   -3.6155    0.5063   -0.6865 C   0  0  0  0  0  0  0  0  0  0  0  0
   -1.7101    1.6992    0.1894 C   0  0  0  0  0  0  0  0  0  0  0  0
   -2.8455   -1.8520    0.6685 C   0  0  0  0  0  0  0  0  0  0  0  0
   -4.1685   -0.8779   -1.0135 C   0  0  0  0  0  0  0  0  0  0  0  0
   -0.2812    1.5419    0.6921 C   0  0  0  0  0  0  0  0  0  0  0  0
    0.7220    0.9362   -0.2042 C   0  0  0  0  0  0  0  0  0  0  0  0
    1.8423    0.1893    0.1747 C   0  0  0  0  0  0  0  0  0  0  0  0
    2.4827   -0.1649   -1.0146 C   0  0  0  0  0  0  0  0  0  0  0  0
    0.6616    1.0452   -1.5524 C   0  0  0  0  0  0  0  0  0  0  0  0
    2.3992   -0.2354    1.3973 C   0  0  0  0  0  0  0  0  0  0  0  0
    3.6569   -0.9257   -1.0426 C   0  0  0  0  0  0  0  0  0  0  0  0
    3.5734   -0.9971    1.3849 C   0  0  0  0  0  0  0  0  0  0  0  0
    4.1909   -1.3358    0.1825 C   0  0  0  0  0  0  0  0  0  0  0  0
  1  8  1  0
  1  9  1  0
  2 10  2  0
  3  5  1  0
  3  6  1  0
  3  7  1  0
  4 13  1  0
  4 14  1  0
  5  8  1  0
  6  9  1  0
  7 10  1  0
 10 11  1  0
 11 12  1  0
 11 14  2  0
 12 13  2  0
 12 15  1  0
 13 16  1  0
 15 17  2  0
 16 18  2  0
 17 18  1  0
M  END
>  <PUBCHEM_COMPOUND_CID>  (1) 
34865

>  <PUBCHEM_CONFORMER_RMSD>  (1) 
0.6

>  <PUBCHEM_CONFORMER_DIVERSEORDER>  (1) 
1
19
23
52
49
44
5
2
25
47
24
3
11
14
12
45
13
22
28
20
21
26
50
27
6
4
30
34
43
29
36
33
42
9
38
15
18
37
16
35
10
51
40
39
17
8
7
41
32
31
48
46

>  <PUBCHEM_MMFF94_PARTIAL_CHARGES>  (1) 
23
1 -0.56
10 0.6
11 -0.09
13 -0.15
14 -0.3
15 -0.15
16 -0.15
17 -0.15
18 -0.15
2 -0.57
29 0.15
3 -0.81
30 0.27
31 0.15
32 0.15
33 0.15
34 0.15
4 0.03
5 0.27
6 0.27
7 0.33
8 0.28
9 0.28

>  <PUBCHEM_EFFECTIVE_ROTOR_COUNT>  (1) 
4.2

>  <PUBCHEM_PHARMACOPHORE_FEATURES>  (1) 
8
1 1 acceptor
1 2 acceptor
1 3 cation
1 4 cation
1 4 donor
5 4 11 12 13 14 rings
6 1 3 5 6 8 9 rings
6 12 13 15 16 17 18 rings

>  <PUBCHEM_HEAVY_ATOM_COUNT>  (1) 
18

>  <PUBCHEM_ATOM_DEF_STEREO_COUNT>  (1) 
0

>  <PUBCHEM_ATOM_UDEF_STEREO_COUNT>  (1) 
0

>  <PUBCHEM_BOND_DEF_STEREO_COUNT>  (1) 
0

>  <PUBCHEM_BOND_UDEF_STEREO_COUNT>  (1) 
0

>  <PUBCHEM_ISOTOPIC_ATOM_COUNT>  (1) 
0

>  <PUBCHEM_COMPONENT_COUNT>  (1) 
1

>  <PUBCHEM_CACTVS_TAUTO_COUNT>  (1) 
5

>  <PUBCHEM_CONFORMER_ID>  (1) 
0000883100000001

>  <PUBCHEM_MMFF94_ENERGY>  (1) 
36.4203

>  <PUBCHEM_FEATURE_SELFOVERLAP>  (1) 
40.689

>  <PUBCHEM_SHAPE_FINGERPRINT>  (1) 
10610426 29 18261100847112786220
11471102 22 16702299018958716800
11552529 35 14548149113358012892
11578080 2 18041821970484253684
11796584 16 18335415755813242303
12251169 10 15626215819148792316
12346177 29 18340200783267518301
12363563 72 18201721777578664099
12553582 1 18338251409032853475
12633257 1 16056879126286133862
12707595 3 18271249421067547249
12730499 353 12757428307355156345
13296908 3 17846499222945644661
13693222 15 16917063343551240048
14115302 16 18259420823589371221
14178342 30 17060074626806912831
14251764 38 12533696344008928203
14341114 328 12823291342717701055
14787075 74 18199740505144462928
15210252 30 12035717696039415919
15309172 13 14907886138360404876
15775835 57 10592042453295422286
16752209 62 18261948566456680307
17834072 14 18272642459323957713
17844478 74 16773230683193953192
1798214 20 17822006510441576522
18186145 218 13767929009304822780
19862831 5 16008744710597812821
200 152 16950846899746365342
20626108 58 18187072996788490307
20645477 70 15647341775799205538
20671657 53 18113902671128995156
21452121 199 18337952414816418637
21452121 71 18260552216706995196
21503847 285 12607417597749094442
21634736 98 17822301231276594286
21864079 5 8574712373400280047
221357 26 15574706981190926791
22646028 28 18411702092866883679
22854114 59 15051726486798698990
232386 152 18411419518214793999
23402655 69 16009029445380855006
23559900 14 18411130325635858072
25 1 13840262554933684961
251288 83 17131829901996262286
2637199 183 14779536869100555763
3082319 5 17240204347893271575
4028521 119 12901543533658261775
5161694 15 14057007096205420642
5902787 121 18343023302166291656
633830 44 14418129591525736975
6442390 28 11602827869893906457
81228 2 17558289643110502993
9882013 296 16558743537940684522

>  <PUBCHEM_SHAPE_MULTIPOLES>  (1) 
348.73
7.98
1.82
1.63
2.04
0.22
0.07
4.9
-1.69
0.88
0.28
-0.72
-0.41
-0.52

>  <PUBCHEM_SHAPE_SELFOVERLAP>  (1) 
755.75

>  <PUBCHEM_SHAPE_VOLUME>  (1) 
191.6

>  <PUBCHEM_COORDINATE_TYPE>  (1) 
2
5
10

$$$$
