34864
     RDKit          3D

 18 20  0  0  0  0  0  0  0  0999 V2000
   -0.0475    1.9669   -1.7792 O   0  0  0  0  0  0  0  0  0  0  0  0
    2.2600    0.3918    0.1295 N   0  0  0  0  0  0  0  0  0  0  0  0
   -1.7268    0.3121    2.0591 N   0  0  0  0  0  0  0  0  0  0  0  0
    2.2567   -0.4447   -1.0789 C   0  0  0  0  0  0  0  0  0  0  0  0
    3.6136    0.5114    0.6891 C   0  0  0  0  0  0  0  0  0  0  0  0
    2.7853   -1.8483   -0.7797 C   0  0  0  0  0  0  0  0  0  0  0  0
    4.1865   -0.8610    1.0463 C   0  0  0  0  0  0  0  0  0  0  0  0
    4.1761   -1.7964   -0.1573 C   0  0  0  0  0  0  0  0  0  0  0  0
    1.7083    1.7146   -0.1626 C   0  0  0  0  0  0  0  0  0  0  0  0
    0.2763    1.5673   -0.6598 C   0  0  0  0  0  0  0  0  0  0  0  0
   -0.7191    0.9341    0.2261 C   0  0  0  0  0  0  0  0  0  0  0  0
   -1.8400    0.1949   -0.1659 C   0  0  0  0  0  0  0  0  0  0  0  0
   -2.4714   -0.1941    1.0175 C   0  0  0  0  0  0  0  0  0  0  0  0
   -0.6498    1.0057    1.5763 C   0  0  0  0  0  0  0  0  0  0  0  0
   -2.4042   -0.1973   -1.3960 C   0  0  0  0  0  0  0  0  0  0  0  0
   -3.6433   -0.9587    1.0323 C   0  0  0  0  0  0  0  0  0  0  0  0
   -3.5762   -0.9623   -1.3967 C   0  0  0  0  0  0  0  0  0  0  0  0
   -4.1846   -1.3361   -0.2000 C   0  0  0  0  0  0  0  0  0  0  0  0
  1 10  2  0
  2  4  1  0
  2  5  1  0
  2  9  1  0
  3 13  1  0
  3 14  1  0
  4  6  1  0
  5  7  1  0
  6  8  1  0
  7  8  1  0
  9 10  1  0
 10 11  1  0
 11 12  1  0
 11 14  2  0
 12 13  2  0
 12 15  1  0
 13 16  1  0
 15 17  2  0
 16 18  2  0
 17 18  1  0
M  END
>  <PUBCHEM_COMPOUND_CID>  (1) 
34864

>  <PUBCHEM_CONFORMER_RMSD>  (1) 
0.6

>  <PUBCHEM_CONFORMER_DIVERSEORDER>  (1) 
1
10
68
50
67
9
12
37
26
13
70
19
27
34
8
17
64
18
16
66
11
14
44
23
48
63
55
47
25
72
45
3
2
36
49
5
61
24
4
22
35
15
42
41
59
31
40
7
46
65
33
28
20
60
54
6
52
29
21
30
43
32
53
58
69
71
39
38
56
62
57
51

>  <PUBCHEM_MMFF94_PARTIAL_CHARGES>  (1) 
20
1 -0.57
10 0.6
11 -0.09
13 -0.15
14 -0.3
15 -0.15
16 -0.15
17 -0.15
18 -0.15
2 -0.81
3 0.03
31 0.15
32 0.27
33 0.15
34 0.15
35 0.15
36 0.15
4 0.27
5 0.27
9 0.33

>  <PUBCHEM_EFFECTIVE_ROTOR_COUNT>  (1) 
4.2

>  <PUBCHEM_PHARMACOPHORE_FEATURES>  (1) 
7
1 1 acceptor
1 2 cation
1 3 cation
1 3 donor
5 3 11 12 13 14 rings
6 12 13 15 16 17 18 rings
6 2 4 5 6 7 8 rings

>  <PUBCHEM_HEAVY_ATOM_COUNT>  (1) 
18

>  <PUBCHEM_ATOM_DEF_STEREO_COUNT>  (1) 
0

>  <PUBCHEM_ATOM_UDEF_STEREO_COUNT>  (1) 
0

>  <PUBCHEM_BOND_DEF_STEREO_COUNT>  (1) 
0

>  <PUBCHEM_BOND_UDEF_STEREO_COUNT>  (1) 
0

>  <PUBCHEM_ISOTOPIC_ATOM_COUNT>  (1) 
0

>  <PUBCHEM_COMPONENT_COUNT>  (1) 
1

>  <PUBCHEM_CACTVS_TAUTO_COUNT>  (1) 
5

>  <PUBCHEM_CONFORMER_ID>  (1) 
0000883000000001

>  <PUBCHEM_MMFF94_ENERGY>  (1) 
27.7081

>  <PUBCHEM_FEATURE_SELFOVERLAP>  (1) 
35.613

>  <PUBCHEM_SHAPE_FINGERPRINT>  (1) 
10498660 4 8934998140139756755
10610426 29 18272641381266359777
11127187 94 16877950420753380521
11132069 177 14692574342454497745
11137873 295 18186523198267327675
11578080 2 18059273427603862201
12186901 62 13984665862901746553
12251169 10 15769776887718706209
12363563 72 18113339687174349390
12553582 1 18339377308950278102
12633257 1 15410896262306150971
13296908 3 17894914039931590504
13544653 18 18343578551322147606
13583140 156 16629948933352834560
13764800 53 13183024003347070714
14251764 38 12470364646100476438
14289901 80 17561084700509942970
14341114 328 16773792649504833978
14787075 74 16986858289099654104
14848160 33 18333731338221941210
15375462 189 17632014277142997051
15475509 35 17770219680984537691
15534591 1 11025805292432735033
15775835 57 7853575707665102658
17780758 139 17272285739846197258
17834072 14 18261101968114736964
1813 80 18338529580979331580
18186145 218 16081087090974370421
19862831 5 15357697470385428912
19868273 293 13984382184005484536
200 152 18342451547540177115
20361792 2 18187941559550792580
20645477 70 18187644772809741821
20671657 53 18040996254109162017
20871999 31 16298107570646040316
21069387 34 18335423508165563643
21864079 5 9799692571551388502
22646028 28 18410014325364778066
23114952 82 16662066930509891453
23526113 38 17386007337715427037
23557571 272 14563956860613250812
25 1 9151175367992656092
2637199 183 11891326521943626115
27216 239 12822998820789660295
2748010 2 15143788784977911537
33382 64 18050292763216036867
3797600 57 15984820497508721266
4028521 119 11097858496929930790
4072396 5 16988297417193287059
49207404 50 13830141593370512533
5161694 15 17022897973575720519
5262128 65 17530692029827641364
5283173 99 16805588262390639876
7097593 13 17201935738425290698
7808743 9 12390928199468598562
81228 2 17823415989986141020
90316 7 17060350608330698065
9882013 296 16630522955600192570
9981440 41 11605681240011772390

>  <PUBCHEM_SHAPE_MULTIPOLES>  (1) 
354.6
8.13
1.88
1.63
2.08
0.17
0.01
5.19
-1.54
0.93
0.35
-0.77
-0.38
-0.4

>  <PUBCHEM_SHAPE_SELFOVERLAP>  (1) 
765.285

>  <PUBCHEM_SHAPE_VOLUME>  (1) 
196

>  <PUBCHEM_COORDINATE_TYPE>  (1) 
2
5
10

$$$$
