34873
     RDKit          3D

 23 27  0  0  0  0  0  0  0  0999 V2000
   -1.4045   -0.3075    0.0010 C   0  0  0  0  0  0  0  0  0  0  0  0
   -0.6582    0.9025    0.0011 C   0  0  0  0  0  0  0  0  0  0  0  0
    0.7924    0.8794    0.0010 C   0  0  0  0  0  0  0  0  0  0  0  0
    1.4997   -0.3538    0.0009 C   0  0  0  0  0  0  0  0  0  0  0  0
   -0.6690   -1.5022    0.0012 C   0  0  0  0  0  0  0  0  0  0  0  0
   -2.8506   -0.2942    0.0002 C   0  0  0  0  0  0  0  0  0  0  0  0
    2.9455   -0.3868    0.0001 C   0  0  0  0  0  0  0  0  0  0  0  0
    0.7264   -1.5245    0.0011 C   0  0  0  0  0  0  0  0  0  0  0  0
   -3.5298    0.9462   -0.0002 C   0  0  0  0  0  0  0  0  0  0  0  0
   -1.4033    2.1024    0.0008 C   0  0  0  0  0  0  0  0  0  0  0  0
    3.6639    0.8313    0.0001 C   0  0  0  0  0  0  0  0  0  0  0  0
    1.5754    2.0548    0.0011 C   0  0  0  0  0  0  0  0  0  0  0  0
   -2.7970    2.1273    0.0001 C   0  0  0  0  0  0  0  0  0  0  0  0
    2.9692    2.0352    0.0006 C   0  0  0  0  0  0  0  0  0  0  0  0
   -1.2096   -2.8992    0.0031 C   0  0  0  0  0  0  0  0  0  0  0  0
   -3.6701   -1.4546   -0.0006 C   0  0  0  0  0  0  0  0  0  0  0  0
    3.7276   -1.5727   -0.0007 C   0  0  0  0  0  0  0  0  0  0  0  0
   -4.9348    1.0049   -0.0014 C   0  0  0  0  0  0  0  0  0  0  0  0
    5.0699    0.8452   -0.0011 C   0  0  0  0  0  0  0  0  0  0  0  0
   -5.0667   -1.3878   -0.0020 C   0  0  0  0  0  0  0  0  0  0  0  0
    5.1256   -1.5505   -0.0021 C   0  0  0  0  0  0  0  0  0  0  0  0
   -5.7000   -0.1559   -0.0022 C   0  0  0  0  0  0  0  0  0  0  0  0
    5.7977   -0.3394   -0.0020 C   0  0  0  0  0  0  0  0  0  0  0  0
  1  2  1  0
  1  5  2  0
  1  6  1  0
  2  3  2  0
  2 10  1  0
  3  4  1  0
  3 12  1  0
  4  7  1  0
  4  8  2  0
  5  8  1  0
  5 15  1  0
  6  9  2  0
  6 16  1  0
  7 11  2  0
  7 17  1  0
  9 13  1  0
  9 18  1  0
 10 13  2  0
 11 14  1  0
 11 19  1  0
 12 14  2  0
 16 20  2  0
 17 21  2  0
 18 22  2  0
 19 23  2  0
 20 22  1  0
 21 23  1  0
M  END
>  <PUBCHEM_COMPOUND_CID>  (1) 
34873

>  <PUBCHEM_CONFORMER_RMSD>  (1) 
0.6

>  <PUBCHEM_CONFORMER_DIVERSEORDER>  (1) 
1

>  <PUBCHEM_MMFF94_PARTIAL_CHARGES>  (1) 
28
10 -0.15
12 -0.15
13 -0.15
14 -0.15
15 0.14
16 -0.15
17 -0.15
18 -0.15
19 -0.15
20 -0.15
21 -0.15
22 -0.15
23 -0.15
24 0.15
25 0.15
26 0.15
27 0.15
28 0.15
32 0.15
33 0.15
34 0.15
35 0.15
36 0.15
37 0.15
38 0.15
39 0.15
5 -0.14
8 -0.15

>  <PUBCHEM_EFFECTIVE_ROTOR_COUNT>  (1) 
0

>  <PUBCHEM_PHARMACOPHORE_FEATURES>  (1) 
5
6 1 2 3 4 5 8 rings
6 1 2 6 9 10 13 rings
6 3 4 7 11 12 14 rings
6 6 9 16 18 20 22 rings
6 7 11 17 19 21 23 rings

>  <PUBCHEM_HEAVY_ATOM_COUNT>  (1) 
23

>  <PUBCHEM_ATOM_DEF_STEREO_COUNT>  (1) 
0

>  <PUBCHEM_ATOM_UDEF_STEREO_COUNT>  (1) 
0

>  <PUBCHEM_BOND_DEF_STEREO_COUNT>  (1) 
0

>  <PUBCHEM_BOND_UDEF_STEREO_COUNT>  (1) 
0

>  <PUBCHEM_ISOTOPIC_ATOM_COUNT>  (1) 
0

>  <PUBCHEM_COMPONENT_COUNT>  (1) 
1

>  <PUBCHEM_CACTVS_TAUTO_COUNT>  (1) 
1

>  <PUBCHEM_CONFORMER_ID>  (1) 
0000883900000001

>  <PUBCHEM_MMFF94_ENERGY>  (1) 
106.581

>  <PUBCHEM_FEATURE_SELFOVERLAP>  (1) 
25.464

>  <PUBCHEM_SHAPE_FINGERPRINT>  (1) 
10 15 18338225073158869992
10906281 52 18269014066435751078
10967382 1 18410856606889756545
11578080 2 16915082174264878186
12011746 2 18408603647445425119
12107183 9 17616530662184604986
12166972 35 17821732757821352421
12236239 1 18408886230513154920
12403259 226 18410849966918523753
12403259 415 18411409609741748521
12403260 363 18411419509699011261
12788726 201 17846512421459734928
13140716 1 18266740375232066370
13288520 33 18411983546505790989
13402501 40 18411982459551919975
13862211 1 18410852165967717855
14341114 176 18409735057779471057
14790565 3 18410297994943358273
15042514 8 18265054807238785699
15099037 51 18410575084768729918
15196674 1 18410856559655789221
15788980 27 18186805776776372289
17349148 13 18131353011667674756
1813 80 17240199937373530236
18681886 176 18412537738730778160
19591789 44 18410009918517114875
200 152 18131068234082848033
20028762 73 18273209811609159487
21033648 29 18187629306796728101
21236236 1 18340487777356312505
21267235 1 18410581686033165578
21279426 13 18338516313809432550
21682296 61 18128827347813158958
21859007 373 17897136092786759068
221357 26 18412542106670456300
221490 88 18336271239956763112
23402539 116 18342452664585193183
23522609 53 18122658069326407153
23559900 14 18341045315345154848
3004659 81 18333453123853109734
335352 9 18410575076099538015
338550 245 18334860545279716062
34797466 226 17489875968620685292
34934 24 18411132576472813266
350125 39 18410576171416873057
351380 180 18410573993746666995
3545911 37 18412263948094059944
3680242 22 18263362499729168090
4073 2 18041284364968666114
4214541 1 18410855438727503137
474229 33 18411699876795679719
5104073 3 18412545409505459120
59755656 215 18409449150607845647
6138700 20 18337392622043832978
7495541 125 17775280599144948192
9709674 26 18412269449667981206

>  <PUBCHEM_SHAPE_MULTIPOLES>  (1) 
473.33
12.22
2.56
0.62
1.69
0.19
0
1.45
0.01
-0.3
0
0
0
0

>  <PUBCHEM_SHAPE_SELFOVERLAP>  (1) 
1095.169

>  <PUBCHEM_SHAPE_VOLUME>  (1) 
221.9

>  <PUBCHEM_COORDINATE_TYPE>  (1) 
2
5
10

$$$$
