3488
     RDKit          3D

 33 35  0  0  0  0  0  0  0  0999 V2000
    3.1470    0.0558   -4.0837 Cl  0  0  0  0  0  0  0  0  0  0  0  0
   -4.0776    1.3631   -0.3981 S   0  0  0  0  0  0  0  0  0  0  0  0
   -2.4784   -0.9169   -1.7731 O   0  0  0  0  0  0  0  0  0  0  0  0
   -4.2743    1.3435   -1.8347 O   0  0  0  0  0  0  0  0  0  0  0  0
   -5.1090    1.8834    0.4784 O   0  0  0  0  0  0  0  0  0  0  0  0
    1.9730    0.8376    1.9591 O   0  0  0  0  0  0  0  0  0  0  0  0
    3.5342   -1.2547    1.6291 O   0  0  0  0  0  0  0  0  0  0  0  0
   -2.6516   -2.3243    0.0526 N   0  0  0  0  0  0  0  0  0  0  0  0
   -3.6209   -0.1965    0.1324 N   0  0  0  0  0  0  0  0  0  0  0  0
    2.4795    2.5797    0.5136 N   0  0  0  0  0  0  0  0  0  0  0  0
   -1.9155   -3.4350   -0.5090 C   0  0  0  0  0  0  0  0  0  0  0  0
   -2.4497   -4.7719    0.0160 C   0  0  0  0  0  0  0  0  0  0  0  0
   -0.4136   -3.2928   -0.2400 C   0  0  0  0  0  0  0  0  0  0  0  0
   -2.0895   -5.0103    1.4824 C   0  0  0  0  0  0  0  0  0  0  0  0
   -0.0567   -3.5336    1.2268 C   0  0  0  0  0  0  0  0  0  0  0  0
   -0.5891   -4.8746    1.7230 C   0  0  0  0  0  0  0  0  0  0  0  0
   -2.8734   -1.1463   -0.6339 C   0  0  0  0  0  0  0  0  0  0  0  0
   -2.6061    2.2808   -0.0567 C   0  0  0  0  0  0  0  0  0  0  0  0
   -0.3015    3.7187    0.4775 C   0  0  0  0  0  0  0  0  0  0  0  0
    0.9398    4.4938    0.7652 C   0  0  0  0  0  0  0  0  0  0  0  0
   -1.6285    2.3773   -1.0318 C   0  0  0  0  0  0  0  0  0  0  0  0
   -2.4586    2.8861    1.1794 C   0  0  0  0  0  0  0  0  0  0  0  0
   -0.4671    3.1019   -0.7626 C   0  0  0  0  0  0  0  0  0  0  0  0
   -1.2973    3.6104    1.4486 C   0  0  0  0  0  0  0  0  0  0  0  0
    2.0617    3.6484    1.3808 C   0  0  0  0  0  0  0  0  0  0  0  0
    2.3992    1.2418    0.8804 C   0  0  0  0  0  0  0  0  0  0  0  0
    2.8958    0.2599   -0.1178 C   0  0  0  0  0  0  0  0  0  0  0  0
    3.4369   -0.9365    0.3074 C   0  0  0  0  0  0  0  0  0  0  0  0
    2.7965    0.5865   -1.4558 C   0  0  0  0  0  0  0  0  0  0  0  0
    3.8978   -1.8454   -0.6453 C   0  0  0  0  0  0  0  0  0  0  0  0
    3.2576   -0.3223   -2.4083 C   0  0  0  0  0  0  0  0  0  0  0  0
    3.8080   -1.5383   -2.0031 C   0  0  0  0  0  0  0  0  0  0  0  0
    4.7312   -0.8695    2.3015 C   0  0  0  0  0  0  0  0  0  0  0  0
  1 31  1  0
  2  4  2  0
  2  5  2  0
  2  9  1  0
  2 18  1  0
  3 17  2  0
  6 26  2  0
  7 28  1  0
  7 33  1  0
  8 11  1  0
  8 17  1  0
  9 17  1  0
 10 25  1  0
 10 26  1  0
 11 12  1  0
 11 13  1  0
 12 14  1  0
 13 15  1  0
 14 16  1  0
 15 16  1  0
 18 21  2  0
 18 22  1  0
 19 20  1  0
 19 23  2  0
 19 24  1  0
 20 25  1  0
 21 23  1  0
 22 24  2  0
 26 27  1  0
 27 28  2  0
 27 29  1  0
 28 30  1  0
 29 31  2  0
 30 32  2  0
 31 32  1  0
M  END
>  <PUBCHEM_COMPOUND_CID>  (1) 
3488

>  <PUBCHEM_CONFORMER_RMSD>  (1) 
1.2

>  <PUBCHEM_CONFORMER_DIVERSEORDER>  (1) 
1
20
262
30
173
259
111
165
106
132
100
134
144
160
243
80
177
244
226
163
228
246
77
158
145
97
251
25
47
195
213
86
62
15
50
254
99
52
250
185
184
209
182
152
109
211
56
113
234
205
214
258
5
180
74
153
221
203
240
55
224
197
157
206
151
255
146
191
37
83
38
117
223
198
179
32
170
28
22
35
21
190
196
161
245
155
140
148
156
96
229
14
33
137
115
238
107
82
183
122
81
167
218
116
178
51
252
19
200
90
242
93
119
110
45
46
189
88
260
18
23
131
133
263
207
147
34
193
257
11
59
17
129
87
53
208
222
164
70
91
166
174
101
118
172
256
249
187
58
192
44
89
60
94
57
142
149
175
201
169
219
104
139
85
71
210
75
48
215
123
39
61
98
42
253
159
171
150
124
241
176
73
67
186
41
181
217
108
63
247
92
235
49
188
261
65
29
162
143
68
220
40
233
112
26
64
230
31
79
36
199
128
3
12
27
194
212
120
168
138
248
225
237
69
16
43
13
95
231
141
114
6
126
127
76
125
105
202
136
130
232
239
154
2
66
204
10
236
8
84
121
135
102
78
54
9
227
72
7
103
216
4
24

>  <PUBCHEM_MMFF94_PARTIAL_CHARGES>  (1) 
38
1 -0.18
10 -0.73
11 0.3
17 0.87
18 -0.01
19 -0.14
2 1.45
20 0.14
21 -0.15
22 -0.15
23 -0.15
24 -0.15
25 0.3
26 0.54
27 0.09
28 0.08
29 -0.15
3 -0.57
30 -0.15
31 0.18
32 -0.15
33 0.28
4 -0.65
45 0.37
46 0.42
49 0.15
5 -0.65
50 0.15
51 0.15
52 0.15
55 0.37
56 0.15
57 0.15
58 0.15
6 -0.57
7 -0.36
8 -0.73
9 -0.79

>  <PUBCHEM_EFFECTIVE_ROTOR_COUNT>  (1) 
12.2

>  <PUBCHEM_PHARMACOPHORE_FEATURES>  (1) 
11
1 10 donor
1 3 acceptor
1 4 acceptor
1 5 acceptor
1 6 acceptor
1 7 acceptor
1 8 donor
1 9 donor
6 11 12 13 14 15 16 rings
6 18 19 21 22 23 24 rings
6 27 28 29 30 31 32 rings

>  <PUBCHEM_HEAVY_ATOM_COUNT>  (1) 
33

>  <PUBCHEM_ATOM_DEF_STEREO_COUNT>  (1) 
0

>  <PUBCHEM_ATOM_UDEF_STEREO_COUNT>  (1) 
0

>  <PUBCHEM_BOND_DEF_STEREO_COUNT>  (1) 
0

>  <PUBCHEM_BOND_UDEF_STEREO_COUNT>  (1) 
0

>  <PUBCHEM_ISOTOPIC_ATOM_COUNT>  (1) 
0

>  <PUBCHEM_COMPONENT_COUNT>  (1) 
1

>  <PUBCHEM_CACTVS_TAUTO_COUNT>  (1) 
6

>  <PUBCHEM_CONFORMER_ID>  (1) 
00000DA000000001

>  <PUBCHEM_MMFF94_ENERGY>  (1) 
56.3205

>  <PUBCHEM_FEATURE_SELFOVERLAP>  (1) 
55.895

>  <PUBCHEM_SHAPE_FINGERPRINT>  (1) 
12788726 201 18044110165777016703
13122387 1 16899329045808184755
14251757 5 18267605566745780214
144659 178 18337381652944947890
14725015 67 18268130003706423745
161222 619 15954722762109966626
17627616 140 17401213270163469447
20764821 26 18411136917930278026
3493558 16 16163573832565797444
394071 54 17113554064765654131
42626532 9 18198931204726260390
4394409 98 17972574625139849341
445580 102 17618775203693755629
474144 1 16535978918328661662
5081480 168 17337076953087280926
5309563 4 17113812454402949963
6287921 2 16757783992032915982

>  <PUBCHEM_SHAPE_MULTIPOLES>  (1) 
640.55
8.32
7.8
2.58
0.5
4.38
1.78
0.71
1.73
-6.02
-4.34
3.33
0.41
1.08

>  <PUBCHEM_SHAPE_SELFOVERLAP>  (1) 
1324.831

>  <PUBCHEM_SHAPE_VOLUME>  (1) 
365.7

>  <PUBCHEM_COORDINATE_TYPE>  (1) 
2
5
10

$$$$
