34883
     RDKit          3D

 13 14  0  0  0  0  0  0  0  0999 V2000
    0.0300   -0.6020   -0.0001 C   0  0  0  0  0  0  0  0  0  0  0  0
   -0.3309    0.7552    0.0002 C   0  0  0  0  0  0  0  0  0  0  0  0
    1.4751   -1.0376    0.0004 C   0  0  0  0  0  0  0  0  0  0  0  0
    0.7084    1.8464    0.0010 C   0  0  0  0  0  0  0  0  0  0  0  0
    2.4874    0.0775   -0.0001 C   0  0  0  0  0  0  0  0  0  0  0  0
   -0.9748   -1.5821    0.0000 C   0  0  0  0  0  0  0  0  0  0  0  0
   -1.6893    1.1082    0.0000 C   0  0  0  0  0  0  0  0  0  0  0  0
    2.1283    1.3712    0.0005 C   0  0  0  0  0  0  0  0  0  0  0  0
   -2.3213   -1.2196   -0.0001 C   0  0  0  0  0  0  0  0  0  0  0  0
   -2.6784    0.1255   -0.0002 C   0  0  0  0  0  0  0  0  0  0  0  0
    3.9286   -0.3424   -0.0011 C   0  0  0  0  0  0  0  0  0  0  0  0
   -0.6412   -3.0404    0.0002 C   0  0  0  0  0  0  0  0  0  0  0  0
   -2.1220    2.5400   -0.0007 C   0  0  0  0  0  0  0  0  0  0  0  0
  1  2  2  0
  1  3  1  0
  1  6  1  0
  2  4  1  0
  2  7  1  0
  3  5  1  0
  4  8  1  0
  5  8  2  0
  5 11  1  0
  6  9  2  0
  6 12  1  0
  7 10  2  0
  7 13  1  0
  9 10  1  0
M  END
>  <PUBCHEM_COMPOUND_CID>  (1) 
34883

>  <PUBCHEM_CONFORMER_RMSD>  (1) 
0.4

>  <PUBCHEM_CONFORMER_DIVERSEORDER>  (1) 
1

>  <PUBCHEM_MMFF94_PARTIAL_CHARGES>  (1) 
16
1 -0.14
10 -0.15
11 0.14
12 0.14
13 0.14
18 0.15
19 0.15
2 -0.14
20 0.15
3 0.28
4 0.28
5 -0.28
6 -0.14
7 -0.14
8 -0.29
9 -0.15

>  <PUBCHEM_EFFECTIVE_ROTOR_COUNT>  (1) 
0.4

>  <PUBCHEM_PHARMACOPHORE_FEATURES>  (1) 
2
6 1 2 3 4 5 8 rings
6 1 2 6 7 9 10 rings

>  <PUBCHEM_HEAVY_ATOM_COUNT>  (1) 
13

>  <PUBCHEM_ATOM_DEF_STEREO_COUNT>  (1) 
0

>  <PUBCHEM_ATOM_UDEF_STEREO_COUNT>  (1) 
0

>  <PUBCHEM_BOND_DEF_STEREO_COUNT>  (1) 
0

>  <PUBCHEM_BOND_UDEF_STEREO_COUNT>  (1) 
0

>  <PUBCHEM_ISOTOPIC_ATOM_COUNT>  (1) 
0

>  <PUBCHEM_COMPONENT_COUNT>  (1) 
1

>  <PUBCHEM_CACTVS_TAUTO_COUNT>  (1) 
1

>  <PUBCHEM_CONFORMER_ID>  (1) 
0000884300000001

>  <PUBCHEM_MMFF94_ENERGY>  (1) 
26.873

>  <PUBCHEM_FEATURE_SELFOVERLAP>  (1) 
10.169

>  <PUBCHEM_SHAPE_FINGERPRINT>  (1) 
10608611 8 18341889719037814040
10967382 1 17906171750383175431
11206711 2 18410011043840829333
13140716 1 18122344841745323402
13380535 76 18264767649856350789
14614273 12 18116146667324687781
15775835 57 18188494557996410624
16945 1 18410574032422471654
17804303 29 18341617040195966208
193761 8 17906171003048316421
19973954 147 18266178520637528724
20510252 161 18272089391879593656
20645476 183 17969526856333064654
20645477 70 16103871518839555943
20711985 365 18409448132584382780
20871998 184 18200317748179605863
21501502 16 18267588098823506628
2334 1 17762055845058402086
23388829 49 16758872525497020815
23402539 116 18271234015141507487
23463225 33 18334856061571352474
23552423 10 17901104449225214020
23559900 14 18271527478184207454
241688 4 15889119670777724843
25 1 18047177562931925813
2748010 2 18266745666568302535
3071541 12 17403459576592592149
43471831 8 18263642861903374674
5084963 1 18202845461029181065
528886 8 18266734692900636912
53812653 166 18269553840724830128
54173680 148 18265616657268986138
6333449 129 18411697668923877244
7364860 26 17692530018293277423
81228 2 18194393614046798395
8809292 202 18263365944139990698

>  <PUBCHEM_SHAPE_MULTIPOLES>  (1) 
267.53
4.48
2.8
0.62
3.22
0.63
0
-0.49
0
-1.49
0
0
0
0

>  <PUBCHEM_SHAPE_SELFOVERLAP>  (1) 
567.638

>  <PUBCHEM_SHAPE_VOLUME>  (1) 
145

>  <PUBCHEM_COORDINATE_TYPE>  (1) 
2
5
10

$$$$
