34882
     RDKit          3D

 15 15  0  0  1  0  0  0  0  0999 V2000
   -3.9672   -0.0050   -1.5540 O   0  0  0  0  0  0  0  0  0  0  0  0
   -3.6148    1.2540    0.3002 O   0  0  0  0  0  0  0  0  0  0  0  0
   -1.2600   -0.6913    0.5610 C   0  0  0  0  0  0  0  0  0  0  0  0
   -0.4173   -0.2308   -0.6384 C   0  0  0  0  0  0  0  0  0  0  0  0
   -2.7282   -1.0136    0.2249 C   0  0  0  0  0  0  0  0  0  0  0  0
    1.0301    0.0297   -0.3057 C   0  0  0  0  0  0  0  0  0  0  0  0
    1.4420    1.2909    0.1007 C   0  0  0  0  0  0  0  0  0  0  0  0
   -3.4661   -1.5118    1.4658 C   0  0  0  0  0  0  0  0  0  0  0  0
    1.9350   -1.0170   -0.4168 C   0  0  0  0  0  0  0  0  0  0  0  0
    3.2792   -0.7973   -0.1154 C   0  0  0  0  0  0  0  0  0  0  0  0
   -3.4618    0.2044   -0.3110 C   0  0  0  0  0  0  0  0  0  0  0  0
    2.7862    1.5105    0.4020 C   0  0  0  0  0  0  0  0  0  0  0  0
    3.7046    0.4665    0.2939 C   0  0  0  0  0  0  0  0  0  0  0  0
    0.4769    2.4243    0.2233 C   0  0  0  0  0  0  0  0  0  0  0  0
    4.2617   -1.9134   -0.2306 C   0  0  0  0  0  0  0  0  0  0  0  0
  1 11  1  0
  2 11  2  0
  3  4  1  0
  3  5  1  0
  4  6  1  0
  5  8  1  0
  5 11  1  0
  6  7  2  0
  6  9  1  0
  7 12  1  0
  7 14  1  0
  9 10  2  0
 10 13  1  0
 10 15  1  0
 12 13  2  0
M  END
>  <PUBCHEM_COMPOUND_CID>  (1) 
34882

>  <PUBCHEM_CONFORMER_RMSD>  (1) 
0.6

>  <PUBCHEM_CONFORMER_DIVERSEORDER>  (1) 
1
27
18
3
7
25
13
31
6
32
24
28
15
34
10
20
30
22
12
16
33
26
29
11
5
8
19
23
14
17
9
2
21
4

>  <PUBCHEM_MMFF94_PARTIAL_CHARGES>  (1) 
17
1 -0.65
10 -0.14
11 0.66
12 -0.15
13 -0.15
14 0.14
15 0.14
2 -0.57
24 0.15
25 0.15
26 0.15
33 0.5
4 0.14
5 0.06
6 -0.14
7 -0.14
9 -0.15

>  <PUBCHEM_EFFECTIVE_ROTOR_COUNT>  (1) 
4

>  <PUBCHEM_PHARMACOPHORE_FEATURES>  (1) 
5
1 1 acceptor
1 2 acceptor
1 8 hydrophobe
3 1 2 11 anion
6 6 7 9 10 12 13 rings

>  <PUBCHEM_HEAVY_ATOM_COUNT>  (1) 
15

>  <PUBCHEM_ATOM_DEF_STEREO_COUNT>  (1) 
0

>  <PUBCHEM_ATOM_UDEF_STEREO_COUNT>  (1) 
1

>  <PUBCHEM_BOND_DEF_STEREO_COUNT>  (1) 
0

>  <PUBCHEM_BOND_UDEF_STEREO_COUNT>  (1) 
0

>  <PUBCHEM_ISOTOPIC_ATOM_COUNT>  (1) 
0

>  <PUBCHEM_COMPONENT_COUNT>  (1) 
1

>  <PUBCHEM_CACTVS_TAUTO_COUNT>  (1) 
1

>  <PUBCHEM_CONFORMER_ID>  (1) 
0000884200000001

>  <PUBCHEM_MMFF94_ENERGY>  (1) 
31.5553

>  <PUBCHEM_FEATURE_SELFOVERLAP>  (1) 
25.43

>  <PUBCHEM_SHAPE_FINGERPRINT>  (1) 
10219947 1 18202846560788826118
10608611 8 18336545022821340609
10980938 120 18271527619142531572
1100329 8 16750430969129613891
11471102 20 18412538821558285324
116883 192 18127135173737553732
12032990 46 18409454678336087874
124424 183 18335699429633542071
12500047 106 17676478445961279531
12760667 363 18122623852012738054
12932764 1 18199198458427644855
13134695 92 18201432593020099800
13296908 3 18335425694056146963
13571099 22 18413669123384613016
14144814 61 18342742939664920099
14252887 29 18412830205188305666
15219456 202 18336265733766419962
15442244 35 18342460292267963976
15653759 3 18187089494042438291
15848700 24 18341887468469319028
17834072 14 18412823573299819256
18186145 218 17967532363250664075
19026448 4 18187082888008372395
19107657 47 18272929436011369211
19422 9 12973600032389695841
1986462 14 17894916243487398147
200 152 17846210064514911335
20279233 1 18260545653806861479
20645477 70 18341890783952404862
20871998 22 18058178228618538630
21065199 12 18336833094835961931
21524375 3 17123392460213267216
22943178 12 18188207710063079115
23402539 116 18129934577174769269
23559900 14 18260266331178439354
2748010 2 18199455577330654620
5104073 3 18411984658622649235
6049 1 18114752654189672779
77492 1 17131835407943778303
81228 2 18051993427992859008
8809292 202 18261679190044042347
9709674 26 18262804110825526819

>  <PUBCHEM_SHAPE_MULTIPOLES>  (1) 
296.95
8.3
2.01
0.98
2.55
0.58
0.02
-2.47
0.02
-1.05
-0.33
0.97
-0.19
0.92

>  <PUBCHEM_SHAPE_SELFOVERLAP>  (1) 
603.001

>  <PUBCHEM_SHAPE_VOLUME>  (1) 
174.6

>  <PUBCHEM_COORDINATE_TYPE>  (1) 
2
5
10

$$$$
