34884
     RDKit          3D

 13 14  0  0  1  0  0  0  0  0999 V2000
   -2.5644    0.1351   -0.1665 C   0  0  0  0  0  0  0  0  0  0  0  0
   -1.4467    1.1169   -0.5759 C   0  0  0  0  0  0  0  0  0  0  0  0
   -0.0607    0.6301   -0.2269 C   0  0  0  0  0  0  0  0  0  0  0  0
    0.2025   -0.7510   -0.1637 C   0  0  0  0  0  0  0  0  0  0  0  0
   -2.1616   -1.3050   -0.3595 C   0  0  0  0  0  0  0  0  0  0  0  0
    0.9849    1.5437   -0.0446 C   0  0  0  0  0  0  0  0  0  0  0  0
   -0.8847   -1.7123   -0.3688 C   0  0  0  0  0  0  0  0  0  0  0  0
    1.5050   -1.1975    0.0883 C   0  0  0  0  0  0  0  0  0  0  0  0
   -3.0037    0.3602    1.2829 C   0  0  0  0  0  0  0  0  0  0  0  0
    2.2775    1.0894    0.2157 C   0  0  0  0  0  0  0  0  0  0  0  0
    2.5370   -0.2783    0.2814 C   0  0  0  0  0  0  0  0  0  0  0  0
    0.7649    3.0196   -0.1340 C   0  0  0  0  0  0  0  0  0  0  0  0
    1.8499   -2.6511    0.1716 C   0  0  0  0  0  0  0  0  0  0  0  0
  1  2  1  0
  1  5  1  0
  1  9  1  0
  2  3  1  0
  3  4  2  0
  3  6  1  0
  4  7  1  0
  4  8  1  0
  5  7  2  0
  6 10  2  0
  6 12  1  0
  8 11  2  0
  8 13  1  0
 10 11  1  0
M  END
>  <PUBCHEM_COMPOUND_CID>  (1) 
34884

>  <PUBCHEM_CONFORMER_RMSD>  (1) 
0.4

>  <PUBCHEM_CONFORMER_DIVERSEORDER>  (1) 
1
2

>  <PUBCHEM_MMFF94_PARTIAL_CHARGES>  (1) 
16
1 0.14
10 -0.15
11 -0.15
12 0.14
13 0.14
17 0.15
18 0.15
2 0.14
22 0.15
23 0.15
3 -0.14
4 0.03
5 -0.29
6 -0.14
7 -0.18
8 -0.14

>  <PUBCHEM_EFFECTIVE_ROTOR_COUNT>  (1) 
0.4

>  <PUBCHEM_PHARMACOPHORE_FEATURES>  (1) 
2
6 1 2 3 4 5 7 rings
6 3 4 6 8 10 11 rings

>  <PUBCHEM_HEAVY_ATOM_COUNT>  (1) 
13

>  <PUBCHEM_ATOM_DEF_STEREO_COUNT>  (1) 
0

>  <PUBCHEM_ATOM_UDEF_STEREO_COUNT>  (1) 
1

>  <PUBCHEM_BOND_DEF_STEREO_COUNT>  (1) 
0

>  <PUBCHEM_BOND_UDEF_STEREO_COUNT>  (1) 
0

>  <PUBCHEM_ISOTOPIC_ATOM_COUNT>  (1) 
0

>  <PUBCHEM_COMPONENT_COUNT>  (1) 
1

>  <PUBCHEM_CACTVS_TAUTO_COUNT>  (1) 
1

>  <PUBCHEM_CONFORMER_ID>  (1) 
0000884400000001

>  <PUBCHEM_MMFF94_ENERGY>  (1) 
33.3688

>  <PUBCHEM_FEATURE_SELFOVERLAP>  (1) 
10.172

>  <PUBCHEM_SHAPE_FINGERPRINT>  (1) 
10967382 1 18410569574235894998
11086676 242 18122076307510071088
11471102 22 18263098676983264555
12202030 40 16370723725370957875
12251169 10 18412272744028859395
12382932 28 18340757178826227650
12423570 1 12685368496438617200
12524768 44 18270961228488075542
12696612 119 18410860987846075765
13140716 1 18194400223827582081
14617773 55 17698727231168519087
15490181 8 17907019826272820950
15775835 57 18267312099851119949
16945 1 18409726287487920741
17844478 74 17967824816443371053
17990270 104 18409161117010189459
21130352 189 18265891350407596039
21501502 16 18266740362304699951
22445834 79 18412267272077084771
2334 1 17761208112924292077
23463225 33 18335410279929964682
23552423 10 18266173014399791167
241688 4 18194397788633645322
2748010 2 18122054308724653388
2897 32 18266173027179165452
5084963 1 18056193811239192713
5255222 1 18409442613467128468
528886 8 18339071704836651426
63268167 104 18410571786323368067
66348 1 17545593461879052270
7364860 26 18342738567541167542
81228 2 17687457962696326488

>  <PUBCHEM_SHAPE_MULTIPOLES>  (1) 
267.53
3.85
2.79
0.81
1.42
0.47
-0.14
-0.43
-0.84
-1.46
0.17
0.42
0.04
-0.23

>  <PUBCHEM_SHAPE_SELFOVERLAP>  (1) 
569.074

>  <PUBCHEM_SHAPE_VOLUME>  (1) 
144.7

>  <PUBCHEM_COORDINATE_TYPE>  (1) 
2
5
10

$$$$
