3489
     RDKit          3D

 19 20  0  0  0  0  0  0  0  0999 V2000
   -2.0628    1.1254   -0.6785 S   0  0  0  0  0  0  0  0  0  0  0  0
    1.5580   -1.0193    0.2208 S   0  0  0  0  0  0  0  0  0  0  0  0
    1.6925   -2.2623   -0.5143 O   0  0  0  0  0  0  0  0  0  0  0  0
    1.2050   -1.0315    1.6280 O   0  0  0  0  0  0  0  0  0  0  0  0
   -2.7932   -1.1066    0.3462 N   0  0  0  0  0  0  0  0  0  0  0  0
    0.5011    0.0399   -0.6373 N   0  0  0  0  0  0  0  0  0  0  0  0
   -1.4238   -1.2058    0.1722 N   0  0  0  0  0  0  0  0  0  0  0  0
   -4.6676    0.4797   -0.0098 C   0  0  0  0  0  0  0  0  0  0  0  0
   -3.1946    0.0410   -0.0587 C   0  0  0  0  0  0  0  0  0  0  0  0
   -5.5282   -0.6558    0.5851 C   0  0  0  0  0  0  0  0  0  0  0  0
   -5.1628    0.7977   -1.4374 C   0  0  0  0  0  0  0  0  0  0  0  0
   -4.9163    1.7395    0.8505 C   0  0  0  0  0  0  0  0  0  0  0  0
   -0.9184   -0.1105   -0.3536 C   0  0  0  0  0  0  0  0  0  0  0  0
    3.0926   -0.1486    0.0860 C   0  0  0  0  0  0  0  0  0  0  0  0
    3.4333    0.7714    1.0610 C   0  0  0  0  0  0  0  0  0  0  0  0
    3.9206   -0.4054   -0.9919 C   0  0  0  0  0  0  0  0  0  0  0  0
    4.6430    1.4578    0.9547 C   0  0  0  0  0  0  0  0  0  0  0  0
    5.1303    0.2810   -1.0982 C   0  0  0  0  0  0  0  0  0  0  0  0
    5.4915    1.2125   -0.1249 C   0  0  0  0  0  0  0  0  0  0  0  0
  1  9  1  0
  1 13  1  0
  2  3  2  0
  2  4  2  0
  2  6  1  0
  2 14  1  0
  5  7  1  0
  5  9  2  0
  6 13  1  0
  7 13  2  0
  8  9  1  0
  8 10  1  0
  8 11  1  0
  8 12  1  0
 14 15  2  0
 14 16  1  0
 15 17  1  0
 16 18  2  0
 17 19  2  0
 18 19  1  0
M  END
>  <PUBCHEM_COMPOUND_CID>  (1) 
3489

>  <PUBCHEM_CONFORMER_RMSD>  (1) 
0.6

>  <PUBCHEM_CONFORMER_DIVERSEORDER>  (1) 
8
31
16
17
6
1
9
36
37
15
18
33
5
21
12
20
2
27
32
34
35
11
7
30
23
26
29
10
22
25
3
13
4
28
24
14
19

>  <PUBCHEM_MMFF94_PARTIAL_CHARGES>  (1) 
22
1 -0.08
13 0.52
14 -0.01
15 -0.15
16 -0.15
17 -0.15
18 -0.15
19 -0.15
2 1.45
29 0.42
3 -0.65
30 0.15
31 0.15
32 0.15
33 0.15
34 0.15
4 -0.65
5 -0.34
6 -0.7
7 -0.34
8 0.18
9 0.2

>  <PUBCHEM_EFFECTIVE_ROTOR_COUNT>  (1) 
4

>  <PUBCHEM_PHARMACOPHORE_FEATURES>  (1) 
8
1 3 acceptor
1 4 acceptor
1 5 acceptor
1 6 donor
1 7 acceptor
4 8 10 11 12 hydrophobe
5 1 5 7 9 13 rings
6 14 15 16 17 18 19 rings

>  <PUBCHEM_HEAVY_ATOM_COUNT>  (1) 
19

>  <PUBCHEM_ATOM_DEF_STEREO_COUNT>  (1) 
0

>  <PUBCHEM_ATOM_UDEF_STEREO_COUNT>  (1) 
0

>  <PUBCHEM_BOND_DEF_STEREO_COUNT>  (1) 
0

>  <PUBCHEM_BOND_UDEF_STEREO_COUNT>  (1) 
0

>  <PUBCHEM_ISOTOPIC_ATOM_COUNT>  (1) 
0

>  <PUBCHEM_COMPONENT_COUNT>  (1) 
1

>  <PUBCHEM_CACTVS_TAUTO_COUNT>  (1) 
2

>  <PUBCHEM_CONFORMER_ID>  (1) 
00000DA100000008

>  <PUBCHEM_MMFF94_ENERGY>  (1) 
30.1286

>  <PUBCHEM_FEATURE_SELFOVERLAP>  (1) 
42.109

>  <PUBCHEM_SHAPE_FINGERPRINT>  (1) 
10354089 29 16153428363903220364
10366900 7 18342450444102957841
10670039 82 18114753625164038420
11089746 13 18059849558847954116
11128504 68 16200146616550285216
11796584 16 10592043544338506525
12236239 1 16515683351340779948
12555020 224 11312049933832523813
12596602 18 15357698595551394068
12730499 353 18271815626754430686
12916748 109 18272092699157197184
12969540 114 18270666624075520039
13955234 65 18341049601933902610
14251751 18 10809351044053721953
14251752 14 14548750460392899713
14341114 328 17313104176538747984
14366163 111 17561082505924072688
14528608 73 18060413620971129989
14848160 23 11746935403794312409
15183329 4 14836411319496750985
15375358 24 18040997332499355275
1601671 61 18333169470748010820
17834072 33 17275101738846705245
17844677 252 17918281943498365537
18186145 218 17846781840974434802
18222031 100 8214148486474881850
193927 3 10303813223868076716
19784866 170 18259705596705397855
20369508 70 12751232597897458966
20374829 77 10159699088391511249
20645477 56 18408884044638610479
20645477 70 17417819405184777558
21150785 3 16916777526705601805
221357 26 17704356550483287792
22289505 5 17703792505460840576
22646028 1 10663815278343316957
23402539 116 9151173130351533819
23402655 69 17917711318622664742
23557571 272 18337123357332064799
23559900 14 18187937123029359326
23590187 198 10665228146579946433
239999 70 8862943879866505236
26918003 58 13334454263999995301
2916195 48 18408602582478379337
29717793 49 14189305863415387544
300161 21 18187078426307342317
3004659 81 12103848977699696040
34797466 226 17703796950203157933
34934 24 18187075144651868647
3545911 37 18410015437618811503
42 15 11891332040981850214
465052 167 12612746905298206808
474 4 18114186358361996588
5104073 3 18188493467533589243
542803 24 17632859715833123437
59682541 35 18041571351063430137
633830 44 18201712990260219140
7164475 11 15697177144913224834
960060 61 14692573238869474720

>  <PUBCHEM_SHAPE_MULTIPOLES>  (1) 
372.03
14.3
1.59
1.19
2.71
0.16
0.01
-5.48
-0.66
-0.12
0.2
-0.17
-0.13
0.63

>  <PUBCHEM_SHAPE_SELFOVERLAP>  (1) 
753.647

>  <PUBCHEM_SHAPE_VOLUME>  (1) 
219.1

>  <PUBCHEM_COORDINATE_TYPE>  (1) 
2
5
10

$$$$
