34891
     RDKit          3D

 15 15  0  0  0  0  0  0  0  0999 V2000
    2.1738   -2.4170    0.9422 Br  0  0  0  0  0  0  0  0  0  0  0  0
    2.9860   -1.0135   -1.8751 Br  0  0  0  0  0  0  0  0  0  0  0  0
    3.9337    0.2424    0.8997 Br  0  0  0  0  0  0  0  0  0  0  0  0
   -2.1735   -2.4170   -0.9423 Br  0  0  0  0  0  0  0  0  0  0  0  0
   -2.9864   -1.0137    1.8748 Br  0  0  0  0  0  0  0  0  0  0  0  0
   -3.9335    0.2423   -0.9001 Br  0  0  0  0  0  0  0  0  0  0  0  0
   -0.0001   -0.6681    0.0003 N   0  0  0  0  0  0  0  0  0  0  0  0
   -1.1998    1.4100   -0.0013 N   0  0  0  0  0  0  0  0  0  0  0  0
    1.1998    1.4100    0.0017 N   0  0  0  0  0  0  0  0  0  0  0  0
   -0.0001    3.4246   -0.0003 N   0  0  0  0  0  0  0  0  0  0  0  0
    1.1222    0.0695    0.0016 C   0  0  0  0  0  0  0  0  0  0  0  0
   -1.1221    0.0694   -0.0012 C   0  0  0  0  0  0  0  0  0  0  0  0
    2.4131   -0.6759    0.0031 C   0  0  0  0  0  0  0  0  0  0  0  0
   -2.4130   -0.6759   -0.0032 C   0  0  0  0  0  0  0  0  0  0  0  0
   -0.0001    2.0129    0.0001 C   0  0  0  0  0  0  0  0  0  0  0  0
  1 13  1  0
  2 13  1  0
  3 13  1  0
  4 14  1  0
  5 14  1  0
  6 14  1  0
  7 11  2  0
  7 12  1  0
  8 12  2  0
  8 15  1  0
  9 11  1  0
  9 15  2  0
 10 15  1  0
 11 13  1  0
 12 14  1  0
M  END
>  <PUBCHEM_COMPOUND_CID>  (1) 
34891

>  <PUBCHEM_CONFORMER_RMSD>  (1) 
0.6

>  <PUBCHEM_CONFORMER_DIVERSEORDER>  (1) 
1
3
2

>  <PUBCHEM_MMFF94_PARTIAL_CHARGES>  (1) 
17
1 -0.23
10 -0.9
11 0.48
12 0.48
13 0.83
14 0.83
15 0.72
16 0.4
17 0.4
2 -0.23
3 -0.23
4 -0.23
5 -0.23
6 -0.23
7 -0.62
8 -0.62
9 -0.62

>  <PUBCHEM_EFFECTIVE_ROTOR_COUNT>  (1) 
2

>  <PUBCHEM_PHARMACOPHORE_FEATURES>  (1) 
11
1 1 hydrophobe
1 10 donor
1 2 hydrophobe
1 3 hydrophobe
1 4 hydrophobe
1 5 hydrophobe
1 6 hydrophobe
4 1 2 3 13 hydrophobe
4 4 5 6 14 hydrophobe
4 8 9 10 15 cation
6 7 8 9 11 12 15 rings

>  <PUBCHEM_HEAVY_ATOM_COUNT>  (1) 
15

>  <PUBCHEM_ATOM_DEF_STEREO_COUNT>  (1) 
0

>  <PUBCHEM_ATOM_UDEF_STEREO_COUNT>  (1) 
0

>  <PUBCHEM_BOND_DEF_STEREO_COUNT>  (1) 
0

>  <PUBCHEM_BOND_UDEF_STEREO_COUNT>  (1) 
0

>  <PUBCHEM_ISOTOPIC_ATOM_COUNT>  (1) 
0

>  <PUBCHEM_COMPONENT_COUNT>  (1) 
1

>  <PUBCHEM_CACTVS_TAUTO_COUNT>  (1) 
3

>  <PUBCHEM_CONFORMER_ID>  (1) 
0000884B00000001

>  <PUBCHEM_MMFF94_ENERGY>  (1) 
35.134

>  <PUBCHEM_FEATURE_SELFOVERLAP>  (1) 
57.728

>  <PUBCHEM_SHAPE_FINGERPRINT>  (1) 
11132069 177 18200866374886249050
12382932 28 18271801362904095274
12553582 1 18410583885051588103
12596599 1 18059866094272213750
13296908 3 18410580586527065911
14022347 108 18265067863453607531
14115302 16 17385723569225842579
14252887 29 18201727262136161882
15375358 24 18411688889947420695
15490181 8 17474960203550620464
16752209 62 18194964028548099439
16945 1 18410579482709635495
20279233 1 18410853261105296006
20645476 183 17397005460796777084
20645477 70 17981882253341916983
20711985 344 18053397508388349100
20871998 184 18197216953537467639
20871998 22 18342748420143481502
21061003 4 18336550520184086673
21524375 3 17111005941850730857
2334 1 17978511167216221026
23388829 49 18338226159004444696
23402539 116 18340192090506853726
23419403 2 15584636833593935720
23526113 38 18041545988949373859
23552423 10 18122619715657882743
23557571 272 18272366426408577188
23558518 356 17757832225674597514
23559900 14 18264477404851840498
23598291 2 18127989687587958015
23598294 1 18195539090298557634
2748010 2 18412545375161726108
34934 24 18338785771462568683
352729 6 17690277105977716805
6992083 37 18202293523688586627
7364860 26 17984421016498766133
74978 22 18341332309665784815
8030462 33 18116441349368102766
81228 2 18192717747720183008

>  <PUBCHEM_SHAPE_MULTIPOLES>  (1) 
324.42
6.45
2.84
1.5
0
1.28
0
-1.93
0
0
0
0
-0.81
0.26

>  <PUBCHEM_SHAPE_SELFOVERLAP>  (1) 
574.995

>  <PUBCHEM_SHAPE_VOLUME>  (1) 
220.2

>  <PUBCHEM_COORDINATE_TYPE>  (1) 
2
5
10

$$$$
