34890
     RDKit          3D

 14 14  0  0  0  0  0  0  0  0999 V2000
   -3.6036    0.4503   -0.9308 Br  0  0  0  0  0  0  0  0  0  0  0  0
   -2.4485    1.6058    1.8793 Br  0  0  0  0  0  0  0  0  0  0  0  0
   -1.4970    2.8447   -0.9018 Br  0  0  0  0  0  0  0  0  0  0  0  0
    2.6075   -0.1183   -0.0174 N   0  0  0  0  0  0  0  0  0  0  0  0
    0.3492    0.5127   -0.0085 N   0  0  0  0  0  0  0  0  0  0  0  0
    0.9769   -1.8033   -0.0054 N   0  0  0  0  0  0  0  0  0  0  0  0
   -1.3427   -1.1888    0.0034 N   0  0  0  0  0  0  0  0  0  0  0  0
    3.0707    1.2408   -0.0231 C   0  0  0  0  0  0  0  0  0  0  0  0
    1.2658   -0.4819   -0.0102 C   0  0  0  0  0  0  0  0  0  0  0  0
   -0.9243    0.0871   -0.0020 C   0  0  0  0  0  0  0  0  0  0  0  0
   -0.3373   -2.0789    0.0011 C   0  0  0  0  0  0  0  0  0  0  0  0
    4.5835    1.3115    0.0092 C   0  0  0  0  0  0  0  0  0  0  0  0
   -1.9813    1.1382   -0.0002 C   0  0  0  0  0  0  0  0  0  0  0  0
   -0.7190   -3.5199    0.0064 C   0  0  0  0  0  0  0  0  0  0  0  0
  1 13  1  0
  2 13  1  0
  3 13  1  0
  4  8  1  0
  4  9  1  0
  5  9  2  0
  5 10  1  0
  6  9  1  0
  6 11  2  0
  7 10  2  0
  7 11  1  0
  8 12  1  0
 10 13  1  0
 11 14  1  0
M  END
>  <PUBCHEM_COMPOUND_CID>  (1) 
34890

>  <PUBCHEM_CONFORMER_RMSD>  (1) 
0.6

>  <PUBCHEM_CONFORMER_DIVERSEORDER>  (1) 
1
9
8
2
7
11
3
5
4
6
10

>  <PUBCHEM_MMFF94_PARTIAL_CHARGES>  (1) 
14
1 -0.23
10 0.48
11 0.48
13 0.83
14 0.14
17 0.4
2 -0.23
3 -0.23
4 -0.87
5 -0.62
6 -0.62
7 -0.62
8 0.37
9 0.72

>  <PUBCHEM_EFFECTIVE_ROTOR_COUNT>  (1) 
3

>  <PUBCHEM_PHARMACOPHORE_FEATURES>  (1) 
7
1 1 hydrophobe
1 2 hydrophobe
1 3 hydrophobe
1 4 donor
4 1 2 3 13 hydrophobe
4 4 5 6 9 cation
6 5 6 7 9 10 11 rings

>  <PUBCHEM_HEAVY_ATOM_COUNT>  (1) 
14

>  <PUBCHEM_ATOM_DEF_STEREO_COUNT>  (1) 
0

>  <PUBCHEM_ATOM_UDEF_STEREO_COUNT>  (1) 
0

>  <PUBCHEM_BOND_DEF_STEREO_COUNT>  (1) 
0

>  <PUBCHEM_BOND_UDEF_STEREO_COUNT>  (1) 
0

>  <PUBCHEM_ISOTOPIC_ATOM_COUNT>  (1) 
0

>  <PUBCHEM_COMPONENT_COUNT>  (1) 
1

>  <PUBCHEM_CACTVS_TAUTO_COUNT>  (1) 
4

>  <PUBCHEM_CONFORMER_ID>  (1) 
0000884A00000001

>  <PUBCHEM_MMFF94_ENERGY>  (1) 
29.6475

>  <PUBCHEM_FEATURE_SELFOVERLAP>  (1) 
36.471

>  <PUBCHEM_SHAPE_FINGERPRINT>  (1) 
13380535 76 18413103970355867454
14648413 74 17614561436928180017
14897335 6 18409722972189951526
15309172 13 18337399257367112513
16945 1 17834397817655575091
1741750 31 18343586265579283608
18186145 218 18200038318018576668
20510252 161 18269557298231467322
20645477 56 18410857698513375024
21499 59 18409722933355865557
21524375 3 18342451513460162934
228727 97 17917700267714217913
23402539 116 18270108149319973295
23419403 2 16841063111491324491
23552423 10 17980191985957211471
23557571 272 18054799639554508702
2748010 2 18336846220240583711
3071541 12 17907296555173616958
31174 14 17545344994222143833
6333449 129 18339361975869506380
7364860 26 17834108654413013703
81228 2 18122074349084501346

>  <PUBCHEM_SHAPE_MULTIPOLES>  (1) 
286.02
5.79
3.42
1.11
5.33
2.48
-0.47
-4.48
0.26
-0.4
0.27
-1.25
-0.68
-0.19

>  <PUBCHEM_SHAPE_SELFOVERLAP>  (1) 
530.293

>  <PUBCHEM_SHAPE_VOLUME>  (1) 
185.2

>  <PUBCHEM_COORDINATE_TYPE>  (1) 
2
5
10

$$$$
