34916
     RDKit          3D

 12 12  0  0  0  0  0  0  0  0999 V2000
   -0.2847    1.2023   -0.4243 N   0  0  0  0  0  0  0  0  0  0  0  0
   -0.2381   -1.1968   -0.4068 N   0  0  0  0  0  0  0  0  0  0  0  0
   -2.2045   -0.0296    0.3204 N   0  0  0  0  0  0  0  0  0  0  0  0
   -2.2209    2.3154    0.2905 N   0  0  0  0  0  0  0  0  0  0  0  0
   -2.1300   -2.3734    0.3247 N   0  0  0  0  0  0  0  0  0  0  0  0
    2.7789    0.0651   -0.0627 C   0  0  0  0  0  0  0  0  0  0  0  0
    1.6958    0.0352   -1.1589 C   0  0  0  0  0  0  0  0  0  0  0  0
    2.5988    1.2497    0.8900 C   0  0  0  0  0  0  0  0  0  0  0  0
    2.7490   -1.2435    0.7309 C   0  0  0  0  0  0  0  0  0  0  0  0
    0.2853    0.0118   -0.6226 C   0  0  0  0  0  0  0  0  0  0  0  0
   -1.5365    1.1038    0.0513 C   0  0  0  0  0  0  0  0  0  0  0  0
   -1.4931   -1.1400    0.0675 C   0  0  0  0  0  0  0  0  0  0  0  0
  1 10  2  0
  1 11  1  0
  2 10  1  0
  2 12  2  0
  3 11  2  0
  3 12  1  0
  4 11  1  0
  5 12  1  0
  6  7  1  0
  6  8  1  0
  6  9  1  0
  7 10  1  0
M  END
>  <PUBCHEM_COMPOUND_CID>  (1) 
34916

>  <PUBCHEM_CONFORMER_RMSD>  (1) 
0.6

>  <PUBCHEM_CONFORMER_DIVERSEORDER>  (1) 
1
2

>  <PUBCHEM_MMFF94_PARTIAL_CHARGES>  (1) 
13
1 -0.62
10 0.48
11 0.72
12 0.72
2 -0.62
22 0.4
23 0.4
24 0.4
25 0.4
3 -0.62
4 -0.9
5 -0.9
7 0.14

>  <PUBCHEM_EFFECTIVE_ROTOR_COUNT>  (1) 
2

>  <PUBCHEM_PHARMACOPHORE_FEATURES>  (1) 
6
1 4 donor
1 5 donor
3 6 8 9 hydrophobe
4 1 3 4 11 cation
4 2 3 5 12 cation
6 1 2 3 10 11 12 rings

>  <PUBCHEM_HEAVY_ATOM_COUNT>  (1) 
12

>  <PUBCHEM_ATOM_DEF_STEREO_COUNT>  (1) 
0

>  <PUBCHEM_ATOM_UDEF_STEREO_COUNT>  (1) 
0

>  <PUBCHEM_BOND_DEF_STEREO_COUNT>  (1) 
0

>  <PUBCHEM_BOND_UDEF_STEREO_COUNT>  (1) 
0

>  <PUBCHEM_ISOTOPIC_ATOM_COUNT>  (1) 
0

>  <PUBCHEM_COMPONENT_COUNT>  (1) 
1

>  <PUBCHEM_CACTVS_TAUTO_COUNT>  (1) 
10

>  <PUBCHEM_CONFORMER_ID>  (1) 
0000886400000001

>  <PUBCHEM_MMFF94_ENERGY>  (1) 
29.4701

>  <PUBCHEM_FEATURE_SELFOVERLAP>  (1) 
30.489

>  <PUBCHEM_SHAPE_FINGERPRINT>  (1) 
10857977 72 18269274740907017582
12251169 10 18409164381538645512
12932764 1 18412272739485900486
15076042 46 18411416189805173634
15775835 57 18263650580307388408
16945 1 18410583880930181125
17804303 29 18266180522403784902
19973954 147 18342457066911022408
20361792 2 16081361934874925822
20645464 45 18130788919416515628
20871998 184 18272376420359794223
21040471 1 18193854655759652005
21524375 3 18053661374326486061
22445834 79 18041555841461958562
23388829 49 17623845034486844743
23402539 116 18341880871547323621
23552423 10 18042976560529007276
2748010 2 18342183271019040412
305870 269 17689717454701538825
369184 2 18412257346122638614
5084963 1 17967814903558586252
81228 2 18338248140826420123

>  <PUBCHEM_SHAPE_MULTIPOLES>  (1) 
222.05
4.31
2.08
0.91
1.58
0.08
0.09
0
-1.03
-1.49
-0.42
0.48
-0.03
0.05

>  <PUBCHEM_SHAPE_SELFOVERLAP>  (1) 
447.647

>  <PUBCHEM_SHAPE_VOLUME>  (1) 
122.4

>  <PUBCHEM_COORDINATE_TYPE>  (1) 
2
5
10

$$$$
