34918
     RDKit          3D

 23 23  0  0  0  0  0  0  0  0999 V2000
    1.4452    1.1877    0.7767 N   0  0  0  0  0  0  0  0  0  0  0  0
    1.4210   -1.2105    0.7000 N   0  0  0  0  0  0  0  0  0  0  0  0
    3.3620    2.3368    0.0663 N   0  0  0  0  0  0  0  0  0  0  0  0
    3.3145   -2.3504   -0.0837 N   0  0  0  0  0  0  0  0  0  0  0  0
    3.3684   -0.0067   -0.0187 N   0  0  0  0  0  0  0  0  0  0  0  0
   -4.1138    0.0970   -0.0773 C   0  0  0  0  0  0  0  0  0  0  0  0
   -5.5314    0.0311    0.4953 C   0  0  0  0  0  0  0  0  0  0  0  0
   -3.0221    0.0397    0.9959 C   0  0  0  0  0  0  0  0  0  0  0  0
   -6.5815    0.0684   -0.6185 C   0  0  0  0  0  0  0  0  0  0  0  0
   -1.6031    0.0307    0.4170 C   0  0  0  0  0  0  0  0  0  0  0  0
   -7.9976   -0.0364   -0.0478 C   0  0  0  0  0  0  0  0  0  0  0  0
   -0.5175   -0.0159    1.4993 C   0  0  0  0  0  0  0  0  0  0  0  0
   -9.0890    0.0266   -1.1184 C   0  0  0  0  0  0  0  0  0  0  0  0
    0.8876   -0.0127    0.9517 C   0  0  0  0  0  0  0  0  0  0  0  0
  -10.4945   -0.1485   -0.5639 C   0  0  0  0  0  0  0  0  0  0  0  0
    2.6930    1.1131    0.2860 C   0  0  0  0  0  0  0  0  0  0  0  0
    2.6703   -1.1299    0.2142 C   0  0  0  0  0  0  0  0  0  0  0  0
    4.6928    2.4109   -0.4499 C   0  0  0  0  0  0  0  0  0  0  0  0
    4.6425   -2.4182   -0.6077 C   0  0  0  0  0  0  0  0  0  0  0  0
    4.6654    2.2048   -1.9589 C   0  0  0  0  0  0  0  0  0  0  0  0
    5.2983    3.7598   -0.0851 C   0  0  0  0  0  0  0  0  0  0  0  0
    4.8439   -3.7634   -1.2927 C   0  0  0  0  0  0  0  0  0  0  0  0
    5.6456   -2.2141    0.5203 C   0  0  0  0  0  0  0  0  0  0  0  0
  1 14  2  0
  1 16  1  0
  2 14  1  0
  2 17  2  0
  3 16  1  0
  3 18  1  0
  4 17  1  0
  4 19  1  0
  5 16  2  0
  5 17  1  0
  6  7  1  0
  6  8  1  0
  7  9  1  0
  8 10  1  0
  9 11  1  0
 10 12  1  0
 11 13  1  0
 12 14  1  0
 13 15  1  0
 18 20  1  0
 18 21  1  0
 19 22  1  0
 19 23  1  0
M  END
>  <PUBCHEM_COMPOUND_CID>  (1) 
34918

>  <PUBCHEM_CONFORMER_RMSD>  (1) 
1.2

>  <PUBCHEM_CONFORMER_DIVERSEORDER>  (1) 
1
6
68
10
4
74
24
3
35
59
91
86
67
97
63
85
87
29
28
101
76
41
2
84
50
15
58
19
9
102
27
66
57
55
99
7
5
90
100
16
14
52
36
26
34
79
77
72
48
42
30
93
80
60
40
64
94
88
18
75
61
69
53
51
92
21
44
8
83
81
56
89
71
47
45
31
54
78
65
70
13
38
11
62
23
82
12
25
95
33
17
39
98
20
43
37
96
46
49
32
73
22

>  <PUBCHEM_MMFF94_PARTIAL_CHARGES>  (1) 
13
1 -0.62
12 0.14
14 0.48
16 0.72
17 0.72
18 0.37
19 0.37
2 -0.62
3 -0.87
4 -0.87
45 0.4
46 0.4
5 -0.62

>  <PUBCHEM_EFFECTIVE_ROTOR_COUNT>  (1) 
12

>  <PUBCHEM_PHARMACOPHORE_FEATURES>  (1) 
8
1 15 hydrophobe
1 3 donor
1 4 donor
3 18 20 21 hydrophobe
3 19 22 23 hydrophobe
4 1 3 5 16 cation
4 2 4 5 17 cation
6 1 2 5 14 16 17 rings

>  <PUBCHEM_HEAVY_ATOM_COUNT>  (1) 
23

>  <PUBCHEM_ATOM_DEF_STEREO_COUNT>  (1) 
0

>  <PUBCHEM_ATOM_UDEF_STEREO_COUNT>  (1) 
0

>  <PUBCHEM_BOND_DEF_STEREO_COUNT>  (1) 
0

>  <PUBCHEM_BOND_UDEF_STEREO_COUNT>  (1) 
0

>  <PUBCHEM_ISOTOPIC_ATOM_COUNT>  (1) 
0

>  <PUBCHEM_COMPONENT_COUNT>  (1) 
1

>  <PUBCHEM_CACTVS_TAUTO_COUNT>  (1) 
10

>  <PUBCHEM_CONFORMER_ID>  (1) 
0000886600000001

>  <PUBCHEM_MMFF94_ENERGY>  (1) 
34.83

>  <PUBCHEM_FEATURE_SELFOVERLAP>  (1) 
40.64

>  <PUBCHEM_SHAPE_FINGERPRINT>  (1) 
10299344 5 18060699486517448083
10411042 1 18122344585055133234
11408170 132 18409168771391497757
12730499 353 18265628739296534472
13533116 47 18272088297031912297
13540713 4 17969242181521602282
13540713 5 17844267154365121288
14170010 4 18410011027478468658
15183329 4 17418099836832568401
15510794 2 18113620110712566483
20157964 124 18408603673204757353
20554085 129 17987510585114426992
20612939 158 18410299103007582016
20721686 146 17169844490805427692
221357 26 18334574603721925865
23081809 10 17918000460495859417
23522609 53 17630915796898821089
23523766 6 18129103317169050174
25147074 1 17916323670265764744
29717793 49 18342176631384787427
3004659 81 18342735174601932731
34797466 226 18260263054160506165
4073 2 18114181986729160467
46194498 28 18335981978331043102
59682541 52 18410016524213837030
6025842 7 18412548725816205742
6327066 14 18046632476059140468
6438161 24 18341604872512120571

>  <PUBCHEM_SHAPE_MULTIPOLES>  (1) 
448.42
25.91
3.48
1.23
85.49
0.03
-0.24
0.65
-10.5
-13.47
-1.35
-0.46
-0.06
-0.08

>  <PUBCHEM_SHAPE_SELFOVERLAP>  (1) 
865.067

>  <PUBCHEM_SHAPE_VOLUME>  (1) 
266.1

>  <PUBCHEM_COORDINATE_TYPE>  (1) 
2
5
10

$$$$
