34925
     RDKit          3D

 13 13  0  0  0  0  0  0  0  0999 V2000
   -1.9605   -0.0440   -1.1821 O   0  0  0  0  0  0  0  0  0  0  0  0
    0.7618   -1.1983    0.3921 N   0  0  0  0  0  0  0  0  0  0  0  0
    0.7543    1.2012    0.3823 N   0  0  0  0  0  0  0  0  0  0  0  0
    2.7072    0.0045   -0.3332 N   0  0  0  0  0  0  0  0  0  0  0  0
    2.6841   -2.3405   -0.3143 N   0  0  0  0  0  0  0  0  0  0  0  0
    2.6697    2.3492   -0.3333 N   0  0  0  0  0  0  0  0  0  0  0  0
   -1.2067   -0.0016    1.1112 C   0  0  0  0  0  0  0  0  0  0  0  0
   -3.6984    0.0349    0.4869 C   0  0  0  0  0  0  0  0  0  0  0  0
   -2.2549   -0.0083    0.0120 C   0  0  0  0  0  0  0  0  0  0  0  0
    0.2066    0.0005    0.5910 C   0  0  0  0  0  0  0  0  0  0  0  0
   -4.6941   -0.0045   -0.6581 C   0  0  0  0  0  0  0  0  0  0  0  0
    2.0190   -1.1186   -0.0727 C   0  0  0  0  0  0  0  0  0  0  0  0
    2.0120    1.1255   -0.0819 C   0  0  0  0  0  0  0  0  0  0  0  0
  1  9  2  0
  2 10  2  0
  2 12  1  0
  3 10  1  0
  3 13  2  0
  4 12  2  0
  4 13  1  0
  5 12  1  0
  6 13  1  0
  7  9  1  0
  7 10  1  0
  8  9  1  0
  8 11  1  0
M  END
>  <PUBCHEM_COMPOUND_CID>  (1) 
34925

>  <PUBCHEM_CONFORMER_RMSD>  (1) 
0.6

>  <PUBCHEM_CONFORMER_DIVERSEORDER>  (1) 
1
18
14
11
6
17
10
12
16
21
20
4
13
7
9
2
8
19
5
3
15

>  <PUBCHEM_MMFF94_PARTIAL_CHARGES>  (1) 
16
1 -0.57
10 0.48
12 0.72
13 0.72
2 -0.62
21 0.4
22 0.4
23 0.4
24 0.4
3 -0.62
4 -0.62
5 -0.9
6 -0.9
7 0.2
8 0.06
9 0.45

>  <PUBCHEM_EFFECTIVE_ROTOR_COUNT>  (1) 
3

>  <PUBCHEM_PHARMACOPHORE_FEATURES>  (1) 
7
1 1 acceptor
1 11 hydrophobe
1 5 donor
1 6 donor
4 2 4 5 12 cation
4 3 4 6 13 cation
6 2 3 4 10 12 13 rings

>  <PUBCHEM_HEAVY_ATOM_COUNT>  (1) 
13

>  <PUBCHEM_ATOM_DEF_STEREO_COUNT>  (1) 
0

>  <PUBCHEM_ATOM_UDEF_STEREO_COUNT>  (1) 
0

>  <PUBCHEM_BOND_DEF_STEREO_COUNT>  (1) 
0

>  <PUBCHEM_BOND_UDEF_STEREO_COUNT>  (1) 
0

>  <PUBCHEM_ISOTOPIC_ATOM_COUNT>  (1) 
0

>  <PUBCHEM_COMPONENT_COUNT>  (1) 
1

>  <PUBCHEM_CACTVS_TAUTO_COUNT>  (1) 
25

>  <PUBCHEM_CONFORMER_ID>  (1) 
0000886D00000001

>  <PUBCHEM_MMFF94_ENERGY>  (1) 
27.5575

>  <PUBCHEM_FEATURE_SELFOVERLAP>  (1) 
35.564

>  <PUBCHEM_SHAPE_FINGERPRINT>  (1) 
11031198 65 18337116768778054893
11471102 20 18408885131001507660
11543360 7 18339070593036246831
12932764 1 17489866064056575961
14251717 144 18411980256444934047
15219456 202 18115034111796688331
15477762 27 18340769251953312438
15775835 57 18270683189606384605
16945 1 18338530689566028002
170605 34 18114740542107786409
18186145 218 17821730499137662849
19422 9 18202567263645377571
20201158 50 18333735701697626642
20606313 2 18335420179360382248
20645476 183 17917710266260803663
20645477 70 18410854343969889127
20671657 53 18195249918909575614
20820808 20 18340769363648790712
21499 59 18194684993229006668
21947302 44 18186801404631618384
22096605 113 18337673121746066745
22802520 49 18043239159177608941
228727 97 17632031839074652737
23402539 116 17313373573903911343
23402655 69 18411698777489773845
23557571 272 17168722949656613675
23598291 2 17986974967208821640
25 1 18336550524627019496
2748010 2 17978251653077188440
522135 26 18342455933303062503
77492 1 17703520921492651713
8030462 33 17917438643696450673
81539 233 18188491392853368396

>  <PUBCHEM_SHAPE_MULTIPOLES>  (1) 
236.76
6.68
1.71
0.9
7.05
0.01
-0.02
0
1.51
-2.64
0.2
0.48
0
-0.02

>  <PUBCHEM_SHAPE_SELFOVERLAP>  (1) 
480.498

>  <PUBCHEM_SHAPE_VOLUME>  (1) 
134.4

>  <PUBCHEM_COORDINATE_TYPE>  (1) 
2
5
10

$$$$
