34936
     RDKit          3D

 15 15  0  0  0  0  0  0  0  0999 V2000
   -1.6694    2.3570    0.0016 O   0  0  0  0  0  0  0  0  0  0  0  0
    1.6690    2.3574   -0.0003 O   0  0  0  0  0  0  0  0  0  0  0  0
   -2.3373    0.0979    0.0010 N   0  0  0  0  0  0  0  0  0  0  0  0
    2.3368    0.0982   -0.0015 N   0  0  0  0  0  0  0  0  0  0  0  0
   -0.0001    0.1338    0.0008 N   0  0  0  0  0  0  0  0  0  0  0  0
    1.2000   -1.9441   -0.0006 N   0  0  0  0  0  0  0  0  0  0  0  0
   -1.1996   -1.9444    0.0008 N   0  0  0  0  0  0  0  0  0  0  0  0
   -1.1221   -0.6038    0.0011 C   0  0  0  0  0  0  0  0  0  0  0  0
    1.1221   -0.6035   -0.0002 C   0  0  0  0  0  0  0  0  0  0  0  0
    0.0004   -2.5473   -0.0001 C   0  0  0  0  0  0  0  0  0  0  0  0
    0.0008   -4.0380   -0.0003 C   0  0  0  0  0  0  0  0  0  0  0  0
   -2.5282    1.4811    0.0013 C   0  0  0  0  0  0  0  0  0  0  0  0
    2.5280    1.4816   -0.0015 C   0  0  0  0  0  0  0  0  0  0  0  0
   -3.9938    1.8367   -0.0034 C   0  0  0  0  0  0  0  0  0  0  0  0
    3.9935    1.8375    0.0014 C   0  0  0  0  0  0  0  0  0  0  0  0
  1 12  2  0
  2 13  2  0
  3  8  1  0
  3 12  1  0
  4  9  1  0
  4 13  1  0
  5  8  2  0
  5  9  1  0
  6  9  2  0
  6 10  1  0
  7  8  1  0
  7 10  2  0
 10 11  1  0
 12 14  1  0
 13 15  1  0
M  END
>  <PUBCHEM_COMPOUND_CID>  (1) 
34936

>  <PUBCHEM_CONFORMER_RMSD>  (1) 
0.6

>  <PUBCHEM_CONFORMER_DIVERSEORDER>  (1) 
1
5
6
10
9
14
7
2
8
11
13
15
12
4
3

>  <PUBCHEM_MMFF94_PARTIAL_CHARGES>  (1) 
17
1 -0.57
10 0.48
11 0.14
12 0.57
13 0.57
14 0.06
15 0.06
16 0.37
17 0.37
2 -0.57
3 -0.55
4 -0.55
5 -0.62
6 -0.62
7 -0.62
8 0.74
9 0.74

>  <PUBCHEM_EFFECTIVE_ROTOR_COUNT>  (1) 
4

>  <PUBCHEM_PHARMACOPHORE_FEATURES>  (1) 
6
1 1 acceptor
1 2 acceptor
1 3 donor
1 4 donor
3 6 7 10 cation
6 5 6 7 8 9 10 rings

>  <PUBCHEM_HEAVY_ATOM_COUNT>  (1) 
15

>  <PUBCHEM_ATOM_DEF_STEREO_COUNT>  (1) 
0

>  <PUBCHEM_ATOM_UDEF_STEREO_COUNT>  (1) 
0

>  <PUBCHEM_BOND_DEF_STEREO_COUNT>  (1) 
0

>  <PUBCHEM_BOND_UDEF_STEREO_COUNT>  (1) 
0

>  <PUBCHEM_ISOTOPIC_ATOM_COUNT>  (1) 
0

>  <PUBCHEM_COMPONENT_COUNT>  (1) 
1

>  <PUBCHEM_CACTVS_TAUTO_COUNT>  (1) 
10

>  <PUBCHEM_CONFORMER_ID>  (1) 
0000887800000001

>  <PUBCHEM_MMFF94_ENERGY>  (1) 
31.2728

>  <PUBCHEM_FEATURE_SELFOVERLAP>  (1) 
30.446

>  <PUBCHEM_SHAPE_FINGERPRINT>  (1) 
1 1 18338517409073617527
10967382 1 18194683661572503237
13380535 76 18410570690911593569
13618510 140 18411136909346209321
138480 1 17762336911923678752
14648413 74 18120659024432449267
15042514 8 17976825607465092474
16945 1 18122626054971680135
20510252 161 18198065982683064752
20559304 39 18050286960107902193
20671657 1 18196658380361455903
21499 59 18409440371900388437
21524375 3 18333725836157546224
21639500 275 18120639254798336173
2306618 200 17912096241530622818
23402539 116 17983289623450279495
23557571 272 17912379915610203668
2748010 2 18337123314255479535
305870 269 18408319965071873432
3071541 12 18196094330769994510
3091708 16 9265028675608878434
4175511 71 17259915018050875113
54173680 148 17977947109583198048
7364860 26 18123189004735002551
81228 2 17907868653249363698

>  <PUBCHEM_SHAPE_MULTIPOLES>  (1) 
272.05
5.24
4.23
0.57
0
3.9
0
-6.36
0
0
0
0
0.01
0

>  <PUBCHEM_SHAPE_SELFOVERLAP>  (1) 
553.385

>  <PUBCHEM_SHAPE_VOLUME>  (1) 
153.9

>  <PUBCHEM_COORDINATE_TYPE>  (1) 
2
5
10

$$$$
