34932
     RDKit          3D

 25 27  0  0  0  0  0  0  0  0999 V2000
    0.3466    3.3214   -1.2095 Cl  0  0  0  0  0  0  0  0  0  0  0  0
    5.8617   -0.3977   -0.8715 Cl  0  0  0  0  0  0  0  0  0  0  0  0
   -1.7712    5.4058    0.0721 Cl  0  0  0  0  0  0  0  0  0  0  0  0
    4.8315    2.3502    0.4926 Cl  0  0  0  0  0  0  0  0  0  0  0  0
   -2.6830   -5.3362   -0.1257 Cl  0  0  0  0  0  0  0  0  0  0  0  0
   -2.9703   -0.3969   -0.0970 N   0  0  0  0  0  0  0  0  0  0  0  0
    1.2725   -2.3792    0.1678 N   0  0  0  0  0  0  0  0  0  0  0  0
   -0.8352   -1.3585    0.0367 N   0  0  0  0  0  0  0  0  0  0  0  0
   -0.6249   -3.7489    0.0261 N   0  0  0  0  0  0  0  0  0  0  0  0
   -2.7953   -2.7348   -0.1094 N   0  0  0  0  0  0  0  0  0  0  0  0
   -2.6707    0.9808   -0.0634 C   0  0  0  0  0  0  0  0  0  0  0  0
    2.1292   -1.2647    0.2380 C   0  0  0  0  0  0  0  0  0  0  0  0
   -2.1627   -1.5500   -0.0546 C   0  0  0  0  0  0  0  0  0  0  0  0
   -0.1307   -2.5011    0.0721 C   0  0  0  0  0  0  0  0  0  0  0  0
   -1.4624    1.4451   -0.5830 C   0  0  0  0  0  0  0  0  0  0  0  0
    3.4234   -1.3419   -0.2805 C   0  0  0  0  0  0  0  0  0  0  0  0
   -3.5835    1.8794    0.4893 C   0  0  0  0  0  0  0  0  0  0  0  0
    1.6872   -0.0780    0.8264 C   0  0  0  0  0  0  0  0  0  0  0  0
   -1.1667    2.8079   -0.5498 C   0  0  0  0  0  0  0  0  0  0  0  0
    4.2721   -0.2369   -0.2109 C   0  0  0  0  0  0  0  0  0  0  0  0
   -3.2878    3.2420    0.5225 C   0  0  0  0  0  0  0  0  0  0  0  0
    2.5357    1.0268    0.8960 C   0  0  0  0  0  0  0  0  0  0  0  0
   -2.0795    3.7064    0.0028 C   0  0  0  0  0  0  0  0  0  0  0  0
    3.8280    0.9475    0.3773 C   0  0  0  0  0  0  0  0  0  0  0  0
   -1.9639   -3.7883   -0.0645 C   0  0  0  0  0  0  0  0  0  0  0  0
  1 19  1  0
  2 20  1  0
  3 23  1  0
  4 24  1  0
  5 25  1  0
  6 11  1  0
  6 13  1  0
  7 12  1  0
  7 14  1  0
  8 13  2  0
  8 14  1  0
  9 14  2  0
  9 25  1  0
 10 13  1  0
 10 25  2  0
 11 15  2  0
 11 17  1  0
 12 16  2  0
 12 18  1  0
 15 19  1  0
 16 20  1  0
 17 21  2  0
 18 22  2  0
 19 23  2  0
 20 24  2  0
 21 23  1  0
 22 24  1  0
M  END
>  <PUBCHEM_COMPOUND_CID>  (1) 
34932

>  <PUBCHEM_CONFORMER_RMSD>  (1) 
0.8

>  <PUBCHEM_CONFORMER_DIVERSEORDER>  (1) 
1
81
13
90
103
20
78
96
67
84
10
89
59
50
35
55
12
76
3
83
54
82
65
94
2
80
63
11
100
21
34
66
98
40
29
18
101
93
48
99
42
23
24
19
79
114
68
73
15
111
60
91
74
97
104
75
25
38
71
64
28
77
33
26
70
17
85
30
57
61
110
47
14
58
16
43
95
72
113
62
112
31
52
36
39
105
32
86
46
44
53
45
51
37
107
49
87
4
27
102
109
22
88
56
106
41
7
108
5
92
69
6
8
9

>  <PUBCHEM_MMFF94_PARTIAL_CHARGES>  (1) 
33
1 -0.18
10 -0.62
11 0.1
12 0.1
13 0.72
14 0.72
15 -0.15
16 -0.15
17 -0.15
18 -0.15
19 0.18
2 -0.18
20 0.18
21 -0.15
22 -0.15
23 0.18
24 0.18
25 0.8
26 0.4
27 0.4
28 0.15
29 0.15
3 -0.18
30 0.15
31 0.15
32 0.15
33 0.15
4 -0.18
5 -0.18
6 -0.6
7 -0.6
8 -0.62
9 -0.62

>  <PUBCHEM_EFFECTIVE_ROTOR_COUNT>  (1) 
4

>  <PUBCHEM_PHARMACOPHORE_FEATURES>  (1) 
7
1 6 donor
1 7 donor
4 6 8 10 13 cation
4 7 8 9 14 cation
6 11 15 17 19 21 23 rings
6 12 16 18 20 22 24 rings
6 8 9 10 13 14 25 rings

>  <PUBCHEM_HEAVY_ATOM_COUNT>  (1) 
25

>  <PUBCHEM_ATOM_DEF_STEREO_COUNT>  (1) 
0

>  <PUBCHEM_ATOM_UDEF_STEREO_COUNT>  (1) 
0

>  <PUBCHEM_BOND_DEF_STEREO_COUNT>  (1) 
0

>  <PUBCHEM_BOND_UDEF_STEREO_COUNT>  (1) 
0

>  <PUBCHEM_ISOTOPIC_ATOM_COUNT>  (1) 
0

>  <PUBCHEM_COMPONENT_COUNT>  (1) 
1

>  <PUBCHEM_CACTVS_TAUTO_COUNT>  (1) 
5

>  <PUBCHEM_CONFORMER_ID>  (1) 
0000887400000001

>  <PUBCHEM_MMFF94_ENERGY>  (1) 
79.4876

>  <PUBCHEM_FEATURE_SELFOVERLAP>  (1) 
35.564

>  <PUBCHEM_SHAPE_FINGERPRINT>  (1) 
10006869 2 18334571301335765635
10165383 225 18196661695960664192
10411042 1 18050288373031706678
10498660 4 18335410283755479134
10871710 139 18339919325665518085
1100329 8 18193276519387434155
11014199 57 18194125346105065646
11211813 163 18192452796642749158
12173636 292 18338791191859229909
13140716 1 17977387458265081955
138480 1 16753811958858309331
13911987 19 18262222328088846437
14114211 80 18053405217833884024
14363568 33 17038401341004168954
14466204 15 17544749032860389818
14790565 3 18050294669912165908
14955137 171 18047205321437682131
151778 21 17762058739856239032
15230672 131 18120664522772271574
15400415 2 18122626055310303640
15961568 22 17907014337769171628
18336668 15 17464803954826899012
18785283 64 17328307939939083289
19591789 44 18194683652971960712
19611394 137 16889482391507635802
19930381 70 17545317480456241721
20101258 96 18120107318329538299
21033650 10 18117588243734738086
21133410 127 17176603953132999924
23559900 14 17690267640213168587
238 59 17108154955618336293
23845131 108 18192155889505788459
469060 322 16732699475789193343
5048184 11 18123468284931171144
508706 21 18342447150089778040
5283173 99 18413390943634359624
6287921 2 18335430041154485660
6371009 1 18049135801287310745
6700243 42 17696514936817782950
7399639 24 17841985887212937898
7808743 9 18409452453827767728
9981440 41 18120932807122778747

>  <PUBCHEM_SHAPE_MULTIPOLES>  (1) 
498.93
8.63
7.62
0.84
12.31
2.51
0.06
-3.04
0.15
-9.86
0.42
0.33
-0.39
0.06

>  <PUBCHEM_SHAPE_SELFOVERLAP>  (1) 
1035.162

>  <PUBCHEM_SHAPE_VOLUME>  (1) 
281.9

>  <PUBCHEM_COORDINATE_TYPE>  (1) 
2
5
10

$$$$
