34933
     RDKit          3D

 29 33  0  0  0  0  0  0  0  0999 V2000
   -1.1634    6.0578    0.2927 Cl  0  0  0  0  0  0  0  0  0  0  0  0
   -2.2723    1.2824   -0.3730 N   0  0  0  0  0  0  0  0  0  0  0  0
    2.2333    2.4619    0.1841 N   0  0  0  0  0  0  0  0  0  0  0  0
   -0.0110    1.8409   -0.0973 N   0  0  0  0  0  0  0  0  0  0  0  0
   -1.7088    3.5360   -0.0565 N   0  0  0  0  0  0  0  0  0  0  0  0
    0.5961    4.1394    0.2284 N   0  0  0  0  0  0  0  0  0  0  0  0
   -3.2587   -0.9594   -0.1196 C   0  0  0  0  0  0  0  0  0  0  0  0
   -3.1422   -2.3582   -0.2998 C   0  0  0  0  0  0  0  0  0  0  0  0
   -2.2076   -0.1148   -0.5296 C   0  0  0  0  0  0  0  0  0  0  0  0
    2.8853   -1.1917    0.4373 C   0  0  0  0  0  0  0  0  0  0  0  0
    4.2052   -1.2595   -0.0688 C   0  0  0  0  0  0  0  0  0  0  0  0
    2.8917    1.2175    0.0986 C   0  0  0  0  0  0  0  0  0  0  0  0
    2.2424    0.0547    0.5141 C   0  0  0  0  0  0  0  0  0  0  0  0
   -4.4236   -0.4369    0.4657 C   0  0  0  0  0  0  0  0  0  0  0  0
   -1.9774   -2.8804   -0.8854 C   0  0  0  0  0  0  0  0  0  0  0  0
   -1.0570   -0.6600   -1.1105 C   0  0  0  0  0  0  0  0  0  0  0  0
    4.8435   -0.0791   -0.4828 C   0  0  0  0  0  0  0  0  0  0  0  0
   -4.1937   -3.1936    0.1113 C   0  0  0  0  0  0  0  0  0  0  0  0
    4.1897    1.1506   -0.3989 C   0  0  0  0  0  0  0  0  0  0  0  0
   -0.9425   -2.0355   -1.2875 C   0  0  0  0  0  0  0  0  0  0  0  0
    2.2467   -2.3721    0.8509 C   0  0  0  0  0  0  0  0  0  0  0  0
    4.8479   -2.5059   -0.1456 C   0  0  0  0  0  0  0  0  0  0  0  0
   -5.4584   -1.2817    0.8682 C   0  0  0  0  0  0  0  0  0  0  0  0
   -5.3436   -2.6573    0.6915 C   0  0  0  0  0  0  0  0  0  0  0  0
   -1.2823    2.2674   -0.1656 C   0  0  0  0  0  0  0  0  0  0  0  0
    2.9004   -3.6019    0.7675 C   0  0  0  0  0  0  0  0  0  0  0  0
    4.1985   -3.6686    0.2704 C   0  0  0  0  0  0  0  0  0  0  0  0
    0.8766    2.8308    0.1011 C   0  0  0  0  0  0  0  0  0  0  0  0
   -0.7146    4.4171    0.1391 C   0  0  0  0  0  0  0  0  0  0  0  0
  1 29  1  0
  2  9  1  0
  2 25  1  0
  3 12  1  0
  3 28  1  0
  4 25  2  0
  4 28  1  0
  5 25  1  0
  5 29  2  0
  6 28  2  0
  6 29  1  0
  7  8  1  0
  7  9  1  0
  7 14  2  0
  8 15  1  0
  8 18  2  0
  9 16  2  0
 10 11  1  0
 10 13  2  0
 10 21  1  0
 11 17  2  0
 11 22  1  0
 12 13  1  0
 12 19  2  0
 14 23  1  0
 15 20  2  0
 16 20  1  0
 17 19  1  0
 18 24  1  0
 21 26  2  0
 22 27  2  0
 23 24  2  0
 26 27  1  0
M  END
>  <PUBCHEM_COMPOUND_CID>  (1) 
34933

>  <PUBCHEM_CONFORMER_RMSD>  (1) 
0.8

>  <PUBCHEM_CONFORMER_DIVERSEORDER>  (1) 
1
88
167
23
192
123
112
126
7
230
175
6
199
99
161
223
32
78
108
76
180
8
113
160
16
132
26
173
221
19
128
225
91
140
164
134
189
40
222
165
215
155
62
51
162
214
13
69
95
150
227
104
143
33
148
39
17
71
210
169
24
116
131
235
228
59
89
119
74
232
198
109
100
206
96
231
196
68
200
174
75
55
234
18
101
194
11
159
111
224
170
163
211
137
15
9
53
172
97
81
90
60
52
106
233
135
73
130
46
105
85
139
168
115
136
152
218
25
117
216
57
118
144
193
220
146
207
47
176
156
153
82
102
56
10
195
178
229
66
86
48
92
93
28
42
184
38
70
203
219
179
41
141
186
79
151
183
125
212
171
107
191
209
34
77
50
208
83
204
190
149
129
103
133
72
226
121
84
114
29
110
205
181
98
87
177
67
12
217
63
201
188
49
64
94
21
43
202
30
27
20
54
197
138
166
58
145
22
122
31
35
154
37
61
127
182
158
142
14
147
5
44
4
36
157
80
120
2
187
213
45
124
65
3
185

>  <PUBCHEM_MMFF94_PARTIAL_CHARGES>  (1) 
41
1 -0.18
12 0.1
13 -0.15
14 -0.15
15 -0.15
16 -0.15
17 -0.15
18 -0.15
19 -0.15
2 -0.6
20 -0.15
21 -0.15
22 -0.15
23 -0.15
24 -0.15
25 0.72
26 -0.15
27 -0.15
28 0.72
29 0.8
3 -0.6
30 0.15
31 0.15
32 0.15
33 0.15
34 0.15
35 0.15
36 0.15
37 0.4
38 0.15
39 0.15
4 -0.62
40 0.15
41 0.4
42 0.15
43 0.15
44 0.15
45 0.15
5 -0.62
6 -0.62
9 0.1

>  <PUBCHEM_EFFECTIVE_ROTOR_COUNT>  (1) 
4

>  <PUBCHEM_PHARMACOPHORE_FEATURES>  (1) 
9
1 2 donor
1 3 donor
4 2 4 5 25 cation
4 3 4 6 28 cation
6 10 11 12 13 17 19 rings
6 10 11 21 22 26 27 rings
6 4 5 6 25 28 29 rings
6 7 8 14 18 23 24 rings
6 7 8 9 15 16 20 rings

>  <PUBCHEM_HEAVY_ATOM_COUNT>  (1) 
29

>  <PUBCHEM_ATOM_DEF_STEREO_COUNT>  (1) 
0

>  <PUBCHEM_ATOM_UDEF_STEREO_COUNT>  (1) 
0

>  <PUBCHEM_BOND_DEF_STEREO_COUNT>  (1) 
0

>  <PUBCHEM_BOND_UDEF_STEREO_COUNT>  (1) 
0

>  <PUBCHEM_ISOTOPIC_ATOM_COUNT>  (1) 
0

>  <PUBCHEM_COMPONENT_COUNT>  (1) 
1

>  <PUBCHEM_CACTVS_TAUTO_COUNT>  (1) 
9

>  <PUBCHEM_CONFORMER_ID>  (1) 
0000887500000001

>  <PUBCHEM_MMFF94_ENERGY>  (1) 
107.5369

>  <PUBCHEM_FEATURE_SELFOVERLAP>  (1) 
45.769

>  <PUBCHEM_SHAPE_FINGERPRINT>  (1) 
11014199 57 18336828585463354474
11578080 2 17772445955759363728
12107183 9 18341909502205533377
12553582 1 18339348773108435542
12788726 201 18261952938327381586
13140716 1 18268431235326987129
13583140 156 18191859231651323319
1361 2 18049721025110629579
13726171 33 17985570874645977956
13785724 45 18341347647015370639
138480 1 15096768663440931892
14394314 77 18339650030768276457
14790565 3 17472984381261963597
14863182 85 18048313646333139364
14866123 147 18051974715020881961
15320294 125 16744518921473634322
15320467 1 17977948213100324995
15400415 2 17185876641664667769
15664445 248 18125456438514696740
15927050 60 17042895057811681526
16719943 64 17402605252032037266
17492 89 18337390418889133994
17909252 39 18342181025653815666
19319366 153 18117281565583797582
19930381 70 18192989541835255827
20775530 9 18334848399149528798
21133410 171 17469547011402790275
21133410 38 16900481918221852099
23559900 14 18193268822838032795
3117164 225 18339371855085721387
3737641 26 18410296925739016706
44880168 125 17274826805485742534
463206 1 18263647444876098458
508706 21 17910960132186201054
5309563 4 18339080496482082799
613672 6 18266432417386469752
6422251 121 18259983777690827451
7097593 13 18124874814059101543
79837 15 17692812592707938593
86090 222 17096935887309631203
9961470 85 17258764933431946794

>  <PUBCHEM_SHAPE_MULTIPOLES>  (1) 
573.77
10.52
7.27
0.89
0.92
10.49
0.08
-11.83
-1.53
1.44
-0.95
0.23
-0.44
-0.37

>  <PUBCHEM_SHAPE_SELFOVERLAP>  (1) 
1280.286

>  <PUBCHEM_SHAPE_VOLUME>  (1) 
299.2

>  <PUBCHEM_COORDINATE_TYPE>  (1) 
2
5
10

$$$$
