34940
     RDKit          3D

 14 14  0  0  0  0  0  0  0  0999 V2000
   -3.2847   -0.6663   -0.0037 F   0  0  0  0  0  0  0  0  0  0  0  0
   -1.9537   -1.9958   -1.0831 F   0  0  0  0  0  0  0  0  0  0  0  0
   -1.9400   -1.9783    1.0913 F   0  0  0  0  0  0  0  0  0  0  0  0
    2.5732    0.1075    0.0088 N   0  0  0  0  0  0  0  0  0  0  0  0
    0.3166   -0.5305    0.0020 N   0  0  0  0  0  0  0  0  0  0  0  0
    0.9371    1.7874    0.0013 N   0  0  0  0  0  0  0  0  0  0  0  0
   -1.3805    1.1658   -0.0041 N   0  0  0  0  0  0  0  0  0  0  0  0
   -0.7439    3.4228   -0.0031 N   0  0  0  0  0  0  0  0  0  0  0  0
    3.0405   -1.2502    0.0134 C   0  0  0  0  0  0  0  0  0  0  0  0
    1.2303    0.4670    0.0032 C   0  0  0  0  0  0  0  0  0  0  0  0
   -0.9583   -0.1088   -0.0017 C   0  0  0  0  0  0  0  0  0  0  0  0
    4.5534   -1.3163   -0.0205 C   0  0  0  0  0  0  0  0  0  0  0  0
   -0.3779    2.0591   -0.0027 C   0  0  0  0  0  0  0  0  0  0  0  0
   -2.0121   -1.1633   -0.0013 C   0  0  0  0  0  0  0  0  0  0  0  0
  1 14  1  0
  2 14  1  0
  3 14  1  0
  4  9  1  0
  4 10  1  0
  5 10  2  0
  5 11  1  0
  6 10  1  0
  6 13  2  0
  7 11  2  0
  7 13  1  0
  8 13  1  0
  9 12  1  0
 11 14  1  0
M  END
>  <PUBCHEM_COMPOUND_CID>  (1) 
34940

>  <PUBCHEM_CONFORMER_RMSD>  (1) 
0.6

>  <PUBCHEM_CONFORMER_DIVERSEORDER>  (1) 
1
2
3
5
4

>  <PUBCHEM_MMFF94_PARTIAL_CHARGES>  (1) 
16
1 -0.34
10 0.72
11 0.48
13 0.72
14 1.16
17 0.4
2 -0.34
21 0.4
22 0.4
3 -0.34
4 -0.87
5 -0.62
6 -0.62
7 -0.62
8 -0.9
9 0.37

>  <PUBCHEM_EFFECTIVE_ROTOR_COUNT>  (1) 
3

>  <PUBCHEM_PHARMACOPHORE_FEATURES>  (1) 
5
1 4 donor
1 8 donor
4 4 5 6 10 cation
4 6 7 8 13 cation
6 5 6 7 10 11 13 rings

>  <PUBCHEM_HEAVY_ATOM_COUNT>  (1) 
14

>  <PUBCHEM_ATOM_DEF_STEREO_COUNT>  (1) 
0

>  <PUBCHEM_ATOM_UDEF_STEREO_COUNT>  (1) 
0

>  <PUBCHEM_BOND_DEF_STEREO_COUNT>  (1) 
0

>  <PUBCHEM_BOND_UDEF_STEREO_COUNT>  (1) 
0

>  <PUBCHEM_ISOTOPIC_ATOM_COUNT>  (1) 
0

>  <PUBCHEM_COMPONENT_COUNT>  (1) 
1

>  <PUBCHEM_CACTVS_TAUTO_COUNT>  (1) 
9

>  <PUBCHEM_CONFORMER_ID>  (1) 
0000887C00000001

>  <PUBCHEM_MMFF94_ENERGY>  (1) 
26.6917

>  <PUBCHEM_FEATURE_SELFOVERLAP>  (1) 
25.414

>  <PUBCHEM_SHAPE_FINGERPRINT>  (1) 
1 1 17401208270679164029
11357001 24 18264211318210039168
15669948 3 18264766550524142602
16945 1 18266458707045124176
17841504 4 18120381109873071515
17990270 104 18048874392524505115
20524608 308 18124876759642278644
20645477 70 17760071214181918951
20711985 344 18264476317607845296
20711985 365 18409730621252561612
20871998 184 18200312109119342990
20871998 22 18338797943552691128
23402539 116 18200864077073555573
23552423 10 17764590211028798303
23557571 272 18199759055419333708
23559900 14 17910950246237277218
2748010 2 18339632451329788852
7364860 26 17979637062844200016
81228 2 18336828589415560600

>  <PUBCHEM_SHAPE_MULTIPOLES>  (1) 
241.39
5.33
2.84
0.69
6.84
1.83
0
-3.48
-0.02
-2.06
-0.01
-0.19
-0.28
0

>  <PUBCHEM_SHAPE_SELFOVERLAP>  (1) 
494.483

>  <PUBCHEM_SHAPE_VOLUME>  (1) 
139.2

>  <PUBCHEM_COORDINATE_TYPE>  (1) 
2
5
10

$$$$
