34947
     RDKit          3D

 17 18  0  0  0  0  0  0  0  0999 V2000
    1.7924    2.9711    1.2678 Cl  0  0  0  0  0  0  0  0  0  0  0  0
    1.7641    2.7981   -1.6535 Cl  0  0  0  0  0  0  0  0  0  0  0  0
   -0.8232   -1.4296    0.0945 N   0  0  0  0  0  0  0  0  0  0  0  0
    0.7526    0.3027   -0.0284 N   0  0  0  0  0  0  0  0  0  0  0  0
    1.4544   -1.9882    0.1026 N   0  0  0  0  0  0  0  0  0  0  0  0
    3.0905   -0.2374   -0.0204 N   0  0  0  0  0  0  0  0  0  0  0  0
    3.7463   -2.4850    0.1101 N   0  0  0  0  0  0  0  0  0  0  0  0
   -2.0400   -0.7169    0.0654 C   0  0  0  0  0  0  0  0  0  0  0  0
    0.5235   -1.0195    0.0537 C   0  0  0  0  0  0  0  0  0  0  0  0
   -3.1772   -1.3016   -0.4917 C   0  0  0  0  0  0  0  0  0  0  0  0
   -2.1066    0.5720    0.5945 C   0  0  0  0  0  0  0  0  0  0  0  0
    2.0571    0.6191   -0.0613 C   0  0  0  0  0  0  0  0  0  0  0  0
   -4.3811   -0.5977   -0.5197 C   0  0  0  0  0  0  0  0  0  0  0  0
   -3.3105    1.2760    0.5664 C   0  0  0  0  0  0  0  0  0  0  0  0
   -4.4478    0.6912    0.0094 C   0  0  0  0  0  0  0  0  0  0  0  0
    2.7135   -1.5234    0.0610 C   0  0  0  0  0  0  0  0  0  0  0  0
    2.3922    2.0691   -0.1504 C   0  0  0  0  0  0  0  0  0  0  0  0
  1 17  1  0
  2 17  1  0
  3  8  1  0
  3  9  1  0
  4  9  2  0
  4 12  1  0
  5  9  1  0
  5 16  2  0
  6 12  2  0
  6 16  1  0
  7 16  1  0
  8 10  2  0
  8 11  1  0
 10 13  1  0
 11 14  2  0
 12 17  1  0
 13 15  2  0
 14 15  1  0
M  END
>  <PUBCHEM_COMPOUND_CID>  (1) 
34947

>  <PUBCHEM_CONFORMER_RMSD>  (1) 
0.6

>  <PUBCHEM_CONFORMER_DIVERSEORDER>  (1) 
1
20
9
31
10
5
30
4
29
24
22
17
13
14
18
28
26
11
15
19
16
32
7
25
6
23
27
3
8
12
2
21

>  <PUBCHEM_MMFF94_PARTIAL_CHARGES>  (1) 
25
1 -0.29
10 -0.15
11 -0.15
12 0.48
13 -0.15
14 -0.15
15 -0.15
16 0.72
17 0.72
18 0.4
19 0.15
2 -0.29
20 0.15
21 0.15
22 0.15
23 0.15
25 0.4
26 0.4
3 -0.6
4 -0.62
5 -0.62
6 -0.62
7 -0.9
8 0.1
9 0.72

>  <PUBCHEM_EFFECTIVE_ROTOR_COUNT>  (1) 
3

>  <PUBCHEM_PHARMACOPHORE_FEATURES>  (1) 
6
1 3 donor
1 7 donor
4 3 4 5 9 cation
4 5 6 7 16 cation
6 4 5 6 9 12 16 rings
6 8 10 11 13 14 15 rings

>  <PUBCHEM_HEAVY_ATOM_COUNT>  (1) 
17

>  <PUBCHEM_ATOM_DEF_STEREO_COUNT>  (1) 
0

>  <PUBCHEM_ATOM_UDEF_STEREO_COUNT>  (1) 
0

>  <PUBCHEM_BOND_DEF_STEREO_COUNT>  (1) 
0

>  <PUBCHEM_BOND_UDEF_STEREO_COUNT>  (1) 
0

>  <PUBCHEM_ISOTOPIC_ATOM_COUNT>  (1) 
0

>  <PUBCHEM_COMPONENT_COUNT>  (1) 
1

>  <PUBCHEM_CACTVS_TAUTO_COUNT>  (1) 
9

>  <PUBCHEM_CONFORMER_ID>  (1) 
0000888300000001

>  <PUBCHEM_MMFF94_ENERGY>  (1) 
51.5501

>  <PUBCHEM_FEATURE_SELFOVERLAP>  (1) 
30.489

>  <PUBCHEM_SHAPE_FINGERPRINT>  (1) 
10608611 8 18410008870956505883
11471102 20 18408601435600863406
116883 192 17768540391346285070
12162725 195 18342458127862786055
13134695 92 18272362045262379812
14250199 8 18409168822582328223
15442244 35 18340488850554544771
15536298 74 18343018899845593819
17492 89 18412261778825339687
17802600 8 18409724032973046557
18186145 218 18040146315021257763
192875 21 18059003995873009561
19591789 44 15532509554034984975
20559304 39 18342738537439609672
20671657 1 18341051903592585788
21267235 1 18341339898847006163
21478907 32 17688589360393916706
21524375 3 18195529418200972868
21639500 275 18339348760292105597
22094290 62 18412265034050866411
221490 88 18337679701567749795
2255824 54 18333734628203845694
22854114 111 18410013268802673809
23402539 116 18057313986034043399
23419403 2 17698125540874040448
23557571 272 15195297386812582577
23558518 356 17900254505452725626
23559900 14 18342167873788507667
312423 11 18271258187396745075
3286 77 18409444774041211887
4409770 3 17323223823846936508
474 4 18114743866444147869
5104073 3 18411702097715746283
5262128 65 16700081415400946481
67856867 119 18270386308529014777
7364860 26 18342174492417097472
7471813 234 17988064626376935761
74978 22 18408889542118011259
7832392 63 18197781007550691777
81228 2 17760948242223995578
84936 182 18199749309326636624
9709674 26 18411421743372571255
9971528 1 18342451496491420338
9981440 41 17834946847583204120

>  <PUBCHEM_SHAPE_MULTIPOLES>  (1) 
328.69
7.71
3.11
0.97
6.71
0.94
0.17
-0.42
0.43
-3.75
0
-0.35
0.84
-0.61

>  <PUBCHEM_SHAPE_SELFOVERLAP>  (1) 
677.915

>  <PUBCHEM_SHAPE_VOLUME>  (1) 
185.3

>  <PUBCHEM_COORDINATE_TYPE>  (1) 
2
5
10

$$$$
