34954
     RDKit          3D

 16 16  0  0  0  0  0  0  0  0999 V2000
   -3.2319    1.6014    1.4637 Cl  0  0  0  0  0  0  0  0  0  0  0  0
   -1.1627    2.9707   -0.0027 Cl  0  0  0  0  0  0  0  0  0  0  0  0
   -3.2347    1.5919   -1.4630 Cl  0  0  0  0  0  0  0  0  0  0  0  0
    2.4493    1.3636    0.0060 O   0  0  0  0  0  0  0  0  0  0  0  0
    1.9261   -0.9264    0.0047 N   0  0  0  0  0  0  0  0  0  0  0  0
   -0.0842    0.2663    0.0009 N   0  0  0  0  0  0  0  0  0  0  0  0
   -0.0754   -2.1332   -0.0005 N   0  0  0  0  0  0  0  0  0  0  0  0
   -2.1578   -0.9410   -0.0024 N   0  0  0  0  0  0  0  0  0  0  0  0
   -2.1165   -3.2861   -0.0013 N   0  0  0  0  0  0  0  0  0  0  0  0
    4.2272   -0.2606    0.0111 C   0  0  0  0  0  0  0  0  0  0  0  0
    0.5110   -0.9312    0.0010 C   0  0  0  0  0  0  0  0  0  0  0  0
    2.7709    0.1799    0.0069 C   0  0  0  0  0  0  0  0  0  0  0  0
   -1.4245    0.1838   -0.0008 C   0  0  0  0  0  0  0  0  0  0  0  0
    5.1943    0.9093   -0.0209 C   0  0  0  0  0  0  0  0  0  0  0  0
   -1.4163   -2.0604   -0.0020 C   0  0  0  0  0  0  0  0  0  0  0  0
   -2.1750    1.4719   -0.0008 C   0  0  0  0  0  0  0  0  0  0  0  0
  1 16  1  0
  2 16  1  0
  3 16  1  0
  4 12  2  0
  5 11  1  0
  5 12  1  0
  6 11  2  0
  6 13  1  0
  7 11  1  0
  7 15  2  0
  8 13  2  0
  8 15  1  0
  9 15  1  0
 10 12  1  0
 10 14  1  0
 13 16  1  0
M  END
>  <PUBCHEM_COMPOUND_CID>  (1) 
34954

>  <PUBCHEM_CONFORMER_RMSD>  (1) 
0.6

>  <PUBCHEM_CONFORMER_DIVERSEORDER>  (1) 
1
15
12
6
14
2
10
13
7
16
4
11
9
8
3
5

>  <PUBCHEM_MMFF94_PARTIAL_CHARGES>  (1) 
18
1 -0.29
10 0.06
11 0.74
12 0.57
13 0.48
15 0.72
16 1.01
19 0.37
2 -0.29
23 0.4
24 0.4
3 -0.29
4 -0.57
5 -0.55
6 -0.62
7 -0.62
8 -0.62
9 -0.9

>  <PUBCHEM_EFFECTIVE_ROTOR_COUNT>  (1) 
4

>  <PUBCHEM_PHARMACOPHORE_FEATURES>  (1) 
6
1 14 hydrophobe
1 4 acceptor
1 5 donor
1 9 donor
4 7 8 9 15 cation
6 6 7 8 11 13 15 rings

>  <PUBCHEM_HEAVY_ATOM_COUNT>  (1) 
16

>  <PUBCHEM_ATOM_DEF_STEREO_COUNT>  (1) 
0

>  <PUBCHEM_ATOM_UDEF_STEREO_COUNT>  (1) 
0

>  <PUBCHEM_BOND_DEF_STEREO_COUNT>  (1) 
0

>  <PUBCHEM_BOND_UDEF_STEREO_COUNT>  (1) 
0

>  <PUBCHEM_ISOTOPIC_ATOM_COUNT>  (1) 
0

>  <PUBCHEM_COMPONENT_COUNT>  (1) 
1

>  <PUBCHEM_CACTVS_TAUTO_COUNT>  (1) 
13

>  <PUBCHEM_CONFORMER_ID>  (1) 
0000888A00000001

>  <PUBCHEM_MMFF94_ENERGY>  (1) 
31.8916

>  <PUBCHEM_FEATURE_SELFOVERLAP>  (1) 
30.446

>  <PUBCHEM_SHAPE_FINGERPRINT>  (1) 
10493431 412 18270692973853381297
10608611 8 18342173401838380080
13380535 76 18341608162050419510
13583140 156 17022902319930033136
14648413 74 17183909065025981401
15309172 13 18265620892206797993
16945 1 17762055437548244367
1741750 31 18343302535528594626
18186145 218 18199191680969115334
18219364 16 18263085431214978593
204376 136 18337675200536540193
20510252 161 18340486789234214386
20645477 56 18410299090518435572
21339142 51 18338229461628833413
21499 59 18265888056420907357
21524375 3 18199178499514218639
22182937 141 18272658956166994936
2306618 200 18272942651747188818
23402539 116 18271800263687814911
23419403 2 17414980637844370627
23526113 38 17632295632314278114
23557571 272 18201167645251078548
23559900 14 18272653420987799878
2748010 2 18125990800796432833
3071541 12 17619631280638014167
4028521 119 18337944615129305772
5104073 3 18410853287840081546
573450 72 18261095401721814426
6333449 129 18411418410202928413
633830 44 17842281363287284757
68521 5 18264485264183426567
81228 2 18265622150674563179

>  <PUBCHEM_SHAPE_MULTIPOLES>  (1) 
304.11
7.36
3.12
0.91
10.32
1.49
0
-3.83
0.02
-2.67
0
-1.06
-0.45
-0.01

>  <PUBCHEM_SHAPE_SELFOVERLAP>  (1) 
591.785

>  <PUBCHEM_SHAPE_VOLUME>  (1) 
182.5

>  <PUBCHEM_COORDINATE_TYPE>  (1) 
2
5
10

$$$$
