34963
     RDKit          3D

 26 27  0  0  0  0  0  0  0  0999 V2000
   -1.6432    0.9824   -2.6999 Cl  0  0  0  0  0  0  0  0  0  0  0  0
   -1.6408    0.9768    2.7004 Cl  0  0  0  0  0  0  0  0  0  0  0  0
   -4.6289   -0.0416    2.7213 Cl  0  0  0  0  0  0  0  0  0  0  0  0
   -4.6319   -0.0349   -2.7197 Cl  0  0  0  0  0  0  0  0  0  0  0  0
   -6.1221   -0.5450    0.0012 Cl  0  0  0  0  0  0  0  0  0  0  0  0
    5.2582    1.1192   -1.4631 Cl  0  0  0  0  0  0  0  0  0  0  0  0
    4.0970    3.3089    0.0079 Cl  0  0  0  0  0  0  0  0  0  0  0  0
    5.2562    1.1033    1.4635 Cl  0  0  0  0  0  0  0  0  0  0  0  0
    2.7997   -3.3475    1.4625 Cl  0  0  0  0  0  0  0  0  0  0  0  0
    0.3285   -3.5385   -0.0084 Cl  0  0  0  0  0  0  0  0  0  0  0  0
    2.8120   -3.3382   -1.4640 Cl  0  0  0  0  0  0  0  0  0  0  0  0
   -0.4877    1.3714   -0.0001 N   0  0  0  0  0  0  0  0  0  0  0  0
    0.6988   -0.6511   -0.0017 N   0  0  0  0  0  0  0  0  0  0  0  0
    1.8558    1.4511    0.0006 N   0  0  0  0  0  0  0  0  0  0  0  0
    3.0979   -0.6019   -0.0007 N   0  0  0  0  0  0  0  0  0  0  0  0
   -1.8302    0.9151    0.0000 C   0  0  0  0  0  0  0  0  0  0  0  0
    0.7417    0.6948   -0.0004 C   0  0  0  0  0  0  0  0  0  0  0  0
   -2.4911    0.6919   -1.2077 C   0  0  0  0  0  0  0  0  0  0  0  0
   -2.4897    0.6891    1.2082 C   0  0  0  0  0  0  0  0  0  0  0  0
    1.9107   -1.2294   -0.0017 C   0  0  0  0  0  0  0  0  0  0  0  0
    2.9928    0.7367    0.0006 C   0  0  0  0  0  0  0  0  0  0  0  0
   -3.8103    0.2398    1.2086 C   0  0  0  0  0  0  0  0  0  0  0  0
   -3.8117    0.2427   -1.2075 C   0  0  0  0  0  0  0  0  0  0  0  0
   -4.4713    0.0166    0.0008 C   0  0  0  0  0  0  0  0  0  0  0  0
    4.2682    1.5084    0.0022 C   0  0  0  0  0  0  0  0  0  0  0  0
    1.9412   -2.7197   -0.0029 C   0  0  0  0  0  0  0  0  0  0  0  0
  1 18  1  0
  2 19  1  0
  3 22  1  0
  4 23  1  0
  5 24  1  0
  6 25  1  0
  7 25  1  0
  8 25  1  0
  9 26  1  0
 10 26  1  0
 11 26  1  0
 12 16  1  0
 12 17  1  0
 13 17  2  0
 13 20  1  0
 14 17  1  0
 14 21  2  0
 15 20  2  0
 15 21  1  0
 16 18  2  0
 16 19  1  0
 18 23  1  0
 19 22  2  0
 20 26  1  0
 21 25  1  0
 22 24  1  0
 23 24  2  0
M  END
>  <PUBCHEM_COMPOUND_CID>  (1) 
34963

>  <PUBCHEM_CONFORMER_RMSD>  (1) 
0.8

>  <PUBCHEM_CONFORMER_DIVERSEORDER>  (1) 
1
7
5
4
9
8
3
2
6

>  <PUBCHEM_MMFF94_PARTIAL_CHARGES>  (1) 
27
1 -0.18
10 -0.29
11 -0.29
12 -0.6
13 -0.62
14 -0.62
15 -0.62
16 0.1
17 0.72
18 0.18
19 0.18
2 -0.18
20 0.48
21 0.48
22 0.18
23 0.18
24 0.18
25 1.01
26 1.01
27 0.4
3 -0.18
4 -0.18
5 -0.18
6 -0.29
7 -0.29
8 -0.29
9 -0.29

>  <PUBCHEM_EFFECTIVE_ROTOR_COUNT>  (1) 
4

>  <PUBCHEM_PHARMACOPHORE_FEATURES>  (1) 
4
1 12 donor
4 12 13 14 17 cation
6 13 14 15 17 20 21 rings
6 16 18 19 22 23 24 rings

>  <PUBCHEM_HEAVY_ATOM_COUNT>  (1) 
26

>  <PUBCHEM_ATOM_DEF_STEREO_COUNT>  (1) 
0

>  <PUBCHEM_ATOM_UDEF_STEREO_COUNT>  (1) 
0

>  <PUBCHEM_BOND_DEF_STEREO_COUNT>  (1) 
0

>  <PUBCHEM_BOND_UDEF_STEREO_COUNT>  (1) 
0

>  <PUBCHEM_ISOTOPIC_ATOM_COUNT>  (1) 
0

>  <PUBCHEM_COMPONENT_COUNT>  (1) 
1

>  <PUBCHEM_CACTVS_TAUTO_COUNT>  (1) 
3

>  <PUBCHEM_CONFORMER_ID>  (1) 
0000889300000001

>  <PUBCHEM_MMFF94_ENERGY>  (1) 
75.29

>  <PUBCHEM_FEATURE_SELFOVERLAP>  (1) 
20.297

>  <PUBCHEM_SHAPE_FINGERPRINT>  (1) 
10090160 65 18412544344643979272
10906281 52 17240498995772615093
11421498 54 17917999356109204112
11488393 25 18262526866956046442
11582403 64 17315881564179975456
11595378 159 16988553559592900451
11991303 11 17969514886713170622
12160290 23 17906452483106081830
12236239 1 17704078421254438961
12553582 1 17834684794311792906
12596602 18 17703794747401685307
12788726 201 17203053998022865435
13009979 54 17272856398870042178
13533116 47 18202001002462185627
13583140 156 17313933230097945544
13631057 29 17842826987643529079
13911987 19 18262241139524006332
14659021 117 16172826690580339483
14787075 74 17917429894811353329
15537594 2 17704069616792729623
17138139 8 17627479938482676031
1813 80 17555747508124250902
19319366 153 17988638631581367430
19377110 9 17846490422367836147
20511986 3 17846492600528308321
20645477 70 18334853875090243791
20693207 138 17750520563776562415
22182313 1 17676210148049468211
23557571 272 16950280685417670805
23559900 14 18044078069274390648
23598288 3 17558834988288078105
312423 11 17916030066053294538
4340502 62 18341332279194786203
4409770 3 14960768653237333465
469060 322 17751078226826053191
59755656 520 18272100434778185198
621550 34 18186798088774642629
633830 44 18131080371898173708
6913067 236 18113610218284356573
7399639 24 18186792591264035069

>  <PUBCHEM_SHAPE_MULTIPOLES>  (1) 
535.71
12.14
3.42
2.44
3.44
3.62
0
-3.77
0
-6.16
0
3.07
-0.32
0.01

>  <PUBCHEM_SHAPE_SELFOVERLAP>  (1) 
1032.96

>  <PUBCHEM_SHAPE_VOLUME>  (1) 
321.1

>  <PUBCHEM_COORDINATE_TYPE>  (1) 
2
5
10

$$$$
