34967
     RDKit          3D

 22 23  0  0  0  0  0  0  0  0999 V2000
    1.8889   -3.4147    1.2211 Cl  0  0  0  0  0  0  0  0  0  0  0  0
   -0.5505   -3.3480   -0.3124 Cl  0  0  0  0  0  0  0  0  0  0  0  0
    1.9773   -3.2021   -1.6964 Cl  0  0  0  0  0  0  0  0  0  0  0  0
    4.6886    1.0824   -1.3269 Cl  0  0  0  0  0  0  0  0  0  0  0  0
    3.6254    3.2330    0.2704 Cl  0  0  0  0  0  0  0  0  0  0  0  0
    4.6109    0.8639    1.5905 Cl  0  0  0  0  0  0  0  0  0  0  0  0
   -1.0668    1.5908    0.0264 N   0  0  0  0  0  0  0  0  0  0  0  0
    1.2763    1.5238    0.0840 N   0  0  0  0  0  0  0  0  0  0  0  0
   -0.0057   -0.4968   -0.0923 N   0  0  0  0  0  0  0  0  0  0  0  0
    2.3911   -0.5977   -0.0362 N   0  0  0  0  0  0  0  0  0  0  0  0
   -2.4284    1.2276   -0.0343 C   0  0  0  0  0  0  0  0  0  0  0  0
   -4.1927   -0.3610    0.4138 C   0  0  0  0  0  0  0  0  0  0  0  0
   -2.8459   -0.0025    0.4739 C   0  0  0  0  0  0  0  0  0  0  0  0
    0.1231    0.8377    0.0051 C   0  0  0  0  0  0  0  0  0  0  0  0
   -3.3576    2.0990   -0.6028 C   0  0  0  0  0  0  0  0  0  0  0  0
   -5.1217    0.5105   -0.1546 C   0  0  0  0  0  0  0  0  0  0  0  0
    2.3675    0.7416    0.0576 C   0  0  0  0  0  0  0  0  0  0  0  0
    1.1683   -1.1483   -0.1073 C   0  0  0  0  0  0  0  0  0  0  0  0
   -4.7042    1.7404   -0.6627 C   0  0  0  0  0  0  0  0  0  0  0  0
   -4.6395   -1.6761    0.9563 C   0  0  0  0  0  0  0  0  0  0  0  0
    1.1083   -2.6338   -0.2140 C   0  0  0  0  0  0  0  0  0  0  0  0
    3.6870    1.4302    0.1409 C   0  0  0  0  0  0  0  0  0  0  0  0
  1 21  1  0
  2 21  1  0
  3 21  1  0
  4 22  1  0
  5 22  1  0
  6 22  1  0
  7 11  1  0
  7 14  1  0
  8 14  2  0
  8 17  1  0
  9 14  1  0
  9 18  2  0
 10 17  2  0
 10 18  1  0
 11 13  1  0
 11 15  2  0
 12 13  2  0
 12 16  1  0
 12 20  1  0
 15 19  1  0
 16 19  2  0
 17 22  1  0
 18 21  1  0
M  END
>  <PUBCHEM_COMPOUND_CID>  (1) 
34967

>  <PUBCHEM_CONFORMER_RMSD>  (1) 
0.6

>  <PUBCHEM_CONFORMER_DIVERSEORDER>  (1) 
1
26
23
40
28
9
7
36
25
16
17
35
5
30
22
33
14
31
19
32
11
34
13
27
3
39
21
29
2
37
6
38
24
10
20
15
18
8
12
4

>  <PUBCHEM_MMFF94_PARTIAL_CHARGES>  (1) 
27
1 -0.29
10 -0.62
11 0.1
12 -0.14
13 -0.15
14 0.72
15 -0.15
16 -0.15
17 0.48
18 0.48
19 -0.15
2 -0.29
20 0.14
21 1.01
22 1.01
23 0.4
24 0.15
25 0.15
26 0.15
27 0.15
3 -0.29
4 -0.29
5 -0.29
6 -0.29
7 -0.6
8 -0.62
9 -0.62

>  <PUBCHEM_EFFECTIVE_ROTOR_COUNT>  (1) 
4

>  <PUBCHEM_PHARMACOPHORE_FEATURES>  (1) 
4
1 7 donor
4 7 8 9 14 cation
6 11 12 13 15 16 19 rings
6 8 9 10 14 17 18 rings

>  <PUBCHEM_HEAVY_ATOM_COUNT>  (1) 
22

>  <PUBCHEM_ATOM_DEF_STEREO_COUNT>  (1) 
0

>  <PUBCHEM_ATOM_UDEF_STEREO_COUNT>  (1) 
0

>  <PUBCHEM_BOND_DEF_STEREO_COUNT>  (1) 
0

>  <PUBCHEM_BOND_UDEF_STEREO_COUNT>  (1) 
0

>  <PUBCHEM_ISOTOPIC_ATOM_COUNT>  (1) 
0

>  <PUBCHEM_COMPONENT_COUNT>  (1) 
1

>  <PUBCHEM_CACTVS_TAUTO_COUNT>  (1) 
3

>  <PUBCHEM_CONFORMER_ID>  (1) 
0000889700000001

>  <PUBCHEM_MMFF94_ENERGY>  (1) 
57.1372

>  <PUBCHEM_FEATURE_SELFOVERLAP>  (1) 
20.297

>  <PUBCHEM_SHAPE_FINGERPRINT>  (1) 
10074138 170 17761747952180745554
10366900 7 18343013411595230257
10616163 171 18408325514628627235
11370993 70 18409725171149858145
11488393 25 17843705291059739062
11578080 2 17097201723697908806
12592029 89 18409448089898265992
12730499 353 18409455765179182697
12788726 201 17689145034819834122
12839892 36 18335405894314889650
13140716 1 17978230787931041835
13257819 37 18118993466517390318
13533116 47 18129942257547238585
13583140 156 17097179888353492696
138480 1 17978791207727083071
14787075 74 18057321888990080937
14790565 3 18265340679687319388
15375358 24 18333448729711403193
17980427 23 17386012818452211805
18681886 176 18262242230804486212
19591789 44 18339082691378831740
20028762 73 17914335929447577103
20197701 30 18411977005391983480
20645477 70 18269271275269284711
20693207 138 18118974594230598943
21054139 6 18128797798358372415
21859007 373 16809524359615754085
221490 88 18338526218273477319
22182313 1 18265918949999822155
22393880 68 18338522928317771647
22956985 138 17971465213850404802
23366157 5 17969791769620300490
23557571 272 17168142278763562245
23559900 14 18193548970110205531
239999 70 18271812285026826894
3060560 45 18411140230067949660
314173 41 17908148676817298111
3298306 158 18411699889469344756
33824 294 18410855438959475363
338550 245 18334292089616363126
4280585 95 17762623880575583222
474229 33 18338234989267385673
5104073 3 18264774264543915369
58051976 378 18411979144090602517
59755656 215 18335421231563884628
633830 44 18202283619230803908
6438718 38 17629199595926978518
6442390 28 18337393854535312654
6669772 16 18131637785976114534
7364860 26 18269835307390973030
7808743 9 17977663440132426768
81228 2 17618486023693077784
81539 233 18408886213544334494
9709674 26 18337672993382175575
9841814 1 18047754789029610890

>  <PUBCHEM_SHAPE_MULTIPOLES>  (1) 
444.04
10.39
4.2
1.16
6.62
3.37
-0.04
-6.26
0.67
-2.62
-0.37
-1.02
0.53
1.16

>  <PUBCHEM_SHAPE_SELFOVERLAP>  (1) 
878.194

>  <PUBCHEM_SHAPE_VOLUME>  (1) 
259.5

>  <PUBCHEM_COORDINATE_TYPE>  (1) 
2
5
10

$$$$
