34972
     RDKit          3D

 24 25  0  0  0  0  0  0  0  0999 V2000
    2.6989    3.3862   -1.2729 Cl  0  0  0  0  0  0  0  0  0  0  0  0
    0.2168    3.4204    0.1916 Cl  0  0  0  0  0  0  0  0  0  0  0  0
    2.6993    3.2189    1.6490 Cl  0  0  0  0  0  0  0  0  0  0  0  0
    5.2834   -1.1533    1.4232 Cl  0  0  0  0  0  0  0  0  0  0  0  0
    4.1978   -3.2958   -0.1699 Cl  0  0  0  0  0  0  0  0  0  0  0  0
    5.2940   -0.9804   -1.4983 Cl  0  0  0  0  0  0  0  0  0  0  0  0
   -6.6798   -0.6529    0.4909 O   0  0  0  0  0  0  0  0  0  0  0  0
   -6.1266    1.2316   -0.4996 O   0  0  0  0  0  0  0  0  0  0  0  0
   -0.4452   -1.5047   -0.0848 N   0  0  0  0  0  0  0  0  0  0  0  0
    1.8996   -1.5116   -0.0769 N   0  0  0  0  0  0  0  0  0  0  0  0
    0.6774    0.5505    0.0314 N   0  0  0  0  0  0  0  0  0  0  0  0
    3.0768    0.5760    0.0417 N   0  0  0  0  0  0  0  0  0  0  0  0
   -5.8259    0.1157   -0.0121 N   0  0  0  0  0  0  0  0  0  0  0  0
   -1.7956   -1.0988   -0.0684 C   0  0  0  0  0  0  0  0  0  0  0  0
    0.7670   -0.7886   -0.0414 C   0  0  0  0  0  0  0  0  0  0  0  0
   -2.7674   -1.9312    0.4869 C   0  0  0  0  0  0  0  0  0  0  0  0
   -2.1589    0.1367   -0.6043 C   0  0  0  0  0  0  0  0  0  0  0  0
    3.0136   -0.7633   -0.0318 C   0  0  0  0  0  0  0  0  0  0  0  0
    1.8705    1.1654    0.0697 C   0  0  0  0  0  0  0  0  0  0  0  0
   -4.4660   -0.2925   -0.0297 C   0  0  0  0  0  0  0  0  0  0  0  0
   -4.1027   -1.5280    0.5061 C   0  0  0  0  0  0  0  0  0  0  0  0
   -3.4941    0.5399   -0.5849 C   0  0  0  0  0  0  0  0  0  0  0  0
    1.8544    2.6537    0.1514 C   0  0  0  0  0  0  0  0  0  0  0  0
    4.3126   -1.4937   -0.0669 C   0  0  0  0  0  0  0  0  0  0  0  0
  1 23  1  0
  2 23  1  0
  3 23  1  0
  4 24  1  0
  5 24  1  0
  6 24  1  0
  7 13  1  0
  8 13  2  0
  9 14  1  0
  9 15  1  0
 10 15  2  0
 10 18  1  0
 11 15  1  0
 11 19  2  0
 12 18  2  0
 12 19  1  0
 13 20  1  0
 14 16  2  0
 14 17  1  0
 16 21  1  0
 17 22  2  0
 18 24  1  0
 19 23  1  0
 20 21  2  0
 20 22  1  0
M  CHG  2   7  -1  13   1
M  END
>  <PUBCHEM_COMPOUND_CID>  (1) 
34972

>  <PUBCHEM_CONFORMER_RMSD>  (1) 
0.8

>  <PUBCHEM_CONFORMER_DIVERSEORDER>  (1) 
1
5
8
2
3
7
4
6

>  <PUBCHEM_MMFF94_PARTIAL_CHARGES>  (1) 
29
1 -0.29
10 -0.62
11 -0.62
12 -0.62
13 0.91
14 0.1
15 0.72
16 -0.15
17 -0.15
18 0.48
19 0.48
2 -0.29
20 0.13
21 -0.15
22 -0.15
23 1.01
24 1.01
25 0.4
26 0.15
27 0.15
28 0.15
29 0.15
3 -0.29
4 -0.29
5 -0.29
6 -0.29
7 -0.52
8 -0.52
9 -0.6

>  <PUBCHEM_EFFECTIVE_ROTOR_COUNT>  (1) 
5

>  <PUBCHEM_PHARMACOPHORE_FEATURES>  (1) 
7
1 7 acceptor
1 7 anion
1 8 acceptor
1 9 donor
4 9 10 11 15 cation
6 10 11 12 15 18 19 rings
6 14 16 17 20 21 22 rings

>  <PUBCHEM_HEAVY_ATOM_COUNT>  (1) 
24

>  <PUBCHEM_ATOM_DEF_STEREO_COUNT>  (1) 
0

>  <PUBCHEM_ATOM_UDEF_STEREO_COUNT>  (1) 
0

>  <PUBCHEM_BOND_DEF_STEREO_COUNT>  (1) 
0

>  <PUBCHEM_BOND_UDEF_STEREO_COUNT>  (1) 
0

>  <PUBCHEM_ISOTOPIC_ATOM_COUNT>  (1) 
0

>  <PUBCHEM_COMPONENT_COUNT>  (1) 
1

>  <PUBCHEM_CACTVS_TAUTO_COUNT>  (1) 
3

>  <PUBCHEM_CONFORMER_ID>  (1) 
0000889C00000001

>  <PUBCHEM_MMFF94_ENERGY>  (1) 
66.7991

>  <PUBCHEM_FEATURE_SELFOVERLAP>  (1) 
35.6

>  <PUBCHEM_SHAPE_FINGERPRINT>  (1) 
10673678 19 17533241849712633764
10688039 33 18187928322435446612
10763959 59 18261668191229202021
11045977 3 18187367653805790131
11405975 8 18409448128658875763
11578080 2 15214171707011528540
12166972 35 18060701680380632091
12236239 1 15339114624544196175
12403259 415 18040990748768035229
12516196 113 18341048532418110062
12553582 1 18413383229525449766
12616971 3 17988924500974182415
12788726 201 18263648355989329930
13134695 92 18060128852018520024
13140716 1 18339071713353038418
13533116 47 18341051908573283865
138480 1 18410856590053259452
13878862 14 18265030566522385061
14170010 4 18343299284211886760
14341114 176 18410016541747036425
14347329 18 16879611701667303109
14466204 15 18263918848016934515
14866123 147 17186157561899539978
15042514 8 17978790104558460250
15183329 4 18410578340686308099
15196674 1 18337110180809724359
15420108 30 17699265970992640680
17844677 252 18411145757801323739
17868525 174 18408879624953830144
1813 80 18130238055780783390
18222031 100 18130512950978560950
18335252 114 18339631232482100349
18785283 64 18261954180073966100
20642791 239 17970375765683690516
20832881 197 18261392217667870946
21033648 29 17749935722960350629
21065198 57 18336829792338823107
21133410 127 17679294428643627213
21267235 1 18411426076704117327
21279426 13 18120651340503867855
21285901 2 18057894545706865438
21478907 32 18050288068500063106
21641784 216 18043551438176731820
21859007 373 17970040302498973461
221357 26 18408885109880086381
221490 88 18263370342044051010
23558518 356 17975965789504254698
23559900 14 18411697720537338043
249057 25 17846785105439548713
3004659 81 17968663714294613750
314173 41 18335422344477781458
335352 9 18409729539321535071
340366 18 18130508616739465910
3411729 13 18267295620858405112
3421961 26 18411979178550567696
350125 39 18335422348593336013
376196 1 15979747522652483352
4015057 19 18339350981502392819
5104073 3 18337956813395505179
633830 44 18115299102836960395
7164475 11 18119815703905310166
7495541 125 18186805793940670486
81228 2 18122917430385747210
8863177 126 17969235593147356091
9709674 26 18191024710599134411
9971528 1 18060700581090634222
9981440 41 17619620723761564144

>  <PUBCHEM_SHAPE_MULTIPOLES>  (1) 
468.48
13.31
3.93
1.09
16.73
3.27
-0.08
-5.84
-0.01
-4.95
-0.27
-1.35
0.44
0.74

>  <PUBCHEM_SHAPE_SELFOVERLAP>  (1) 
935.518

>  <PUBCHEM_SHAPE_VOLUME>  (1) 
275.9

>  <PUBCHEM_COORDINATE_TYPE>  (1) 
2
5
10

$$$$
