34974
     RDKit          3D

 25 27  0  0  0  0  0  0  0  0999 V2000
    3.4288   -2.6625    2.0045 Cl  0  0  0  0  0  0  0  0  0  0  0  0
    1.2638   -3.7201    0.4228 Cl  0  0  0  0  0  0  0  0  0  0  0  0
    3.7544   -3.0600   -0.8767 Cl  0  0  0  0  0  0  0  0  0  0  0  0
    4.9557    1.8471   -1.4433 Cl  0  0  0  0  0  0  0  0  0  0  0  0
    3.1184    3.8242   -0.4325 Cl  0  0  0  0  0  0  0  0  0  0  0  0
    4.6421    2.2427    1.4395 Cl  0  0  0  0  0  0  0  0  0  0  0  0
   -0.7845    0.7355   -0.4290 N   0  0  0  0  0  0  0  0  0  0  0  0
    1.4452    1.4468   -0.2839 N   0  0  0  0  0  0  0  0  0  0  0  0
    0.8755   -0.8690   -0.0187 N   0  0  0  0  0  0  0  0  0  0  0  0
    3.1664   -0.1719    0.1347 N   0  0  0  0  0  0  0  0  0  0  0  0
   -3.2001    0.4524   -0.0449 C   0  0  0  0  0  0  0  0  0  0  0  0
   -1.9556   -0.0615   -0.4443 C   0  0  0  0  0  0  0  0  0  0  0  0
   -4.3389   -0.3871   -0.0789 C   0  0  0  0  0  0  0  0  0  0  0  0
   -1.8353   -1.3844   -0.8709 C   0  0  0  0  0  0  0  0  0  0  0  0
   -3.3393    1.7814    0.3871 C   0  0  0  0  0  0  0  0  0  0  0  0
   -4.1995   -1.7160   -0.5113 C   0  0  0  0  0  0  0  0  0  0  0  0
   -5.5833    0.1269    0.3205 C   0  0  0  0  0  0  0  0  0  0  0  0
   -2.9552   -2.2100   -0.9042 C   0  0  0  0  0  0  0  0  0  0  0  0
    0.5710    0.4242   -0.2355 C   0  0  0  0  0  0  0  0  0  0  0  0
   -4.5834    2.2755    0.7805 C   0  0  0  0  0  0  0  0  0  0  0  0
   -5.7031    1.4498    0.7474 C   0  0  0  0  0  0  0  0  0  0  0  0
    2.7208    1.0746   -0.0909 C   0  0  0  0  0  0  0  0  0  0  0  0
    2.1881   -1.0913    0.1570 C   0  0  0  0  0  0  0  0  0  0  0  0
    2.6011   -2.5025    0.4020 C   0  0  0  0  0  0  0  0  0  0  0  0
    3.7468    2.1552   -0.1310 C   0  0  0  0  0  0  0  0  0  0  0  0
  1 24  1  0
  2 24  1  0
  3 24  1  0
  4 25  1  0
  5 25  1  0
  6 25  1  0
  7 12  1  0
  7 19  1  0
  8 19  2  0
  8 22  1  0
  9 19  1  0
  9 23  2  0
 10 22  2  0
 10 23  1  0
 11 12  1  0
 11 13  2  0
 11 15  1  0
 12 14  2  0
 13 16  1  0
 13 17  1  0
 14 18  1  0
 15 20  2  0
 16 18  2  0
 17 21  2  0
 20 21  1  0
 22 25  1  0
 23 24  1  0
M  END
>  <PUBCHEM_COMPOUND_CID>  (1) 
34974

>  <PUBCHEM_CONFORMER_RMSD>  (1) 
0.8

>  <PUBCHEM_CONFORMER_DIVERSEORDER>  (1) 
1
18
2
13
7
12
14
11
10
8
16
3
17
4
15
9
6
5

>  <PUBCHEM_MMFF94_PARTIAL_CHARGES>  (1) 
31
1 -0.29
10 -0.62
12 0.1
14 -0.15
15 -0.15
16 -0.15
17 -0.15
18 -0.15
19 0.72
2 -0.29
20 -0.15
21 -0.15
22 0.48
23 0.48
24 1.01
25 1.01
26 0.4
27 0.15
28 0.15
29 0.15
3 -0.29
30 0.15
31 0.15
32 0.15
33 0.15
4 -0.29
5 -0.29
6 -0.29
7 -0.6
8 -0.62
9 -0.62

>  <PUBCHEM_EFFECTIVE_ROTOR_COUNT>  (1) 
4

>  <PUBCHEM_PHARMACOPHORE_FEATURES>  (1) 
5
1 7 donor
4 7 8 9 19 cation
6 11 12 13 14 16 18 rings
6 11 13 15 17 20 21 rings
6 8 9 10 19 22 23 rings

>  <PUBCHEM_HEAVY_ATOM_COUNT>  (1) 
25

>  <PUBCHEM_ATOM_DEF_STEREO_COUNT>  (1) 
0

>  <PUBCHEM_ATOM_UDEF_STEREO_COUNT>  (1) 
0

>  <PUBCHEM_BOND_DEF_STEREO_COUNT>  (1) 
0

>  <PUBCHEM_BOND_UDEF_STEREO_COUNT>  (1) 
0

>  <PUBCHEM_ISOTOPIC_ATOM_COUNT>  (1) 
0

>  <PUBCHEM_COMPONENT_COUNT>  (1) 
1

>  <PUBCHEM_CACTVS_TAUTO_COUNT>  (1) 
3

>  <PUBCHEM_CONFORMER_ID>  (1) 
0000889E00000001

>  <PUBCHEM_MMFF94_ENERGY>  (1) 
73.6517

>  <PUBCHEM_FEATURE_SELFOVERLAP>  (1) 
25.398

>  <PUBCHEM_SHAPE_FINGERPRINT>  (1) 
10616163 171 18341613780237083327
10759866 29 18341900696741867121
11405975 8 18339359669667416427
12107183 9 17979921510476272241
12553582 1 18120645830151114662
12633257 1 18265044743861392303
12788726 201 17346047662648100217
12892183 10 18335428976149587323
13140716 1 18410567353754062547
13167823 11 18412263909318223387
13533116 47 18412824673301946691
13583140 156 18262819431316451537
13631057 29 18053943128681812335
13785724 45 17621609306763242431
13878862 14 18191849177001099085
14739800 52 17917134083313157832
14790565 3 18120661480990959364
14849402 71 18335138705180204920
15042514 8 17257085970623126378
15238133 3 17417249814911177825
15250474 111 18341320176262328631
15475509 35 17023754390365949235
15664445 248 18126579916234610086
17492 89 18412545418655361143
17818456 19 17915180122475231537
1813 80 17387142978850586815
19377110 9 18338790225813082155
20739085 24 18187083932007211412
21033648 144 17243293004857851908
21065198 48 18411699889996891311
21421861 104 18262513693932030248
21781055 127 16772408214284104387
21796203 349 17830201029154704202
21859007 373 17608073296660558853
22393880 68 18201726196984116812
2255824 54 18335700520845729762
23366157 5 18259983764921319998
23503953 91 18270388396078656755
23559900 14 17631179584551022079
245318 6 17245841724250956884
24771293 8 18270381860061527106
25147074 1 18341037584414513159
314173 41 18195249914630725134
3411729 13 18410855465114173640
3421961 26 18264205816515344354
3633792 109 18263342764939771751
4073 2 18115035202686798059
474 4 18188211021367092556
5104073 3 18410013217743212395
633830 44 18197497527077897196
67856867 119 18411692188624638256
7097593 13 18411132498773024887
79837 15 18047186642397584282
9709674 26 18409452505114713371
9841814 1 18188767224417515586
9981440 41 18120369014970645624

>  <PUBCHEM_SHAPE_MULTIPOLES>  (1) 
505.78
12.53
4.47
1.19
9.77
1.07
0.29
-5.69
1.38
-5.64
0.34
-1.17
0.24
-1.95

>  <PUBCHEM_SHAPE_SELFOVERLAP>  (1) 
1037.571

>  <PUBCHEM_SHAPE_VOLUME>  (1) 
286.3

>  <PUBCHEM_COORDINATE_TYPE>  (1) 
2
5
10

$$$$
