34977
     RDKit          3D

 25 26  0  0  0  0  0  0  0  0999 V2000
   -2.9345    0.8848    2.7975 Cl  0  0  0  0  0  0  0  0  0  0  0  0
   -2.8868    3.2239    1.1146 Cl  0  0  0  0  0  0  0  0  0  0  0  0
   -4.8104    1.1442    0.5661 Cl  0  0  0  0  0  0  0  0  0  0  0  0
   -3.1353   -3.2418   -1.3839 Cl  0  0  0  0  0  0  0  0  0  0  0  0
   -0.3085   -3.5237   -1.8700 Cl  0  0  0  0  0  0  0  0  0  0  0  0
   -1.2658   -3.5070    0.8522 Cl  0  0  0  0  0  0  0  0  0  0  0  0
    1.8203    2.1601   -1.1300 S   0  0  0  0  0  0  0  0  0  0  0  0
    2.8672    2.5138   -2.0813 O   0  0  0  0  0  0  0  0  0  0  0  0
    1.2644    3.2037   -0.2774 O   0  0  0  0  0  0  0  0  0  0  0  0
    0.5486    1.3862   -1.9975 N   0  0  0  0  0  0  0  0  0  0  0  0
   -0.4626   -0.6561   -1.3949 N   0  0  0  0  0  0  0  0  0  0  0  0
   -1.2520    1.4153   -0.4765 N   0  0  0  0  0  0  0  0  0  0  0  0
   -2.2976   -0.6512    0.1512 N   0  0  0  0  0  0  0  0  0  0  0  0
    2.4336    0.8777   -0.1163 C   0  0  0  0  0  0  0  0  0  0  0  0
    3.4598    0.0535   -0.5782 C   0  0  0  0  0  0  0  0  0  0  0  0
    1.8975    0.6777    1.1557 C   0  0  0  0  0  0  0  0  0  0  0  0
    3.4138   -1.1707    1.5041 C   0  0  0  0  0  0  0  0  0  0  0  0
   -0.4478    0.6728   -1.2449 C   0  0  0  0  0  0  0  0  0  0  0  0
    3.9498   -0.9708    0.2321 C   0  0  0  0  0  0  0  0  0  0  0  0
    2.3875   -0.3465    1.9660 C   0  0  0  0  0  0  0  0  0  0  0  0
   -1.4172   -1.2541   -0.6641 C   0  0  0  0  0  0  0  0  0  0  0  0
   -2.1557    0.6833    0.1949 C   0  0  0  0  0  0  0  0  0  0  0  0
    3.9384   -2.2649    2.3710 C   0  0  0  0  0  0  0  0  0  0  0  0
   -3.0980    1.4283    1.0782 C   0  0  0  0  0  0  0  0  0  0  0  0
   -1.5087   -2.7385   -0.7683 C   0  0  0  0  0  0  0  0  0  0  0  0
  1 24  1  0
  2 24  1  0
  3 24  1  0
  4 25  1  0
  5 25  1  0
  6 25  1  0
  7  8  2  0
  7  9  2  0
  7 10  1  0
  7 14  1  0
 10 18  1  0
 11 18  2  0
 11 21  1  0
 12 18  1  0
 12 22  2  0
 13 21  2  0
 13 22  1  0
 14 15  2  0
 14 16  1  0
 15 19  1  0
 16 20  2  0
 17 19  2  0
 17 20  1  0
 17 23  1  0
 21 25  1  0
 22 24  1  0
M  END
>  <PUBCHEM_COMPOUND_CID>  (1) 
34977

>  <PUBCHEM_CONFORMER_RMSD>  (1) 
0.8

>  <PUBCHEM_CONFORMER_DIVERSEORDER>  (1) 
1
32
26
2
25
29
8
27
20
9
5
23
19
28
15
6
10
12
24
18
30
7
31
17
13
11
16
3
4
14
21
22

>  <PUBCHEM_MMFF94_PARTIAL_CHARGES>  (1) 
30
1 -0.29
10 -0.76
11 -0.62
12 -0.62
13 -0.62
14 -0.01
15 -0.15
16 -0.15
17 -0.14
18 0.82
19 -0.15
2 -0.29
20 -0.15
21 0.48
22 0.48
23 0.14
24 1.01
25 1.01
26 0.42
27 0.15
28 0.15
29 0.15
3 -0.29
30 0.15
4 -0.29
5 -0.29
6 -0.29
7 1.45
8 -0.65
9 -0.65

>  <PUBCHEM_EFFECTIVE_ROTOR_COUNT>  (1) 
5

>  <PUBCHEM_PHARMACOPHORE_FEATURES>  (1) 
7
1 10 donor
1 8 acceptor
1 9 acceptor
3 11 13 21 cation
3 12 13 22 cation
6 11 12 13 18 21 22 rings
6 14 15 16 17 19 20 rings

>  <PUBCHEM_HEAVY_ATOM_COUNT>  (1) 
25

>  <PUBCHEM_ATOM_DEF_STEREO_COUNT>  (1) 
0

>  <PUBCHEM_ATOM_UDEF_STEREO_COUNT>  (1) 
0

>  <PUBCHEM_BOND_DEF_STEREO_COUNT>  (1) 
0

>  <PUBCHEM_BOND_UDEF_STEREO_COUNT>  (1) 
0

>  <PUBCHEM_ISOTOPIC_ATOM_COUNT>  (1) 
0

>  <PUBCHEM_COMPONENT_COUNT>  (1) 
1

>  <PUBCHEM_CACTVS_TAUTO_COUNT>  (1) 
3

>  <PUBCHEM_CONFORMER_ID>  (1) 
000088A100000001

>  <PUBCHEM_MMFF94_ENERGY>  (1) 
44.6454

>  <PUBCHEM_FEATURE_SELFOVERLAP>  (1) 
36.463

>  <PUBCHEM_SHAPE_FINGERPRINT>  (1) 
11578080 2 17831543790555641197
11725454 13 16271633482475405489
12160290 23 17703234026552108509
12403259 327 17631994382954774346
12422481 6 17474378085496060434
12553582 1 17968646143403602994
12633257 1 18270669884066726970
12788726 201 18126009514359617583
12839892 36 18342182129349030267
13533116 47 17749405762566704201
13583140 156 17751379467484865897
14178342 30 18270943722718400210
14251757 17 13972573304843601537
14468879 13 15554150524086920331
15403338 16 17242170137471538241
15420108 30 17767109918323422175
16752209 62 18128255786545020943
17349148 13 18343858923067419517
17818456 19 18342450487216401559
19319366 153 17825131404377223548
20600515 1 17184682330784712721
21033648 29 17843961442550218993
21731516 1 18040980857131245974
23419403 2 15241349511986947830
23559900 14 17916883407420033733
23598288 3 18196098956782380647
23598291 2 18262523705448017148
23598294 1 17983315981774818389
238 59 16734651173669567970
238918 7 17619051842384193328
266924 78 16664037324208475365
345986 75 18124018281611666835
35225 105 17772221779461521619
352729 6 18271253793692472927
465052 167 17968669224452188049
6992083 37 18337377254349609050
7097593 13 18334575763220567020

>  <PUBCHEM_SHAPE_MULTIPOLES>  (1) 
497.89
7.29
4.49
2.4
0.89
2.76
-0.75
-1.06
-3.7
-2.54
1.42
0.95
0.05
-3.33

>  <PUBCHEM_SHAPE_SELFOVERLAP>  (1) 
978.086

>  <PUBCHEM_SHAPE_VOLUME>  (1) 
300.8

>  <PUBCHEM_COORDINATE_TYPE>  (1) 
2
5
10

$$$$
