34970
     RDKit          3D

 23 24  0  0  0  0  0  0  0  0999 V2000
    2.2950    3.4099   -1.2970 Cl  0  0  0  0  0  0  0  0  0  0  0  0
   -0.1637    3.3852    0.2064 Cl  0  0  0  0  0  0  0  0  0  0  0  0
    2.3457    3.2549    1.6251 Cl  0  0  0  0  0  0  0  0  0  0  0  0
    5.0401   -1.0488    1.3749 Cl  0  0  0  0  0  0  0  0  0  0  0  0
    3.9865   -3.2257   -0.1927 Cl  0  0  0  0  0  0  0  0  0  0  0  0
    5.0002   -0.8880   -1.5471 Cl  0  0  0  0  0  0  0  0  0  0  0  0
   -6.0644   -0.0971    0.1019 O   0  0  0  0  0  0  0  0  0  0  0  0
   -0.7002   -1.5568   -0.0410 N   0  0  0  0  0  0  0  0  0  0  0  0
    1.6437   -1.5021   -0.0701 N   0  0  0  0  0  0  0  0  0  0  0  0
    0.3696    0.5277    0.0498 N   0  0  0  0  0  0  0  0  0  0  0  0
    2.7673    0.6162    0.0221 N   0  0  0  0  0  0  0  0  0  0  0  0
   -2.0606   -1.1862   -0.0047 C   0  0  0  0  0  0  0  0  0  0  0  0
    0.4930   -0.8091   -0.0194 C   0  0  0  0  0  0  0  0  0  0  0  0
   -3.0009   -2.0418    0.5692 C   0  0  0  0  0  0  0  0  0  0  0  0
   -2.4656    0.0353   -0.5427 C   0  0  0  0  0  0  0  0  0  0  0  0
    2.7382   -0.7246   -0.0453 C   0  0  0  0  0  0  0  0  0  0  0  0
    1.5467    1.1738    0.0669 C   0  0  0  0  0  0  0  0  0  0  0  0
   -4.7516   -0.4543    0.0668 C   0  0  0  0  0  0  0  0  0  0  0  0
   -4.3464   -1.6758    0.6048 C   0  0  0  0  0  0  0  0  0  0  0  0
   -3.8112    0.4013   -0.5068 C   0  0  0  0  0  0  0  0  0  0  0  0
    1.4926    2.6615    0.1433 C   0  0  0  0  0  0  0  0  0  0  0  0
    4.0553   -1.4209   -0.0982 C   0  0  0  0  0  0  0  0  0  0  0  0
   -6.4094    1.1656   -0.4661 C   0  0  0  0  0  0  0  0  0  0  0  0
  1 21  1  0
  2 21  1  0
  3 21  1  0
  4 22  1  0
  5 22  1  0
  6 22  1  0
  7 18  1  0
  7 23  1  0
  8 12  1  0
  8 13  1  0
  9 13  2  0
  9 16  1  0
 10 13  1  0
 10 17  2  0
 11 16  2  0
 11 17  1  0
 12 14  2  0
 12 15  1  0
 14 19  1  0
 15 20  2  0
 16 22  1  0
 17 21  1  0
 18 19  2  0
 18 20  1  0
M  END
>  <PUBCHEM_COMPOUND_CID>  (1) 
34970

>  <PUBCHEM_CONFORMER_RMSD>  (1) 
0.8

>  <PUBCHEM_CONFORMER_DIVERSEORDER>  (1) 
1
7
3
8
10
2
5
9
4
6

>  <PUBCHEM_MMFF94_PARTIAL_CHARGES>  (1) 
28
1 -0.29
10 -0.62
11 -0.62
12 0.1
13 0.72
14 -0.15
15 -0.15
16 0.48
17 0.48
18 0.08
19 -0.15
2 -0.29
20 -0.15
21 1.01
22 1.01
23 0.28
24 0.4
25 0.15
26 0.15
27 0.15
28 0.15
3 -0.29
4 -0.29
5 -0.29
6 -0.29
7 -0.36
8 -0.6
9 -0.62

>  <PUBCHEM_EFFECTIVE_ROTOR_COUNT>  (1) 
5

>  <PUBCHEM_PHARMACOPHORE_FEATURES>  (1) 
5
1 7 acceptor
1 8 donor
4 8 9 10 13 cation
6 12 14 15 18 19 20 rings
6 9 10 11 13 16 17 rings

>  <PUBCHEM_HEAVY_ATOM_COUNT>  (1) 
23

>  <PUBCHEM_ATOM_DEF_STEREO_COUNT>  (1) 
0

>  <PUBCHEM_ATOM_UDEF_STEREO_COUNT>  (1) 
0

>  <PUBCHEM_BOND_DEF_STEREO_COUNT>  (1) 
0

>  <PUBCHEM_BOND_UDEF_STEREO_COUNT>  (1) 
0

>  <PUBCHEM_ISOTOPIC_ATOM_COUNT>  (1) 
0

>  <PUBCHEM_COMPONENT_COUNT>  (1) 
1

>  <PUBCHEM_CACTVS_TAUTO_COUNT>  (1) 
3

>  <PUBCHEM_CONFORMER_ID>  (1) 
0000889A00000001

>  <PUBCHEM_MMFF94_ENERGY>  (1) 
69.0983

>  <PUBCHEM_FEATURE_SELFOVERLAP>  (1) 
25.371

>  <PUBCHEM_SHAPE_FINGERPRINT>  (1) 
11405975 8 18408886278343624339
11578080 2 15069776139054296772
12166972 35 17988924470592939371
12553582 1 18413102862544806430
12616971 3 17989208187948851167
12788726 201 18263930934646028602
13004483 165 18267574720338431546
13134695 92 18059848476384612592
13140716 1 18338507663761284915
13402501 40 18336261250432707333
13533116 47 18339927147028083355
138480 1 18410856594184663948
14341114 176 18409736166403311849
14347329 18 16879612805605747477
14466204 15 18263637381762098715
14866123 147 17330556445328807826
15042514 8 17978508633755391114
15196674 1 18337110176588551607
15238133 3 18186799158400619722
15420108 30 17699265975208493216
16087824 20 18194122911286773261
17492 89 18194964269441476723
17844677 252 18337962285268326539
17868525 174 18408316679284833113
17980427 23 17417540124630348081
1813 80 18130238068591871222
18222031 100 18131074805588721270
18335252 114 18339631232561241117
18785283 64 18189897698316458300
20642791 239 17898036696563595860
20832881 197 18333732385993696722
21033648 29 17749654243773075261
21065198 57 18336548317462345747
21279426 13 18120931707553076471
21285901 2 18057894541190332574
21478907 32 18050288068378743802
21641784 216 18116171986473558876
21709351 56 18342734135657632207
221357 26 18408882902472696069
221490 88 18263371450161450659
22289505 5 18410577279602403110
23557571 272 18127412251184601158
23559900 14 18411696612710049779
3004659 81 17968663718521002750
314173 41 18335423448163070242
335352 9 18409448064455561703
3411729 13 18267295625095389152
3421961 26 18412260662043314480
350125 39 18335141968996848653
5104073 3 18337956809163808963
633830 44 18115017627992099051
6443956 14 18408608041566669214
7164475 11 18119534233128614766
7364860 26 18269556212052978152
7495541 125 18113903787878643946
81228 2 18122918534071022978
9709674 26 18191307293793478003
9841814 1 18335133220269474370
9971528 1 18060701684770648230
9981440 41 17619620727882451640

>  <PUBCHEM_SHAPE_MULTIPOLES>  (1) 
458.75
12.44
4.02
1.1
14.06
3.4
-0.05
-5.27
0.69
-3.95
-0.32
-1.28
0.46
0.82

>  <PUBCHEM_SHAPE_SELFOVERLAP>  (1) 
908.611

>  <PUBCHEM_SHAPE_VOLUME>  (1) 
272.5

>  <PUBCHEM_COORDINATE_TYPE>  (1) 
2
5
10

$$$$
