34986
     RDKit          3D

 20 20  0  0  1  0  0  0  0  0999 V2000
   -3.9605    0.2402   -2.6319 Cl  0  0  0  0  0  0  0  0  0  0  0  0
   -2.7316   -2.2258   -1.7858 Cl  0  0  0  0  0  0  0  0  0  0  0  0
   -4.9013   -1.1359   -0.2262 Cl  0  0  0  0  0  0  0  0  0  0  0  0
    0.8092    0.0241    0.8925 N   0  0  0  0  0  0  0  0  0  0  0  0
   -1.2728   -0.3306   -0.1262 N   0  0  0  0  0  0  0  0  0  0  0  0
   -0.8630    1.6433    1.1752 N   0  0  0  0  0  0  0  0  0  0  0  0
   -3.0043    1.3083    0.1453 N   0  0  0  0  0  0  0  0  0  0  0  0
    1.3480   -1.2221    0.3846 C   0  0  0  0  0  0  0  0  0  0  0  0
    2.8829   -1.1666    0.3721 C   0  0  0  0  0  0  0  0  0  0  0  0
    3.4171   -0.0013   -0.4700 C   0  0  0  0  0  0  0  0  0  0  0  0
    0.7939   -2.3948    1.2097 C   0  0  0  0  0  0  0  0  0  0  0  0
    4.9471    0.0166   -0.4846 C   0  0  0  0  0  0  0  0  0  0  0  0
    5.4819    1.2007   -1.2898 C   0  0  0  0  0  0  0  0  0  0  0  0
    1.1887   -2.3916    2.6817 C   0  0  0  0  0  0  0  0  0  0  0  0
   -0.4790    0.4579    0.6400 C   0  0  0  0  0  0  0  0  0  0  0  0
    7.0015    1.2028   -1.3350 C   0  0  0  0  0  0  0  0  0  0  0  0
   -2.5087    0.1538   -0.3285 C   0  0  0  0  0  0  0  0  0  0  0  0
   -2.1255    2.0000    0.8885 C   0  0  0  0  0  0  0  0  0  0  0  0
   -3.4238   -0.6746   -1.1643 C   0  0  0  0  0  0  0  0  0  0  0  0
   -2.5996    3.2957    1.4527 C   0  0  0  0  0  0  0  0  0  0  0  0
  1 19  1  0
  2 19  1  0
  3 19  1  0
  4  8  1  0
  4 15  1  0
  5 15  2  0
  5 17  1  0
  6 15  1  0
  6 18  2  0
  7 17  2  0
  7 18  1  0
  8  9  1  0
  8 11  1  0
  9 10  1  0
 10 12  1  0
 11 14  1  0
 12 13  1  0
 13 16  1  0
 17 19  1  0
 18 20  1  0
M  END
>  <PUBCHEM_COMPOUND_CID>  (1) 
34986

>  <PUBCHEM_CONFORMER_RMSD>  (1) 
0.8

>  <PUBCHEM_CONFORMER_DIVERSEORDER>  (1) 
1
442
302
418
229
166
72
134
383
196
287
209
438
180
242
387
270
329
116
306
407
211
32
440
193
271
267
434
13
126
252
169
162
367
241
245
29
261
220
177
40
161
247
397
112
349
124
250
401
16
392
359
223
107
411
103
200
213
167
410
339
257
431
121
361
312
195
60
426
231
173
319
264
6
31
381
269
236
373
219
120
251
129
342
330
82
56
246
105
92
289
425
280
130
23
428
327
233
165
218
109
322
88
308
363
102
406
117
186
249
318
224
341
192
286
262
137
163
409
85
150
146
75
238
52
265
8
234
413
139
422
49
66
28
294
225
243
45
204
42
441
299
235
416
108
21
230
326
350
133
22
39
420
171
277
324
402
291
283
404
113
154
2
217
365
123
208
325
78
76
403
222
360
352
344
207
179
323
390
354
432
216
307
14
97
228
71
310
136
317
181
244
4
284
321
90
184
443
371
63
170
316
337
412
384
335
368
84
199
320
282
355
427
38
131
182
300
405
274
303
439
61
385
194
415
253
239
159
111
174
132
278
358
101
399
118
68
91
122
202
414
98
298
80
311
9
285
334
83
160
57
272
69
64
343
377
370
268
156
375
141
433
119
351
389
279
348
144
380
152
87
379
314
436
153
110
190
79
37
382
421
187
333
408
290
263
313
65
11
47
292
175
221
34
256
12
27
35
125
50
429
437
54
157
237
240
127
378
168
142
145
346
340
215
99
77
301
183
258
94
338
356
89
128
248
51
70
74
328
106
36
198
332
197
364
331
232
366
293
58
226
260
305
275
96
100
48
46
147
188
164
189
149
295
43
315
3
73
93
44
393
62
296
423
388
41
18
353
395
266
435
151
254
227
259
424
26
430
394
212
24
203
135
255
185
288
20
19
176
417
10
53
281
297
309
273
86
55
201
400
336
158
374
59
138
357
5
210
372
391
104
369
304
205
419
15
115
178
17
114
148
81
67
396
376
140
30
95
33
191
143
345
7
25
398
276
362
214
155
206
386
172
347

>  <PUBCHEM_MMFF94_PARTIAL_CHARGES>  (1) 
14
1 -0.29
15 0.72
17 0.48
18 0.48
19 1.01
2 -0.29
20 0.14
3 -0.29
30 0.4
4 -0.87
5 -0.62
6 -0.62
7 -0.62
8 0.37

>  <PUBCHEM_EFFECTIVE_ROTOR_COUNT>  (1) 
8

>  <PUBCHEM_PHARMACOPHORE_FEATURES>  (1) 
6
1 14 hydrophobe
1 16 hydrophobe
1 4 donor
4 4 5 6 15 cation
4 9 10 12 13 hydrophobe
6 5 6 7 15 17 18 rings

>  <PUBCHEM_HEAVY_ATOM_COUNT>  (1) 
20

>  <PUBCHEM_ATOM_DEF_STEREO_COUNT>  (1) 
0

>  <PUBCHEM_ATOM_UDEF_STEREO_COUNT>  (1) 
1

>  <PUBCHEM_BOND_DEF_STEREO_COUNT>  (1) 
0

>  <PUBCHEM_BOND_UDEF_STEREO_COUNT>  (1) 
0

>  <PUBCHEM_ISOTOPIC_ATOM_COUNT>  (1) 
0

>  <PUBCHEM_COMPONENT_COUNT>  (1) 
1

>  <PUBCHEM_CACTVS_TAUTO_COUNT>  (1) 
4

>  <PUBCHEM_CONFORMER_ID>  (1) 
000088AA00000001

>  <PUBCHEM_MMFF94_ENERGY>  (1) 
29.7973

>  <PUBCHEM_FEATURE_SELFOVERLAP>  (1) 
30.447

>  <PUBCHEM_SHAPE_FINGERPRINT>  (1) 
10042902 136 16270785913776913461
11049842 53 17413023188971832462
11725454 13 15502643927785406146
12553582 1 18058710490951527999
12788726 201 18272079454031879483
13673619 4 16128372726677445079
14251757 5 18199465639643081262
14251764 30 14476962311386794828
15806764 133 16199854099144014161
15842332 3 18122052113927806691
16752209 62 17843659111871396023
20300324 65 18273502273354182196
204376 136 17676214571976767578
20693207 138 16271913926865686910
20871999 31 17846780684952986068
21033648 29 15647059227133521918
21618674 53 18198072382221363329
22620623 9 17131823236328481205
22907989 373 18197201573850944549
22950370 63 12967131644618184750
23557571 272 17346609560060083612
23559900 14 17560505287636126856
23598291 2 18193268585849719570
23598294 1 18058722495289830851
238078 22 18341327902939999543
25147074 1 18194672675130595603
2838139 119 17095515236750113620
474 4 18114472145717903416
5486654 36 11743543401922730364
57096353 35 18341322319155031902
59755656 520 18041296404279045746
603831 33 18339069415519109235
6049 1 16056012689679830011
621550 5 16200145551493445795
633830 44 18189911811784825266
7615 1 18048296878300047155

>  <PUBCHEM_SHAPE_MULTIPOLES>  (1) 
397.28
11.88
2.83
2.18
19.26
0.61
-0.12
3.94
-8.91
-1.53
1.82
-0.95
-0.49
-3.16

>  <PUBCHEM_SHAPE_SELFOVERLAP>  (1) 
754.208

>  <PUBCHEM_SHAPE_VOLUME>  (1) 
242

>  <PUBCHEM_COORDINATE_TYPE>  (1) 
2
5
10

$$$$
