34982
     RDKit          3D

 19 19  0  0  0  0  0  0  0  0999 V2000
   -1.6350    3.2142    1.4603 Cl  0  0  0  0  0  0  0  0  0  0  0  0
    0.8201    3.5833   -0.0037 Cl  0  0  0  0  0  0  0  0  0  0  0  0
   -1.6379    3.2011   -1.4663 Cl  0  0  0  0  0  0  0  0  0  0  0  0
   -3.7524   -1.4218   -1.4693 Cl  0  0  0  0  0  0  0  0  0  0  0  0
   -2.4380   -3.5209    0.0047 Cl  0  0  0  0  0  0  0  0  0  0  0  0
   -3.7598   -1.4068    1.4574 Cl  0  0  0  0  0  0  0  0  0  0  0  0
    3.4215    0.6076    0.0065 O   0  0  0  0  0  0  0  0  0  0  0  0
    1.9842   -1.2505    0.0066 N   0  0  0  0  0  0  0  0  0  0  0  0
   -0.3392   -1.5043    0.0038 N   0  0  0  0  0  0  0  0  0  0  0  0
    0.6612    0.6768    0.0042 N   0  0  0  0  0  0  0  0  0  0  0  0
   -1.7278    0.4526   -0.0004 N   0  0  0  0  0  0  0  0  0  0  0  0
    0.6981   -0.6601    0.0052 C   0  0  0  0  0  0  0  0  0  0  0  0
   -1.5252   -0.8748    0.0010 C   0  0  0  0  0  0  0  0  0  0  0  0
   -0.5896    1.1651    0.0012 C   0  0  0  0  0  0  0  0  0  0  0  0
    4.3520   -1.6134    0.0093 C   0  0  0  0  0  0  0  0  0  0  0  0
    3.2158   -0.6017    0.0072 C   0  0  0  0  0  0  0  0  0  0  0  0
   -0.7287    2.6496   -0.0018 C   0  0  0  0  0  0  0  0  0  0  0  0
   -2.7406   -1.7378   -0.0012 C   0  0  0  0  0  0  0  0  0  0  0  0
    5.7212   -0.9584   -0.0246 C   0  0  0  0  0  0  0  0  0  0  0  0
  1 17  1  0
  2 17  1  0
  3 17  1  0
  4 18  1  0
  5 18  1  0
  6 18  1  0
  7 16  2  0
  8 12  1  0
  8 16  1  0
  9 12  2  0
  9 13  1  0
 10 12  1  0
 10 14  2  0
 11 13  2  0
 11 14  1  0
 13 18  1  0
 14 17  1  0
 15 16  1  0
 15 19  1  0
M  END
>  <PUBCHEM_COMPOUND_CID>  (1) 
34982

>  <PUBCHEM_CONFORMER_RMSD>  (1) 
0.6

>  <PUBCHEM_CONFORMER_DIVERSEORDER>  (1) 
1
21
19
14
6
12
22
18
13
24
7
9
20
3
23
16
17
4
5
10
15
8
2
11

>  <PUBCHEM_MMFF94_PARTIAL_CHARGES>  (1) 
19
1 -0.29
10 -0.62
11 -0.62
12 0.74
13 0.48
14 0.48
15 0.06
16 0.57
17 1.01
18 1.01
2 -0.29
22 0.37
3 -0.29
4 -0.29
5 -0.29
6 -0.29
7 -0.57
8 -0.55
9 -0.62

>  <PUBCHEM_EFFECTIVE_ROTOR_COUNT>  (1) 
5

>  <PUBCHEM_PHARMACOPHORE_FEATURES>  (1) 
6
1 19 hydrophobe
1 7 acceptor
1 8 donor
3 10 11 14 cation
3 9 11 13 cation
6 9 10 11 12 13 14 rings

>  <PUBCHEM_HEAVY_ATOM_COUNT>  (1) 
19

>  <PUBCHEM_ATOM_DEF_STEREO_COUNT>  (1) 
0

>  <PUBCHEM_ATOM_UDEF_STEREO_COUNT>  (1) 
0

>  <PUBCHEM_BOND_DEF_STEREO_COUNT>  (1) 
0

>  <PUBCHEM_BOND_UDEF_STEREO_COUNT>  (1) 
0

>  <PUBCHEM_ISOTOPIC_ATOM_COUNT>  (1) 
0

>  <PUBCHEM_COMPONENT_COUNT>  (1) 
1

>  <PUBCHEM_CACTVS_TAUTO_COUNT>  (1) 
4

>  <PUBCHEM_CONFORMER_ID>  (1) 
000088A600000001

>  <PUBCHEM_MMFF94_ENERGY>  (1) 
31.5397

>  <PUBCHEM_FEATURE_SELFOVERLAP>  (1) 
31.37

>  <PUBCHEM_SHAPE_FINGERPRINT>  (1) 
10670039 82 18335434495684158604
1100329 8 18412830166349425393
11045515 52 18187926226380285588
12553582 1 18411143570982916710
12788726 201 18263629689518083875
13140716 1 18340495576721425779
13583140 156 16662348178122665456
138480 1 15600327422899618048
13955234 65 17404868541099809923
14508225 48 18339630209319840116
15042514 8 18265341603273209688
16945 1 18050568748875623273
17357779 13 18268409352352323069
1813 80 18270700751648686215
19591789 44 17259353167482669318
20510252 161 18340205198393509570
20600515 1 18129678498429701259
20671657 53 18267867366287533431
21029758 11 18341040917393270783
21029758 27 18335431208867975427
21041028 32 18339939207021846921
21202864 24 18127425453186296473
21339142 126 18411421687284477035
21339142 51 18408315584210526007
21524375 3 17550937096922105293
221490 88 17831017192967931795
22182937 141 18128540349640179696
2297311 6 18340220626296150222
23175994 123 18334858355031433391
23402539 116 18342733005342728775
23419403 2 18118096268765325908
23526113 38 17679583616800156579
23557571 272 18272371932487851726
23558518 356 18044388131802103530
23559900 14 18338226185117328282
23598294 1 18263922142351841786
23845131 108 17619643379872760777
2748010 2 18192695946803558301
283562 15 18410007702314477587
3091708 16 9134966354305984576
352729 6 17906166252788145819
4409770 3 18261948540718518647
458136 41 17109615605671672475
5104073 3 18267299838642786778
58779409 54 18338221661978702116
59755656 520 17910960140881630000
621550 5 17314238937369648415
68521 5 18408601439916721974
7364860 26 17763745790261810195
81228 2 18339930311785718083

>  <PUBCHEM_SHAPE_MULTIPOLES>  (1) 
376.44
7.76
4.68
1.12
11.31
3.87
-0.01
-7.33
-0.03
-2.99
0
-1.35
0.48
0

>  <PUBCHEM_SHAPE_SELFOVERLAP>  (1) 
711.563

>  <PUBCHEM_SHAPE_VOLUME>  (1) 
231.9

>  <PUBCHEM_COORDINATE_TYPE>  (1) 
2
5
10

$$$$
