34981
     RDKit          3D

 18 18  0  0  0  0  0  0  0  0999 V2000
   -3.6608   -0.7787   -1.4650 Cl  0  0  0  0  0  0  0  0  0  0  0  0
   -2.7757   -3.0946    0.0048 Cl  0  0  0  0  0  0  0  0  0  0  0  0
   -3.6597   -0.7658    1.4616 Cl  0  0  0  0  0  0  0  0  0  0  0  0
   -0.6788    3.3554    1.4635 Cl  0  0  0  0  0  0  0  0  0  0  0  0
    1.7985    3.2427   -0.0053 Cl  0  0  0  0  0  0  0  0  0  0  0  0
   -0.6896    3.3462   -1.4632 Cl  0  0  0  0  0  0  0  0  0  0  0  0
    3.7912   -0.1915   -0.0005 O   0  0  0  0  0  0  0  0  0  0  0  0
   -1.3083    0.6658    0.0009 N   0  0  0  0  0  0  0  0  0  0  0  0
    1.0788    0.4222    0.0009 N   0  0  0  0  0  0  0  0  0  0  0  0
   -0.3256   -1.5233    0.0010 N   0  0  0  0  0  0  0  0  0  0  0  0
    2.0029   -1.7250   -0.0009 N   0  0  0  0  0  0  0  0  0  0  0  0
   -1.3671   -0.6758    0.0010 C   0  0  0  0  0  0  0  0  0  0  0  0
   -0.0535    1.1439    0.0008 C   0  0  0  0  0  0  0  0  0  0  0  0
    0.8655   -0.9034    0.0008 C   0  0  0  0  0  0  0  0  0  0  0  0
   -2.7267   -1.2866    0.0008 C   0  0  0  0  0  0  0  0  0  0  0  0
    0.0980    2.6272   -0.0010 C   0  0  0  0  0  0  0  0  0  0  0  0
    3.3434   -1.3335   -0.0015 C   0  0  0  0  0  0  0  0  0  0  0  0
    4.2675   -2.5253    0.0013 C   0  0  0  0  0  0  0  0  0  0  0  0
  1 15  1  0
  2 15  1  0
  3 15  1  0
  4 16  1  0
  5 16  1  0
  6 16  1  0
  7 17  2  0
  8 12  2  0
  8 13  1  0
  9 13  2  0
  9 14  1  0
 10 12  1  0
 10 14  2  0
 11 14  1  0
 11 17  1  0
 12 15  1  0
 13 16  1  0
 17 18  1  0
M  END
>  <PUBCHEM_COMPOUND_CID>  (1) 
34981

>  <PUBCHEM_CONFORMER_RMSD>  (1) 
0.6

>  <PUBCHEM_CONFORMER_DIVERSEORDER>  (1) 
1
13
7
12
3
9
8
10
4
5
11
2
6

>  <PUBCHEM_MMFF94_PARTIAL_CHARGES>  (1) 
19
1 -0.29
10 -0.62
11 -0.55
12 0.48
13 0.48
14 0.74
15 1.01
16 1.01
17 0.57
18 0.06
19 0.37
2 -0.29
3 -0.29
4 -0.29
5 -0.29
6 -0.29
7 -0.57
8 -0.62
9 -0.62

>  <PUBCHEM_EFFECTIVE_ROTOR_COUNT>  (1) 
4

>  <PUBCHEM_PHARMACOPHORE_FEATURES>  (1) 
5
1 11 donor
1 7 acceptor
3 8 10 12 cation
3 8 9 13 cation
6 8 9 10 12 13 14 rings

>  <PUBCHEM_HEAVY_ATOM_COUNT>  (1) 
18

>  <PUBCHEM_ATOM_DEF_STEREO_COUNT>  (1) 
0

>  <PUBCHEM_ATOM_UDEF_STEREO_COUNT>  (1) 
0

>  <PUBCHEM_BOND_DEF_STEREO_COUNT>  (1) 
0

>  <PUBCHEM_BOND_UDEF_STEREO_COUNT>  (1) 
0

>  <PUBCHEM_ISOTOPIC_ATOM_COUNT>  (1) 
0

>  <PUBCHEM_COMPONENT_COUNT>  (1) 
1

>  <PUBCHEM_CACTVS_TAUTO_COUNT>  (1) 
4

>  <PUBCHEM_CONFORMER_ID>  (1) 
000088A500000001

>  <PUBCHEM_MMFF94_ENERGY>  (1) 
32.524

>  <PUBCHEM_FEATURE_SELFOVERLAP>  (1) 
26.296

>  <PUBCHEM_SHAPE_FINGERPRINT>  (1) 
10967382 1 17906452482304111650
1100329 8 18268996397283856025
12553582 1 18411424994483368822
13140716 1 18412550894357920211
14508225 48 18339630140863880124
14790565 3 17978793406903891237
15042514 8 17977111158491860922
16945 1 18266740379743077377
1813 80 18270699600623876631
18785283 64 17755312505932947497
19591789 44 17404030218921962019
20510252 161 18267582416803385346
20600515 1 18201451258794812163
20645477 70 17975398428904068655
20671657 1 17910400815838122755
20671657 53 18412260670644045503
21029758 11 18341321241292307399
21029758 27 18335434460121269263
21041028 32 18340502109656904889
21524375 3 17118310010673568864
221490 88 18119528996946685451
23175994 123 18334861593426212087
23402539 116 18270672048466720887
23557571 272 18200313200394535574
23559900 14 18410001118894445186
23598291 2 17843685714350396679
23598294 1 18047752603022905362
2748010 2 18336530707621535637
3071541 158 18262231243760392429
3091708 16 9210391748301843256
352729 6 17617655454011171906
43471831 8 17690844883595353995
458136 41 17470186103009954355
59755656 215 17833270096888431479
6992083 37 18130236999213819875
7364860 26 18052256490128065643
81228 2 18196094343617791363

>  <PUBCHEM_SHAPE_MULTIPOLES>  (1) 
355.86
6.23
4.72
1.15
0.8
3.34
0
-6.64
0
2.38
0
-1.08
0.8
0

>  <PUBCHEM_SHAPE_SELFOVERLAP>  (1) 
672.452

>  <PUBCHEM_SHAPE_VOLUME>  (1) 
219.2

>  <PUBCHEM_COORDINATE_TYPE>  (1) 
2
5
10

$$$$
