34992
     RDKit          3D

 14 14  0  0  0  0  0  0  0  0999 V2000
   -2.9313    0.8384    1.4638 Cl  0  0  0  0  0  0  0  0  0  0  0  0
   -1.3491    2.7481   -0.0048 Cl  0  0  0  0  0  0  0  0  0  0  0  0
   -2.9305    0.8247   -1.4629 Cl  0  0  0  0  0  0  0  0  0  0  0  0
    2.6252    2.2810    0.0002 O   0  0  0  0  0  0  0  0  0  0  0  0
   -1.1638   -1.2840    0.0009 N   0  0  0  0  0  0  0  0  0  0  0  0
    0.4687    0.4747    0.0011 N   0  0  0  0  0  0  0  0  0  0  0  0
    1.1756   -1.8184    0.0009 N   0  0  0  0  0  0  0  0  0  0  0  0
    2.7393   -0.0812   -0.0007 N   0  0  0  0  0  0  0  0  0  0  0  0
   -0.7895    0.0056    0.0010 C   0  0  0  0  0  0  0  0  0  0  0  0
   -0.1283   -2.1391    0.0009 C   0  0  0  0  0  0  0  0  0  0  0  0
    1.3983   -0.4942    0.0009 C   0  0  0  0  0  0  0  0  0  0  0  0
   -1.8822    1.0200   -0.0007 C   0  0  0  0  0  0  0  0  0  0  0  0
   -0.4598   -3.5923    0.0005 C   0  0  0  0  0  0  0  0  0  0  0  0
    3.2275    1.2166   -0.0010 C   0  0  0  0  0  0  0  0  0  0  0  0
  1 12  1  0
  2 12  1  0
  3 12  1  0
  4 14  2  0
  5  9  2  0
  5 10  1  0
  6  9  1  0
  6 11  2  0
  7 10  2  0
  7 11  1  0
  8 11  1  0
  8 14  1  0
  9 12  1  0
 10 13  1  0
M  END
>  <PUBCHEM_COMPOUND_CID>  (1) 
34992

>  <PUBCHEM_CONFORMER_RMSD>  (1) 
0.6

>  <PUBCHEM_CONFORMER_DIVERSEORDER>  (1) 
1
7
5
2
8
6
3
4

>  <PUBCHEM_MMFF94_PARTIAL_CHARGES>  (1) 
16
1 -0.29
10 0.48
11 0.74
12 1.01
13 0.14
14 0.57
18 0.37
19 0.06
2 -0.29
3 -0.29
4 -0.57
5 -0.62
6 -0.62
7 -0.62
8 -0.55
9 0.48

>  <PUBCHEM_EFFECTIVE_ROTOR_COUNT>  (1) 
3

>  <PUBCHEM_PHARMACOPHORE_FEATURES>  (1) 
5
1 4 acceptor
1 8 donor
3 5 6 9 cation
3 5 7 10 cation
6 5 6 7 9 10 11 rings

>  <PUBCHEM_HEAVY_ATOM_COUNT>  (1) 
14

>  <PUBCHEM_ATOM_DEF_STEREO_COUNT>  (1) 
0

>  <PUBCHEM_ATOM_UDEF_STEREO_COUNT>  (1) 
0

>  <PUBCHEM_BOND_DEF_STEREO_COUNT>  (1) 
0

>  <PUBCHEM_BOND_UDEF_STEREO_COUNT>  (1) 
0

>  <PUBCHEM_ISOTOPIC_ATOM_COUNT>  (1) 
0

>  <PUBCHEM_COMPONENT_COUNT>  (1) 
1

>  <PUBCHEM_CACTVS_TAUTO_COUNT>  (1) 
5

>  <PUBCHEM_CONFORMER_ID>  (1) 
000088B000000001

>  <PUBCHEM_MMFF94_ENERGY>  (1) 
24.9041

>  <PUBCHEM_FEATURE_SELFOVERLAP>  (1) 
26.296

>  <PUBCHEM_SHAPE_FINGERPRINT>  (1) 
1 1 18266180526202808718
13380535 76 18341041982592717462
14648413 74 17760089514678267001
15309172 13 18410583872430092777
16945 1 18194402178190714663
17841504 4 17616265680246385379
17990270 104 17688871930433735483
18186145 218 18343306929174643244
20510252 161 17907577283100149530
21041028 32 17041778486499972147
21130352 189 16825305507720958649
21160774 45 18265330788830687215
21524375 3 18272083885889593354
228727 97 17845919767781097045
2334 1 18338515351747469718
23402539 116 18127963307498055543
23419403 2 11191425953164503819
23526114 1 17763742087841973022
23552423 10 17980751650144502877
23557571 272 17911251829580617308
23598291 2 17555729907031299269
2748010 2 18336838540728126263
3071541 236 18191848210205714858
31174 14 17832729888928968745
6333449 129 18339079414255572308
7364860 26 17979354153348178615
7832392 63 17404294101728790349
81228 2 18049729816850376242

>  <PUBCHEM_SHAPE_MULTIPOLES>  (1) 
267.93
4.46
3.45
0.95
0.07
1.98
0
-3.1
0
1.36
0
-1.09
-0.11
0

>  <PUBCHEM_SHAPE_SELFOVERLAP>  (1) 
520.102

>  <PUBCHEM_SHAPE_VOLUME>  (1) 
160.6

>  <PUBCHEM_COORDINATE_TYPE>  (1) 
2
5
10

$$$$
