3499
     RDKit          3D

 33 37  0  0  0  0  0  0  0  0999 V2000
   -0.9383   -3.8326    2.6517 O   0  0  0  0  0  0  0  0  0  0  0  0
   -1.4045   -2.2187   -3.4375 O   0  0  0  0  0  0  0  0  0  0  0  0
   -4.0998    1.3602   -2.4982 O   0  0  0  0  0  0  0  0  0  0  0  0
    2.1936   -1.0002   -0.8450 N   0  0  0  0  0  0  0  0  0  0  0  0
   -3.0019   -0.5432   -3.2506 N   0  0  0  0  0  0  0  0  0  0  0  0
    6.1008    1.7149    0.4025 N   0  0  0  0  0  0  0  0  0  0  0  0
   -1.2435    3.5439    0.3907 N   0  0  0  0  0  0  0  0  0  0  0  0
    0.0083   -0.8351   -1.2164 C   0  0  0  0  0  0  0  0  0  0  0  0
    1.5867   -1.7692    0.1223 C   0  0  0  0  0  0  0  0  0  0  0  0
    0.2089   -1.6828   -0.0887 C   0  0  0  0  0  0  0  0  0  0  0  0
    3.6202   -0.8089   -0.9943 C   0  0  0  0  0  0  0  0  0  0  0  0
    1.2497   -0.4321   -1.6577 C   0  0  0  0  0  0  0  0  0  0  0  0
   -1.2300   -0.4458   -1.8163 C   0  0  0  0  0  0  0  0  0  0  0  0
    4.1264    0.3924   -0.1964 C   0  0  0  0  0  0  0  0  0  0  0  0
   -2.0165    0.6126   -1.5478 C   0  0  0  0  0  0  0  0  0  0  0  0
    5.6309    0.5785   -0.3809 C   0  0  0  0  0  0  0  0  0  0  0  0
   -1.8599    1.6359   -0.5614 C   0  0  0  0  0  0  0  0  0  0  0  0
   -0.6547   -2.3863    0.7742 C   0  0  0  0  0  0  0  0  0  0  0  0
    2.1463   -2.5270    1.1572 C   0  0  0  0  0  0  0  0  0  0  0  0
   -1.8562   -1.2076   -2.9270 C   0  0  0  0  0  0  0  0  0  0  0  0
   -2.3465    1.6435    0.7759 C   0  0  0  0  0  0  0  0  0  0  0  0
   -3.1782    0.5620   -2.4719 C   0  0  0  0  0  0  0  0  0  0  0  0
   -0.1092   -3.1483    1.8138 C   0  0  0  0  0  0  0  0  0  0  0  0
    1.2701   -3.2162    2.0005 C   0  0  0  0  0  0  0  0  0  0  0  0
   -1.9461    2.8514    1.3509 C   0  0  0  0  0  0  0  0  0  0  0  0
   -1.1862    2.8176   -0.7684 C   0  0  0  0  0  0  0  0  0  0  0  0
   -3.0913    0.7356    1.5546 C   0  0  0  0  0  0  0  0  0  0  0  0
   -2.2545    3.1984    2.6710 C   0  0  0  0  0  0  0  0  0  0  0  0
    5.4513    2.9500   -0.0401 C   0  0  0  0  0  0  0  0  0  0  0  0
    7.5558    1.8431    0.3037 C   0  0  0  0  0  0  0  0  0  0  0  0
   -3.4072    1.0693    2.8767 C   0  0  0  0  0  0  0  0  0  0  0  0
   -2.9943    2.2823    3.4243 C   0  0  0  0  0  0  0  0  0  0  0  0
   -2.3301   -3.7376    2.4285 C   0  0  0  0  0  0  0  0  0  0  0  0
  1 23  1  0
  1 33  1  0
  2 20  2  0
  3 22  2  0
  4  9  1  0
  4 11  1  0
  4 12  1  0
  5 20  1  0
  5 22  1  0
  6 16  1  0
  6 29  1  0
  6 30  1  0
  7 25  1  0
  7 26  1  0
  8 10  1  0
  8 12  2  0
  8 13  1  0
  9 10  2  0
  9 19  1  0
 10 18  1  0
 11 14  1  0
 13 15  2  0
 13 20  1  0
 14 16  1  0
 15 17  1  0
 15 22  1  0
 17 21  1  0
 17 26  2  0
 18 23  2  0
 19 24  2  0
 21 25  2  0
 21 27  1  0
 23 24  1  0
 25 28  1  0
 27 31  2  0
 28 32  2  0
 31 32  1  0
M  END
>  <PUBCHEM_COMPOUND_CID>  (1) 
3499

>  <PUBCHEM_CONFORMER_RMSD>  (1) 
1

>  <PUBCHEM_CONFORMER_DIVERSEORDER>  (1) 
1
63
52
42
43
51
44
36
38
60
62
48
64
55
35
37
23
49
3
39
9
29
18
17
19
50
26
59
11
31
53
46
8
24
22
40
5
27
28
56
30
33
10
14
4
21
15
12
20
47
32
13
34
61
7
16
54
45
2
58
41
25
6
57

>  <PUBCHEM_MMFF94_PARTIAL_CHARGES>  (1) 
41
1 -0.36
11 0.26
12 -0.3
13 0.06
15 0.06
16 0.27
17 -0.05
18 -0.15
19 -0.15
2 -0.57
20 0.62
22 0.62
23 0.08
24 -0.15
25 -0.15
26 -0.3
27 -0.15
28 -0.15
29 0.27
3 -0.57
30 0.27
31 -0.15
32 -0.15
33 0.28
36 0.15
4 0.05
41 0.15
42 0.15
43 0.15
44 0.37
45 0.15
46 0.27
47 0.15
48 0.15
5 -0.49
55 0.15
56 0.15
6 -0.81
7 0.03
8 -0.05
9 -0.15

>  <PUBCHEM_EFFECTIVE_ROTOR_COUNT>  (1) 
7.2

>  <PUBCHEM_PHARMACOPHORE_FEATURES>  (1) 
13
1 1 acceptor
1 2 acceptor
1 3 acceptor
1 4 cation
1 5 donor
1 6 cation
1 7 cation
1 7 donor
5 4 8 9 10 12 rings
5 5 13 15 20 22 rings
5 7 17 21 25 26 rings
6 21 25 27 28 31 32 rings
6 9 10 18 19 23 24 rings

>  <PUBCHEM_HEAVY_ATOM_COUNT>  (1) 
33

>  <PUBCHEM_ATOM_DEF_STEREO_COUNT>  (1) 
0

>  <PUBCHEM_ATOM_UDEF_STEREO_COUNT>  (1) 
0

>  <PUBCHEM_BOND_DEF_STEREO_COUNT>  (1) 
0

>  <PUBCHEM_BOND_UDEF_STEREO_COUNT>  (1) 
0

>  <PUBCHEM_ISOTOPIC_ATOM_COUNT>  (1) 
0

>  <PUBCHEM_COMPONENT_COUNT>  (1) 
1

>  <PUBCHEM_CACTVS_TAUTO_COUNT>  (1) 
8

>  <PUBCHEM_CONFORMER_ID>  (1) 
00000DAB00000001

>  <PUBCHEM_MMFF94_ENERGY>  (1) 
78.1635

>  <PUBCHEM_FEATURE_SELFOVERLAP>  (1) 
66.156

>  <PUBCHEM_SHAPE_FINGERPRINT>  (1) 
12156800 1 17619118135294363872
12160290 23 17897184600505992070
12403259 327 16675024280259784553
12655364 131 17900510447450001970
12655364 74 17412485880622418320
12788726 201 17631432528318246861
13583140 156 17613166173710048141
14713325 29 17489590099427798518
15021287 119 17908979908088327698
15219462 58 17393062650860149885
15513586 35 17905897225466331908
15968369 153 17700991078619281888
19304152 47 18115033992066118788
20642791 239 18198595861900653245
21756936 100 18267602221108590350
23419403 2 17614562974790398239
35225 105 17749104547360450114
392239 28 18265076758473173323
469060 322 17530970236524111007
563151 74 17896886439390996773
57527306 92 18202283641422330751
57527585 103 18117288162336689180
7288768 16 18340502083776441880
9981440 41 17531793658911269516

>  <PUBCHEM_SHAPE_MULTIPOLES>  (1) 
641.59
9.82
4.94
3.82
25.06
1.18
0.75
-10.18
-1.12
-1
-4.44
-6.13
1.2
-1.09

>  <PUBCHEM_SHAPE_SELFOVERLAP>  (1) 
1426.127

>  <PUBCHEM_SHAPE_VOLUME>  (1) 
347.8

>  <PUBCHEM_COORDINATE_TYPE>  (1) 
2
5
10

$$$$
