34995
     RDKit          3D

 17 17  0  0  0  0  0  0  0  0999 V2000
    3.5105    1.4947   -1.5573 Cl  0  0  0  0  0  0  0  0  0  0  0  0
    1.5174    2.9640   -0.0822 Cl  0  0  0  0  0  0  0  0  0  0  0  0
    3.5873    1.5708    1.3674 Cl  0  0  0  0  0  0  0  0  0  0  0  0
   -2.1291    1.4593    0.0533 O   0  0  0  0  0  0  0  0  0  0  0  0
   -1.6765   -0.8416    0.1109 N   0  0  0  0  0  0  0  0  0  0  0  0
    0.3656    0.2927    0.0227 N   0  0  0  0  0  0  0  0  0  0  0  0
    0.2902   -2.1045    0.0983 N   0  0  0  0  0  0  0  0  0  0  0  0
    2.4043   -0.9727    0.0101 N   0  0  0  0  0  0  0  0  0  0  0  0
   -3.9745   -0.0930    0.1387 C   0  0  0  0  0  0  0  0  0  0  0  0
   -2.4911    0.2871    0.0982 C   0  0  0  0  0  0  0  0  0  0  0  0
   -4.7969    0.9683    0.8668 C   0  0  0  0  0  0  0  0  0  0  0  0
   -4.5031   -0.2948   -1.2802 C   0  0  0  0  0  0  0  0  0  0  0  0
   -0.2624   -0.8868    0.0749 C   0  0  0  0  0  0  0  0  0  0  0  0
    1.7026    0.1719   -0.0072 C   0  0  0  0  0  0  0  0  0  0  0  0
    1.6320   -2.0700    0.0634 C   0  0  0  0  0  0  0  0  0  0  0  0
    2.4880    1.4382   -0.0641 C   0  0  0  0  0  0  0  0  0  0  0  0
    2.3357   -3.3838    0.0862 C   0  0  0  0  0  0  0  0  0  0  0  0
  1 16  1  0
  2 16  1  0
  3 16  1  0
  4 10  2  0
  5 10  1  0
  5 13  1  0
  6 13  2  0
  6 14  1  0
  7 13  1  0
  7 15  2  0
  8 14  2  0
  8 15  1  0
  9 10  1  0
  9 11  1  0
  9 12  1  0
 14 16  1  0
 15 17  1  0
M  END
>  <PUBCHEM_COMPOUND_CID>  (1) 
34995

>  <PUBCHEM_CONFORMER_RMSD>  (1) 
0.6

>  <PUBCHEM_CONFORMER_DIVERSEORDER>  (1) 
1
10
8
7
9
5
3
2
4
6

>  <PUBCHEM_MMFF94_PARTIAL_CHARGES>  (1) 
16
1 -0.29
10 0.57
13 0.74
14 0.48
15 0.48
16 1.01
17 0.14
2 -0.29
25 0.37
3 -0.29
4 -0.57
5 -0.55
6 -0.62
7 -0.62
8 -0.62
9 0.06

>  <PUBCHEM_EFFECTIVE_ROTOR_COUNT>  (1) 
4

>  <PUBCHEM_PHARMACOPHORE_FEATURES>  (1) 
6
1 4 acceptor
1 5 donor
3 6 8 14 cation
3 7 8 15 cation
3 9 11 12 hydrophobe
6 6 7 8 13 14 15 rings

>  <PUBCHEM_HEAVY_ATOM_COUNT>  (1) 
17

>  <PUBCHEM_ATOM_DEF_STEREO_COUNT>  (1) 
0

>  <PUBCHEM_ATOM_UDEF_STEREO_COUNT>  (1) 
0

>  <PUBCHEM_BOND_DEF_STEREO_COUNT>  (1) 
0

>  <PUBCHEM_BOND_UDEF_STEREO_COUNT>  (1) 
0

>  <PUBCHEM_ISOTOPIC_ATOM_COUNT>  (1) 
0

>  <PUBCHEM_COMPONENT_COUNT>  (1) 
1

>  <PUBCHEM_CACTVS_TAUTO_COUNT>  (1) 
5

>  <PUBCHEM_CONFORMER_ID>  (1) 
000088B300000001

>  <PUBCHEM_MMFF94_ENERGY>  (1) 
32.1872

>  <PUBCHEM_FEATURE_SELFOVERLAP>  (1) 
31.37

>  <PUBCHEM_SHAPE_FINGERPRINT>  (1) 
10465860 228 18412267220263027777
10967382 1 18410293605597155306
10980938 120 18409445881936961173
11471102 20 18409728460730797021
11543360 7 15984825999066590197
13140716 1 18194400232433587793
13380535 76 18335697299182232714
13583140 156 16443610402921395329
14178000 15 18267863870083589714
14250199 8 18337389340698939751
14251717 144 18410287021538858741
14897335 6 18340480166273304803
15442244 35 18124598578747222137
15536298 74 18343302543917925969
17134986 127 18191311678907348252
1798214 55 18339926020865891752
1813 80 17840881667668620086
18186145 218 18272093824496800309
20510252 161 17692823996083064010
20559304 39 18411699842298589984
20645477 70 18335695001955133935
20671657 1 18413671300928017190
21041028 32 18122908620574561444
21054139 6 18056178405429256175
212916 134 18056739143843674944
21524375 3 18262230148538599850
21639500 275 18337378414112078973
221490 88 18335992977964249667
2255824 54 18337393729681321091
22854114 111 18412544314457563873
23419403 2 17754426012378582022
23557571 272 17130984450373624851
23559900 14 18338509742794871275
23598291 2 18130227043421241815
25 1 18336272322451973932
2748010 2 18119515545150688980
3060560 45 18338237167158858916
3071541 37 18335427863220262350
3091708 16 9475573049474405634
312423 11 18272097033174837595
449060 62 18410300215604675333
474 4 18338232768922462849
4990 188 17632589270031911340
5104073 3 18410859820353593443
57096353 35 18272364304731403231
58051976 378 18341889744685934831
6333272 397 18266176313019063977
633830 44 18200882893030269989
7364860 26 18341611478050028010
81228 2 17116922964160780938
81539 233 18186801404610545158
84936 182 18202280324869049184

>  <PUBCHEM_SHAPE_MULTIPOLES>  (1) 
329.67
8.25
3.13
1.05
9.96
1.64
-0.17
-3.21
-0.27
-3.66
0.14
-0.36
-0.45
-0.48

>  <PUBCHEM_SHAPE_SELFOVERLAP>  (1) 
640.671

>  <PUBCHEM_SHAPE_VOLUME>  (1) 
198.7

>  <PUBCHEM_COORDINATE_TYPE>  (1) 
2
5
10

$$$$
