34991
     RDKit          3D

 20 20  0  0  0  0  0  0  0  0999 V2000
    4.2126    0.7225    1.7655 Cl  0  0  0  0  0  0  0  0  0  0  0  0
    3.2891   -1.8631    0.8889 Cl  0  0  0  0  0  0  0  0  0  0  0  0
    4.5013   -0.0843   -1.0329 Cl  0  0  0  0  0  0  0  0  0  0  0  0
   -1.3451   -0.3053   -0.0441 N   0  0  0  0  0  0  0  0  0  0  0  0
    0.9881   -0.2287    0.1759 N   0  0  0  0  0  0  0  0  0  0  0  0
   -0.2437    1.7093   -0.5204 N   0  0  0  0  0  0  0  0  0  0  0  0
    2.1436    1.8187   -0.3048 N   0  0  0  0  0  0  0  0  0  0  0  0
   -5.5674    2.0423    0.3745 N   0  0  0  0  0  0  0  0  0  0  0  0
   -1.1287   -5.1646   -0.1892 N   0  0  0  0  0  0  0  0  0  0  0  0
   -2.6199    0.3007   -0.3543 C   0  0  0  0  0  0  0  0  0  0  0  0
   -1.3194   -1.7123    0.3564 C   0  0  0  0  0  0  0  0  0  0  0  0
   -0.1507    0.4219   -0.1333 C   0  0  0  0  0  0  0  0  0  0  0  0
   -3.2369    0.9352    0.8877 C   0  0  0  0  0  0  0  0  0  0  0  0
   -1.1679   -2.6209   -0.8591 C   0  0  0  0  0  0  0  0  0  0  0  0
    2.0910    0.5297    0.0676 C   0  0  0  0  0  0  0  0  0  0  0  0
    0.9388    2.3422   -0.5834 C   0  0  0  0  0  0  0  0  0  0  0  0
    3.3891   -0.1263    0.3943 C   0  0  0  0  0  0  0  0  0  0  0  0
    0.9114    3.7715   -1.0056 C   0  0  0  0  0  0  0  0  0  0  0  0
   -4.5394    1.5536    0.5997 C   0  0  0  0  0  0  0  0  0  0  0  0
   -1.1461   -4.0423   -0.4835 C   0  0  0  0  0  0  0  0  0  0  0  0
  1 17  1  0
  2 17  1  0
  3 17  1  0
  4 10  1  0
  4 11  1  0
  4 12  1  0
  5 12  2  0
  5 15  1  0
  6 12  1  0
  6 16  2  0
  7 15  2  0
  7 16  1  0
  8 19  3  0
  9 20  3  0
 10 13  1  0
 11 14  1  0
 13 19  1  0
 14 20  1  0
 15 17  1  0
 16 18  1  0
M  END
>  <PUBCHEM_COMPOUND_CID>  (1) 
34991

>  <PUBCHEM_CONFORMER_RMSD>  (1) 
0.8

>  <PUBCHEM_CONFORMER_DIVERSEORDER>  (1) 
1
35
67
41
72
31
43
109
94
92
53
85
91
100
111
115
38
70
99
108
29
75
103
36
24
73
60
107
89
52
90
98
26
81
50
69
62
114
47
40
86
106
97
104
54
10
48
77
39
44
74
71
28
68
17
80
30
110
63
56
15
76
65
46
102
5
25
57
87
112
101
11
42
93
6
20
23
83
105
88
19
61
3
66
64
96
16
27
84
59
49
33
79
95
2
22
9
8
45
82
21
113
14
32
78
51
4
55
7
12
34
37
18
13
58

>  <PUBCHEM_MMFF94_PARTIAL_CHARGES>  (1) 
20
1 -0.29
10 0.37
11 0.37
12 0.72
13 0.2
14 0.2
15 0.48
16 0.48
17 1.01
18 0.14
19 0.36
2 -0.29
20 0.36
3 -0.29
4 -0.84
5 -0.62
6 -0.62
7 -0.62
8 -0.56
9 -0.56

>  <PUBCHEM_EFFECTIVE_ROTOR_COUNT>  (1) 
6

>  <PUBCHEM_PHARMACOPHORE_FEATURES>  (1) 
4
1 8 acceptor
1 9 acceptor
4 4 5 6 12 cation
6 5 6 7 12 15 16 rings

>  <PUBCHEM_HEAVY_ATOM_COUNT>  (1) 
20

>  <PUBCHEM_ATOM_DEF_STEREO_COUNT>  (1) 
0

>  <PUBCHEM_ATOM_UDEF_STEREO_COUNT>  (1) 
0

>  <PUBCHEM_BOND_DEF_STEREO_COUNT>  (1) 
0

>  <PUBCHEM_BOND_UDEF_STEREO_COUNT>  (1) 
0

>  <PUBCHEM_ISOTOPIC_ATOM_COUNT>  (1) 
0

>  <PUBCHEM_COMPONENT_COUNT>  (1) 
1

>  <PUBCHEM_CACTVS_TAUTO_COUNT>  (1) 
1

>  <PUBCHEM_CONFORMER_ID>  (1) 
000088AF00000001

>  <PUBCHEM_MMFF94_ENERGY>  (1) 
39.7795

>  <PUBCHEM_FEATURE_SELFOVERLAP>  (1) 
20.297

>  <PUBCHEM_SHAPE_FINGERPRINT>  (1) 
12507560 14 18338234856139561521
12553582 1 18333725815220994308
12788726 201 17984702483518629799
13083527 12 17399206030435734330
13140716 1 18263077872272952560
13544592 145 18131076983242375598
14022347 108 18115600244595279792
14178342 30 18195230342648730674
14790565 3 18337968778805717268
14943834 7 18049165763090184413
15099037 8 17977096091482913658
16945 1 18335127696794059188
19141452 34 18411412921640867194
19591789 44 18051134696405208350
20028762 73 18343862221829273167
20600515 1 18342166804689908096
20681677 155 18411705400461037542
20739085 24 18120388561440999833
21033648 29 18201146681310791185
212916 134 18200860804023574705
21421861 104 17903083570071256811
21501502 16 18046343308178245948
23184049 59 18337671919076122113
23557571 272 17987513891605715402
23558518 356 17975131251403331904
23559900 14 17703792518313931472
23598291 2 18192153913092676156
25147074 1 17971470955957447692
2748010 2 17974839580411942788
3084891 8 17977111158243843668
34934 24 18334577953954509888
5385378 56 18053674581751744321
58807428 26 18341325579193757595
6992083 37 18336541706953548801
7164475 11 17979918542442834847
74978 22 18338519771300543972
7832392 63 18337110167587368264

>  <PUBCHEM_SHAPE_MULTIPOLES>  (1) 
387.31
8.2
4.97
1.12
2.96
5.98
0.21
-4.09
2.63
3.02
-1.54
-0.89
-0.23
-1.11

>  <PUBCHEM_SHAPE_SELFOVERLAP>  (1) 
751.978

>  <PUBCHEM_SHAPE_VOLUME>  (1) 
226.6

>  <PUBCHEM_COORDINATE_TYPE>  (1) 
2
5
10

$$$$
