35002
     RDKit          3D

 20 21  0  0  0  0  0  0  0  0999 V2000
   -4.5128   -0.4198    1.6175 Cl  0  0  0  0  0  0  0  0  0  0  0  0
   -1.9339    1.7589   -2.3406 Cl  0  0  0  0  0  0  0  0  0  0  0  0
    2.3256   -1.7536   -0.0126 S   0  0  0  0  0  0  0  0  0  0  0  0
    2.4088   -2.3785    1.3019 O   0  0  0  0  0  0  0  0  0  0  0  0
    3.4674   -1.8384   -0.9143 O   0  0  0  0  0  0  0  0  0  0  0  0
    0.9513   -2.3630   -0.8202 N   0  0  0  0  0  0  0  0  0  0  0  0
   -0.2902   -2.3390   -0.1066 N   0  0  0  0  0  0  0  0  0  0  0  0
   -1.0993   -0.3965   -1.1413 N   0  0  0  0  0  0  0  0  0  0  0  0
   -2.2886   -1.4014    0.6845 N   0  0  0  0  0  0  0  0  0  0  0  0
   -3.1419    0.5864   -0.3543 N   0  0  0  0  0  0  0  0  0  0  0  0
    1.9291   -0.0662    0.1969 C   0  0  0  0  0  0  0  0  0  0  0  0
    1.2577    0.3554    1.3446 C   0  0  0  0  0  0  0  0  0  0  0  0
    2.2844    0.8603   -0.7832 C   0  0  0  0  0  0  0  0  0  0  0  0
    1.2965    2.6301    0.5316 C   0  0  0  0  0  0  0  0  0  0  0  0
    0.9413    1.7037    1.5119 C   0  0  0  0  0  0  0  0  0  0  0  0
    1.9681    2.2085   -0.6160 C   0  0  0  0  0  0  0  0  0  0  0  0
    0.9596    4.0717    0.7110 C   0  0  0  0  0  0  0  0  0  0  0  0
   -1.2669   -1.3370   -0.1914 C   0  0  0  0  0  0  0  0  0  0  0  0
   -3.1843   -0.4107    0.5441 C   0  0  0  0  0  0  0  0  0  0  0  0
   -2.0719    0.5291   -1.1635 C   0  0  0  0  0  0  0  0  0  0  0  0
  1 19  1  0
  2 20  1  0
  3  4  2  0
  3  5  2  0
  3  6  1  0
  3 11  1  0
  6  7  1  0
  7 18  1  0
  8 18  2  0
  8 20  1  0
  9 18  1  0
  9 19  2  0
 10 19  1  0
 10 20  2  0
 11 12  2  0
 11 13  1  0
 12 15  1  0
 13 16  2  0
 14 15  2  0
 14 16  1  0
 14 17  1  0
M  END
>  <PUBCHEM_COMPOUND_CID>  (1) 
35002

>  <PUBCHEM_CONFORMER_RMSD>  (1) 
0.6

>  <PUBCHEM_CONFORMER_DIVERSEORDER>  (1) 
1
17
18
28
9
26
2
11
27
7
20
22
10
15
14
25
24
13
23
4
21
5
8
3
12
16
19
6

>  <PUBCHEM_MMFF94_PARTIAL_CHARGES>  (1) 
26
1 -0.18
10 -0.62
11 -0.01
12 -0.15
13 -0.15
14 -0.14
15 -0.15
16 -0.15
17 0.14
18 0.72
19 0.8
2 -0.18
20 0.8
21 0.15
22 0.15
23 0.15
24 0.15
25 0.42
29 0.4
3 1.45
4 -0.65
5 -0.65
6 -0.62
7 -0.44
8 -0.62
9 -0.62

>  <PUBCHEM_EFFECTIVE_ROTOR_COUNT>  (1) 
4

>  <PUBCHEM_PHARMACOPHORE_FEATURES>  (1) 
7
1 4 acceptor
1 5 acceptor
1 6 donor
1 7 donor
4 7 8 9 18 cation
6 11 12 13 14 15 16 rings
6 8 9 10 18 19 20 rings

>  <PUBCHEM_HEAVY_ATOM_COUNT>  (1) 
20

>  <PUBCHEM_ATOM_DEF_STEREO_COUNT>  (1) 
0

>  <PUBCHEM_ATOM_UDEF_STEREO_COUNT>  (1) 
0

>  <PUBCHEM_BOND_DEF_STEREO_COUNT>  (1) 
0

>  <PUBCHEM_BOND_UDEF_STEREO_COUNT>  (1) 
0

>  <PUBCHEM_ISOTOPIC_ATOM_COUNT>  (1) 
0

>  <PUBCHEM_COMPONENT_COUNT>  (1) 
1

>  <PUBCHEM_CACTVS_TAUTO_COUNT>  (1) 
3

>  <PUBCHEM_CONFORMER_ID>  (1) 
000088BA00000001

>  <PUBCHEM_MMFF94_ENERGY>  (1) 
29.3633

>  <PUBCHEM_FEATURE_SELFOVERLAP>  (1) 
36.842

>  <PUBCHEM_SHAPE_FINGERPRINT>  (1) 
10165383 225 18121518000459033597
104564 63 17767682754959327462
12035759 4 18120678859039899910
12173636 292 17407963648893322593
12633257 1 18337963307275481707
128993 33 18192709162175308893
13132413 78 18270101539992928568
14386348 128 18193842767232310077
14713325 29 16888376265672135372
16945 1 18268143339173403604
17357779 13 17770208371949947222
18219364 16 18337942429175236887
18981168 100 18194947750706346021
20671657 1 18270965772552632755
21041028 32 18269000786449729752
21524375 3 17906164406384816114
23175994 123 18268995280375723910
23419403 2 16970201517057543488
238 59 18051093099699616877
2748010 2 18267283370957113484
31174 14 18408606989346868563
350125 39 17980478185245246154
3524813 1 18261116270118560087
5845 1 14098636152737615756
6049 1 18040992930194650869
6287921 2 17542526262682795233
6438718 38 17125629515356557685
6442390 28 17689732173470060003
7364860 26 18340487871592132012
81228 2 17548119044747173888
9999458 23 18126588914153567201

>  <PUBCHEM_SHAPE_MULTIPOLES>  (1) 
382.54
5.58
3.7
1.68
5.25
1.63
0.31
-1.05
-1.23
-3.23
-0.28
0.84
0.66
1

>  <PUBCHEM_SHAPE_SELFOVERLAP>  (1) 
776.872

>  <PUBCHEM_SHAPE_VOLUME>  (1) 
224.7

>  <PUBCHEM_COORDINATE_TYPE>  (1) 
2
5
10

$$$$
