35005
     RDKit          3D

 16 17  0  0  0  0  0  0  0  0999 V2000
    5.0686    1.6391   -0.1254 Br  0  0  0  0  0  0  0  0  0  0  0  0
    2.4837   -3.2419    0.3312 Br  0  0  0  0  0  0  0  0  0  0  0  0
   -5.6124   -0.7844    0.0467 Cl  0  0  0  0  0  0  0  0  0  0  0  0
   -0.0347    1.1958   -0.1176 N   0  0  0  0  0  0  0  0  0  0  0  0
    1.1882   -0.7952    0.0818 N   0  0  0  0  0  0  0  0  0  0  0  0
    2.3074    1.3182   -0.1161 N   0  0  0  0  0  0  0  0  0  0  0  0
    3.5859   -0.7021    0.0885 N   0  0  0  0  0  0  0  0  0  0  0  0
   -1.3636    0.7246   -0.0792 C   0  0  0  0  0  0  0  0  0  0  0  0
   -2.3744    1.5300    0.4454 C   0  0  0  0  0  0  0  0  0  0  0  0
   -1.6666   -0.5473   -0.5650 C   0  0  0  0  0  0  0  0  0  0  0  0
    1.2112    0.5428   -0.0481 C   0  0  0  0  0  0  0  0  0  0  0  0
   -3.6883    1.0633    0.4842 C   0  0  0  0  0  0  0  0  0  0  0  0
   -2.9806   -1.0140   -0.5263 C   0  0  0  0  0  0  0  0  0  0  0  0
   -3.9915   -0.2086   -0.0017 C   0  0  0  0  0  0  0  0  0  0  0  0
    3.4569    0.6282   -0.0417 C   0  0  0  0  0  0  0  0  0  0  0  0
    2.4102   -1.3484    0.1433 C   0  0  0  0  0  0  0  0  0  0  0  0
  1 15  1  0
  2 16  1  0
  3 14  1  0
  4  8  1  0
  4 11  1  0
  5 11  2  0
  5 16  1  0
  6 11  1  0
  6 15  2  0
  7 15  1  0
  7 16  2  0
  8  9  2  0
  8 10  1  0
  9 12  1  0
 10 13  2  0
 12 14  2  0
 13 14  1  0
M  END
>  <PUBCHEM_COMPOUND_CID>  (1) 
35005

>  <PUBCHEM_CONFORMER_RMSD>  (1) 
0.6

>  <PUBCHEM_CONFORMER_DIVERSEORDER>  (1) 
1
3
2
4

>  <PUBCHEM_MMFF94_PARTIAL_CHARGES>  (1) 
21
1 -0.11
10 -0.15
11 0.72
12 -0.15
13 -0.15
14 0.18
15 0.73
16 0.73
17 0.4
18 0.15
19 0.15
2 -0.11
20 0.15
21 0.15
3 -0.18
4 -0.6
5 -0.62
6 -0.62
7 -0.62
8 0.1
9 -0.15

>  <PUBCHEM_EFFECTIVE_ROTOR_COUNT>  (1) 
2

>  <PUBCHEM_PHARMACOPHORE_FEATURES>  (1) 
6
1 1 hydrophobe
1 2 hydrophobe
1 4 donor
4 4 5 6 11 cation
6 5 6 7 11 15 16 rings
6 8 9 10 12 13 14 rings

>  <PUBCHEM_HEAVY_ATOM_COUNT>  (1) 
16

>  <PUBCHEM_ATOM_DEF_STEREO_COUNT>  (1) 
0

>  <PUBCHEM_ATOM_UDEF_STEREO_COUNT>  (1) 
0

>  <PUBCHEM_BOND_DEF_STEREO_COUNT>  (1) 
0

>  <PUBCHEM_BOND_UDEF_STEREO_COUNT>  (1) 
0

>  <PUBCHEM_ISOTOPIC_ATOM_COUNT>  (1) 
0

>  <PUBCHEM_COMPONENT_COUNT>  (1) 
1

>  <PUBCHEM_CACTVS_TAUTO_COUNT>  (1) 
3

>  <PUBCHEM_CONFORMER_ID>  (1) 
000088BD00000001

>  <PUBCHEM_MMFF94_ENERGY>  (1) 
43.1278

>  <PUBCHEM_FEATURE_SELFOVERLAP>  (1) 
30.446

>  <PUBCHEM_SHAPE_FINGERPRINT>  (1) 
10366900 7 18342457088222166689
10616163 171 18341332292143589495
12107183 9 17692819190130815121
12236239 1 18343867727396960925
13167823 11 18342458101850298247
13533116 47 18341890775763234203
13760787 19 18272652354712381933
14144814 61 18341612585993139889
14251764 18 18202006543365409121
15196674 1 18411700954520974735
15242433 33 18412825806740757351
15375358 24 17967816063015094515
15375462 189 18273208694795517771
15442244 35 18124033425396489130
15536298 74 18342176631284586454
17492 89 18339643313640132259
17834072 33 18342174496495949405
19050596 39 18412260614714148272
19422 9 18340488855108052931
200 152 18341608239929393541
20279233 1 16153427250894845457
20281475 54 18338797797391869187
20645477 70 18261950760768516270
21054139 6 18267859661047606862
21065198 48 18343023251006284441
21267235 1 18412834572494883702
221490 88 18335991856935587394
22445834 79 18412824655626224839
22485316 2 18409446964622264565
2255824 54 18334861645065845108
23402539 116 12035722154747308811
23402655 69 18411979148179938981
23463225 33 18341049605974993087
23559900 14 18125150546532798410
26918003 58 18113899403186143617
2871803 45 18335136483795869927
33824 294 18335419067211934994
3545911 37 18410575119044098261
474 4 18187931741509008332
474229 33 18335420227074228722
4990 188 17917441925732122276
5104073 3 18339924818549011985
7364860 26 18340486656512285966
77779 3 18411983524909654625
9709674 26 18335708212894845235

>  <PUBCHEM_SHAPE_MULTIPOLES>  (1) 
323.1
10.69
2.45
0.7
3.9
2.04
0
-1.17
0.18
-2.84
0.29
0.13
0.03
-0.68

>  <PUBCHEM_SHAPE_SELFOVERLAP>  (1) 
649.763

>  <PUBCHEM_SHAPE_VOLUME>  (1) 
197

>  <PUBCHEM_COORDINATE_TYPE>  (1) 
2
5
10

$$$$
