35001
     RDKit          3D

 20 21  0  0  0  0  0  0  0  0999 V2000
    0.9045    4.2873    0.7107 Cl  0  0  0  0  0  0  0  0  0  0  0  0
   -4.5099   -0.4244    1.6180 Cl  0  0  0  0  0  0  0  0  0  0  0  0
   -1.9321    1.7319   -2.3531 Cl  0  0  0  0  0  0  0  0  0  0  0  0
    2.3298   -1.7629   -0.0027 S   0  0  0  0  0  0  0  0  0  0  0  0
    2.4133   -2.3795    1.3156 O   0  0  0  0  0  0  0  0  0  0  0  0
    3.4719   -1.8523   -0.9036 O   0  0  0  0  0  0  0  0  0  0  0  0
    0.9562   -2.3783   -0.8067 N   0  0  0  0  0  0  0  0  0  0  0  0
   -0.2855   -2.3508   -0.0935 N   0  0  0  0  0  0  0  0  0  0  0  0
   -1.0959   -0.4154   -1.1404 N   0  0  0  0  0  0  0  0  0  0  0  0
   -2.2849   -1.4099    0.6913 N   0  0  0  0  0  0  0  0  0  0  0  0
   -3.1394    0.5706   -0.3597 N   0  0  0  0  0  0  0  0  0  0  0  0
    1.9320   -0.0746    0.1964 C   0  0  0  0  0  0  0  0  0  0  0  0
    1.2600    0.3533    1.3414 C   0  0  0  0  0  0  0  0  0  0  0  0
    2.2863    0.8464   -0.7896 C   0  0  0  0  0  0  0  0  0  0  0  0
    0.9422    1.7022    1.5003 C   0  0  0  0  0  0  0  0  0  0  0  0
    1.9685    2.1952   -0.6305 C   0  0  0  0  0  0  0  0  0  0  0  0
    1.2965    2.6231    0.5144 C   0  0  0  0  0  0  0  0  0  0  0  0
   -1.2630   -1.3502   -0.1847 C   0  0  0  0  0  0  0  0  0  0  0  0
   -3.1812   -0.4209    0.5447 C   0  0  0  0  0  0  0  0  0  0  0  0
   -2.0692    0.5092   -1.1683 C   0  0  0  0  0  0  0  0  0  0  0  0
  1 17  1  0
  2 19  1  0
  3 20  1  0
  4  5  2  0
  4  6  2  0
  4  7  1  0
  4 12  1  0
  7  8  1  0
  8 18  1  0
  9 18  2  0
  9 20  1  0
 10 18  1  0
 10 19  2  0
 11 19  1  0
 11 20  2  0
 12 13  2  0
 12 14  1  0
 13 15  1  0
 14 16  2  0
 15 17  2  0
 16 17  1  0
M  END
>  <PUBCHEM_COMPOUND_CID>  (1) 
35001

>  <PUBCHEM_CONFORMER_RMSD>  (1) 
0.6

>  <PUBCHEM_CONFORMER_DIVERSEORDER>  (1) 
1
17
28
10
9
18
2
7
26
27
11
20
22
15
14
25
24
13
23
4
5
3
12
8
19
6
21
16

>  <PUBCHEM_MMFF94_PARTIAL_CHARGES>  (1) 
26
1 -0.18
10 -0.62
11 -0.62
12 -0.01
13 -0.15
14 -0.15
15 -0.15
16 -0.15
17 0.18
18 0.72
19 0.8
2 -0.18
20 0.8
21 0.42
22 0.15
23 0.15
24 0.4
25 0.15
26 0.15
3 -0.18
4 1.45
5 -0.65
6 -0.65
7 -0.62
8 -0.44
9 -0.62

>  <PUBCHEM_EFFECTIVE_ROTOR_COUNT>  (1) 
4

>  <PUBCHEM_PHARMACOPHORE_FEATURES>  (1) 
7
1 5 acceptor
1 6 acceptor
1 7 donor
1 8 donor
4 8 9 10 18 cation
6 12 13 14 15 16 17 rings
6 9 10 11 18 19 20 rings

>  <PUBCHEM_HEAVY_ATOM_COUNT>  (1) 
20

>  <PUBCHEM_ATOM_DEF_STEREO_COUNT>  (1) 
0

>  <PUBCHEM_ATOM_UDEF_STEREO_COUNT>  (1) 
0

>  <PUBCHEM_BOND_DEF_STEREO_COUNT>  (1) 
0

>  <PUBCHEM_BOND_UDEF_STEREO_COUNT>  (1) 
0

>  <PUBCHEM_ISOTOPIC_ATOM_COUNT>  (1) 
0

>  <PUBCHEM_COMPONENT_COUNT>  (1) 
1

>  <PUBCHEM_CACTVS_TAUTO_COUNT>  (1) 
3

>  <PUBCHEM_CONFORMER_ID>  (1) 
000088B900000001

>  <PUBCHEM_MMFF94_ENERGY>  (1) 
27.5017

>  <PUBCHEM_FEATURE_SELFOVERLAP>  (1) 
36.842

>  <PUBCHEM_SHAPE_FINGERPRINT>  (1) 
10165383 225 18121518000459033597
104564 63 17767401279982616806
12173636 292 17407401802751823057
12633257 1 18337681832298777563
12788726 201 17692802701793900952
128993 33 18192427687193310501
13132413 78 18269820065016211424
14386348 128 18193842762942585037
14713325 29 16888376265672115876
17357779 13 17842265965993169398
18219364 16 18337942429175288847
18981168 100 18194666275724308669
20671657 1 18270684301865621138
21041028 32 18268719311478287352
21524375 3 17905882931413380218
23175994 123 18268994176579710814
23419403 2 16971326326005756824
238 59 18051093103994590669
2748010 2 18267000796474030324
31174 14 18408606989346855587
350125 39 17980478189545475226
3524813 1 18260834786551960327
6049 1 18040711450912403933
6287921 2 17542525167455611209
6438718 38 17125628415844929933
6442390 28 17689732173448960979
7364860 26 18340487871597400276
81228 2 17547836470264162184
9999458 23 18126307443477098593

>  <PUBCHEM_SHAPE_MULTIPOLES>  (1) 
384.41
5.56
3.87
1.68
5.32
2.06
0.34
-0.93
-1.26
-3.5
-0.37
0.86
0.65
0.95

>  <PUBCHEM_SHAPE_SELFOVERLAP>  (1) 
773.697

>  <PUBCHEM_SHAPE_VOLUME>  (1) 
227.8

>  <PUBCHEM_COORDINATE_TYPE>  (1) 
2
5
10

$$$$
