35006
     RDKit          3D

 16 16  0  0  0  0  0  0  0  0999 V2000
   -4.6883    2.4388   -0.0812 Cl  0  0  0  0  0  0  0  0  0  0  0  0
   -3.3256   -2.2858   -0.0391 O   0  0  0  0  0  0  0  0  0  0  0  0
    0.0267    0.9467    0.0816 N   0  0  0  0  0  0  0  0  0  0  0  0
   -1.6324   -0.7100    0.0230 N   0  0  0  0  0  0  0  0  0  0  0  0
   -2.2194    1.6166    0.0047 N   0  0  0  0  0  0  0  0  0  0  0  0
   -3.9395   -0.0553   -0.0556 N   0  0  0  0  0  0  0  0  0  0  0  0
    3.6263   -0.3142    0.0924 C   0  0  0  0  0  0  0  0  0  0  0  0
    2.4556    0.6752    0.1021 C   0  0  0  0  0  0  0  0  0  0  0  0
    4.9677    0.4191    0.0095 C   0  0  0  0  0  0  0  0  0  0  0  0
    1.0969   -0.0204    0.1182 C   0  0  0  0  0  0  0  0  0  0  0  0
    6.1725   -0.5231   -0.0343 C   0  0  0  0  0  0  0  0  0  0  0  0
    7.5028    0.1981   -0.1877 C   0  0  0  0  0  0  0  0  0  0  0  0
   -1.3165    0.6072    0.0348 C   0  0  0  0  0  0  0  0  0  0  0  0
   -2.9503   -0.9627   -0.0226 C   0  0  0  0  0  0  0  0  0  0  0  0
   -3.4993    1.2132   -0.0397 C   0  0  0  0  0  0  0  0  0  0  0  0
   -2.2773   -3.2436   -0.0061 C   0  0  0  0  0  0  0  0  0  0  0  0
  1 15  1  0
  2 14  1  0
  2 16  1  0
  3 10  1  0
  3 13  1  0
  4 13  2  0
  4 14  1  0
  5 13  1  0
  5 15  2  0
  6 14  2  0
  6 15  1  0
  7  8  1  0
  7  9  1  0
  8 10  1  0
  9 11  1  0
 11 12  1  0
M  END
>  <PUBCHEM_COMPOUND_CID>  (1) 
35006

>  <PUBCHEM_CONFORMER_RMSD>  (1) 
0.8

>  <PUBCHEM_CONFORMER_DIVERSEORDER>  (1) 
1
71
34
102
46
11
92
40
94
21
98
99
118
64
82
95
10
89
113
7
38
117
2
96
108
83
36
33
22
115
79
110
65
109
4
119
67
8
90
114
72
81
59
41
104
9
32
15
23
77
3
84
97
45
13
50
85
101
62
18
88
47
111
93
106
60
91
120
55
30
105
73
16
63
6
74
53
75
61
29
51
17
19
107
76
14
35
24
52
39
12
100
87
70
112
27
25
57
28
5
43
44
54
66
42
86
20
80
48
37
103
78
49
26
69
116
68
56
31
58

>  <PUBCHEM_MMFF94_PARTIAL_CHARGES>  (1) 
12
1 -0.18
10 0.37
13 0.72
14 0.7
15 0.8
16 0.28
2 -0.36
3 -0.87
30 0.4
4 -0.62
5 -0.62
6 -0.62

>  <PUBCHEM_EFFECTIVE_ROTOR_COUNT>  (1) 
7

>  <PUBCHEM_PHARMACOPHORE_FEATURES>  (1) 
5
1 12 hydrophobe
1 3 donor
4 3 4 5 13 cation
4 7 8 9 11 hydrophobe
6 4 5 6 13 14 15 rings

>  <PUBCHEM_HEAVY_ATOM_COUNT>  (1) 
16

>  <PUBCHEM_ATOM_DEF_STEREO_COUNT>  (1) 
0

>  <PUBCHEM_ATOM_UDEF_STEREO_COUNT>  (1) 
0

>  <PUBCHEM_BOND_DEF_STEREO_COUNT>  (1) 
0

>  <PUBCHEM_BOND_UDEF_STEREO_COUNT>  (1) 
0

>  <PUBCHEM_ISOTOPIC_ATOM_COUNT>  (1) 
0

>  <PUBCHEM_COMPONENT_COUNT>  (1) 
1

>  <PUBCHEM_CACTVS_TAUTO_COUNT>  (1) 
4

>  <PUBCHEM_CONFORMER_ID>  (1) 
000088BE00000001

>  <PUBCHEM_MMFF94_ENERGY>  (1) 
27.903

>  <PUBCHEM_FEATURE_SELFOVERLAP>  (1) 
25.372

>  <PUBCHEM_SHAPE_FINGERPRINT>  (1) 
10411042 1 18050287269968845139
10616163 171 18410575119192349906
10680689 15 18335424581775545096
10912923 1 17894907443510586176
11315181 36 18187646933558268812
12091667 2 17967536774910129360
12500047 106 18411976945156868241
12616971 3 17312830381369816308
12757275 245 18410011078237704915
13167823 11 18333729131057137650
13288520 33 18412544344712219503
13760787 19 18333727992669037386
14251731 8 18341894078439941536
14251732 16 18340485694903809472
14508225 48 18266726069518858669
15042514 8 18264774444996247435
15242439 84 18059851749466164432
167882 2 17975405812110709663
17093844 174 18410007741480600472
17834072 33 18261678160101360308
17844677 252 18340211890242979720
20645477 56 18410010992670830729
20645477 70 16629686120293991876
20681677 155 18334857195205192744
21267235 1 18335988661548159587
21426921 1 18410292540698505927
220451 1 18113618963718583410
23402539 116 18334010597448993588
23559900 14 18343294877818521640
300161 21 18335414635048057672
3545911 37 18412826859039549136
4073 2 18260271880540118706
4214541 1 18410855469087608368
42788 4 18410293602019794600
5104073 3 18342173410391515672
559249 180 18335699421122884634
573450 72 18261663822935913626
6327066 14 17898280607598879437
67856867 119 18261959669406680764
7062679 117 18408886269827431990

>  <PUBCHEM_SHAPE_MULTIPOLES>  (1) 
305.35
15.17
2.45
0.6
31.03
1.84
0
-2.71
0.87
-5.25
0.05
0.07
-0.01
0.03

>  <PUBCHEM_SHAPE_SELFOVERLAP>  (1) 
588.768

>  <PUBCHEM_SHAPE_VOLUME>  (1) 
185.8

>  <PUBCHEM_COORDINATE_TYPE>  (1) 
2
5
10

$$$$
