35007
     RDKit          3D

 16 17  0  0  0  0  0  0  0  0999 V2000
    4.3290    2.0471    0.1141 Cl  0  0  0  0  0  0  0  0  0  0  0  0
    2.2600   -2.4029   -0.1979 O   0  0  0  0  0  0  0  0  0  0  0  0
   -0.5611    1.2922    0.1003 N   0  0  0  0  0  0  0  0  0  0  0  0
    0.8263   -0.5925   -0.0525 N   0  0  0  0  0  0  0  0  0  0  0  0
    1.7621    1.6116    0.1033 N   0  0  0  0  0  0  0  0  0  0  0  0
    3.2076   -0.2973   -0.0523 N   0  0  0  0  0  0  0  0  0  0  0  0
   -1.8454    0.7101    0.0688 C   0  0  0  0  0  0  0  0  0  0  0  0
   -2.9186    1.4167   -0.4741 C   0  0  0  0  0  0  0  0  0  0  0  0
   -2.0424   -0.5723    0.5809 C   0  0  0  0  0  0  0  0  0  0  0  0
    0.7356    0.7451    0.0481 C   0  0  0  0  0  0  0  0  0  0  0  0
   -4.1889    0.8411   -0.5044 C   0  0  0  0  0  0  0  0  0  0  0  0
   -3.3127   -1.1478    0.5504 C   0  0  0  0  0  0  0  0  0  0  0  0
   -4.3859   -0.4411    0.0077 C   0  0  0  0  0  0  0  0  0  0  0  0
    2.0909   -1.0417   -0.0974 C   0  0  0  0  0  0  0  0  0  0  0  0
    2.9661    1.0197    0.0483 C   0  0  0  0  0  0  0  0  0  0  0  0
    1.0774   -3.1881   -0.2434 C   0  0  0  0  0  0  0  0  0  0  0  0
  1 15  1  0
  2 14  1  0
  2 16  1  0
  3  7  1  0
  3 10  1  0
  4 10  2  0
  4 14  1  0
  5 10  1  0
  5 15  2  0
  6 14  2  0
  6 15  1  0
  7  8  2  0
  7  9  1  0
  8 11  1  0
  9 12  2  0
 11 13  2  0
 12 13  1  0
M  END
>  <PUBCHEM_COMPOUND_CID>  (1) 
35007

>  <PUBCHEM_CONFORMER_RMSD>  (1) 
0.6

>  <PUBCHEM_CONFORMER_DIVERSEORDER>  (1) 
1
13
7
11
6
5
12
8
2
10
3
9
4

>  <PUBCHEM_MMFF94_PARTIAL_CHARGES>  (1) 
22
1 -0.18
10 0.72
11 -0.15
12 -0.15
13 -0.15
14 0.7
15 0.8
16 0.28
17 0.4
18 0.15
19 0.15
2 -0.36
20 0.15
21 0.15
22 0.15
3 -0.6
4 -0.62
5 -0.62
6 -0.62
7 0.1
8 -0.15
9 -0.15

>  <PUBCHEM_EFFECTIVE_ROTOR_COUNT>  (1) 
3

>  <PUBCHEM_PHARMACOPHORE_FEATURES>  (1) 
4
1 3 donor
4 3 4 5 10 cation
6 4 5 6 10 14 15 rings
6 7 8 9 11 12 13 rings

>  <PUBCHEM_HEAVY_ATOM_COUNT>  (1) 
16

>  <PUBCHEM_ATOM_DEF_STEREO_COUNT>  (1) 
0

>  <PUBCHEM_ATOM_UDEF_STEREO_COUNT>  (1) 
0

>  <PUBCHEM_BOND_DEF_STEREO_COUNT>  (1) 
0

>  <PUBCHEM_BOND_UDEF_STEREO_COUNT>  (1) 
0

>  <PUBCHEM_ISOTOPIC_ATOM_COUNT>  (1) 
0

>  <PUBCHEM_COMPONENT_COUNT>  (1) 
1

>  <PUBCHEM_CACTVS_TAUTO_COUNT>  (1) 
4

>  <PUBCHEM_CONFORMER_ID>  (1) 
000088BF00000001

>  <PUBCHEM_MMFF94_ENERGY>  (1) 
52.4159

>  <PUBCHEM_FEATURE_SELFOVERLAP>  (1) 
20.297

>  <PUBCHEM_SHAPE_FINGERPRINT>  (1) 
10608611 8 18335416842371389837
10616163 171 18337393863152088555
10922523 26 18186803539588950205
11471102 20 18411980264939890660
12553582 1 17619359705614071042
13296908 3 18409731733865109115
13380535 76 18334575780126071362
14251717 144 18412824672589978598
14415576 193 18334579053065445100
15196674 1 18409729577411750867
15219456 202 18408323280876322673
15375358 24 18333447659963697249
15375462 6 18410573963856248821
15442244 35 18052822438137575193
15536298 74 18413108333704848019
17834074 16 18409731746755318271
19107657 46 18410294726726265271
200 152 18131629011115133373
20201158 50 18409168783822212011
20279233 1 18333734628193120913
204376 136 18268430307761646848
20645477 56 18041560235583059789
20645477 70 18341327795544484543
221490 88 18337399257420093754
23402539 116 17603854663353651133
23402655 69 18341890784126367541
23557571 272 17458625575615027797
23559900 14 18266451014837558618
2871803 45 18410857650598471151
33824 294 18410292523118009042
474229 33 18266177412630801522
495365 180 18199728307052441081
5104073 3 18335421249028811993
58051976 378 18411701031851790660
581208 293 18413385440784195226
7364860 26 18340486664695928242
81539 233 18408040732284284806
8272917 22 18342461391874199583
9709674 26 18335424556280353011

>  <PUBCHEM_SHAPE_MULTIPOLES>  (1) 
305.35
8.25
2.62
0.68
2.3
2.06
0.01
-2.83
-0.15
-2.21
-0.25
0.23
0.01
0.67

>  <PUBCHEM_SHAPE_SELFOVERLAP>  (1) 
639.544

>  <PUBCHEM_SHAPE_VOLUME>  (1) 
171.8

>  <PUBCHEM_COORDINATE_TYPE>  (1) 
2
5
10

$$$$
