35010
     RDKit          3D

 15 16  0  0  0  0  0  0  0  0999 V2000
    1.6862   -3.0272   -0.0012 Cl  0  0  0  0  0  0  0  0  0  0  0  0
   -0.3787    1.4355    0.0022 O   0  0  0  0  0  0  0  0  0  0  0  0
    1.9339    1.3548    0.0004 N   0  0  0  0  0  0  0  0  0  0  0  0
    0.6185   -0.6521   -0.0016 N   0  0  0  0  0  0  0  0  0  0  0  0
    3.0143   -0.7878   -0.0006 N   0  0  0  0  0  0  0  0  0  0  0  0
    4.2734    1.1906    0.0010 N   0  0  0  0  0  0  0  0  0  0  0  0
   -1.5681    0.7744    0.0013 C   0  0  0  0  0  0  0  0  0  0  0  0
   -2.1771    0.4323    1.2087 C   0  0  0  0  0  0  0  0  0  0  0  0
   -2.1781    0.4381   -1.2074 C   0  0  0  0  0  0  0  0  0  0  0  0
   -3.3959   -0.2461    1.2078 C   0  0  0  0  0  0  0  0  0  0  0  0
   -3.3970   -0.2402   -1.2083 C   0  0  0  0  0  0  0  0  0  0  0  0
    0.7798    0.6768   -0.0005 C   0  0  0  0  0  0  0  0  0  0  0  0
   -4.0058   -0.5823   -0.0007 C   0  0  0  0  0  0  0  0  0  0  0  0
    3.0126    0.5551    0.0004 C   0  0  0  0  0  0  0  0  0  0  0  0
    1.7823   -1.3219   -0.0015 C   0  0  0  0  0  0  0  0  0  0  0  0
  1 15  1  0
  2  7  1  0
  2 12  1  0
  3 12  2  0
  3 14  1  0
  4 12  1  0
  4 15  2  0
  5 14  2  0
  5 15  1  0
  6 14  1  0
  7  8  2  0
  7  9  1  0
  8 10  1  0
  9 11  2  0
 10 13  2  0
 11 13  1  0
M  END
>  <PUBCHEM_COMPOUND_CID>  (1) 
35010

>  <PUBCHEM_CONFORMER_RMSD>  (1) 
0.6

>  <PUBCHEM_CONFORMER_DIVERSEORDER>  (1) 
1
11
8
3
2
9
7
4
12
10
6
5

>  <PUBCHEM_MMFF94_PARTIAL_CHARGES>  (1) 
22
1 -0.18
10 -0.15
11 -0.15
12 0.7
13 -0.15
14 0.72
15 0.8
16 0.15
17 0.15
18 0.15
19 0.15
2 -0.17
20 0.15
21 0.4
22 0.4
3 -0.62
4 -0.62
5 -0.62
6 -0.9
7 0.08
8 -0.15
9 -0.15

>  <PUBCHEM_EFFECTIVE_ROTOR_COUNT>  (1) 
2

>  <PUBCHEM_PHARMACOPHORE_FEATURES>  (1) 
4
1 6 donor
4 3 5 6 14 cation
6 3 4 5 12 14 15 rings
6 7 8 9 10 11 13 rings

>  <PUBCHEM_HEAVY_ATOM_COUNT>  (1) 
15

>  <PUBCHEM_ATOM_DEF_STEREO_COUNT>  (1) 
0

>  <PUBCHEM_ATOM_UDEF_STEREO_COUNT>  (1) 
0

>  <PUBCHEM_BOND_DEF_STEREO_COUNT>  (1) 
0

>  <PUBCHEM_BOND_UDEF_STEREO_COUNT>  (1) 
0

>  <PUBCHEM_ISOTOPIC_ATOM_COUNT>  (1) 
0

>  <PUBCHEM_COMPONENT_COUNT>  (1) 
1

>  <PUBCHEM_CACTVS_TAUTO_COUNT>  (1) 
4

>  <PUBCHEM_CONFORMER_ID>  (1) 
000088C200000001

>  <PUBCHEM_MMFF94_ENERGY>  (1) 
46.172

>  <PUBCHEM_FEATURE_SELFOVERLAP>  (1) 
20.297

>  <PUBCHEM_SHAPE_FINGERPRINT>  (1) 
107287 299 18334863817992119178
12553582 1 17545605552186506778
12932764 1 17632569431578016417
13032168 30 17986102139839633983
13296908 3 18262235521600534007
14251717 144 18411697699004518046
15219456 202 18186518782946014821
15279307 12 18130786789007631855
15309172 13 18411420647770106822
15375358 24 18040710364285638949
15375462 189 18060700580747665227
16945 1 18410573993878711172
18186145 218 17386287575920352347
19422 9 17632582621380189478
200 152 18343294882081424349
20201158 50 18187366527943960499
20279233 1 17821729438011702339
204376 136 18265334083139122904
20645477 70 18338506439996448487
21730867 7 18334295370406679990
22445834 79 18202568354355983227
23402539 116 16226315006545352351
23557571 272 17095523955037858573
23559900 14 16950834835135907816
33824 294 18408323289223976179
474 4 17557971016798583400
474229 33 18336827597710391370
57812782 119 17385441037687125065
581208 293 18411416219912012834
77492 1 17703791422754171553
81228 2 16827548520337492130
81539 233 18186519917134086926

>  <PUBCHEM_SHAPE_MULTIPOLES>  (1) 
284.77
7.14
1.93
1.01
0.26
1.61
0
-0.13
0
-2.07
0
1.16
-0.02
0

>  <PUBCHEM_SHAPE_SELFOVERLAP>  (1) 
604.189

>  <PUBCHEM_SHAPE_VOLUME>  (1) 
158

>  <PUBCHEM_COORDINATE_TYPE>  (1) 
2
5
10

$$$$
