35024
     RDKit          3D

 15 15  0  0  0  0  0  0  0  0999 V2000
   -0.5682   -2.3696    0.0052 O   0  0  0  0  0  0  0  0  0  0  0  0
   -1.6253    2.1341   -0.0044 O   0  0  0  0  0  0  0  0  0  0  0  0
    2.8396    0.8064    0.0046 N   0  0  0  0  0  0  0  0  0  0  0  0
    0.6038    1.5139   -0.0010 N   0  0  0  0  0  0  0  0  0  0  0  0
    1.1521   -0.8222    0.0039 N   0  0  0  0  0  0  0  0  0  0  0  0
   -1.1451   -0.1290   -0.0016 N   0  0  0  0  0  0  0  0  0  0  0  0
    3.8940   -0.1778    0.0086 C   0  0  0  0  0  0  0  0  0  0  0  0
    1.4898    0.4895    0.0023 C   0  0  0  0  0  0  0  0  0  0  0  0
    5.2473    0.5066   -0.0122 C   0  0  0  0  0  0  0  0  0  0  0  0
   -0.1707   -1.0529    0.0017 C   0  0  0  0  0  0  0  0  0  0  0  0
   -0.6835    1.1319   -0.0029 C   0  0  0  0  0  0  0  0  0  0  0  0
   -1.9679   -2.6104    0.0028 C   0  0  0  0  0  0  0  0  0  0  0  0
   -2.9861    1.7271   -0.0065 C   0  0  0  0  0  0  0  0  0  0  0  0
   -2.2112   -4.1046   -0.0076 C   0  0  0  0  0  0  0  0  0  0  0  0
   -3.8686    2.9570    0.0072 C   0  0  0  0  0  0  0  0  0  0  0  0
  1 10  1  0
  1 12  1  0
  2 11  1  0
  2 13  1  0
  3  7  1  0
  3  8  1  0
  4  8  2  0
  4 11  1  0
  5  8  1  0
  5 10  2  0
  6 10  1  0
  6 11  2  0
  7  9  1  0
 12 14  1  0
 13 15  1  0
M  END
>  <PUBCHEM_COMPOUND_CID>  (1) 
35024

>  <PUBCHEM_CONFORMER_RMSD>  (1) 
0.8

>  <PUBCHEM_CONFORMER_DIVERSEORDER>  (1) 
1
15
10
16
8
3
4
19
17
5
11
13
14
9
18
2
20
21
12
7
6

>  <PUBCHEM_MMFF94_PARTIAL_CHARGES>  (1) 
13
1 -0.36
10 0.7
11 0.7
12 0.28
13 0.28
18 0.4
2 -0.36
3 -0.87
4 -0.62
5 -0.62
6 -0.62
7 0.37
8 0.72

>  <PUBCHEM_EFFECTIVE_ROTOR_COUNT>  (1) 
6

>  <PUBCHEM_PHARMACOPHORE_FEATURES>  (1) 
3
1 3 donor
4 3 4 5 8 cation
6 4 5 6 8 10 11 rings

>  <PUBCHEM_HEAVY_ATOM_COUNT>  (1) 
15

>  <PUBCHEM_ATOM_DEF_STEREO_COUNT>  (1) 
0

>  <PUBCHEM_ATOM_UDEF_STEREO_COUNT>  (1) 
0

>  <PUBCHEM_BOND_DEF_STEREO_COUNT>  (1) 
0

>  <PUBCHEM_BOND_UDEF_STEREO_COUNT>  (1) 
0

>  <PUBCHEM_ISOTOPIC_ATOM_COUNT>  (1) 
0

>  <PUBCHEM_COMPONENT_COUNT>  (1) 
1

>  <PUBCHEM_CACTVS_TAUTO_COUNT>  (1) 
3

>  <PUBCHEM_CONFORMER_ID>  (1) 
000088D000000001

>  <PUBCHEM_MMFF94_ENERGY>  (1) 
33.5511

>  <PUBCHEM_FEATURE_SELFOVERLAP>  (1) 
15.223

>  <PUBCHEM_SHAPE_FINGERPRINT>  (1) 
10411042 1 17978229692261388898
10756046 70 17531827817013002244
12532896 13 18340487746890517647
13052359 8 18409444786984116251
13134695 92 17547284966393628695
13380535 76 18270679758053862204
14178000 15 17547571934696645007
14178000 22 18336820884186183156
15042514 8 18409169917503680626
15906896 17 18343292687094836063
17539 30 18269828882099052871
193761 8 18194401331887283845
19427546 20 18263088880479626860
204376 136 18337956662507380473
20645477 56 18410013213459112116
20645477 70 17757828928015901061
20671657 53 17691975173149333175
20871998 184 18129666425656323718
20871998 22 17835237127179456866
21041028 32 17973456682679014667
21426921 1 18338518655099338958
21478907 32 18266456692784953931
21499 59 18265327296901157773
21524375 3 18187650132976867776
22224240 67 18343027649586007113
23402539 116 18271515404124218924
23419403 2 17130417106821647827
23530152 11 18266460910579404079
23557571 272 18272661172929035324
23558518 356 18189334752668839624
23559900 14 18271807887961380380
2748010 2 18121522179620104223
3091708 16 9199156947121393163
3250762 1 18055622065219812048
366044 4 18337671901817352392
474229 33 18409170983251707953
53917941 68 18266436789748047805
54173680 148 18338234997941820131
58779409 54 18339068406207069623
58779409 8 18409737222590857207
68521 5 18266461094888704807
7364860 26 17618503186308578481
77188 2 17762056944912901855
81228 2 18117550949615503489
81539 233 18046345223876097853

>  <PUBCHEM_SHAPE_MULTIPOLES>  (1) 
277.03
7.16
4.17
0.58
9.05
3.91
0
-3.84
0.01
-7.18
0
-0.01
0.01
-0.01

>  <PUBCHEM_SHAPE_SELFOVERLAP>  (1) 
546.121

>  <PUBCHEM_SHAPE_VOLUME>  (1) 
162.6

>  <PUBCHEM_COORDINATE_TYPE>  (1) 
2
5
10

$$$$
