35023
     RDKit          3D

 18 19  0  0  0  0  0  0  0  0999 V2000
    3.9613    1.0795    0.4317 O   0  0  0  0  0  0  0  0  0  0  0  0
    1.7463   -2.9242   -0.2508 O   0  0  0  0  0  0  0  0  0  0  0  0
   -0.6228    1.0838   -0.3966 N   0  0  0  0  0  0  0  0  0  0  0  0
    0.5355   -0.9542   -0.3319 N   0  0  0  0  0  0  0  0  0  0  0  0
    1.6844    1.1225    0.0220 N   0  0  0  0  0  0  0  0  0  0  0  0
    2.8969   -0.9469    0.0944 N   0  0  0  0  0  0  0  0  0  0  0  0
   -1.9149    0.6114   -0.0858 C   0  0  0  0  0  0  0  0  0  0  0  0
    0.6013    0.3776   -0.2260 C   0  0  0  0  0  0  0  0  0  0  0  0
   -0.5329    2.5239   -0.6858 C   0  0  0  0  0  0  0  0  0  0  0  0
   -2.0919   -0.3026    0.9529 C   0  0  0  0  0  0  0  0  0  0  0  0
   -3.0156    1.0587   -0.8163 C   0  0  0  0  0  0  0  0  0  0  0  0
   -3.3698   -0.7693    1.2611 C   0  0  0  0  0  0  0  0  0  0  0  0
   -4.2936    0.5921   -0.5081 C   0  0  0  0  0  0  0  0  0  0  0  0
   -4.4706   -0.3220    0.5306 C   0  0  0  0  0  0  0  0  0  0  0  0
    2.8000    0.3902    0.1713 C   0  0  0  0  0  0  0  0  0  0  0  0
    1.7254   -1.5521   -0.1597 C   0  0  0  0  0  0  0  0  0  0  0  0
    3.8553    2.4935    0.5147 C   0  0  0  0  0  0  0  0  0  0  0  0
    0.5055   -3.5618   -0.5176 C   0  0  0  0  0  0  0  0  0  0  0  0
  1 15  1  0
  1 17  1  0
  2 16  1  0
  2 18  1  0
  3  7  1  0
  3  8  1  0
  3  9  1  0
  4  8  2  0
  4 16  1  0
  5  8  1  0
  5 15  2  0
  6 15  1  0
  6 16  2  0
  7 10  2  0
  7 11  1  0
 10 12  1  0
 11 13  2  0
 12 14  2  0
 13 14  1  0
M  END
>  <PUBCHEM_COMPOUND_CID>  (1) 
35023

>  <PUBCHEM_CONFORMER_RMSD>  (1) 
0.6

>  <PUBCHEM_CONFORMER_DIVERSEORDER>  (1) 
1
4
16
3
2
15
5
10
17
12
13
14
8
6
7
9
11

>  <PUBCHEM_MMFF94_PARTIAL_CHARGES>  (1) 
23
1 -0.36
10 -0.15
11 -0.15
12 -0.15
13 -0.15
14 -0.15
15 0.7
16 0.7
17 0.28
18 0.28
2 -0.36
22 0.15
23 0.15
24 0.15
25 0.15
26 0.15
3 -0.57
4 -0.62
5 -0.62
6 -0.62
7 0.1
8 0.72
9 0.37

>  <PUBCHEM_EFFECTIVE_ROTOR_COUNT>  (1) 
4

>  <PUBCHEM_PHARMACOPHORE_FEATURES>  (1) 
3
4 3 4 5 8 cation
6 4 5 6 8 15 16 rings
6 7 10 11 12 13 14 rings

>  <PUBCHEM_HEAVY_ATOM_COUNT>  (1) 
18

>  <PUBCHEM_ATOM_DEF_STEREO_COUNT>  (1) 
0

>  <PUBCHEM_ATOM_UDEF_STEREO_COUNT>  (1) 
0

>  <PUBCHEM_BOND_DEF_STEREO_COUNT>  (1) 
0

>  <PUBCHEM_BOND_UDEF_STEREO_COUNT>  (1) 
0

>  <PUBCHEM_ISOTOPIC_ATOM_COUNT>  (1) 
0

>  <PUBCHEM_COMPONENT_COUNT>  (1) 
1

>  <PUBCHEM_CACTVS_TAUTO_COUNT>  (1) 
1

>  <PUBCHEM_CONFORMER_ID>  (1) 
000088CF00000001

>  <PUBCHEM_MMFF94_ENERGY>  (1) 
76.5366

>  <PUBCHEM_FEATURE_SELFOVERLAP>  (1) 
15.223

>  <PUBCHEM_SHAPE_FINGERPRINT>  (1) 
10493431 412 18197214973916708152
10608611 8 18263077734591295341
11132069 177 18261956357131748737
12553582 1 17331407467170353174
12596602 18 17489046928347862907
12788726 201 16320908912218843274
13032168 30 17915170450267273231
13140716 1 18411133675647233842
13296908 3 18260271806945055235
13583140 156 16735481275031811516
14115302 16 14418141742146680985
14223421 5 18265332811285477917
14252887 29 18261685808952642617
14289901 80 18202275871378190505
14787075 74 17629761433678788817
15219456 202 18334857199537212801
15309172 13 18341331179725414920
15375358 24 18260825995144236625
15375462 6 18337953376740977932
15635459 17 18263087634728321891
16945 1 18340487759817493894
17138139 8 17270845632942886247
17980427 23 17313948657155989789
19049666 15 18046344132964694245
19784866 170 18335423482132340572
200 152 18273208725604126269
20201158 50 18261958457766375851
20279233 1 18259706692317593281
204376 136 18341612689109304280
20645477 70 18339070481056068807
21285901 2 17895188849683502581
21501502 16 18122910819608509428
221490 88 18193842544084012262
22224240 67 18271241750050371561
22854114 59 18412825815035526721
23402539 116 17749658680189305549
23557571 272 17458908132970963325
23559900 14 18187923911619707548
2748010 2 18336280010269711222
33824 294 18410293605586995611
474 4 16772367729674888160
474229 33 18337951323799390170
495365 180 18198039448639178785
5104073 3 18334576802708369441
633830 44 17917727802269712548
6438718 38 17628921428180736774
7364860 26 18268427941150238254
81228 2 17751935626815462949
81539 233 18408603669231595310
8272917 22 18271810064671016525
9709674 26 18192428576446511799

>  <PUBCHEM_SHAPE_MULTIPOLES>  (1) 
338.77
7.6
3.06
0.9
2.44
2.22
0.11
-2.57
1.5
-2.73
-0.65
0.58
-0.02
1.13

>  <PUBCHEM_SHAPE_SELFOVERLAP>  (1) 
715.366

>  <PUBCHEM_SHAPE_VOLUME>  (1) 
187.2

>  <PUBCHEM_COORDINATE_TYPE>  (1) 
2
5
10

$$$$
