35021
     RDKit          3D

 18 19  0  0  0  0  0  0  0  0999 V2000
   -6.0935   -0.4290    0.0025 Br  0  0  0  0  0  0  0  0  0  0  0  0
    4.4187    1.1061   -0.0490 O   0  0  0  0  0  0  0  0  0  0  0  0
    2.0047   -2.8333    0.1840 O   0  0  0  0  0  0  0  0  0  0  0  0
   -0.2375    1.2411   -0.0788 N   0  0  0  0  0  0  0  0  0  0  0  0
    0.8553   -0.8294    0.0535 N   0  0  0  0  0  0  0  0  0  0  0  0
    2.1075    1.2139   -0.0674 N   0  0  0  0  0  0  0  0  0  0  0  0
    3.2541   -0.8897    0.0674 N   0  0  0  0  0  0  0  0  0  0  0  0
   -1.5938    0.8546   -0.0596 C   0  0  0  0  0  0  0  0  0  0  0  0
   -2.5535    1.7046    0.4899 C   0  0  0  0  0  0  0  0  0  0  0  0
   -1.9755   -0.3773   -0.5910 C   0  0  0  0  0  0  0  0  0  0  0  0
    0.9640    0.5080   -0.0286 C   0  0  0  0  0  0  0  0  0  0  0  0
   -3.8949    1.3227    0.5082 C   0  0  0  0  0  0  0  0  0  0  0  0
   -3.3169   -0.7592   -0.5728 C   0  0  0  0  0  0  0  0  0  0  0  0
   -4.2767    0.0907   -0.0232 C   0  0  0  0  0  0  0  0  0  0  0  0
    3.2105    0.4498   -0.0157 C   0  0  0  0  0  0  0  0  0  0  0  0
    2.0395   -1.4613    0.0974 C   0  0  0  0  0  0  0  0  0  0  0  0
    4.3696    2.5230   -0.1345 C   0  0  0  0  0  0  0  0  0  0  0  0
    0.7185   -3.4352    0.2178 C   0  0  0  0  0  0  0  0  0  0  0  0
  1 14  1  0
  2 15  1  0
  2 17  1  0
  3 16  1  0
  3 18  1  0
  4  8  1  0
  4 11  1  0
  5 11  2  0
  5 16  1  0
  6 11  1  0
  6 15  2  0
  7 15  1  0
  7 16  2  0
  8  9  2  0
  8 10  1  0
  9 12  1  0
 10 13  2  0
 12 14  2  0
 13 14  1  0
M  END
>  <PUBCHEM_COMPOUND_CID>  (1) 
35021

>  <PUBCHEM_CONFORMER_RMSD>  (1) 
0.6

>  <PUBCHEM_CONFORMER_DIVERSEORDER>  (1) 
1
14
7
10
16
9
6
15
5
11
3
13
2
8
12
4

>  <PUBCHEM_MMFF94_PARTIAL_CHARGES>  (1) 
23
1 -0.11
10 -0.15
11 0.72
12 -0.15
13 -0.15
14 0.11
15 0.7
16 0.7
17 0.28
18 0.28
19 0.4
2 -0.36
20 0.15
21 0.15
22 0.15
23 0.15
3 -0.36
4 -0.6
5 -0.62
6 -0.62
7 -0.62
8 0.1
9 -0.15

>  <PUBCHEM_EFFECTIVE_ROTOR_COUNT>  (1) 
4

>  <PUBCHEM_PHARMACOPHORE_FEATURES>  (1) 
5
1 1 hydrophobe
1 4 donor
4 4 5 6 11 cation
6 5 6 7 11 15 16 rings
6 8 9 10 12 13 14 rings

>  <PUBCHEM_HEAVY_ATOM_COUNT>  (1) 
18

>  <PUBCHEM_ATOM_DEF_STEREO_COUNT>  (1) 
0

>  <PUBCHEM_ATOM_UDEF_STEREO_COUNT>  (1) 
0

>  <PUBCHEM_BOND_DEF_STEREO_COUNT>  (1) 
0

>  <PUBCHEM_BOND_UDEF_STEREO_COUNT>  (1) 
0

>  <PUBCHEM_ISOTOPIC_ATOM_COUNT>  (1) 
0

>  <PUBCHEM_COMPONENT_COUNT>  (1) 
1

>  <PUBCHEM_CACTVS_TAUTO_COUNT>  (1) 
3

>  <PUBCHEM_CONFORMER_ID>  (1) 
000088CD00000001

>  <PUBCHEM_MMFF94_ENERGY>  (1) 
62.8698

>  <PUBCHEM_FEATURE_SELFOVERLAP>  (1) 
25.371

>  <PUBCHEM_SHAPE_FINGERPRINT>  (1) 
10090160 65 18334571382153426181
10616163 171 18413108389998898127
12107183 9 17621325632942157185
12236239 1 18201721764963008493
12596602 18 17775018903236629387
12788726 201 17274549724402636369
13167823 11 18271244928811343485
13533116 47 18343297034176661171
13836976 161 18260270788863804676
138480 1 17906170655309576362
14178342 30 17979903922521631784
14787075 74 18129379461379105561
15196674 1 18339924823123481741
15375358 24 18113620088382836497
15375462 189 18201995508808429019
15442244 35 17980482256636495769
15536298 74 18342739568094630070
17492 89 18268430123310609867
17834072 33 18341891905212811677
19422 9 18270120093940319875
200 152 18342171181461756757
20279233 1 16298389054608486825
204376 136 18335422425913036764
20645477 70 18262232223176680255
21065198 48 18271529698070395761
21267235 1 18341338803165888295
221490 88 18337117743762349258
2255824 54 18338238150711741406
23463225 33 18269554932068327991
23559900 14 18195237811153700961
239999 70 18272376330302683126
2871803 45 18410291389457457687
33824 294 18335419053984102739
42630746 31 18411981364746748694
474 4 18261678172337753428
474229 33 18336547230244457914
5104073 3 18339081489078302513
5486654 2 18339365291721798868
58051976 378 18411983589202217516
603831 33 18130210627982279717
621550 34 18186514393378785909
633830 44 18343303673795226644
7364860 26 18268430140242104558
77779 3 18340770351712730113
8272917 22 18339646646243941151
9709674 26 18337115557924623971

>  <PUBCHEM_SHAPE_MULTIPOLES>  (1) 
344.71
10.6
2.81
0.67
7.11
2.16
-0.01
-3.29
-0.04
-2.97
0.31
0.28
-0.01
-0.61

>  <PUBCHEM_SHAPE_SELFOVERLAP>  (1) 
713.53

>  <PUBCHEM_SHAPE_VOLUME>  (1) 
202.8

>  <PUBCHEM_COORDINATE_TYPE>  (1) 
2
5
10

$$$$
