35029
     RDKit          3D

 17 17  0  0  0  0  0  0  0  0999 V2000
    0.0758   -2.2723   -0.1767 O   0  0  0  0  0  0  0  0  0  0  0  0
   -1.3625    2.1094    0.1889 O   0  0  0  0  0  0  0  0  0  0  0  0
    3.1988    1.1774    0.0383 N   0  0  0  0  0  0  0  0  0  0  0  0
    0.9111    1.6865    0.1160 N   0  0  0  0  0  0  0  0  0  0  0  0
    1.6571   -0.5863   -0.0737 N   0  0  0  0  0  0  0  0  0  0  0  0
   -0.6906   -0.0967    0.0037 N   0  0  0  0  0  0  0  0  0  0  0  0
    4.3090    0.2814   -0.0499 C   0  0  0  0  0  0  0  0  0  0  0  0
    1.8572    0.7378    0.0262 C   0  0  0  0  0  0  0  0  0  0  0  0
    5.6107    1.0594   -0.0332 C   0  0  0  0  0  0  0  0  0  0  0  0
    0.3582   -0.9343   -0.0793 C   0  0  0  0  0  0  0  0  0  0  0  0
   -0.3387    1.1957    0.0984 C   0  0  0  0  0  0  0  0  0  0  0  0
   -1.2965   -2.6394   -0.1826 C   0  0  0  0  0  0  0  0  0  0  0  0
   -2.6833    1.5873    0.1700 C   0  0  0  0  0  0  0  0  0  0  0  0
   -1.3966   -4.1190   -0.3517 C   0  0  0  0  0  0  0  0  0  0  0  0
   -3.6473    2.7150    0.3344 C   0  0  0  0  0  0  0  0  0  0  0  0
   -1.9768   -4.9348    0.5354 C   0  0  0  0  0  0  0  0  0  0  0  0
   -4.5856    3.0327   -0.5644 C   0  0  0  0  0  0  0  0  0  0  0  0
  1 10  1  0
  1 12  1  0
  2 11  1  0
  2 13  1  0
  3  7  1  0
  3  8  1  0
  4  8  2  0
  4 11  1  0
  5  8  1  0
  5 10  2  0
  6 10  1  0
  6 11  2  0
  7  9  1  0
 12 14  1  0
 13 15  1  0
 14 16  2  0
 15 17  2  0
M  END
>  <PUBCHEM_COMPOUND_CID>  (1) 
35029

>  <PUBCHEM_CONFORMER_RMSD>  (1) 
0.8

>  <PUBCHEM_CONFORMER_DIVERSEORDER>  (1) 
1
37
9
23
40
25
10
27
17
29
32
28
26
39
24
6
12
35
36
38
20
33
15
8
22
18
7
21
30
4
2
11
14
16
5
19
31
34
3
13

>  <PUBCHEM_MMFF94_PARTIAL_CHARGES>  (1) 
23
1 -0.36
10 0.7
11 0.7
12 0.42
13 0.42
14 -0.29
15 -0.29
16 -0.3
17 -0.3
2 -0.36
20 0.4
28 0.15
29 0.15
3 -0.87
30 0.15
31 0.15
32 0.15
33 0.15
4 -0.62
5 -0.62
6 -0.62
7 0.37
8 0.72

>  <PUBCHEM_EFFECTIVE_ROTOR_COUNT>  (1) 
8

>  <PUBCHEM_PHARMACOPHORE_FEATURES>  (1) 
5
1 16 hydrophobe
1 17 hydrophobe
1 3 donor
4 3 4 5 8 cation
6 4 5 6 8 10 11 rings

>  <PUBCHEM_HEAVY_ATOM_COUNT>  (1) 
17

>  <PUBCHEM_ATOM_DEF_STEREO_COUNT>  (1) 
0

>  <PUBCHEM_ATOM_UDEF_STEREO_COUNT>  (1) 
0

>  <PUBCHEM_BOND_DEF_STEREO_COUNT>  (1) 
0

>  <PUBCHEM_BOND_UDEF_STEREO_COUNT>  (1) 
0

>  <PUBCHEM_ISOTOPIC_ATOM_COUNT>  (1) 
0

>  <PUBCHEM_COMPONENT_COUNT>  (1) 
1

>  <PUBCHEM_CACTVS_TAUTO_COUNT>  (1) 
3

>  <PUBCHEM_CONFORMER_ID>  (1) 
000088D500000001

>  <PUBCHEM_MMFF94_ENERGY>  (1) 
38.7576

>  <PUBCHEM_FEATURE_SELFOVERLAP>  (1) 
25.371

>  <PUBCHEM_SHAPE_FINGERPRINT>  (1) 
10411042 1 17762619890424195374
12532896 13 18341332197506018430
13052359 8 18411136956627214240
13134695 92 17330831829999500095
138480 1 17185877190797352779
13955234 65 17834683691037564953
13968360 50 18192137201776022717
14178000 15 17403740441837057491
14866123 147 18410572903189744082
15042514 8 18194409011636845515
17539 30 18197773508300676119
19427546 20 18264778838578811044
204376 136 18338800000742286193
20645477 70 17902790765698858097
21041028 32 17906172111171250854
21426921 1 18266743665720074020
21452121 199 16749872413154927459
21478907 32 18122625221532000306
2255824 54 17837489648790156511
23402539 116 18272080574713012220
23530152 11 18339082575282839551
23558518 356 18117557551391992744
2748010 2 18194144952414442103
3091708 16 9196907350557475899
366044 4 18338797819120478464
3759504 43 18410573968003561996
4409770 3 18337106877911600763
53917941 68 18340749499340878108
54173680 148 18267021850166390386
58779409 54 18267856358127851446
58779409 8 18410304604913500758
59755656 520 18338229376056535484
6025842 7 18050843317782831821
621550 34 17973727974341371509
68521 5 18123191461567234638
7164475 11 18048601713957568284
7364860 26 17835240043514894305
77188 2 17545884188405436983
81539 233 18191307065801398157

>  <PUBCHEM_SHAPE_MULTIPOLES>  (1) 
318.19
8.02
5.87
0.65
8.31
9.49
0
-8.96
0.39
-9.09
-0.22
-0.19
0.05
0.35

>  <PUBCHEM_SHAPE_SELFOVERLAP>  (1) 
631.809

>  <PUBCHEM_SHAPE_VOLUME>  (1) 
184.7

>  <PUBCHEM_COORDINATE_TYPE>  (1) 
2
5
10

$$$$
