3504
     RDKit          3D

 26 27  0  0  1  0  0  0  0  0999 V2000
   -0.6937   -2.8187   -0.1668 O   0  0  0  0  0  0  0  0  0  0  0  0
    0.8096    0.7335   -0.8892 O   0  0  0  0  0  0  0  0  0  0  0  0
    0.7223   -2.0490    1.4883 O   0  0  0  0  0  0  0  0  0  0  0  0
    3.9553    1.2386   -1.0984 O   0  0  0  0  0  0  0  0  0  0  0  0
    2.3080   -1.0109   -0.4483 N   0  0  0  0  0  0  0  0  0  0  0  0
   -4.1152    2.2636   -0.4333 N   0  0  0  0  0  0  0  0  0  0  0  0
    1.4485   -2.1296   -0.8059 C   0  0  0  0  0  0  0  0  0  0  0  0
    2.3963   -3.3158   -0.9406 C   0  0  0  0  0  0  0  0  0  0  0  0
    3.5320   -2.9753    0.0222 C   0  0  0  0  0  0  0  0  0  0  0  0
    3.6503   -1.4633   -0.0954 C   0  0  0  0  0  0  0  0  0  0  0  0
    2.7642    2.3579    0.7311 C   0  0  0  0  0  0  0  0  0  0  0  0
    1.9158    0.3026   -0.5962 C   0  0  0  0  0  0  0  0  0  0  0  0
    0.4765   -2.3157    0.3198 C   0  0  0  0  0  0  0  0  0  0  0  0
    2.9793    1.3096   -0.3634 C   0  0  0  0  0  0  0  0  0  0  0  0
    1.5179    3.2308    0.4446 C   0  0  0  0  0  0  0  0  0  0  0  0
    4.0114    3.2578    0.7891 C   0  0  0  0  0  0  0  0  0  0  0  0
    2.6263    1.6452    2.0893 C   0  0  0  0  0  0  0  0  0  0  0  0
    1.5663    4.0130   -0.8638 C   0  0  0  0  0  0  0  0  0  0  0  0
   -1.7169   -3.0472    0.8073 C   0  0  0  0  0  0  0  0  0  0  0  0
   -2.5603   -1.7869    0.9400 C   0  0  0  0  0  0  0  0  0  0  0  0
   -3.2325   -1.4188   -0.3815 C   0  0  0  0  0  0  0  0  0  0  0  0
   -4.0323   -0.1467   -0.2648 C   0  0  0  0  0  0  0  0  0  0  0  0
   -5.3727   -0.1743    0.1040 C   0  0  0  0  0  0  0  0  0  0  0  0
   -3.4554    1.0869   -0.5206 C   0  0  0  0  0  0  0  0  0  0  0  0
   -6.0850    1.0156    0.2046 C   0  0  0  0  0  0  0  0  0  0  0  0
   -5.4162    2.1971   -0.0720 C   0  0  0  0  0  0  0  0  0  0  0  0
  1 13  1  0
  1 19  1  0
  2 12  2  0
  3 13  2  0
  4 14  2  0
  5  7  1  0
  5 10  1  0
  5 12  1  0
  6 24  2  0
  6 26  1  0
  7  8  1  0
  7 13  1  0
  8  9  1  0
  9 10  1  0
 11 14  1  0
 11 15  1  0
 11 16  1  0
 11 17  1  0
 12 14  1  0
 15 18  1  0
 19 20  1  0
 20 21  1  0
 21 22  1  0
 22 23  2  0
 22 24  1  0
 23 25  1  0
 25 26  2  0
M  END
>  <PUBCHEM_COMPOUND_CID>  (1) 
3504

>  <PUBCHEM_CONFORMER_RMSD>  (1) 
1.6

>  <PUBCHEM_CONFORMER_DIVERSEORDER>  (1) 
2
18
30
8
24
7
58
34
62
28
36
64
46
6
57
67
33
70
5
4
23
31
22
35
51
10
3
1
65
25
45
71
13
56
39
42
11
26
53
61
27
15
38
21
37
47
9
12
14
69
48
41
40
17
55
20
29
63
50
59
43
32
44
54
68
60
16
66
52
49
19

>  <PUBCHEM_MMFF94_PARTIAL_CHARGES>  (1) 
23
1 -0.43
10 0.3
11 0.06
12 0.63
13 0.66
14 0.51
19 0.28
2 -0.57
21 0.14
22 -0.14
23 -0.15
24 0.16
25 -0.15
26 0.16
3 -0.57
4 -0.57
5 -0.66
51 0.15
52 0.15
53 0.15
54 0.15
6 -0.62
7 0.36

>  <PUBCHEM_EFFECTIVE_ROTOR_COUNT>  (1) 
11

>  <PUBCHEM_PHARMACOPHORE_FEATURES>  (1) 
8
1 18 hydrophobe
1 2 acceptor
1 3 acceptor
1 4 acceptor
1 6 acceptor
3 11 16 17 hydrophobe
5 5 7 8 9 10 rings
6 6 22 23 24 25 26 rings

>  <PUBCHEM_HEAVY_ATOM_COUNT>  (1) 
26

>  <PUBCHEM_ATOM_DEF_STEREO_COUNT>  (1) 
0

>  <PUBCHEM_ATOM_UDEF_STEREO_COUNT>  (1) 
1

>  <PUBCHEM_BOND_DEF_STEREO_COUNT>  (1) 
0

>  <PUBCHEM_BOND_UDEF_STEREO_COUNT>  (1) 
0

>  <PUBCHEM_ISOTOPIC_ATOM_COUNT>  (1) 
0

>  <PUBCHEM_COMPONENT_COUNT>  (1) 
1

>  <PUBCHEM_CACTVS_TAUTO_COUNT>  (1) 
1

>  <PUBCHEM_CONFORMER_ID>  (1) 
00000DB000000002

>  <PUBCHEM_MMFF94_ENERGY>  (1) 
57.523

>  <PUBCHEM_FEATURE_SELFOVERLAP>  (1) 
40.598

>  <PUBCHEM_SHAPE_FINGERPRINT>  (1) 
10439779 11 18412535535628982688
11370993 70 18339077223933203081
11456790 92 17826522059332278769
12422481 6 18263904658125295482
12549972 3 17968395497053797658
12633257 1 18042106816830501269
12788726 201 17760657971118066758
12925494 130 18120655735284955929
13402501 40 18335422314096031845
14251764 38 18193272125150528785
14466204 15 18119804712182218475
14468879 13 18261960764295780707
14848178 96 18411416224407674017
15295992 7 18261119539064017027
15420108 30 18127953395457613794
17093844 170 18411415120480143144
1768 85 18339936978260926561
20567600 299 18343298154382416678
20621476 13 18411703205173658233
21033648 29 17914045667115446000
21860390 5 18272376317159318782
22122407 14 18053681187759891417
22393880 68 18129669719537602198
23559900 14 18412544322984415713
3298306 158 18342174535551692113
345986 75 17173193310617549138
463206 1 17619073823884928872
469060 322 17688608464571889507
495365 180 18059850701209216658
508706 21 18195526128261318317
5104073 3 18335424560907539387
54672768 99 18266180728156208632
5776283 40 18119549853645576612
5895379 119 17487066561159470385
9981440 41 18123463045081425267

>  <PUBCHEM_SHAPE_MULTIPOLES>  (1) 
501.63
11.03
5.33
1.17
17.02
0.77
-0.37
5.78
0.1
-4.52
-0.07
-0.81
0.17
1.37

>  <PUBCHEM_SHAPE_SELFOVERLAP>  (1) 
1035.941

>  <PUBCHEM_SHAPE_VOLUME>  (1) 
286.8

>  <PUBCHEM_COORDINATE_TYPE>  (1) 
2
5
10

$$$$
