35051
     RDKit          3D

 11 11  0  0  0  0  0  0  0  0999 V2000
   -3.0580    0.0151   -1.7173 I   0  0  0  0  0  0  0  0  0  0  0  0
   -3.0541    0.0138    1.7203 I   0  0  0  0  0  0  0  0  0  0  0  0
   -0.2896    0.9810   -0.0011 N   0  0  0  0  0  0  0  0  0  0  0  0
    0.3259   -1.3383   -0.0012 N   0  0  0  0  0  0  0  0  0  0  0  0
    2.0266    0.3544   -0.0005 N   0  0  0  0  0  0  0  0  0  0  0  0
    1.3944    2.6128    0.0015 N   0  0  0  0  0  0  0  0  0  0  0  0
    2.5976   -1.9200    0.0011 N   0  0  0  0  0  0  0  0  0  0  0  0
   -0.5647   -0.3334   -0.0013 C   0  0  0  0  0  0  0  0  0  0  0  0
   -2.0056   -0.7160    0.0001 C   0  0  0  0  0  0  0  0  0  0  0  0
    1.0260    1.2498   -0.0008 C   0  0  0  0  0  0  0  0  0  0  0  0
    1.6016   -0.9193   -0.0008 C   0  0  0  0  0  0  0  0  0  0  0  0
  1  9  1  0
  2  9  1  0
  3  8  2  0
  3 10  1  0
  4  8  1  0
  4 11  2  0
  5 10  2  0
  5 11  1  0
  6 10  1  0
  7 11  1  0
  8  9  1  0
M  END
>  <PUBCHEM_COMPOUND_CID>  (1) 
35051

>  <PUBCHEM_CONFORMER_RMSD>  (1) 
0.4

>  <PUBCHEM_CONFORMER_DIVERSEORDER>  (1) 
1
2
3

>  <PUBCHEM_MMFF94_PARTIAL_CHARGES>  (1) 
15
1 -0.19
10 0.72
11 0.72
13 0.4
14 0.4
15 0.4
16 0.4
2 -0.19
3 -0.62
4 -0.62
5 -0.62
6 -0.9
7 -0.9
8 0.48
9 0.52

>  <PUBCHEM_EFFECTIVE_ROTOR_COUNT>  (1) 
1

>  <PUBCHEM_PHARMACOPHORE_FEATURES>  (1) 
8
1 1 hydrophobe
1 2 hydrophobe
1 6 donor
1 7 donor
3 1 2 9 hydrophobe
4 3 5 6 10 cation
4 4 5 7 11 cation
6 3 4 5 8 10 11 rings

>  <PUBCHEM_HEAVY_ATOM_COUNT>  (1) 
11

>  <PUBCHEM_ATOM_DEF_STEREO_COUNT>  (1) 
0

>  <PUBCHEM_ATOM_UDEF_STEREO_COUNT>  (1) 
0

>  <PUBCHEM_BOND_DEF_STEREO_COUNT>  (1) 
0

>  <PUBCHEM_BOND_UDEF_STEREO_COUNT>  (1) 
0

>  <PUBCHEM_ISOTOPIC_ATOM_COUNT>  (1) 
0

>  <PUBCHEM_COMPONENT_COUNT>  (1) 
1

>  <PUBCHEM_CACTVS_TAUTO_COUNT>  (1) 
5

>  <PUBCHEM_CONFORMER_ID>  (1) 
000088EB00000001

>  <PUBCHEM_MMFF94_ENERGY>  (1) 
28.4438

>  <PUBCHEM_FEATURE_SELFOVERLAP>  (1) 
41.52

>  <PUBCHEM_SHAPE_FINGERPRINT>  (1) 
124424 183 17604971689630921083
12932741 1 17748821925912417559
12932764 1 17821447980299581827
16945 1 18410856589773171396
17357990 137 17344378638208791337
17844478 74 17676501561580456409
18380122 1 17606688178059337489
20653085 51 18335968802014911565
20715346 28 17822009856579399917
20871998 184 17695632848860228830
21040471 1 17690280838652281252
21061003 4 18189912941055373027
21930827 45 16443338750729907029
228727 97 17343785065286151141
2748010 2 18266453209676668636
63268167 104 18412538842758802041
77492 1 17703792539725184903
8030462 33 17702944871925919909
81228 2 17759799239434743144

>  <PUBCHEM_SHAPE_MULTIPOLES>  (1) 
225.34
4.76
1.85
1.5
1.49
0.72
0
-0.67
0
-1.87
0
2.44
0.04
0

>  <PUBCHEM_SHAPE_SELFOVERLAP>  (1) 
417.292

>  <PUBCHEM_SHAPE_VOLUME>  (1) 
148.8

>  <PUBCHEM_COORDINATE_TYPE>  (1) 
2
5
10

$$$$
