35055
     RDKit          3D

 11 11  0  0  0  0  0  0  0  0999 V2000
   -3.0818    0.8076    1.0707 Cl  0  0  0  0  0  0  0  0  0  0  0  0
   -0.2240    0.9952   -0.4763 N   0  0  0  0  0  0  0  0  0  0  0  0
    0.2875   -1.3328   -0.1995 N   0  0  0  0  0  0  0  0  0  0  0  0
    1.9628    0.3253    0.2496 N   0  0  0  0  0  0  0  0  0  0  0  0
    1.4329    2.5930   -0.0281 N   0  0  0  0  0  0  0  0  0  0  0  0
    2.4328   -1.9569    0.5128 N   0  0  0  0  0  0  0  0  0  0  0  0
   -1.9145   -0.6669   -0.9281 C   0  0  0  0  0  0  0  0  0  0  0  0
   -0.5286   -0.3123   -0.5084 C   0  0  0  0  0  0  0  0  0  0  0  0
   -2.9221   -0.7521    0.2254 C   0  0  0  0  0  0  0  0  0  0  0  0
    1.0383    1.2386   -0.0884 C   0  0  0  0  0  0  0  0  0  0  0  0
    1.5167   -0.9387    0.1704 C   0  0  0  0  0  0  0  0  0  0  0  0
  1  9  1  0
  2  8  2  0
  2 10  1  0
  3  8  1  0
  3 11  2  0
  4 10  2  0
  4 11  1  0
  5 10  1  0
  6 11  1  0
  7  8  1  0
  7  9  1  0
M  END
>  <PUBCHEM_COMPOUND_CID>  (1) 
35055

>  <PUBCHEM_CONFORMER_RMSD>  (1) 
0.4

>  <PUBCHEM_CONFORMER_DIVERSEORDER>  (1) 
1
10
6
2
8
3
7
5
4
9

>  <PUBCHEM_MMFF94_PARTIAL_CHARGES>  (1) 
15
1 -0.29
10 0.72
11 0.72
16 0.4
17 0.4
18 0.4
19 0.4
2 -0.62
3 -0.62
4 -0.62
5 -0.9
6 -0.9
7 0.14
8 0.48
9 0.29

>  <PUBCHEM_EFFECTIVE_ROTOR_COUNT>  (1) 
2

>  <PUBCHEM_PHARMACOPHORE_FEATURES>  (1) 
5
1 5 donor
1 6 donor
4 2 4 5 10 cation
4 3 4 6 11 cation
6 2 3 4 8 10 11 rings

>  <PUBCHEM_HEAVY_ATOM_COUNT>  (1) 
11

>  <PUBCHEM_ATOM_DEF_STEREO_COUNT>  (1) 
0

>  <PUBCHEM_ATOM_UDEF_STEREO_COUNT>  (1) 
0

>  <PUBCHEM_BOND_DEF_STEREO_COUNT>  (1) 
0

>  <PUBCHEM_BOND_UDEF_STEREO_COUNT>  (1) 
0

>  <PUBCHEM_ISOTOPIC_ATOM_COUNT>  (1) 
0

>  <PUBCHEM_COMPONENT_COUNT>  (1) 
1

>  <PUBCHEM_CACTVS_TAUTO_COUNT>  (1) 
10

>  <PUBCHEM_CONFORMER_ID>  (1) 
000088EF00000001

>  <PUBCHEM_MMFF94_ENERGY>  (1) 
26.6836

>  <PUBCHEM_FEATURE_SELFOVERLAP>  (1) 
25.415

>  <PUBCHEM_SHAPE_FINGERPRINT>  (1) 
12696612 119 18412267220363267365
15775835 57 17987251082572937737
16945 1 18336536222348688894
17841504 4 18335424560443211347
20379382 53 18334299789933400005
20653091 64 18411134770510102611
20871998 22 18197219152840850318
21040471 1 17615398599242558012
21061003 4 18262226716844029562
23552423 10 18339356495459620927
2748010 2 18194380222555008300
29004967 10 18114175345786177303
63268167 104 18410288125276946849

>  <PUBCHEM_SHAPE_MULTIPOLES>  (1) 
203.34
4.12
2.04
0.87
2.54
0.79
-0.02
-0.44
-1.22
-1.45
-0.12
0.45
-0.03
-0.64

>  <PUBCHEM_SHAPE_SELFOVERLAP>  (1) 
402.722

>  <PUBCHEM_SHAPE_VOLUME>  (1) 
120.2

>  <PUBCHEM_COORDINATE_TYPE>  (1) 
2
5
10

$$$$
