35053
     RDKit          3D

 16 17  0  0  0  0  0  0  0  0999 V2000
    0.7108   -1.2505    0.2089 N   0  0  0  0  0  0  0  0  0  0  0  0
   -0.7919    0.4957   -0.2283 N   0  0  0  0  0  0  0  0  0  0  0  0
   -3.1480    0.0417   -0.2283 N   0  0  0  0  0  0  0  0  0  0  0  0
   -1.5858   -1.7243    0.2174 N   0  0  0  0  0  0  0  0  0  0  0  0
   -3.8942   -2.1379    0.2089 N   0  0  0  0  0  0  0  0  0  0  0  0
   -2.3568    2.2766   -0.6792 C   0  0  0  0  0  0  0  0  0  0  0  0
   -2.0813    0.8471   -0.3575 C   0  0  0  0  0  0  0  0  0  0  0  0
    1.9548   -0.5922    0.1175 C   0  0  0  0  0  0  0  0  0  0  0  0
   -0.6171   -0.8057    0.0596 C   0  0  0  0  0  0  0  0  0  0  0  0
   -2.5226    3.1327    0.5740 C   0  0  0  0  0  0  0  0  0  0  0  0
    3.0854   -1.2922   -0.3038 C   0  0  0  0  0  0  0  0  0  0  0  0
    2.0545    0.7592    0.4485 C   0  0  0  0  0  0  0  0  0  0  0  0
   -2.8240   -1.2292    0.0594 C   0  0  0  0  0  0  0  0  0  0  0  0
    4.3157   -0.6412   -0.3936 C   0  0  0  0  0  0  0  0  0  0  0  0
    3.2849    1.4103    0.3587 C   0  0  0  0  0  0  0  0  0  0  0  0
    4.4155    0.7100   -0.0623 C   0  0  0  0  0  0  0  0  0  0  0  0
  1  8  1  0
  1  9  1  0
  2  7  2  0
  2  9  1  0
  3  7  1  0
  3 13  2  0
  4  9  2  0
  4 13  1  0
  5 13  1  0
  6  7  1  0
  6 10  1  0
  8 11  2  0
  8 12  1  0
 11 14  1  0
 12 15  2  0
 14 16  2  0
 15 16  1  0
M  END
>  <PUBCHEM_COMPOUND_CID>  (1) 
35053

>  <PUBCHEM_CONFORMER_RMSD>  (1) 
0.6

>  <PUBCHEM_CONFORMER_DIVERSEORDER>  (1) 
2
19
8
5
21
15
14
3
12
18
9
10
22
11
4
1
17
7
20
6
13
16

>  <PUBCHEM_MMFF94_PARTIAL_CHARGES>  (1) 
23
1 -0.6
11 -0.15
12 -0.15
13 0.72
14 -0.15
15 -0.15
16 -0.15
19 0.4
2 -0.62
23 0.15
24 0.15
25 0.15
26 0.15
27 0.15
28 0.4
29 0.4
3 -0.62
4 -0.62
5 -0.9
6 0.14
7 0.48
8 0.1
9 0.72

>  <PUBCHEM_EFFECTIVE_ROTOR_COUNT>  (1) 
3

>  <PUBCHEM_PHARMACOPHORE_FEATURES>  (1) 
7
1 1 donor
1 10 hydrophobe
1 5 donor
4 1 2 4 9 cation
4 3 4 5 13 cation
6 2 3 4 7 9 13 rings
6 8 11 12 14 15 16 rings

>  <PUBCHEM_HEAVY_ATOM_COUNT>  (1) 
16

>  <PUBCHEM_ATOM_DEF_STEREO_COUNT>  (1) 
0

>  <PUBCHEM_ATOM_UDEF_STEREO_COUNT>  (1) 
0

>  <PUBCHEM_BOND_DEF_STEREO_COUNT>  (1) 
0

>  <PUBCHEM_BOND_UDEF_STEREO_COUNT>  (1) 
0

>  <PUBCHEM_ISOTOPIC_ATOM_COUNT>  (1) 
0

>  <PUBCHEM_COMPONENT_COUNT>  (1) 
1

>  <PUBCHEM_CACTVS_TAUTO_COUNT>  (1) 
17

>  <PUBCHEM_CONFORMER_ID>  (1) 
000088ED00000002

>  <PUBCHEM_MMFF94_ENERGY>  (1) 
49.1232

>  <PUBCHEM_FEATURE_SELFOVERLAP>  (1) 
35.564

>  <PUBCHEM_SHAPE_FINGERPRINT>  (1) 
10498660 4 18260540117399020333
10608611 8 18412259536883202040
10646746 165 18410572860492550844
11615756 256 18409453570372078516
11715629 250 18271798073296431760
12173636 292 18410851027885430069
15196674 1 18410292510765681652
15442244 35 18192990427099418834
1741750 31 18268424633756349633
17802600 8 18411977001033550192
18186145 218 18201728314714138954
1986462 14 18408605846774720246
20361792 2 14908176456516327762
20510252 161 18410855481898397713
20645477 56 18264775372017742525
20645477 70 17346321436853723126
21029758 11 18266453394787679623
21501502 16 18262512581319586242
21524375 3 17974005046907264973
21652331 79 18338797930694110860
22182937 141 18270405971100838201
2306618 200 18273220776733642233
23402539 116 18341044229077242119
23402655 69 18343580712186738716
23557571 272 18410862087579431831
23558518 356 18261118439224880235
23559900 14 18126844890305444102
23845131 108 17833001442917107745
4028521 119 18261381231220265709
4214541 1 18410011001265643876
474 4 16444481289546121196
5104073 3 18410852132203683080
6049 1 18202273732247308392
77779 3 18410576180359871846
7832392 63 18337671893580735204
81228 2 18187090572084510753
9709674 26 18270963444917923838

>  <PUBCHEM_SHAPE_MULTIPOLES>  (1) 
304.37
8.2
2.64
0.7
4.67
1.31
-0.01
0.11
-0.37
-3.09
0.27
-0.03
0.16
0.42

>  <PUBCHEM_SHAPE_SELFOVERLAP>  (1) 
642.921

>  <PUBCHEM_SHAPE_VOLUME>  (1) 
161.9

>  <PUBCHEM_COORDINATE_TYPE>  (1) 
2
5
10

$$$$
