35065
     RDKit          3D

 23 25  0  0  0  0  0  0  0  0999 V2000
    4.6588   -1.3608   -0.7253 S   0  0  0  0  0  0  0  0  0  0  0  0
   -0.1812   -2.4863   -0.0685 N   0  0  0  0  0  0  0  0  0  0  0  0
    0.9978    2.0438   -0.3641 N   0  0  0  0  0  0  0  0  0  0  0  0
    0.3776   -0.2131   -0.2119 N   0  0  0  0  0  0  0  0  0  0  0  0
    2.6730    0.4112   -0.5263 N   0  0  0  0  0  0  0  0  0  0  0  0
    2.0700   -1.9063   -0.3751 N   0  0  0  0  0  0  0  0  0  0  0  0
    5.6572   -0.0042    1.5778 N   0  0  0  0  0  0  0  0  0  0  0  0
   -1.5795   -2.4307    0.1076 C   0  0  0  0  0  0  0  0  0  0  0  0
   -0.2426    2.6939   -0.2254 C   0  0  0  0  0  0  0  0  0  0  0  0
    0.8008   -1.4890   -0.2256 C   0  0  0  0  0  0  0  0  0  0  0  0
    1.3673    0.6810   -0.3674 C   0  0  0  0  0  0  0  0  0  0  0  0
   -2.3843   -3.4667   -0.3666 C   0  0  0  0  0  0  0  0  0  0  0  0
   -2.1577   -1.3393    0.7558 C   0  0  0  0  0  0  0  0  0  0  0  0
   -0.3077    3.9638    0.3519 C   0  0  0  0  0  0  0  0  0  0  0  0
   -1.4129    2.0707   -0.6643 C   0  0  0  0  0  0  0  0  0  0  0  0
   -3.7671   -3.4112   -0.1930 C   0  0  0  0  0  0  0  0  0  0  0  0
   -3.5407   -1.2839    0.9295 C   0  0  0  0  0  0  0  0  0  0  0  0
   -1.5374    4.6075    0.4900 C   0  0  0  0  0  0  0  0  0  0  0  0
   -2.6424    2.7147   -0.5262 C   0  0  0  0  0  0  0  0  0  0  0  0
   -4.3453   -2.3199    0.4550 C   0  0  0  0  0  0  0  0  0  0  0  0
   -2.7046    3.9832    0.0509 C   0  0  0  0  0  0  0  0  0  0  0  0
    2.9501   -0.9026   -0.5201 C   0  0  0  0  0  0  0  0  0  0  0  0
    5.2507   -0.5556    0.6414 C   0  0  0  0  0  0  0  0  0  0  0  0
  1 22  1  0
  1 23  1  0
  2  8  1  0
  2 10  1  0
  3  9  1  0
  3 11  1  0
  4 10  2  0
  4 11  1  0
  5 11  2  0
  5 22  1  0
  6 10  1  0
  6 22  2  0
  7 23  3  0
  8 12  2  0
  8 13  1  0
  9 14  2  0
  9 15  1  0
 12 16  1  0
 13 17  2  0
 14 18  1  0
 15 19  2  0
 16 20  2  0
 17 20  1  0
 18 21  2  0
 19 21  1  0
M  END
>  <PUBCHEM_COMPOUND_CID>  (1) 
35065

>  <PUBCHEM_CONFORMER_RMSD>  (1) 
0.8

>  <PUBCHEM_CONFORMER_DIVERSEORDER>  (1) 
1
39
26
50
40
13
41
2
24
33
53
44
4
23
42
12
31
49
30
11
6
19
36
20
34
14
52
10
55
32
27
28
35
7
47
25
46
18
48
43
51
29
15
37
56
45
38
17
16
54
9
3
21
8
22
5

>  <PUBCHEM_MMFF94_PARTIAL_CHARGES>  (1) 
35
1 -0.14
10 0.72
11 0.72
12 -0.15
13 -0.15
14 -0.15
15 -0.15
16 -0.15
17 -0.15
18 -0.15
19 -0.15
2 -0.6
20 -0.15
21 -0.15
22 0.72
23 0.59
24 0.4
25 0.4
26 0.15
27 0.15
28 0.15
29 0.15
3 -0.6
30 0.15
31 0.15
32 0.15
33 0.15
34 0.15
35 0.15
4 -0.62
5 -0.62
6 -0.62
7 -0.56
8 0.1
9 0.1

>  <PUBCHEM_EFFECTIVE_ROTOR_COUNT>  (1) 
5

>  <PUBCHEM_PHARMACOPHORE_FEATURES>  (1) 
8
1 2 donor
1 3 donor
1 7 acceptor
4 2 4 6 10 cation
4 3 4 5 11 cation
6 4 5 6 10 11 22 rings
6 8 12 13 16 17 20 rings
6 9 14 15 18 19 21 rings

>  <PUBCHEM_HEAVY_ATOM_COUNT>  (1) 
23

>  <PUBCHEM_ATOM_DEF_STEREO_COUNT>  (1) 
0

>  <PUBCHEM_ATOM_UDEF_STEREO_COUNT>  (1) 
0

>  <PUBCHEM_BOND_DEF_STEREO_COUNT>  (1) 
0

>  <PUBCHEM_BOND_UDEF_STEREO_COUNT>  (1) 
0

>  <PUBCHEM_ISOTOPIC_ATOM_COUNT>  (1) 
0

>  <PUBCHEM_COMPONENT_COUNT>  (1) 
1

>  <PUBCHEM_CACTVS_TAUTO_COUNT>  (1) 
5

>  <PUBCHEM_CONFORMER_ID>  (1) 
000088F900000001

>  <PUBCHEM_MMFF94_ENERGY>  (1) 
76.3095

>  <PUBCHEM_FEATURE_SELFOVERLAP>  (1) 
40.64

>  <PUBCHEM_SHAPE_FINGERPRINT>  (1) 
10050765 1 18338521821261058286
10074138 170 18048284827085934642
10319926 262 18268129987238900234
10411042 1 18338802345789356558
1100329 8 18410015425272382621
12553582 1 18266476458145017215
12788726 201 18261684761207611810
13052359 8 18263923237547409284
13134695 92 18121220045592432279
13140716 1 18337673125829848921
13692114 37 17908408169987760007
138480 1 15815661294784010525
13899415 180 18267011950230233479
13965767 371 17696231069111823291
14081887 123 18339638949957803048
14178342 30 18263075536232612930
14790565 3 17041493713447548070
14844126 61 18335416833485667001
15042514 8 18409166576324884484
15420108 30 17338996769498809196
17138139 8 17836889406015980901
17980427 23 17702392930095504247
19427546 62 17905051348209285756
19930381 70 17329995106641853651
20028762 73 17260453783196875591
21041028 32 18337388361061333118
23419403 2 17703215312820671392
23559900 14 17907294708670775107
23845131 108 17833551193813386297
244849 19 17702951306383373358
25147074 1 17894926118228726220
3091708 16 8989165597603526996
345986 75 17897135062373870858
4409770 3 18335414622015372015
653340 110 18339922619578548802
7164475 11 18408896135472845366
79837 15 18122627150146168976
9777508 108 18268426837454530168
9981440 41 17904482900576127433

>  <PUBCHEM_SHAPE_MULTIPOLES>  (1) 
447.29
8.67
6.44
0.91
11.63
5.74
0.17
-5.8
2.14
-8.99
0.06
0.52
-0.01
0.54

>  <PUBCHEM_SHAPE_SELFOVERLAP>  (1) 
952.064

>  <PUBCHEM_SHAPE_VOLUME>  (1) 
244.8

>  <PUBCHEM_COORDINATE_TYPE>  (1) 
2
5
10

$$$$
