35078
     RDKit          3D

 16 16  0  0  0  0  0  0  0  0999 V2000
    0.7266    2.1526    0.1152 N   0  0  0  0  0  0  0  0  0  0  0  0
   -1.2063    0.8275    0.0414 N   0  0  0  0  0  0  0  0  0  0  0  0
    0.9716   -0.1791    0.0744 N   0  0  0  0  0  0  0  0  0  0  0  0
   -3.1032   -0.5495   -0.0310 N   0  0  0  0  0  0  0  0  0  0  0  0
    1.1533   -2.5165    0.0346 N   0  0  0  0  0  0  0  0  0  0  0  0
   -0.9881   -1.5618    0.0000 N   0  0  0  0  0  0  0  0  0  0  0  0
    2.1559    2.3740    0.1562 C   0  0  0  0  0  0  0  0  0  0  0  0
    2.4326    3.7661    0.7085 C   0  0  0  0  0  0  0  0  0  0  0  0
    2.7371    2.2059   -1.2416 C   0  0  0  0  0  0  0  0  0  0  0  0
    0.1470    0.8965    0.0756 C   0  0  0  0  0  0  0  0  0  0  0  0
   -1.6976   -0.4216    0.0051 C   0  0  0  0  0  0  0  0  0  0  0  0
    0.3394   -1.3631    0.0363 C   0  0  0  0  0  0  0  0  0  0  0  0
   -3.9843    0.5760   -0.0303 C   0  0  0  0  0  0  0  0  0  0  0  0
    2.5812   -2.4581    0.0707 C   0  0  0  0  0  0  0  0  0  0  0  0
   -5.4262    0.1106   -0.0962 C   0  0  0  0  0  0  0  0  0  0  0  0
    3.1611   -3.8595    0.0812 C   0  0  0  0  0  0  0  0  0  0  0  0
  1  7  1  0
  1 10  1  0
  2 10  2  0
  2 11  1  0
  3 10  1  0
  3 12  2  0
  4 11  1  0
  4 13  1  0
  5 12  1  0
  5 14  1  0
  6 11  2  0
  6 12  1  0
  7  8  1  0
  7  9  1  0
 13 15  1  0
 14 16  1  0
M  END
>  <PUBCHEM_COMPOUND_CID>  (1) 
35078

>  <PUBCHEM_CONFORMER_RMSD>  (1) 
0.8

>  <PUBCHEM_CONFORMER_DIVERSEORDER>  (1) 
1
21
22
5
16
20
27
25
12
8
19
17
7
6
26
23
14
9
15
13
18
11
28
4
3
10
2
24

>  <PUBCHEM_MMFF94_PARTIAL_CHARGES>  (1) 
15
1 -0.87
10 0.72
11 0.72
12 0.72
13 0.37
14 0.37
18 0.4
2 -0.62
29 0.4
3 -0.62
30 0.4
4 -0.87
5 -0.87
6 -0.62
7 0.37

>  <PUBCHEM_EFFECTIVE_ROTOR_COUNT>  (1) 
6

>  <PUBCHEM_PHARMACOPHORE_FEATURES>  (1) 
8
1 1 donor
1 4 donor
1 5 donor
3 7 8 9 hydrophobe
4 1 2 3 10 cation
4 2 4 6 11 cation
4 3 5 6 12 cation
6 2 3 6 10 11 12 rings

>  <PUBCHEM_HEAVY_ATOM_COUNT>  (1) 
16

>  <PUBCHEM_ATOM_DEF_STEREO_COUNT>  (1) 
0

>  <PUBCHEM_ATOM_UDEF_STEREO_COUNT>  (1) 
0

>  <PUBCHEM_BOND_DEF_STEREO_COUNT>  (1) 
0

>  <PUBCHEM_BOND_UDEF_STEREO_COUNT>  (1) 
0

>  <PUBCHEM_ISOTOPIC_ATOM_COUNT>  (1) 
0

>  <PUBCHEM_COMPONENT_COUNT>  (1) 
1

>  <PUBCHEM_CACTVS_TAUTO_COUNT>  (1) 
10

>  <PUBCHEM_CONFORMER_ID>  (1) 
0000890600000001

>  <PUBCHEM_MMFF94_ENERGY>  (1) 
38.8474

>  <PUBCHEM_FEATURE_SELFOVERLAP>  (1) 
40.725

>  <PUBCHEM_SHAPE_FINGERPRINT>  (1) 
10411042 1 18122906425878441403
10756046 70 17988065734816102527
10989021 7 18266741285733412938
12173636 292 17833830856118492117
12500047 106 17835242625117955980
12532896 13 17981043338379681916
12644460 14 18408895035628635425
12730499 353 18338244885584088299
13140716 1 18265607874171220162
13294875 104 18059284491344086352
13955234 65 18411139156062024419
14123255 52 18195525016086802505
14178000 15 18340767018422430601
15042514 8 16895956337056368058
167882 2 18408604781411769204
1813 80 17985275070856599295
18186145 218 17913227617173250809
18785283 64 18261113014512256768
20645476 183 17610068136948903332
20645477 70 18335130995634761079
20671657 1 18412826889188482391
20671657 53 18196653995279247143
21029758 11 18193555562690131203
212916 134 17912345830364842080
21426921 1 17402894423849085782
21665056 4 17833268993144828046
221490 88 18335708260624944571
23366157 5 18186799201229233099
23419403 2 17970607637291666238
23557571 272 17764311643888041198
23559900 14 18338789027760072259
2748010 2 18048329030488547590
3071541 12 18411700989065387945
3071541 158 18190176789285600541
3071541 250 18338522910990118118
3071541 37 18336270123492171389
3091708 16 9327516124860166498
43471831 8 18121497118238174699
458136 41 18264222455144899769
633830 44 18057328490386892517
68521 5 17834115243056681318
7364860 26 18411698776962006146
77188 2 18195244412813853398
81228 2 17546178402102257858
81539 233 18260826059542385365
84936 182 18201157749599586201

>  <PUBCHEM_SHAPE_MULTIPOLES>  (1) 
299.39
7.07
4.69
0.73
11.52
0.45
-0.11
0.35
-0.42
-8.55
0.51
-0.38
-0.38
-0.1

>  <PUBCHEM_SHAPE_SELFOVERLAP>  (1) 
587.332

>  <PUBCHEM_SHAPE_VOLUME>  (1) 
169.9

>  <PUBCHEM_COORDINATE_TYPE>  (1) 
2
5
10

$$$$
