35079
     RDKit          3D

 20 21  0  0  0  0  0  0  0  0999 V2000
   -6.3032    0.3758    0.0316 Cl  0  0  0  0  0  0  0  0  0  0  0  0
    4.1781    0.8175    0.0146 N   0  0  0  0  0  0  0  0  0  0  0  0
    1.3372   -2.9117   -0.0946 N   0  0  0  0  0  0  0  0  0  0  0  0
   -0.4734    1.4118    0.0442 N   0  0  0  0  0  0  0  0  0  0  0  0
    2.7830   -1.0664   -0.0393 N   0  0  0  0  0  0  0  0  0  0  0  0
    0.4028   -0.7624   -0.0247 N   0  0  0  0  0  0  0  0  0  0  0  0
    1.8565    1.1459    0.0313 N   0  0  0  0  0  0  0  0  0  0  0  0
    2.8760    0.2726    0.0018 C   0  0  0  0  0  0  0  0  0  0  0  0
    1.5165   -1.5123   -0.0505 C   0  0  0  0  0  0  0  0  0  0  0  0
    0.6471    0.5589    0.0157 C   0  0  0  0  0  0  0  0  0  0  0  0
    4.4298    2.2240    0.0566 C   0  0  0  0  0  0  0  0  0  0  0  0
    0.0477   -3.5282   -0.1118 C   0  0  0  0  0  0  0  0  0  0  0  0
   -1.8621    1.1648    0.0403 C   0  0  0  0  0  0  0  0  0  0  0  0
   -2.7337    2.0906   -0.5330 C   0  0  0  0  0  0  0  0  0  0  0  0
   -2.3637   -0.0051    0.6107 C   0  0  0  0  0  0  0  0  0  0  0  0
    5.9233    2.4867    0.0827 C   0  0  0  0  0  0  0  0  0  0  0  0
    0.1907   -5.0364   -0.1823 C   0  0  0  0  0  0  0  0  0  0  0  0
   -4.1070    1.8465   -0.5358 C   0  0  0  0  0  0  0  0  0  0  0  0
   -3.7371   -0.2493    0.6080 C   0  0  0  0  0  0  0  0  0  0  0  0
   -4.6088    0.6766    0.0345 C   0  0  0  0  0  0  0  0  0  0  0  0
  1 20  1  0
  2  8  1  0
  2 11  1  0
  3  9  1  0
  3 12  1  0
  4 10  1  0
  4 13  1  0
  5  8  2  0
  5  9  1  0
  6  9  2  0
  6 10  1  0
  7  8  1  0
  7 10  2  0
 11 16  1  0
 12 17  1  0
 13 14  2  0
 13 15  1  0
 14 18  1  0
 15 19  2  0
 18 20  2  0
 19 20  1  0
M  END
>  <PUBCHEM_COMPOUND_CID>  (1) 
35079

>  <PUBCHEM_CONFORMER_RMSD>  (1) 
0.8

>  <PUBCHEM_CONFORMER_DIVERSEORDER>  (1) 
1
10
3
23
6
24
4
28
30
22
2
19
25
17
15
5
9
16
14
20
8
26
31
18
21
27
11
7
29
12
13

>  <PUBCHEM_MMFF94_PARTIAL_CHARGES>  (1) 
25
1 -0.18
10 0.72
11 0.37
12 0.37
13 0.1
14 -0.15
15 -0.15
18 -0.15
19 -0.15
2 -0.87
20 0.18
25 0.4
26 0.4
27 0.4
28 0.15
29 0.15
3 -0.87
36 0.15
37 0.15
4 -0.6
5 -0.62
6 -0.62
7 -0.62
8 0.72
9 0.72

>  <PUBCHEM_EFFECTIVE_ROTOR_COUNT>  (1) 
6

>  <PUBCHEM_PHARMACOPHORE_FEATURES>  (1) 
8
1 2 donor
1 3 donor
1 4 donor
4 2 5 7 8 cation
4 3 5 6 9 cation
4 4 6 7 10 cation
6 13 14 15 18 19 20 rings
6 5 6 7 8 9 10 rings

>  <PUBCHEM_HEAVY_ATOM_COUNT>  (1) 
20

>  <PUBCHEM_ATOM_DEF_STEREO_COUNT>  (1) 
0

>  <PUBCHEM_ATOM_UDEF_STEREO_COUNT>  (1) 
0

>  <PUBCHEM_BOND_DEF_STEREO_COUNT>  (1) 
0

>  <PUBCHEM_BOND_UDEF_STEREO_COUNT>  (1) 
0

>  <PUBCHEM_ISOTOPIC_ATOM_COUNT>  (1) 
0

>  <PUBCHEM_COMPONENT_COUNT>  (1) 
1

>  <PUBCHEM_CACTVS_TAUTO_COUNT>  (1) 
10

>  <PUBCHEM_CONFORMER_ID>  (1) 
0000890700000001

>  <PUBCHEM_MMFF94_ENERGY>  (1) 
60.1698

>  <PUBCHEM_FEATURE_SELFOVERLAP>  (1) 
40.727

>  <PUBCHEM_SHAPE_FINGERPRINT>  (1) 
10074138 170 18049416426441090690
10090160 65 18409161112894667797
10493431 412 18339079397144430924
12107183 9 17262728673208399089
12553582 1 17043181463501155035
12730499 353 18410019810227653001
13052359 8 18266741479344596874
13533116 47 18128814145763763713
138480 1 17834395614100417142
14863182 85 18334871493045884607
15196674 1 18336827481756992689
15375358 24 18260269625070202473
15927050 60 18411417350127657070
17492 89 18051129199575426887
17539 30 17838612619577256950
17859628 70 18196094339808750719
17980427 23 17386011740146317109
19427546 20 17904489846376813468
19427546 62 18410013277271470973
20286276 3 18051135783517328221
204376 136 18411982485585649752
20645477 70 18263361391643286499
221490 88 18048604724703457123
22224240 67 18341891943688344713
23557571 272 17241332348361187805
23558518 356 17613713035312110168
23559900 14 18049153367766958899
239999 70 18129384799960274886
33824 294 18409730617073749243
474229 33 18336828688051868337
5104073 3 18188494558286977569
5486654 2 18340492269670856820
59755656 520 18336540616691024678
6025842 7 18339920403438734063
621550 34 18262235517416687725
633830 44 18059585628696973636
6669772 16 18272940410365370566
7364860 26 18194682557829510562
7399639 24 18260542282294724277
77188 2 17474106501776543958
7808743 9 18193273225206131744
9709674 26 18118972395429317667
9777508 108 17981597475207684320
9925002 15 17684096055517805596

>  <PUBCHEM_SHAPE_MULTIPOLES>  (1) 
383.57
11.35
4.46
0.67
1.94
8.15
0.01
-11.17
0.28
-3.18
-0.55
0.27
-0.05
0.53

>  <PUBCHEM_SHAPE_SELFOVERLAP>  (1) 
786.559

>  <PUBCHEM_SHAPE_VOLUME>  (1) 
220.2

>  <PUBCHEM_COORDINATE_TYPE>  (1) 
2
5
10

$$$$
