35071
     RDKit          3D

 16 17  0  0  0  0  0  0  0  0999 V2000
   -2.6733    2.6137   -0.6487 Cl  0  0  0  0  0  0  0  0  0  0  0  0
   -0.3476    0.8858    0.2857 N   0  0  0  0  0  0  0  0  0  0  0  0
    1.9574    1.3148    0.2893 N   0  0  0  0  0  0  0  0  0  0  0  0
    1.1196   -0.8895   -0.1540 N   0  0  0  0  0  0  0  0  0  0  0  0
    3.4841   -0.4814   -0.1583 N   0  0  0  0  0  0  0  0  0  0  0  0
    4.2733    1.6832    0.2778 N   0  0  0  0  0  0  0  0  0  0  0  0
    2.6357   -2.6245   -0.5894 N   0  0  0  0  0  0  0  0  0  0  0  0
   -1.6059    0.2488    0.1977 C   0  0  0  0  0  0  0  0  0  0  0  0
    0.9692    0.4157    0.1336 C   0  0  0  0  0  0  0  0  0  0  0  0
   -2.7424    0.9420   -0.2191 C   0  0  0  0  0  0  0  0  0  0  0  0
   -1.6980   -1.1012    0.5369 C   0  0  0  0  0  0  0  0  0  0  0  0
   -3.9706    0.2853   -0.2969 C   0  0  0  0  0  0  0  0  0  0  0  0
   -2.9262   -1.7578    0.4593 C   0  0  0  0  0  0  0  0  0  0  0  0
   -4.0625   -1.0645    0.0425 C   0  0  0  0  0  0  0  0  0  0  0  0
    3.1854    0.7957    0.1292 C   0  0  0  0  0  0  0  0  0  0  0  0
    2.4018   -1.2660   -0.2856 C   0  0  0  0  0  0  0  0  0  0  0  0
  1 10  1  0
  2  8  1  0
  2  9  1  0
  3  9  2  0
  3 15  1  0
  4  9  1  0
  4 16  2  0
  5 15  2  0
  5 16  1  0
  6 15  1  0
  7 16  1  0
  8 10  2  0
  8 11  1  0
 10 12  1  0
 11 13  2  0
 12 14  2  0
 13 14  1  0
M  END
>  <PUBCHEM_COMPOUND_CID>  (1) 
35071

>  <PUBCHEM_CONFORMER_RMSD>  (1) 
0.6

>  <PUBCHEM_CONFORMER_DIVERSEORDER>  (1) 
1
5
2
6
3
7
4
8

>  <PUBCHEM_MMFF94_PARTIAL_CHARGES>  (1) 
25
1 -0.18
10 0.18
11 -0.15
12 -0.15
13 -0.15
14 -0.15
15 0.72
16 0.72
17 0.4
18 0.15
19 0.15
2 -0.6
20 0.15
21 0.15
22 0.4
23 0.4
24 0.4
25 0.4
3 -0.62
4 -0.62
5 -0.62
6 -0.9
7 -0.9
8 0.1
9 0.72

>  <PUBCHEM_EFFECTIVE_ROTOR_COUNT>  (1) 
2

>  <PUBCHEM_PHARMACOPHORE_FEATURES>  (1) 
8
1 2 donor
1 6 donor
1 7 donor
4 2 3 4 9 cation
4 3 5 6 15 cation
4 4 5 7 16 cation
6 3 4 5 9 15 16 rings
6 8 10 11 12 13 14 rings

>  <PUBCHEM_HEAVY_ATOM_COUNT>  (1) 
16

>  <PUBCHEM_ATOM_DEF_STEREO_COUNT>  (1) 
0

>  <PUBCHEM_ATOM_UDEF_STEREO_COUNT>  (1) 
0

>  <PUBCHEM_BOND_DEF_STEREO_COUNT>  (1) 
0

>  <PUBCHEM_BOND_UDEF_STEREO_COUNT>  (1) 
0

>  <PUBCHEM_ISOTOPIC_ATOM_COUNT>  (1) 
0

>  <PUBCHEM_COMPONENT_COUNT>  (1) 
1

>  <PUBCHEM_CACTVS_TAUTO_COUNT>  (1) 
10

>  <PUBCHEM_CONFORMER_ID>  (1) 
000088FF00000001

>  <PUBCHEM_MMFF94_ENERGY>  (1) 
57.5758

>  <PUBCHEM_FEATURE_SELFOVERLAP>  (1) 
40.727

>  <PUBCHEM_SHAPE_FINGERPRINT>  (1) 
10608611 8 18410290294024688077
10616163 171 18339364187756980671
10922523 26 18408605833815874359
11615757 297 17418098753482555448
12173636 292 18261951839390649653
13296908 3 18342177734827437423
14144814 61 18410576171448086545
14415576 193 18408325510138630708
15196674 1 18411138039217656523
15219456 202 18411419509603766891
15375358 24 18335982055503362491
15375462 6 18411701001765764613
15442244 35 18196092131815096498
15536298 74 18341896277141463170
17834074 16 18411139134254852023
18186145 218 18116431445025675757
19049666 15 18339078185905423321
19591789 44 15595845491418828427
200 152 17846494863933458951
20201158 50 18411702097103887235
20279233 1 18409171029805245242
20510252 161 18410573964315301753
20645477 56 18261393300274000741
20645477 70 18059858333218441390
221490 88 18411708655825091606
22943178 12 18411135801254611894
23402539 116 18114731746125416925
23402655 69 18343298154609283029
23557571 272 18113334215238613957
23559900 14 18268986480335835402
2871803 45 18409164437162528943
33824 294 18412263964910439050
4028521 119 18187072932970454317
4214541 1 18337390448288948464
5104073 3 18410575071804590753
58051976 378 18409447028825221668
69090 78 18412541007760182751
7364860 26 18343022164537995726
81228 2 18114188531821456097
8809292 202 18336552611986270251
93112 12 18337391530736524373
9709674 26 18409733958415991055

>  <PUBCHEM_SHAPE_MULTIPOLES>  (1) 
301.26
8.1
2.39
0.7
1.85
0.13
-0.02
0.3
-0.31
-0.14
-0.34
-0.08
-0.02
1.08

>  <PUBCHEM_SHAPE_SELFOVERLAP>  (1) 
635.947

>  <PUBCHEM_SHAPE_VOLUME>  (1) 
166.6

>  <PUBCHEM_COORDINATE_TYPE>  (1) 
2
5
10

$$$$
