35082
     RDKit          3D

 39 45  0  0  0  0  0  0  0  0999 V2000
   -3.0876    1.2150    0.5396 N   0  0  0  0  0  0  0  0  0  0  0  0
    1.4714    2.3098    0.6280 N   0  0  0  0  0  0  0  0  0  0  0  0
    0.1329   -2.0821   -0.3250 N   0  0  0  0  0  0  0  0  0  0  0  0
   -0.8153    1.7921    0.5919 N   0  0  0  0  0  0  0  0  0  0  0  0
   -1.5001   -0.4553    0.1041 N   0  0  0  0  0  0  0  0  0  0  0  0
    0.8326    0.1049    0.1497 N   0  0  0  0  0  0  0  0  0  0  0  0
   -5.4854    1.1164   -0.0113 C   0  0  0  0  0  0  0  0  0  0  0  0
    3.6680    3.3209    0.1635 C   0  0  0  0  0  0  0  0  0  0  0  0
    1.5254   -4.1102   -0.2212 C   0  0  0  0  0  0  0  0  0  0  0  0
   -4.3016    0.4950    0.4191 C   0  0  0  0  0  0  0  0  0  0  0  0
    2.8747    2.2249    0.5580 C   0  0  0  0  0  0  0  0  0  0  0  0
    1.3609   -2.7424   -0.5180 C   0  0  0  0  0  0  0  0  0  0  0  0
   -6.6709    0.3504   -0.1142 C   0  0  0  0  0  0  0  0  0  0  0  0
    5.0752    3.1813    0.1102 C   0  0  0  0  0  0  0  0  0  0  0  0
    2.7821   -4.7250   -0.4341 C   0  0  0  0  0  0  0  0  0  0  0  0
   -4.2870   -0.8618    0.7436 C   0  0  0  0  0  0  0  0  0  0  0  0
    3.4783    1.0079    0.8938 C   0  0  0  0  0  0  0  0  0  0  0  0
    2.4358   -2.0000   -1.0195 C   0  0  0  0  0  0  0  0  0  0  0  0
   -1.7426    0.8339    0.4061 C   0  0  0  0  0  0  0  0  0  0  0  0
    0.4465    1.3559    0.4480 C   0  0  0  0  0  0  0  0  0  0  0  0
   -0.1940   -0.7460   -0.0081 C   0  0  0  0  0  0  0  0  0  0  0  0
   -5.5186    2.4810   -0.3420 C   0  0  0  0  0  0  0  0  0  0  0  0
    3.0865    4.5527   -0.1785 C   0  0  0  0  0  0  0  0  0  0  0  0
    0.4623   -4.8770    0.2831 C   0  0  0  0  0  0  0  0  0  0  0  0
   -6.6378   -1.0143    0.2161 C   0  0  0  0  0  0  0  0  0  0  0  0
    5.6569    1.9496    0.4526 C   0  0  0  0  0  0  0  0  0  0  0  0
    3.8452   -3.9584   -0.9389 C   0  0  0  0  0  0  0  0  0  0  0  0
   -7.8547    0.9713   -0.5446 C   0  0  0  0  0  0  0  0  0  0  0  0
    5.8597    4.2776   -0.2836 C   0  0  0  0  0  0  0  0  0  0  0  0
    2.9389   -6.0885   -0.1365 C   0  0  0  0  0  0  0  0  0  0  0  0
   -5.4529   -1.6151    0.6421 C   0  0  0  0  0  0  0  0  0  0  0  0
    4.8623    0.8709    0.8417 C   0  0  0  0  0  0  0  0  0  0  0  0
    3.6717   -2.6048   -1.2292 C   0  0  0  0  0  0  0  0  0  0  0  0
   -6.7037    3.0815   -0.7676 C   0  0  0  0  0  0  0  0  0  0  0  0
    3.8812    5.6312   -0.5679 C   0  0  0  0  0  0  0  0  0  0  0  0
    0.6361   -6.2304    0.5737 C   0  0  0  0  0  0  0  0  0  0  0  0
   -7.8696    2.3283   -0.8687 C   0  0  0  0  0  0  0  0  0  0  0  0
    5.2652    5.4940   -0.6204 C   0  0  0  0  0  0  0  0  0  0  0  0
    1.8720   -6.8351    0.3644 C   0  0  0  0  0  0  0  0  0  0  0  0
  1 10  1  0
  1 19  1  0
  2 11  1  0
  2 20  1  0
  3 12  1  0
  3 21  1  0
  4 19  2  0
  4 20  1  0
  5 19  1  0
  5 21  2  0
  6 20  2  0
  6 21  1  0
  7 10  1  0
  7 13  2  0
  7 22  1  0
  8 11  1  0
  8 14  2  0
  8 23  1  0
  9 12  1  0
  9 15  2  0
  9 24  1  0
 10 16  2  0
 11 17  2  0
 12 18  2  0
 13 25  1  0
 13 28  1  0
 14 26  1  0
 14 29  1  0
 15 27  1  0
 15 30  1  0
 16 31  1  0
 17 32  1  0
 18 33  1  0
 22 34  2  0
 23 35  2  0
 24 36  2  0
 25 31  2  0
 26 32  2  0
 27 33  2  0
 28 37  2  0
 29 38  2  0
 30 39  2  0
 34 37  1  0
 35 38  1  0
 36 39  1  0
M  END
>  <PUBCHEM_COMPOUND_CID>  (1) 
35082

>  <PUBCHEM_CONFORMER_RMSD>  (1) 
1

>  <PUBCHEM_CONFORMER_DIVERSEORDER>  (1) 
1
190
182
32
153
253
155
4
115
220
226
216
149
175
209
102
259
270
76
2
141
225
199
187
89
183
269
130
157
192
134
148
129
207
243
110
205
68
101
145
242
55
244
212
272
170
140
162
147
98
118
258
178
92
74
171
132
181
44
58
262
252
186
60
87
180
195
163
191
103
210
120
75
93
127
77
177
204
78
237
228
261
34
152
222
50
193
246
203
91
202
61
69
196
213
57
33
211
266
250
105
137
176
96
200
136
194
72
219
264
238
160
117
122
123
241
184
260
142
66
214
70
146
158
267
94
30
83
151
232
164
254
257
154
59
208
179
206
121
38
201
235
19
79
95
236
125
138
159
197
113
229
124
144
48
215
54
104
166
248
62
23
133
240
43
245
71
63
247
84
271
108
65
233
268
56
52
255
234
165
251
217
231
82
135
73
7
28
106
161
156
85
67
198
172
223
119
139
116
188
37
90
256
26
47
189
224
143
21
185
86
42
168
131
218
169
265
14
45
81
25
46
100
263
128
126
15
173
221
51
107
27
35
64
109
227
167
111
16
249
88
114
36
40
11
99
31
112
174
53
17
12
150
239
9
29
230
20
97
39
5
10
22
24
41
49
6
13
3
18
80
8

>  <PUBCHEM_MMFF94_PARTIAL_CHARGES>  (1) 
57
1 -0.6
10 0.1
11 0.1
12 0.1
16 -0.15
17 -0.15
18 -0.15
19 0.72
2 -0.6
20 0.72
21 0.72
22 -0.15
23 -0.15
24 -0.15
25 -0.15
26 -0.15
27 -0.15
28 -0.15
29 -0.15
3 -0.6
30 -0.15
31 -0.15
32 -0.15
33 -0.15
34 -0.15
35 -0.15
36 -0.15
37 -0.15
38 -0.15
39 -0.15
4 -0.62
40 0.4
41 0.4
42 0.4
43 0.15
44 0.15
45 0.15
46 0.15
47 0.15
48 0.15
49 0.15
5 -0.62
50 0.15
51 0.15
52 0.15
53 0.15
54 0.15
55 0.15
56 0.15
57 0.15
58 0.15
59 0.15
6 -0.62
60 0.15
61 0.15
62 0.15
63 0.15

>  <PUBCHEM_EFFECTIVE_ROTOR_COUNT>  (1) 
6

>  <PUBCHEM_PHARMACOPHORE_FEATURES>  (1) 
13
1 1 donor
1 2 donor
1 3 donor
4 1 4 5 19 cation
4 2 4 6 20 cation
4 3 5 6 21 cation
6 4 5 6 19 20 21 rings
6 7 10 13 16 25 31 rings
6 7 13 22 28 34 37 rings
6 8 11 14 17 26 32 rings
6 8 14 23 29 35 38 rings
6 9 12 15 18 27 33 rings
6 9 15 24 30 36 39 rings

>  <PUBCHEM_HEAVY_ATOM_COUNT>  (1) 
39

>  <PUBCHEM_ATOM_DEF_STEREO_COUNT>  (1) 
0

>  <PUBCHEM_ATOM_UDEF_STEREO_COUNT>  (1) 
0

>  <PUBCHEM_BOND_DEF_STEREO_COUNT>  (1) 
0

>  <PUBCHEM_BOND_UDEF_STEREO_COUNT>  (1) 
0

>  <PUBCHEM_ISOTOPIC_ATOM_COUNT>  (1) 
0

>  <PUBCHEM_COMPONENT_COUNT>  (1) 
1

>  <PUBCHEM_CACTVS_TAUTO_COUNT>  (1) 
5

>  <PUBCHEM_CONFORMER_ID>  (1) 
0000890A00000001

>  <PUBCHEM_MMFF94_ENERGY>  (1) 
162.0277

>  <PUBCHEM_FEATURE_SELFOVERLAP>  (1) 
66.185

>  <PUBCHEM_SHAPE_FINGERPRINT>  (1) 
10050765 1 18339924815092930857
10673678 19 18338800121159840520
11062273 19 18198908015453881215
11204353 107 18413112770903054575
11411753 3 17968383335045902601
11719270 70 18412820308982425000
11763715 3 17547600096760548430
12522641 68 18193841681128083556
12977781 61 18115328729769516539
13248334 5 18338516326916048974
14117953 113 18413109464363298892
14150023 79 18410571807861501439
14394314 77 17619070534620098507
14790565 3 18195245748427382664
15198563 99 17187570984223107942
15400415 2 18267022932678114425
15439362 3 18410856576824933525
15484559 13 18342183246177911710
15890870 6 18340207509091897348
15927050 60 18271242849631344207
15968369 26 18334576823951207186
16664035 1 17833268624200250851
16993438 75 17759244385410811986
19315958 150 18409449168938065357
19319366 153 18271803557526667773
20505436 4 17825098458221283640
20721686 124 18408880742004061938
21779490 112 17977400639124477982
22311459 1 18338798901509772106
23559900 14 18266455404964256155
244849 19 18042426685168374003
32027 91 18121779435840754643
3627633 1 17257933693697511206
4058900 60 18341342187647597000
4073 2 18409451397682421185
4461854 278 17904498637969595147
504843 32 18050006885058356434
5109719 28 18338525230721026585
5265222 85 18051977214412526737
563151 97 18267858566279358887
6058803 2 18130507419440459489
6376802 90 18259704511154832227
6679774 75 18265877207634686130
6695519 79 18051163503093956275
6898599 12 17688595274690614124
99344 41 18411978096134731312
9961470 85 18197504124722293116

>  <PUBCHEM_SHAPE_MULTIPOLES>  (1) 
772.72
18.18
11.11
0.91
37.83
13.24
-0.07
-22.11
-2.51
-21.9
-1.21
-0.17
0.09
1.73

>  <PUBCHEM_SHAPE_SELFOVERLAP>  (1) 
1753.449

>  <PUBCHEM_SHAPE_VOLUME>  (1) 
385

>  <PUBCHEM_COORDINATE_TYPE>  (1) 
2
5
10

$$$$
