35099
     RDKit          3D

 19 20  0  0  0  0  0  0  0  0999 V2000
   -4.6403    1.2381    1.5166 Cl  0  0  0  0  0  0  0  0  0  0  0  0
   -4.6244    1.4179   -1.4043 Cl  0  0  0  0  0  0  0  0  0  0  0  0
   -0.6742   -3.4113    1.2528 Cl  0  0  0  0  0  0  0  0  0  0  0  0
   -0.6576   -3.2322   -1.6681 Cl  0  0  0  0  0  0  0  0  0  0  0  0
    1.0937    1.3979    0.0925 N   0  0  0  0  0  0  0  0  0  0  0  0
   -0.1346   -0.5951   -0.0374 N   0  0  0  0  0  0  0  0  0  0  0  0
   -1.2475    1.5271    0.0870 N   0  0  0  0  0  0  0  0  0  0  0  0
   -2.5321   -0.4954   -0.0447 N   0  0  0  0  0  0  0  0  0  0  0  0
    2.4213    0.9221    0.0700 C   0  0  0  0  0  0  0  0  0  0  0  0
   -0.1540    0.7464    0.0452 C   0  0  0  0  0  0  0  0  0  0  0  0
   -1.3583   -1.1465   -0.0781 C   0  0  0  0  0  0  0  0  0  0  0  0
   -2.3991    0.8383    0.0382 C   0  0  0  0  0  0  0  0  0  0  0  0
    3.4339    1.7068   -0.4818 C   0  0  0  0  0  0  0  0  0  0  0  0
    2.7218   -0.3326    0.6000 C   0  0  0  0  0  0  0  0  0  0  0  0
   -3.6581    1.6353    0.0804 C   0  0  0  0  0  0  0  0  0  0  0  0
   -1.4199   -2.6331   -0.1697 C   0  0  0  0  0  0  0  0  0  0  0  0
    4.7471    1.2367   -0.5035 C   0  0  0  0  0  0  0  0  0  0  0  0
    4.0348   -0.8026    0.5784 C   0  0  0  0  0  0  0  0  0  0  0  0
    5.0475   -0.0179    0.0266 C   0  0  0  0  0  0  0  0  0  0  0  0
  1 15  1  0
  2 15  1  0
  3 16  1  0
  4 16  1  0
  5  9  1  0
  5 10  1  0
  6 10  2  0
  6 11  1  0
  7 10  1  0
  7 12  2  0
  8 11  2  0
  8 12  1  0
  9 13  2  0
  9 14  1  0
 11 16  1  0
 12 15  1  0
 13 17  1  0
 14 18  2  0
 17 19  2  0
 18 19  1  0
M  END
>  <PUBCHEM_COMPOUND_CID>  (1) 
35099

>  <PUBCHEM_CONFORMER_RMSD>  (1) 
0.6

>  <PUBCHEM_CONFORMER_DIVERSEORDER>  (1) 
1
25
46
10
24
23
45
8
28
34
13
2
42
22
44
7
47
27
6
43
15
37
31
16
39
26
38
11
40
4
19
36
41
30
29
35
14
9
32
21
20
33
12
17
3
5
18

>  <PUBCHEM_MMFF94_PARTIAL_CHARGES>  (1) 
25
1 -0.29
10 0.72
11 0.48
12 0.48
13 -0.15
14 -0.15
15 0.72
16 0.72
17 -0.15
18 -0.15
19 -0.15
2 -0.29
20 0.4
21 0.15
22 0.15
25 0.15
26 0.15
27 0.15
3 -0.29
4 -0.29
5 -0.6
6 -0.62
7 -0.62
8 -0.62
9 0.1

>  <PUBCHEM_EFFECTIVE_ROTOR_COUNT>  (1) 
4

>  <PUBCHEM_PHARMACOPHORE_FEATURES>  (1) 
4
1 5 donor
4 5 6 7 10 cation
6 6 7 8 10 11 12 rings
6 9 13 14 17 18 19 rings

>  <PUBCHEM_HEAVY_ATOM_COUNT>  (1) 
19

>  <PUBCHEM_ATOM_DEF_STEREO_COUNT>  (1) 
0

>  <PUBCHEM_ATOM_UDEF_STEREO_COUNT>  (1) 
0

>  <PUBCHEM_BOND_DEF_STEREO_COUNT>  (1) 
0

>  <PUBCHEM_BOND_UDEF_STEREO_COUNT>  (1) 
0

>  <PUBCHEM_ISOTOPIC_ATOM_COUNT>  (1) 
0

>  <PUBCHEM_COMPONENT_COUNT>  (1) 
1

>  <PUBCHEM_CACTVS_TAUTO_COUNT>  (1) 
3

>  <PUBCHEM_CONFORMER_ID>  (1) 
0000891B00000001

>  <PUBCHEM_MMFF94_ENERGY>  (1) 
47.9059

>  <PUBCHEM_FEATURE_SELFOVERLAP>  (1) 
20.297

>  <PUBCHEM_SHAPE_FINGERPRINT>  (1) 
10366900 7 17132114645880967800
10616163 171 18339364192563670406
107951 10 18260558818014116134
12500047 106 18341326781847695856
12553582 1 17691402336318307518
12555020 224 18341045233756230446
12592029 89 18263086517915220363
12616971 3 17385718141384296980
12788726 201 18120924259938126787
13257819 101 17024008386394808789
13583140 156 17312821559312031969
14022349 108 18121782725226684043
14178342 30 18119793953800435856
14790565 3 18339088072936956945
15196674 1 18409166632238567586
15309172 13 18336550430301230521
15375358 24 17917993884584515068
16752209 62 18269539693218809351
17859628 97 18261669268970814962
200 152 10087639273608000377
204376 136 18409732829208493657
20645476 183 18334011722092069687
20645477 56 18334290993935803900
20681677 155 18410577310157842960
20871999 31 18336819913475867790
21033648 29 18262222366064043637
21033650 10 16915408561694094880
21478907 32 18052252096952106575
21524375 3 18412538782824529719
22224240 67 18340217336630601433
23402539 116 17989202616759544145
23402655 69 18334013926201856140
23558518 356 17681274683269785344
23559900 14 18273213128051463640
23598288 3 18122641701315954926
23728640 28 18271243923283191686
3084891 72 18272369728658335032
3411729 13 18124888854676665345
34934 24 18334005117028753104
3759504 43 18114178644642937475
474229 33 18411421722303221667
5104073 3 18337106878085610048
559249 180 18409724059085982042
58051976 100 18335142033252273676
6138700 20 18051695439162788126
633830 44 18128826248401511045
69090 78 18409725153690569916
81228 2 17977648033914904675
81539 233 18264203608991805447
9709674 26 18340774835911937862

>  <PUBCHEM_SHAPE_MULTIPOLES>  (1) 
378.57
9.69
3.32
1.19
4.44
3.97
0.11
-6.77
-0.11
-1.79
0.33
-1.11
0.5
-0.52

>  <PUBCHEM_SHAPE_SELFOVERLAP>  (1) 
759.51

>  <PUBCHEM_SHAPE_VOLUME>  (1) 
218.7

>  <PUBCHEM_COORDINATE_TYPE>  (1) 
2
5
10

$$$$
