35094
     RDKit          3D

 17 18  0  0  0  0  0  0  0  0999 V2000
   -4.5171    1.8082    1.3626 Cl  0  0  0  0  0  0  0  0  0  0  0  0
   -1.9843   -3.5092    0.8125 Cl  0  0  0  0  0  0  0  0  0  0  0  0
    0.8621    1.2155    0.0512 N   0  0  0  0  0  0  0  0  0  0  0  0
   -0.4368   -0.6977   -0.3364 N   0  0  0  0  0  0  0  0  0  0  0  0
   -1.4642    1.4593   -0.1132 N   0  0  0  0  0  0  0  0  0  0  0  0
   -2.8203   -0.4804   -0.5091 N   0  0  0  0  0  0  0  0  0  0  0  0
    2.1659    0.6786    0.0846 C   0  0  0  0  0  0  0  0  0  0  0  0
   -0.4050    0.6319   -0.1418 C   0  0  0  0  0  0  0  0  0  0  0  0
   -1.6763   -1.1834   -0.5125 C   0  0  0  0  0  0  0  0  0  0  0  0
   -2.6371    0.8339   -0.3037 C   0  0  0  0  0  0  0  0  0  0  0  0
    3.2504    1.4551   -0.3235 C   0  0  0  0  0  0  0  0  0  0  0  0
    2.3712   -0.6283    0.5265 C   0  0  0  0  0  0  0  0  0  0  0  0
    4.5401    0.9247   -0.2898 C   0  0  0  0  0  0  0  0  0  0  0  0
    3.6607   -1.1588    0.5603 C   0  0  0  0  0  0  0  0  0  0  0  0
   -3.8604    1.6856   -0.2854 C   0  0  0  0  0  0  0  0  0  0  0  0
   -1.7942   -2.6528   -0.7343 C   0  0  0  0  0  0  0  0  0  0  0  0
    4.7452   -0.3822    0.1522 C   0  0  0  0  0  0  0  0  0  0  0  0
  1 15  1  0
  2 16  1  0
  3  7  1  0
  3  8  1  0
  4  8  2  0
  4  9  1  0
  5  8  1  0
  5 10  2  0
  6  9  2  0
  6 10  1  0
  7 11  2  0
  7 12  1  0
  9 16  1  0
 10 15  1  0
 11 13  1  0
 12 14  2  0
 13 17  2  0
 14 17  1  0
M  END
>  <PUBCHEM_COMPOUND_CID>  (1) 
35094

>  <PUBCHEM_CONFORMER_RMSD>  (1) 
0.6

>  <PUBCHEM_CONFORMER_DIVERSEORDER>  (1) 
1
35
8
25
13
23
29
7
33
9
22
16
6
31
4
26
28
21
18
34
15
10
24
2
17
30
3
32
19
12
27
14
20
5
11

>  <PUBCHEM_MMFF94_PARTIAL_CHARGES>  (1) 
23
1 -0.29
10 0.48
11 -0.15
12 -0.15
13 -0.15
14 -0.15
15 0.43
16 0.43
17 -0.15
18 0.4
19 0.15
2 -0.29
20 0.15
21 0.15
22 0.15
27 0.15
3 -0.6
4 -0.62
5 -0.62
6 -0.62
7 0.1
8 0.72
9 0.48

>  <PUBCHEM_EFFECTIVE_ROTOR_COUNT>  (1) 
4

>  <PUBCHEM_PHARMACOPHORE_FEATURES>  (1) 
4
1 3 donor
4 3 4 5 8 cation
6 4 5 6 8 9 10 rings
6 7 11 12 13 14 17 rings

>  <PUBCHEM_HEAVY_ATOM_COUNT>  (1) 
17

>  <PUBCHEM_ATOM_DEF_STEREO_COUNT>  (1) 
0

>  <PUBCHEM_ATOM_UDEF_STEREO_COUNT>  (1) 
0

>  <PUBCHEM_BOND_DEF_STEREO_COUNT>  (1) 
0

>  <PUBCHEM_BOND_UDEF_STEREO_COUNT>  (1) 
0

>  <PUBCHEM_ISOTOPIC_ATOM_COUNT>  (1) 
0

>  <PUBCHEM_COMPONENT_COUNT>  (1) 
1

>  <PUBCHEM_CACTVS_TAUTO_COUNT>  (1) 
3

>  <PUBCHEM_CONFORMER_ID>  (1) 
0000891600000001

>  <PUBCHEM_MMFF94_ENERGY>  (1) 
46.2665

>  <PUBCHEM_FEATURE_SELFOVERLAP>  (1) 
20.297

>  <PUBCHEM_SHAPE_FINGERPRINT>  (1) 
10616163 171 18338796822893839678
11405975 8 18413103987810049992
12500047 106 18341323448726233900
12553582 1 17762612189442442702
12592029 89 18192998123585777139
12616971 3 17603299367706983092
12633257 1 18335690595186806258
13583140 156 17095519557265835429
13760787 19 18408605877166564948
14022349 108 18050004385841473859
14115302 16 18412827971626119316
14178342 30 18192412264282093128
14965852 173 18337947991078705460
15196674 1 18410852170695013518
15242433 33 18409729539300513684
15309172 13 18337674101251902185
15375358 24 17632574942342706676
16752209 62 18271227426445611791
18186145 218 17603577526641711624
19050596 39 18335132107888742600
19422 9 18335136548721318510
200 152 9727627289548166793
20281475 54 18335131029693617702
204376 136 18340208480044000449
20681677 155 18412262826933503128
21524375 3 18200306620562614717
21618674 53 18187367640166365040
221490 88 18265335191525320562
22224240 67 18341903961792848889
23402539 116 18059846234691525533
23402655 69 18408040724026893444
23557571 272 18272098248465855892
23558518 356 17971475349529364120
23559900 14 18201432580873449000
3312278 4 18339359768451423634
4214541 1 18411133654050707708
474229 33 18411984650929447505
5104073 3 18338509833495080592
53777708 50 18190183575650614644
559249 180 18338790135687619550
58051976 100 18408604798834368212
58807428 26 18267026064030539403
69090 78 18409724032704047277
74978 22 18340480157720410436
81228 2 18121760980144438889
9709674 26 18413671327062039078

>  <PUBCHEM_SHAPE_MULTIPOLES>  (1) 
333.67
9.26
2.94
0.9
5.13
2.91
-0.17
-3.65
-1.42
-3.38
-0.44
-0.63
0.07
-0.86

>  <PUBCHEM_SHAPE_SELFOVERLAP>  (1) 
684.256

>  <PUBCHEM_SHAPE_VOLUME>  (1) 
191.8

>  <PUBCHEM_COORDINATE_TYPE>  (1) 
2
5
10

$$$$
