35106
     RDKit          3D

 15 15  0  0  0  0  0  0  0  0999 V2000
   -0.5962    3.9912   -0.3876 Br  0  0  0  0  0  0  0  0  0  0  0  0
   -1.7705   -0.9796   -0.0064 N   0  0  0  0  0  0  0  0  0  0  0  0
    0.5095   -0.4358    0.0654 N   0  0  0  0  0  0  0  0  0  0  0  0
    2.7743    0.1694    0.1294 N   0  0  0  0  0  0  0  0  0  0  0  0
   -1.1543    1.2765   -0.1745 N   0  0  0  0  0  0  0  0  0  0  0  0
    1.1711    1.8644   -0.1051 N   0  0  0  0  0  0  0  0  0  0  0  0
   -1.4429   -2.3924    0.1361 C   0  0  0  0  0  0  0  0  0  0  0  0
   -3.1764   -0.6069   -0.0994 C   0  0  0  0  0  0  0  0  0  0  0  0
   -0.7679   -0.0104   -0.0395 C   0  0  0  0  0  0  0  0  0  0  0  0
   -1.0328   -2.9712   -1.2043 C   0  0  0  0  0  0  0  0  0  0  0  0
   -3.6844   -0.1437    1.2525 C   0  0  0  0  0  0  0  0  0  0  0  0
    1.4192    0.5512    0.0250 C   0  0  0  0  0  0  0  0  0  0  0  0
    3.1877   -1.1915    0.2721 C   0  0  0  0  0  0  0  0  0  0  0  0
   -0.1371    2.1526   -0.1995 C   0  0  0  0  0  0  0  0  0  0  0  0
    4.7007   -1.2739    0.3357 C   0  0  0  0  0  0  0  0  0  0  0  0
  1 14  1  0
  2  7  1  0
  2  8  1  0
  2  9  1  0
  3  9  2  0
  3 12  1  0
  4 12  1  0
  4 13  1  0
  5  9  1  0
  5 14  2  0
  6 12  2  0
  6 14  1  0
  7 10  1  0
  8 11  1  0
 13 15  1  0
M  END
>  <PUBCHEM_COMPOUND_CID>  (1) 
35106

>  <PUBCHEM_CONFORMER_RMSD>  (1) 
0.6

>  <PUBCHEM_CONFORMER_DIVERSEORDER>  (1) 
1
27
56
44
62
54
63
42
19
12
53
34
35
52
26
57
17
58
33
48
11
43
59
38
28
29
30
45
51
55
41
60
15
7
13
50
16
39
47
10
40
20
18
36
23
21
9
5
2
25
49
32
3
6
31
14
8
4
61
46
24
37
22

>  <PUBCHEM_MMFF94_PARTIAL_CHARGES>  (1) 
13
1 -0.11
12 0.72
13 0.37
14 0.73
2 -0.84
28 0.4
3 -0.62
4 -0.87
5 -0.62
6 -0.62
7 0.37
8 0.37
9 0.72

>  <PUBCHEM_EFFECTIVE_ROTOR_COUNT>  (1) 
5

>  <PUBCHEM_PHARMACOPHORE_FEATURES>  (1) 
5
1 1 hydrophobe
1 4 donor
4 2 3 5 9 cation
4 3 4 6 12 cation
6 3 5 6 9 12 14 rings

>  <PUBCHEM_HEAVY_ATOM_COUNT>  (1) 
15

>  <PUBCHEM_ATOM_DEF_STEREO_COUNT>  (1) 
0

>  <PUBCHEM_ATOM_UDEF_STEREO_COUNT>  (1) 
0

>  <PUBCHEM_BOND_DEF_STEREO_COUNT>  (1) 
0

>  <PUBCHEM_BOND_UDEF_STEREO_COUNT>  (1) 
0

>  <PUBCHEM_ISOTOPIC_ATOM_COUNT>  (1) 
0

>  <PUBCHEM_COMPONENT_COUNT>  (1) 
1

>  <PUBCHEM_CACTVS_TAUTO_COUNT>  (1) 
4

>  <PUBCHEM_CONFORMER_ID>  (1) 
0000892200000001

>  <PUBCHEM_MMFF94_ENERGY>  (1) 
34.2588

>  <PUBCHEM_FEATURE_SELFOVERLAP>  (1) 
25.414

>  <PUBCHEM_SHAPE_FINGERPRINT>  (1) 
11357001 24 18262796238176450720
12507560 14 18341898519467624677
12553582 1 18409728491217860014
13140716 1 18339363079687002090
13380535 76 17616804440522249076
14178342 30 17837481213073551824
15279308 51 18198058286270819567
15442244 35 18268151031723678819
15490181 8 17400062085657535029
16752209 62 18192132824813821322
16945 1 18121216743068549373
20510252 161 18199181789844315592
20671657 1 18050299346925777437
20711985 365 18336263453439739108
20871998 184 18268146461825578982
21029758 27 18261404346470586268
21501502 16 18052260892791420895
22959321 94 18335411349414186690
23402539 116 18272077276056185991
23552423 10 17762338419699572063
23557571 272 18271814467698401204
23598291 2 18198346362480336975
23598294 1 18191577550262364136
2748010 2 17979920414716253510
3091708 16 9497218030841288888
34934 24 18337666546256553488
352729 6 17977099063827493180
4175511 71 18336554909867691609
57426455 70 18335711537257164995
6992083 37 18342185496107674099
7364860 26 17906172106849877088
74978 22 18123755515511659455
81228 2 18334290921010829376

>  <PUBCHEM_SHAPE_MULTIPOLES>  (1) 
289.73
5.76
4.02
0.85
5.71
3.21
0
-3.47
1.84
-1.75
-1.28
-0.47
-0.3
-0.16

>  <PUBCHEM_SHAPE_SELFOVERLAP>  (1) 
558.422

>  <PUBCHEM_SHAPE_VOLUME>  (1) 
181.7

>  <PUBCHEM_COORDINATE_TYPE>  (1) 
2
5
10

$$$$
