35102
     RDKit          3D

 14 14  0  0  0  0  0  0  0  0999 V2000
   -2.5717   -3.5399   -0.0244 Br  0  0  0  0  0  0  0  0  0  0  0  0
    1.8357   -0.9316    0.0275 N   0  0  0  0  0  0  0  0  0  0  0  0
   -2.1354    1.5633    0.0002 N   0  0  0  0  0  0  0  0  0  0  0  0
   -0.1329    0.3428    0.0149 N   0  0  0  0  0  0  0  0  0  0  0  0
   -0.2222   -2.0550    0.0043 N   0  0  0  0  0  0  0  0  0  0  0  0
   -2.2541   -0.7786   -0.0100 N   0  0  0  0  0  0  0  0  0  0  0  0
    2.6815    0.2376    0.0397 C   0  0  0  0  0  0  0  0  0  0  0  0
    4.1531   -0.1599   -0.0110 C   0  0  0  0  0  0  0  0  0  0  0  0
    5.0882    1.0409   -0.0457 C   0  0  0  0  0  0  0  0  0  0  0  0
    0.4506   -0.8795    0.0153 C   0  0  0  0  0  0  0  0  0  0  0  0
   -1.4363    2.8100    0.0115 C   0  0  0  0  0  0  0  0  0  0  0  0
   -1.4753    0.3153    0.0019 C   0  0  0  0  0  0  0  0  0  0  0  0
   -2.4224    3.9619   -0.0161 C   0  0  0  0  0  0  0  0  0  0  0  0
   -1.5588   -1.9274   -0.0081 C   0  0  0  0  0  0  0  0  0  0  0  0
  1 14  1  0
  2  7  1  0
  2 10  1  0
  3 11  1  0
  3 12  1  0
  4 10  2  0
  4 12  1  0
  5 10  1  0
  5 14  2  0
  6 12  2  0
  6 14  1  0
  7  8  1  0
  8  9  1  0
 11 13  1  0
M  END
>  <PUBCHEM_COMPOUND_CID>  (1) 
35102

>  <PUBCHEM_CONFORMER_RMSD>  (1) 
0.6

>  <PUBCHEM_CONFORMER_DIVERSEORDER>  (1) 
1
38
36
35
62
27
70
58
63
33
18
44
67
8
69
15
34
48
23
66
11
61
68
60
52
65
22
54
59
39
41
10
32
2
46
64
56
55
9
57
3
26
51
45
37
47
30
19
42
21
4
29
49
40
53
24
6
12
50
28
14
17
20
25
13
5
7
43
16
31

>  <PUBCHEM_MMFF94_PARTIAL_CHARGES>  (1) 
13
1 -0.11
10 0.72
11 0.37
12 0.72
14 0.73
19 0.4
2 -0.87
25 0.4
3 -0.87
4 -0.62
5 -0.62
6 -0.62
7 0.37

>  <PUBCHEM_EFFECTIVE_ROTOR_COUNT>  (1) 
5

>  <PUBCHEM_PHARMACOPHORE_FEATURES>  (1) 
7
1 1 hydrophobe
1 2 donor
1 3 donor
1 9 hydrophobe
4 2 4 5 10 cation
4 3 4 6 12 cation
6 4 5 6 10 12 14 rings

>  <PUBCHEM_HEAVY_ATOM_COUNT>  (1) 
14

>  <PUBCHEM_ATOM_DEF_STEREO_COUNT>  (1) 
0

>  <PUBCHEM_ATOM_UDEF_STEREO_COUNT>  (1) 
0

>  <PUBCHEM_BOND_DEF_STEREO_COUNT>  (1) 
0

>  <PUBCHEM_BOND_UDEF_STEREO_COUNT>  (1) 
0

>  <PUBCHEM_ISOTOPIC_ATOM_COUNT>  (1) 
0

>  <PUBCHEM_COMPONENT_COUNT>  (1) 
1

>  <PUBCHEM_CACTVS_TAUTO_COUNT>  (1) 
9

>  <PUBCHEM_CONFORMER_ID>  (1) 
0000891E00000001

>  <PUBCHEM_MMFF94_ENERGY>  (1) 
26.6622

>  <PUBCHEM_FEATURE_SELFOVERLAP>  (1) 
35.563

>  <PUBCHEM_SHAPE_FINGERPRINT>  (1) 
10608611 8 18342457041504942624
12173636 292 18338516335416215804
13955234 65 17257379544649304353
14123255 52 18122063104923651084
14508225 48 18125990805349824463
15042514 8 18409454717038643283
17134986 127 17906171746109378836
1741750 31 18268426837370108032
17834072 32 18266462005907548800
20510252 161 18341897367910006984
20645477 56 18341340998258049928
20671657 1 17331403069445199373
20871998 184 18201443639517840358
21029758 11 18121494927931558199
21339142 36 18265886050629294007
21339142 51 18264480866295112607
21426921 1 18410856590274266398
21499 59 17977094670165639845
21524375 3 18044656386642006513
22182937 141 18271813393250228312
2306618 200 18273223010079829834
23402539 116 18199464544447402559
23557571 272 18271816764820082910
23558518 356 18261118443794485362
23559900 14 18057606465766941030
2748010 2 17981870141211777683
3071541 12 17475516071203171463
3071541 250 17832710449506391319
3091708 16 9201686910407672747
68521 5 18338799030058279535
7364860 26 17114381442874401255
81228 2 18340221776914829819

>  <PUBCHEM_SHAPE_MULTIPOLES>  (1) 
269.15
6.86
4.52
0.6
12.76
4.03
0
-1.17
-0.1
-7.02
-0.04
-0.01
-0.03
-0.02

>  <PUBCHEM_SHAPE_SELFOVERLAP>  (1) 
515.319

>  <PUBCHEM_SHAPE_VOLUME>  (1) 
167.9

>  <PUBCHEM_COORDINATE_TYPE>  (1) 
2
5
10

$$$$
