35108
     RDKit          3D

 12 12  0  0  0  0  0  0  0  0999 V2000
    1.6902   -2.1011    0.0000 O   0  0  0  0  0  0  0  0  0  0  0  0
   -2.7741   -0.7719   -0.0004 N   0  0  0  0  0  0  0  0  0  0  0  0
    0.6450    2.4379   -0.0007 N   0  0  0  0  0  0  0  0  0  0  0  0
   -1.0862    0.8561   -0.0003 N   0  0  0  0  0  0  0  0  0  0  0  0
    1.2108    0.1623    0.0000 N   0  0  0  0  0  0  0  0  0  0  0  0
   -0.5386   -1.4801    0.0003 N   0  0  0  0  0  0  0  0  0  0  0  0
   -1.3995   -0.4497    0.0000 C   0  0  0  0  0  0  0  0  0  0  0  0
    0.2367    1.0865   -0.0004 C   0  0  0  0  0  0  0  0  0  0  0  0
    0.7489   -1.0985    0.0001 C   0  0  0  0  0  0  0  0  0  0  0  0
   -3.8030    0.2204    0.0006 C   0  0  0  0  0  0  0  0  0  0  0  0
    2.0187    2.8328    0.0009 C   0  0  0  0  0  0  0  0  0  0  0  0
    3.0511   -1.6947   -0.0001 C   0  0  0  0  0  0  0  0  0  0  0  0
  1  9  1  0
  1 12  1  0
  2  7  1  0
  2 10  1  0
  3  8  1  0
  3 11  1  0
  4  7  2  0
  4  8  1  0
  5  8  2  0
  5  9  1  0
  6  7  1  0
  6  9  2  0
M  END
>  <PUBCHEM_COMPOUND_CID>  (1) 
35108

>  <PUBCHEM_CONFORMER_RMSD>  (1) 
0.6

>  <PUBCHEM_CONFORMER_DIVERSEORDER>  (1) 
1
3
2

>  <PUBCHEM_MMFF94_PARTIAL_CHARGES>  (1) 
14
1 -0.36
10 0.37
11 0.37
12 0.28
13 0.4
14 0.4
2 -0.87
3 -0.87
4 -0.62
5 -0.62
6 -0.62
7 0.72
8 0.72
9 0.7

>  <PUBCHEM_EFFECTIVE_ROTOR_COUNT>  (1) 
3

>  <PUBCHEM_PHARMACOPHORE_FEATURES>  (1) 
5
1 2 donor
1 3 donor
4 2 4 6 7 cation
4 3 4 5 8 cation
6 4 5 6 7 8 9 rings

>  <PUBCHEM_HEAVY_ATOM_COUNT>  (1) 
12

>  <PUBCHEM_ATOM_DEF_STEREO_COUNT>  (1) 
0

>  <PUBCHEM_ATOM_UDEF_STEREO_COUNT>  (1) 
0

>  <PUBCHEM_BOND_DEF_STEREO_COUNT>  (1) 
0

>  <PUBCHEM_BOND_UDEF_STEREO_COUNT>  (1) 
0

>  <PUBCHEM_ISOTOPIC_ATOM_COUNT>  (1) 
0

>  <PUBCHEM_COMPONENT_COUNT>  (1) 
1

>  <PUBCHEM_CACTVS_TAUTO_COUNT>  (1) 
5

>  <PUBCHEM_CONFORMER_ID>  (1) 
0000892400000001

>  <PUBCHEM_MMFF94_ENERGY>  (1) 
41.3103

>  <PUBCHEM_FEATURE_SELFOVERLAP>  (1) 
25.415

>  <PUBCHEM_SHAPE_FINGERPRINT>  (1) 
1 1 18194401323344510452
12423570 1 18194935617339150651
13380535 76 18047745189803610107
14648413 74 18335985371476506499
161256 15 18334572443057977037
16945 1 18410855498883152711
19021347 4 17761210324990536186
193761 8 18122626316669519942
20645476 183 17320712990524952084
20645477 70 18337944697467089239
20871998 184 17841142251871155142
20871998 22 18127136272943408295
21040471 1 17690280829788072549
23552423 10 18339640165317736903
241688 4 18122624955190748120
2748010 2 18195513805899932396
305870 269 18194400228106802721
3071541 12 18411422851099262445
3071541 158 18261391105091811237
3071541 250 18339375075604161974
3071541 37 18263365956924477469
528862 383 18263916799359693104
7364860 26 18340769333415045352
81228 2 17835812893214854922

>  <PUBCHEM_SHAPE_MULTIPOLES>  (1) 
216.18
4.46
2.84
0.57
3.29
1.66
0
-0.99
0
-2.97
0
-0.01
0.01
0

>  <PUBCHEM_SHAPE_SELFOVERLAP>  (1) 
433.492

>  <PUBCHEM_SHAPE_VOLUME>  (1) 
124.7

>  <PUBCHEM_COORDINATE_TYPE>  (1) 
2
5
10

$$$$
