35118
     RDKit          3D

 18 18  0  0  0  0  0  0  0  0999 V2000
   -1.5541    0.3875   -0.5614 O   0  0  0  0  0  0  0  0  0  0  0  0
   -4.2354    0.3741    0.2377 O   0  0  0  0  0  0  0  0  0  0  0  0
    2.1191   -2.3629    0.2374 N   0  0  0  0  0  0  0  0  0  0  0  0
    2.6656    2.2871   -0.0309 N   0  0  0  0  0  0  0  0  0  0  0  0
    2.4233   -0.0413    0.1088 N   0  0  0  0  0  0  0  0  0  0  0  0
    0.5253    1.3680   -0.3027 N   0  0  0  0  0  0  0  0  0  0  0  0
    0.2458   -1.0112   -0.1657 N   0  0  0  0  0  0  0  0  0  0  0  0
   -2.3251   -0.8051   -0.5939 C   0  0  0  0  0  0  0  0  0  0  0  0
   -3.7798   -0.4476   -0.8303 C   0  0  0  0  0  0  0  0  0  0  0  0
    1.5695   -1.0759    0.0510 C   0  0  0  0  0  0  0  0  0  0  0  0
    1.8458    1.1699   -0.0762 C   0  0  0  0  0  0  0  0  0  0  0  0
    1.3311   -3.5551    0.2022 C   0  0  0  0  0  0  0  0  0  0  0  0
    4.0881    2.2287    0.2008 C   0  0  0  0  0  0  0  0  0  0  0  0
   -0.2058    0.2421   -0.3339 C   0  0  0  0  0  0  0  0  0  0  0  0
   -5.5909    0.7591    0.0567 C   0  0  0  0  0  0  0  0  0  0  0  0
    2.2132   -4.7705    0.4138 C   0  0  0  0  0  0  0  0  0  0  0  0
    4.6806    3.6244    0.1658 C   0  0  0  0  0  0  0  0  0  0  0  0
   -6.0162    1.6286    1.2206 C   0  0  0  0  0  0  0  0  0  0  0  0
  1  8  1  0
  1 14  1  0
  2  9  1  0
  2 15  1  0
  3 10  1  0
  3 12  1  0
  4 11  1  0
  4 13  1  0
  5 10  2  0
  5 11  1  0
  6 11  2  0
  6 14  1  0
  7 10  1  0
  7 14  2  0
  8  9  1  0
 12 16  1  0
 13 17  1  0
 15 18  1  0
M  END
>  <PUBCHEM_COMPOUND_CID>  (1) 
35118

>  <PUBCHEM_CONFORMER_RMSD>  (1) 
0.8

>  <PUBCHEM_CONFORMER_DIVERSEORDER>  (1) 
1
36
21
39
11
33
14
57
24
56
69
23
20
54
12
4
44
52
5
59
63
65
3
53
66
41
43
27
29
22
30
47
13
15
31
18
7
32
68
60
8
38
61
55
19
42
49
28
26
50
58
67
34
25
64
17
37
45
46
51
6
16
10
48
9
40
62
2
35

>  <PUBCHEM_MMFF94_PARTIAL_CHARGES>  (1) 
17
1 -0.36
10 0.72
11 0.72
12 0.37
13 0.37
14 0.7
15 0.28
2 -0.56
27 0.4
28 0.4
3 -0.87
4 -0.87
5 -0.62
6 -0.62
7 -0.62
8 0.28
9 0.28

>  <PUBCHEM_EFFECTIVE_ROTOR_COUNT>  (1) 
9

>  <PUBCHEM_PHARMACOPHORE_FEATURES>  (1) 
6
1 2 acceptor
1 3 donor
1 4 donor
4 3 5 7 10 cation
4 4 5 6 11 cation
6 5 6 7 10 11 14 rings

>  <PUBCHEM_HEAVY_ATOM_COUNT>  (1) 
18

>  <PUBCHEM_ATOM_DEF_STEREO_COUNT>  (1) 
0

>  <PUBCHEM_ATOM_UDEF_STEREO_COUNT>  (1) 
0

>  <PUBCHEM_BOND_DEF_STEREO_COUNT>  (1) 
0

>  <PUBCHEM_BOND_UDEF_STEREO_COUNT>  (1) 
0

>  <PUBCHEM_ISOTOPIC_ATOM_COUNT>  (1) 
0

>  <PUBCHEM_COMPONENT_COUNT>  (1) 
1

>  <PUBCHEM_CACTVS_TAUTO_COUNT>  (1) 
5

>  <PUBCHEM_CONFORMER_ID>  (1) 
0000892E00000001

>  <PUBCHEM_MMFF94_ENERGY>  (1) 
40.8444

>  <PUBCHEM_FEATURE_SELFOVERLAP>  (1) 
30.488

>  <PUBCHEM_SHAPE_FINGERPRINT>  (1) 
10382601 240 18113889477094813816
10411042 1 17834111944501244590
10912923 1 17988640767081914049
12107183 9 17837496255008929929
12293681 160 17845944051331419888
12390115 104 18123483927259975028
12532896 13 18195244645032446006
12553582 1 18051119303153541447
12892183 10 18336558161912074817
13140716 1 18335978761632997450
13533116 47 18263372404493178755
13785724 45 17551242766141256255
13955234 65 18336549317614680651
14739800 52 17560784529488047249
14790565 3 18265617773771170316
15664445 248 17985843531590814806
15842332 3 17988058055525411991
19784866 34 18339922730994685493
19784866 9 18341891913343985904
20645477 70 18189034444487370215
20739085 24 18259987076262386820
20832881 197 17828207597662376947
21065199 12 18261401040268791705
21421861 104 18336541603816188577
2255824 54 18412822456561252166
3091708 16 9618843812593586634
3421961 26 18265051327924814427
458136 41 18408881858405233358
5104073 3 18334295392314040395
59124914 9 18271245031490444360
621550 34 18260260846035873421
633830 44 18271805778214755220
7364860 26 18410286978589556030
77188 2 17977945675143775206
8272917 22 18412265012634117279
9841814 1 18117272558336049962

>  <PUBCHEM_SHAPE_MULTIPOLES>  (1) 
333.79
10.84
4.94
0.79
17.25
5.41
0.06
-10.76
2.53
-9.34
1.11
0.74
-0.06
-1.08

>  <PUBCHEM_SHAPE_SELFOVERLAP>  (1) 
651.382

>  <PUBCHEM_SHAPE_VOLUME>  (1) 
197.8

>  <PUBCHEM_COORDINATE_TYPE>  (1) 
2
5
10

$$$$
