35119
     RDKit          3D

 16 17  0  0  0  0  0  0  0  0999 V2000
   -0.0914   -0.4338   -0.0311 O   0  0  0  0  0  0  0  0  0  0  0  0
    1.7010    1.0290   -0.0149 N   0  0  0  0  0  0  0  0  0  0  0  0
    2.0341   -1.3473   -0.0018 N   0  0  0  0  0  0  0  0  0  0  0  0
    3.9254    0.1293    0.0150 N   0  0  0  0  0  0  0  0  0  0  0  0
    3.5686    2.4471    0.0013 N   0  0  0  0  0  0  0  0  0  0  0  0
    4.2194   -2.1972    0.0273 N   0  0  0  0  0  0  0  0  0  0  0  0
   -2.3401    0.3405   -0.0174 C   0  0  0  0  0  0  0  0  0  0  0  0
   -0.9020    0.7349   -0.0455 C   0  0  0  0  0  0  0  0  0  0  0  0
   -3.0289    0.1294   -1.2119 C   0  0  0  0  0  0  0  0  0  0  0  0
   -2.9965    0.1822    1.2033 C   0  0  0  0  0  0  0  0  0  0  0  0
   -4.3737   -0.2396   -1.1859 C   0  0  0  0  0  0  0  0  0  0  0  0
   -4.3413   -0.1869    1.2292 C   0  0  0  0  0  0  0  0  0  0  0  0
   -5.0300   -0.3978    0.0346 C   0  0  0  0  0  0  0  0  0  0  0  0
    1.2653   -0.2437   -0.0154 C   0  0  0  0  0  0  0  0  0  0  0  0
    3.0393    1.1382    0.0005 C   0  0  0  0  0  0  0  0  0  0  0  0
    3.3508   -1.0842    0.0126 C   0  0  0  0  0  0  0  0  0  0  0  0
  1  8  1  0
  1 14  1  0
  2 14  2  0
  2 15  1  0
  3 14  1  0
  3 16  2  0
  4 15  2  0
  4 16  1  0
  5 15  1  0
  6 16  1  0
  7  8  1  0
  7  9  2  0
  7 10  1  0
  9 11  1  0
 10 12  2  0
 11 13  2  0
 12 13  1  0
M  END
>  <PUBCHEM_COMPOUND_CID>  (1) 
35119

>  <PUBCHEM_CONFORMER_RMSD>  (1) 
0.6

>  <PUBCHEM_CONFORMER_DIVERSEORDER>  (1) 
1
26
24
8
7
11
21
25
2
19
17
13
22
12
9
20
16
15
3
6
10
4
14
5
23
18

>  <PUBCHEM_MMFF94_PARTIAL_CHARGES>  (1) 
25
1 -0.36
10 -0.15
11 -0.15
12 -0.15
13 -0.15
14 0.7
15 0.72
16 0.72
19 0.15
2 -0.62
20 0.15
21 0.15
22 0.15
23 0.15
24 0.4
25 0.4
26 0.4
27 0.4
3 -0.62
4 -0.62
5 -0.9
6 -0.9
7 -0.14
8 0.42
9 -0.15

>  <PUBCHEM_EFFECTIVE_ROTOR_COUNT>  (1) 
3

>  <PUBCHEM_PHARMACOPHORE_FEATURES>  (1) 
6
1 5 donor
1 6 donor
4 2 4 5 15 cation
4 3 4 6 16 cation
6 2 3 4 14 15 16 rings
6 7 9 10 11 12 13 rings

>  <PUBCHEM_HEAVY_ATOM_COUNT>  (1) 
16

>  <PUBCHEM_ATOM_DEF_STEREO_COUNT>  (1) 
0

>  <PUBCHEM_ATOM_UDEF_STEREO_COUNT>  (1) 
0

>  <PUBCHEM_BOND_DEF_STEREO_COUNT>  (1) 
0

>  <PUBCHEM_BOND_UDEF_STEREO_COUNT>  (1) 
0

>  <PUBCHEM_ISOTOPIC_ATOM_COUNT>  (1) 
0

>  <PUBCHEM_COMPONENT_COUNT>  (1) 
1

>  <PUBCHEM_CACTVS_TAUTO_COUNT>  (1) 
5

>  <PUBCHEM_CONFORMER_ID>  (1) 
0000892F00000001

>  <PUBCHEM_MMFF94_ENERGY>  (1) 
49.8425

>  <PUBCHEM_FEATURE_SELFOVERLAP>  (1) 
30.489

>  <PUBCHEM_SHAPE_FINGERPRINT>  (1) 
10912923 1 17847063307049812227
11471102 20 18409448090046010500
11615757 297 18272370875609534985
12236239 1 17703792521959857264
12616971 3 18130788949697557975
12916754 54 18411980248113228551
13167823 11 18272931622403170927
13296908 3 17748828509928464229
13760787 5 18272368676849984581
13955234 65 18411697716811998840
14386348 63 17748829622398756073
15242439 84 17676486112361728551
15375358 24 17676482878314625713
15375462 189 17989207061976310161
15961568 22 16153995763137111796
17834072 33 18201437021436869479
17870717 6 16733273357020231019
18186145 218 18334579031463865042
19026448 4 17821727238983236973
19026448 5 17846500335468651505
19050596 39 17632577136965506219
19422 9 17917712396437929391
1986462 14 16588024593825076607
200 152 18342452630431013867
20279233 1 17603586335355878843
20281475 54 18131344228755096615
20645477 70 18408317770254200310
21065201 7 16515399655823727385
22646028 1 18060697277970568335
23048698 100 18272371979437157617
23402539 116 18059571356625812453
23557571 272 17167574982055200597
23559900 14 16950561052055344394
26918003 58 18334295366343756609
312423 11 18270132231175396632
3268164 11 15936680537182009015
474 4 17913479414042134000
5104073 3 18409449150602597433
5281201 14 18113900437809324452
573450 72 17203608164562586883
77779 3 18411138035038610325

>  <PUBCHEM_SHAPE_MULTIPOLES>  (1) 
298.5
10.86
1.55
0.99
2.44
0.14
-0.01
-1.53
-0.11
-3.03
-0.01
1.47
-0.01
-0.05

>  <PUBCHEM_SHAPE_SELFOVERLAP>  (1) 
635.703

>  <PUBCHEM_SHAPE_VOLUME>  (1) 
161.7

>  <PUBCHEM_COORDINATE_TYPE>  (1) 
2
5
10

$$$$
