35125
     RDKit          3D

 11 11  0  0  0  0  0  0  0  0999 V2000
    1.9994   -1.0631   -0.4345 S   0  0  0  0  0  0  0  0  0  0  0  0
   -0.6266   -1.3733   -0.0735 N   0  0  0  0  0  0  0  0  0  0  0  0
    0.1849    0.8809   -0.2078 N   0  0  0  0  0  0  0  0  0  0  0  0
   -2.1563    0.4659    0.1149 N   0  0  0  0  0  0  0  0  0  0  0  0
   -2.9197   -1.7480    0.2415 N   0  0  0  0  0  0  0  0  0  0  0  0
   -1.3332    2.6581   -0.0211 N   0  0  0  0  0  0  0  0  0  0  0  0
    2.9849    0.2649    0.3142 C   0  0  0  0  0  0  0  0  0  0  0  0
    0.3408   -0.4527   -0.2150 C   0  0  0  0  0  0  0  0  0  0  0  0
    4.4646   -0.0590    0.2330 C   0  0  0  0  0  0  0  0  0  0  0  0
   -1.8489   -0.8410    0.0870 C   0  0  0  0  0  0  0  0  0  0  0  0
   -1.0899    1.2673   -0.0387 C   0  0  0  0  0  0  0  0  0  0  0  0
  1  7  1  0
  1  8  1  0
  2  8  2  0
  2 10  1  0
  3  8  1  0
  3 11  2  0
  4 10  2  0
  4 11  1  0
  5 10  1  0
  6 11  1  0
  7  9  1  0
M  END
>  <PUBCHEM_COMPOUND_CID>  (1) 
35125

>  <PUBCHEM_CONFORMER_RMSD>  (1) 
0.4

>  <PUBCHEM_CONFORMER_DIVERSEORDER>  (1) 
1
4
8
3
9
5
7
6
2

>  <PUBCHEM_MMFF94_PARTIAL_CHARGES>  (1) 
14
1 -0.33
10 0.72
11 0.72
17 0.4
18 0.4
19 0.4
2 -0.62
20 0.4
3 -0.62
4 -0.62
5 -0.9
6 -0.9
7 0.23
8 0.72

>  <PUBCHEM_EFFECTIVE_ROTOR_COUNT>  (1) 
2

>  <PUBCHEM_PHARMACOPHORE_FEATURES>  (1) 
6
1 5 donor
1 6 donor
1 9 hydrophobe
4 2 4 5 10 cation
4 3 4 6 11 cation
6 2 3 4 8 10 11 rings

>  <PUBCHEM_HEAVY_ATOM_COUNT>  (1) 
11

>  <PUBCHEM_ATOM_DEF_STEREO_COUNT>  (1) 
0

>  <PUBCHEM_ATOM_UDEF_STEREO_COUNT>  (1) 
0

>  <PUBCHEM_BOND_DEF_STEREO_COUNT>  (1) 
0

>  <PUBCHEM_BOND_UDEF_STEREO_COUNT>  (1) 
0

>  <PUBCHEM_ISOTOPIC_ATOM_COUNT>  (1) 
0

>  <PUBCHEM_COMPONENT_COUNT>  (1) 
1

>  <PUBCHEM_CACTVS_TAUTO_COUNT>  (1) 
5

>  <PUBCHEM_CONFORMER_ID>  (1) 
0000893500000001

>  <PUBCHEM_MMFF94_ENERGY>  (1) 
25.8048

>  <PUBCHEM_FEATURE_SELFOVERLAP>  (1) 
30.489

>  <PUBCHEM_SHAPE_FINGERPRINT>  (1) 
10608611 8 18342736270166382144
10857977 72 18412257376277242994
12716758 59 18195254312513186102
14325111 11 18411698743261696246
15219456 202 18059581226671856950
16945 1 18337401447810677671
18380122 1 18130796646057711934
19973954 147 18340772537882569956
20645464 45 18131072589227061574
20871998 184 18272653454224178831
20871998 22 18269573752478323775
21040471 1 17905053551526670565
23402539 116 18270953643802781687
23552423 10 18188218615037986022
2748010 2 17759538668111399973
6333449 129 18341328911877044724

>  <PUBCHEM_SHAPE_MULTIPOLES>  (1) 
205.32
5.55
1.96
0.64
6.17
0.89
-0.02
-0.76
0.79
-1.77
-0.03
0.14
-0.04
0.28

>  <PUBCHEM_SHAPE_SELFOVERLAP>  (1) 
398.805

>  <PUBCHEM_SHAPE_VOLUME>  (1) 
124.5

>  <PUBCHEM_COORDINATE_TYPE>  (1) 
2
5
10

$$$$
