35127
     RDKit          3D

 13 13  0  0  0  0  0  0  0  0999 V2000
    1.1732   -0.6647   -0.7499 S   0  0  0  0  0  0  0  0  0  0  0  0
   -0.8600    0.9868   -0.2394 N   0  0  0  0  0  0  0  0  0  0  0  0
   -1.3398   -1.3636   -0.1851 N   0  0  0  0  0  0  0  0  0  0  0  0
   -3.0813    0.2269    0.2570 N   0  0  0  0  0  0  0  0  0  0  0  0
   -2.5817    2.5175    0.1974 N   0  0  0  0  0  0  0  0  0  0  0  0
   -3.5193   -2.0769    0.3038 N   0  0  0  0  0  0  0  0  0  0  0  0
    3.5401    0.7117   -0.1922 C   0  0  0  0  0  0  0  0  0  0  0  0
    4.2098   -0.5036    0.4549 C   0  0  0  0  0  0  0  0  0  0  0  0
    2.0245    0.7536    0.0017 C   0  0  0  0  0  0  0  0  0  0  0  0
    5.7234   -0.4392    0.3173 C   0  0  0  0  0  0  0  0  0  0  0  0
   -0.5329   -0.3074   -0.3464 C   0  0  0  0  0  0  0  0  0  0  0  0
   -2.1537    1.1787    0.0651 C   0  0  0  0  0  0  0  0  0  0  0  0
   -2.6024   -1.0197    0.1160 C   0  0  0  0  0  0  0  0  0  0  0  0
  1  9  1  0
  1 11  1  0
  2 11  2  0
  2 12  1  0
  3 11  1  0
  3 13  2  0
  4 12  2  0
  4 13  1  0
  5 12  1  0
  6 13  1  0
  7  8  1  0
  7  9  1  0
  8 10  1  0
M  END
>  <PUBCHEM_COMPOUND_CID>  (1) 
35127

>  <PUBCHEM_CONFORMER_RMSD>  (1) 
0.6

>  <PUBCHEM_CONFORMER_DIVERSEORDER>  (1) 
1
32
5
34
11
2
36
18
26
15
14
8
31
35
9
20
30
13
27
7
33
19
28
3
10
4
6
12
16
22
21
17
38
23
24
37
39
29
25

>  <PUBCHEM_MMFF94_PARTIAL_CHARGES>  (1) 
14
1 -0.33
11 0.72
12 0.72
13 0.72
2 -0.62
23 0.4
24 0.4
25 0.4
26 0.4
3 -0.62
4 -0.62
5 -0.9
6 -0.9
9 0.23

>  <PUBCHEM_EFFECTIVE_ROTOR_COUNT>  (1) 
4

>  <PUBCHEM_PHARMACOPHORE_FEATURES>  (1) 
7
1 10 hydrophobe
1 5 donor
1 6 donor
4 1 7 8 9 hydrophobe
4 2 4 5 12 cation
4 3 4 6 13 cation
6 2 3 4 11 12 13 rings

>  <PUBCHEM_HEAVY_ATOM_COUNT>  (1) 
13

>  <PUBCHEM_ATOM_DEF_STEREO_COUNT>  (1) 
0

>  <PUBCHEM_ATOM_UDEF_STEREO_COUNT>  (1) 
0

>  <PUBCHEM_BOND_DEF_STEREO_COUNT>  (1) 
0

>  <PUBCHEM_BOND_UDEF_STEREO_COUNT>  (1) 
0

>  <PUBCHEM_ISOTOPIC_ATOM_COUNT>  (1) 
0

>  <PUBCHEM_COMPONENT_COUNT>  (1) 
1

>  <PUBCHEM_CACTVS_TAUTO_COUNT>  (1) 
5

>  <PUBCHEM_CONFORMER_ID>  (1) 
0000893700000001

>  <PUBCHEM_MMFF94_ENERGY>  (1) 
26.0039

>  <PUBCHEM_FEATURE_SELFOVERLAP>  (1) 
35.564

>  <PUBCHEM_SHAPE_FINGERPRINT>  (1) 
10912923 1 17894630349511267592
12251169 10 18408323272328566740
124424 183 18202276988111995672
13214271 11 18272649030397242956
13675066 3 18060414712615437958
15219456 202 17987807310686133118
17804303 29 18341615944868613924
17834072 33 18114185276562838804
18186145 218 15195571212800698252
19422 9 18187086174264963356
1986462 14 18408041806031351102
20645464 45 18131356288748801373
20645477 56 18339366245157111141
20645477 70 13840529745513775584
21065199 12 18342452656369616472
21339142 126 18272928366828497327
2306618 200 18130795542303708753
23380061 127 18410290315704973566
23402539 116 18342450478610519343
23532345 12 18259988180363978364
42 15 18408885140303676678
4214541 1 18409728439836443000
5104073 3 18411697686778967560
573450 72 18334005069694098058
77779 3 18409449185547533552

>  <PUBCHEM_SHAPE_MULTIPOLES>  (1) 
246.48
9.21
1.83
0.7
12.1
0.42
-0.05
-1.47
1.87
-2.45
0.13
0.19
-0.06
-0.05

>  <PUBCHEM_SHAPE_SELFOVERLAP>  (1) 
474.867

>  <PUBCHEM_SHAPE_VOLUME>  (1) 
150

>  <PUBCHEM_COORDINATE_TYPE>  (1) 
2
5
10

$$$$
