35131
     RDKit          3D

 27 30  0  0  0  0  0  0  0  0999 V2000
   -0.1392    2.3627   -0.9868 S   0  0  0  0  0  0  0  0  0  0  0  0
   -3.2831   -1.3385    0.2543 N   0  0  0  0  0  0  0  0  0  0  0  0
    1.3072   -2.2975    0.1598 N   0  0  0  0  0  0  0  0  0  0  0  0
   -0.9943   -1.8485    0.2150 N   0  0  0  0  0  0  0  0  0  0  0  0
    0.5781   -0.1326   -0.3692 N   0  0  0  0  0  0  0  0  0  0  0  0
   -1.7702    0.3581   -0.3209 N   0  0  0  0  0  0  0  0  0  0  0  0
   -4.5196   -0.6657    0.1673 C   0  0  0  0  0  0  0  0  0  0  0  0
    2.7021   -2.1735    0.0202 C   0  0  0  0  0  0  0  0  0  0  0  0
   -1.9544   -0.9240    0.0394 C   0  0  0  0  0  0  0  0  0  0  0  0
    0.2452   -1.3819   -0.0063 C   0  0  0  0  0  0  0  0  0  0  0  0
   -5.6732   -1.3682   -0.1817 C   0  0  0  0  0  0  0  0  0  0  0  0
   -4.5889    0.7026    0.4298 C   0  0  0  0  0  0  0  0  0  0  0  0
    3.5566   -2.9602    0.7954 C   0  0  0  0  0  0  0  0  0  0  0  0
    3.2363   -1.2629   -0.8939 C   0  0  0  0  0  0  0  0  0  0  0  0
   -0.4805    0.6818   -0.5074 C   0  0  0  0  0  0  0  0  0  0  0  0
    1.4782    2.6106   -0.2682 C   0  0  0  0  0  0  0  0  0  0  0  0
   -6.8958   -0.7025   -0.2685 C   0  0  0  0  0  0  0  0  0  0  0  0
   -5.8117    1.3681    0.3432 C   0  0  0  0  0  0  0  0  0  0  0  0
    4.9392   -2.8367    0.6575 C   0  0  0  0  0  0  0  0  0  0  0  0
    4.6189   -1.1396   -1.0320 C   0  0  0  0  0  0  0  0  0  0  0  0
   -6.9651    0.6657   -0.0060 C   0  0  0  0  0  0  0  0  0  0  0  0
    5.4703   -1.9265   -0.2563 C   0  0  0  0  0  0  0  0  0  0  0  0
    1.6515    2.4842    1.1077 C   0  0  0  0  0  0  0  0  0  0  0  0
    2.5587    2.9289   -1.0870 C   0  0  0  0  0  0  0  0  0  0  0  0
    2.9139    2.6776    1.6687 C   0  0  0  0  0  0  0  0  0  0  0  0
    3.8211    3.1221   -0.5259 C   0  0  0  0  0  0  0  0  0  0  0  0
    3.9986    2.9965    0.8520 C   0  0  0  0  0  0  0  0  0  0  0  0
  1 15  1  0
  1 16  1  0
  2  7  1  0
  2  9  1  0
  3  8  1  0
  3 10  1  0
  4  9  2  0
  4 10  1  0
  5 10  2  0
  5 15  1  0
  6  9  1  0
  6 15  2  0
  7 11  2  0
  7 12  1  0
  8 13  2  0
  8 14  1  0
 11 17  1  0
 12 18  2  0
 13 19  1  0
 14 20  2  0
 16 23  2  0
 16 24  1  0
 17 21  2  0
 18 21  1  0
 19 22  2  0
 20 22  1  0
 23 25  1  0
 24 26  2  0
 25 27  2  0
 26 27  1  0
M  END
>  <PUBCHEM_COMPOUND_CID>  (1) 
35131

>  <PUBCHEM_CONFORMER_RMSD>  (1) 
0.8

>  <PUBCHEM_CONFORMER_DIVERSEORDER>  (1) 
1
123
65
57
60
92
89
107
31
36
13
29
6
59
113
110
149
66
93
71
56
62
148
104
37
118
53
23
121
45
8
34
74
122
52
77
35
73
43
150
27
38
80
78
129
55
135
54
101
70
39
126
134
98
94
124
87
86
106
120
21
72
22
112
40
85
102
83
127
138
9
116
119
7
79
17
111
100
144
114
61
95
16
147
44
58
105
32
2
64
24
63
19
81
48
67
76
130
47
50
97
133
132
51
145
14
84
108
128
90
69
20
10
140
137
26
75
88
146
4
15
117
143
5
139
12
109
96
18
136
115
68
11
99
125
151
141
103
82
142
49
28
131
46
33
41
42
25
91
3
30

>  <PUBCHEM_MMFF94_PARTIAL_CHARGES>  (1) 
44
1 -0.2
10 0.72
11 -0.15
12 -0.15
13 -0.15
14 -0.15
15 0.72
16 0.1
17 -0.15
18 -0.15
19 -0.15
2 -0.6
20 -0.15
21 -0.15
22 -0.15
23 -0.15
24 -0.15
25 -0.15
26 -0.15
27 -0.15
28 0.4
29 0.4
3 -0.6
30 0.15
31 0.15
32 0.15
33 0.15
34 0.15
35 0.15
36 0.15
37 0.15
38 0.15
39 0.15
4 -0.62
40 0.15
41 0.15
42 0.15
43 0.15
44 0.15
5 -0.62
6 -0.62
7 0.1
8 0.1
9 0.72

>  <PUBCHEM_EFFECTIVE_ROTOR_COUNT>  (1) 
6

>  <PUBCHEM_PHARMACOPHORE_FEATURES>  (1) 
8
1 2 donor
1 3 donor
4 2 4 6 9 cation
4 3 4 5 10 cation
6 16 23 24 25 26 27 rings
6 4 5 6 9 10 15 rings
6 7 11 12 17 18 21 rings
6 8 13 14 19 20 22 rings

>  <PUBCHEM_HEAVY_ATOM_COUNT>  (1) 
27

>  <PUBCHEM_ATOM_DEF_STEREO_COUNT>  (1) 
0

>  <PUBCHEM_ATOM_UDEF_STEREO_COUNT>  (1) 
0

>  <PUBCHEM_BOND_DEF_STEREO_COUNT>  (1) 
0

>  <PUBCHEM_BOND_UDEF_STEREO_COUNT>  (1) 
0

>  <PUBCHEM_ISOTOPIC_ATOM_COUNT>  (1) 
0

>  <PUBCHEM_COMPONENT_COUNT>  (1) 
1

>  <PUBCHEM_CACTVS_TAUTO_COUNT>  (1) 
5

>  <PUBCHEM_CONFORMER_ID>  (1) 
0000893B00000001

>  <PUBCHEM_MMFF94_ENERGY>  (1) 
91.9067

>  <PUBCHEM_FEATURE_SELFOVERLAP>  (1) 
40.641

>  <PUBCHEM_SHAPE_FINGERPRINT>  (1) 
10050765 1 18266459983262750047
10411042 1 18192711146925310522
11186622 174 18409725167171324061
12107183 9 18196660592855669857
12166972 35 18272651230032207643
12516196 113 18339079285433394899
12717326 120 16227753254176550555
12741549 16 17559666249349222338
13533116 47 18343865545437705553
13899415 154 18339091401593931846
14739800 52 17846209020848928305
14849402 71 18409739469027927897
14931854 50 18194430916687253460
14955137 171 18059296448601447750
15420108 30 17985814064109917958
15927050 60 18124596642086652702
16090146 7 17131570400152145583
17980427 23 17702390550783472737
17980427 26 17557401465306522948
20554085 129 17630317769931655880
20642791 105 17753883914385679710
20642791 35 18411705409045782014
20771845 171 17823143482805789797
21033648 29 17312812772462747783
21781055 127 16845032126020839723
22182313 1 17969200331296771445
23352939 185 18341899541516932242
23559900 14 18334858346609907611
24771293 8 18271511075102782410
3411729 13 18341046427973624152
3421961 26 18409446981659650492
350125 39 18410014299626863269
4073 2 18117001181259715379
4093350 32 17632303384055047060
4112364 45 16056016061508589640
469060 322 18123478168251871546
5104073 3 18340498833108411859
513532 50 17632021944087258972
5385378 56 18338801220892566329
552612 73 18114175286042232149
59755656 215 18338519745668208532
67856867 119 18342457050147624787

>  <PUBCHEM_SHAPE_MULTIPOLES>  (1) 
534.59
15.12
4.42
1.04
25.47
1.76
-0.11
-4.33
-0.46
-8.11
-0.56
-1.02
0.56
0.08

>  <PUBCHEM_SHAPE_SELFOVERLAP>  (1) 
1153.1

>  <PUBCHEM_SHAPE_VOLUME>  (1) 
290.4

>  <PUBCHEM_COORDINATE_TYPE>  (1) 
2
5
10

$$$$
