35136
     RDKit          3D

 11 11  0  0  0  0  0  0  0  0999 V2000
    2.0388    0.9729   -0.9944 S   0  0  0  0  0  0  0  0  0  0  0  0
   -2.0074   -0.4317    0.2569 N   0  0  0  0  0  0  0  0  0  0  0  0
   -0.4707    1.3605   -0.1728 N   0  0  0  0  0  0  0  0  0  0  0  0
    0.2250   -0.9156   -0.4784 N   0  0  0  0  0  0  0  0  0  0  0  0
   -1.2986   -2.6460   -0.0514 N   0  0  0  0  0  0  0  0  0  0  0  0
   -2.6584    1.8030    0.5458 N   0  0  0  0  0  0  0  0  0  0  0  0
    3.5121   -0.3463    1.0623 N   0  0  0  0  0  0  0  0  0  0  0  0
   -1.0131   -1.2640   -0.0927 C   0  0  0  0  0  0  0  0  0  0  0  0
   -1.6639    0.8648    0.1930 C   0  0  0  0  0  0  0  0  0  0  0  0
    0.4239    0.4123   -0.4947 C   0  0  0  0  0  0  0  0  0  0  0  0
    2.9125    0.1899    0.2264 C   0  0  0  0  0  0  0  0  0  0  0  0
  1 10  1  0
  1 11  1  0
  2  8  2  0
  2  9  1  0
  3  9  2  0
  3 10  1  0
  4  8  1  0
  4 10  2  0
  5  8  1  0
  6  9  1  0
  7 11  3  0
M  END
>  <PUBCHEM_COMPOUND_CID>  (1) 
35136

>  <PUBCHEM_CONFORMER_RMSD>  (1) 
0.4

>  <PUBCHEM_CONFORMER_DIVERSEORDER>  (1) 
2
1
3

>  <PUBCHEM_MMFF94_PARTIAL_CHARGES>  (1) 
15
1 -0.14
10 0.72
11 0.59
12 0.4
13 0.4
14 0.4
15 0.4
2 -0.62
3 -0.62
4 -0.62
5 -0.9
6 -0.9
7 -0.56
8 0.72
9 0.72

>  <PUBCHEM_EFFECTIVE_ROTOR_COUNT>  (1) 
1

>  <PUBCHEM_PHARMACOPHORE_FEATURES>  (1) 
6
1 5 donor
1 6 donor
1 7 acceptor
4 2 3 6 9 cation
4 2 4 5 8 cation
6 2 3 4 8 9 10 rings

>  <PUBCHEM_HEAVY_ATOM_COUNT>  (1) 
11

>  <PUBCHEM_ATOM_DEF_STEREO_COUNT>  (1) 
0

>  <PUBCHEM_ATOM_UDEF_STEREO_COUNT>  (1) 
0

>  <PUBCHEM_BOND_DEF_STEREO_COUNT>  (1) 
0

>  <PUBCHEM_BOND_UDEF_STEREO_COUNT>  (1) 
0

>  <PUBCHEM_ISOTOPIC_ATOM_COUNT>  (1) 
0

>  <PUBCHEM_COMPONENT_COUNT>  (1) 
1

>  <PUBCHEM_CACTVS_TAUTO_COUNT>  (1) 
5

>  <PUBCHEM_CONFORMER_ID>  (1) 
0000894000000002

>  <PUBCHEM_MMFF94_ENERGY>  (1) 
26.6309

>  <PUBCHEM_FEATURE_SELFOVERLAP>  (1) 
30.489

>  <PUBCHEM_SHAPE_FINGERPRINT>  (1) 
10857977 72 17916030246652774742
12716758 59 18272664415064893166
12932764 1 17749393684865102740
16945 1 18341344382438876839
20645464 45 17917993862909114444
20871998 184 18129667537652050174
21040471 1 18339942427814782573
22445834 79 18186234044052648282
23402539 116 18271793645243139813
23500284 5 18044094781024327442
23552423 10 17683813476623625764
2748010 2 18194986053467278583
369184 2 18410006680328168468

>  <PUBCHEM_SHAPE_MULTIPOLES>  (1) 
200.34
4.33
1.98
0.86
3.03
0.82
0.01
-0.52
-1.31
-1.64
0.03
0.54
-0.08
-0.66

>  <PUBCHEM_SHAPE_SELFOVERLAP>  (1) 
399.273

>  <PUBCHEM_SHAPE_VOLUME>  (1) 
116.5

>  <PUBCHEM_COORDINATE_TYPE>  (1) 
2
5
10

$$$$
