35146
     RDKit          3D

 15 16  0  0  0  0  0  0  0  0999 V2000
   -4.3669    0.5603   -0.0895 O   0  0  0  0  0  0  0  0  0  0  0  0
   -2.8858    2.1724   -0.2528 O   0  0  0  0  0  0  0  0  0  0  0  0
   -3.1777    0.9589   -0.1246 N   0  0  0  0  0  0  0  0  0  0  0  0
    2.4951   -0.9443   -0.4841 N   0  0  0  0  0  0  0  0  0  0  0  0
    1.8593    1.1539    0.4912 N   0  0  0  0  0  0  0  0  0  0  0  0
    4.1584    0.7296   -0.0489 N   0  0  0  0  0  0  0  0  0  0  0  0
    0.2297   -0.5096    0.0552 C   0  0  0  0  0  0  0  0  0  0  0  0
   -0.7994    0.4260   -0.0521 C   0  0  0  0  0  0  0  0  0  0  0  0
   -2.1295    0.0069   -0.0156 C   0  0  0  0  0  0  0  0  0  0  0  0
   -0.0712   -1.8641    0.1991 C   0  0  0  0  0  0  0  0  0  0  0  0
    1.6087   -0.0746    0.0187 C   0  0  0  0  0  0  0  0  0  0  0  0
   -2.4302   -1.3476    0.1282 C   0  0  0  0  0  0  0  0  0  0  0  0
   -1.4011   -2.2831    0.2356 C   0  0  0  0  0  0  0  0  0  0  0  0
    3.7526   -0.4734   -0.4863 C   0  0  0  0  0  0  0  0  0  0  0  0
    3.1580    1.4889    0.4259 C   0  0  0  0  0  0  0  0  0  0  0  0
  1  3  1  0
  2  3  2  0
  3  9  1  0
  4 11  2  0
  4 14  1  0
  5 11  1  0
  5 15  2  0
  6 14  2  0
  6 15  1  0
  7  8  2  0
  7 10  1  0
  7 11  1  0
  8  9  1  0
  9 12  2  0
 10 13  2  0
 12 13  1  0
M  CHG  2   1  -1   3   1
M  END
>  <PUBCHEM_COMPOUND_CID>  (1) 
35146

>  <PUBCHEM_CONFORMER_RMSD>  (1) 
0.6

>  <PUBCHEM_CONFORMER_DIVERSEORDER>  (1) 
1

>  <PUBCHEM_MMFF94_PARTIAL_CHARGES>  (1) 
20
1 -0.52
10 -0.15
11 0.62
12 -0.15
13 -0.15
14 0.47
15 0.47
16 0.15
17 0.15
18 0.15
19 0.15
2 -0.52
20 0.15
21 0.15
3 0.91
4 -0.62
5 -0.62
6 -0.62
8 -0.15
9 0.13

>  <PUBCHEM_EFFECTIVE_ROTOR_COUNT>  (1) 
2

>  <PUBCHEM_PHARMACOPHORE_FEATURES>  (1) 
8
1 1 acceptor
1 1 anion
1 2 acceptor
3 4 5 11 cation
3 4 6 14 cation
3 5 6 15 cation
6 4 5 6 11 14 15 rings
6 7 8 9 10 12 13 rings

>  <PUBCHEM_HEAVY_ATOM_COUNT>  (1) 
15

>  <PUBCHEM_ATOM_DEF_STEREO_COUNT>  (1) 
0

>  <PUBCHEM_ATOM_UDEF_STEREO_COUNT>  (1) 
0

>  <PUBCHEM_BOND_DEF_STEREO_COUNT>  (1) 
0

>  <PUBCHEM_BOND_UDEF_STEREO_COUNT>  (1) 
0

>  <PUBCHEM_ISOTOPIC_ATOM_COUNT>  (1) 
0

>  <PUBCHEM_COMPONENT_COUNT>  (1) 
1

>  <PUBCHEM_CACTVS_TAUTO_COUNT>  (1) 
1

>  <PUBCHEM_CONFORMER_ID>  (1) 
0000894A00000001

>  <PUBCHEM_MMFF94_ENERGY>  (1) 
45.7688

>  <PUBCHEM_FEATURE_SELFOVERLAP>  (1) 
43.46

>  <PUBCHEM_SHAPE_FINGERPRINT>  (1) 
10608611 8 18341330114752925656
10922049 32 18410296887147575659
10922523 26 18342463676828585966
11543360 7 16558738049004239301
12173636 292 18409444786984012757
12346645 44 18335419019977428379
12500047 106 18410290337269623814
12932764 1 17313370249820711828
13380535 76 18412262822179970047
14325111 11 18411136961075188282
14897335 6 18410007723804930195
15219456 202 18271248317329712294
15279308 100 18411141324925471974
15775835 57 18259984855568674106
16945 1 18120940765312308951
18186145 218 18201447947480177618
200 152 17132114658122239302
20201158 50 18202289099882899214
20279233 1 18272656766060578214
20510252 161 18340772649446302947
20645477 56 18409730694150974008
20645477 70 17417820504680574670
21501502 16 18337947991305850986
21524375 3 18336263444876217095
23402539 116 18342166782702862031
23402655 69 18131349691621304716
23557571 272 18198354033318223438
23559900 14 18343303652905854598
25 1 18341049601600787487
2748010 2 18341056314619054758
276578 36 17458343014022023610
3071541 12 17907018374616436619
4028521 119 18336255782833825053
495365 180 17560786750228478312
5104073 3 18410855503594923842
53812653 166 18410573976730445154
6333449 129 18410291449576489143
6430166 295 18336260163531486208
69090 78 18343580759162464023
7364860 26 18266456503869748466
81228 2 18045778159365158019
93112 12 18412546530787224188
9709674 26 18342181110930649926

>  <PUBCHEM_SHAPE_MULTIPOLES>  (1) 
277.03
7.08
2.03
0.65
1.59
0.22
-0.01
-2.77
0.51
-1.14
-0.1
0.15
0.02
0.57

>  <PUBCHEM_SHAPE_SELFOVERLAP>  (1) 
604.142

>  <PUBCHEM_SHAPE_VOLUME>  (1) 
146.2

>  <PUBCHEM_COORDINATE_TYPE>  (1) 
2
5
10

$$$$
