35145
     RDKit          3D

 13 14  0  0  0  0  0  0  0  0999 V2000
    1.7967    1.1999    0.2601 N   0  0  0  0  0  0  0  0  0  0  0  0
    1.7967   -1.1996    0.2609 N   0  0  0  0  0  0  0  0  0  0  0  0
    3.5222   -0.0002   -0.8974 N   0  0  0  0  0  0  0  0  0  0  0  0
    0.0579    0.0003    1.4275 C   0  0  0  0  0  0  0  0  0  0  0  0
   -1.2042    0.0002    0.6328 C   0  0  0  0  0  0  0  0  0  0  0  0
    1.3162    0.0002    0.5827 C   0  0  0  0  0  0  0  0  0  0  0  0
   -1.7944   -1.2079    0.2613 C   0  0  0  0  0  0  0  0  0  0  0  0
   -1.7948    1.2082    0.2614 C   0  0  0  0  0  0  0  0  0  0  0  0
   -2.9749   -1.2082   -0.4816 C   0  0  0  0  0  0  0  0  0  0  0  0
   -2.9755    1.2078   -0.4816 C   0  0  0  0  0  0  0  0  0  0  0  0
   -3.5654   -0.0004   -0.8530 C   0  0  0  0  0  0  0  0  0  0  0  0
    2.9097    1.1220   -0.4869 C   0  0  0  0  0  0  0  0  0  0  0  0
    2.9097   -1.1222   -0.4862 C   0  0  0  0  0  0  0  0  0  0  0  0
  1  6  2  0
  1 12  1  0
  2  6  1  0
  2 13  2  0
  3 12  2  0
  3 13  1  0
  4  5  1  0
  4  6  1  0
  5  7  2  0
  5  8  1  0
  7  9  1  0
  8 10  2  0
  9 11  2  0
 10 11  1  0
M  END
>  <PUBCHEM_COMPOUND_CID>  (1) 
35145

>  <PUBCHEM_CONFORMER_RMSD>  (1) 
0.6

>  <PUBCHEM_CONFORMER_DIVERSEORDER>  (1) 
1
2
3

>  <PUBCHEM_MMFF94_PARTIAL_CHARGES>  (1) 
20
1 -0.62
10 -0.15
11 -0.15
12 0.47
13 0.47
16 0.15
17 0.15
18 0.15
19 0.15
2 -0.62
20 0.15
21 0.15
22 0.15
3 -0.62
4 0.29
5 -0.14
6 0.48
7 -0.15
8 -0.15
9 -0.15

>  <PUBCHEM_EFFECTIVE_ROTOR_COUNT>  (1) 
2

>  <PUBCHEM_PHARMACOPHORE_FEATURES>  (1) 
5
3 1 2 6 cation
3 1 3 12 cation
3 2 3 13 cation
6 1 2 3 6 12 13 rings
6 5 7 8 9 10 11 rings

>  <PUBCHEM_HEAVY_ATOM_COUNT>  (1) 
13

>  <PUBCHEM_ATOM_DEF_STEREO_COUNT>  (1) 
0

>  <PUBCHEM_ATOM_UDEF_STEREO_COUNT>  (1) 
0

>  <PUBCHEM_BOND_DEF_STEREO_COUNT>  (1) 
0

>  <PUBCHEM_BOND_UDEF_STEREO_COUNT>  (1) 
0

>  <PUBCHEM_ISOTOPIC_ATOM_COUNT>  (1) 
0

>  <PUBCHEM_COMPONENT_COUNT>  (1) 
1

>  <PUBCHEM_CACTVS_TAUTO_COUNT>  (1) 
1

>  <PUBCHEM_CONFORMER_ID>  (1) 
0000894900000001

>  <PUBCHEM_MMFF94_ENERGY>  (1) 
31.3312

>  <PUBCHEM_FEATURE_SELFOVERLAP>  (1) 
28.185

>  <PUBCHEM_SHAPE_FINGERPRINT>  (1) 
11031198 65 16371005170198195737
11127187 94 18060135444951243887
11715629 250 18113327613768319861
12382932 28 8646772196425481751
12696612 119 9367338249874662770
12897270 3 18410855507404450705
12932764 1 18411140237998020475
13296908 3 15913322477078714393
13705890 14 18131354115912048332
13764800 53 15792025454109843633
14250199 8 18261117416896297277
15775835 57 17458340810561252221
18186145 218 17603585201215571643
18522851 268 18343584053138337455
20201158 50 17989207014589407439
20279233 1 17560788944429499026
20281407 28 14117526423737568216
20361792 2 15697997444310701377
20645464 45 11458418021032641609
20653085 51 18186804638974133265
20671657 53 17703514324470545984
20711985 344 16414648033673625153
20871999 31 18336819909851125399
21119208 17 18410292501621735903
22169311 14 9367077656886208533
22802520 49 18411702101498802097
230 275 14851597761298944170
23402539 116 17894343385213002820
23402655 69 18335984172938239188
23559900 14 17987790814212608282
25 1 17749958756205060650
2748010 2 17257652751180291747
3082319 5 18410293601106996263
4028521 119 17822283570429134797
528716 315 18334859450210774295
8030462 33 18411135827024428843
81228 2 15553340098080902835
93112 12 18410855455864849693

>  <PUBCHEM_SHAPE_MULTIPOLES>  (1) 
252.59
6.38
1.46
1.03
0.78
0
-0.14
0
2.57
-0.15
0.11
0.02
0
0

>  <PUBCHEM_SHAPE_SELFOVERLAP>  (1) 
540.947

>  <PUBCHEM_SHAPE_VOLUME>  (1) 
135.2

>  <PUBCHEM_COORDINATE_TYPE>  (1) 
2
5
10

$$$$
