35151
     RDKit          3D

 15 15  0  0  0  0  0  0  0  0999 V2000
    2.7659    1.8753    1.4623 Cl  0  0  0  0  0  0  0  0  0  0  0  0
    2.7649    1.8745   -1.4642 Cl  0  0  0  0  0  0  0  0  0  0  0  0
   -2.4263    1.4134   -1.4981 S   0  0  0  0  0  0  0  0  0  0  0  0
   -2.4259    1.4153    1.4968 S   0  0  0  0  0  0  0  0  0  0  0  0
    0.2831    0.6165    0.0001 N   0  0  0  0  0  0  0  0  0  0  0  0
   -0.7113   -1.5673    0.0008 N   0  0  0  0  0  0  0  0  0  0  0  0
    1.6771   -1.3366    0.0005 N   0  0  0  0  0  0  0  0  0  0  0  0
   -2.1196    0.3923   -0.0001 C   0  0  0  0  0  0  0  0  0  0  0  0
   -0.7415   -0.2353    0.0004 C   0  0  0  0  0  0  0  0  0  0  0  0
    1.4709   -0.0097    0.0000 C   0  0  0  0  0  0  0  0  0  0  0  0
    0.5409   -2.0522    0.0008 C   0  0  0  0  0  0  0  0  0  0  0  0
    2.6844    0.8564   -0.0006 C   0  0  0  0  0  0  0  0  0  0  0  0
    0.6842   -3.5361    0.0010 C   0  0  0  0  0  0  0  0  0  0  0  0
   -2.2236    0.1451   -2.7742 C   0  0  0  0  0  0  0  0  0  0  0  0
   -2.2233    0.1485    2.7744 C   0  0  0  0  0  0  0  0  0  0  0  0
  1 12  1  0
  2 12  1  0
  3  8  1  0
  3 14  1  0
  4  8  1  0
  4 15  1  0
  5  9  2  0
  5 10  1  0
  6  9  1  0
  6 11  2  0
  7 10  2  0
  7 11  1  0
  8  9  1  0
 10 12  1  0
 11 13  1  0
M  END
>  <PUBCHEM_COMPOUND_CID>  (1) 
35151

>  <PUBCHEM_CONFORMER_RMSD>  (1) 
0.6

>  <PUBCHEM_CONFORMER_DIVERSEORDER>  (1) 
1
97
127
71
93
118
19
128
116
17
92
77
12
6
110
119
114
126
2
115
57
32
121
94
15
129
58
53
106
66
68
125
123
52
89
104
120
3
96
107
63
111
11
70
84
25
101
24
88
40
124
113
8
62
130
90
100
75
85
47
122
51
54
117
102
14
33
109
103
16
99
10
59
44
87
91
80
98
55
112
61
22
105
28
69
7
74
72
9
56
95
73
83
79
65
60
48
35
26
82
81
27
34
108
43
67
38
86
29
78
37
42
13
76
41
64
18
50
30
39
46
5
49
31
45
23
21
20
36
4

>  <PUBCHEM_MMFF94_PARTIAL_CHARGES>  (1) 
15
1 -0.29
10 0.48
11 0.48
12 0.72
13 0.14
14 0.23
15 0.23
2 -0.29
3 -0.46
4 -0.46
5 -0.62
6 -0.62
7 -0.62
8 0.6
9 0.48

>  <PUBCHEM_EFFECTIVE_ROTOR_COUNT>  (1) 
4

>  <PUBCHEM_PHARMACOPHORE_FEATURES>  (1) 
6
1 14 hydrophobe
1 15 hydrophobe
3 5 6 9 cation
3 5 7 10 cation
3 6 7 11 cation
6 5 6 7 9 10 11 rings

>  <PUBCHEM_HEAVY_ATOM_COUNT>  (1) 
15

>  <PUBCHEM_ATOM_DEF_STEREO_COUNT>  (1) 
0

>  <PUBCHEM_ATOM_UDEF_STEREO_COUNT>  (1) 
0

>  <PUBCHEM_BOND_DEF_STEREO_COUNT>  (1) 
0

>  <PUBCHEM_BOND_UDEF_STEREO_COUNT>  (1) 
0

>  <PUBCHEM_ISOTOPIC_ATOM_COUNT>  (1) 
0

>  <PUBCHEM_COMPONENT_COUNT>  (1) 
1

>  <PUBCHEM_CACTVS_TAUTO_COUNT>  (1) 
1

>  <PUBCHEM_CONFORMER_ID>  (1) 
0000894F00000001

>  <PUBCHEM_MMFF94_ENERGY>  (1) 
25.8983

>  <PUBCHEM_FEATURE_SELFOVERLAP>  (1) 
33.256

>  <PUBCHEM_SHAPE_FINGERPRINT>  (1) 
12423570 1 13601790904114794606
13898156 1 17201909333003050763
14817 1 17121469337161320931
15309172 13 18263664989585147257
15852999 172 18043785693744581171
16945 1 18194401078615770370
17357990 137 16770997493214930041
18219364 16 18335710407527752664
18380122 1 17750541553381711225
19765921 60 17915151676822524713
20379382 53 17976289883313946611
20510252 161 17911797191394840434
20600515 1 17042318909534841050
21061003 4 17686643250313142123
21524375 3 18200890533729213730
21947302 44 17606101906191133365
228727 97 17631716253852584229
22959321 28 16952264350328354988
23493267 7 17023188163247082388
23557571 272 17480022338416975196
23598291 2 17772754866438417205
2748010 2 18335421283351645806
68419 9 17345745266605582223
81228 2 17761783157853986474

>  <PUBCHEM_SHAPE_MULTIPOLES>  (1) 
305.19
4.55
2.88
2.33
0.93
2.93
0
-3.34
0
1.66
0
-2.25
-1.12
0

>  <PUBCHEM_SHAPE_SELFOVERLAP>  (1) 
564.159

>  <PUBCHEM_SHAPE_VOLUME>  (1) 
195.6

>  <PUBCHEM_COORDINATE_TYPE>  (1) 
2
5
10

$$$$
