35165
     RDKit          3D

 16 16  0  0  0  0  0  0  0  0999 V2000
    3.5136    0.1798    0.0646 F   0  0  0  0  0  0  0  0  0  0  0  0
    2.5731    1.6488   -1.2244 F   0  0  0  0  0  0  0  0  0  0  0  0
    2.5542    1.9278    0.9322 F   0  0  0  0  0  0  0  0  0  0  0  0
   -3.5136    0.1799    0.0648 F   0  0  0  0  0  0  0  0  0  0  0  0
   -2.5735    1.9361    0.9226 F   0  0  0  0  0  0  0  0  0  0  0  0
   -2.5537    1.6382   -1.2314 F   0  0  0  0  0  0  0  0  0  0  0  0
   -1.1998   -1.0850    0.2344 N   0  0  0  0  0  0  0  0  0  0  0  0
    1.1998   -1.0851    0.2344 N   0  0  0  0  0  0  0  0  0  0  0  0
    0.0000    0.9746   -0.0410 N   0  0  0  0  0  0  0  0  0  0  0  0
    0.0000   -3.1606    0.5117 C   0  0  0  0  0  0  0  0  0  0  0  0
    0.0000   -1.6828    0.3143 C   0  0  0  0  0  0  0  0  0  0  0  0
   -1.1221    0.2437    0.0567 C   0  0  0  0  0  0  0  0  0  0  0  0
    1.1221    0.2436    0.0566 C   0  0  0  0  0  0  0  0  0  0  0  0
   -0.0001   -3.9236   -0.8106 C   0  0  0  0  0  0  0  0  0  0  0  0
    2.4132    0.9824   -0.0425 C   0  0  0  0  0  0  0  0  0  0  0  0
   -2.4131    0.9825   -0.0425 C   0  0  0  0  0  0  0  0  0  0  0  0
  1 15  1  0
  2 15  1  0
  3 15  1  0
  4 16  1  0
  5 16  1  0
  6 16  1  0
  7 11  2  0
  7 12  1  0
  8 11  1  0
  8 13  2  0
  9 12  2  0
  9 13  1  0
 10 11  1  0
 10 14  1  0
 12 16  1  0
 13 15  1  0
M  END
>  <PUBCHEM_COMPOUND_CID>  (1) 
35165

>  <PUBCHEM_CONFORMER_RMSD>  (1) 
0.6

>  <PUBCHEM_CONFORMER_DIVERSEORDER>  (1) 
1

>  <PUBCHEM_MMFF94_PARTIAL_CHARGES>  (1) 
15
1 -0.34
10 0.14
11 0.48
12 0.48
13 0.48
15 1.16
16 1.16
2 -0.34
3 -0.34
4 -0.34
5 -0.34
6 -0.34
7 -0.62
8 -0.62
9 -0.62

>  <PUBCHEM_EFFECTIVE_ROTOR_COUNT>  (1) 
3

>  <PUBCHEM_PHARMACOPHORE_FEATURES>  (1) 
5
1 14 hydrophobe
3 7 8 11 cation
3 7 9 12 cation
3 8 9 13 cation
6 7 8 9 11 12 13 rings

>  <PUBCHEM_HEAVY_ATOM_COUNT>  (1) 
16

>  <PUBCHEM_ATOM_DEF_STEREO_COUNT>  (1) 
0

>  <PUBCHEM_ATOM_UDEF_STEREO_COUNT>  (1) 
0

>  <PUBCHEM_BOND_DEF_STEREO_COUNT>  (1) 
0

>  <PUBCHEM_BOND_UDEF_STEREO_COUNT>  (1) 
0

>  <PUBCHEM_ISOTOPIC_ATOM_COUNT>  (1) 
0

>  <PUBCHEM_COMPONENT_COUNT>  (1) 
1

>  <PUBCHEM_CACTVS_TAUTO_COUNT>  (1) 
3

>  <PUBCHEM_CONFORMER_ID>  (1) 
0000895D00000001

>  <PUBCHEM_MMFF94_ENERGY>  (1) 
14.357

>  <PUBCHEM_FEATURE_SELFOVERLAP>  (1) 
28.144

>  <PUBCHEM_SHAPE_FINGERPRINT>  (1) 
1 1 18337951177760050166
12553582 1 17041763085217312107
13380535 76 18334857199453024843
14648413 74 17974569092077392361
16945 1 17846778502998829796
20510252 161 18197782308714831657
20645476 183 18114476655317474158
20645477 70 18192703441995951295
20711985 344 17904763632750114842
20871998 184 18049737496220259315
21028194 46 18334575741471553913
21524375 3 18335137600524290226
2334 1 18409166640332863899
23402539 116 18054216911055740831
23419403 2 12953161201961201001
23530152 11 18411136952512056295
23552423 10 18195809557616895251
23557571 272 17766286757602708700
257057 1 17259615375252135226
2748010 2 18336274491199747567
305870 269 18337950069674214664
3060560 45 18336539409277823822
3071541 236 18119229903813075714
3071541 250 17475247798776976990
4175511 71 17188704043734612563
458136 41 18194147173202697705
7364860 26 18124595275817449835
81228 2 17832422368653662811

>  <PUBCHEM_SHAPE_MULTIPOLES>  (1) 
270.69
4.3
3.65
0.87
0
4.68
0.13
-3.88
0.15
0
0.42
0
-0.13
0

>  <PUBCHEM_SHAPE_SELFOVERLAP>  (1) 
565.597

>  <PUBCHEM_SHAPE_VOLUME>  (1) 
154.2

>  <PUBCHEM_COORDINATE_TYPE>  (1) 
2
5
10

$$$$
