35174
     RDKit          3D

 14 14  0  0  0  0  0  0  0  0999 V2000
    2.4766   -1.5935   -1.4662 Cl  0  0  0  0  0  0  0  0  0  0  0  0
    3.6372    0.5983    0.0019 Cl  0  0  0  0  0  0  0  0  0  0  0  0
    2.4686   -1.6003    1.4604 Cl  0  0  0  0  0  0  0  0  0  0  0  0
   -3.6735   -0.4991   -0.0123 O   0  0  0  0  0  0  0  0  0  0  0  0
    0.8406    1.4067    0.0004 N   0  0  0  0  0  0  0  0  0  0  0  0
   -0.1584   -0.7750    0.0018 N   0  0  0  0  0  0  0  0  0  0  0  0
   -1.5483    1.1812    0.0023 N   0  0  0  0  0  0  0  0  0  0  0  0
   -2.3447   -2.3680    0.0037 N   0  0  0  0  0  0  0  0  0  0  0  0
    0.8893    0.0648    0.0006 C   0  0  0  0  0  0  0  0  0  0  0  0
   -0.4105    1.8943    0.0012 C   0  0  0  0  0  0  0  0  0  0  0  0
   -1.3449   -0.1463    0.0025 C   0  0  0  0  0  0  0  0  0  0  0  0
    2.2451   -0.5560   -0.0006 C   0  0  0  0  0  0  0  0  0  0  0  0
   -0.5507    3.3787    0.0005 C   0  0  0  0  0  0  0  0  0  0  0  0
   -2.5265   -0.9858    0.0035 C   0  0  0  0  0  0  0  0  0  0  0  0
  1 12  1  0
  2 12  1  0
  3 12  1  0
  4 14  2  0
  5  9  2  0
  5 10  1  0
  6  9  1  0
  6 11  2  0
  7 10  2  0
  7 11  1  0
  8 14  1  0
  9 12  1  0
 10 13  1  0
 11 14  1  0
M  END
>  <PUBCHEM_COMPOUND_CID>  (1) 
35174

>  <PUBCHEM_CONFORMER_RMSD>  (1) 
0.6

>  <PUBCHEM_CONFORMER_DIVERSEORDER>  (1) 
1
7
4
6
2
8
3
5

>  <PUBCHEM_MMFF94_PARTIAL_CHARGES>  (1) 
16
1 -0.29
10 0.48
11 0.71
12 1.01
13 0.14
14 0.54
18 0.37
19 0.37
2 -0.29
3 -0.29
4 -0.57
5 -0.62
6 -0.62
7 -0.62
8 -0.8
9 0.48

>  <PUBCHEM_EFFECTIVE_ROTOR_COUNT>  (1) 
2

>  <PUBCHEM_PHARMACOPHORE_FEATURES>  (1) 
6
1 4 acceptor
1 8 donor
3 5 6 9 cation
3 5 7 10 cation
3 6 7 11 cation
6 5 6 7 9 10 11 rings

>  <PUBCHEM_HEAVY_ATOM_COUNT>  (1) 
14

>  <PUBCHEM_ATOM_DEF_STEREO_COUNT>  (1) 
0

>  <PUBCHEM_ATOM_UDEF_STEREO_COUNT>  (1) 
0

>  <PUBCHEM_BOND_DEF_STEREO_COUNT>  (1) 
0

>  <PUBCHEM_BOND_UDEF_STEREO_COUNT>  (1) 
0

>  <PUBCHEM_ISOTOPIC_ATOM_COUNT>  (1) 
0

>  <PUBCHEM_COMPONENT_COUNT>  (1) 
1

>  <PUBCHEM_CACTVS_TAUTO_COUNT>  (1) 
2

>  <PUBCHEM_CONFORMER_ID>  (1) 
0000896600000001

>  <PUBCHEM_MMFF94_ENERGY>  (1) 
26.4265

>  <PUBCHEM_FEATURE_SELFOVERLAP>  (1) 
33.219

>  <PUBCHEM_SHAPE_FINGERPRINT>  (1) 
1 1 17473544028432337957
12716758 59 17909271282383595030
12932764 1 17825118016989996388
13538477 17 18044092345983098352
14022347 108 18264230052968504667
14252887 29 18270975633819013714
15375462 189 18187645846710179123
16945 1 18050568434931748896
17990270 104 18196940087314256511
18380122 1 18130779045550407138
193761 8 17402048899348511239
20510252 161 18199186191748067497
20645476 183 17539993679439857742
20645477 70 17835797874348016135
20711985 344 18194415397909978911
20711985 365 18264764350894141138
20871998 184 18201152157245672268
20871998 22 18341905103214828063
21501502 16 18265896865567616840
22213442 358 18268149940490710343
22802520 49 17913780418345188118
23402539 116 18339353167313815998
23552423 10 18187930650212476389
23557571 272 18341618083867842100
23559900 14 18197777705222254486
23598294 1 18192436277006395225
2748010 2 18411975866962022861
3312278 4 18260829327643278058
34934 24 18338790212521913399
5902787 121 18262794206546357819
7364860 26 17981609586957618241
74978 22 17977102358330510132
8030462 33 17822867368201296138
81228 2 18338805489815771361
88987 49 18049159961005826022

>  <PUBCHEM_SHAPE_MULTIPOLES>  (1) 
267.93
5.06
2.86
0.95
0.5
1.9
0
-2.25
-0.01
-1.34
0
0.93
-0.5
0

>  <PUBCHEM_SHAPE_SELFOVERLAP>  (1) 
525.671

>  <PUBCHEM_SHAPE_VOLUME>  (1) 
159.8

>  <PUBCHEM_COORDINATE_TYPE>  (1) 
2
5
10

$$$$
