35199
     RDKit          3D

 25 27  0  0  0  0  0  0  0  0999 V2000
    4.8375    3.2592   -0.0536 O   0  0  0  0  0  0  0  0  0  0  0  0
   -4.8471    3.2512   -0.0549 O   0  0  0  0  0  0  0  0  0  0  0  0
    2.7158    3.2741   -0.6167 O   0  0  0  0  0  0  0  0  0  0  0  0
   -2.7250    3.2711   -0.6166 O   0  0  0  0  0  0  0  0  0  0  0  0
    0.0032   -0.7482    0.1527 N   0  0  0  0  0  0  0  0  0  0  0  0
   -1.1941   -2.7602   -0.3730 N   0  0  0  0  0  0  0  0  0  0  0  0
    1.2054   -2.7572   -0.3729 N   0  0  0  0  0  0  0  0  0  0  0  0
    3.7415    2.6711   -0.2183 N   0  0  0  0  0  0  0  0  0  0  0  0
   -3.7496    2.6656   -0.2190 N   0  0  0  0  0  0  0  0  0  0  0  0
    2.3720   -0.7624    0.1470 C   0  0  0  0  0  0  0  0  0  0  0  0
   -2.3658   -0.7679    0.1467 C   0  0  0  0  0  0  0  0  0  0  0  0
    1.1197   -1.4640   -0.0347 C   0  0  0  0  0  0  0  0  0  0  0  0
   -1.1180   -1.4631   -0.0337 C   0  0  0  0  0  0  0  0  0  0  0  0
    2.4519    0.6041   -0.1211 C   0  0  0  0  0  0  0  0  0  0  0  0
   -2.4550    0.6018   -0.1208 C   0  0  0  0  0  0  0  0  0  0  0  0
    3.4998   -1.4532    0.5905 C   0  0  0  0  0  0  0  0  0  0  0  0
   -3.4981   -1.4579    0.5911 C   0  0  0  0  0  0  0  0  0  0  0  0
    3.6594    1.2798    0.0544 C   0  0  0  0  0  0  0  0  0  0  0  0
   -3.6642    1.2747    0.0541 C   0  0  0  0  0  0  0  0  0  0  0  0
    0.0064   -3.3421   -0.5253 C   0  0  0  0  0  0  0  0  0  0  0  0
    4.7073   -0.7775    0.7659 C   0  0  0  0  0  0  0  0  0  0  0  0
   -4.7074   -0.7850    0.7662 C   0  0  0  0  0  0  0  0  0  0  0  0
    4.7870    0.5890    0.4979 C   0  0  0  0  0  0  0  0  0  0  0  0
   -4.7904    0.5813    0.4976 C   0  0  0  0  0  0  0  0  0  0  0  0
    0.0079   -4.7843   -0.9037 C   0  0  0  0  0  0  0  0  0  0  0  0
  1  8  1  0
  2  9  1  0
  3  8  2  0
  4  9  2  0
  5 12  2  0
  5 13  1  0
  6 13  2  0
  6 20  1  0
  7 12  1  0
  7 20  2  0
  8 18  1  0
  9 19  1  0
 10 12  1  0
 10 14  2  0
 10 16  1  0
 11 13  1  0
 11 15  2  0
 11 17  1  0
 14 18  1  0
 15 19  1  0
 16 21  2  0
 17 22  2  0
 18 23  2  0
 19 24  2  0
 20 25  1  0
 21 23  1  0
 22 24  1  0
M  CHG  4   1  -1   2  -1   8   1   9   1
M  END
>  <PUBCHEM_COMPOUND_CID>  (1) 
35199

>  <PUBCHEM_CONFORMER_RMSD>  (1) 
0.8

>  <PUBCHEM_CONFORMER_DIVERSEORDER>  (1) 
1
17
7
8
19
5
4
18
6
14
13
12
3
15
11
2
16
9
10

>  <PUBCHEM_MMFF94_PARTIAL_CHARGES>  (1) 
31
1 -0.52
12 0.62
13 0.62
14 -0.15
15 -0.15
16 -0.15
17 -0.15
18 0.13
19 0.13
2 -0.52
20 0.48
21 -0.15
22 -0.15
23 -0.15
24 -0.15
25 0.14
26 0.15
27 0.15
28 0.15
29 0.15
3 -0.52
30 0.15
31 0.15
32 0.15
33 0.15
4 -0.52
5 -0.62
6 -0.62
7 -0.62
8 0.91
9 0.91

>  <PUBCHEM_EFFECTIVE_ROTOR_COUNT>  (1) 
4

>  <PUBCHEM_PHARMACOPHORE_FEATURES>  (1) 
12
1 1 acceptor
1 1 anion
1 2 acceptor
1 2 anion
1 3 acceptor
1 4 acceptor
3 5 6 13 cation
3 5 7 12 cation
3 6 7 20 cation
6 10 14 16 18 21 23 rings
6 11 15 17 19 22 24 rings
6 5 6 7 12 13 20 rings

>  <PUBCHEM_HEAVY_ATOM_COUNT>  (1) 
25

>  <PUBCHEM_ATOM_DEF_STEREO_COUNT>  (1) 
0

>  <PUBCHEM_ATOM_UDEF_STEREO_COUNT>  (1) 
0

>  <PUBCHEM_BOND_DEF_STEREO_COUNT>  (1) 
0

>  <PUBCHEM_BOND_UDEF_STEREO_COUNT>  (1) 
0

>  <PUBCHEM_ISOTOPIC_ATOM_COUNT>  (1) 
0

>  <PUBCHEM_COMPONENT_COUNT>  (1) 
1

>  <PUBCHEM_CACTVS_TAUTO_COUNT>  (1) 
1

>  <PUBCHEM_CONFORMER_ID>  (1) 
0000897F00000001

>  <PUBCHEM_MMFF94_ENERGY>  (1) 
80.2214

>  <PUBCHEM_FEATURE_SELFOVERLAP>  (1) 
63.843

>  <PUBCHEM_SHAPE_FINGERPRINT>  (1) 
10670039 82 18262251022438751580
10871710 139 17545047464372603548
1100329 8 17257377869575226119
11513181 2 18343588468665639014
12107183 9 18337378384691295658
12173636 292 18269267031520265150
12403259 118 18337098003955234299
12403260 363 18338784676393854679
12769317 202 18199739246260005305
12925494 130 18266737987885118241
12978246 48 18410009961609771632
13583140 156 17531507828837967218
13590594 115 16899348832685925811
138480 1 17763465010853809550
14251764 38 18408322159800454089
14466204 15 18265044731144873602
1454969 45 18269558407261976871
14790565 3 18412267263149442592
14950920 106 17458335386096737906
15320467 1 15816220606590129900
15927050 60 14232087212175544406
16760501 71 18266748983096003777
20101258 96 17400651913553653626
20715895 44 18194396685138975193
21033648 144 18114169818458939997
21033648 29 18129639951535674186
21315764 268 18261387828211164117
21709351 56 18340481158342373695
21734292 116 18266459999809610144
21860390 5 17839740365971572415
21864079 5 18410852170235960748
23227448 37 18197219358808999814
23559900 14 17980198591543657283
245318 6 17896336872228967324
474 4 18269272366027564331
474144 1 17387994206840526773
5081480 168 17270065816519634455
5104073 3 18187365423842057929
6371009 1 18339903983551946837
7808743 9 18124032592558137560
9709674 26 18122347879052358583
9981440 41 18410571765149797187

>  <PUBCHEM_SHAPE_MULTIPOLES>  (1) 
466.11
10.95
5.1
0.78
0.05
0.78
0.03
-9.54
2.21
-0.02
-1.84
0
0.21
0.01

>  <PUBCHEM_SHAPE_SELFOVERLAP>  (1) 
1028.865

>  <PUBCHEM_SHAPE_VOLUME>  (1) 
246.8

>  <PUBCHEM_COORDINATE_TYPE>  (1) 
2
5
10

$$$$
