35197
     RDKit          3D

 20 21  0  0  0  0  0  0  0  0999 V2000
    1.5324   -3.3494   -1.5872 Cl  0  0  0  0  0  0  0  0  0  0  0  0
    3.7536   -2.3115   -0.0720 Cl  0  0  0  0  0  0  0  0  0  0  0  0
    1.5093   -3.4533    1.3375 Cl  0  0  0  0  0  0  0  0  0  0  0  0
    1.5996    3.3264    1.5894 Cl  0  0  0  0  0  0  0  0  0  0  0  0
    3.8055    2.2401    0.0859 Cl  0  0  0  0  0  0  0  0  0  0  0  0
    1.5965    3.4349   -1.3352 Cl  0  0  0  0  0  0  0  0  0  0  0  0
   -0.0966    1.2079    0.0384 N   0  0  0  0  0  0  0  0  0  0  0  0
   -0.1240   -1.1899   -0.0494 N   0  0  0  0  0  0  0  0  0  0  0  0
    1.9676   -0.0150    0.0009 N   0  0  0  0  0  0  0  0  0  0  0  0
   -4.2311   -1.0556    0.5730 N   0  0  0  0  0  0  0  0  0  0  0  0
   -0.7088    0.0160   -0.0074 C   0  0  0  0  0  0  0  0  0  0  0  0
   -2.1526    0.0325   -0.0106 C   0  0  0  0  0  0  0  0  0  0  0  0
    1.2429    1.1148    0.0395 C   0  0  0  0  0  0  0  0  0  0  0  0
    1.2173   -1.1278   -0.0425 C   0  0  0  0  0  0  0  0  0  0  0  0
    1.9487   -2.4261   -0.0863 C   0  0  0  0  0  0  0  0  0  0  0  0
    2.0037    2.3959    0.0896 C   0  0  0  0  0  0  0  0  0  0  0  0
   -2.8564    1.0937   -0.5693 C   0  0  0  0  0  0  0  0  0  0  0  0
   -2.8803   -1.0085    0.5428 C   0  0  0  0  0  0  0  0  0  0  0  0
   -4.2467    1.0814   -0.5574 C   0  0  0  0  0  0  0  0  0  0  0  0
   -4.8808   -0.0065    0.0205 C   0  0  0  0  0  0  0  0  0  0  0  0
  1 15  1  0
  2 15  1  0
  3 15  1  0
  4 16  1  0
  5 16  1  0
  6 16  1  0
  7 11  2  0
  7 13  1  0
  8 11  1  0
  8 14  2  0
  9 13  2  0
  9 14  1  0
 10 18  2  0
 10 20  1  0
 11 12  1  0
 12 17  2  0
 12 18  1  0
 13 16  1  0
 14 15  1  0
 17 19  1  0
 19 20  2  0
M  END
>  <PUBCHEM_COMPOUND_CID>  (1) 
35197

>  <PUBCHEM_CONFORMER_RMSD>  (1) 
0.6

>  <PUBCHEM_CONFORMER_DIVERSEORDER>  (1) 
1
9
12
3
6
11
10
5
4
2
7
8

>  <PUBCHEM_MMFF94_PARTIAL_CHARGES>  (1) 
23
1 -0.29
10 -0.62
11 0.62
13 0.48
14 0.48
15 1.01
16 1.01
17 -0.15
18 0.16
19 -0.15
2 -0.29
20 0.16
21 0.15
22 0.15
23 0.15
24 0.15
3 -0.29
4 -0.29
5 -0.29
6 -0.29
7 -0.62
8 -0.62
9 -0.62

>  <PUBCHEM_EFFECTIVE_ROTOR_COUNT>  (1) 
3

>  <PUBCHEM_PHARMACOPHORE_FEATURES>  (1) 
6
1 10 acceptor
3 7 8 11 cation
3 7 9 13 cation
3 8 9 14 cation
6 10 12 17 18 19 20 rings
6 7 8 9 11 13 14 rings

>  <PUBCHEM_HEAVY_ATOM_COUNT>  (1) 
20

>  <PUBCHEM_ATOM_DEF_STEREO_COUNT>  (1) 
0

>  <PUBCHEM_ATOM_UDEF_STEREO_COUNT>  (1) 
0

>  <PUBCHEM_BOND_DEF_STEREO_COUNT>  (1) 
0

>  <PUBCHEM_BOND_UDEF_STEREO_COUNT>  (1) 
0

>  <PUBCHEM_ISOTOPIC_ATOM_COUNT>  (1) 
0

>  <PUBCHEM_COMPONENT_COUNT>  (1) 
1

>  <PUBCHEM_CACTVS_TAUTO_COUNT>  (1) 
1

>  <PUBCHEM_CONFORMER_ID>  (1) 
0000897D00000001

>  <PUBCHEM_MMFF94_ENERGY>  (1) 
44.3091

>  <PUBCHEM_FEATURE_SELFOVERLAP>  (1) 
33.226

>  <PUBCHEM_SHAPE_FINGERPRINT>  (1) 
10608611 8 18334571344100302077
11578080 2 16951952965056554902
116883 192 17622728613446392790
12160290 23 17261050225125435482
12173636 292 17689434205766328117
12553582 1 17905899071668714499
12592029 89 18337111280025992464
12707595 3 18265899051532384343
12730499 353 18339648961790352977
12788726 201 17542228956361920202
13134695 92 18130493137767053101
13140716 1 18267013049799363864
13533116 47 18413670215245348625
13681431 1 18268721523465455602
138480 1 18337390422808970220
13955234 65 18412545444382070923
14022347 108 17691141339608299815
14252887 29 18057604261383412974
14955137 171 18273217469767599070
15230672 131 18049158067765187800
15442244 35 18195810670050725113
15502722 9 18410014351166003053
15927050 60 18195807595334351358
1813 80 17629776581886238254
18186145 218 17700705218085270777
18785283 64 18334018332099622040
19591789 44 17979920732638609798
20369508 70 18262792948511362411
20600515 1 17323478953536880456
20645477 70 18412540999112297583
20671657 1 18343018917299867009
20671657 53 18194404390199157419
21041028 32 18199750245518717552
21049683 271 18262252040171439908
21524375 3 18124317365652733570
221490 88 18335709342597753643
2255824 54 18411985775266848062
23366157 5 18113901554442532239
23419403 2 17897702315810234252
23557571 272 17765147268540797326
23559900 14 18333445444024472397
2748010 2 18049736401024340542
3060560 45 18339081596394585604
3091708 16 9649464133200186690
314173 41 18265059024606493943
352729 6 17760370289659405388
3886686 26 16243748506776962770
458136 41 18193577767924226809
5104073 3 18335707131221983161
59755656 215 18334857251029438765
6138700 20 18410017620422131486
6443956 14 18339644443221214632
7364860 26 18413108359464024324
7808743 9 17328302961793509928
81228 2 17477203825815055138
81539 233 18336264647144981988
8272917 22 18412550911738262181
84936 182 18272652393552230505
9709674 26 18334016125056423603
9841814 1 18189897517632719003

>  <PUBCHEM_SHAPE_MULTIPOLES>  (1) 
402.89
7.38
4.8
1.15
9.4
0.13
0
-0.14
0.03
-6.39
-0.01
-0.52
0
0.63

>  <PUBCHEM_SHAPE_SELFOVERLAP>  (1) 
800.526

>  <PUBCHEM_SHAPE_VOLUME>  (1) 
234.1

>  <PUBCHEM_COORDINATE_TYPE>  (1) 
2
5
10

$$$$
