35200
     RDKit          3D

 14 14  0  0  0  0  0  0  0  0999 V2000
    3.1128   -0.8442   -1.2833 Cl  0  0  0  0  0  0  0  0  0  0  0  0
    3.0697    1.6315    0.1917 Cl  0  0  0  0  0  0  0  0  0  0  0  0
    2.7360   -0.8541    1.6189 Cl  0  0  0  0  0  0  0  0  0  0  0  0
   -1.8488    0.0070   -0.4390 N   0  0  0  0  0  0  0  0  0  0  0  0
    0.2137    1.2048   -0.1762 N   0  0  0  0  0  0  0  0  0  0  0  0
    0.2113   -1.1948   -0.1755 N   0  0  0  0  0  0  0  0  0  0  0  0
   -1.8590   -2.4063   -0.4394 C   0  0  0  0  0  0  0  0  0  0  0  0
   -1.8541    2.4202   -0.4413 C   0  0  0  0  0  0  0  0  0  0  0  0
   -1.1183   -1.1159   -0.3453 C   0  0  0  0  0  0  0  0  0  0  0  0
   -1.1161    1.1284   -0.3461 C   0  0  0  0  0  0  0  0  0  0  0  0
    0.8107    0.0045   -0.0996 C   0  0  0  0  0  0  0  0  0  0  0  0
   -2.3266   -2.9088    0.9242 C   0  0  0  0  0  0  0  0  0  0  0  0
   -2.3209    2.9247    0.9220 C   0  0  0  0  0  0  0  0  0  0  0  0
    2.2896    0.0031    0.0888 C   0  0  0  0  0  0  0  0  0  0  0  0
  1 14  1  0
  2 14  1  0
  3 14  1  0
  4  9  2  0
  4 10  1  0
  5 10  2  0
  5 11  1  0
  6  9  1  0
  6 11  2  0
  7  9  1  0
  7 12  1  0
  8 10  1  0
  8 13  1  0
 11 14  1  0
M  END
>  <PUBCHEM_COMPOUND_CID>  (1) 
35200

>  <PUBCHEM_CONFORMER_RMSD>  (1) 
0.6

>  <PUBCHEM_CONFORMER_DIVERSEORDER>  (1) 
1
7
6
3
5
4
8
2

>  <PUBCHEM_MMFF94_PARTIAL_CHARGES>  (1) 
12
1 -0.29
10 0.48
11 0.48
14 1.01
2 -0.29
3 -0.29
4 -0.62
5 -0.62
6 -0.62
7 0.14
8 0.14
9 0.48

>  <PUBCHEM_EFFECTIVE_ROTOR_COUNT>  (1) 
3

>  <PUBCHEM_PHARMACOPHORE_FEATURES>  (1) 
6
1 12 hydrophobe
1 13 hydrophobe
3 4 5 10 cation
3 4 6 9 cation
3 5 6 11 cation
6 4 5 6 9 10 11 rings

>  <PUBCHEM_HEAVY_ATOM_COUNT>  (1) 
14

>  <PUBCHEM_ATOM_DEF_STEREO_COUNT>  (1) 
0

>  <PUBCHEM_ATOM_UDEF_STEREO_COUNT>  (1) 
0

>  <PUBCHEM_BOND_DEF_STEREO_COUNT>  (1) 
0

>  <PUBCHEM_BOND_UDEF_STEREO_COUNT>  (1) 
0

>  <PUBCHEM_ISOTOPIC_ATOM_COUNT>  (1) 
0

>  <PUBCHEM_COMPONENT_COUNT>  (1) 
1

>  <PUBCHEM_CACTVS_TAUTO_COUNT>  (1) 
4

>  <PUBCHEM_CONFORMER_ID>  (1) 
0000898000000001

>  <PUBCHEM_MMFF94_ENERGY>  (1) 
17.6097

>  <PUBCHEM_FEATURE_SELFOVERLAP>  (1) 
33.219

>  <PUBCHEM_SHAPE_FINGERPRINT>  (1) 
1 1 17689432685563773749
108231 29 17540252468352026634
11680611 10 18260256443804859202
12532896 13 18196932175831256733
12759256 9 17404578269676291591
12932764 1 17822571599652578316
13538477 17 18187076248210498270
14252887 29 17979650248605178706
14648413 74 18272654511392690948
15309172 13 18048883996061258057
15490181 8 18268702814456130095
15502708 68 17618215109819557825
16945 1 18410569552750593494
18186145 218 17770493145108333948
20510252 161 18343299262679274929
20645476 183 18044106656793140390
20645477 70 17113532074569917575
20711985 344 18410580595127667119
20871998 184 18200031870855940807
20871998 22 18122637311759430630
21061003 4 17760644068023268043
21501502 16 18410285913653794908
21524375 3 18053654772882455517
22802520 49 18272381858051914222
2334 1 18049718821844575887
23419403 2 13318901822132935199
23552423 10 18042118915969119502
23557571 272 18338799047570237436
23598294 1 18334861575818691992
25 1 17696199105748603220
2748010 2 18123741213054286159
305870 269 17547277918035609105
3071541 236 18264190453295831675
3312278 4 18043801194250046850
58807428 26 17761757490902410323
7364860 26 17118031825773584935
74978 22 18337948987769665396
81228 2 18410569604601326869
88987 49 18337947901211420430

>  <PUBCHEM_SHAPE_MULTIPOLES>  (1) 
278.78
4.86
3.4
1.14
2.99
0.31
0.26
0.07
0.45
-3.9
0.7
0.61
-0.29
0.05

>  <PUBCHEM_SHAPE_SELFOVERLAP>  (1) 
532.963

>  <PUBCHEM_SHAPE_VOLUME>  (1) 
169.4

>  <PUBCHEM_COORDINATE_TYPE>  (1) 
2
5
10

$$$$
