35201
     RDKit          3D

 22 24  0  0  0  0  0  0  0  0999 V2000
   -0.8558   -4.0188   -1.2830 Cl  0  0  0  0  0  0  0  0  0  0  0  0
    1.6204   -4.0979    0.1899 Cl  0  0  0  0  0  0  0  0  0  0  0  0
   -0.8644   -3.8759    1.6401 Cl  0  0  0  0  0  0  0  0  0  0  0  0
    0.0037    0.8580   -0.0410 N   0  0  0  0  0  0  0  0  0  0  0  0
    1.1981   -1.2210    0.0535 N   0  0  0  0  0  0  0  0  0  0  0  0
   -1.2014   -1.2149    0.0538 N   0  0  0  0  0  0  0  0  0  0  0  0
   -2.3651    0.8461   -0.0387 C   0  0  0  0  0  0  0  0  0  0  0  0
    2.3727    0.8341   -0.0391 C   0  0  0  0  0  0  0  0  0  0  0  0
   -1.1138    0.1203   -0.0071 C   0  0  0  0  0  0  0  0  0  0  0  0
    1.1239    0.1183   -0.0076 C   0  0  0  0  0  0  0  0  0  0  0  0
   -0.0032   -1.8203    0.0811 C   0  0  0  0  0  0  0  0  0  0  0  0
   -2.4424    2.1269    0.5087 C   0  0  0  0  0  0  0  0  0  0  0  0
   -3.4940    0.2656   -0.6169 C   0  0  0  0  0  0  0  0  0  0  0  0
    2.4628    2.1179    0.5086 C   0  0  0  0  0  0  0  0  0  0  0  0
    3.5051    0.2511   -0.6167 C   0  0  0  0  0  0  0  0  0  0  0  0
   -3.6485    2.8268    0.4782 C   0  0  0  0  0  0  0  0  0  0  0  0
   -4.7001    0.9658   -0.6476 C   0  0  0  0  0  0  0  0  0  0  0  0
    3.6726    2.8115    0.4786 C   0  0  0  0  0  0  0  0  0  0  0  0
    4.7149    0.9448   -0.6465 C   0  0  0  0  0  0  0  0  0  0  0  0
   -0.0068   -3.3097    0.1504 C   0  0  0  0  0  0  0  0  0  0  0  0
   -4.7772    2.2464   -0.0999 C   0  0  0  0  0  0  0  0  0  0  0  0
    4.7986    2.2250   -0.0988 C   0  0  0  0  0  0  0  0  0  0  0  0
  1 20  1  0
  2 20  1  0
  3 20  1  0
  4  9  2  0
  4 10  1  0
  5 10  2  0
  5 11  1  0
  6  9  1  0
  6 11  2  0
  7  9  1  0
  7 12  2  0
  7 13  1  0
  8 10  1  0
  8 14  2  0
  8 15  1  0
 11 20  1  0
 12 16  1  0
 13 17  2  0
 14 18  1  0
 15 19  2  0
 16 21  2  0
 17 21  1  0
 18 22  2  0
 19 22  1  0
M  END
>  <PUBCHEM_COMPOUND_CID>  (1) 
35201

>  <PUBCHEM_CONFORMER_RMSD>  (1) 
0.6

>  <PUBCHEM_CONFORMER_DIVERSEORDER>  (1) 
2
5
4
1
3

>  <PUBCHEM_MMFF94_PARTIAL_CHARGES>  (1) 
30
1 -0.29
10 0.62
11 0.48
12 -0.15
13 -0.15
14 -0.15
15 -0.15
16 -0.15
17 -0.15
18 -0.15
19 -0.15
2 -0.29
20 1.01
21 -0.15
22 -0.15
23 0.15
24 0.15
25 0.15
26 0.15
27 0.15
28 0.15
29 0.15
3 -0.29
30 0.15
31 0.15
32 0.15
4 -0.62
5 -0.62
6 -0.62
9 0.62

>  <PUBCHEM_EFFECTIVE_ROTOR_COUNT>  (1) 
3

>  <PUBCHEM_PHARMACOPHORE_FEATURES>  (1) 
6
3 4 5 10 cation
3 4 6 9 cation
3 5 6 11 cation
6 4 5 6 9 10 11 rings
6 7 12 13 16 17 21 rings
6 8 14 15 18 19 22 rings

>  <PUBCHEM_HEAVY_ATOM_COUNT>  (1) 
22

>  <PUBCHEM_ATOM_DEF_STEREO_COUNT>  (1) 
0

>  <PUBCHEM_ATOM_UDEF_STEREO_COUNT>  (1) 
0

>  <PUBCHEM_BOND_DEF_STEREO_COUNT>  (1) 
0

>  <PUBCHEM_BOND_UDEF_STEREO_COUNT>  (1) 
0

>  <PUBCHEM_ISOTOPIC_ATOM_COUNT>  (1) 
0

>  <PUBCHEM_COMPONENT_COUNT>  (1) 
1

>  <PUBCHEM_CACTVS_TAUTO_COUNT>  (1) 
1

>  <PUBCHEM_CONFORMER_ID>  (1) 
0000898100000002

>  <PUBCHEM_MMFF94_ENERGY>  (1) 
59.7009

>  <PUBCHEM_FEATURE_SELFOVERLAP>  (1) 
33.23

>  <PUBCHEM_SHAPE_FINGERPRINT>  (1) 
10319926 262 17982150508958001656
10411042 1 17257933122688725118
1100329 8 18336824174632701242
11056379 131 17904775723536519516
12160290 23 17902484289005140107
12173636 292 18338795735913302852
12293681 160 17917993858250833232
12553582 1 17112706341363142686
12730499 353 18337682918972735313
12769317 202 18267574728437963557
12788726 201 17977087282579193666
13009979 54 17125640510641257827
13140716 1 18334857160745532811
13690498 29 17766022840894981366
138480 1 17762619490812356110
13878862 14 17686042913287380445
13955234 65 18192435156531458579
14178342 30 18047177825293981536
14508225 48 17334487701930165495
14790565 3 18410579465799649228
15042514 8 17975421531269195515
15230672 131 18334866022502748262
15664445 248 17552930528699600542
15927050 60 18411982468770440222
16087824 20 18124031497969958711
17539 30 17910666897473041167
17913733 40 18340506486318029897
1813 80 17335621904167105071
18681886 176 17982442702981066027
18785283 64 18189903006590146018
19302320 297 16685148566471426401
19591789 44 18411420596230492790
20101258 96 17544768184124421496
20510252 161 18197783408263356577
20739085 24 18041563507894387252
21033648 29 18340766039175954968
21049683 118 18193248962313054033
21307412 95 17986701228612956822
21524375 3 18408039589385147006
21796203 349 17402365593036633195
2255824 54 18124311606291851015
23366157 5 17972884657253630531
23557571 272 18052544567007736644
23558518 356 18044374066142528394
23559900 14 17980466872664976281
23845131 108 18333735689524816611
23929065 36 17767658905174803288
283562 15 18266173027722991035
3071541 12 18194966231850445811
3091708 16 9193251435640279259
335352 9 18410856539151546572
3380486 145 17185877735884049411
352729 6 18338520866580397322
3759504 43 18334576888227529620
394222 165 18263918856765332915
4409770 3 18046905158752148675
474 4 18338232657300883433
532947 4 18268999687434305662
59755656 520 18335696174312199564
6025842 7 18267016155725519461
6138700 20 18124602977390462550
633830 44 18271804592709128157
6443956 14 17760931736379814334
67856867 119 18195234534563269473
7164475 11 17833272300222452732
7364860 26 18123187900981252455
77188 2 17329145771741267103
7808743 9 18192429895281923368
79837 15 18335707182059957361
81228 2 17903068181208417402
84936 182 18270678654010371193
9709674 26 18127979805073847588
9841814 1 17611184854110172275
9981440 41 18409444795648093057

>  <PUBCHEM_SHAPE_MULTIPOLES>  (1) 
443.42
8.68
5.61
0.95
0.37
7.2
-0.09
-11.45
1.34
-0.02
-0.9
-0.19
0.72
0

>  <PUBCHEM_SHAPE_SELFOVERLAP>  (1) 
942.264

>  <PUBCHEM_SHAPE_VOLUME>  (1) 
243.9

>  <PUBCHEM_COORDINATE_TYPE>  (1) 
2
5
10

$$$$
