35208
     RDKit          3D

 20 22  0  0  0  0  0  0  0  0999 V2000
   -1.2036   -1.5913   -0.3292 N   0  0  0  0  0  0  0  0  0  0  0  0
    1.1959   -1.5940   -0.3299 N   0  0  0  0  0  0  0  0  0  0  0  0
   -0.0014    0.4591    0.0007 N   0  0  0  0  0  0  0  0  0  0  0  0
   -0.0046   -2.1879   -0.4254 C   0  0  0  0  0  0  0  0  0  0  0  0
   -1.1179   -0.2716   -0.1168 C   0  0  0  0  0  0  0  0  0  0  0  0
    1.1198   -0.2704   -0.1170 C   0  0  0  0  0  0  0  0  0  0  0  0
   -0.0061   -3.6602   -0.6609 C   0  0  0  0  0  0  0  0  0  0  0  0
   -2.3702    0.4437   -0.0003 C   0  0  0  0  0  0  0  0  0  0  0  0
    2.3676    0.4386   -0.0015 C   0  0  0  0  0  0  0  0  0  0  0  0
   -0.0057   -4.4569    0.6414 C   0  0  0  0  0  0  0  0  0  0  0  0
   -2.4501    1.7790   -0.3961 C   0  0  0  0  0  0  0  0  0  0  0  0
   -3.4978   -0.2017    0.5073 C   0  0  0  0  0  0  0  0  0  0  0  0
    2.4565    1.7773   -0.3963 C   0  0  0  0  0  0  0  0  0  0  0  0
    3.4999   -0.2058    0.5070 C   0  0  0  0  0  0  0  0  0  0  0  0
   -3.6572    2.4687   -0.2841 C   0  0  0  0  0  0  0  0  0  0  0  0
   -4.7051    0.4879    0.6191 C   0  0  0  0  0  0  0  0  0  0  0  0
    3.6652    2.4643   -0.2842 C   0  0  0  0  0  0  0  0  0  0  0  0
    4.7086    0.4815    0.6192 C   0  0  0  0  0  0  0  0  0  0  0  0
   -4.7847    1.8232    0.2234 C   0  0  0  0  0  0  0  0  0  0  0  0
    4.7911    1.8165    0.2236 C   0  0  0  0  0  0  0  0  0  0  0  0
  1  4  2  0
  1  5  1  0
  2  4  1  0
  2  6  2  0
  3  5  2  0
  3  6  1  0
  4  7  1  0
  5  8  1  0
  6  9  1  0
  7 10  1  0
  8 11  2  0
  8 12  1  0
  9 13  2  0
  9 14  1  0
 11 15  1  0
 12 16  2  0
 13 17  1  0
 14 18  2  0
 15 19  2  0
 16 19  1  0
 17 20  2  0
 18 20  1  0
M  END
>  <PUBCHEM_COMPOUND_CID>  (1) 
35208

>  <PUBCHEM_CONFORMER_RMSD>  (1) 
0.6

>  <PUBCHEM_CONFORMER_DIVERSEORDER>  (1) 
1
6
2
5
3
4

>  <PUBCHEM_MMFF94_PARTIAL_CHARGES>  (1) 
27
1 -0.62
11 -0.15
12 -0.15
13 -0.15
14 -0.15
15 -0.15
16 -0.15
17 -0.15
18 -0.15
19 -0.15
2 -0.62
20 -0.15
26 0.15
27 0.15
28 0.15
29 0.15
3 -0.62
30 0.15
31 0.15
32 0.15
33 0.15
34 0.15
35 0.15
4 0.48
5 0.62
6 0.62
7 0.14

>  <PUBCHEM_EFFECTIVE_ROTOR_COUNT>  (1) 
3

>  <PUBCHEM_PHARMACOPHORE_FEATURES>  (1) 
7
1 10 hydrophobe
3 1 2 4 cation
3 1 3 5 cation
3 2 3 6 cation
6 1 2 3 4 5 6 rings
6 8 11 12 15 16 19 rings
6 9 13 14 17 18 20 rings

>  <PUBCHEM_HEAVY_ATOM_COUNT>  (1) 
20

>  <PUBCHEM_ATOM_DEF_STEREO_COUNT>  (1) 
0

>  <PUBCHEM_ATOM_UDEF_STEREO_COUNT>  (1) 
0

>  <PUBCHEM_BOND_DEF_STEREO_COUNT>  (1) 
0

>  <PUBCHEM_BOND_UDEF_STEREO_COUNT>  (1) 
0

>  <PUBCHEM_ISOTOPIC_ATOM_COUNT>  (1) 
0

>  <PUBCHEM_COMPONENT_COUNT>  (1) 
1

>  <PUBCHEM_CACTVS_TAUTO_COUNT>  (1) 
3

>  <PUBCHEM_CONFORMER_ID>  (1) 
0000898800000001

>  <PUBCHEM_MMFF94_ENERGY>  (1) 
53.7907

>  <PUBCHEM_FEATURE_SELFOVERLAP>  (1) 
38.304

>  <PUBCHEM_SHAPE_FINGERPRINT>  (1) 
10090160 65 18411132520464119693
10608611 8 18119813513197701957
12173636 292 18339637961767301860
12390115 104 18271262606417062777
12532896 13 18412829113755195414
12549972 3 17391664102366206689
12592029 89 18337675213247583594
12788726 201 17977650228343428602
12839892 36 18408878538701936603
13004483 165 17620747718816819398
13140716 1 18409729517272179003
13544653 18 9943804512489257972
13583140 156 17096068256069297677
138480 1 17762338007140527663
13955234 65 18122070806169038107
14123255 52 18412261735526655988
14787075 74 18201999980090975569
14790565 3 18411987970038048793
15042514 8 18048884283824177403
15927050 60 18411981365006341902
18222031 100 11891337573026666089
18785283 64 18264489481825512802
19784866 9 18270678649783663905
20101258 96 17472147644396111738
20157964 124 18266171726685530221
204376 136 18413109463486916745
20645477 56 18341897454215839784
21033648 29 18342165692003566304
21049683 271 17902813863505501446
21054139 6 18271790351188126143
21120745 212 17471307608695722556
212916 134 18199729436823817800
21524375 3 18272368685134126463
21731228 192 18409732875952207818
22224240 67 18270970141441747531
22950370 63 8935001494614501989
23227448 37 18269836569884810349
23366157 5 17973733475977666691
23402539 116 18201430402375730516
23419403 2 17247222320113035398
23558518 356 17829044665239476176
23559900 14 17977663113613931867
3091708 16 9265028684151580466
335352 9 18411981343809891788
394222 165 18270400460668360211
474 4 18340486664685378857
474229 33 18410856611802103707
5104073 3 18335421253107663833
5385378 56 18197221351705337417
58807428 26 18337662040836198138
6138700 20 18123757444369583926
621550 34 18261958427954994549
633830 44 18201721708653667469
7226269 152 17989481927483961176
7364860 26 18124033425460162855
77188 2 17330555345674716103
7808743 9 18194402427742449208
7832392 63 18265892635294160868
79837 15 18336831986798131947
81228 2 17693635414200426251
9709674 26 18192156997607421899
9981440 41 18409166597878836449
9999458 23 18266182742516911454

>  <PUBCHEM_SHAPE_MULTIPOLES>  (1) 
396.65
9.39
4.14
0.76
0.05
5.54
-0.03
-9.47
-1.87
-0.02
0.23
0
0.14
0

>  <PUBCHEM_SHAPE_SELFOVERLAP>  (1) 
868.937

>  <PUBCHEM_SHAPE_VOLUME>  (1) 
210.9

>  <PUBCHEM_COORDINATE_TYPE>  (1) 
2
5
10

$$$$
