35216
     RDKit          3D

 21 23  0  0  1  0  0  0  0  0999 V2000
   -1.0108   -4.2029   -1.3229 Br  0  0  0  0  0  0  0  0  0  0  0  0
   -1.2333   -1.3159    0.1395 N   0  0  0  0  0  0  0  0  0  0  0  0
    1.1593   -1.4988    0.1429 N   0  0  0  0  0  0  0  0  0  0  0  0
    0.1212    0.6576   -0.0307 N   0  0  0  0  0  0  0  0  0  0  0  0
   -0.0828   -2.0065    0.1910 C   0  0  0  0  0  0  0  0  0  0  0  0
   -0.1961   -3.4880    0.3157 C   0  0  0  0  0  0  0  0  0  0  0  0
   -1.0477    0.0062    0.0291 C   0  0  0  0  0  0  0  0  0  0  0  0
    1.1839   -0.1609    0.0318 C   0  0  0  0  0  0  0  0  0  0  0  0
   -2.2420    0.8204   -0.0312 C   0  0  0  0  0  0  0  0  0  0  0  0
    2.4819    0.4594   -0.0244 C   0  0  0  0  0  0  0  0  0  0  0  0
   -0.9952   -3.9950    1.5177 C   0  0  0  0  0  0  0  0  0  0  0  0
   -2.2247    2.1228    0.4678 C   0  0  0  0  0  0  0  0  0  0  0  0
   -3.4118    0.3019   -0.5869 C   0  0  0  0  0  0  0  0  0  0  0  0
    2.6677    1.7522    0.4750 C   0  0  0  0  0  0  0  0  0  0  0  0
    3.5663   -0.2263   -0.5810 C   0  0  0  0  0  0  0  0  0  0  0  0
   -3.3772    2.9066    0.4112 C   0  0  0  0  0  0  0  0  0  0  0  0
   -4.5641    1.0859   -0.6436 C   0  0  0  0  0  0  0  0  0  0  0  0
    3.9252    2.3534    0.4185 C   0  0  0  0  0  0  0  0  0  0  0  0
    4.8238    0.3747   -0.6372 C   0  0  0  0  0  0  0  0  0  0  0  0
   -4.5468    2.3883   -0.1447 C   0  0  0  0  0  0  0  0  0  0  0  0
    5.0033    1.6646   -0.1375 C   0  0  0  0  0  0  0  0  0  0  0  0
  1  6  1  0
  2  5  2  0
  2  7  1  0
  3  5  1  0
  3  8  2  0
  4  7  2  0
  4  8  1  0
  5  6  1  0
  6 11  1  0
  7  9  1  0
  8 10  1  0
  9 12  2  0
  9 13  1  0
 10 14  2  0
 10 15  1  0
 12 16  1  0
 13 17  2  0
 14 18  1  0
 15 19  2  0
 16 20  2  0
 17 20  1  0
 18 21  2  0
 19 21  1  0
M  END
>  <PUBCHEM_COMPOUND_CID>  (1) 
35216

>  <PUBCHEM_CONFORMER_RMSD>  (1) 
0.6

>  <PUBCHEM_CONFORMER_DIVERSEORDER>  (1) 
1
8
3
6
7
2
5
4

>  <PUBCHEM_MMFF94_PARTIAL_CHARGES>  (1) 
28
1 -0.23
12 -0.15
13 -0.15
14 -0.15
15 -0.15
16 -0.15
17 -0.15
18 -0.15
19 -0.15
2 -0.62
20 -0.15
21 -0.15
26 0.15
27 0.15
28 0.15
29 0.15
3 -0.62
30 0.15
31 0.15
32 0.15
33 0.15
34 0.15
35 0.15
4 -0.62
5 0.48
6 0.37
7 0.62
8 0.62

>  <PUBCHEM_EFFECTIVE_ROTOR_COUNT>  (1) 
3

>  <PUBCHEM_PHARMACOPHORE_FEATURES>  (1) 
8
1 1 hydrophobe
3 1 6 11 hydrophobe
3 2 3 5 cation
3 2 4 7 cation
3 3 4 8 cation
6 10 14 15 18 19 21 rings
6 2 3 4 5 7 8 rings
6 9 12 13 16 17 20 rings

>  <PUBCHEM_HEAVY_ATOM_COUNT>  (1) 
21

>  <PUBCHEM_ATOM_DEF_STEREO_COUNT>  (1) 
0

>  <PUBCHEM_ATOM_UDEF_STEREO_COUNT>  (1) 
1

>  <PUBCHEM_BOND_DEF_STEREO_COUNT>  (1) 
0

>  <PUBCHEM_BOND_UDEF_STEREO_COUNT>  (1) 
0

>  <PUBCHEM_ISOTOPIC_ATOM_COUNT>  (1) 
0

>  <PUBCHEM_COMPONENT_COUNT>  (1) 
1

>  <PUBCHEM_CACTVS_TAUTO_COUNT>  (1) 
1

>  <PUBCHEM_CONFORMER_ID>  (1) 
0000899000000001

>  <PUBCHEM_MMFF94_ENERGY>  (1) 
57.533

>  <PUBCHEM_FEATURE_SELFOVERLAP>  (1) 
44.299

>  <PUBCHEM_SHAPE_FINGERPRINT>  (1) 
10319926 262 18197197361089349400
10411042 1 17473544032775239074
1100329 8 18263639563975412858
11045515 52 17549818236514776943
12160290 23 18046882021578546283
12173636 292 18410571816224758508
12293681 160 17917710167097274160
12500047 106 18410856603185717460
12532896 13 18409167718549191702
12553582 1 17257102987225394454
12730499 353 18264498295488489233
12769317 202 18195234534104950645
12788726 201 18048301529628939443
13140716 1 18262800644765547171
13540713 4 18128546058210702860
13583140 156 16878217666567269361
13590594 115 17762619895304991595
13690498 29 17910138007485698070
138480 1 17546165203599211207
13878862 14 17541365848931361973
13955234 65 17975419014750182571
14178342 30 18118111692657159792
14508225 48 17550659358846978735
14790565 3 18338241470458269356
15042514 8 18047479099600701171
15664445 248 17408814219690060391
16087824 20 18195807591314106695
17539 30 17982442995101749871
1813 80 17332549254367095262
19784866 34 18338797814925614489
20101258 96 17760940940431166450
20510252 161 18341054137170590001
21033648 29 18411695504240067112
21049683 118 18192404515886895649
21307412 95 17915205459220969702
21524375 3 18335700498985557078
22182313 1 18266202615204118999
2255824 54 18051971420601611111
23366157 5 17829050905637007691
23557571 272 18196096775017680484
23558518 356 17826233188248031184
23559900 14 17837194988522238579
23845131 108 18261962843270773075
23929065 36 17910928542933438226
283562 15 17901660798178470170
3091708 16 9194939177478193083
314173 41 10375571716426345997
335352 9 18410293567728420590
3759504 43 18334015012010761411
394222 165 18263074414629016515
474 4 18265612091839927017
5486654 2 18339359781652843301
59755656 520 18335415773034881030
6025842 7 18194394486500172453
6138700 20 17980486663980622478
633830 44 18271240517463582845
7164475 11 17977388566350683796
7364860 26 17979635637162971111
77188 2 17255969394705109483
7808743 9 18263645241990762448
81228 2 17974844278773822651
84936 182 18197775509797757569
9709674 26 18200037373341952246
9841814 1 17396140136714519243
9981440 41 18335699412706978665

>  <PUBCHEM_SHAPE_MULTIPOLES>  (1) 
423.17
8.94
5.02
0.95
4.99
6.31
-0.04
-10.24
1.61
-3.64
-0.5
-0.22
0.83
0.19

>  <PUBCHEM_SHAPE_SELFOVERLAP>  (1) 
909.671

>  <PUBCHEM_SHAPE_VOLUME>  (1) 
240.2

>  <PUBCHEM_COORDINATE_TYPE>  (1) 
2
5
10

$$$$
