35214
     RDKit          3D

 27 27  0  0  0  0  0  0  0  0999 V2000
   -3.0182   -1.4282    1.8454 Cl  0  0  0  0  0  0  0  0  0  0  0  0
   -3.0182    1.4287    1.8452 Cl  0  0  0  0  0  0  0  0  0  0  0  0
    2.4173    2.2776   -2.0817 Cl  0  0  0  0  0  0  0  0  0  0  0  0
    0.0790    3.7063   -1.2738 Cl  0  0  0  0  0  0  0  0  0  0  0  0
    0.0786   -3.7061   -1.2742 Cl  0  0  0  0  0  0  0  0  0  0  0  0
    2.4174   -2.2779   -2.0815 Cl  0  0  0  0  0  0  0  0  0  0  0  0
   -5.5145    0.0003    0.2232 Cl  0  0  0  0  0  0  0  0  0  0  0  0
   -3.6786   -1.4500   -1.4841 Cl  0  0  0  0  0  0  0  0  0  0  0  0
   -3.6781    1.4502   -1.4842 Cl  0  0  0  0  0  0  0  0  0  0  0  0
    2.8799    4.5773    0.2424 Cl  0  0  0  0  0  0  0  0  0  0  0  0
    3.3147    1.8669    1.1661 Cl  0  0  0  0  0  0  0  0  0  0  0  0
    0.9407    3.3169    1.9860 Cl  0  0  0  0  0  0  0  0  0  0  0  0
    2.8794   -4.5776    0.2424 Cl  0  0  0  0  0  0  0  0  0  0  0  0
    0.9403   -3.3174    1.9860 Cl  0  0  0  0  0  0  0  0  0  0  0  0
    3.3142   -1.8672    1.1662 Cl  0  0  0  0  0  0  0  0  0  0  0  0
   -0.7230    1.1999    0.0283 N   0  0  0  0  0  0  0  0  0  0  0  0
   -0.7232   -1.1997    0.0283 N   0  0  0  0  0  0  0  0  0  0  0  0
    1.2411   -0.0001   -0.6500 N   0  0  0  0  0  0  0  0  0  0  0  0
   -1.2932    0.0000    0.2251 C   0  0  0  0  0  0  0  0  0  0  0  0
    0.5440    1.1221   -0.4094 C   0  0  0  0  0  0  0  0  0  0  0  0
    0.5439   -1.1221   -0.4094 C   0  0  0  0  0  0  0  0  0  0  0  0
   -2.7024    0.0001    0.7116 C   0  0  0  0  0  0  0  0  0  0  0  0
    1.2486    2.4131   -0.6531 C   0  0  0  0  0  0  0  0  0  0  0  0
    1.2483   -2.4132   -0.6531 C   0  0  0  0  0  0  0  0  0  0  0  0
   -3.8202    0.0002   -0.4170 C   0  0  0  0  0  0  0  0  0  0  0  0
    2.0413    3.0094    0.5876 C   0  0  0  0  0  0  0  0  0  0  0  0
    2.0409   -3.0097    0.5876 C   0  0  0  0  0  0  0  0  0  0  0  0
  1 22  1  0
  2 22  1  0
  3 23  1  0
  4 23  1  0
  5 24  1  0
  6 24  1  0
  7 25  1  0
  8 25  1  0
  9 25  1  0
 10 26  1  0
 11 26  1  0
 12 26  1  0
 13 27  1  0
 14 27  1  0
 15 27  1  0
 16 19  2  0
 16 20  1  0
 17 19  1  0
 17 21  2  0
 18 20  2  0
 18 21  1  0
 19 22  1  0
 20 23  1  0
 21 24  1  0
 22 25  1  0
 23 26  1  0
 24 27  1  0
M  END
>  <PUBCHEM_COMPOUND_CID>  (1) 
35214

>  <PUBCHEM_CONFORMER_RMSD>  (1) 
0.8

>  <PUBCHEM_CONFORMER_DIVERSEORDER>  (1) 
1
24
2
12
22
9
18
17
11
16
19
21
20
5
6
15
14
23
8
3
4
7
10
13

>  <PUBCHEM_MMFF94_PARTIAL_CHARGES>  (1) 
27
1 -0.29
10 -0.29
11 -0.29
12 -0.29
13 -0.29
14 -0.29
15 -0.29
16 -0.62
17 -0.62
18 -0.62
19 0.48
2 -0.29
20 0.48
21 0.48
22 0.72
23 0.72
24 0.72
25 0.87
26 0.87
27 0.87
3 -0.29
4 -0.29
5 -0.29
6 -0.29
7 -0.29
8 -0.29
9 -0.29

>  <PUBCHEM_EFFECTIVE_ROTOR_COUNT>  (1) 
6

>  <PUBCHEM_PHARMACOPHORE_FEATURES>  (1) 
4
3 16 17 19 cation
3 16 18 20 cation
3 17 18 21 cation
6 16 17 18 19 20 21 rings

>  <PUBCHEM_HEAVY_ATOM_COUNT>  (1) 
27

>  <PUBCHEM_ATOM_DEF_STEREO_COUNT>  (1) 
0

>  <PUBCHEM_ATOM_UDEF_STEREO_COUNT>  (1) 
0

>  <PUBCHEM_BOND_DEF_STEREO_COUNT>  (1) 
0

>  <PUBCHEM_BOND_UDEF_STEREO_COUNT>  (1) 
0

>  <PUBCHEM_ISOTOPIC_ATOM_COUNT>  (1) 
0

>  <PUBCHEM_COMPONENT_COUNT>  (1) 
1

>  <PUBCHEM_CACTVS_TAUTO_COUNT>  (1) 
1

>  <PUBCHEM_CONFORMER_ID>  (1) 
0000898E00000001

>  <PUBCHEM_MMFF94_ENERGY>  (1) 
62.4342

>  <PUBCHEM_FEATURE_SELFOVERLAP>  (1) 
23.07

>  <PUBCHEM_SHAPE_FINGERPRINT>  (1) 
10305334 12 16836522119947351656
1100329 8 18268422607148886442
11578080 2 17751065921327590596
121448 382 17695346267336006991
12160290 23 16967183210966487863
12553582 1 17977684021219524615
12788726 201 17397825679096491555
13004483 165 17761194528301762243
13140716 1 18266744768904163978
133893 2 18411143523938243017
13583140 156 16810930999832928625
13681431 1 18266188244216549094
14022347 108 17472453978833922619
14787075 74 18188210880261257170
14856354 85 14794250280364752986
14955137 171 18126873541140816679
15420108 30 18201996599424342456
16752209 62 17185302691645003294
17980427 23 17630596822256257697
1813 80 18197224633292869175
20600515 1 17752200591863547762
21120745 212 17763203353541771198
21524375 3 18125158496258612077
23419403 2 17753859797716986756
23557571 272 17475221410724809262
23558518 356 17690277531611742798
23559900 14 17895199921839990159
23598288 3 17107373189934248159
3091708 16 9215997054058522002
3380486 145 18051968117523476993
35225 105 17545886387365175576
352729 6 17691417724805697517
4409770 3 17185592962393288046
5845 1 8853278089434889703
633830 44 17844270607603319761
6443956 14 18339355249956248960
81228 2 17400372147857264767
9981440 41 18121492724945476505

>  <PUBCHEM_SHAPE_MULTIPOLES>  (1) 
568.75
7.03
6.5
2.07
8.84
0
0.07
0
0.38
-8.31
0.27
-0.07
0
0

>  <PUBCHEM_SHAPE_SELFOVERLAP>  (1) 
1020.944

>  <PUBCHEM_SHAPE_VOLUME>  (1) 
358.7

>  <PUBCHEM_COORDINATE_TYPE>  (1) 
2
5
10

$$$$
