35210
     RDKit          3D

 21 23  0  0  1  0  0  0  0  0999 V2000
   -0.9737   -4.1709   -1.2006 Cl  0  0  0  0  0  0  0  0  0  0  0  0
   -1.2317   -1.3239    0.1126 N   0  0  0  0  0  0  0  0  0  0  0  0
    1.1614   -1.4986    0.1168 N   0  0  0  0  0  0  0  0  0  0  0  0
    0.1161    0.6560   -0.0336 N   0  0  0  0  0  0  0  0  0  0  0  0
   -0.0789   -2.0111    0.1576 C   0  0  0  0  0  0  0  0  0  0  0  0
   -0.1873   -3.4943    0.2654 C   0  0  0  0  0  0  0  0  0  0  0  0
   -1.0507   -0.0001    0.0174 C   0  0  0  0  0  0  0  0  0  0  0  0
    1.1815   -0.1594    0.0209 C   0  0  0  0  0  0  0  0  0  0  0  0
   -2.2477    0.8107   -0.0351 C   0  0  0  0  0  0  0  0  0  0  0  0
    2.4775    0.4659   -0.0267 C   0  0  0  0  0  0  0  0  0  0  0  0
   -0.9496   -3.9916    1.5003 C   0  0  0  0  0  0  0  0  0  0  0  0
   -2.2355    2.1074    0.4786 C   0  0  0  0  0  0  0  0  0  0  0  0
   -3.4150    0.2944   -0.5980 C   0  0  0  0  0  0  0  0  0  0  0  0
    2.6582    1.7536    0.4874 C   0  0  0  0  0  0  0  0  0  0  0  0
    3.5648   -0.2097   -0.5898 C   0  0  0  0  0  0  0  0  0  0  0  0
   -3.3906    2.8878    0.4295 C   0  0  0  0  0  0  0  0  0  0  0  0
   -4.5700    1.0750   -0.6472 C   0  0  0  0  0  0  0  0  0  0  0  0
    3.9136    2.3597    0.4393 C   0  0  0  0  0  0  0  0  0  0  0  0
    4.8204    0.3963   -0.6377 C   0  0  0  0  0  0  0  0  0  0  0  0
   -4.5577    2.3717   -0.1336 C   0  0  0  0  0  0  0  0  0  0  0  0
    4.9948    1.6810   -0.1232 C   0  0  0  0  0  0  0  0  0  0  0  0
  1  6  1  0
  2  5  2  0
  2  7  1  0
  3  5  1  0
  3  8  2  0
  4  7  2  0
  4  8  1  0
  5  6  1  0
  6 11  1  0
  7  9  1  0
  8 10  1  0
  9 12  2  0
  9 13  1  0
 10 14  2  0
 10 15  1  0
 12 16  1  0
 13 17  2  0
 14 18  1  0
 15 19  2  0
 16 20  2  0
 17 20  1  0
 18 21  2  0
 19 21  1  0
M  END
>  <PUBCHEM_COMPOUND_CID>  (1) 
35210

>  <PUBCHEM_CONFORMER_RMSD>  (1) 
0.6

>  <PUBCHEM_CONFORMER_DIVERSEORDER>  (1) 
1
7
5
6
3
4
2

>  <PUBCHEM_MMFF94_PARTIAL_CHARGES>  (1) 
28
1 -0.29
12 -0.15
13 -0.15
14 -0.15
15 -0.15
16 -0.15
17 -0.15
18 -0.15
19 -0.15
2 -0.62
20 -0.15
21 -0.15
26 0.15
27 0.15
28 0.15
29 0.15
3 -0.62
30 0.15
31 0.15
32 0.15
33 0.15
34 0.15
35 0.15
4 -0.62
5 0.48
6 0.43
7 0.62
8 0.62

>  <PUBCHEM_EFFECTIVE_ROTOR_COUNT>  (1) 
3

>  <PUBCHEM_PHARMACOPHORE_FEATURES>  (1) 
6
3 2 3 5 cation
3 2 4 7 cation
3 3 4 8 cation
6 10 14 15 18 19 21 rings
6 2 3 4 5 7 8 rings
6 9 12 13 16 17 20 rings

>  <PUBCHEM_HEAVY_ATOM_COUNT>  (1) 
21

>  <PUBCHEM_ATOM_DEF_STEREO_COUNT>  (1) 
0

>  <PUBCHEM_ATOM_UDEF_STEREO_COUNT>  (1) 
1

>  <PUBCHEM_BOND_DEF_STEREO_COUNT>  (1) 
0

>  <PUBCHEM_BOND_UDEF_STEREO_COUNT>  (1) 
0

>  <PUBCHEM_ISOTOPIC_ATOM_COUNT>  (1) 
0

>  <PUBCHEM_COMPONENT_COUNT>  (1) 
1

>  <PUBCHEM_CACTVS_TAUTO_COUNT>  (1) 
1

>  <PUBCHEM_CONFORMER_ID>  (1) 
0000898A00000001

>  <PUBCHEM_MMFF94_ENERGY>  (1) 
57.2251

>  <PUBCHEM_FEATURE_SELFOVERLAP>  (1) 
33.23

>  <PUBCHEM_SHAPE_FINGERPRINT>  (1) 
10319926 262 18125421242022844376
10411042 1 17473825507751943202
1100329 8 18263639563964869826
12160290 23 18046882025868251811
12173636 292 18410853291190978124
12293681 160 17917710167107830160
12500047 106 18410856603185717468
12532896 13 18409167718549185214
12553582 1 17257102991520361750
12730499 353 18264779770470461641
12769317 202 18195234534126056157
12788726 201 18048020054646960562
13140716 1 18262800649055239707
13540713 4 18128827533187420028
13583140 156 16950556735571358449
13590594 115 17762619899594690659
13690498 29 17909856532509000406
138480 1 17546164104082295723
13878862 14 17541365853242134045
13955234 65 17975700489732148491
14178342 30 18118392068116961432
14508225 48 17550659358862815991
14790565 3 18410299068812263620
15042514 8 18047479103885112459
15664445 248 17409095694708962599
16087824 20 18195807591314113167
17539 30 17982442995096488119
1813 80 17332267783695894870
19784866 34 18339078194690939401
20101258 96 17688602970943992904
20510252 161 18341054137175871235
21033648 29 18411695508524484912
21049683 118 18192685990858318561
21307412 95 17914923984238971294
21524375 3 18335419024014127662
22182313 1 18266484094481078215
2255824 54 18051971420596336367
22950370 63 9439396956304020748
23366157 5 17829332384908685627
23557571 272 18124039180995563812
23558518 356 17826513563713127080
23559900 14 17836914613051887451
23845131 108 18261962843270805539
23929065 36 17911210017904893610
283562 15 17901660798189019674
3091708 16 9194939181773166859
314173 41 10303514122388418077
335352 9 18410576146511680860
3759504 43 18334296486987478575
394222 165 18262792943883956667
474 4 18265612091845195265
5486654 2 18339359785947810605
59124914 9 18268996375634907288
59755656 520 18335415773034881022
6025842 7 18194394486494897693
6138700 20 17980486663980615982
621550 34 17970347019198825773
633830 44 18271240517463582853
7164475 11 17905049497330757452
7364860 26 17979635637162977607
77188 2 17256249774470440851
7808743 9 18263925617461120104
81228 2 17974845378269626171
84936 182 18198056984785011225
9709674 26 18200037373341932758
9841814 1 17395858661721984339
9981440 41 18335698317500841689

>  <PUBCHEM_SHAPE_MULTIPOLES>  (1) 
419.1
9
4.87
0.92
4.32
6.2
-0.06
-10.27
1.53
-3.1
-0.7
-0.17
0.66
0.21

>  <PUBCHEM_SHAPE_SELFOVERLAP>  (1) 
906.882

>  <PUBCHEM_SHAPE_VOLUME>  (1) 
228.1

>  <PUBCHEM_COORDINATE_TYPE>  (1) 
2
5
10

$$$$
