35212
     RDKit          3D

 21 21  0  0  0  0  0  0  0  0999 V2000
   -2.1711   -2.6405    1.9924 Cl  0  0  0  0  0  0  0  0  0  0  0  0
   -1.2758   -3.5008   -0.6691 Cl  0  0  0  0  0  0  0  0  0  0  0  0
    0.6240    3.6196   -0.2967 Cl  0  0  0  0  0  0  0  0  0  0  0  0
   -0.6487    3.0635    2.2911 Cl  0  0  0  0  0  0  0  0  0  0  0  0
    2.9244   -2.3553   -0.8296 Cl  0  0  0  0  0  0  0  0  0  0  0  0
    3.4458   -1.1101    1.7785 Cl  0  0  0  0  0  0  0  0  0  0  0  0
   -3.2396   -1.1362   -2.0224 Cl  0  0  0  0  0  0  0  0  0  0  0  0
   -2.2287    2.6623   -1.8164 Cl  0  0  0  0  0  0  0  0  0  0  0  0
    3.3008    0.6728   -2.2623 Cl  0  0  0  0  0  0  0  0  0  0  0  0
   -1.2445    0.2580    0.4090 N   0  0  0  0  0  0  0  0  0  0  0  0
    0.4512   -1.4269    0.1997 N   0  0  0  0  0  0  0  0  0  0  0  0
    1.0690    0.8886    0.3212 N   0  0  0  0  0  0  0  0  0  0  0  0
   -0.8220   -1.0120    0.2995 C   0  0  0  0  0  0  0  0  0  0  0  0
   -0.2442    1.1537    0.4130 C   0  0  0  0  0  0  0  0  0  0  0  0
    1.3417   -0.4220    0.2172 C   0  0  0  0  0  0  0  0  0  0  0  0
   -1.8735   -2.0687    0.2873 C   0  0  0  0  0  0  0  0  0  0  0  0
   -0.6308    2.5886    0.5312 C   0  0  0  0  0  0  0  0  0  0  0  0
    2.7799   -0.8001    0.1103 C   0  0  0  0  0  0  0  0  0  0  0  0
   -3.2575   -1.6589   -0.3105 C   0  0  0  0  0  0  0  0  0  0  0  0
   -2.0193    2.9813   -0.0675 C   0  0  0  0  0  0  0  0  0  0  0  0
    3.7189    0.2430   -0.5758 C   0  0  0  0  0  0  0  0  0  0  0  0
  1 16  1  0
  2 16  1  0
  3 17  1  0
  4 17  1  0
  5 18  1  0
  6 18  1  0
  7 19  1  0
  8 20  1  0
  9 21  1  0
 10 13  2  0
 10 14  1  0
 11 13  1  0
 11 15  2  0
 12 14  2  0
 12 15  1  0
 13 16  1  0
 14 17  1  0
 15 18  1  0
 16 19  1  0
 17 20  1  0
 18 21  1  0
M  END
>  <PUBCHEM_COMPOUND_CID>  (1) 
35212

>  <PUBCHEM_CONFORMER_RMSD>  (1) 
0.8

>  <PUBCHEM_CONFORMER_DIVERSEORDER>  (1) 
1
74
107
84
68
97
65
67
3
75
64
9
27
4
112
101
62
95
2
66
8
85
82
105
88
44
108
56
52
89
23
28
72
33
58
111
57
29
22
25
100
59
17
96
98
20
76
61
92
45
79
104
43
99
35
87
18
86
106
26
109
63
73
94
10
77
34
49
37
14
38
36
110
50
114
103
54
48
7
53
19
102
55
42
91
15
11
16
93
90
78
31
21
80
83
81
5
41
71
46
32
113
70
60
69
13
40
47
51
39
24
6
30
12

>  <PUBCHEM_MMFF94_PARTIAL_CHARGES>  (1) 
21
1 -0.29
10 -0.62
11 -0.62
12 -0.62
13 0.48
14 0.48
15 0.48
16 0.72
17 0.72
18 0.72
19 0.29
2 -0.29
20 0.29
21 0.29
3 -0.29
4 -0.29
5 -0.29
6 -0.29
7 -0.29
8 -0.29
9 -0.29

>  <PUBCHEM_EFFECTIVE_ROTOR_COUNT>  (1) 
6

>  <PUBCHEM_PHARMACOPHORE_FEATURES>  (1) 
4
3 10 11 13 cation
3 10 12 14 cation
3 11 12 15 cation
6 10 11 12 13 14 15 rings

>  <PUBCHEM_HEAVY_ATOM_COUNT>  (1) 
21

>  <PUBCHEM_ATOM_DEF_STEREO_COUNT>  (1) 
0

>  <PUBCHEM_ATOM_UDEF_STEREO_COUNT>  (1) 
0

>  <PUBCHEM_BOND_DEF_STEREO_COUNT>  (1) 
0

>  <PUBCHEM_BOND_UDEF_STEREO_COUNT>  (1) 
0

>  <PUBCHEM_ISOTOPIC_ATOM_COUNT>  (1) 
0

>  <PUBCHEM_COMPONENT_COUNT>  (1) 
1

>  <PUBCHEM_CACTVS_TAUTO_COUNT>  (1) 
1

>  <PUBCHEM_CONFORMER_ID>  (1) 
0000898C00000001

>  <PUBCHEM_MMFF94_ENERGY>  (1) 
44.6457

>  <PUBCHEM_FEATURE_SELFOVERLAP>  (1) 
23.07

>  <PUBCHEM_SHAPE_FINGERPRINT>  (1) 
12054548 360 18119810458847837047
121448 382 17908681961146717257
12160290 23 18268154166727882960
12553582 1 18269282416151193330
12788726 201 18409445864804746947
13140716 1 18121499325808822995
13583140 156 16590015714693751864
13681431 1 18053103105491421464
14022347 108 18337971050590059866
14955137 171 17549304687422776922
16752209 62 18337382751881861282
16945 1 18270406121303263562
17357779 13 18271515506986649461
19591789 44 17549272427849115251
20510252 161 18342172211589036114
20600515 1 18270104837963368210
20645476 183 17898868841559683782
20645477 70 17691966385741269079
21285901 2 18342740702420080295
21524375 3 17619917153629347298
22907989 373 18335154063149695596
2334 1 18338516326715472146
23419403 2 17326830492600960892
23557571 272 18343579629970823104
23558518 356 18191592956104917330
23559900 14 17983851191273622138
23598288 3 18334582313093432658
23598291 2 17896042036357785394
238 59 17043699870453777663
2748010 2 17760638570449129491
3060560 45 16823605177487030781
352729 6 18122347869681267210
5845 1 8963848225756321433
6438718 38 18131358471019481453
7164475 11 18337669715984927990
7364860 26 17551520267586792186
81228 2 18340487772559977882

>  <PUBCHEM_SHAPE_MULTIPOLES>  (1) 
434.05
5.54
4.92
2.04
3.47
2.28
0.01
-2.77
-1.95
-3.14
0.54
-0.14
0.38
-0.06

>  <PUBCHEM_SHAPE_SELFOVERLAP>  (1) 
797.294

>  <PUBCHEM_SHAPE_VOLUME>  (1) 
272.7

>  <PUBCHEM_COORDINATE_TYPE>  (1) 
2
5
10

$$$$
