35222
     RDKit          3D

 30 33  0  0  0  0  0  0  0  0999 V2000
    4.3549    4.7983   -0.3165 O   0  0  0  0  0  0  0  0  0  0  0  0
    4.2494   -4.8842   -0.4153 O   0  0  0  0  0  0  0  0  0  0  0  0
    4.2787    2.6825   -0.8971 O   0  0  0  0  0  0  0  0  0  0  0  0
    4.2183   -2.7568   -0.9558 O   0  0  0  0  0  0  0  0  0  0  0  0
    0.3504   -0.0063    0.3288 N   0  0  0  0  0  0  0  0  0  0  0  0
   -1.7220   -1.1818    0.0440 N   0  0  0  0  0  0  0  0  0  0  0  0
   -1.6967    1.2176    0.0660 N   0  0  0  0  0  0  0  0  0  0  0  0
    3.7395    3.7097   -0.4190 N   0  0  0  0  0  0  0  0  0  0  0  0
    3.6578   -3.7806   -0.4955 N   0  0  0  0  0  0  0  0  0  0  0  0
    0.3578    2.3623    0.3475 C   0  0  0  0  0  0  0  0  0  0  0  0
    0.3079   -2.3746    0.3043 C   0  0  0  0  0  0  0  0  0  0  0  0
   -0.3688    1.1243    0.2417 C   0  0  0  0  0  0  0  0  0  0  0  0
   -0.3924   -1.1197    0.2212 C   0  0  0  0  0  0  0  0  0  0  0  0
   -2.2997    0.0248   -0.0235 C   0  0  0  0  0  0  0  0  0  0  0  0
   -3.7339    0.0416   -0.2143 C   0  0  0  0  0  0  0  0  0  0  0  0
    1.6860    2.4385   -0.0835 C   0  0  0  0  0  0  0  0  0  0  0  0
    1.6334   -2.4714   -0.1311 C   0  0  0  0  0  0  0  0  0  0  0  0
   -0.2583    3.4977    0.8835 C   0  0  0  0  0  0  0  0  0  0  0  0
   -0.3321   -3.5063    0.8195 C   0  0  0  0  0  0  0  0  0  0  0  0
    2.3909    3.6378    0.0203 C   0  0  0  0  0  0  0  0  0  0  0  0
    2.3119   -3.6876   -0.0520 C   0  0  0  0  0  0  0  0  0  0  0  0
   -4.3344    1.1005   -0.8954 C   0  0  0  0  0  0  0  0  0  0  0  0
   -4.5161   -1.0011    0.2824 C   0  0  0  0  0  0  0  0  0  0  0  0
    0.4465    4.6969    0.9873 C   0  0  0  0  0  0  0  0  0  0  0  0
    0.3463   -4.7223    0.8986 C   0  0  0  0  0  0  0  0  0  0  0  0
    1.7710    4.7669    0.5556 C   0  0  0  0  0  0  0  0  0  0  0  0
    1.6683   -4.8131    0.4629 C   0  0  0  0  0  0  0  0  0  0  0  0
   -5.7169    1.1169   -1.0796 C   0  0  0  0  0  0  0  0  0  0  0  0
   -5.8986   -0.9848    0.0980 C   0  0  0  0  0  0  0  0  0  0  0  0
   -6.4990    0.0743   -0.5830 C   0  0  0  0  0  0  0  0  0  0  0  0
  1  8  1  0
  2  9  1  0
  3  8  2  0
  4  9  2  0
  5 12  2  0
  5 13  1  0
  6 13  2  0
  6 14  1  0
  7 12  1  0
  7 14  2  0
  8 20  1  0
  9 21  1  0
 10 12  1  0
 10 16  2  0
 10 18  1  0
 11 13  1  0
 11 17  2  0
 11 19  1  0
 14 15  1  0
 15 22  2  0
 15 23  1  0
 16 20  1  0
 17 21  1  0
 18 24  2  0
 19 25  2  0
 20 26  2  0
 21 27  2  0
 22 28  1  0
 23 29  2  0
 24 26  1  0
 25 27  1  0
 28 30  2  0
 29 30  1  0
M  CHG  4   1  -1   2  -1   8   1   9   1
M  END
>  <PUBCHEM_COMPOUND_CID>  (1) 
35222

>  <PUBCHEM_CONFORMER_RMSD>  (1) 
0.8

>  <PUBCHEM_CONFORMER_DIVERSEORDER>  (1) 
1
20
19
10
9
7
21
8
5
2
17
12
13
16
4
3
18
15
6
14
11

>  <PUBCHEM_MMFF94_PARTIAL_CHARGES>  (1) 
40
1 -0.52
12 0.62
13 0.62
14 0.62
16 -0.15
17 -0.15
18 -0.15
19 -0.15
2 -0.52
20 0.13
21 0.13
22 -0.15
23 -0.15
24 -0.15
25 -0.15
26 -0.15
27 -0.15
28 -0.15
29 -0.15
3 -0.52
30 -0.15
31 0.15
32 0.15
33 0.15
34 0.15
35 0.15
36 0.15
37 0.15
38 0.15
39 0.15
4 -0.52
40 0.15
41 0.15
42 0.15
43 0.15
5 -0.62
6 -0.62
7 -0.62
8 0.91
9 0.91

>  <PUBCHEM_EFFECTIVE_ROTOR_COUNT>  (1) 
5

>  <PUBCHEM_PHARMACOPHORE_FEATURES>  (1) 
13
1 1 acceptor
1 1 anion
1 2 acceptor
1 2 anion
1 3 acceptor
1 4 acceptor
3 5 6 13 cation
3 5 7 12 cation
3 6 7 14 cation
6 10 16 18 20 24 26 rings
6 11 17 19 21 25 27 rings
6 15 22 23 28 29 30 rings
6 5 6 7 12 13 14 rings

>  <PUBCHEM_HEAVY_ATOM_COUNT>  (1) 
30

>  <PUBCHEM_ATOM_DEF_STEREO_COUNT>  (1) 
0

>  <PUBCHEM_ATOM_UDEF_STEREO_COUNT>  (1) 
0

>  <PUBCHEM_BOND_DEF_STEREO_COUNT>  (1) 
0

>  <PUBCHEM_BOND_UDEF_STEREO_COUNT>  (1) 
0

>  <PUBCHEM_ISOTOPIC_ATOM_COUNT>  (1) 
0

>  <PUBCHEM_COMPONENT_COUNT>  (1) 
1

>  <PUBCHEM_CACTVS_TAUTO_COUNT>  (1) 
1

>  <PUBCHEM_CONFORMER_ID>  (1) 
0000899600000001

>  <PUBCHEM_MMFF94_ENERGY>  (1) 
99.2352

>  <PUBCHEM_FEATURE_SELFOVERLAP>  (1) 
68.918

>  <PUBCHEM_SHAPE_FINGERPRINT>  (1) 
10050765 1 18410571787510180799
10411042 1 18196088837918584843
10675989 125 18410858763270047868
1100329 8 18338229487720410226
11045515 52 17900825938071343445
11763715 3 17834417625818385151
12202916 173 18130801096445743132
12440605 4 18197800815924927553
12516196 113 18195520390702651159
12788726 201 17615121088863884635
13540713 4 18113899369586105719
13540713 5 18131073702489073041
13590594 115 18051419466207657801
13692114 37 17764852981470823475
138480 1 18338793399809549339
140371 6 18122620561887545073
14068700 686 17767108823102461482
14363568 33 18337400361833279027
14508225 48 18051683344249344493
14790565 3 18193272120966292361
15198563 99 17764872390042529670
15230672 131 18118683456142643172
15439362 3 18410008858098445517
15664445 248 18264479603231771634
15705408 1 18410002230989892989
15927050 60 18196655322540686647
15950262 2 15503526887504867798
15968369 26 18335966645303291595
16087824 20 17475231298584205857
20101258 96 17979646627920796595
21033648 29 17979908634434234065
21049683 271 18189065222280665375
21120745 212 17909552748559562856
23559900 14 18337660920466658755
24771750 20 18335991955561287847
3298306 158 18267590289072257084
4409770 3 16968280000081402927
469060 322 18051134687920945074
5265222 85 17902805393861954092
532947 4 18410859892571470998
5385378 56 18339647836572699353
6669772 16 18268151027091049902
6679774 75 18116973663488763938
6700243 42 17340988689104970622
6703917 75 17976836594540224277
9777508 108 17547284970561949769

>  <PUBCHEM_SHAPE_MULTIPOLES>  (1) 
569
10.28
9.25
0.89
14.65
0.61
0
-0.48
-3.99
-16.86
1.45
0.04
-0.09
0.69

>  <PUBCHEM_SHAPE_SELFOVERLAP>  (1) 
1271.921

>  <PUBCHEM_SHAPE_VOLUME>  (1) 
297.2

>  <PUBCHEM_COORDINATE_TYPE>  (1) 
2
5
10

$$$$
