35223
     RDKit          3D

 30 33  0  0  0  0  0  0  0  0999 V2000
    7.0277   -2.2248    0.4467 O   0  0  0  0  0  0  0  0  0  0  0  0
   -7.0281   -2.2236   -0.4480 O   0  0  0  0  0  0  0  0  0  0  0  0
    6.0589   -3.8704   -0.6361 O   0  0  0  0  0  0  0  0  0  0  0  0
   -6.0600   -3.8692    0.6353 O   0  0  0  0  0  0  0  0  0  0  0  0
   -0.0002   -0.6468    0.0008 N   0  0  0  0  0  0  0  0  0  0  0  0
   -1.1996    1.4314    0.0192 N   0  0  0  0  0  0  0  0  0  0  0  0
    1.1997    1.4311   -0.0180 N   0  0  0  0  0  0  0  0  0  0  0  0
    6.0173   -2.7422   -0.0880 N   0  0  0  0  0  0  0  0  0  0  0  0
   -6.0180   -2.7412    0.0872 N   0  0  0  0  0  0  0  0  0  0  0  0
    2.3682   -0.6293   -0.0365 C   0  0  0  0  0  0  0  0  0  0  0  0
   -2.3686   -0.6288    0.0371 C   0  0  0  0  0  0  0  0  0  0  0  0
    1.1219    0.0906   -0.0168 C   0  0  0  0  0  0  0  0  0  0  0  0
   -1.1220    0.0908    0.0179 C   0  0  0  0  0  0  0  0  0  0  0  0
    0.0001    2.0268    0.0004 C   0  0  0  0  0  0  0  0  0  0  0  0
    0.0002    3.4737    0.0002 C   0  0  0  0  0  0  0  0  0  0  0  0
    3.5111   -0.0760    0.5495 C   0  0  0  0  0  0  0  0  0  0  0  0
    2.4455   -1.8884   -0.6404 C   0  0  0  0  0  0  0  0  0  0  0  0
   -3.5111   -0.0753   -0.5493 C   0  0  0  0  0  0  0  0  0  0  0  0
   -2.4462   -1.8879    0.6411 C   0  0  0  0  0  0  0  0  0  0  0  0
    4.7894   -2.0297   -0.0720 C   0  0  0  0  0  0  0  0  0  0  0  0
   -4.7900   -2.0289    0.0716 C   0  0  0  0  0  0  0  0  0  0  0  0
    4.7185   -0.7742    0.5317 C   0  0  0  0  0  0  0  0  0  0  0  0
    3.6528   -2.5868   -0.6582 C   0  0  0  0  0  0  0  0  0  0  0  0
   -4.7186   -0.7733   -0.5320 C   0  0  0  0  0  0  0  0  0  0  0  0
   -3.6537   -2.5861    0.6583 C   0  0  0  0  0  0  0  0  0  0  0  0
    1.0558    4.1711    0.5879 C   0  0  0  0  0  0  0  0  0  0  0  0
   -1.0548    4.1714   -0.5880 C   0  0  0  0  0  0  0  0  0  0  0  0
    1.0563    5.5659    0.5875 C   0  0  0  0  0  0  0  0  0  0  0  0
   -1.0541    5.5663   -0.5884 C   0  0  0  0  0  0  0  0  0  0  0  0
    0.0015    6.2635   -0.0007 C   0  0  0  0  0  0  0  0  0  0  0  0
  1  8  1  0
  2  9  1  0
  3  8  2  0
  4  9  2  0
  5 12  2  0
  5 13  1  0
  6 13  2  0
  6 14  1  0
  7 12  1  0
  7 14  2  0
  8 20  1  0
  9 21  1  0
 10 12  1  0
 10 16  2  0
 10 17  1  0
 11 13  1  0
 11 18  2  0
 11 19  1  0
 14 15  1  0
 15 26  2  0
 15 27  1  0
 16 22  1  0
 17 23  2  0
 18 24  1  0
 19 25  2  0
 20 22  2  0
 20 23  1  0
 21 24  2  0
 21 25  1  0
 26 28  1  0
 27 29  2  0
 28 30  2  0
 29 30  1  0
M  CHG  4   1  -1   2  -1   8   1   9   1
M  END
>  <PUBCHEM_COMPOUND_CID>  (1) 
35223

>  <PUBCHEM_CONFORMER_RMSD>  (1) 
0.8

>  <PUBCHEM_CONFORMER_DIVERSEORDER>  (1) 
2
3
1

>  <PUBCHEM_MMFF94_PARTIAL_CHARGES>  (1) 
40
1 -0.52
12 0.62
13 0.62
14 0.62
16 -0.15
17 -0.15
18 -0.15
19 -0.15
2 -0.52
20 0.13
21 0.13
22 -0.15
23 -0.15
24 -0.15
25 -0.15
26 -0.15
27 -0.15
28 -0.15
29 -0.15
3 -0.52
30 -0.15
31 0.15
32 0.15
33 0.15
34 0.15
35 0.15
36 0.15
37 0.15
38 0.15
39 0.15
4 -0.52
40 0.15
41 0.15
42 0.15
43 0.15
5 -0.62
6 -0.62
7 -0.62
8 0.91
9 0.91

>  <PUBCHEM_EFFECTIVE_ROTOR_COUNT>  (1) 
5

>  <PUBCHEM_PHARMACOPHORE_FEATURES>  (1) 
13
1 1 acceptor
1 1 anion
1 2 acceptor
1 2 anion
1 3 acceptor
1 4 acceptor
3 5 6 13 cation
3 5 7 12 cation
3 6 7 14 cation
6 10 16 17 20 22 23 rings
6 11 18 19 21 24 25 rings
6 15 26 27 28 29 30 rings
6 5 6 7 12 13 14 rings

>  <PUBCHEM_HEAVY_ATOM_COUNT>  (1) 
30

>  <PUBCHEM_ATOM_DEF_STEREO_COUNT>  (1) 
0

>  <PUBCHEM_ATOM_UDEF_STEREO_COUNT>  (1) 
0

>  <PUBCHEM_BOND_DEF_STEREO_COUNT>  (1) 
0

>  <PUBCHEM_BOND_UDEF_STEREO_COUNT>  (1) 
0

>  <PUBCHEM_ISOTOPIC_ATOM_COUNT>  (1) 
0

>  <PUBCHEM_COMPONENT_COUNT>  (1) 
1

>  <PUBCHEM_CACTVS_TAUTO_COUNT>  (1) 
1

>  <PUBCHEM_CONFORMER_ID>  (1) 
0000899700000002

>  <PUBCHEM_MMFF94_ENERGY>  (1) 
99.1027

>  <PUBCHEM_FEATURE_SELFOVERLAP>  (1) 
68.918

>  <PUBCHEM_SHAPE_FINGERPRINT>  (1) 
10411042 1 18410573985156907779
10622 236 17341512400775752599
11056379 131 18123197805629537414
11297750 10 18188198897349409389
11763715 3 18265075590458573604
12013929 94 18336262337946767706
12107183 9 18341908377002976259
12342043 65 17845655838115581782
12516196 113 18410291432328437914
12758862 56 18334858312503923251
12788726 201 18117273649257119755
13248334 5 18122626320959303464
13590594 115 18409176493763691209
13690498 29 18129391397837143926
13785724 45 18412267259112996649
138480 1 14880032922773528481
13955234 65 17979079606591644633
14068700 675 18260269616643934902
14068700 686 18270396071923913662
14790565 3 16897646285995521976
15042514 8 18267306438973610017
15230672 131 17256255839713992470
15420108 30 17185860135287691528
15530120 55 17472472752632419190
15927050 60 17404868540983141582
16087824 20 18122626042905267853
16990366 60 18261948651977102114
16992752 21 18338809935892789702
18365409 1 17976540507741979357
19304671 126 17541327654334884071
19427546 20 18192438459619960300
1979834 28 18054775441682980912
20238998 120 18411697690520455305
21049683 271 18190185783016288012
21133410 58 18339350989951104967
21716022 299 18115606953160442148
21792938 169 17909250722333451415
21796203 349 17976858498250877210
23559900 14 18265046019935969867
23929065 36 18194103133045829778
24771750 20 17539134256400338092
249999 5 17979917438636376177
255183 313 17837792040295243689
283562 15 18189335676107914002
3004659 81 17967812756260269030
3103668 31 18189612736307007821
32027 91 18264766735414107739
3421961 26 18267303316864292489
3534868 343 18262533532739807950
3627633 1 18338235951229803412
4046055 4 18337676304269588028
4073 2 17907015081215615430
4408954 87 17197723419903049857
4409770 3 18047471123957403421
5309563 4 18411418405840025990
5385378 56 17907301301582484441
563151 97 17115502399569701551
59755656 520 17543910110157592100
6376802 90 17693099570339660702
6673363 416 18339941359644520404
6697151 62 18194374849910130415
6698420 124 17265536843043507576
77188 2 18410857689253683460
9962374 69 18124025987168240919
9981440 41 17184191643620020192

>  <PUBCHEM_SHAPE_MULTIPOLES>  (1) 
569
13.32
8.75
0.77
0.01
17.87
0
-27.72
0
-0.01
0
0
0
1.54

>  <PUBCHEM_SHAPE_SELFOVERLAP>  (1) 
1271.967

>  <PUBCHEM_SHAPE_VOLUME>  (1) 
298

>  <PUBCHEM_COORDINATE_TYPE>  (1) 
2
5
10

$$$$
