35224
     RDKit          3D

 27 30  0  0  0  0  0  0  0  0999 V2000
   -0.4908   -7.4003   -0.0004 Br  0  0  0  0  0  0  0  0  0  0  0  0
   -6.1685    4.1236    0.1270 Br  0  0  0  0  0  0  0  0  0  0  0  0
    6.6574    3.2774   -0.1280 Br  0  0  0  0  0  0  0  0  0  0  0  0
   -1.2424   -0.6140    0.0247 N   0  0  0  0  0  0  0  0  0  0  0  0
    1.1515   -0.7719   -0.0239 N   0  0  0  0  0  0  0  0  0  0  0  0
    0.0914    1.3806    0.0007 N   0  0  0  0  0  0  0  0  0  0  0  0
   -0.0846   -1.2873    0.0002 C   0  0  0  0  0  0  0  0  0  0  0  0
   -1.0766    0.7185    0.0232 C   0  0  0  0  0  0  0  0  0  0  0  0
    1.1622    0.5708   -0.0223 C   0  0  0  0  0  0  0  0  0  0  0  0
   -0.1799   -2.7310    0.0000 C   0  0  0  0  0  0  0  0  0  0  0  0
   -2.2729    1.5187    0.0481 C   0  0  0  0  0  0  0  0  0  0  0  0
    2.4532    1.2069   -0.0477 C   0  0  0  0  0  0  0  0  0  0  0  0
   -1.2818   -3.3564   -0.5830 C   0  0  0  0  0  0  0  0  0  0  0  0
   -3.4517    1.0412   -0.5332 C   0  0  0  0  0  0  0  0  0  0  0  0
    3.5593    0.5786    0.5330 C   0  0  0  0  0  0  0  0  0  0  0  0
    0.8295   -3.4972    0.5829 C   0  0  0  0  0  0  0  0  0  0  0  0
   -2.2655    2.7797    0.6532 C   0  0  0  0  0  0  0  0  0  0  0  0
    2.6115    2.4579   -0.6529 C   0  0  0  0  0  0  0  0  0  0  0  0
   -1.3746   -4.7482   -0.5830 C   0  0  0  0  0  0  0  0  0  0  0  0
   -4.6111    1.8164   -0.5098 C   0  0  0  0  0  0  0  0  0  0  0  0
    4.8105    1.1947    0.5093 C   0  0  0  0  0  0  0  0  0  0  0  0
    0.7369   -4.8890    0.5828 C   0  0  0  0  0  0  0  0  0  0  0  0
   -3.4249    3.5550    0.6767 C   0  0  0  0  0  0  0  0  0  0  0  0
    3.8626    3.0742   -0.6768 C   0  0  0  0  0  0  0  0  0  0  0  0
   -0.3652   -5.5146   -0.0003 C   0  0  0  0  0  0  0  0  0  0  0  0
   -4.5978    3.0733    0.0952 C   0  0  0  0  0  0  0  0  0  0  0  0
    4.9623    2.4425   -0.0957 C   0  0  0  0  0  0  0  0  0  0  0  0
  1 25  1  0
  2 26  1  0
  3 27  1  0
  4  7  2  0
  4  8  1  0
  5  7  1  0
  5  9  2  0
  6  8  2  0
  6  9  1  0
  7 10  1  0
  8 11  1  0
  9 12  1  0
 10 13  2  0
 10 16  1  0
 11 14  2  0
 11 17  1  0
 12 15  2  0
 12 18  1  0
 13 19  1  0
 14 20  1  0
 15 21  1  0
 16 22  2  0
 17 23  2  0
 18 24  2  0
 19 25  2  0
 20 26  2  0
 21 27  2  0
 22 25  1  0
 23 26  1  0
 24 27  1  0
M  END
>  <PUBCHEM_COMPOUND_CID>  (1) 
35224

>  <PUBCHEM_CONFORMER_RMSD>  (1) 
0.6

>  <PUBCHEM_CONFORMER_DIVERSEORDER>  (1) 
1
3
2

>  <PUBCHEM_MMFF94_PARTIAL_CHARGES>  (1) 
36
1 -0.11
13 -0.15
14 -0.15
15 -0.15
16 -0.15
17 -0.15
18 -0.15
19 -0.15
2 -0.11
20 -0.15
21 -0.15
22 -0.15
23 -0.15
24 -0.15
25 0.11
26 0.11
27 0.11
28 0.15
29 0.15
3 -0.11
30 0.15
31 0.15
32 0.15
33 0.15
34 0.15
35 0.15
36 0.15
37 0.15
38 0.15
39 0.15
4 -0.62
5 -0.62
6 -0.62
7 0.62
8 0.62
9 0.62

>  <PUBCHEM_EFFECTIVE_ROTOR_COUNT>  (1) 
3

>  <PUBCHEM_PHARMACOPHORE_FEATURES>  (1) 
10
1 1 hydrophobe
1 2 hydrophobe
1 3 hydrophobe
3 4 5 7 cation
3 4 6 8 cation
3 5 6 9 cation
6 10 13 16 19 22 25 rings
6 11 14 17 20 23 26 rings
6 12 15 18 21 24 27 rings
6 4 5 6 7 8 9 rings

>  <PUBCHEM_HEAVY_ATOM_COUNT>  (1) 
27

>  <PUBCHEM_ATOM_DEF_STEREO_COUNT>  (1) 
0

>  <PUBCHEM_ATOM_UDEF_STEREO_COUNT>  (1) 
0

>  <PUBCHEM_BOND_DEF_STEREO_COUNT>  (1) 
0

>  <PUBCHEM_BOND_UDEF_STEREO_COUNT>  (1) 
0

>  <PUBCHEM_ISOTOPIC_ATOM_COUNT>  (1) 
0

>  <PUBCHEM_COMPONENT_COUNT>  (1) 
1

>  <PUBCHEM_CACTVS_TAUTO_COUNT>  (1) 
1

>  <PUBCHEM_CONFORMER_ID>  (1) 
0000899800000001

>  <PUBCHEM_MMFF94_ENERGY>  (1) 
77.6238

>  <PUBCHEM_FEATURE_SELFOVERLAP>  (1) 
53.531

>  <PUBCHEM_SHAPE_FINGERPRINT>  (1) 
10411042 1 17329992907259979950
10937287 8 18410854347805771016
11056379 131 18122352543270407996
11763715 3 17326070932056121164
12107183 9 18335125476865569408
12516196 113 17185594066901697866
12788726 201 17974558397514211578
13248334 5 17978229361532290379
13590594 115 17471863975034660563
13785724 45 17188412664711081641
138480 1 17618221706667622403
13955234 65 18050293570321280817
14790565 3 18410854339146978787
15042514 8 17978516660579840314
15400415 2 18410572868550677320
15420108 30 18335128796252906976
15439362 3 18265896843681758860
15664445 248 17552365375596592494
15705408 1 17978509732723558303
15840311 113 17758122493764426525
15878777 1 9825859298845129581
15927050 60 18411982468691117550
16087824 20 18122626313451024343
17980427 26 18196644112285167461
1813 80 16973389413346014998
19319366 153 18271520884718863565
19427546 20 18047755090220718500
20101258 96 17616823566164306952
20238998 120 17186438487024724409
21033648 144 18040429967320171157
21033648 29 18341607144471037016
21049683 271 17686920322863647270
21120745 212 17615986829242030764
21133410 32 14857220939258619970
21307412 95 18056505919125393974
21796203 349 17045179323800414755
23366157 5 18049448032825768269
23559900 14 17688868641064040137
23929065 36 17908969247868483000
24771750 20 18117578235727143910
255183 313 18124056756028223731
283562 15 18341330093721031781
3091708 16 9121756825830965456
3103668 31 17975688708785295679
3421961 26 17690559685282833385
3534868 343 17252311307304283284
3627633 1 17834397104474537852
38695281 34 18409727322570082584
3886686 26 18051657154114164120
4403749 210 18336264647483579649
4409770 3 18192145125911633831
474 4 18337955571744306681
5385378 56 18195248806465956825
563151 97 18411128114007620213
59755656 520 18410288134131243172
6058803 2 17970905799055714676
6376802 90 18269005335727665916
6673363 416 17116088993519801542
6677587 24 16309290651925343605
6695519 79 18197805291786836577
6697151 62 17108451798758340189
6700243 42 17405752475539392236
77188 2 17113821249957674662
79837 15 18411136978144249016
9962374 69 17906445534191868849
9981440 41 18409168801134281897
9982175 49 18051948369396310327

>  <PUBCHEM_SHAPE_MULTIPOLES>  (1) 
558.53
10.96
10.94
0.78
5.83
26.08
0
-26.1
0.19
-5.83
-0.18
0
-0.04
-1.25

>  <PUBCHEM_SHAPE_SELFOVERLAP>  (1) 
1197.893

>  <PUBCHEM_SHAPE_VOLUME>  (1) 
320.7

>  <PUBCHEM_COORDINATE_TYPE>  (1) 
2
5
10

$$$$
