35230
     RDKit          3D

 10 10  0  0  0  0  0  0  0  0999 V2000
   -2.3445    0.5271   -0.0003 N   0  0  0  0  0  0  0  0  0  0  0  0
    2.3444    0.5272    0.0010 N   0  0  0  0  0  0  0  0  0  0  0  0
    0.0000    0.5581   -0.0004 N   0  0  0  0  0  0  0  0  0  0  0  0
    1.1998   -1.5199    0.0004 N   0  0  0  0  0  0  0  0  0  0  0  0
   -1.1998   -1.5200   -0.0004 N   0  0  0  0  0  0  0  0  0  0  0  0
   -1.1221   -0.1795   -0.0007 C   0  0  0  0  0  0  0  0  0  0  0  0
    1.1221   -0.1794    0.0000 C   0  0  0  0  0  0  0  0  0  0  0  0
   -2.4148    1.9547    0.0010 C   0  0  0  0  0  0  0  0  0  0  0  0
    2.4146    1.9548   -0.0010 C   0  0  0  0  0  0  0  0  0  0  0  0
    0.0001   -2.1230    0.0001 C   0  0  0  0  0  0  0  0  0  0  0  0
  1  6  1  0
  1  8  1  0
  2  7  1  0
  2  9  1  0
  3  6  2  0
  3  7  1  0
  4  7  2  0
  4 10  1  0
  5  6  1  0
  5 10  2  0
M  END
>  <PUBCHEM_COMPOUND_CID>  (1) 
35230

>  <PUBCHEM_CONFORMER_RMSD>  (1) 
0.4

>  <PUBCHEM_CONFORMER_DIVERSEORDER>  (1) 
1
3
2
7
4
6
5

>  <PUBCHEM_MMFF94_PARTIAL_CHARGES>  (1) 
13
1 -0.87
10 0.47
11 0.4
12 0.4
19 0.15
2 -0.87
3 -0.62
4 -0.62
5 -0.62
6 0.72
7 0.72
8 0.37
9 0.37

>  <PUBCHEM_EFFECTIVE_ROTOR_COUNT>  (1) 
2

>  <PUBCHEM_PHARMACOPHORE_FEATURES>  (1) 
5
1 1 donor
1 2 donor
4 1 3 5 6 cation
4 2 3 4 7 cation
6 3 4 5 6 7 10 rings

>  <PUBCHEM_HEAVY_ATOM_COUNT>  (1) 
10

>  <PUBCHEM_ATOM_DEF_STEREO_COUNT>  (1) 
0

>  <PUBCHEM_ATOM_UDEF_STEREO_COUNT>  (1) 
0

>  <PUBCHEM_BOND_DEF_STEREO_COUNT>  (1) 
0

>  <PUBCHEM_BOND_UDEF_STEREO_COUNT>  (1) 
0

>  <PUBCHEM_ISOTOPIC_ATOM_COUNT>  (1) 
0

>  <PUBCHEM_COMPONENT_COUNT>  (1) 
1

>  <PUBCHEM_CACTVS_TAUTO_COUNT>  (1) 
5

>  <PUBCHEM_CONFORMER_ID>  (1) 
0000899E00000001

>  <PUBCHEM_MMFF94_ENERGY>  (1) 
31.9876

>  <PUBCHEM_FEATURE_SELFOVERLAP>  (1) 
25.415

>  <PUBCHEM_SHAPE_FINGERPRINT>  (1) 
21040471 1 18410573989552043398
23552423 10 18267581300074847935
23552449 1 17690560105904759148
241688 4 16898775982637571899
2748010 2 18410017636573384911

>  <PUBCHEM_SHAPE_MULTIPOLES>  (1) 
180.89
3.38
2.43
0.57
0
0.13
0
-2.57
0
0
0
0
-0.01
0

>  <PUBCHEM_SHAPE_SELFOVERLAP>  (1) 
362.427

>  <PUBCHEM_SHAPE_VOLUME>  (1) 
98.9

>  <PUBCHEM_COORDINATE_TYPE>  (1) 
2
5
10

$$$$
