35238
     RDKit          3D

 20 20  0  0  0  0  0  0  0  0999 V2000
    0.9176    2.7954   -0.3338 Cl  0  0  0  0  0  0  0  0  0  0  0  0
    3.5622    3.2564    0.7154 Cl  0  0  0  0  0  0  0  0  0  0  0  0
    3.2705    2.4482   -2.0394 Cl  0  0  0  0  0  0  0  0  0  0  0  0
    1.9592   -0.1086   -0.8336 N   0  0  0  0  0  0  0  0  0  0  0  0
    2.7216   -1.8917    0.5796 N   0  0  0  0  0  0  0  0  0  0  0  0
    3.3779    0.3696    1.0415 N   0  0  0  0  0  0  0  0  0  0  0  0
    4.1073   -1.3936    2.4044 N   0  0  0  0  0  0  0  0  0  0  0  0
   -2.4472   -1.5941   -0.4057 C   0  0  0  0  0  0  0  0  0  0  0  0
   -3.2857   -0.3148   -0.3567 C   0  0  0  0  0  0  0  0  0  0  0  0
   -1.0035   -1.3568   -0.8602 C   0  0  0  0  0  0  0  0  0  0  0  0
   -4.7102   -0.6039    0.1250 C   0  0  0  0  0  0  0  0  0  0  0  0
   -0.1448   -2.6260   -0.8378 C   0  0  0  0  0  0  0  0  0  0  0  0
   -5.5369    0.6812    0.2108 C   0  0  0  0  0  0  0  0  0  0  0  0
    1.2952   -2.3802   -1.3045 C   0  0  0  0  0  0  0  0  0  0  0  0
   -6.9806    0.4446    0.6590 C   0  0  0  0  0  0  0  0  0  0  0  0
    2.0481   -1.3862   -0.4564 C   0  0  0  0  0  0  0  0  0  0  0  0
   -7.7859    1.7255    0.8144 C   0  0  0  0  0  0  0  0  0  0  0  0
    2.6533    0.7173   -0.0342 C   0  0  0  0  0  0  0  0  0  0  0  0
    3.3663   -0.9504    1.2876 C   0  0  0  0  0  0  0  0  0  0  0  0
    2.6156    2.1679   -0.3756 C   0  0  0  0  0  0  0  0  0  0  0  0
  1 20  1  0
  2 20  1  0
  3 20  1  0
  4 16  2  0
  4 18  1  0
  5 16  1  0
  5 19  2  0
  6 18  2  0
  6 19  1  0
  7 19  1  0
  8  9  1  0
  8 10  1  0
  9 11  1  0
 10 12  1  0
 11 13  1  0
 12 14  1  0
 13 15  1  0
 14 16  1  0
 15 17  1  0
 18 20  1  0
M  END
>  <PUBCHEM_COMPOUND_CID>  (1) 
35238

>  <PUBCHEM_CONFORMER_RMSD>  (1) 
1

>  <PUBCHEM_CONFORMER_DIVERSEORDER>  (1) 
1
617
7
598
445
383
650
12
608
156
597
460
72
16
566
177
499
78
94
406
358
516
629
328
130
661
520
407
535
502
154
472
152
489
124
604
129
46
122
96
631
530
636
18
306
4
180
360
14
3
475
25
65
628
587
288
560
633
545
5
667
15
468
40
85
169
492
93
24
277
487
252
432
249
22
523
329
8
127
408
56
626
111
170
26
142
226
322
298
30
343
613
427
435
28
151
260
92
612
50
199
354
396
136
590
190
517
245
132
495
313
88
49
340
649
224
204
188
105
191
433
10
256
75
556
45
182
159
386
471
364
391
29
248
110
67
207
294
208
35
282
218
181
13
23
392
213
546
268
565
405
281
278
2
219
376
246
68
655

>  <PUBCHEM_MMFF94_PARTIAL_CHARGES>  (1) 
14
1 -0.29
14 0.14
16 0.48
18 0.48
19 0.72
2 -0.29
20 1.01
3 -0.29
4 -0.62
40 0.4
41 0.4
5 -0.62
6 -0.62
7 -0.9

>  <PUBCHEM_EFFECTIVE_ROTOR_COUNT>  (1) 
9

>  <PUBCHEM_PHARMACOPHORE_FEATURES>  (1) 
4
1 17 hydrophobe
1 7 donor
4 5 6 7 19 cation
6 4 5 6 16 18 19 rings

>  <PUBCHEM_HEAVY_ATOM_COUNT>  (1) 
20

>  <PUBCHEM_ATOM_DEF_STEREO_COUNT>  (1) 
0

>  <PUBCHEM_ATOM_UDEF_STEREO_COUNT>  (1) 
0

>  <PUBCHEM_BOND_DEF_STEREO_COUNT>  (1) 
0

>  <PUBCHEM_BOND_UDEF_STEREO_COUNT>  (1) 
0

>  <PUBCHEM_ISOTOPIC_ATOM_COUNT>  (1) 
0

>  <PUBCHEM_COMPONENT_COUNT>  (1) 
1

>  <PUBCHEM_CACTVS_TAUTO_COUNT>  (1) 
9

>  <PUBCHEM_CONFORMER_ID>  (1) 
000089A600000001

>  <PUBCHEM_MMFF94_ENERGY>  (1) 
23.4492

>  <PUBCHEM_FEATURE_SELFOVERLAP>  (1) 
20.297

>  <PUBCHEM_SHAPE_FINGERPRINT>  (1) 
10382601 240 17897989456139094316
10483366 6 18197244528176951566
12403259 118 18342730862787277927
12403259 327 17821730537450146555
12616971 3 18411694384033590247
12633257 1 18334005099490350215
13878862 14 18262501634038617837
13965767 371 18265039396653067172
14251764 38 18340495444163359353
14251764 75 18195251241870694885
14347332 77 8358261411535924431
14429380 56 18339632370959657301
15183329 4 8214148452558677103
15238133 3 18410856602974545486
15342168 16 18342741836496875767
15348495 7 18040724667149441707
15420108 30 18127117791994143190
15475509 35 16660636315426333515
17810953 82 18342177778056828109
20715895 44 18271242721451341673
21521239 73 8718551679321623432
21665062 11 18334846251881924646
21864079 5 18127973220266639983
23559900 14 18129672906730994247
3472631 163 15841252827474008843
34797466 226 14189568638346857507
351380 3 12107790696825900235
3680242 22 18409732820818876561
474 4 18342744013908365159
5104073 3 18261111915802723171
5283268 108 18336827468302144918
58260988 114 16522972886375429354
58260988 587 15936991716252545006
60111433 81 17274244167460551305

>  <PUBCHEM_SHAPE_MULTIPOLES>  (1) 
397.28
14.46
3.7
1.52
39.62
1.38
-0.26
8.99
-5.78
-3.72
0.65
-2.27
-0.14
-2.05

>  <PUBCHEM_SHAPE_SELFOVERLAP>  (1) 
751.854

>  <PUBCHEM_SHAPE_VOLUME>  (1) 
242.1

>  <PUBCHEM_COORDINATE_TYPE>  (1) 
2
5
10

$$$$
