35246
     RDKit          3D

 21 23  0  0  0  0  0  0  0  0999 V2000
   -6.2760    2.2230    0.1739 Cl  0  0  0  0  0  0  0  0  0  0  0  0
    6.2813    2.2179    0.1727 Cl  0  0  0  0  0  0  0  0  0  0  0  0
   -0.0022   -0.0115   -0.0008 N   0  0  0  0  0  0  0  0  0  0  0  0
    1.1962   -2.0841   -0.1617 N   0  0  0  0  0  0  0  0  0  0  0  0
   -1.2034   -2.0825   -0.1627 N   0  0  0  0  0  0  0  0  0  0  0  0
   -0.0048   -4.0922   -0.3189 N   0  0  0  0  0  0  0  0  0  0  0  0
   -2.3710   -0.0277   -0.0029 C   0  0  0  0  0  0  0  0  0  0  0  0
    2.3664   -0.0308   -0.0018 C   0  0  0  0  0  0  0  0  0  0  0  0
   -1.1183   -0.7497   -0.0589 C   0  0  0  0  0  0  0  0  0  0  0  0
    1.1194   -0.7476   -0.0577 C   0  0  0  0  0  0  0  0  0  0  0  0
   -2.4509    1.2702   -0.5072 C   0  0  0  0  0  0  0  0  0  0  0  0
   -3.4985   -0.6295    0.5562 C   0  0  0  0  0  0  0  0  0  0  0  0
    2.4546    1.2705   -0.5064 C   0  0  0  0  0  0  0  0  0  0  0  0
    3.4998   -0.6303    0.5571 C   0  0  0  0  0  0  0  0  0  0  0  0
   -0.0040   -2.6845   -0.2092 C   0  0  0  0  0  0  0  0  0  0  0  0
   -3.6583    1.9665   -0.4525 C   0  0  0  0  0  0  0  0  0  0  0  0
   -4.7059    0.0668    0.6109 C   0  0  0  0  0  0  0  0  0  0  0  0
    3.6631    1.9649   -0.4529 C   0  0  0  0  0  0  0  0  0  0  0  0
    4.7083    0.0639    0.6107 C   0  0  0  0  0  0  0  0  0  0  0  0
   -4.7859    1.3649    0.1065 C   0  0  0  0  0  0  0  0  0  0  0  0
    4.7900    1.3618    0.1058 C   0  0  0  0  0  0  0  0  0  0  0  0
  1 20  1  0
  2 21  1  0
  3  9  2  0
  3 10  1  0
  4 10  2  0
  4 15  1  0
  5  9  1  0
  5 15  2  0
  6 15  1  0
  7  9  1  0
  7 11  2  0
  7 12  1  0
  8 10  1  0
  8 13  2  0
  8 14  1  0
 11 16  1  0
 12 17  2  0
 13 18  1  0
 14 19  2  0
 16 20  2  0
 17 20  1  0
 18 21  2  0
 19 21  1  0
M  END
>  <PUBCHEM_COMPOUND_CID>  (1) 
35246

>  <PUBCHEM_CONFORMER_RMSD>  (1) 
0.6

>  <PUBCHEM_CONFORMER_DIVERSEORDER>  (1) 
1
2

>  <PUBCHEM_MMFF94_PARTIAL_CHARGES>  (1) 
29
1 -0.18
10 0.62
11 -0.15
12 -0.15
13 -0.15
14 -0.15
15 0.72
16 -0.15
17 -0.15
18 -0.15
19 -0.15
2 -0.18
20 0.18
21 0.18
22 0.15
23 0.15
24 0.15
25 0.15
26 0.15
27 0.15
28 0.15
29 0.15
3 -0.62
30 0.4
31 0.4
4 -0.62
5 -0.62
6 -0.9
9 0.62

>  <PUBCHEM_EFFECTIVE_ROTOR_COUNT>  (1) 
2

>  <PUBCHEM_PHARMACOPHORE_FEATURES>  (1) 
5
1 6 donor
4 4 5 6 15 cation
6 3 4 5 9 10 15 rings
6 7 11 12 16 17 20 rings
6 8 13 14 18 19 21 rings

>  <PUBCHEM_HEAVY_ATOM_COUNT>  (1) 
21

>  <PUBCHEM_ATOM_DEF_STEREO_COUNT>  (1) 
0

>  <PUBCHEM_ATOM_UDEF_STEREO_COUNT>  (1) 
0

>  <PUBCHEM_BOND_DEF_STEREO_COUNT>  (1) 
0

>  <PUBCHEM_BOND_UDEF_STEREO_COUNT>  (1) 
0

>  <PUBCHEM_ISOTOPIC_ATOM_COUNT>  (1) 
0

>  <PUBCHEM_COMPONENT_COUNT>  (1) 
1

>  <PUBCHEM_CACTVS_TAUTO_COUNT>  (1) 
3

>  <PUBCHEM_CONFORMER_ID>  (1) 
000089AE00000001

>  <PUBCHEM_MMFF94_ENERGY>  (1) 
61.7118

>  <PUBCHEM_FEATURE_SELFOVERLAP>  (1) 
25.373

>  <PUBCHEM_SHAPE_FINGERPRINT>  (1) 
10 15 18113340812313863161
10493431 412 18410293644062021949
12107183 9 18335972083512500186
12173636 292 18339355395979843206
12293681 160 17775006786442732600
12390115 104 18270414870045767241
12403259 118 18041284377916799509
12403259 415 18339655476585944798
12596602 18 17240760709346301616
12633257 1 15719397269239734384
12730499 353 18338808801726017499
12760667 363 9223239554383611061
12788726 201 17538864867572302402
12892183 10 17603584114625834330
13288520 33 9079121059493978785
13583140 156 16733526295600853990
13631057 29 18130216177840162103
13685833 64 9655567522615580661
13785724 45 17904758874322600802
138480 1 17762338011440984118
13955234 65 18121224177899844075
14341114 176 18041001713102363680
14508225 48 17551499377040555303
14790565 3 18411705391296837153
15042514 8 18048321342455636819
15188451 53 15213592259972536537
15196674 1 18409448089539621297
15475509 35 16226887710354010906
15778101 99 18266741458460694952
15927050 60 18411418432206474422
16087824 20 18196933504132549895
17539 30 17769366459196310807
17834072 32 18411136956754055124
17980427 23 17749114426196706855
18222031 100 11386373642303154353
19784866 34 18342457019645075321
20157964 124 18266456508807852357
204376 136 18412545409695531187
20645477 56 18340770454812875344
21033648 29 18342448288050896896
21524375 3 18335420183555194338
21756936 100 18269831064132005388
22149856 69 18193023473358529809
22950370 63 9079117777901405783
23227448 37 18340769359205812117
23402539 116 18272364299867009364
23558518 356 17757269658485065692
23559900 14 18049441448894403443
270888 7 18411980264861146192
2916195 48 18130502041466301640
293599 30 18411983585324156840
335352 9 18411136905984607238
350125 39 18268430307861763331
351380 3 8286198344760349073
474 4 18339924814322563715
474229 33 18409730707568859643
4921388 177 15410603835510651309
5104073 3 18116443553234725265
5385378 56 18268151963393985211
59682541 52 16558199202650214684
621550 34 18116432544922302349
6327066 14 18410007762459844093
633830 44 18272369724442294591
636775 72 17835238227662873408
7364860 26 18123751959094667719
77188 2 17402614043519466527
7808743 9 18338514274243525992
7970288 3 8718827582756209601
8272917 22 18269557131012605231
9981440 41 18407763646790908259

>  <PUBCHEM_SHAPE_MULTIPOLES>  (1) 
415.99
13.24
3.25
0.73
0.06
2.69
-0.02
-13.47
-2.06
-0.01
0.49
0
-0.06
0

>  <PUBCHEM_SHAPE_SELFOVERLAP>  (1) 
900.369

>  <PUBCHEM_SHAPE_VOLUME>  (1) 
228.9

>  <PUBCHEM_COORDINATE_TYPE>  (1) 
2
5
10

$$$$
