35249
     RDKit          3D

 10 10  0  0  0  0  0  0  0  0999 V2000
    2.0227   -2.4293    0.1392 Cl  0  0  0  0  0  0  0  0  0  0  0  0
   -0.4282    1.1974   -0.1908 N   0  0  0  0  0  0  0  0  0  0  0  0
   -0.2450   -1.1951   -0.2040 N   0  0  0  0  0  0  0  0  0  0  0  0
    1.7086    0.1559    0.1364 N   0  0  0  0  0  0  0  0  0  0  0  0
    1.4988    2.4914    0.1445 N   0  0  0  0  0  0  0  0  0  0  0  0
   -2.3973   -0.1550   -0.5334 C   0  0  0  0  0  0  0  0  0  0  0  0
   -0.9302   -0.0438   -0.2943 C   0  0  0  0  0  0  0  0  0  0  0  0
   -3.1947   -0.2235    0.7668 C   0  0  0  0  0  0  0  0  0  0  0  0
    0.8971    1.2198    0.0240 C   0  0  0  0  0  0  0  0  0  0  0  0
    1.0684   -1.0178    0.0117 C   0  0  0  0  0  0  0  0  0  0  0  0
  1 10  1  0
  2  7  2  0
  2  9  1  0
  3  7  1  0
  3 10  2  0
  4  9  2  0
  4 10  1  0
  5  9  1  0
  6  7  1  0
  6  8  1  0
M  END
>  <PUBCHEM_COMPOUND_CID>  (1) 
35249

>  <PUBCHEM_CONFORMER_RMSD>  (1) 
0.4

>  <PUBCHEM_CONFORMER_DIVERSEORDER>  (1) 
1
2
3
4

>  <PUBCHEM_MMFF94_PARTIAL_CHARGES>  (1) 
11
1 -0.18
10 0.8
16 0.4
17 0.4
2 -0.62
3 -0.62
4 -0.62
5 -0.9
6 0.14
7 0.48
9 0.72

>  <PUBCHEM_EFFECTIVE_ROTOR_COUNT>  (1) 
1

>  <PUBCHEM_PHARMACOPHORE_FEATURES>  (1) 
4
1 5 donor
1 8 hydrophobe
4 2 4 5 9 cation
6 2 3 4 7 9 10 rings

>  <PUBCHEM_HEAVY_ATOM_COUNT>  (1) 
10

>  <PUBCHEM_ATOM_DEF_STEREO_COUNT>  (1) 
0

>  <PUBCHEM_ATOM_UDEF_STEREO_COUNT>  (1) 
0

>  <PUBCHEM_BOND_DEF_STEREO_COUNT>  (1) 
0

>  <PUBCHEM_BOND_UDEF_STEREO_COUNT>  (1) 
0

>  <PUBCHEM_ISOTOPIC_ATOM_COUNT>  (1) 
0

>  <PUBCHEM_COMPONENT_COUNT>  (1) 
1

>  <PUBCHEM_CACTVS_TAUTO_COUNT>  (1) 
9

>  <PUBCHEM_CONFORMER_ID>  (1) 
000089B100000001

>  <PUBCHEM_MMFF94_ENERGY>  (1) 
17.8535

>  <PUBCHEM_FEATURE_SELFOVERLAP>  (1) 
20.297

>  <PUBCHEM_SHAPE_FINGERPRINT>  (1) 
16945 1 18410848884533238175
20871998 184 17624403182735855686
20871998 22 18126572210524976446
21040471 1 17834109023954469276
23552423 10 18340200894683324087
241688 4 18050845516193638018
2748010 2 18123455095260080948
29004967 10 18334857199463320899
81228 2 17474383578558387848

>  <PUBCHEM_SHAPE_MULTIPOLES>  (1) 
187.74
3.6
2.31
0.7
2.46
0.84
-0.03
-1.68
-0.58
-2.05
-0.15
0.28
-0.08
0.08

>  <PUBCHEM_SHAPE_SELFOVERLAP>  (1) 
371.908

>  <PUBCHEM_SHAPE_VOLUME>  (1) 
110.2

>  <PUBCHEM_COORDINATE_TYPE>  (1) 
2
5
10

$$$$
