35241
     RDKit          3D

 19 20  0  0  0  0  0  0  0  0999 V2000
    1.4109    0.2752   -2.5847 Cl  0  0  0  0  0  0  0  0  0  0  0  0
   -3.0118   -2.3571    1.4529 Cl  0  0  0  0  0  0  0  0  0  0  0  0
   -4.8958   -0.7173    0.0146 Cl  0  0  0  0  0  0  0  0  0  0  0  0
   -2.9533   -2.2490   -1.4712 Cl  0  0  0  0  0  0  0  0  0  0  0  0
    5.7858   -0.8558    0.3259 Cl  0  0  0  0  0  0  0  0  0  0  0  0
   -0.8639   -0.5427    0.0885 N   0  0  0  0  0  0  0  0  0  0  0  0
   -0.3245    1.7934    0.1852 N   0  0  0  0  0  0  0  0  0  0  0  0
   -2.6188    1.0935    0.1231 N   0  0  0  0  0  0  0  0  0  0  0  0
   -2.0611    3.3693    0.2189 N   0  0  0  0  0  0  0  0  0  0  0  0
    1.3958    0.1654    0.1503 C   0  0  0  0  0  0  0  0  0  0  0  0
   -0.0178    0.4921    0.1407 C   0  0  0  0  0  0  0  0  0  0  0  0
    2.1310    0.0444   -1.0290 C   0  0  0  0  0  0  0  0  0  0  0  0
    2.0180   -0.0292    1.3834 C   0  0  0  0  0  0  0  0  0  0  0  0
   -2.1526   -0.1651    0.0826 C   0  0  0  0  0  0  0  0  0  0  0  0
    3.4887   -0.2713   -0.9750 C   0  0  0  0  0  0  0  0  0  0  0  0
    3.3754   -0.3450    1.4373 C   0  0  0  0  0  0  0  0  0  0  0  0
   -1.6480    2.0197    0.1731 C   0  0  0  0  0  0  0  0  0  0  0  0
    4.1108   -0.4661    0.2582 C   0  0  0  0  0  0  0  0  0  0  0  0
   -3.1689   -1.2543    0.0254 C   0  0  0  0  0  0  0  0  0  0  0  0
  1 12  1  0
  2 19  1  0
  3 19  1  0
  4 19  1  0
  5 18  1  0
  6 11  2  0
  6 14  1  0
  7 11  1  0
  7 17  2  0
  8 14  2  0
  8 17  1  0
  9 17  1  0
 10 11  1  0
 10 12  2  0
 10 13  1  0
 12 15  1  0
 13 16  2  0
 14 19  1  0
 15 18  2  0
 16 18  1  0
M  END
>  <PUBCHEM_COMPOUND_CID>  (1) 
35241

>  <PUBCHEM_CONFORMER_RMSD>  (1) 
0.6

>  <PUBCHEM_CONFORMER_DIVERSEORDER>  (1) 
1
10
7
12
2
11
9
8
4
5
3
6

>  <PUBCHEM_MMFF94_PARTIAL_CHARGES>  (1) 
23
1 -0.18
11 0.62
12 0.18
13 -0.15
14 0.48
15 -0.15
16 -0.15
17 0.72
18 0.18
19 1.01
2 -0.29
20 0.15
21 0.15
22 0.15
23 0.4
24 0.4
3 -0.29
4 -0.29
5 -0.18
6 -0.62
7 -0.62
8 -0.62
9 -0.9

>  <PUBCHEM_EFFECTIVE_ROTOR_COUNT>  (1) 
2

>  <PUBCHEM_PHARMACOPHORE_FEATURES>  (1) 
4
1 9 donor
4 7 8 9 17 cation
6 10 12 13 15 16 18 rings
6 6 7 8 11 14 17 rings

>  <PUBCHEM_HEAVY_ATOM_COUNT>  (1) 
19

>  <PUBCHEM_ATOM_DEF_STEREO_COUNT>  (1) 
0

>  <PUBCHEM_ATOM_UDEF_STEREO_COUNT>  (1) 
0

>  <PUBCHEM_BOND_DEF_STEREO_COUNT>  (1) 
0

>  <PUBCHEM_BOND_UDEF_STEREO_COUNT>  (1) 
0

>  <PUBCHEM_ISOTOPIC_ATOM_COUNT>  (1) 
0

>  <PUBCHEM_COMPONENT_COUNT>  (1) 
1

>  <PUBCHEM_CACTVS_TAUTO_COUNT>  (1) 
4

>  <PUBCHEM_CONFORMER_ID>  (1) 
000089A900000001

>  <PUBCHEM_MMFF94_ENERGY>  (1) 
49.8092

>  <PUBCHEM_FEATURE_SELFOVERLAP>  (1) 
20.297

>  <PUBCHEM_SHAPE_FINGERPRINT>  (1) 
12236239 1 17822011982493311376
12363563 72 18268710687532389487
12500047 106 18197210343889007520
12553582 1 18267592475516877303
12633257 1 17131558331066807210
12707595 3 18192155017258291859
12788726 201 18337124414110154577
13103583 49 17755340986678934979
13140716 1 18339648948837210873
13288520 33 18408885126981054938
13583140 156 17845068715922090866
14115302 16 17894632599541484555
14289901 80 18413668011499708498
14386348 63 17704075088048282206
15099037 37 18201998820038433604
15309172 13 15841545280418523164
16752209 62 18261945280943718995
1813 80 18200045078333906919
18186145 218 16733256962597117203
18927931 339 18341897385448910126
19049666 15 17344359847405052564
19141452 34 17775566485617795023
19862831 5 17458060490762146962
200 152 17095238116384807126
20279233 1 17561088007481935671
20600515 1 18201450215587140657
21339142 126 18343297068151284215
21713013 43 16806162314776745339
22112679 90 18041575649761645404
22854114 59 15985107430887906143
232386 152 18336266829093921807
23402539 116 18409161112746838374
23402655 69 15285623387862979038
23419403 2 17900505121004940772
23557571 272 18272655606271903592
23559900 14 18262231226802361568
23598288 3 18334868224955502295
23598291 2 17749686094728062420
3004659 81 17749386013784596955
312423 11 18188787122837272380
5104073 3 18271518698922720210
559249 180 18190172395645118682
57100710 210 18342731914816336830
7615 1 17822024102859710436
77492 1 17749115443935364536
7970288 3 18265897036950720707
81228 2 18341345405047658561
8272917 22 14261090752398559215
9709674 26 18339367357727844006

>  <PUBCHEM_SHAPE_MULTIPOLES>  (1) 
380.44
9.36
2.3
1.6
5.27
1.36
-0.84
-4.96
1.05
-3.17
0.34
0.65
-0.43
-0.44

>  <PUBCHEM_SHAPE_SELFOVERLAP>  (1) 
769.395

>  <PUBCHEM_SHAPE_VOLUME>  (1) 
220.3

>  <PUBCHEM_COORDINATE_TYPE>  (1) 
2
5
10

$$$$
