35255
     RDKit          3D

 17 18  0  0  0  0  0  0  0  0999 V2000
    1.3760   -3.3007   -0.1165 O   0  0  0  0  0  0  0  0  0  0  0  0
    3.0464    1.0437    0.0623 N   0  0  0  0  0  0  0  0  0  0  0  0
    0.7270    0.7008    0.0316 N   0  0  0  0  0  0  0  0  0  0  0  0
   -0.1245   -1.5407   -0.0618 N   0  0  0  0  0  0  0  0  0  0  0  0
    2.2440   -1.1574   -0.0277 N   0  0  0  0  0  0  0  0  0  0  0  0
   -1.6087    0.3035   -0.0022 C   0  0  0  0  0  0  0  0  0  0  0  0
   -0.2554   -0.2087   -0.0115 C   0  0  0  0  0  0  0  0  0  0  0  0
    2.8884    2.4635    0.1146 C   0  0  0  0  0  0  0  0  0  0  0  0
    1.9527    0.1525    0.0204 C   0  0  0  0  0  0  0  0  0  0  0  0
   -1.8861    1.5514   -0.5602 C   0  0  0  0  0  0  0  0  0  0  0  0
   -2.6358   -0.4509    0.5646 C   0  0  0  0  0  0  0  0  0  0  0  0
    4.2453    3.1383    0.1729 C   0  0  0  0  0  0  0  0  0  0  0  0
    1.1564   -1.9439   -0.0670 C   0  0  0  0  0  0  0  0  0  0  0  0
   -3.1907    2.0450   -0.5514 C   0  0  0  0  0  0  0  0  0  0  0  0
   -3.9405    0.0426    0.5734 C   0  0  0  0  0  0  0  0  0  0  0  0
   -4.2179    1.2905    0.0154 C   0  0  0  0  0  0  0  0  0  0  0  0
    0.2233   -4.1296   -0.1569 C   0  0  0  0  0  0  0  0  0  0  0  0
  1 13  1  0
  1 17  1  0
  2  8  1  0
  2  9  1  0
  3  7  2  0
  3  9  1  0
  4  7  1  0
  4 13  2  0
  5  9  2  0
  5 13  1  0
  6  7  1  0
  6 10  2  0
  6 11  1  0
  8 12  1  0
 10 14  1  0
 11 15  2  0
 14 16  2  0
 15 16  1  0
M  END
>  <PUBCHEM_COMPOUND_CID>  (1) 
35255

>  <PUBCHEM_CONFORMER_RMSD>  (1) 
0.6

>  <PUBCHEM_CONFORMER_DIVERSEORDER>  (1) 
1
7
13
22
18
21
19
6
9
8
14
4
12
16
3
17
2
15
5
20
11
10

>  <PUBCHEM_MMFF94_PARTIAL_CHARGES>  (1) 
21
1 -0.36
10 -0.15
11 -0.15
13 0.7
14 -0.15
15 -0.15
16 -0.15
17 0.28
2 -0.87
20 0.4
21 0.15
22 0.15
26 0.15
27 0.15
28 0.15
3 -0.62
4 -0.62
5 -0.62
7 0.62
8 0.37
9 0.72

>  <PUBCHEM_EFFECTIVE_ROTOR_COUNT>  (1) 
4

>  <PUBCHEM_PHARMACOPHORE_FEATURES>  (1) 
4
1 2 donor
4 2 3 5 9 cation
6 3 4 5 7 9 13 rings
6 6 10 11 14 15 16 rings

>  <PUBCHEM_HEAVY_ATOM_COUNT>  (1) 
17

>  <PUBCHEM_ATOM_DEF_STEREO_COUNT>  (1) 
0

>  <PUBCHEM_ATOM_UDEF_STEREO_COUNT>  (1) 
0

>  <PUBCHEM_BOND_DEF_STEREO_COUNT>  (1) 
0

>  <PUBCHEM_BOND_UDEF_STEREO_COUNT>  (1) 
0

>  <PUBCHEM_ISOTOPIC_ATOM_COUNT>  (1) 
0

>  <PUBCHEM_COMPONENT_COUNT>  (1) 
1

>  <PUBCHEM_CACTVS_TAUTO_COUNT>  (1) 
4

>  <PUBCHEM_CONFORMER_ID>  (1) 
000089B700000001

>  <PUBCHEM_MMFF94_ENERGY>  (1) 
50.6519

>  <PUBCHEM_FEATURE_SELFOVERLAP>  (1) 
20.297

>  <PUBCHEM_SHAPE_FINGERPRINT>  (1) 
10608611 8 18262516966755592949
116883 192 16612230041141115623
11833330 49 17329984115271650890
12173636 292 18266738167682238420
12390115 104 18126023773350515856
12532896 13 18268712882239345078
12553582 1 17403187993057939755
12788726 201 17469872746718054194
13134695 92 17833820573818923663
13140716 1 18408604764205786290
13583140 156 16951660632597964408
138480 1 18050567335615196014
13955234 65 18338521811847677915
14026960 21 18335142024393534369
14123255 52 18339359785600183448
14178000 22 18267015240549481376
14648413 74 18192429671525937761
15042514 8 17832146400109979058
15219456 202 18263364707452893545
15442244 35 17692252933020985297
16945 1 18267585693562745019
17539 30 17551225603082247710
18186145 218 18200887230936526648
19591789 44 18339083790911766430
204376 136 18339643455041256472
20645477 56 18124319560930343176
20645477 70 18192706753284094975
20671657 1 18340210665564961517
20671657 53 17694505845078518119
21426921 1 17762337320710579852
21524375 3 18272367637298989846
221490 88 18264499377588431395
22182937 141 17839184352633407592
2255824 54 18269836419571478254
23419403 2 16764852558845392758
23557571 272 17696208267478607828
23558518 356 17973441298454254826
23559900 14 18193269694283415859
2748010 2 18263943157463446102
3071541 12 18267870484195984536
3091708 16 9333709673927928914
3187 122 16612197674410206088
458136 41 18340501009717807625
474229 33 18192993940224333411
5104073 3 18261117331672139721
621550 34 18334860498409985757
633830 44 18130796645925973069
7364860 26 18266459806445852262
77188 2 17690561888395678646
7808743 9 17977102689218130648
81228 2 17476625950871632586
84936 182 18273211971845561192
9709674 26 18263648360178808251
9925002 15 17397837150985625637
9981440 41 18410005563531521569

>  <PUBCHEM_SHAPE_MULTIPOLES>  (1) 
324.06
6.98
4.21
0.68
0.9
3.95
0
-7.49
0.66
-3.54
-0.37
0.25
-0.08
0.6

>  <PUBCHEM_SHAPE_SELFOVERLAP>  (1) 
684.864

>  <PUBCHEM_SHAPE_VOLUME>  (1) 
178.4

>  <PUBCHEM_COORDINATE_TYPE>  (1) 
2
5
10

$$$$
