35259
     RDKit          3D

 16 16  0  0  0  0  0  0  0  0999 V2000
   -1.1435   -2.9611    1.4114 Cl  0  0  0  0  0  0  0  0  0  0  0  0
   -3.4140   -1.9602   -0.0550 Cl  0  0  0  0  0  0  0  0  0  0  0  0
   -1.0731   -2.8135   -1.5107 Cl  0  0  0  0  0  0  0  0  0  0  0  0
   -2.1744    3.0958    0.2298 S   0  0  0  0  0  0  0  0  0  0  0  0
    2.2781    0.7951    0.1996 N   0  0  0  0  0  0  0  0  0  0  0  0
    0.3710   -0.5657    0.0933 N   0  0  0  0  0  0  0  0  0  0  0  0
    0.1703    1.8226    0.2105 N   0  0  0  0  0  0  0  0  0  0  0  0
   -1.7997    0.4569    0.1025 N   0  0  0  0  0  0  0  0  0  0  0  0
    0.8963    0.6803    0.1671 C   0  0  0  0  0  0  0  0  0  0  0  0
    3.1773   -0.3311    0.1596 C   0  0  0  0  0  0  0  0  0  0  0  0
   -0.9711   -0.5990    0.0653 C   0  0  0  0  0  0  0  0  0  0  0  0
   -1.1587    1.6346    0.1749 C   0  0  0  0  0  0  0  0  0  0  0  0
   -1.6059   -1.9454   -0.0146 C   0  0  0  0  0  0  0  0  0  0  0  0
    4.5839    0.1720    0.2172 C   0  0  0  0  0  0  0  0  0  0  0  0
   -3.6326    2.5696   -0.7151 C   0  0  0  0  0  0  0  0  0  0  0  0
    5.4962   -0.0508   -0.7357 C   0  0  0  0  0  0  0  0  0  0  0  0
  1 13  1  0
  2 13  1  0
  3 13  1  0
  4 12  1  0
  4 15  1  0
  5  9  1  0
  5 10  1  0
  6  9  2  0
  6 11  1  0
  7  9  1  0
  7 12  2  0
  8 11  2  0
  8 12  1  0
 10 14  1  0
 11 13  1  0
 14 16  2  0
M  END
>  <PUBCHEM_COMPOUND_CID>  (1) 
35259

>  <PUBCHEM_CONFORMER_RMSD>  (1) 
0.6

>  <PUBCHEM_CONFORMER_DIVERSEORDER>  (1) 
1
57
73
41
68
55
35
5
61
47
16
71
42
40
74
67
29
51
52
13
75
30
62
60
48
72
37
39
20
33
14
24
46
69
10
45
76
31
54
49
38
50
53
70
22
3
58
34
25
4
7
63
44
66
2
21
17
64
56
9
8
43
6
15
27
19
28
36
26
65
12
11
59
18
23
32

>  <PUBCHEM_MMFF94_PARTIAL_CHARGES>  (1) 
20
1 -0.29
10 0.51
11 0.48
12 0.72
13 1.01
14 -0.29
15 0.23
16 -0.3
19 0.4
2 -0.29
20 0.15
24 0.15
25 0.15
3 -0.29
4 -0.33
5 -0.87
6 -0.62
7 -0.62
8 -0.62
9 0.72

>  <PUBCHEM_EFFECTIVE_ROTOR_COUNT>  (1) 
5

>  <PUBCHEM_PHARMACOPHORE_FEATURES>  (1) 
5
1 15 hydrophobe
1 16 hydrophobe
1 5 donor
4 5 6 7 9 cation
6 6 7 8 9 11 12 rings

>  <PUBCHEM_HEAVY_ATOM_COUNT>  (1) 
16

>  <PUBCHEM_ATOM_DEF_STEREO_COUNT>  (1) 
0

>  <PUBCHEM_ATOM_UDEF_STEREO_COUNT>  (1) 
0

>  <PUBCHEM_BOND_DEF_STEREO_COUNT>  (1) 
0

>  <PUBCHEM_BOND_UDEF_STEREO_COUNT>  (1) 
0

>  <PUBCHEM_ISOTOPIC_ATOM_COUNT>  (1) 
0

>  <PUBCHEM_COMPONENT_COUNT>  (1) 
1

>  <PUBCHEM_CACTVS_TAUTO_COUNT>  (1) 
4

>  <PUBCHEM_CONFORMER_ID>  (1) 
000089BB00000001

>  <PUBCHEM_MMFF94_ENERGY>  (1) 
29.9798

>  <PUBCHEM_FEATURE_SELFOVERLAP>  (1) 
25.371

>  <PUBCHEM_SHAPE_FINGERPRINT>  (1) 
107951 10 18189067408097908246
11357001 24 18335989747821379906
12500047 106 18341046320784012360
12553582 1 18266448996330166754
12788726 201 18335414694645103786
13380535 76 18196931072014157477
14115302 16 17678177307068830046
14508225 48 18338789147481242541
15669948 3 18410004425855310650
16752209 62 18337940255652948219
17539 30 18270387403888204215
20524608 308 18342455924401963040
20602899 9 16056869204863668724
20645476 183 18040439858439228344
20711985 344 18337093670311964594
20711985 365 18410855511683840532
20871998 184 18272374191319045294
20871999 31 18408038524586802596
21339142 126 18271243931872964038
21524375 3 18194957440010277393
22182313 1 18128554698793515319
23402539 116 18202278152132613727
23419403 2 14042598108029496055
23526113 38 17416965024240741528
23557571 272 18341904008678688724
23559900 14 18272366422641013696
23598288 3 18264222446401692470
23598291 2 17968391121040772172
2748010 2 18197231256084570479
298252 57 18263079911970877280
3071541 12 17188696338337001721
3091708 16 8986076000221380401
3759504 43 18114747031782290977
474229 33 18338800014244269169
559249 180 18337105649888700706
58051976 100 18408041797468102172
58779409 54 18340475734019984429
68521 5 18410012181985946383
6992083 37 17913786173707333795
81228 2 18265321975341589681
81539 233 17902788566279833941
9709674 26 18413114948714451110

>  <PUBCHEM_SHAPE_MULTIPOLES>  (1) 
318.81
7.56
3.91
1
13.49
0.13
0.09
-1.69
1.44
-5.61
0.03
-0.25
0.76
0.31

>  <PUBCHEM_SHAPE_SELFOVERLAP>  (1) 
598.394

>  <PUBCHEM_SHAPE_VOLUME>  (1) 
199.6

>  <PUBCHEM_COORDINATE_TYPE>  (1) 
2
5
10

$$$$
