35258
     RDKit          3D

 16 16  0  0  0  0  0  0  0  0999 V2000
    0.8988   -2.8505   -1.5080 Cl  0  0  0  0  0  0  0  0  0  0  0  0
    3.2360   -2.2055    0.0504 Cl  0  0  0  0  0  0  0  0  0  0  0  0
    0.8141   -2.9807    1.4145 Cl  0  0  0  0  0  0  0  0  0  0  0  0
    2.4584    2.9456    0.2582 S   0  0  0  0  0  0  0  0  0  0  0  0
   -2.1829    1.0645    0.0610 N   0  0  0  0  0  0  0  0  0  0  0  0
   -0.4069   -0.4669    0.0357 N   0  0  0  0  0  0  0  0  0  0  0  0
    0.0086    1.8934    0.1517 N   0  0  0  0  0  0  0  0  0  0  0  0
    1.8469    0.3514    0.1278 N   0  0  0  0  0  0  0  0  0  0  0  0
   -3.1801    0.0236   -0.0096 C   0  0  0  0  0  0  0  0  0  0  0  0
   -4.5811    0.6221   -0.0793 C   0  0  0  0  0  0  0  0  0  0  0  0
   -0.8182    0.8227    0.0832 C   0  0  0  0  0  0  0  0  0  0  0  0
   -5.6695   -0.4356   -0.2006 C   0  0  0  0  0  0  0  0  0  0  0  0
    0.9265   -0.6240    0.0614 C   0  0  0  0  0  0  0  0  0  0  0  0
    1.3150    1.5837    0.1698 C   0  0  0  0  0  0  0  0  0  0  0  0
    1.4370   -2.0237    0.0103 C   0  0  0  0  0  0  0  0  0  0  0  0
    3.8973    2.2798   -0.6264 C   0  0  0  0  0  0  0  0  0  0  0  0
  1 15  1  0
  2 15  1  0
  3 15  1  0
  4 14  1  0
  4 16  1  0
  5  9  1  0
  5 11  1  0
  6 11  2  0
  6 13  1  0
  7 11  1  0
  7 14  2  0
  8 13  2  0
  8 14  1  0
  9 10  1  0
 10 12  1  0
 13 15  1  0
M  END
>  <PUBCHEM_COMPOUND_CID>  (1) 
35258

>  <PUBCHEM_CONFORMER_RMSD>  (1) 
0.6

>  <PUBCHEM_CONFORMER_DIVERSEORDER>  (1) 
1
41
44
29
66
55
69
34
6
75
43
79
36
51
73
60
65
18
26
38
74
42
64
54
57
16
19
78
40
72
68
59
71
13
49
15
48
30
33
23
21
53
76
50
32
4
63
47
62
8
12
37
31
56
77
35
7
24
11
9
52
5
22
67
2
61
46
14
70
27
20
45
28
10
25
17
3
58
39

>  <PUBCHEM_MMFF94_PARTIAL_CHARGES>  (1) 
15
1 -0.29
11 0.72
13 0.48
14 0.72
15 1.01
16 0.23
2 -0.29
21 0.4
3 -0.29
4 -0.33
5 -0.87
6 -0.62
7 -0.62
8 -0.62
9 0.37

>  <PUBCHEM_EFFECTIVE_ROTOR_COUNT>  (1) 
5

>  <PUBCHEM_PHARMACOPHORE_FEATURES>  (1) 
5
1 12 hydrophobe
1 16 hydrophobe
1 5 donor
4 5 6 7 11 cation
6 6 7 8 11 13 14 rings

>  <PUBCHEM_HEAVY_ATOM_COUNT>  (1) 
16

>  <PUBCHEM_ATOM_DEF_STEREO_COUNT>  (1) 
0

>  <PUBCHEM_ATOM_UDEF_STEREO_COUNT>  (1) 
0

>  <PUBCHEM_BOND_DEF_STEREO_COUNT>  (1) 
0

>  <PUBCHEM_BOND_UDEF_STEREO_COUNT>  (1) 
0

>  <PUBCHEM_ISOTOPIC_ATOM_COUNT>  (1) 
0

>  <PUBCHEM_COMPONENT_COUNT>  (1) 
1

>  <PUBCHEM_CACTVS_TAUTO_COUNT>  (1) 
4

>  <PUBCHEM_CONFORMER_ID>  (1) 
000089BA00000001

>  <PUBCHEM_MMFF94_ENERGY>  (1) 
27.1444

>  <PUBCHEM_FEATURE_SELFOVERLAP>  (1) 
25.371

>  <PUBCHEM_SHAPE_FINGERPRINT>  (1) 
11806522 49 18337954471957807051
12346645 6 18412823603306639245
12532896 13 18050845812836888740
12553582 1 17905894669553894571
12730499 353 18336836398135349793
13083527 12 18189317001199324664
13380535 76 18336265768210788408
14251717 144 18411417297716734481
14252887 29 18057886840361702675
15502722 9 18409731755271679229
20600515 1 17251703925255029048
20645476 183 17679312033645026108
20645477 70 18411978045042984119
20671657 53 18194119608229367795
20871998 22 17984141448635293071
21054139 6 18054215799022688559
21524375 3 18338796839857158016
221490 88 18408328791567588803
2255824 54 18411982433988000399
23530152 11 18269273641395299046
23557571 272 17405700386017639678
23559900 14 18268698429848538761
23598291 2 18128830650753551929
257057 1 17758107107950329370
2748010 2 18122080937764448976
3060560 45 18337674225605851332
3071541 37 18408326613686827796
314173 41 18050852117943649407
33824 294 18408601491920481699
3759504 43 17972601258174009700
42630746 31 18413386553212529284
6025842 7 18412539925549503381
6138700 20 18411426081879676196
7364860 26 18413388717812736432
81228 2 17044848323096825320
81539 233 18334291006756973533
8272917 22 18412830174986416821
9841814 1 18189895305945867355

>  <PUBCHEM_SHAPE_MULTIPOLES>  (1) 
318.81
7.72
3.93
0.95
13.79
1.06
-0.05
-2.48
-0.92
-5.1
0.07
-0.36
0.8
-0.21

>  <PUBCHEM_SHAPE_SELFOVERLAP>  (1) 
593.431

>  <PUBCHEM_SHAPE_VOLUME>  (1) 
201.3

>  <PUBCHEM_COORDINATE_TYPE>  (1) 
2
5
10

$$$$
