35256
     RDKit          3D

 17 18  0  0  0  0  0  0  0  0999 V2000
   -0.5962   -1.8687    0.0026 O   0  0  0  0  0  0  0  0  0  0  0  0
    1.7956    2.1284   -0.0066 N   0  0  0  0  0  0  0  0  0  0  0  0
    0.5567    0.1373   -0.0019 N   0  0  0  0  0  0  0  0  0  0  0  0
    2.9558    0.0905   -0.0027 N   0  0  0  0  0  0  0  0  0  0  0  0
    1.7157   -1.9638    0.0025 N   0  0  0  0  0  0  0  0  0  0  0  0
    0.6100    2.9268   -0.0078 C   0  0  0  0  0  0  0  0  0  0  0  0
    1.7681    0.7167   -0.0035 C   0  0  0  0  0  0  0  0  0  0  0  0
    0.9722    4.3994    0.0113 C   0  0  0  0  0  0  0  0  0  0  0  0
    0.6164   -1.1999    0.0013 C   0  0  0  0  0  0  0  0  0  0  0  0
    2.8520   -1.2484    0.0005 C   0  0  0  0  0  0  0  0  0  0  0  0
   -1.7320   -1.1190    0.0014 C   0  0  0  0  0  0  0  0  0  0  0  0
   -2.3144   -0.7369   -1.2071 C   0  0  0  0  0  0  0  0  0  0  0  0
   -2.3135   -0.7320    1.2087 C   0  0  0  0  0  0  0  0  0  0  0  0
    4.1282   -2.0189    0.0032 C   0  0  0  0  0  0  0  0  0  0  0  0
   -3.4781    0.0323   -1.2084 C   0  0  0  0  0  0  0  0  0  0  0  0
   -3.4772    0.0371    1.2076 C   0  0  0  0  0  0  0  0  0  0  0  0
   -4.0594    0.4192   -0.0011 C   0  0  0  0  0  0  0  0  0  0  0  0
  1  9  1  0
  1 11  1  0
  2  6  1  0
  2  7  1  0
  3  7  2  0
  3  9  1  0
  4  7  1  0
  4 10  2  0
  5  9  2  0
  5 10  1  0
  6  8  1  0
 10 14  1  0
 11 12  2  0
 11 13  1  0
 12 15  1  0
 13 16  2  0
 15 17  2  0
 16 17  1  0
M  END
>  <PUBCHEM_COMPOUND_CID>  (1) 
35256

>  <PUBCHEM_CONFORMER_RMSD>  (1) 
0.6

>  <PUBCHEM_CONFORMER_DIVERSEORDER>  (1) 
1
6
46
13
15
39
12
45
27
17
20
42
44
28
50
38
35
32
29
19
3
40
16
14
47
10
31
30
9
34
4
43
22
24
2
33
36
23
25
51
41
48
8
18
37
26
5
21
7
49
11

>  <PUBCHEM_MMFF94_PARTIAL_CHARGES>  (1) 
22
1 -0.17
10 0.48
11 0.08
12 -0.15
13 -0.15
14 0.14
15 -0.15
16 -0.15
17 -0.15
2 -0.87
20 0.4
24 0.15
25 0.15
29 0.15
3 -0.62
30 0.15
31 0.15
4 -0.62
5 -0.62
6 0.37
7 0.72
9 0.7

>  <PUBCHEM_EFFECTIVE_ROTOR_COUNT>  (1) 
4

>  <PUBCHEM_PHARMACOPHORE_FEATURES>  (1) 
4
1 2 donor
4 2 3 4 7 cation
6 11 12 13 15 16 17 rings
6 3 4 5 7 9 10 rings

>  <PUBCHEM_HEAVY_ATOM_COUNT>  (1) 
17

>  <PUBCHEM_ATOM_DEF_STEREO_COUNT>  (1) 
0

>  <PUBCHEM_ATOM_UDEF_STEREO_COUNT>  (1) 
0

>  <PUBCHEM_BOND_DEF_STEREO_COUNT>  (1) 
0

>  <PUBCHEM_BOND_UDEF_STEREO_COUNT>  (1) 
0

>  <PUBCHEM_ISOTOPIC_ATOM_COUNT>  (1) 
0

>  <PUBCHEM_COMPONENT_COUNT>  (1) 
1

>  <PUBCHEM_CACTVS_TAUTO_COUNT>  (1) 
4

>  <PUBCHEM_CONFORMER_ID>  (1) 
000089B800000001

>  <PUBCHEM_MMFF94_ENERGY>  (1) 
49.6949

>  <PUBCHEM_FEATURE_SELFOVERLAP>  (1) 
20.297

>  <PUBCHEM_SHAPE_FINGERPRINT>  (1) 
10366900 7 17603586318434894851
104564 63 18050852121964154204
11578080 2 17270846508582918744
116883 192 18125725582735109542
12403259 226 18260545641243739031
124424 183 18113898217311498299
12788726 201 18118684319093141690
13134695 92 18409724050036852052
14250199 8 18340480183811714509
14648413 74 18264206000972026322
14713325 29 15727591036570753812
15042514 8 17544475254976483906
15653759 3 17240486901023097467
17138139 8 17042557009579496613
17357990 137 17773624704848178185
18219364 16 18189047754379770157
19930381 70 17977943811386386113
20233049 118 18186800232174163830
20671657 1 18267308805516115717
20681677 76 18261674895583479891
21041028 32 18337400322439906440
21130352 189 18409728439240162179
21197605 99 17260481267115388593
21524375 3 17479180116557029388
21639500 275 18338789139027950981
23175994 123 18335427807248686775
23402539 116 18200584779165469199
23558518 356 17541390042244132906
3071541 12 18267306624068510948
31174 14 18189913078641837771
3286 77 18260556649276716523
350125 39 17832714847536844258
3524813 1 17895745197966267125
4175511 71 18411989043874071212
474 4 18196366142165332281
6049 1 17822578312612420327
6438718 38 17698717004793689877
68521 5 18194406593875868606
6992083 37 18131350782711803063
74978 22 18340206396462856367
81228 2 18047756992679772592
84936 182 17842554325417658689
9981440 41 17548119486743924568

>  <PUBCHEM_SHAPE_MULTIPOLES>  (1) 
324.06
6.69
3.57
0.96
1.6
5.81
0
-2.79
0
-3.42
-0.01
1.07
-0.14
0

>  <PUBCHEM_SHAPE_SELFOVERLAP>  (1) 
682.375

>  <PUBCHEM_SHAPE_VOLUME>  (1) 
178.6

>  <PUBCHEM_COORDINATE_TYPE>  (1) 
2
5
10

$$$$
