35266
     RDKit          3D

 15 15  0  0  0  0  0  0  0  0999 V2000
   -1.8366   -2.5033   -1.4656 Cl  0  0  0  0  0  0  0  0  0  0  0  0
    0.5439   -3.1938    0.0052 Cl  0  0  0  0  0  0  0  0  0  0  0  0
   -1.8475   -2.4945    1.4610 Cl  0  0  0  0  0  0  0  0  0  0  0  0
    2.6934    1.5560   -0.0004 S   0  0  0  0  0  0  0  0  0  0  0  0
   -1.5710    0.2443    0.0002 N   0  0  0  0  0  0  0  0  0  0  0  0
   -2.2299    2.4950   -0.0005 N   0  0  0  0  0  0  0  0  0  0  0  0
    0.7680   -0.2916    0.0010 N   0  0  0  0  0  0  0  0  0  0  0  0
    0.0626    2.0019   -0.0002 N   0  0  0  0  0  0  0  0  0  0  0  0
   -0.5361   -0.6115    0.0008 C   0  0  0  0  0  0  0  0  0  0  0  0
   -1.1959    1.5336   -0.0003 C   0  0  0  0  0  0  0  0  0  0  0  0
    0.9916    1.0325    0.0003 C   0  0  0  0  0  0  0  0  0  0  0  0
    3.5704   -0.0336    0.0001 C   0  0  0  0  0  0  0  0  0  0  0  0
   -0.8688   -2.0646    0.0005 C   0  0  0  0  0  0  0  0  0  0  0  0
    5.0713    0.1861   -0.0005 C   0  0  0  0  0  0  0  0  0  0  0  0
   -3.6154    2.1434   -0.0018 C   0  0  0  0  0  0  0  0  0  0  0  0
  1 13  1  0
  2 13  1  0
  3 13  1  0
  4 11  1  0
  4 12  1  0
  5  9  2  0
  5 10  1  0
  6 10  1  0
  6 15  1  0
  7  9  1  0
  7 11  2  0
  8 10  2  0
  8 11  1  0
  9 13  1  0
 12 14  1  0
M  END
>  <PUBCHEM_COMPOUND_CID>  (1) 
35266

>  <PUBCHEM_CONFORMER_RMSD>  (1) 
0.6

>  <PUBCHEM_CONFORMER_DIVERSEORDER>  (1) 
1
23
9
29
32
21
27
16
31
14
11
28
26
8
10
17
12
25
15
30
4
2
6
19
5
24
18
20
22
13
3
7

>  <PUBCHEM_MMFF94_PARTIAL_CHARGES>  (1) 
15
1 -0.29
10 0.72
11 0.72
12 0.23
13 1.01
15 0.37
18 0.4
2 -0.29
3 -0.29
4 -0.33
5 -0.62
6 -0.87
7 -0.62
8 -0.62
9 0.48

>  <PUBCHEM_EFFECTIVE_ROTOR_COUNT>  (1) 
4

>  <PUBCHEM_PHARMACOPHORE_FEATURES>  (1) 
4
1 14 hydrophobe
1 6 donor
4 5 6 8 10 cation
6 5 7 8 9 10 11 rings

>  <PUBCHEM_HEAVY_ATOM_COUNT>  (1) 
15

>  <PUBCHEM_ATOM_DEF_STEREO_COUNT>  (1) 
0

>  <PUBCHEM_ATOM_UDEF_STEREO_COUNT>  (1) 
0

>  <PUBCHEM_BOND_DEF_STEREO_COUNT>  (1) 
0

>  <PUBCHEM_BOND_UDEF_STEREO_COUNT>  (1) 
0

>  <PUBCHEM_ISOTOPIC_ATOM_COUNT>  (1) 
0

>  <PUBCHEM_COMPONENT_COUNT>  (1) 
1

>  <PUBCHEM_CACTVS_TAUTO_COUNT>  (1) 
4

>  <PUBCHEM_CONFORMER_ID>  (1) 
000089C200000001

>  <PUBCHEM_MMFF94_ENERGY>  (1) 
29.2584

>  <PUBCHEM_FEATURE_SELFOVERLAP>  (1) 
20.297

>  <PUBCHEM_SHAPE_FINGERPRINT>  (1) 
10610426 29 15982275235269774383
11357001 24 18334862774214846298
11680986 33 18193852443814850402
12500047 106 18412539899780063072
12553582 1 17762062438244547694
13380535 76 18337673001275933761
15042514 8 18335707147568492792
16752209 62 18338789121938012194
16945 1 16969704975550530851
193761 8 18338517426427943079
20645476 183 17823723939277699652
20645477 70 17834668302444465589
20711985 344 18266163110089123106
20711985 365 18337955722215120980
20871998 184 18341341088283460686
21041028 32 18046637977363055315
21524375 3 18338234847602387397
23402539 116 18343010108301026269
23419403 2 17197186973464232879
23557571 272 18200322151354683364
23558518 356 18043252542749279744
23559900 14 18273492352691949992
23598291 2 17676779781061926788
23598294 1 18335414703725174482
23728640 28 18410851066814812538
257057 1 17766552830435987534
2748010 2 18195831599093769807
3071541 12 17474671650542074696
3091708 16 9055603587828157457
352729 6 18410864256274399268
366044 4 18338234860323843465
474229 33 18410014321528766241
54173680 148 18264491865452766697
58051976 100 18260553333693703116
6338986 31 17766831011420903478
7364860 26 17764307241245524765
81228 2 18120358007149177185
81539 233 18044936758055027101

>  <PUBCHEM_SHAPE_MULTIPOLES>  (1) 
298.23
5.97
3.9
0.93
8.43
0.87
0
-1.54
0
-3.78
0
-0.67
0.75
0

>  <PUBCHEM_SHAPE_SELFOVERLAP>  (1) 
556.61

>  <PUBCHEM_SHAPE_VOLUME>  (1) 
188.1

>  <PUBCHEM_COORDINATE_TYPE>  (1) 
2
5
10

$$$$
