35268
     RDKit          3D

 16 16  0  0  0  0  0  0  0  0999 V2000
   -3.1812    1.7087    1.6989 Cl  0  0  0  0  0  0  0  0  0  0  0  0
   -1.4904    2.9792   -0.2590 Cl  0  0  0  0  0  0  0  0  0  0  0  0
   -3.8044    1.5052   -1.1533 Cl  0  0  0  0  0  0  0  0  0  0  0  0
    1.9564   -0.9031   -0.7357 S   0  0  0  0  0  0  0  0  0  0  0  0
   -0.3958    0.2825   -0.3095 N   0  0  0  0  0  0  0  0  0  0  0  0
   -0.3509   -2.1118   -0.1572 N   0  0  0  0  0  0  0  0  0  0  0  0
   -2.4045   -0.9248    0.2055 N   0  0  0  0  0  0  0  0  0  0  0  0
   -2.3296   -3.2645    0.3473 N   0  0  0  0  0  0  0  0  0  0  0  0
    3.9564    0.9796   -0.2226 C   0  0  0  0  0  0  0  0  0  0  0  0
    4.8652   -0.0324    0.4803 C   0  0  0  0  0  0  0  0  0  0  0  0
    2.4655    0.6964   -0.0402 C   0  0  0  0  0  0  0  0  0  0  0  0
    6.3303    0.3561    0.3496 C   0  0  0  0  0  0  0  0  0  0  0  0
    0.2075   -0.9118   -0.3586 C   0  0  0  0  0  0  0  0  0  0  0  0
   -1.7047    0.1985   -0.0214 C   0  0  0  0  0  0  0  0  0  0  0  0
   -1.6627   -2.0409    0.1212 C   0  0  0  0  0  0  0  0  0  0  0  0
   -2.4570    1.4832    0.0548 C   0  0  0  0  0  0  0  0  0  0  0  0
  1 16  1  0
  2 16  1  0
  3 16  1  0
  4 11  1  0
  4 13  1  0
  5 13  2  0
  5 14  1  0
  6 13  1  0
  6 15  2  0
  7 14  2  0
  7 15  1  0
  8 15  1  0
  9 10  1  0
  9 11  1  0
 10 12  1  0
 14 16  1  0
M  END
>  <PUBCHEM_COMPOUND_CID>  (1) 
35268

>  <PUBCHEM_CONFORMER_RMSD>  (1) 
0.6

>  <PUBCHEM_CONFORMER_DIVERSEORDER>  (1) 
1
134
113
38
24
83
136
116
108
139
3
127
103
145
15
88
110
129
73
105
47
10
131
72
14
143
17
126
97
67
8
112
34
133
115
130
57
93
118
132
80
94
6
22
123
98
7
148
99
107
39
124
96
70
78
106
71
141
52
114
40
65
117
140
125
89
138
19
121
11
120
128
92
29
28
9
33
135
122
31
42
12
62
84
46
50
74
86
23
137
26
37
68
76
66
109
41
49
147
101
16
85
104
45
111
55
43
144
18
69
48
91
77
5
87
146
100
82
35
119
53
32
20
36
25
63
90
44
54
56
21
60
13
2
27
75
4
102
79
59
64
142
81
61
30
58
95
51

>  <PUBCHEM_MMFF94_PARTIAL_CHARGES>  (1) 
15
1 -0.29
11 0.23
13 0.72
14 0.48
15 0.72
16 1.01
2 -0.29
26 0.4
27 0.4
3 -0.29
4 -0.33
5 -0.62
6 -0.62
7 -0.62
8 -0.9

>  <PUBCHEM_EFFECTIVE_ROTOR_COUNT>  (1) 
5

>  <PUBCHEM_PHARMACOPHORE_FEATURES>  (1) 
5
1 12 hydrophobe
1 8 donor
4 4 9 10 11 hydrophobe
4 6 7 8 15 cation
6 5 6 7 13 14 15 rings

>  <PUBCHEM_HEAVY_ATOM_COUNT>  (1) 
16

>  <PUBCHEM_ATOM_DEF_STEREO_COUNT>  (1) 
0

>  <PUBCHEM_ATOM_UDEF_STEREO_COUNT>  (1) 
0

>  <PUBCHEM_BOND_DEF_STEREO_COUNT>  (1) 
0

>  <PUBCHEM_BOND_UDEF_STEREO_COUNT>  (1) 
0

>  <PUBCHEM_ISOTOPIC_ATOM_COUNT>  (1) 
0

>  <PUBCHEM_COMPONENT_COUNT>  (1) 
1

>  <PUBCHEM_CACTVS_TAUTO_COUNT>  (1) 
4

>  <PUBCHEM_CONFORMER_ID>  (1) 
000089C400000001

>  <PUBCHEM_MMFF94_ENERGY>  (1) 
25.7276

>  <PUBCHEM_FEATURE_SELFOVERLAP>  (1) 
25.372

>  <PUBCHEM_SHAPE_FINGERPRINT>  (1) 
12107183 9 18045772391840894586
12633257 1 18412269428267302904
13140716 1 18340211915358850736
13296909 8 18335420209456548870
13380535 76 18341328903281933070
13583140 156 17095244696080071569
14420673 8 18264769849545030850
15042514 8 18335707182139357547
16945 1 17760937234365208031
1741750 31 18271814492676933482
18186145 218 18127703629564482164
20510252 161 18340492269422670843
20645477 56 18410015407786162004
20645477 70 16773520959043632404
21339142 51 18337385036846472493
21524375 3 18271520892785922286
21650355 55 18264772245049656698
22182937 141 18201449068298084056
2306618 200 18272660077126897090
23402539 116 18342450487152942199
23419403 2 17486762254574451091
23500284 214 18272660004138826488
23557571 272 18271249412303708558
23559900 14 18270698463417548518
2748010 2 18119834442504672695
312423 11 17969515990260698604
4214541 1 18409445912777263692
573450 72 18261100903495766610
81228 2 18265352753341119531
9981440 41 18044933476837416625

>  <PUBCHEM_SHAPE_MULTIPOLES>  (1) 
318.81
9.64
2.99
1
18.05
1.31
-0.19
-4.32
-1.37
-3.56
-0.17
-0.84
-0.4
0.24

>  <PUBCHEM_SHAPE_SELFOVERLAP>  (1) 
594.71

>  <PUBCHEM_SHAPE_VOLUME>  (1) 
200

>  <PUBCHEM_COORDINATE_TYPE>  (1) 
2
5
10

$$$$
