3527
     RDKit          3D

 44 46  0  0  1  0  0  0  0  0999 V2000
   -0.3966    3.2137   -1.3295 O   0  0  0  0  0  0  0  0  0  0  0  0
   -1.2884    0.7433    2.3394 O   0  0  0  0  0  0  0  0  0  0  0  0
    1.8731   -0.6697   -0.8501 O   0  0  0  0  0  0  0  0  0  0  0  0
    0.9696   -0.0044    3.1777 O   0  0  0  0  0  0  0  0  0  0  0  0
    4.1298   -4.0483    1.1110 O   0  0  0  0  0  0  0  0  0  0  0  0
    6.3815   -2.4274    0.9541 O   0  0  0  0  0  0  0  0  0  0  0  0
   -2.6806    0.7390   -0.6132 C   0  0  0  0  0  0  0  0  0  0  0  0
   -1.5702    1.6249    0.0928 C   0  0  0  0  0  0  0  0  0  0  0  0
   -2.0644   -0.4439   -1.4631 C   0  0  0  0  0  0  0  0  0  0  0  0
    0.1880    0.8832   -1.6165 C   0  0  0  0  0  0  0  0  0  0  0  0
   -0.8478   -0.0116   -2.3201 C   0  0  0  0  0  0  0  0  0  0  0  0
   -0.5697    2.0451   -0.9908 C   0  0  0  0  0  0  0  0  0  0  0  0
   -3.7128    0.1889    0.4012 C   0  0  0  0  0  0  0  0  0  0  0  0
   -2.1299    2.9035    0.7581 C   0  0  0  0  0  0  0  0  0  0  0  0
   -3.5059    1.6188   -1.6034 C   0  0  0  0  0  0  0  0  0  0  0  0
   -0.8215    0.8624    1.2065 C   0  0  0  0  0  0  0  0  0  0  0  0
   -1.7870   -1.7483   -0.6989 C   0  0  0  0  0  0  0  0  0  0  0  0
    0.9536    0.0928   -0.5567 C   0  0  0  0  0  0  0  0  0  0  0  0
    1.1998    1.4081   -2.6485 C   0  0  0  0  0  0  0  0  0  0  0  0
    0.5034    0.2566    0.8589 C   0  0  0  0  0  0  0  0  0  0  0  0
   -4.8610   -0.4902   -0.3245 C   0  0  0  0  0  0  0  0  0  0  0  0
   -1.0323    3.6730    1.4139 C   0  0  0  0  0  0  0  0  0  0  0  0
   -1.2927   -2.8118   -1.6270 C   0  0  0  0  0  0  0  0  0  0  0  0
    2.4008    1.9830   -1.9679 C   0  0  0  0  0  0  0  0  0  0  0  0
    1.3151   -0.1453    1.8462 C   0  0  0  0  0  0  0  0  0  0  0  0
   -5.8536   -1.0328    0.6642 C   0  0  0  0  0  0  0  0  0  0  0  0
   -0.6641    4.9454    1.1712 C   0  0  0  0  0  0  0  0  0  0  0  0
   -0.4917   -3.8532   -1.3318 C   0  0  0  0  0  0  0  0  0  0  0  0
    3.6872    1.6163   -2.1225 C   0  0  0  0  0  0  0  0  0  0  0  0
    2.6423   -0.7469    1.6128 C   0  0  0  0  0  0  0  0  0  0  0  0
   -6.2879   -2.3018    0.7835 C   0  0  0  0  0  0  0  0  0  0  0  0
   -1.3951    5.7683    0.1440 C   0  0  0  0  0  0  0  0  0  0  0  0
    0.4538    5.6696    1.8663 C   0  0  0  0  0  0  0  0  0  0  0  0
   -0.0278   -4.8926   -2.3124 C   0  0  0  0  0  0  0  0  0  0  0  0
    0.0052   -4.0587    0.0745 C   0  0  0  0  0  0  0  0  0  0  0  0
    4.0567    0.5148   -3.0801 C   0  0  0  0  0  0  0  0  0  0  0  0
    4.8547    2.2349   -1.4072 C   0  0  0  0  0  0  0  0  0  0  0  0
    2.7662   -2.1288    1.4692 C   0  0  0  0  0  0  0  0  0  0  0  0
    3.7729    0.0664    1.5355 C   0  0  0  0  0  0  0  0  0  0  0  0
   -7.2867   -2.7810    1.7985 C   0  0  0  0  0  0  0  0  0  0  0  0
   -5.7848   -3.3714   -0.1487 C   0  0  0  0  0  0  0  0  0  0  0  0
    4.0206   -2.6975    1.2482 C   0  0  0  0  0  0  0  0  0  0  0  0
    5.0273   -0.5022    1.3147 C   0  0  0  0  0  0  0  0  0  0  0  0
    5.1512   -1.8842    1.1709 C   0  0  0  0  0  0  0  0  0  0  0  0
  1 12  2  0
  2 16  2  0
  3 18  2  0
  4 25  1  0
  5 42  1  0
  6 44  1  0
  7  8  1  0
  7  9  1  0
  7 13  1  0
  7 15  1  0
  8 12  1  0
  8 14  1  0
  8 16  1  0
  9 11  1  0
  9 17  1  0
 10 11  1  0
 10 12  1  0
 10 18  1  0
 10 19  1  0
 13 21  1  0
 14 22  1  0
 16 20  1  0
 17 23  1  0
 18 20  1  0
 19 24  1  0
 20 25  2  0
 21 26  1  0
 22 27  2  3
 23 28  2  3
 24 29  2  3
 25 30  1  0
 26 31  2  3
 27 32  1  0
 27 33  1  0
 28 34  1  0
 28 35  1  0
 29 36  1  0
 29 37  1  0
 30 38  2  0
 30 39  1  0
 31 40  1  0
 31 41  1  0
 38 42  1  0
 39 43  2  0
 42 44  2  0
 43 44  1  0
M  END
>  <PUBCHEM_COMPOUND_CID>  (1) 
3527

>  <PUBCHEM_CONFORMER_RMSD>  (1) 
1.2

>  <PUBCHEM_CONFORMER_DIVERSEORDER>  (1) 
1
111
25
186
20
66
32
123
84
144
38
54
76
141
6
164
101
147
64
33
178
187
26
133
74
86
122
134
39
124
10
51
88
22
188
183
94
106
138
16
79
162
161
168
148
40
30
47
109
82
174
171
13
131
89
149
152
78
140
120
37
65
176
96
63
125
127
113
92
184
15
156
108
137
189
23
73
177
182
192
8
3
145
52
190
72
191
57
175
14
110
172
50
53
105
169
61
142
35
49
121
128
18
28
59
58
115
116
71
42
179
36
167
46
159
163
44
31
117
91
158
160
146
77
112
193
83
95
69
118
5
43
70
173
151
130
9
136
45
103
81
75
185
24
155
68
56
170
19
104
62
97
27
34
150
17
114
99
132
165
85
153
11
12
143
181
41
119
98
29
4
93
102
80
157
67
154
166
60
55
107
129
87
100
90
21
180
139
2
48
126
135
7

>  <PUBCHEM_MMFF94_PARTIAL_CHARGES>  (1) 
49
1 -0.57
10 0.12
12 0.45
14 0.14
16 0.49
17 0.14
18 0.49
19 0.14
2 -0.57
20 0.03
21 0.14
22 -0.29
23 -0.29
24 -0.29
25 0.05
26 -0.29
27 -0.28
28 -0.28
29 -0.28
3 -0.57
30 0.03
31 -0.28
32 0.14
33 0.14
34 0.14
35 0.14
36 0.14
37 0.14
38 -0.15
39 -0.15
4 -0.53
40 0.14
41 0.14
42 0.08
43 -0.15
44 0.08
5 -0.53
6 -0.53
61 0.15
62 0.15
63 0.15
64 0.15
65 0.45
8 0.12
84 0.15
85 0.15
92 0.15
93 0.45
94 0.45

>  <PUBCHEM_EFFECTIVE_ROTOR_COUNT>  (1) 
10.6

>  <PUBCHEM_PHARMACOPHORE_FEATURES>  (1) 
14
1 1 acceptor
1 2 acceptor
1 20 anion
1 3 acceptor
1 4 donor
1 5 donor
1 6 donor
3 27 32 33 hydrophobe
3 28 34 35 hydrophobe
3 29 36 37 hydrophobe
3 31 40 41 hydrophobe
6 30 38 39 42 43 44 rings
6 7 8 9 10 11 12 rings
6 8 10 12 16 18 20 rings

>  <PUBCHEM_HEAVY_ATOM_COUNT>  (1) 
44

>  <PUBCHEM_ATOM_DEF_STEREO_COUNT>  (1) 
0

>  <PUBCHEM_ATOM_UDEF_STEREO_COUNT>  (1) 
4

>  <PUBCHEM_BOND_DEF_STEREO_COUNT>  (1) 
0

>  <PUBCHEM_BOND_UDEF_STEREO_COUNT>  (1) 
1

>  <PUBCHEM_ISOTOPIC_ATOM_COUNT>  (1) 
0

>  <PUBCHEM_COMPONENT_COUNT>  (1) 
1

>  <PUBCHEM_CACTVS_TAUTO_COUNT>  (1) 
46

>  <PUBCHEM_CONFORMER_ID>  (1) 
00000DC700000001

>  <PUBCHEM_MMFF94_ENERGY>  (1) 
150.3693

>  <PUBCHEM_FEATURE_SELFOVERLAP>  (1) 
72.331

>  <PUBCHEM_SHAPE_FINGERPRINT>  (1) 
11763715 3 18410301276388277656
12058002 1 17760629388162985933
12633046 712 18335686261986778757
12633257 1 16916767618121182211
12788726 201 18411992338003568460
13009979 54 18336544932421019783
131258 43 18410295783673049908
13726171 33 15839284826683808144
140371 6 18048592621564452933
14068700 675 18113614551858742971
14955137 171 18410284844264876283
16090146 7 17759798153193990141
19315092 285 18187086165237380380
19319366 153 17971480851377202334
21796203 349 18267042702908151715
3493558 16 17047941266575650184
3886686 26 17689997830097783470
392239 28 17704066313973961219
563151 40 17185601759156515561
6669772 16 17833830847360311001

>  <PUBCHEM_SHAPE_MULTIPOLES>  (1) 
870.28
11.14
6.96
2.86
8.76
4.64
0.63
-11.55
-3.99
0.4
-1.32
-2.23
0.08
-2

>  <PUBCHEM_SHAPE_SELFOVERLAP>  (1) 
1836.135

>  <PUBCHEM_SHAPE_VOLUME>  (1) 
485.9

>  <PUBCHEM_COORDINATE_TYPE>  (1) 
2
5
10

$$$$
