35275
     RDKit          3D

 21 22  0  0  0  0  0  0  0  0999 V2000
    1.4477    3.0943   -1.4660 Cl  0  0  0  0  0  0  0  0  0  0  0  0
   -0.9883    2.6418    0.0061 Cl  0  0  0  0  0  0  0  0  0  0  0  0
    1.4634    3.0896    1.4606 Cl  0  0  0  0  0  0  0  0  0  0  0  0
   -5.9340    1.0386    0.0042 Cl  0  0  0  0  0  0  0  0  0  0  0  0
   -0.7769   -2.5674   -0.0027 S   0  0  0  0  0  0  0  0  0  0  0  0
    4.0439   -1.1964   -0.0051 N   0  0  0  0  0  0  0  0  0  0  0  0
    2.4447    0.5190   -0.0024 N   0  0  0  0  0  0  0  0  0  0  0  0
    1.7742   -1.7849   -0.0037 N   0  0  0  0  0  0  0  0  0  0  0  0
    0.1142   -0.0522   -0.0005 N   0  0  0  0  0  0  0  0  0  0  0  0
    5.1242   -0.2603   -0.0048 C   0  0  0  0  0  0  0  0  0  0  0  0
    2.6885   -0.8015   -0.0039 C   0  0  0  0  0  0  0  0  0  0  0  0
    1.1359    0.8191   -0.0008 C   0  0  0  0  0  0  0  0  0  0  0  0
    0.5134   -1.3313   -0.0021 C   0  0  0  0  0  0  0  0  0  0  0  0
    6.4512   -0.9942    0.0160 C   0  0  0  0  0  0  0  0  0  0  0  0
   -2.2375   -1.5462   -0.0008 C   0  0  0  0  0  0  0  0  0  0  0  0
    0.7809    2.2669    0.0000 C   0  0  0  0  0  0  0  0  0  0  0  0
   -2.8097   -1.1454   -1.2079 C   0  0  0  0  0  0  0  0  0  0  0  0
   -2.8082   -1.1478    1.2080 C   0  0  0  0  0  0  0  0  0  0  0  0
   -3.9526   -0.3458   -1.2064 C   0  0  0  0  0  0  0  0  0  0  0  0
   -3.9513   -0.3483    1.2097 C   0  0  0  0  0  0  0  0  0  0  0  0
   -4.5236    0.0526    0.0024 C   0  0  0  0  0  0  0  0  0  0  0  0
  1 16  1  0
  2 16  1  0
  3 16  1  0
  4 21  1  0
  5 13  1  0
  5 15  1  0
  6 10  1  0
  6 11  1  0
  7 11  2  0
  7 12  1  0
  8 11  1  0
  8 13  2  0
  9 12  2  0
  9 13  1  0
 10 14  1  0
 12 16  1  0
 15 17  2  0
 15 18  1  0
 17 19  1  0
 18 20  2  0
 19 21  2  0
 20 21  1  0
M  END
>  <PUBCHEM_COMPOUND_CID>  (1) 
35275

>  <PUBCHEM_CONFORMER_RMSD>  (1) 
0.8

>  <PUBCHEM_CONFORMER_DIVERSEORDER>  (1) 
1
9
8
35
22
27
20
17
31
18
26
36
24
12
2
21
11
39
34
30
7
13
16
37
28
38
23
14
19
29
25
10
15
32
3
6
4
33
5

>  <PUBCHEM_MMFF94_PARTIAL_CHARGES>  (1) 
25
1 -0.29
10 0.37
11 0.72
12 0.48
13 0.72
15 0.1
16 1.01
17 -0.15
18 -0.15
19 -0.15
2 -0.29
20 -0.15
21 0.18
24 0.4
28 0.15
29 0.15
3 -0.29
30 0.15
31 0.15
4 -0.18
5 -0.2
6 -0.87
7 -0.62
8 -0.62
9 -0.62

>  <PUBCHEM_EFFECTIVE_ROTOR_COUNT>  (1) 
5

>  <PUBCHEM_PHARMACOPHORE_FEATURES>  (1) 
4
1 6 donor
4 6 7 8 11 cation
6 15 17 18 19 20 21 rings
6 7 8 9 11 12 13 rings

>  <PUBCHEM_HEAVY_ATOM_COUNT>  (1) 
21

>  <PUBCHEM_ATOM_DEF_STEREO_COUNT>  (1) 
0

>  <PUBCHEM_ATOM_UDEF_STEREO_COUNT>  (1) 
0

>  <PUBCHEM_BOND_DEF_STEREO_COUNT>  (1) 
0

>  <PUBCHEM_BOND_UDEF_STEREO_COUNT>  (1) 
0

>  <PUBCHEM_ISOTOPIC_ATOM_COUNT>  (1) 
0

>  <PUBCHEM_COMPONENT_COUNT>  (1) 
1

>  <PUBCHEM_CACTVS_TAUTO_COUNT>  (1) 
4

>  <PUBCHEM_CONFORMER_ID>  (1) 
000089CB00000001

>  <PUBCHEM_MMFF94_ENERGY>  (1) 
44.7318

>  <PUBCHEM_FEATURE_SELFOVERLAP>  (1) 
20.297

>  <PUBCHEM_SHAPE_FINGERPRINT>  (1) 
10165383 225 17095243588722054387
10366900 7 17240474841087356819
104564 63 18267022760841881937
10906281 52 18340785792267852438
11578080 2 13986386646002164116
12011746 2 18411698755640176527
12166972 35 18131064987193054683
12236239 1 17775282747082562295
12507557 5 18411141350911904515
12596599 1 17703241714390600671
12760667 363 18339920408166769962
12788726 201 18263922151406058506
12838862 33 18266722628822967873
13134695 92 18272649095022439504
13140716 1 18267306615077714939
13402501 40 18334290925653904413
13583140 156 14045737123590869078
14466204 15 18337389323371351681
14790565 3 18410019827302598580
15042514 8 18120370952765695498
15099037 51 18409729568927707751
15238133 3 18260842457711613149
15295992 7 18336271236331773947
1601671 61 18411699872469063918
16087824 20 18264208002849675965
17357779 13 18411127018152220700
17492 89 17982161533168527839
17980427 23 17060068063611640504
192875 21 17988928885766565625
20600515 1 18339657697606204974
20671657 1 18196373851515337197
21029758 11 18342736321489595096
21236236 1 18340769217909825408
21298829 104 18058171631638696329
21641784 216 18115605750986213620
23175994 123 18260554411081738831
23402539 116 18343860013593765798
23557571 272 18271815558535594574
23559900 14 18338791320565785041
314173 85 18201164282566225998
335352 9 18410573989504558079
34934 24 18410851049587899034
3524813 1 18040707053129578799
59755656 215 18340211770147750838
6328613 192 18341618156982870136
68521 5 18409730621711270124
69474 34 18343295985861665448
7226269 152 18261109673682023314
81228 2 18194703474763126418
9971528 1 18201432610431558040
9981440 41 17264107953919390249

>  <PUBCHEM_SHAPE_MULTIPOLES>  (1) 
423.57
10.99
3.32
1.12
3.38
2.6
0
-2.87
0.03
1.34
0
-0.6
0.49
0

>  <PUBCHEM_SHAPE_SELFOVERLAP>  (1) 
835.015

>  <PUBCHEM_SHAPE_VOLUME>  (1) 
254.1

>  <PUBCHEM_COORDINATE_TYPE>  (1) 
2
5
10

$$$$
