35283
     RDKit          3D

 12 12  0  0  0  0  0  0  0  0999 V2000
   -2.0824    2.3316    0.0004 O   0  0  0  0  0  0  0  0  0  0  0  0
   -0.5103   -1.2103    0.2072 N   0  0  0  0  0  0  0  0  0  0  0  0
   -0.2377    1.1003    0.4430 N   0  0  0  0  0  0  0  0  0  0  0  0
   -2.3897    0.1030   -0.2343 N   0  0  0  0  0  0  0  0  0  0  0  0
   -2.4764   -2.2546   -0.4189 N   0  0  0  0  0  0  0  0  0  0  0  0
    2.5996   -0.2798   -0.3322 C   0  0  0  0  0  0  0  0  0  0  0  0
    1.6796   -0.3057    0.8941 C   0  0  0  0  0  0  0  0  0  0  0  0
    2.5372    1.0685   -1.0540 C   0  0  0  0  0  0  0  0  0  0  0  0
    4.0400   -0.5786    0.0857 C   0  0  0  0  0  0  0  0  0  0  0  0
    0.2536   -0.1062    0.4974 C   0  0  0  0  0  0  0  0  0  0  0  0
   -1.8298   -1.0779   -0.1565 C   0  0  0  0  0  0  0  0  0  0  0  0
   -1.5838    1.2097    0.0682 C   0  0  0  0  0  0  0  0  0  0  0  0
  1 12  2  0
  2 10  1  0
  2 11  1  0
  3 10  2  0
  3 12  1  0
  4 11  2  0
  4 12  1  0
  5 11  1  0
  6  7  1  0
  6  8  1  0
  6  9  1  0
  7 10  1  0
M  END
>  <PUBCHEM_COMPOUND_CID>  (1) 
35283

>  <PUBCHEM_CONFORMER_RMSD>  (1) 
0.6

>  <PUBCHEM_CONFORMER_DIVERSEORDER>  (1) 
1
4
2
3

>  <PUBCHEM_MMFF94_PARTIAL_CHARGES>  (1) 
12
1 -0.57
10 0.44
11 0.55
12 0.99
2 -0.5
22 0.4
23 0.4
24 0.4
3 -0.66
4 -0.66
5 -0.85
7 0.06

>  <PUBCHEM_EFFECTIVE_ROTOR_COUNT>  (1) 
2

>  <PUBCHEM_PHARMACOPHORE_FEATURES>  (1) 
7
1 1 acceptor
1 2 donor
1 3 donor
1 4 donor
1 5 donor
3 6 8 9 hydrophobe
6 2 3 4 10 11 12 rings

>  <PUBCHEM_HEAVY_ATOM_COUNT>  (1) 
12

>  <PUBCHEM_ATOM_DEF_STEREO_COUNT>  (1) 
0

>  <PUBCHEM_ATOM_UDEF_STEREO_COUNT>  (1) 
0

>  <PUBCHEM_BOND_DEF_STEREO_COUNT>  (1) 
0

>  <PUBCHEM_BOND_UDEF_STEREO_COUNT>  (1) 
0

>  <PUBCHEM_ISOTOPIC_ATOM_COUNT>  (1) 
0

>  <PUBCHEM_COMPONENT_COUNT>  (1) 
1

>  <PUBCHEM_CACTVS_TAUTO_COUNT>  (1) 
17

>  <PUBCHEM_CONFORMER_ID>  (1) 
000089D300000001

>  <PUBCHEM_MMFF94_ENERGY>  (1) 
28.7876

>  <PUBCHEM_FEATURE_SELFOVERLAP>  (1) 
35.715

>  <PUBCHEM_SHAPE_FINGERPRINT>  (1) 
12138202 97 18271240500204254439
12716758 59 18270959051023695178
12897270 3 18411139181647139910
12932764 1 18341061773912605416
13024252 1 17530970185126720347
15775835 57 17968665904205279612
161256 15 18055065729563005377
16945 1 18411971451814465075
20645476 183 18115301177232083991
20645477 56 18341051809367322344
20645477 70 16970248126075126511
20653085 51 18188788144923314376
20871998 184 18202565102849715903
20871998 22 17981599678594738475
21040471 1 18196641896345610681
21524375 3 18044659689704381425
23402539 116 18270951367633313893
23552423 10 18333447629846529458
23557571 272 18131636699022249296
23559900 14 18058444310769985938
2748010 2 18052237777472352755
3248919 1 17603588556075620922
9939556 21 18334018268054797396

>  <PUBCHEM_SHAPE_MULTIPOLES>  (1) 
221.16
5.25
1.89
0.83
3.8
0.2
-0.02
-0.76
-0.76
-1.84
-0.21
0.36
0.05
-0.56

>  <PUBCHEM_SHAPE_SELFOVERLAP>  (1) 
445.19

>  <PUBCHEM_SHAPE_VOLUME>  (1) 
128.2

>  <PUBCHEM_COORDINATE_TYPE>  (1) 
2
5
10

$$$$
