35299
     RDKit          3D

 17 18  0  0  0  0  0  0  0  0999 V2000
    4.5379    1.9377    0.4870 Cl  0  0  0  0  0  0  0  0  0  0  0  0
    2.9459   -2.7959   -0.9701 Cl  0  0  0  0  0  0  0  0  0  0  0  0
   -2.6473    2.0347   -0.1175 O   0  0  0  0  0  0  0  0  0  0  0  0
   -0.2503    0.6893    0.4870 N   0  0  0  0  0  0  0  0  0  0  0  0
    1.2933   -0.9377   -0.1976 N   0  0  0  0  0  0  0  0  0  0  0  0
    2.0276    1.2456    0.4746 N   0  0  0  0  0  0  0  0  0  0  0  0
    3.6313   -0.3983   -0.2209 N   0  0  0  0  0  0  0  0  0  0  0  0
   -1.4744   -0.0029    0.3618 C   0  0  0  0  0  0  0  0  0  0  0  0
   -2.6511    0.6835    0.0614 C   0  0  0  0  0  0  0  0  0  0  0  0
   -1.5003   -1.3861    0.5410 C   0  0  0  0  0  0  0  0  0  0  0  0
   -3.8534   -0.0133   -0.0597 C   0  0  0  0  0  0  0  0  0  0  0  0
   -2.7028   -2.0827    0.4199 C   0  0  0  0  0  0  0  0  0  0  0  0
   -3.8793   -1.3964    0.1196 C   0  0  0  0  0  0  0  0  0  0  0  0
    1.0844    0.3153    0.2435 C   0  0  0  0  0  0  0  0  0  0  0  0
   -2.4250    2.5116   -1.4429 C   0  0  0  0  0  0  0  0  0  0  0  0
    3.2752    0.8187    0.2209 C   0  0  0  0  0  0  0  0  0  0  0  0
    2.5884   -1.2232   -0.4079 C   0  0  0  0  0  0  0  0  0  0  0  0
  1 16  1  0
  2 17  1  0
  3  9  1  0
  3 15  1  0
  4  8  1  0
  4 14  1  0
  5 14  2  0
  5 17  1  0
  6 14  1  0
  6 16  2  0
  7 16  1  0
  7 17  2  0
  8  9  2  0
  8 10  1  0
  9 11  1  0
 10 12  2  0
 11 13  2  0
 12 13  1  0
M  END
>  <PUBCHEM_COMPOUND_CID>  (1) 
35299

>  <PUBCHEM_CONFORMER_RMSD>  (1) 
0.6

>  <PUBCHEM_CONFORMER_DIVERSEORDER>  (1) 
1
14
12
17
2
15
13
16
4
3
7
8
9
10
11
5
6

>  <PUBCHEM_MMFF94_PARTIAL_CHARGES>  (1) 
22
1 -0.18
10 -0.15
11 -0.15
12 -0.15
13 -0.15
14 0.72
15 0.28
16 0.8
17 0.8
18 0.15
19 0.4
2 -0.18
20 0.15
21 0.15
22 0.15
3 -0.36
4 -0.6
5 -0.62
6 -0.62
7 -0.62
8 0.1
9 0.08

>  <PUBCHEM_EFFECTIVE_ROTOR_COUNT>  (1) 
3

>  <PUBCHEM_PHARMACOPHORE_FEATURES>  (1) 
5
1 3 acceptor
1 4 donor
4 4 5 6 14 cation
6 5 6 7 14 16 17 rings
6 8 9 10 11 12 13 rings

>  <PUBCHEM_HEAVY_ATOM_COUNT>  (1) 
17

>  <PUBCHEM_ATOM_DEF_STEREO_COUNT>  (1) 
0

>  <PUBCHEM_ATOM_UDEF_STEREO_COUNT>  (1) 
0

>  <PUBCHEM_BOND_DEF_STEREO_COUNT>  (1) 
0

>  <PUBCHEM_BOND_UDEF_STEREO_COUNT>  (1) 
0

>  <PUBCHEM_ISOTOPIC_ATOM_COUNT>  (1) 
0

>  <PUBCHEM_COMPONENT_COUNT>  (1) 
1

>  <PUBCHEM_CACTVS_TAUTO_COUNT>  (1) 
3

>  <PUBCHEM_CONFORMER_ID>  (1) 
000089E300000001

>  <PUBCHEM_MMFF94_ENERGY>  (1) 
59.7379

>  <PUBCHEM_FEATURE_SELFOVERLAP>  (1) 
25.371

>  <PUBCHEM_SHAPE_FINGERPRINT>  (1) 
10498660 4 18040988502194489533
10608611 8 18410572877166154240
10922523 26 18409170978302489527
11715629 250 18334573529578993284
11759241 127 18262798604640205524
12173636 292 18261387781261871429
13296908 3 18272654510854640086
15196674 1 18413109480503561035
15219456 202 18413389834440741490
15375358 24 18337953492842472298
15375462 6 18412828014158697204
15442244 35 18126854793824340914
15961568 22 17895759637900251748
17834074 16 18412829092100750659
18186145 218 18193839245306236873
19049666 15 18339924809679475747
200 152 17632294614196103891
20279233 1 18410860992215104170
20510252 161 18410855447781635833
20645477 56 18334578993067842973
20645477 70 17846785079121287654
20693207 138 18269007413763700622
221490 88 18341059544856733830
22943178 12 18411981330186569670
23402539 116 18115857667491284651
23557571 272 18186802486910726973
23559900 14 18198338460341937834
2748010 2 18411985732359405398
2871803 45 18410009970120448183
4028521 119 18187072945791935701
4214541 1 18409448064049561400
5104073 3 18411421704358546858
58051976 378 18337106873278666188
69090 78 18413668011384008047
7364860 26 18272655628089631386
81228 2 18187373146736665441
9709674 26 18411142436969106306

>  <PUBCHEM_SHAPE_MULTIPOLES>  (1) 
327.8
8.41
2.8
0.89
2.81
0.28
0.22
-0.78
-0.01
0.45
0.83
-0.07
-0.15
1.86

>  <PUBCHEM_SHAPE_SELFOVERLAP>  (1) 
679.19

>  <PUBCHEM_SHAPE_VOLUME>  (1) 
187.3

>  <PUBCHEM_COORDINATE_TYPE>  (1) 
2
5
10

$$$$
