35304
     RDKit          3D

 12 12  0  0  0  0  0  0  0  0999 V2000
   -2.4294   -2.7776    0.9645 Br  0  0  0  0  0  0  0  0  0  0  0  0
    2.1515    0.3977    0.1114 N   0  0  0  0  0  0  0  0  0  0  0  0
    0.1374   -0.7348   -0.2883 N   0  0  0  0  0  0  0  0  0  0  0  0
    0.1509    1.6193    0.1758 N   0  0  0  0  0  0  0  0  0  0  0  0
   -1.9264    0.4879   -0.2275 N   0  0  0  0  0  0  0  0  0  0  0  0
   -1.8821    2.7874    0.2303 N   0  0  0  0  0  0  0  0  0  0  0  0
    2.9431   -0.7969   -0.0526 C   0  0  0  0  0  0  0  0  0  0  0  0
    0.7702    0.4286   -0.0045 C   0  0  0  0  0  0  0  0  0  0  0  0
    4.4155   -0.4751    0.1177 C   0  0  0  0  0  0  0  0  0  0  0  0
   -1.1978   -0.6292   -0.3838 C   0  0  0  0  0  0  0  0  0  0  0  0
   -1.1852    1.5727    0.0501 C   0  0  0  0  0  0  0  0  0  0  0  0
   -1.9479   -1.8800   -0.6930 C   0  0  0  0  0  0  0  0  0  0  0  0
  1 12  1  0
  2  7  1  0
  2  8  1  0
  3  8  2  0
  3 10  1  0
  4  8  1  0
  4 11  2  0
  5 10  2  0
  5 11  1  0
  6 11  1  0
  7  9  1  0
 10 12  1  0
M  END
>  <PUBCHEM_COMPOUND_CID>  (1) 
35304

>  <PUBCHEM_CONFORMER_RMSD>  (1) 
0.6

>  <PUBCHEM_CONFORMER_DIVERSEORDER>  (1) 
1
14
16
5
9
15
12
11
13
10
2
18
6
8
17
4
7
3

>  <PUBCHEM_MMFF94_PARTIAL_CHARGES>  (1) 
14
1 -0.23
10 0.48
11 0.72
12 0.37
15 0.4
2 -0.87
21 0.4
22 0.4
3 -0.62
4 -0.62
5 -0.62
6 -0.9
7 0.37
8 0.72

>  <PUBCHEM_EFFECTIVE_ROTOR_COUNT>  (1) 
3

>  <PUBCHEM_PHARMACOPHORE_FEATURES>  (1) 
6
1 1 hydrophobe
1 2 donor
1 6 donor
4 2 3 4 8 cation
4 4 5 6 11 cation
6 3 4 5 8 10 11 rings

>  <PUBCHEM_HEAVY_ATOM_COUNT>  (1) 
12

>  <PUBCHEM_ATOM_DEF_STEREO_COUNT>  (1) 
0

>  <PUBCHEM_ATOM_UDEF_STEREO_COUNT>  (1) 
0

>  <PUBCHEM_BOND_DEF_STEREO_COUNT>  (1) 
0

>  <PUBCHEM_BOND_UDEF_STEREO_COUNT>  (1) 
0

>  <PUBCHEM_ISOTOPIC_ATOM_COUNT>  (1) 
0

>  <PUBCHEM_COMPONENT_COUNT>  (1) 
1

>  <PUBCHEM_CACTVS_TAUTO_COUNT>  (1) 
9

>  <PUBCHEM_CONFORMER_ID>  (1) 
000089E800000001

>  <PUBCHEM_MMFF94_ENERGY>  (1) 
26.9482

>  <PUBCHEM_FEATURE_SELFOVERLAP>  (1) 
30.488

>  <PUBCHEM_SHAPE_FINGERPRINT>  (1) 
11357001 24 18408888429652682691
13380535 76 18127124169609088478
16945 1 18411983529035836445
17841504 4 17832713739731135907
19021347 4 18122911927926115897
20645476 183 17973185949198954374
20645477 70 17471557206964232687
20711985 344 18338780269804537539
20871998 184 18202002135679508718
20871998 22 18050005785663026707
21524375 3 17838327489314215357
23402539 116 18271792485502016005
23500284 5 18334012825967762906
23552423 10 18334291015557787772
23559900 14 18057881343705299486
2748010 2 18125145276497110989
3071541 236 18264757779662685137
3312278 4 18334289885881512850
81228 2 18411125944547540097

>  <PUBCHEM_SHAPE_MULTIPOLES>  (1) 
227.99
5.32
2.88
0.77
6.51
1.03
0.04
-3.84
0.54
-2.92
0.63
-0.38
-0.31
0.27

>  <PUBCHEM_SHAPE_SELFOVERLAP>  (1) 
441.767

>  <PUBCHEM_SHAPE_VOLUME>  (1) 
141.4

>  <PUBCHEM_COORDINATE_TYPE>  (1) 
2
5
10

$$$$
