35318
     RDKit          3D

 23 25  0  0  0  0  0  0  0  0999 V2000
   -0.6445    2.1643    0.0027 O   0  0  0  0  0  0  0  0  0  0  0  0
   -0.1913   -2.4396    0.0018 O   0  0  0  0  0  0  0  0  0  0  0  0
   -4.4417   -0.5340    0.0047 N   0  0  0  0  0  0  0  0  0  0  0  0
   -2.3190   -1.5305    0.0022 N   0  0  0  0  0  0  0  0  0  0  0  0
   -2.5540    0.8575    0.0025 N   0  0  0  0  0  0  0  0  0  0  0  0
   -0.3684   -0.1330    0.0002 N   0  0  0  0  0  0  0  0  0  0  0  0
   -5.3309    0.5850    0.0058 C   0  0  0  0  0  0  0  0  0  0  0  0
   -3.0366   -0.3955    0.0029 C   0  0  0  0  0  0  0  0  0  0  0  0
   -6.7705    0.1082   -0.0148 C   0  0  0  0  0  0  0  0  0  0  0  0
   -1.2162    0.9030    0.0010 C   0  0  0  0  0  0  0  0  0  0  0  0
   -0.9925   -1.3218    0.0007 C   0  0  0  0  0  0  0  0  0  0  0  0
    0.7143    2.2429    0.0012 C   0  0  0  0  0  0  0  0  0  0  0  0
    1.1719   -2.2371    0.0003 C   0  0  0  0  0  0  0  0  0  0  0  0
    1.4092    2.2855   -1.2076 C   0  0  0  0  0  0  0  0  0  0  0  0
    1.4121    2.2800    1.2083 C   0  0  0  0  0  0  0  0  0  0  0  0
    1.8459   -2.1351    1.2075 C   0  0  0  0  0  0  0  0  0  0  0  0
    1.8436   -2.1381   -1.2084 C   0  0  0  0  0  0  0  0  0  0  0  0
    2.8017    2.3652   -1.2092 C   0  0  0  0  0  0  0  0  0  0  0  0
    2.8047    2.3597    1.2068 C   0  0  0  0  0  0  0  0  0  0  0  0
    3.2255   -1.9291    1.2059 C   0  0  0  0  0  0  0  0  0  0  0  0
    3.2232   -1.9322   -1.2099 C   0  0  0  0  0  0  0  0  0  0  0  0
    3.4995    2.4022   -0.0020 C   0  0  0  0  0  0  0  0  0  0  0  0
    3.9141   -1.8276   -0.0027 C   0  0  0  0  0  0  0  0  0  0  0  0
  1 10  1  0
  1 12  1  0
  2 11  1  0
  2 13  1  0
  3  7  1  0
  3  8  1  0
  4  8  2  0
  4 11  1  0
  5  8  1  0
  5 10  2  0
  6 10  1  0
  6 11  2  0
  7  9  1  0
 12 14  2  0
 12 15  1  0
 13 16  2  0
 13 17  1  0
 14 18  1  0
 15 19  2  0
 16 20  1  0
 17 21  2  0
 18 22  2  0
 19 22  1  0
 20 23  2  0
 21 23  1  0
M  END
>  <PUBCHEM_COMPOUND_CID>  (1) 
35318

>  <PUBCHEM_CONFORMER_RMSD>  (1) 
0.8

>  <PUBCHEM_CONFORMER_DIVERSEORDER>  (1) 
1
59
2
81
22
3
82
69
21
30
42
85
46
10
76
88
32
49
80
5
66
72
34
28
87
41
26
51
17
74
53
61
43
33
38
68
36
12
24
65
40
48
67
62
73
7
55
6
71
89
83
75
64
9
8
47
58
20
86
79
25
63
15
52
50
13
70
19
27
23
14
77
16
57
84
44
60
31
54
18
35
39
45
11
78
56
4
29
37

>  <PUBCHEM_MMFF94_PARTIAL_CHARGES>  (1) 
33
1 -0.17
10 0.7
11 0.7
12 0.08
13 0.08
14 -0.15
15 -0.15
16 -0.15
17 -0.15
18 -0.15
19 -0.15
2 -0.17
20 -0.15
21 -0.15
22 -0.15
23 -0.15
26 0.4
3 -0.87
30 0.15
31 0.15
32 0.15
33 0.15
34 0.15
35 0.15
36 0.15
37 0.15
38 0.15
39 0.15
4 -0.62
5 -0.62
6 -0.62
7 0.37
8 0.72

>  <PUBCHEM_EFFECTIVE_ROTOR_COUNT>  (1) 
6

>  <PUBCHEM_PHARMACOPHORE_FEATURES>  (1) 
5
1 3 donor
4 3 4 5 8 cation
6 12 14 15 18 19 22 rings
6 13 16 17 20 21 23 rings
6 4 5 6 8 10 11 rings

>  <PUBCHEM_HEAVY_ATOM_COUNT>  (1) 
23

>  <PUBCHEM_ATOM_DEF_STEREO_COUNT>  (1) 
0

>  <PUBCHEM_ATOM_UDEF_STEREO_COUNT>  (1) 
0

>  <PUBCHEM_BOND_DEF_STEREO_COUNT>  (1) 
0

>  <PUBCHEM_BOND_UDEF_STEREO_COUNT>  (1) 
0

>  <PUBCHEM_ISOTOPIC_ATOM_COUNT>  (1) 
0

>  <PUBCHEM_COMPONENT_COUNT>  (1) 
1

>  <PUBCHEM_CACTVS_TAUTO_COUNT>  (1) 
3

>  <PUBCHEM_CONFORMER_ID>  (1) 
000089F600000001

>  <PUBCHEM_MMFF94_ENERGY>  (1) 
74.6133

>  <PUBCHEM_FEATURE_SELFOVERLAP>  (1) 
25.373

>  <PUBCHEM_SHAPE_FINGERPRINT>  (1) 
10498660 4 17978232656057348566
1100329 8 18409446998760983202
11680986 33 18336272339869440987
11963148 33 17831293166556267027
12166972 35 17678184802045309270
12422481 6 18193807484677289640
12592029 89 18119254101885518963
12838862 33 18338782512337037908
13140716 1 18410007771318914371
133893 2 18191330258519288584
13533116 47 18272651255860351617
14022349 108 18410578404894345203
14931854 50 18265922219028513628
17093844 170 18337957912780817580
17492 54 18188795889329370910
18785283 64 18334017215798469861
20554085 129 17916294125434032080
20612939 158 18410573977526926301
20645477 70 18410855469129676597
20691752 17 17531235210226063623
20905425 154 18340775939591529774
21421861 104 18341908354552875489
22182313 1 18041541569602294741
23352939 185 18129953277905734674
23419403 2 17897420861949728934
23557571 272 18054511296841312630
23559900 14 18335988635509181151
25147074 1 18200868583011486519
3411729 13 18337106868751876288
350125 39 18337675192416610693
42630746 31 18411134758015415285
5104073 3 18410022044423160739
513532 50 17489590095154137596
5265222 85 17617388715906758220
5895379 119 16986896548594636401
5939293 188 18412821387483225234
59755656 215 18409732884542279061
6443956 14 18412543180544421952
7364860 26 18343021107627582464
7495541 125 17967821522567802875
81228 2 17835533617309171434
9925002 15 17699815666144659238

>  <PUBCHEM_SHAPE_MULTIPOLES>  (1) 
441.67
9.3
3.88
1.14
19.2
0.73
0
-0.34
0.02
-5
0
-1.24
0.08
0

>  <PUBCHEM_SHAPE_SELFOVERLAP>  (1) 
953.608

>  <PUBCHEM_SHAPE_VOLUME>  (1) 
237.5

>  <PUBCHEM_COORDINATE_TYPE>  (1) 
2
5
10

$$$$
