35319
     RDKit          3D

 15 16  0  0  1  0  0  0  0  0999 V2000
   -2.3054   -1.4984    0.7552 O   0  0  0  0  0  0  0  0  0  0  0  0
   -0.5947    1.4723   -0.5546 O   0  0  0  0  0  0  0  0  0  0  0  0
    1.0365   -0.9964   -0.4262 O   0  0  0  0  0  0  0  0  0  0  0  0
    0.4064    3.4827   -0.8691 O   0  0  0  0  0  0  0  0  0  0  0  0
    2.8911   -1.6475    0.7878 O   0  0  0  0  0  0  0  0  0  0  0  0
   -1.8135   -0.5598   -0.1985 C   0  0  0  0  0  0  0  0  0  0  0  0
   -3.2236   -0.5041    0.2834 C   0  0  0  0  0  0  0  0  0  0  0  0
   -0.7984    0.3851    0.3760 C   0  0  0  0  0  0  0  0  0  0  0  0
    0.5297   -0.2947    0.7048 C   0  0  0  0  0  0  0  0  0  0  0  0
   -4.3073   -1.0482   -0.5667 C   0  0  0  0  0  0  0  0  0  0  0  0
    1.5178    0.7531    1.0968 C   0  0  0  0  0  0  0  0  0  0  0  0
    0.3711    2.3964   -0.3018 C   0  0  0  0  0  0  0  0  0  0  0  0
    1.4173    2.0146    0.6659 C   0  0  0  0  0  0  0  0  0  0  0  0
    2.2332   -1.6316   -0.2437 C   0  0  0  0  0  0  0  0  0  0  0  0
    2.6399   -2.3236   -1.5093 C   0  0  0  0  0  0  0  0  0  0  0  0
  1  6  1  0
  1  7  1  0
  2  8  1  0
  2 12  1  0
  3  9  1  0
  3 14  1  0
  4 12  2  0
  5 14  2  0
  6  7  1  0
  6  8  1  0
  7 10  1  0
  8  9  1  0
  9 11  1  0
 11 13  2  0
 12 13  1  0
 14 15  1  0
M  END
>  <PUBCHEM_COMPOUND_CID>  (1) 
35319

>  <PUBCHEM_CONFORMER_RMSD>  (1) 
0.6

>  <PUBCHEM_CONFORMER_DIVERSEORDER>  (1) 
1
87
17
149
137
10
187
131
89
143
189
76
79
60
157
178
73
93
168
31
158
155
5
167
183
132
69
122
148
163
49
114
125
12
18
128
110
104
179
138
21
40
33
172
106
153
169
133
88
16
127
175
42
130
173
83
59
99
151
190
188
135
182
103
180
68
117
37
108
174
181
23
111
3
75
166
70
170
84
156
54
121
139
109
176
124
13
62
34
120
85
134
113
186
126
38
20
116
160
29
77
144
47
6
43
100
24
51
27
146
65
141
165
50
44
91
159
46
15
36
154
81
107
129
184
142
4
102
164
66
101
53
28
26
25
123
72
152
118
63
22
45
177
98
96
48
19
90
136
57
94
61
112
150
9
11
92
39
95
140
171
185
55
35
80
8
82
161
58
71
119
74
162
86
14
2
97
30
147
115
64
52
67
41
78
7
32
145
105
56

>  <PUBCHEM_MMFF94_PARTIAL_CHARGES>  (1) 
19
1 -0.3
10 0.09
11 -0.29
12 0.71
13 -0.14
14 0.66
15 0.06
16 0.1
17 0.1
2 -0.43
23 0.15
24 0.15
3 -0.43
4 -0.57
5 -0.57
6 -0.05
7 -0.05
8 0.38
9 0.42

>  <PUBCHEM_EFFECTIVE_ROTOR_COUNT>  (1) 
4.2

>  <PUBCHEM_PHARMACOPHORE_FEATURES>  (1) 
4
1 1 acceptor
1 4 acceptor
1 5 acceptor
6 2 8 9 11 12 13 rings

>  <PUBCHEM_HEAVY_ATOM_COUNT>  (1) 
15

>  <PUBCHEM_ATOM_DEF_STEREO_COUNT>  (1) 
0

>  <PUBCHEM_ATOM_UDEF_STEREO_COUNT>  (1) 
4

>  <PUBCHEM_BOND_DEF_STEREO_COUNT>  (1) 
0

>  <PUBCHEM_BOND_UDEF_STEREO_COUNT>  (1) 
0

>  <PUBCHEM_ISOTOPIC_ATOM_COUNT>  (1) 
0

>  <PUBCHEM_COMPONENT_COUNT>  (1) 
1

>  <PUBCHEM_CACTVS_TAUTO_COUNT>  (1) 
1

>  <PUBCHEM_CONFORMER_ID>  (1) 
000089F700000001

>  <PUBCHEM_MMFF94_ENERGY>  (1) 
31.2646

>  <PUBCHEM_FEATURE_SELFOVERLAP>  (1) 
20.298

>  <PUBCHEM_SHAPE_FINGERPRINT>  (1) 
1 1 17977947109166778444
11322862 65 17191528705996217847
116883 192 18339916009756054269
12138202 78 18410006667248146265
12138202 97 17330002295973807462
12346645 6 18195802088463175681
12716758 59 17474948727725209146
12725867 57 18410572898619839788
14648413 74 18190182480433733323
14817 1 11321262788773586736
161256 15 18411695482896306472
16945 1 18045206391653856929
17990270 104 18335978787302119747
18380122 1 18057587803590480730
20339313 130 18410584989169049475
20645477 70 18341323500925731327
20671657 53 18410007711268285515
20711985 344 18047755897056904315
20871998 22 18342738468641199994
21524375 3 17252300311581616161
21665056 4 16684305240408193374
23419403 2 17971158566001131228
23557571 272 18267867181957075018
2748010 2 18338220583931438941
298252 57 17542226104640857208
3060560 45 18122905601334079996
576247 118 18339938003856146590
6049 1 17749959976651077355
7364860 26 18269838781898261193
81228 2 18050295773185576112
81539 233 18046059625451032716

>  <PUBCHEM_SHAPE_MULTIPOLES>  (1) 
279.35
5.04
3.15
1.08
5.38
2.01
0.09
-4.19
0.39
-2.42
1.19
-0.49
-0.11
0.58

>  <PUBCHEM_SHAPE_SELFOVERLAP>  (1) 
576.826

>  <PUBCHEM_SHAPE_VOLUME>  (1) 
159.7

>  <PUBCHEM_COORDINATE_TYPE>  (1) 
2
5
10

$$$$
