35314
     RDKit          3D

 15 15  0  0  0  0  0  0  0  0999 V2000
   -1.7152    3.9553    0.5737 Cl  0  0  0  0  0  0  0  0  0  0  0  0
   -4.5520   -2.2869   -0.2126 Cl  0  0  0  0  0  0  0  0  0  0  0  0
   -1.2585    0.0318   -0.2142 N   0  0  0  0  0  0  0  0  0  0  0  0
   -0.2879   -0.9461    0.2761 C   0  0  0  0  0  0  0  0  0  0  0  0
   -1.0016    1.3460    0.3737 C   0  0  0  0  0  0  0  0  0  0  0  0
   -2.6212   -0.4055    0.0870 C   0  0  0  0  0  0  0  0  0  0  0  0
    1.1245   -0.5568   -0.0706 C   0  0  0  0  0  0  0  0  0  0  0  0
    2.1342   -0.6455    0.8786 C   0  0  0  0  0  0  0  0  0  0  0  0
   -2.0324    2.3482   -0.1223 C   0  0  0  0  0  0  0  0  0  0  0  0
   -2.8886   -1.7563   -0.5583 C   0  0  0  0  0  0  0  0  0  0  0  0
    1.3937   -0.1084   -1.3574 C   0  0  0  0  0  0  0  0  0  0  0  0
    3.4357   -0.2796    0.5356 C   0  0  0  0  0  0  0  0  0  0  0  0
    1.8578   -1.1258    2.2655 C   0  0  0  0  0  0  0  0  0  0  0  0
    2.6954    0.2575   -1.7005 C   0  0  0  0  0  0  0  0  0  0  0  0
    3.7162    0.1720   -0.7541 C   0  0  0  0  0  0  0  0  0  0  0  0
  1  9  1  0
  2 10  1  0
  3  4  1  0
  3  5  1  0
  3  6  1  0
  4  7  1  0
  5  9  1  0
  6 10  1  0
  7  8  2  0
  7 11  1  0
  8 12  1  0
  8 13  1  0
 11 14  2  0
 12 15  2  0
 14 15  1  0
M  END
>  <PUBCHEM_COMPOUND_CID>  (1) 
35314

>  <PUBCHEM_CONFORMER_RMSD>  (1) 
0.6

>  <PUBCHEM_CONFORMER_DIVERSEORDER>  (1) 
6
36
23
27
20
18
28
39
13
37
31
38
2
26
10
30
12
3
41
19
32
14
29
8
7
1
25
21
5
22
9
11
33
15
16
4
40
17
34
35
24

>  <PUBCHEM_MMFF94_PARTIAL_CHARGES>  (1) 
19
1 -0.29
10 0.29
11 -0.15
12 -0.15
13 0.14
14 -0.15
15 -0.15
2 -0.29
26 0.15
27 0.15
3 -0.81
31 0.15
32 0.15
4 0.41
5 0.27
6 0.27
7 -0.14
8 -0.14
9 0.29

>  <PUBCHEM_EFFECTIVE_ROTOR_COUNT>  (1) 
6

>  <PUBCHEM_PHARMACOPHORE_FEATURES>  (1) 
2
1 3 cation
6 7 8 11 12 14 15 rings

>  <PUBCHEM_HEAVY_ATOM_COUNT>  (1) 
15

>  <PUBCHEM_ATOM_DEF_STEREO_COUNT>  (1) 
0

>  <PUBCHEM_ATOM_UDEF_STEREO_COUNT>  (1) 
0

>  <PUBCHEM_BOND_DEF_STEREO_COUNT>  (1) 
0

>  <PUBCHEM_BOND_UDEF_STEREO_COUNT>  (1) 
0

>  <PUBCHEM_ISOTOPIC_ATOM_COUNT>  (1) 
0

>  <PUBCHEM_COMPONENT_COUNT>  (1) 
1

>  <PUBCHEM_CACTVS_TAUTO_COUNT>  (1) 
1

>  <PUBCHEM_CONFORMER_ID>  (1) 
000089F200000006

>  <PUBCHEM_MMFF94_ENERGY>  (1) 
38.214

>  <PUBCHEM_FEATURE_SELFOVERLAP>  (1) 
10.148

>  <PUBCHEM_SHAPE_FINGERPRINT>  (1) 
11578080 2 17680107967777422580
11640471 11 17970077642670298812
12553582 1 18339918346450664167
12788726 201 18335139765831113035
13009979 54 18042669625144792274
13380536 127 18409167671140670242
13538477 17 18262794056238060113
13583140 156 17487304133476860266
13764800 53 18126575522118789721
14178342 30 18046889499127379554
14787075 74 17828477299774733904
15375462 189 18114183077233952995
15775835 57 18043261149705693052
17844478 74 16917074364453178378
18186145 218 13407060480207584407
18222031 100 18057880432734669047
200 152 17822004350136395047
20097449 115 18269550706047238529
20344682 1 17631461214167511286
20369508 70 18048020051153690279
20600515 1 18057318590534449011
20711985 344 18412831261465222241
21524375 3 17829899728545416809
22802520 49 17273146687193211212
228727 97 18186808014507178415
23402539 116 18411136960959371526
23419403 2 17903038417370335053
23557571 272 18273497870527329180
23558518 356 18190745224102689099
23598291 2 17896879855142867674
23598294 1 18411417289501398515
6049 1 17489586740520766520
621550 5 17345775069156828472
6442390 28 17625845776857827009
68521 5 18411700989545507429
6992083 37 17464800295229620770
7164475 11 18335980878830035999
7615 1 17968087565257163280
77492 1 17968097495263781958
81228 2 18272374135959152681
88987 49 18269549434135746656
9841814 1 18121769793560112691

>  <PUBCHEM_SHAPE_MULTIPOLES>  (1) 
307.45
6.74
3.05
1.45
1.76
4.18
-0.32
-3.61
1
4.85
-0.63
-1.54
-0.35
-1.07

>  <PUBCHEM_SHAPE_SELFOVERLAP>  (1) 
597.219

>  <PUBCHEM_SHAPE_VOLUME>  (1) 
187.7

>  <PUBCHEM_COORDINATE_TYPE>  (1) 
2
5
10

$$$$
