3531
     RDKit          3D

 44 46  0  0  1  0  0  0  0  0999 V2000
   -1.5941    2.2447   -1.3562 O   0  0  0  0  0  0  0  0  0  0  0  0
   -2.3229    0.3440    2.6697 O   0  0  0  0  0  0  0  0  0  0  0  0
    0.8946   -1.3829   -0.3025 O   0  0  0  0  0  0  0  0  0  0  0  0
   -0.0229   -0.1405    3.5827 O   0  0  0  0  0  0  0  0  0  0  0  0
    5.0958    0.1348    1.5478 O   0  0  0  0  0  0  0  0  0  0  0  0
    5.4943   -2.6111    1.6985 O   0  0  0  0  0  0  0  0  0  0  0  0
   -3.7299   -0.2077   -0.2249 C   0  0  0  0  0  0  0  0  0  0  0  0
   -2.6677    0.8390    0.3161 C   0  0  0  0  0  0  0  0  0  0  0  0
   -3.0522   -1.4741   -0.8868 C   0  0  0  0  0  0  0  0  0  0  0  0
   -0.8797   -0.0659   -1.2800 C   0  0  0  0  0  0  0  0  0  0  0  0
   -1.8672   -1.1160   -1.8189 C   0  0  0  0  0  0  0  0  0  0  0  0
   -1.6986    1.1369   -0.8346 C   0  0  0  0  0  0  0  0  0  0  0  0
    0.0953    0.3439   -2.3959 C   0  0  0  0  0  0  0  0  0  0  0  0
   -3.2959    2.1742    0.7787 C   0  0  0  0  0  0  0  0  0  0  0  0
   -1.8705    0.3058    1.5254 C   0  0  0  0  0  0  0  0  0  0  0  0
   -4.6098    0.4575   -1.3290 C   0  0  0  0  0  0  0  0  0  0  0  0
   -4.7228   -0.6469    0.8788 C   0  0  0  0  0  0  0  0  0  0  0  0
   -0.0651   -0.6356   -0.1198 C   0  0  0  0  0  0  0  0  0  0  0  0
   -2.6968   -2.6241    0.0689 C   0  0  0  0  0  0  0  0  0  0  0  0
   -0.5160   -0.2746    1.2588 C   0  0  0  0  0  0  0  0  0  0  0  0
    1.3324    1.0962   -1.8707 C   0  0  0  0  0  0  0  0  0  0  0  0
   -2.2403    3.0976    1.2887 C   0  0  0  0  0  0  0  0  0  0  0  0
   -2.1484   -3.7920   -0.6874 C   0  0  0  0  0  0  0  0  0  0  0  0
    2.4740    0.9370   -2.9026 C   0  0  0  0  0  0  0  0  0  0  0  0
    0.3223   -0.4710    2.2851 C   0  0  0  0  0  0  0  0  0  0  0  0
    1.0464    2.5545   -1.5226 C   0  0  0  0  0  0  0  0  0  0  0  0
   -2.2574    4.4441    1.2860 C   0  0  0  0  0  0  0  0  0  0  0  0
   -2.8365   -4.8047   -1.2481 C   0  0  0  0  0  0  0  0  0  0  0  0
    1.6798   -1.0291    2.1302 C   0  0  0  0  0  0  0  0  0  0  0  0
    3.7821    1.5239   -2.4429 C   0  0  0  0  0  0  0  0  0  0  0  0
    0.5857    3.4790   -2.6158 C   0  0  0  0  0  0  0  0  0  0  0  0
    1.2008    3.0058   -0.2665 C   0  0  0  0  0  0  0  0  0  0  0  0
   -1.1607    5.3239    1.8155 C   0  0  0  0  0  0  0  0  0  0  0  0
   -3.4431    5.1908    0.7352 C   0  0  0  0  0  0  0  0  0  0  0  0
   -4.3393   -4.8441   -1.1646 C   0  0  0  0  0  0  0  0  0  0  0  0
   -2.2258   -5.9543   -1.9983 C   0  0  0  0  0  0  0  0  0  0  0  0
    4.9349    0.8667   -2.2158 C   0  0  0  0  0  0  0  0  0  0  0  0
    2.7629   -0.1781    1.9099 C   0  0  0  0  0  0  0  0  0  0  0  0
    1.8798   -2.4076    2.2045 C   0  0  0  0  0  0  0  0  0  0  0  0
    4.0459   -0.7056    1.7639 C   0  0  0  0  0  0  0  0  0  0  0  0
    3.1628   -2.9350    2.0583 C   0  0  0  0  0  0  0  0  0  0  0  0
    6.2130    1.5091   -1.7562 C   0  0  0  0  0  0  0  0  0  0  0  0
    5.0150   -0.6246   -2.4010 C   0  0  0  0  0  0  0  0  0  0  0  0
    4.2459   -2.0840    1.8381 C   0  0  0  0  0  0  0  0  0  0  0  0
  1 12  2  0
  2 15  2  0
  3 18  2  0
  4 25  1  0
  5 40  1  0
  6 44  1  0
  7  8  1  0
  7  9  1  0
  7 16  1  0
  7 17  1  0
  8 12  1  0
  8 14  1  0
  8 15  1  0
  9 11  1  0
  9 19  1  0
 10 11  1  0
 10 12  1  0
 10 13  1  0
 10 18  1  0
 13 21  1  0
 14 22  1  0
 15 20  1  0
 18 20  1  0
 19 23  1  0
 20 25  2  0
 21 24  1  0
 21 26  1  0
 22 27  2  3
 23 28  2  3
 24 30  1  0
 25 29  1  0
 26 31  1  0
 26 32  2  0
 27 33  1  0
 27 34  1  0
 28 35  1  0
 28 36  1  0
 29 38  2  0
 29 39  1  0
 30 37  2  3
 37 42  1  0
 37 43  1  0
 38 40  1  0
 39 41  2  0
 40 44  2  0
 41 44  1  0
M  END
>  <PUBCHEM_COMPOUND_CID>  (1) 
3531

>  <PUBCHEM_CONFORMER_RMSD>  (1) 
1.2

>  <PUBCHEM_CONFORMER_DIVERSEORDER>  (1) 
3
65
201
144
103
29
152
46
92
23
191
72
38
10
96
176
117
145
95
125
164
115
79
192
52
198
50
28
181
127
140
49
41
99
26
180
97
6
190
165
5
154
196
88
128
120
32
168
137
17
134
193
195
67
61
162
31
186
44
203
126
132
161
2
157
131
16
60
142
34
109
167
63
175
39
173
19
187
58
204
118
155
124
150
81
98
200
207
55
102
148
57
112
156
151
210
86
121
172
111
129
163
20
40
178
84
91
147
170
177
106
108
7
1
138
133
149
82
206
37
90
194
47
158
185
54
48
122
146
12
78
139
69
174
199
169
43
94
166
85
105
21
189
62
209
4
159
208
83
13
70
188
114
182
153
15
80
136
25
202
30
59
143
11
100
14
184
123
197
116
75
183
35
141
135
113
51
104
71
27
171
18
107
89
160
66
74
42
179
24
93
56
87
211
8
101
68
73
9
130
77
205
33
76
110
45
64
53
22
36
119

>  <PUBCHEM_MMFF94_PARTIAL_CHARGES>  (1) 
49
1 -0.57
10 0.12
12 0.45
14 0.14
15 0.49
18 0.49
19 0.14
2 -0.57
20 0.03
21 0.14
22 -0.29
23 -0.29
24 0.14
25 0.05
26 -0.28
27 -0.28
28 -0.28
29 0.03
3 -0.57
30 -0.29
31 0.14
32 -0.3
33 0.14
34 0.14
35 0.14
36 0.14
37 -0.28
38 -0.15
39 -0.15
4 -0.53
40 0.08
41 -0.15
42 0.14
43 0.14
44 0.08
5 -0.53
6 -0.53
61 0.15
62 0.15
65 0.15
69 0.15
70 0.15
71 0.45
8 0.12
84 0.15
85 0.15
86 0.15
93 0.45
94 0.45

>  <PUBCHEM_EFFECTIVE_ROTOR_COUNT>  (1) 
10.6

>  <PUBCHEM_PHARMACOPHORE_FEATURES>  (1) 
15
1 1 acceptor
1 2 acceptor
1 20 anion
1 3 acceptor
1 4 donor
1 5 donor
1 6 donor
3 27 33 34 hydrophobe
3 28 35 36 hydrophobe
3 37 42 43 hydrophobe
3 7 16 17 hydrophobe
5 13 21 24 26 30 hydrophobe
6 29 38 39 40 41 44 rings
6 7 8 9 10 11 12 rings
6 8 10 12 15 18 20 rings

>  <PUBCHEM_HEAVY_ATOM_COUNT>  (1) 
44

>  <PUBCHEM_ATOM_DEF_STEREO_COUNT>  (1) 
0

>  <PUBCHEM_ATOM_UDEF_STEREO_COUNT>  (1) 
4

>  <PUBCHEM_BOND_DEF_STEREO_COUNT>  (1) 
0

>  <PUBCHEM_BOND_UDEF_STEREO_COUNT>  (1) 
1

>  <PUBCHEM_ISOTOPIC_ATOM_COUNT>  (1) 
0

>  <PUBCHEM_COMPONENT_COUNT>  (1) 
1

>  <PUBCHEM_CACTVS_TAUTO_COUNT>  (1) 
46

>  <PUBCHEM_CONFORMER_ID>  (1) 
00000DCB00000003

>  <PUBCHEM_MMFF94_ENERGY>  (1) 
151.4976

>  <PUBCHEM_FEATURE_SELFOVERLAP>  (1) 
77.407

>  <PUBCHEM_SHAPE_FINGERPRINT>  (1) 
11049842 53 17909283385459393966
11285246 1 17252319003073625446
11445158 3 16319148061536989705
11513181 2 18123200000099258942
11578080 2 16844453717747208945
11607047 403 17549815591463710485
11763715 3 18339353192540216739
12058002 1 17901391091991749651
12156800 1 18058731269513052976
12788726 201 18410582785998493681
14068700 675 18121200233330314834
14395042 70 16832093939935837417
14747281 78 15406677217305740369
15439362 3 16687934732660140633
15684973 49 18198336261371163967
16090146 7 18192976137779914839
20764821 26 17241064149492164422
4112364 45 17102023018263668569
44344687 77 17398125223286433955
469060 322 17051944996343903630
581034 39 18052538772880452728
6669772 16 16394350370683875481
6700243 42 17987535843226049342

>  <PUBCHEM_SHAPE_MULTIPOLES>  (1) 
870.28
9.61
6.87
3.51
10.42
0.23
-0.41
4.07
2.14
-8.54
0.3
3.49
0.19
-5.7

>  <PUBCHEM_SHAPE_SELFOVERLAP>  (1) 
1837.523

>  <PUBCHEM_SHAPE_VOLUME>  (1) 
485.6

>  <PUBCHEM_COORDINATE_TYPE>  (1) 
2
5
10

$$$$
