35321
     RDKit          3D

 16 16  0  0  0  0  0  0  0  0999 V2000
   -3.4638    2.9066    0.0082 F   0  0  0  0  0  0  0  0  0  0  0  0
    5.5635    0.1424    0.0232 O   0  0  0  0  0  0  0  0  0  0  0  0
    0.8384    1.1936   -0.0045 N   0  0  0  0  0  0  0  0  0  0  0  0
   -2.8637   -1.6847   -0.0080 N   0  0  0  0  0  0  0  0  0  0  0  0
   -0.9932   -0.2705   -0.0067 N   0  0  0  0  0  0  0  0  0  0  0  0
   -1.3216    2.1065    0.0022 N   0  0  0  0  0  0  0  0  0  0  0  0
   -3.2159    0.6337    0.0006 N   0  0  0  0  0  0  0  0  0  0  0  0
    3.2228    0.6511    0.0017 C   0  0  0  0  0  0  0  0  0  0  0  0
    1.7965    0.1138   -0.0098 C   0  0  0  0  0  0  0  0  0  0  0  0
    4.2732   -0.4533   -0.0055 C   0  0  0  0  0  0  0  0  0  0  0  0
   -0.5345    1.0040   -0.0030 C   0  0  0  0  0  0  0  0  0  0  0  0
   -2.0435   -2.8554   -0.0135 C   0  0  0  0  0  0  0  0  0  0  0  0
   -2.3319   -0.3770   -0.0045 C   0  0  0  0  0  0  0  0  0  0  0  0
   -2.8789   -4.1184    0.0232 C   0  0  0  0  0  0  0  0  0  0  0  0
    6.5914   -0.8383   -0.0074 C   0  0  0  0  0  0  0  0  0  0  0  0
   -2.6388    1.8460    0.0039 C   0  0  0  0  0  0  0  0  0  0  0  0
  1 16  1  0
  2 10  1  0
  2 15  1  0
  3  9  1  0
  3 11  1  0
  4 12  1  0
  4 13  1  0
  5 11  2  0
  5 13  1  0
  6 11  1  0
  6 16  2  0
  7 13  2  0
  7 16  1  0
  8  9  1  0
  8 10  1  0
 12 14  1  0
M  END
>  <PUBCHEM_COMPOUND_CID>  (1) 
35321

>  <PUBCHEM_CONFORMER_RMSD>  (1) 
0.8

>  <PUBCHEM_CONFORMER_DIVERSEORDER>  (1) 
1
38
54
26
74
21
5
16
46
121
110
68
112
40
8
49
88
101
57
89
61
91
24
70
94
100
71
114
86
51
84
56
118
50
69
79
83
41
105
119
28
10
20
108
30
65
14
90
109
39
35
22
58
29
27
103
115
4
97
113
80
77
15
62
116
2
122
53
102
93
32
43
82
98
72
76
47
17
36
42
55
67
45
9
13
78
87
19
23
25
60
59
52
6
120
34
95
96
18
33
111
11
106
104
64
31
117
107
92
37
66
99
81
3
73
12
48
75
85
63
7
44

>  <PUBCHEM_MMFF94_PARTIAL_CHARGES>  (1) 
16
1 -0.19
10 0.28
11 0.72
12 0.37
13 0.72
15 0.28
16 0.81
2 -0.56
23 0.4
26 0.4
3 -0.87
4 -0.87
5 -0.62
6 -0.62
7 -0.62
9 0.37

>  <PUBCHEM_EFFECTIVE_ROTOR_COUNT>  (1) 
7

>  <PUBCHEM_PHARMACOPHORE_FEATURES>  (1) 
6
1 2 acceptor
1 3 donor
1 4 donor
4 3 5 6 11 cation
4 4 5 7 13 cation
6 5 6 7 11 13 16 rings

>  <PUBCHEM_HEAVY_ATOM_COUNT>  (1) 
16

>  <PUBCHEM_ATOM_DEF_STEREO_COUNT>  (1) 
0

>  <PUBCHEM_ATOM_UDEF_STEREO_COUNT>  (1) 
0

>  <PUBCHEM_BOND_DEF_STEREO_COUNT>  (1) 
0

>  <PUBCHEM_BOND_UDEF_STEREO_COUNT>  (1) 
0

>  <PUBCHEM_ISOTOPIC_ATOM_COUNT>  (1) 
0

>  <PUBCHEM_COMPONENT_COUNT>  (1) 
1

>  <PUBCHEM_CACTVS_TAUTO_COUNT>  (1) 
9

>  <PUBCHEM_CONFORMER_ID>  (1) 
000089F900000001

>  <PUBCHEM_MMFF94_ENERGY>  (1) 
35.4491

>  <PUBCHEM_FEATURE_SELFOVERLAP>  (1) 
30.489

>  <PUBCHEM_SHAPE_FINGERPRINT>  (1) 
10616163 171 18410856577305611582
11809386 21 18187356658246810338
12500047 106 18339074895944897048
12555020 224 18337379492191256823
12757275 245 18410293627093194694
13167823 11 18260829285490118674
14508225 48 18266445680889402973
14866123 147 18411423947081210635
15042514 8 18337396053907091643
167882 2 17686611351981099885
17539 30 18340477976304129983
17859628 70 16678946843790033915
20645477 56 18338518525781497193
20645477 70 16823602974786746247
20871998 22 17835238227081299363
21065198 57 18412542107409142536
21426921 1 18410293635540633034
23402539 116 18270954648640675028
23557571 272 18273501165189303428
23559900 14 18340476880839984704
4214541 1 18410855439297208836
5104073 3 18272086128532396800
53777708 50 18263655128678229132
54173680 148 18338797935263339279
559249 180 18261388889347466282
573450 72 18261666005132714824
7062679 117 18409451418988575878
77188 2 17978511167949411677
7970288 3 17979070810357321094
9709674 26 18343588417215838022

>  <PUBCHEM_SHAPE_MULTIPOLES>  (1) 
291.22
10.96
3.63
0.58
24.25
3.08
0
3.61
-0.03
-7.08
-0.02
0.04
0.04
0.01

>  <PUBCHEM_SHAPE_SELFOVERLAP>  (1) 
571.901

>  <PUBCHEM_SHAPE_VOLUME>  (1) 
173.9

>  <PUBCHEM_COORDINATE_TYPE>  (1) 
2
5
10

$$$$
