35323
     RDKit          3D

 18 18  0  0  0  0  0  0  0  0999 V2000
   -3.8749    1.4187    1.4629 Cl  0  0  0  0  0  0  0  0  0  0  0  0
   -1.9194    2.9455   -0.0042 Cl  0  0  0  0  0  0  0  0  0  0  0  0
   -3.8753    1.4056   -1.4638 Cl  0  0  0  0  0  0  0  0  0  0  0  0
    4.1447   -0.7563   -1.4583 Cl  0  0  0  0  0  0  0  0  0  0  0  0
    4.1523   -0.7286    1.4726 Cl  0  0  0  0  0  0  0  0  0  0  0  0
    4.6589    1.7088   -0.0174 Cl  0  0  0  0  0  0  0  0  0  0  0  0
    1.8063    1.6209    0.0004 O   0  0  0  0  0  0  0  0  0  0  0  0
    1.4680   -0.6940    0.0013 N   0  0  0  0  0  0  0  0  0  0  0  0
   -0.6308    0.3354    0.0020 N   0  0  0  0  0  0  0  0  0  0  0  0
   -0.4315   -2.0559    0.0016 N   0  0  0  0  0  0  0  0  0  0  0  0
   -2.6020   -1.0328    0.0004 N   0  0  0  0  0  0  0  0  0  0  0  0
    0.0697   -0.8101    0.0021 C   0  0  0  0  0  0  0  0  0  0  0  0
   -1.9603    0.1467    0.0010 C   0  0  0  0  0  0  0  0  0  0  0  0
   -1.7738   -2.0899    0.0007 C   0  0  0  0  0  0  0  0  0  0  0  0
   -2.8103    1.3716   -0.0009 C   0  0  0  0  0  0  0  0  0  0  0  0
    2.2443    0.4727    0.0005 C   0  0  0  0  0  0  0  0  0  0  0  0
   -2.4088   -3.4383   -0.0003 C   0  0  0  0  0  0  0  0  0  0  0  0
    3.7428    0.1800   -0.0006 C   0  0  0  0  0  0  0  0  0  0  0  0
  1 15  1  0
  2 15  1  0
  3 15  1  0
  4 18  1  0
  5 18  1  0
  6 18  1  0
  7 16  2  0
  8 12  1  0
  8 16  1  0
  9 12  2  0
  9 13  1  0
 10 12  1  0
 10 14  2  0
 11 13  2  0
 11 14  1  0
 13 15  1  0
 14 17  1  0
 16 18  1  0
M  END
>  <PUBCHEM_COMPOUND_CID>  (1) 
35323

>  <PUBCHEM_CONFORMER_RMSD>  (1) 
0.6

>  <PUBCHEM_CONFORMER_DIVERSEORDER>  (1) 
1
6
8
3
2
5
4
7

>  <PUBCHEM_MMFF94_PARTIAL_CHARGES>  (1) 
19
1 -0.29
10 -0.62
11 -0.62
12 0.74
13 0.48
14 0.48
15 1.01
16 0.57
17 0.14
18 0.93
19 0.37
2 -0.29
3 -0.29
4 -0.29
5 -0.29
6 -0.29
7 -0.57
8 -0.55
9 -0.62

>  <PUBCHEM_EFFECTIVE_ROTOR_COUNT>  (1) 
4

>  <PUBCHEM_PHARMACOPHORE_FEATURES>  (1) 
5
1 7 acceptor
1 8 donor
3 10 11 14 cation
3 9 11 13 cation
6 9 10 11 12 13 14 rings

>  <PUBCHEM_HEAVY_ATOM_COUNT>  (1) 
18

>  <PUBCHEM_ATOM_DEF_STEREO_COUNT>  (1) 
0

>  <PUBCHEM_ATOM_UDEF_STEREO_COUNT>  (1) 
0

>  <PUBCHEM_BOND_DEF_STEREO_COUNT>  (1) 
0

>  <PUBCHEM_BOND_UDEF_STEREO_COUNT>  (1) 
0

>  <PUBCHEM_ISOTOPIC_ATOM_COUNT>  (1) 
0

>  <PUBCHEM_COMPONENT_COUNT>  (1) 
1

>  <PUBCHEM_CACTVS_TAUTO_COUNT>  (1) 
5

>  <PUBCHEM_CONFORMER_ID>  (1) 
000089FB00000001

>  <PUBCHEM_MMFF94_ENERGY>  (1) 
35.0721

>  <PUBCHEM_FEATURE_SELFOVERLAP>  (1) 
26.296

>  <PUBCHEM_SHAPE_FINGERPRINT>  (1) 
10498660 4 18408037411916310692
10608611 8 18342458179460357420
11405975 8 18341617006047406538
11543360 7 15769477777416464852
121448 382 18270944770800722479
12173636 292 18410575041861300845
12346177 29 18342448266275165278
12633257 1 18412261701483597744
13140716 1 18339360871889104769
13380535 76 18341324496793355679
13583140 156 17240483585150187041
13675066 3 17385440990806494784
14178342 30 18337656586554896906
15042514 8 18409172138434640211
15442244 35 18335414656633508178
15534591 1 17417256407991983945
1741750 31 18343301440037737987
17834072 32 18336265652189045397
18186145 218 18201442411362343464
204376 136 18337674109915442961
20510252 161 18341335611999860874
20645477 56 18410299107387113916
20645477 70 16916793942439638830
21524375 3 18270954640366724991
22182937 141 18271816734697393601
22224240 67 18269851861054782153
22943178 12 18130793395136636358
2306618 200 18200883966750657435
23402539 116 18271798060638571943
23419403 2 14329709237279440023
23526113 38 17704069573637126962
23557571 272 18129674109004403190
23559900 14 18272938194330744966
2748010 2 18198051693574900905
2838139 119 17169806913761807085
352729 6 18411703183814866159
4028521 119 18409441466964126653
4214541 1 18410856590300692068
495365 180 17202756000270445974
5104073 3 18410571825495032706
573450 72 18261658359996196898
633830 44 18130511812194977668
7097593 13 18043514050481235882
81228 2 18193559093564724915
9709674 26 18272373087770932750

>  <PUBCHEM_SHAPE_MULTIPOLES>  (1) 
355.86
9.13
3.12
1.15
7.34
1.37
-0.01
-3.27
0
-3.04
0.01
0.07
-0.18
0

>  <PUBCHEM_SHAPE_SELFOVERLAP>  (1) 
673.904

>  <PUBCHEM_SHAPE_VOLUME>  (1) 
219.4

>  <PUBCHEM_COORDINATE_TYPE>  (1) 
2
5
10

$$$$
