3534
     RDKit          3D

 25 28  0  0  0  0  0  0  0  0999 V2000
    1.0948    2.3464   -0.1638 S   0  0  0  0  0  0  0  0  0  0  0  0
   -6.8081   -1.4429    0.1917 O   0  0  0  0  0  0  0  0  0  0  0  0
   -4.2812   -0.2148    0.2664 N   0  0  0  0  0  0  0  0  0  0  0  0
    4.6878   -1.5332   -0.2559 N   0  0  0  0  0  0  0  0  0  0  0  0
    4.6818    0.0124    1.5927 N   0  0  0  0  0  0  0  0  0  0  0  0
    3.1708    1.7410    1.7468 N   0  0  0  0  0  0  0  0  0  0  0  0
    6.2456   -1.7289    1.4878 N   0  0  0  0  0  0  0  0  0  0  0  0
   -4.4094   -1.6273   -0.1176 C   0  0  0  0  0  0  0  0  0  0  0  0
   -5.4927    0.5931    0.0889 C   0  0  0  0  0  0  0  0  0  0  0  0
   -5.6590   -2.2231    0.5210 C   0  0  0  0  0  0  0  0  0  0  0  0
   -6.6847   -0.1213    0.7160 C   0  0  0  0  0  0  0  0  0  0  0  0
   -3.0217    0.3850    0.1655 C   0  0  0  0  0  0  0  0  0  0  0  0
   -1.9469   -0.1225    0.8954 C   0  0  0  0  0  0  0  0  0  0  0  0
   -2.8407    1.4910   -0.6650 C   0  0  0  0  0  0  0  0  0  0  0  0
   -0.5104    1.5817   -0.0355 C   0  0  0  0  0  0  0  0  0  0  0  0
   -0.6909    0.4760    0.7948 C   0  0  0  0  0  0  0  0  0  0  0  0
   -1.5847    2.0895   -0.7655 C   0  0  0  0  0  0  0  0  0  0  0  0
    1.9773    0.8998   -0.7796 C   0  0  0  0  0  0  0  0  0  0  0  0
    3.0677    0.2341   -0.1929 C   0  0  0  0  0  0  0  0  0  0  0  0
    3.6448   -0.8889   -0.8082 C   0  0  0  0  0  0  0  0  0  0  0  0
    1.4542    0.4481   -1.9873 C   0  0  0  0  0  0  0  0  0  0  0  0
    3.6379    0.6340    1.0124 C   0  0  0  0  0  0  0  0  0  0  0  0
    3.1012   -1.3193   -2.0161 C   0  0  0  0  0  0  0  0  0  0  0  0
    2.0169   -0.6627   -2.6060 C   0  0  0  0  0  0  0  0  0  0  0  0
    5.1498   -1.0474    0.9140 C   0  0  0  0  0  0  0  0  0  0  0  0
  1 15  1  0
  1 18  1  0
  2 10  1  0
  2 11  1  0
  3  8  1  0
  3  9  1  0
  3 12  1  0
  4 20  2  0
  4 25  1  0
  5 22  1  0
  5 25  2  0
  6 22  1  0
  7 25  1  0
  8 10  1  0
  9 11  1  0
 12 13  2  0
 12 14  1  0
 13 16  1  0
 14 17  2  0
 15 16  2  0
 15 17  1  0
 18 19  1  0
 18 21  2  0
 19 20  1  0
 19 22  2  0
 20 23  1  0
 21 24  1  0
 23 24  2  0
M  END
>  <PUBCHEM_COMPOUND_CID>  (1) 
3534

>  <PUBCHEM_CONFORMER_RMSD>  (1) 
0.8

>  <PUBCHEM_CONFORMER_DIVERSEORDER>  (1) 
1
15
17
4
12
6
13
14
16
5
2
7
11
9
3
8
10

>  <PUBCHEM_MMFF94_PARTIAL_CHARGES>  (1) 
35
1 -0.2
10 0.28
11 0.28
12 0.1
13 -0.15
14 -0.15
15 0.1
16 -0.15
17 -0.15
18 0.1
2 -0.56
20 0.31
21 -0.15
22 0.41
23 -0.15
24 -0.15
25 0.72
3 -0.84
34 0.15
35 0.15
36 0.15
37 0.15
38 0.15
39 0.15
4 -0.62
40 0.15
41 0.4
42 0.4
43 0.4
44 0.4
5 -0.62
6 -0.9
7 -0.9
8 0.37
9 0.37

>  <PUBCHEM_EFFECTIVE_ROTOR_COUNT>  (1) 
4.2

>  <PUBCHEM_PHARMACOPHORE_FEATURES>  (1) 
9
1 2 acceptor
1 3 cation
1 6 donor
1 7 donor
4 4 5 7 25 cation
6 12 13 14 15 16 17 rings
6 18 19 20 21 23 24 rings
6 2 3 8 9 10 11 rings
6 4 5 19 20 22 25 rings

>  <PUBCHEM_HEAVY_ATOM_COUNT>  (1) 
25

>  <PUBCHEM_ATOM_DEF_STEREO_COUNT>  (1) 
0

>  <PUBCHEM_ATOM_UDEF_STEREO_COUNT>  (1) 
0

>  <PUBCHEM_BOND_DEF_STEREO_COUNT>  (1) 
0

>  <PUBCHEM_BOND_UDEF_STEREO_COUNT>  (1) 
0

>  <PUBCHEM_ISOTOPIC_ATOM_COUNT>  (1) 
0

>  <PUBCHEM_COMPONENT_COUNT>  (1) 
1

>  <PUBCHEM_CACTVS_TAUTO_COUNT>  (1) 
9

>  <PUBCHEM_CONFORMER_ID>  (1) 
00000DCE00000001

>  <PUBCHEM_MMFF94_ENERGY>  (1) 
114.0712

>  <PUBCHEM_FEATURE_SELFOVERLAP>  (1) 
45.703

>  <PUBCHEM_SHAPE_FINGERPRINT>  (1) 
10165383 225 9439403536536582528
10378564 45 13190329184514282007
10670039 82 8718558215392221183
11720765 8 11314847117504837716
11796584 16 18044367224143236892
12035758 1 16558181589754341878
12166972 35 17312822671365423628
12236239 1 17168147806006514141
12363563 72 18335148578624423812
12422481 6 17846497071278014167
12633257 1 17846207874181927406
12661589 4 17460324480268207459
12778500 126 12247411064171558644
12892183 10 16486706770457884609
12895836 83 10015568524301093664
12895837 130 11454732527113774642
13533116 47 17676209091250351076
13583140 156 18197478663470490324
13955234 65 13470148262391232260
14068700 675 17968095292230675380
14211702 104 18193280917603315931
14251751 18 18334574642281439167
14251752 14 17458621195349544941
14294032 229 16952803949098996533
14341114 328 14405177357277149596
14347332 77 17676482813958746629
14528608 73 10809338975585698505
146900 427 14908178663808069643
14840074 17 13901905622420590963
15183329 4 14490468664867010823
15188451 53 18333444331205936591
15210252 30 9367342635326968126
15419008 42 18057043502717420653
15475509 35 18261940853233773522
15575132 122 11311790453578593131
17349148 13 17530969068345455027
1813 80 18187088394858443093
19377110 9 15482666897189490245
19784866 240 17240485775498806404
1979834 28 17346329201642657407
20374829 77 18334298665174162285
20403669 9 18410579491690044831
20626108 58 17894632547917591900
21304304 249 18410855443487058054
21623969 137 17489587861502124727
22061861 79 15068341228966350315
221357 26 13623526857431927479
22224240 67 16845562133015560814
23253445 4 16558752308437950237
23522609 53 17971787451897712285
23557571 272 18341332197696253489
23559900 14 18270414870024954469
3004659 81 18261969512721968045
3009799 131 12973611024186848478
3178227 256 17489863835601487210
3388396 114 15937279770322549703
340366 18 15357705226838214818
3472631 163 11599711900884093274
34797466 226 12251901508498795585
376196 1 13915737629132820772
392239 28 16486960809062208558
4340502 62 16343705443300173711
463206 1 18114184163576102363
465052 167 18343580733877716480
5104073 3 16987731094994330027
5718773 13 18261668186644383026
59682541 52 14056989538558527907
76465 3 18260547831291977181
7808743 9 10951759781313590388
8988823 20 17203612601237585865
960060 61 16732991954545852309

>  <PUBCHEM_SHAPE_MULTIPOLES>  (1) 
487.56
15.44
2.17
1.75
14.75
0.18
0.71
-10.12
-5.59
0.41
-0.02
-2.79
-0.26
0.57

>  <PUBCHEM_SHAPE_SELFOVERLAP>  (1) 
1056.181

>  <PUBCHEM_SHAPE_VOLUME>  (1) 
268.1

>  <PUBCHEM_COORDINATE_TYPE>  (1) 
2
5
10

$$$$
