35347
     RDKit          3D

 16 18  0  0  0  0  0  0  0  0999 V2000
    0.6853    0.0538   -0.0017 N   0  0  0  0  0  0  0  0  0  0  0  0
   -1.4549   -0.5413   -0.0005 C   0  0  0  0  0  0  0  0  0  0  0  0
   -1.3760    0.8804   -0.0004 C   0  0  0  0  0  0  0  0  0  0  0  0
   -2.7424   -1.2900    0.0003 C   0  0  0  0  0  0  0  0  0  0  0  0
   -2.5732    1.7620    0.0006 C   0  0  0  0  0  0  0  0  0  0  0  0
   -3.9525   -0.3714    0.0007 C   0  0  0  0  0  0  0  0  0  0  0  0
   -0.1639   -1.0234   -0.0012 C   0  0  0  0  0  0  0  0  0  0  0  0
   -0.0401    1.2179   -0.0015 C   0  0  0  0  0  0  0  0  0  0  0  0
   -3.8625    0.9757    0.0010 C   0  0  0  0  0  0  0  0  0  0  0  0
    2.0779   -0.0233   -0.0012 C   0  0  0  0  0  0  0  0  0  0  0  0
   -5.2845   -1.0657    0.0007 C   0  0  0  0  0  0  0  0  0  0  0  0
    2.8290    1.1450   -0.0003 C   0  0  0  0  0  0  0  0  0  0  0  0
    2.6958   -1.2672   -0.0006 C   0  0  0  0  0  0  0  0  0  0  0  0
    4.2218    1.0682    0.0012 C   0  0  0  0  0  0  0  0  0  0  0  0
    4.0886   -1.3441    0.0010 C   0  0  0  0  0  0  0  0  0  0  0  0
    4.8515   -0.1764    0.0018 C   0  0  0  0  0  0  0  0  0  0  0  0
  1  7  1  0
  1  8  1  0
  1 10  1  0
  2  3  1  0
  2  4  1  0
  2  7  2  0
  3  5  1  0
  3  8  2  0
  4  6  1  0
  5  9  1  0
  6  9  2  0
  6 11  1  0
 10 12  2  0
 10 13  1  0
 12 14  1  0
 13 15  2  0
 14 16  2  0
 15 16  1  0
M  END
>  <PUBCHEM_COMPOUND_CID>  (1) 
35347

>  <PUBCHEM_CONFORMER_RMSD>  (1) 
0.6

>  <PUBCHEM_CONFORMER_DIVERSEORDER>  (1) 
1
2

>  <PUBCHEM_MMFF94_PARTIAL_CHARGES>  (1) 
24
1 0.33
10 -0.02
11 0.14
12 -0.15
13 -0.15
14 -0.15
15 -0.15
16 -0.15
2 -0.18
21 0.15
22 0.15
23 0.15
27 0.15
28 0.15
29 0.15
3 -0.18
30 0.15
31 0.15
4 0.32
5 0.32
6 -0.28
7 -0.3
8 -0.3
9 -0.29

>  <PUBCHEM_EFFECTIVE_ROTOR_COUNT>  (1) 
1.4

>  <PUBCHEM_PHARMACOPHORE_FEATURES>  (1) 
4
1 1 cation
5 1 2 3 7 8 rings
6 10 12 13 14 15 16 rings
6 2 3 4 5 6 9 rings

>  <PUBCHEM_HEAVY_ATOM_COUNT>  (1) 
16

>  <PUBCHEM_ATOM_DEF_STEREO_COUNT>  (1) 
0

>  <PUBCHEM_ATOM_UDEF_STEREO_COUNT>  (1) 
0

>  <PUBCHEM_BOND_DEF_STEREO_COUNT>  (1) 
0

>  <PUBCHEM_BOND_UDEF_STEREO_COUNT>  (1) 
0

>  <PUBCHEM_ISOTOPIC_ATOM_COUNT>  (1) 
0

>  <PUBCHEM_COMPONENT_COUNT>  (1) 
1

>  <PUBCHEM_CACTVS_TAUTO_COUNT>  (1) 
1

>  <PUBCHEM_CONFORMER_ID>  (1) 
00008A1300000001

>  <PUBCHEM_MMFF94_ENERGY>  (1) 
33.9417

>  <PUBCHEM_FEATURE_SELFOVERLAP>  (1) 
20.38

>  <PUBCHEM_SHAPE_FINGERPRINT>  (1) 
10608611 8 18411415103347519096
10616163 171 18412826923221933342
11471102 20 18410572894746683702
11615757 297 17704076204729113000
11806522 49 18335983151004625607
12032990 46 18410577275333809193
12107183 9 17689716359394870346
12236239 1 17894630352883029726
13167823 11 18410291389278265338
13288520 33 18412546509486461063
13675066 3 18260833712846909793
13690532 89 18408604764384815733
13862211 1 18411695513283214127
15196674 1 18410856538191417797
15442244 35 18194402187102123456
15536298 74 18412825776860511456
17492 89 18339924788226576174
17804303 29 18342177769461527873
17834072 33 18411981390189530878
18186145 218 17894625937799132734
18522853 276 18412544318604955032
200 152 18202844352885414075
20510252 161 18271808986597607505
20645477 70 18340770356092424990
21267235 1 18410582781397772470
2297311 6 18201732738266833340
23402539 116 18342451552557779255
23402655 69 18412544288941026244
23557571 272 18272378554963743524
23559900 14 18269833112974180894
26918003 58 18113616815359476050
2871803 45 18260825990485467370
3545911 37 18411420626828124244
42 15 18408324367386919582
4214541 1 18410856525359425825
4463277 17 18410575094128732833
474 4 17386294328073633500
4990 188 18201727219471046518
5104073 3 18411699855009393376
5374978 207 18411695504592578848
542803 24 17167866361284199300
69090 78 18413386544517203638
7495541 125 17703504497173864339
77779 3 18410857642182609704
9709674 26 18410863139736058542

>  <PUBCHEM_SHAPE_MULTIPOLES>  (1) 
324.29
10.43
1.66
0.61
0.23
0.16
0
-1.66
0.01
-0.25
0
0
0
0

>  <PUBCHEM_SHAPE_SELFOVERLAP>  (1) 
711.159

>  <PUBCHEM_SHAPE_VOLUME>  (1) 
177.3

>  <PUBCHEM_COORDINATE_TYPE>  (1) 
2
5
10

$$$$
