35349
     RDKit          3D

  7  6  0  0  0  0  0  0  0  0999 V2000
    0.1507    0.5209    0.9440 S   0  0  0  0  0  0  0  0  0  0  0  0
    1.6475    1.2284   -0.2741 S   0  0  0  0  0  0  0  0  0  0  0  0
   -2.4469   -0.2417    0.4643 C   0  0  0  0  0  0  0  0  0  0  0  0
   -1.2047    0.2907   -0.2413 C   0  0  0  0  0  0  0  0  0  0  0  0
   -3.5936   -0.4360   -0.5171 C   0  0  0  0  0  0  0  0  0  0  0  0
    2.4580   -0.3043   -0.7901 C   0  0  0  0  0  0  0  0  0  0  0  0
    2.9889   -1.0580    0.4144 C   0  0  0  0  0  0  0  0  0  0  0  0
  1  2  1  0
  1  4  1  0
  2  6  1  0
  3  4  1  0
  3  5  1  0
  6  7  1  0
M  END
>  <PUBCHEM_COMPOUND_CID>  (1) 
35349

>  <PUBCHEM_CONFORMER_RMSD>  (1) 
0.6

>  <PUBCHEM_CONFORMER_DIVERSEORDER>  (1) 
3
30
46
38
41
29
49
34
20
26
33
2
19
37
24
12
48
31
1
32
28
11
27
4
36
42
25
23
47
43
35
39
44
21
15
18
14
40
5
45
22
17
16
13
6
8
7
10
50
9

>  <PUBCHEM_MMFF94_PARTIAL_CHARGES>  (1) 
4
1 -0.23
2 -0.23
4 0.23
6 0.23

>  <PUBCHEM_EFFECTIVE_ROTOR_COUNT>  (1) 
4

>  <PUBCHEM_PHARMACOPHORE_FEATURES>  (1) 
3
1 5 hydrophobe
1 7 hydrophobe
5 1 2 3 4 6 hydrophobe

>  <PUBCHEM_HEAVY_ATOM_COUNT>  (1) 
7

>  <PUBCHEM_ATOM_DEF_STEREO_COUNT>  (1) 
0

>  <PUBCHEM_ATOM_UDEF_STEREO_COUNT>  (1) 
0

>  <PUBCHEM_BOND_DEF_STEREO_COUNT>  (1) 
0

>  <PUBCHEM_BOND_UDEF_STEREO_COUNT>  (1) 
0

>  <PUBCHEM_ISOTOPIC_ATOM_COUNT>  (1) 
0

>  <PUBCHEM_COMPONENT_COUNT>  (1) 
1

>  <PUBCHEM_CACTVS_TAUTO_COUNT>  (1) 
1

>  <PUBCHEM_CONFORMER_ID>  (1) 
00008A1500000003

>  <PUBCHEM_MMFF94_ENERGY>  (1) 
-5.8981

>  <PUBCHEM_FEATURE_SELFOVERLAP>  (1) 
15.223

>  <PUBCHEM_SHAPE_FINGERPRINT>  (1) 
10149128 111 11314308325988050111
10857977 72 15339123441858463889
12897270 3 17094961047933772441
12932741 1 17240771738879949849
12932764 1 17917435384016895137
14390081 3 12612754635537556815
177051 138 17418377986518090023
20201158 50 18335706026687802794
20651381 32 18334012804582083693
21293036 1 15502664818374296285
23552333 60 18130796689207740848
23552449 11 16917063407928355112

>  <PUBCHEM_SHAPE_MULTIPOLES>  (1) 
151.76
5.87
1.13
0.98
2.88
0.12
-0.07
-2.08
0.89
-0.8
-0.02
-0.12
0.02
-0.24

>  <PUBCHEM_SHAPE_SELFOVERLAP>  (1) 
236.878

>  <PUBCHEM_SHAPE_VOLUME>  (1) 
109.2

>  <PUBCHEM_COORDINATE_TYPE>  (1) 
2
5
10

$$$$
