35354
     RDKit          3D

 14 15  0  0  0  0  0  0  0  0999 V2000
    2.3776    1.2724   -0.2385 N   0  0  0  0  0  0  0  0  0  0  0  0
    3.0740   -0.7116    0.4819 N   0  0  0  0  0  0  0  0  0  0  0  0
    4.6364    1.1216    0.3270 N   0  0  0  0  0  0  0  0  0  0  0  0
   -2.3675   -0.1969   -0.9217 C   0  0  0  0  0  0  0  0  0  0  0  0
   -3.2311    0.2513    0.2660 C   0  0  0  0  0  0  0  0  0  0  0  0
   -0.9358   -0.3836   -0.5389 C   0  0  0  0  0  0  0  0  0  0  0  0
   -4.7005    0.4010   -0.1280 C   0  0  0  0  0  0  0  0  0  0  0  0
    1.2707    0.4634   -0.2668 C   0  0  0  0  0  0  0  0  0  0  0  0
   -0.0536    0.6972   -0.6393 C   0  0  0  0  0  0  0  0  0  0  0  0
    1.7311   -0.7693    0.1872 C   0  0  0  0  0  0  0  0  0  0  0  0
   -0.5034   -1.6325   -0.0868 C   0  0  0  0  0  0  0  0  0  0  0  0
    0.8311   -1.8441    0.2818 C   0  0  0  0  0  0  0  0  0  0  0  0
   -5.5579    0.8054    1.0606 C   0  0  0  0  0  0  0  0  0  0  0  0
    3.4289    0.5255    0.2155 C   0  0  0  0  0  0  0  0  0  0  0  0
  1  8  1  0
  1 14  1  0
  2 10  1  0
  2 14  2  0
  3 14  1  0
  4  5  1  0
  4  6  1  0
  5  7  1  0
  6  9  1  0
  6 11  2  0
  7 13  1  0
  8  9  2  0
  8 10  1  0
 10 12  2  0
 11 12  1  0
M  END
>  <PUBCHEM_COMPOUND_CID>  (1) 
35354

>  <PUBCHEM_CONFORMER_RMSD>  (1) 
0.6

>  <PUBCHEM_CONFORMER_DIVERSEORDER>  (1) 
1
7
5
4
6
8
3
2

>  <PUBCHEM_MMFF94_PARTIAL_CHARGES>  (1) 
17
1 0.03
10 0.23
11 -0.15
12 -0.15
14 0.27
2 -0.57
21 0.15
22 0.15
23 0.15
24 0.27
28 0.4
29 0.4
3 -0.88
4 0.14
6 -0.14
8 -0.15
9 -0.15

>  <PUBCHEM_EFFECTIVE_ROTOR_COUNT>  (1) 
3

>  <PUBCHEM_PHARMACOPHORE_FEATURES>  (1) 
6
1 1 donor
1 13 hydrophobe
1 3 donor
4 1 2 3 14 cation
5 1 2 8 10 14 rings
6 6 8 9 10 11 12 rings

>  <PUBCHEM_HEAVY_ATOM_COUNT>  (1) 
14

>  <PUBCHEM_ATOM_DEF_STEREO_COUNT>  (1) 
0

>  <PUBCHEM_ATOM_UDEF_STEREO_COUNT>  (1) 
0

>  <PUBCHEM_BOND_DEF_STEREO_COUNT>  (1) 
0

>  <PUBCHEM_BOND_UDEF_STEREO_COUNT>  (1) 
0

>  <PUBCHEM_ISOTOPIC_ATOM_COUNT>  (1) 
0

>  <PUBCHEM_COMPONENT_COUNT>  (1) 
1

>  <PUBCHEM_CACTVS_TAUTO_COUNT>  (1) 
3

>  <PUBCHEM_CONFORMER_ID>  (1) 
00008A1A00000001

>  <PUBCHEM_MMFF94_ENERGY>  (1) 
17.5493

>  <PUBCHEM_FEATURE_SELFOVERLAP>  (1) 
30.597

>  <PUBCHEM_SHAPE_FINGERPRINT>  (1) 
10354089 29 18410862057635973401
10465860 228 18271531875365535535
10498660 4 15481837753942785377
11471102 20 18336257977076673567
12251169 10 17894352198332763839
12346645 44 18341610399923267063
12346645 6 18341331102279042207
12670543 26 12535362180959087337
13571099 22 10447920693998627391
14252887 29 17749114340112802523
14943859 89 17561364002159400367
15219456 202 17895747388404674207
15477762 27 9007053569598030787
15775835 57 18272650155973865413
16945 1 18187910794979613222
17844478 74 17458336416762190533
18186145 218 18412257346180687220
187816 3 12391517498418386244
20279233 1 17168145616332607883
204376 136 18408041835953957039
20645477 70 18117538666473598615
212847 35 17775283833339614161
21637258 2 13407063825765477656
221357 26 10879712036553843475
22854114 59 18260548913998100117
23402539 116 17275378820040424893
23402655 69 18060416932343331957
23559900 14 11959723907041196614
276578 36 18411981355756095239
293599 30 18412265068838093556
4047638 21 18272090500228737622
449060 50 18408605847001443535
449060 62 18412543197676461003
5104073 3 18116983585100334248
76465 3 9294747371570768332

>  <PUBCHEM_SHAPE_MULTIPOLES>  (1) 
273.17
9.23
1.44
0.85
8.29
0.49
0
-4.35
2.85
-0.78
0.1
0.54
-0.05
-0.39

>  <PUBCHEM_SHAPE_SELFOVERLAP>  (1) 
578.561

>  <PUBCHEM_SHAPE_VOLUME>  (1) 
154.7

>  <PUBCHEM_COORDINATE_TYPE>  (1) 
2
5
10

$$$$
