35364
     RDKit          3D

  9  9  0  0  0  0  0  0  0  0999 V2000
    0.0702    1.4643    0.3236 C   0  0  0  0  0  0  0  0  0  0  0  0
    1.2334   -0.7929    0.3237 C   0  0  0  0  0  0  0  0  0  0  0  0
   -1.3036   -0.6714    0.3237 C   0  0  0  0  0  0  0  0  0  0  0  0
    1.2973    0.6683   -0.1408 C   0  0  0  0  0  0  0  0  0  0  0  0
   -1.2275    0.7894   -0.1406 C   0  0  0  0  0  0  0  0  0  0  0  0
   -0.0698   -1.4579   -0.1398 C   0  0  0  0  0  0  0  0  0  0  0  0
    0.1393    2.9042   -0.1829 C   0  0  0  0  0  0  0  0  0  0  0  0
    2.4455   -1.5725   -0.1834 C   0  0  0  0  0  0  0  0  0  0  0  0
   -2.5848   -1.3314   -0.1835 C   0  0  0  0  0  0  0  0  0  0  0  0
  1  4  1  0
  1  5  1  0
  1  7  1  0
  2  4  1  0
  2  6  1  0
  2  8  1  0
  3  5  1  0
  3  6  1  0
  3  9  1  0
M  END
>  <PUBCHEM_COMPOUND_CID>  (1) 
35364

>  <PUBCHEM_CONFORMER_RMSD>  (1) 
0.4

>  <PUBCHEM_CONFORMER_DIVERSEORDER>  (1) 
1

>  <PUBCHEM_MMFF94_PARTIAL_CHARGES>  (1) 
0

>  <PUBCHEM_EFFECTIVE_ROTOR_COUNT>  (1) 
1.2

>  <PUBCHEM_PHARMACOPHORE_FEATURES>  (1) 
1
6 1 2 3 4 5 6 rings

>  <PUBCHEM_HEAVY_ATOM_COUNT>  (1) 
9

>  <PUBCHEM_ATOM_DEF_STEREO_COUNT>  (1) 
0

>  <PUBCHEM_ATOM_UDEF_STEREO_COUNT>  (1) 
0

>  <PUBCHEM_BOND_DEF_STEREO_COUNT>  (1) 
0

>  <PUBCHEM_BOND_UDEF_STEREO_COUNT>  (1) 
0

>  <PUBCHEM_ISOTOPIC_ATOM_COUNT>  (1) 
0

>  <PUBCHEM_COMPONENT_COUNT>  (1) 
1

>  <PUBCHEM_CACTVS_TAUTO_COUNT>  (1) 
1

>  <PUBCHEM_CONFORMER_ID>  (1) 
00008A2400000001

>  <PUBCHEM_MMFF94_ENERGY>  (1) 
9.2001

>  <PUBCHEM_FEATURE_SELFOVERLAP>  (1) 
5.074

>  <PUBCHEM_SHAPE_FINGERPRINT>  (1) 
1 1 17833830856002070557
100427 49 18411423937720330316
12423570 1 9653919251168102711
12716758 59 17620756085676511750
16945 1 18122349239733538979
18185500 45 18411140250825075146
193761 8 18410573989573532177
20871998 184 18056477253358683774
21040471 1 16969984251282673809
23552423 10 18260835856262723086
23552449 1 18266736887723773098
241688 4 18410855412883521952
2748010 2 18411694374615259564

>  <PUBCHEM_SHAPE_MULTIPOLES>  (1) 
185.22
2.74
2.74
0.67
0.82
1.88
-0.01
-1.88
0.19
-0.82
0.19
0
0
0

>  <PUBCHEM_SHAPE_SELFOVERLAP>  (1) 
352.564

>  <PUBCHEM_SHAPE_VOLUME>  (1) 
111.7

>  <PUBCHEM_COORDINATE_TYPE>  (1) 
2
5
10

$$$$
