35367
     RDKit          3D

  8  8  0  0  1  0  0  0  0  0999 V2000
    0.5607   -0.4685   -0.0025 C   0  0  0  0  0  0  0  0  0  0  0  0
   -0.0204    0.8914   -0.4557 C   0  0  0  0  0  0  0  0  0  0  0  0
   -0.6151   -1.4088   -0.3217 C   0  0  0  0  0  0  0  0  0  0  0  0
   -1.4778    0.8553    0.0201 C   0  0  0  0  0  0  0  0  0  0  0  0
   -1.8723   -0.6220    0.0452 C   0  0  0  0  0  0  0  0  0  0  0  0
    0.9014   -0.5238    1.4974 C   0  0  0  0  0  0  0  0  0  0  0  0
    1.8052   -0.8566   -0.8085 C   0  0  0  0  0  0  0  0  0  0  0  0
    0.7183    2.1331    0.0256 C   0  0  0  0  0  0  0  0  0  0  0  0
  1  2  1  0
  1  3  1  0
  1  6  1  0
  1  7  1  0
  2  4  1  0
  2  8  1  0
  3  5  1  0
  4  5  1  0
M  END
>  <PUBCHEM_COMPOUND_CID>  (1) 
35367

>  <PUBCHEM_CONFORMER_RMSD>  (1) 
0.4

>  <PUBCHEM_CONFORMER_DIVERSEORDER>  (1) 
2
1
4
3

>  <PUBCHEM_MMFF94_PARTIAL_CHARGES>  (1) 
0

>  <PUBCHEM_EFFECTIVE_ROTOR_COUNT>  (1) 
1

>  <PUBCHEM_PHARMACOPHORE_FEATURES>  (1) 
2
3 1 6 7 hydrophobe
5 1 2 3 4 5 rings

>  <PUBCHEM_HEAVY_ATOM_COUNT>  (1) 
8

>  <PUBCHEM_ATOM_DEF_STEREO_COUNT>  (1) 
0

>  <PUBCHEM_ATOM_UDEF_STEREO_COUNT>  (1) 
1

>  <PUBCHEM_BOND_DEF_STEREO_COUNT>  (1) 
0

>  <PUBCHEM_BOND_UDEF_STEREO_COUNT>  (1) 
0

>  <PUBCHEM_ISOTOPIC_ATOM_COUNT>  (1) 
0

>  <PUBCHEM_COMPONENT_COUNT>  (1) 
1

>  <PUBCHEM_CACTVS_TAUTO_COUNT>  (1) 
1

>  <PUBCHEM_CONFORMER_ID>  (1) 
00008A2700000002

>  <PUBCHEM_MMFF94_ENERGY>  (1) 
20.9059

>  <PUBCHEM_FEATURE_SELFOVERLAP>  (1) 
10.148

>  <PUBCHEM_SHAPE_FINGERPRINT>  (1) 
12423570 1 11216251400668633499
13024252 1 16881366595070774238
137420 1 14907359587822267978
16714656 1 18195539081666450910
16945 1 18195819684717262684
18185500 45 18042118769623876091
21040471 1 17041472817919780860
24536 1 18200582713517989967
29004967 10 18341066141504240938
5084963 1 17989209243962140479
5943 1 12835095926991351554

>  <PUBCHEM_SHAPE_MULTIPOLES>  (1) 
164.64
1.99
1.83
1.02
0.36
0.89
-0.34
-0.39
0.17
-0.24
0.13
-0.39
-0.21
0.04

>  <PUBCHEM_SHAPE_SELFOVERLAP>  (1) 
319.427

>  <PUBCHEM_SHAPE_VOLUME>  (1) 
100.6

>  <PUBCHEM_COORDINATE_TYPE>  (1) 
2
5
10

$$$$
