3536
     RDKit          3D

 31 35  0  0  0  0  0  0  0  0999 V2000
   -2.3340   -1.9543    0.1639 S   0  0  0  0  0  0  0  0  0  0  0  0
    5.1380    1.2334    0.0814 S   0  0  0  0  0  0  0  0  0  0  0  0
   -3.1447    3.6607   -0.0201 O   0  0  0  0  0  0  0  0  0  0  0  0
    5.6614    2.3139    0.9090 O   0  0  0  0  0  0  0  0  0  0  0  0
    5.7001    1.0322   -1.2486 O   0  0  0  0  0  0  0  0  0  0  0  0
   -4.9419    2.1619   -0.0606 N   0  0  0  0  0  0  0  0  0  0  0  0
   -4.5346   -3.3294    0.1026 N   0  0  0  0  0  0  0  0  0  0  0  0
   -0.7220    2.0166   -0.4291 N   0  0  0  0  0  0  0  0  0  0  0  0
    5.2494   -0.2315    0.9817 N   0  0  0  0  0  0  0  0  0  0  0  0
    4.9463   -1.8994   -0.6584 N   0  0  0  0  0  0  0  0  0  0  0  0
   -3.9249    0.2177    0.0359 C   0  0  0  0  0  0  0  0  0  0  0  0
   -5.1707    0.8092   -0.0349 C   0  0  0  0  0  0  0  0  0  0  0  0
   -2.9113    1.2044    0.0547 C   0  0  0  0  0  0  0  0  0  0  0  0
   -3.7839   -1.1430    0.0782 C   0  0  0  0  0  0  0  0  0  0  0  0
   -3.5854    2.4095   -0.0070 C   0  0  0  0  0  0  0  0  0  0  0  0
   -4.8776   -1.9883    0.0520 C   0  0  0  0  0  0  0  0  0  0  0  0
   -6.3236    0.0197   -0.0651 C   0  0  0  0  0  0  0  0  0  0  0  0
   -6.1623   -1.3913   -0.0206 C   0  0  0  0  0  0  0  0  0  0  0  0
   -1.4798    1.1115    0.1210 C   0  0  0  0  0  0  0  0  0  0  0  0
    3.4143    1.4654   -0.0692 C   0  0  0  0  0  0  0  0  0  0  0  0
    0.6657    1.8308   -0.3079 C   0  0  0  0  0  0  0  0  0  0  0  0
   -3.2205   -3.4334    0.1636 C   0  0  0  0  0  0  0  0  0  0  0  0
    2.7311    0.9256   -1.1589 C   0  0  0  0  0  0  0  0  0  0  0  0
    2.7200    2.1884    0.9008 C   0  0  0  0  0  0  0  0  0  0  0  0
    1.3535    1.1087   -1.2785 C   0  0  0  0  0  0  0  0  0  0  0  0
    1.3424    2.3714    0.7811 C   0  0  0  0  0  0  0  0  0  0  0  0
    4.5180   -1.3751    0.5066 C   0  0  0  0  0  0  0  0  0  0  0  0
    3.4545   -1.8566    1.2436 C   0  0  0  0  0  0  0  0  0  0  0  0
    2.7768   -2.9641    0.7461 C   0  0  0  0  0  0  0  0  0  0  0  0
    4.2632   -2.9748   -1.1106 C   0  0  0  0  0  0  0  0  0  0  0  0
    3.1826   -3.5398   -0.4527 C   0  0  0  0  0  0  0  0  0  0  0  0
  1 14  1  0
  1 22  1  0
  2  4  2  0
  2  5  2  0
  2  9  1  0
  2 20  1  0
  3 15  1  0
  6 12  1  0
  6 15  1  0
  7 16  1  0
  7 22  2  0
  8 19  2  0
  8 21  1  0
  9 27  1  0
 10 27  2  0
 10 30  1  0
 11 12  1  0
 11 13  1  0
 11 14  2  0
 12 17  2  0
 13 15  2  0
 13 19  1  0
 14 16  1  0
 16 18  2  0
 17 18  1  0
 20 23  2  0
 20 24  1  0
 21 25  2  0
 21 26  1  0
 23 25  1  0
 24 26  2  0
 27 28  1  0
 28 29  2  0
 29 31  1  0
 30 31  2  0
M  END
>  <PUBCHEM_COMPOUND_CID>  (1) 
3536

>  <PUBCHEM_CONFORMER_RMSD>  (1) 
0.8

>  <PUBCHEM_CONFORMER_DIVERSEORDER>  (1) 
1
55
67
75
43
82
62
53
54
11
14
8
35
66
3
45
71
73
30
68
65
31
24
74
33
47
80
7
81
41
70
29
48
25
76
6
5
37
49
13
61
15
34
12
36
78
40
79
77
22
64
16
56
20
57
58
51
32
39
42
46
38
69
59
2
10
50
19
28
63
21
44
26
60
72
23
27
4
9
18
52
17

>  <PUBCHEM_MMFF94_PARTIAL_CHARGES>  (1) 
45
1 -0.08
10 -0.62
12 -0.15
13 -0.09
14 0.04
15 -0.09
16 0.23
17 -0.15
18 -0.15
19 0.48
2 1.45
20 -0.01
21 0.18
22 0.23
23 -0.15
24 -0.15
25 -0.15
26 -0.15
27 0.51
28 -0.15
29 -0.15
3 -0.51
30 0.16
31 -0.15
32 0.27
33 0.15
34 0.15
35 0.06
36 0.15
37 0.15
38 0.15
39 0.15
4 -0.65
40 0.15
41 0.45
42 0.42
43 0.15
44 0.15
45 0.15
46 0.15
5 -0.65
6 0.03
7 -0.57
8 -0.63
9 -0.76

>  <PUBCHEM_EFFECTIVE_ROTOR_COUNT>  (1) 
5

>  <PUBCHEM_PHARMACOPHORE_FEATURES>  (1) 
14
1 10 acceptor
1 3 donor
1 4 acceptor
1 5 acceptor
1 6 cation
1 6 donor
1 7 acceptor
1 8 acceptor
1 9 donor
5 1 7 14 16 22 rings
5 6 11 12 13 15 rings
6 10 27 28 29 30 31 rings
6 11 12 14 16 17 18 rings
6 20 21 23 24 25 26 rings

>  <PUBCHEM_HEAVY_ATOM_COUNT>  (1) 
31

>  <PUBCHEM_ATOM_DEF_STEREO_COUNT>  (1) 
0

>  <PUBCHEM_ATOM_UDEF_STEREO_COUNT>  (1) 
0

>  <PUBCHEM_BOND_DEF_STEREO_COUNT>  (1) 
0

>  <PUBCHEM_BOND_UDEF_STEREO_COUNT>  (1) 
0

>  <PUBCHEM_ISOTOPIC_ATOM_COUNT>  (1) 
0

>  <PUBCHEM_COMPONENT_COUNT>  (1) 
1

>  <PUBCHEM_CACTVS_TAUTO_COUNT>  (1) 
10

>  <PUBCHEM_CONFORMER_ID>  (1) 
00000DD000000001

>  <PUBCHEM_MMFF94_ENERGY>  (1) 
79.622

>  <PUBCHEM_FEATURE_SELFOVERLAP>  (1) 
71.285

>  <PUBCHEM_SHAPE_FINGERPRINT>  (1) 
10074138 170 16256135144586206368
10462674 296 17480290614532567662
10864689 126 17832988239264161526
11135609 99 18340767058032113582
11186622 123 18335417971779009802
11443803 9 17969508290155353804
11513181 2 18201720660724644734
117089 54 17341832023714971630
11796584 16 18265049146244938708
12107183 9 17907299845087521841
12128747 34 18411697673361204781
13533116 47 18342737403578818953
13583140 156 18131342050848397112
14394314 77 18412267242587859585
144659 178 18261398900615942932
14910302 57 18261108552447685109
15001296 14 18333729143440918651
15183329 4 18409731776767348457
15250474 111 18335701667200616591
15320467 1 18266458896061134675
15361156 5 17823433620990102900
15799311 1 18339095829488890737
16112460 7 18270413698094741539
17857418 61 18409164428756918329
1813 80 17022904523364125692
19958102 18 18261101955783827541
20721686 56 18335987549621609243
21197605 99 18338516460471881786
21859007 373 17606952898522504573
23559900 14 18339917229674732265
25222932 49 18201434826582059228
25269216 80 15865221107407619227
3004659 81 18260551091530630014
338550 245 18261114101154878558
354706 132 17458919153862884430
4073 2 18339644537341639521
463206 1 18334860570976017659
4874694 18 18338502093373603885
508706 21 17749116594812579227
5104073 3 18131355167857958617
5265222 85 17979078507328553468
5309563 4 17760093204261545843
5326457 24 18410293584059100041
59755656 215 18409447028988654455
6437827 68 18411699872738004739
6823239 73 18271530776260531646

>  <PUBCHEM_SHAPE_MULTIPOLES>  (1) 
603.15
16.15
4.69
0.99
3.63
2.26
-0.06
3.14
0.16
-0.35
0.12
-1.3
0.04
0.59

>  <PUBCHEM_SHAPE_SELFOVERLAP>  (1) 
1331.602

>  <PUBCHEM_SHAPE_VOLUME>  (1) 
326.3

>  <PUBCHEM_COORDINATE_TYPE>  (1) 
2
5
10

$$$$
