35365
     RDKit          3D

  9  9  0  0  0  0  0  0  0  0999 V2000
   -1.3123    0.0000   -0.0099 C   0  0  0  0  0  0  0  0  0  0  0  0
   -0.5263   -1.2640    0.4035 C   0  0  0  0  0  0  0  0  0  0  0  0
   -0.5263    1.2641    0.4036 C   0  0  0  0  0  0  0  0  0  0  0  0
    1.6705    0.0001    0.3614 C   0  0  0  0  0  0  0  0  0  0  0  0
    0.9244   -1.2641   -0.0806 C   0  0  0  0  0  0  0  0  0  0  0  0
    0.9244    1.2643   -0.0805 C   0  0  0  0  0  0  0  0  0  0  0  0
   -2.6743   -0.0003    0.7099 C   0  0  0  0  0  0  0  0  0  0  0  0
   -1.5793    0.0001   -1.5277 C   0  0  0  0  0  0  0  0  0  0  0  0
    3.0992   -0.0002   -0.1798 C   0  0  0  0  0  0  0  0  0  0  0  0
  1  2  1  0
  1  3  1  0
  1  7  1  0
  1  8  1  0
  2  5  1  0
  3  6  1  0
  4  5  1  0
  4  6  1  0
  4  9  1  0
M  END
>  <PUBCHEM_COMPOUND_CID>  (1) 
35365

>  <PUBCHEM_CONFORMER_RMSD>  (1) 
0.4

>  <PUBCHEM_CONFORMER_DIVERSEORDER>  (1) 
1
3
2
4

>  <PUBCHEM_MMFF94_PARTIAL_CHARGES>  (1) 
0

>  <PUBCHEM_EFFECTIVE_ROTOR_COUNT>  (1) 
1.2

>  <PUBCHEM_PHARMACOPHORE_FEATURES>  (1) 
2
3 1 7 8 hydrophobe
6 1 2 3 4 5 6 rings

>  <PUBCHEM_HEAVY_ATOM_COUNT>  (1) 
9

>  <PUBCHEM_ATOM_DEF_STEREO_COUNT>  (1) 
0

>  <PUBCHEM_ATOM_UDEF_STEREO_COUNT>  (1) 
0

>  <PUBCHEM_BOND_DEF_STEREO_COUNT>  (1) 
0

>  <PUBCHEM_BOND_UDEF_STEREO_COUNT>  (1) 
0

>  <PUBCHEM_ISOTOPIC_ATOM_COUNT>  (1) 
0

>  <PUBCHEM_COMPONENT_COUNT>  (1) 
1

>  <PUBCHEM_CACTVS_TAUTO_COUNT>  (1) 
1

>  <PUBCHEM_CONFORMER_ID>  (1) 
00008A2500000001

>  <PUBCHEM_MMFF94_ENERGY>  (1) 
15.5643

>  <PUBCHEM_FEATURE_SELFOVERLAP>  (1) 
10.148

>  <PUBCHEM_SHAPE_FINGERPRINT>  (1) 
12423570 1 17531256092298709815
13024252 1 13406795536174549160
16945 1 18410565189116451266
18185500 45 18201428177619126551
21040471 1 18411139181446634434
23235685 24 18410293614097432216
23402655 69 18194948666341911333
23552423 10 18044376256280079850
2748010 2 18122343750934126784
29004967 10 18335143072301887489
369184 2 18411132537216630010
5084963 1 17603588547042522496
528886 8 18413387631122603347

>  <PUBCHEM_SHAPE_MULTIPOLES>  (1) 
185.22
3.51
1.33
0.99
1.15
0
-0.34
0
0.07
0.14
0.11
-0.54
0
0

>  <PUBCHEM_SHAPE_SELFOVERLAP>  (1) 
355.921

>  <PUBCHEM_SHAPE_VOLUME>  (1) 
113.3

>  <PUBCHEM_COORDINATE_TYPE>  (1) 
2
5
10

$$$$
