35377
     RDKit          3D

 17 17  0  0  0  0  0  0  0  0999 V2000
   -3.6382   -1.2220   -2.2302 Cl  0  0  0  0  0  0  0  0  0  0  0  0
   -1.3840    2.8630   -0.5655 O   0  0  0  0  0  0  0  0  0  0  0  0
    4.0234   -1.0341   -1.7632 O   0  0  0  0  0  0  0  0  0  0  0  0
    3.7448   -2.0913    0.2262 O   0  0  0  0  0  0  0  0  0  0  0  0
   -0.1210    1.2052    0.5869 N   0  0  0  0  0  0  0  0  0  0  0  0
    0.9604    1.0302    1.5177 C   0  0  0  0  0  0  0  0  0  0  0  0
    1.8694   -0.1439    1.1569 C   0  0  0  0  0  0  0  0  0  0  0  0
    2.5697    0.0009   -0.1966 C   0  0  0  0  0  0  0  0  0  0  0  0
   -1.1167    0.1357    0.4896 C   0  0  0  0  0  0  0  0  0  0  0  0
   -0.3113    2.4005   -0.1690 C   0  0  0  0  0  0  0  0  0  0  0  0
   -1.7945    0.0119   -0.6847 C   0  0  0  0  0  0  0  0  0  0  0  0
   -1.2937   -0.6576    1.5820 C   0  0  0  0  0  0  0  0  0  0  0  0
    3.4976   -1.1507   -0.5155 C   0  0  0  0  0  0  0  0  0  0  0  0
    0.9473    3.1848   -0.4618 C   0  0  0  0  0  0  0  0  0  0  0  0
   -2.7434   -1.0064   -0.7758 C   0  0  0  0  0  0  0  0  0  0  0  0
   -2.2425   -1.6758    1.4910 C   0  0  0  0  0  0  0  0  0  0  0  0
   -2.9674   -1.8503    0.3120 C   0  0  0  0  0  0  0  0  0  0  0  0
  1 15  1  0
  2 10  2  0
  3 13  1  0
  4 13  2  0
  5  6  1  0
  5  9  1  0
  5 10  1  0
  6  7  1  0
  7  8  1  0
  8 13  1  0
  9 11  2  0
  9 12  1  0
 10 14  1  0
 11 15  1  0
 12 16  2  0
 15 17  2  0
 16 17  1  0
M  END
>  <PUBCHEM_COMPOUND_CID>  (1) 
35377

>  <PUBCHEM_CONFORMER_RMSD>  (1) 
0.8

>  <PUBCHEM_CONFORMER_DIVERSEORDER>  (1) 
5
70
101
58
110
86
3
88
69
113
114
105
36
107
75
62
25
112
98
87
95
106
8
59
29
100
83
42
20
82
10
78
56
24
27
109
104
51
67
30
71
111
2
38
23
89
61
81
94
97
41
80
16
93
72
99
34
102
17
52
14
44
46
92
103
66
39
35
55
54
60
91
115
13
40
96
31
53
65
1
12
47
49
64
18
43
6
76
85
84
37
108
74
15
79
116
50
45
28
11
4
77
90
9
32
33
21
19
73
26
22
7
57
63
48
68

>  <PUBCHEM_MMFF94_PARTIAL_CHARGES>  (1) 
21
1 -0.18
10 0.57
11 -0.15
12 -0.15
13 0.66
14 0.06
15 0.18
16 -0.15
17 -0.15
2 -0.57
24 0.15
25 0.15
29 0.15
3 -0.65
30 0.15
31 0.5
4 -0.57
5 -0.48
6 0.3
8 0.06
9 0.12

>  <PUBCHEM_EFFECTIVE_ROTOR_COUNT>  (1) 
6

>  <PUBCHEM_PHARMACOPHORE_FEATURES>  (1) 
5
1 2 acceptor
1 3 acceptor
1 4 acceptor
3 3 4 13 anion
6 9 11 12 15 16 17 rings

>  <PUBCHEM_HEAVY_ATOM_COUNT>  (1) 
17

>  <PUBCHEM_ATOM_DEF_STEREO_COUNT>  (1) 
0

>  <PUBCHEM_ATOM_UDEF_STEREO_COUNT>  (1) 
0

>  <PUBCHEM_BOND_DEF_STEREO_COUNT>  (1) 
0

>  <PUBCHEM_BOND_UDEF_STEREO_COUNT>  (1) 
0

>  <PUBCHEM_ISOTOPIC_ATOM_COUNT>  (1) 
0

>  <PUBCHEM_COMPONENT_COUNT>  (1) 
1

>  <PUBCHEM_CACTVS_TAUTO_COUNT>  (1) 
1

>  <PUBCHEM_CONFORMER_ID>  (1) 
00008A3100000005

>  <PUBCHEM_MMFF94_ENERGY>  (1) 
53.78

>  <PUBCHEM_FEATURE_SELFOVERLAP>  (1) 
25.431

>  <PUBCHEM_SHAPE_FINGERPRINT>  (1) 
10764073 3 16758084738553875163
11127187 94 18113620101167985731
11578080 2 17560504192693851449
116883 192 18340186558299151165
12202030 40 17774427313966140992
12363563 72 18411692197357374030
12553582 1 18409177601443097730
12617007 42 18192969690891832053
12824470 246 16700601532183335415
12841375 7 17846785126138977102
13583140 156 14836108953788849298
13681431 1 18264764552763359505
14115302 16 16662019544087910425
16945 1 17897138369545758137
1813 80 18128560265039300366
18915476 22 17975975689450630157
20361792 2 18341900718058448002
20645476 183 17463417109702183208
20645477 70 18048587416048408399
20671657 53 18409164449952290554
20711985 344 18265325123309823177
20871999 31 18261671476325230277
21069387 34 17916576691416545671
21524375 3 17398953778063636312
21731516 1 18271254884244959206
22079108 93 11314310512595779031
22620623 9 18271525273673864732
22713019 5 18262225626117385173
23114952 82 17824542108888310221
23526113 38 18116415093974299623
23557571 272 18339912728664836456
23559900 14 17678711605912527496
2748010 2 17461986971908484593
4463277 69 17703213131161849223
5262128 65 18263914609037193737
576247 118 18262531388901890563
81228 2 18336532825009024257
84936 31 17911515720549943288

>  <PUBCHEM_SHAPE_MULTIPOLES>  (1) 
329.13
6.19
2.97
1.75
2.04
2.59
-0.25
-5.61
-3.15
1.25
-0.53
-0.79
-0.65
0.62

>  <PUBCHEM_SHAPE_SELFOVERLAP>  (1) 
664.397

>  <PUBCHEM_SHAPE_VOLUME>  (1) 
192.9

>  <PUBCHEM_COORDINATE_TYPE>  (1) 
2
5
10

$$$$
