35380
     RDKit          3D

 26 27  0  0  0  0  0  0  0  0999 V2000
    5.5474    1.7469   -1.2172 Cl  0  0  0  0  0  0  0  0  0  0  0  0
   -0.6842   -0.7551   -1.4332 O   0  0  0  0  0  0  0  0  0  0  0  0
   -0.6156    3.0797    0.6730 O   0  0  0  0  0  0  0  0  0  0  0  0
    2.2309   -3.9547    0.5577 O   0  0  0  0  0  0  0  0  0  0  0  0
   -6.8058    0.1339   -0.0455 O   0  0  0  0  0  0  0  0  0  0  0  0
   -5.2159    0.2695   -1.6602 O   0  0  0  0  0  0  0  0  0  0  0  0
   -0.7426    0.7112    0.9607 N   0  0  0  0  0  0  0  0  0  0  0  0
   -2.1081    0.6272    1.4022 C   0  0  0  0  0  0  0  0  0  0  0  0
   -3.0948    0.4530    0.2485 C   0  0  0  0  0  0  0  0  0  0  0  0
    0.0392   -0.5243    0.8420 C   0  0  0  0  0  0  0  0  0  0  0  0
   -4.5618    0.4027    0.6832 C   0  0  0  0  0  0  0  0  0  0  0  0
   -0.1193    1.9546    0.6333 C   0  0  0  0  0  0  0  0  0  0  0  0
    0.0220   -1.1825   -0.3485 C   0  0  0  0  0  0  0  0  0  0  0  0
    0.7315   -0.9201    1.9461 C   0  0  0  0  0  0  0  0  0  0  0  0
    1.2823    1.9034    0.1751 C   0  0  0  0  0  0  0  0  0  0  0  0
    0.7718   -2.3546   -0.4463 C   0  0  0  0  0  0  0  0  0  0  0  0
    1.4812   -2.0922    1.8483 C   0  0  0  0  0  0  0  0  0  0  0  0
    1.5014   -2.8095    0.6521 C   0  0  0  0  0  0  0  0  0  0  0  0
   -5.5245    0.2734   -0.4767 C   0  0  0  0  0  0  0  0  0  0  0  0
    1.5477    1.7685   -1.1768 C   0  0  0  0  0  0  0  0  0  0  0  0
    2.3019    1.9910    1.1076 C   0  0  0  0  0  0  0  0  0  0  0  0
    2.8729    1.7196   -1.6094 C   0  0  0  0  0  0  0  0  0  0  0  0
    3.6270    1.9424    0.6748 C   0  0  0  0  0  0  0  0  0  0  0  0
    3.9126    1.8065   -0.6836 C   0  0  0  0  0  0  0  0  0  0  0  0
   -0.6040   -1.5519   -2.6129 C   0  0  0  0  0  0  0  0  0  0  0  0
    2.2071   -4.6383   -0.6943 C   0  0  0  0  0  0  0  0  0  0  0  0
  1 24  1  0
  2 13  1  0
  2 25  1  0
  3 12  2  0
  4 18  1  0
  4 26  1  0
  5 19  1  0
  6 19  2  0
  7  8  1  0
  7 10  1  0
  7 12  1  0
  8  9  1  0
  9 11  1  0
 10 13  2  0
 10 14  1  0
 11 19  1  0
 12 15  1  0
 13 16  1  0
 14 17  2  0
 15 20  2  0
 15 21  1  0
 16 18  2  0
 17 18  1  0
 20 22  1  0
 21 23  2  0
 22 24  2  0
 23 24  1  0
M  END
>  <PUBCHEM_COMPOUND_CID>  (1) 
35380

>  <PUBCHEM_CONFORMER_RMSD>  (1) 
1

>  <PUBCHEM_CONFORMER_DIVERSEORDER>  (1) 
15
32
57
56
65
33
16
43
61
26
44
46
49
70
54
30
58
62
38
39
60
64
31
67
23
21
71
8
25
51
37
52
66
27
48
55
3
69
63
1
68
6
59
20
50
35
36
47
12
13
40
22
19
45
24
34
28
17
29
11
9
53
14
4
2
41
18
10
42
7
5

>  <PUBCHEM_MMFF94_PARTIAL_CHARGES>  (1) 
33
1 -0.18
10 0.12
11 0.06
12 0.54
13 0.08
14 -0.15
15 0.09
16 -0.15
17 -0.15
18 0.08
19 0.66
2 -0.36
20 -0.15
21 -0.15
22 -0.15
23 -0.15
24 0.18
25 0.28
26 0.28
3 -0.57
33 0.15
34 0.15
35 0.15
36 0.15
37 0.15
38 0.15
39 0.15
4 -0.36
43 0.5
5 -0.65
6 -0.57
7 -0.48
8 0.3

>  <PUBCHEM_EFFECTIVE_ROTOR_COUNT>  (1) 
9

>  <PUBCHEM_PHARMACOPHORE_FEATURES>  (1) 
8
1 2 acceptor
1 3 acceptor
1 4 acceptor
1 5 acceptor
1 6 acceptor
3 5 6 19 anion
6 10 13 14 16 17 18 rings
6 15 20 21 22 23 24 rings

>  <PUBCHEM_HEAVY_ATOM_COUNT>  (1) 
26

>  <PUBCHEM_ATOM_DEF_STEREO_COUNT>  (1) 
0

>  <PUBCHEM_ATOM_UDEF_STEREO_COUNT>  (1) 
0

>  <PUBCHEM_BOND_DEF_STEREO_COUNT>  (1) 
0

>  <PUBCHEM_BOND_UDEF_STEREO_COUNT>  (1) 
0

>  <PUBCHEM_ISOTOPIC_ATOM_COUNT>  (1) 
0

>  <PUBCHEM_COMPONENT_COUNT>  (1) 
1

>  <PUBCHEM_CACTVS_TAUTO_COUNT>  (1) 
1

>  <PUBCHEM_CONFORMER_ID>  (1) 
00008A340000000F

>  <PUBCHEM_MMFF94_ENERGY>  (1) 
109.8696

>  <PUBCHEM_FEATURE_SELFOVERLAP>  (1) 
40.657

>  <PUBCHEM_SHAPE_FINGERPRINT>  (1) 
11578080 2 17096929057762451517
12035759 4 18202561800104040205
12293681 4 16973903988723968103
12592029 89 18411138052033986913
13083527 12 18267297634437911307
13257819 101 16950834899186046517
133893 2 18117861918101169336
14863182 85 18340192042660690938
15163728 17 17024053551807169709
15849732 13 17822854298901125412
15876981 60 17326921481810649390
16752209 62 17975697512913818778
1813 80 18052250700702652335
20567600 347 18408891762473243385
20600515 1 17116081292109305352
20905425 154 18123205506205471860
21344244 246 18410582751749966830
22393880 68 18059284479108037125
23419403 2 17459734935423529950
23728640 28 18194137419964932384
25147074 1 18057334898815468217
266924 87 18335424512888088005
3060560 45 18201153351632104985
404807 78 17684915188330569231
46194498 28 18115013097117775703
59755656 215 18410300206851405565
6669772 16 18057877125393482400
70251023 43 18120661232235725683
81539 233 18259703423636582073

>  <PUBCHEM_SHAPE_MULTIPOLES>  (1) 
502.61
9.3
4.35
1.89
14.12
5.75
-0.48
-6.11
-3.39
-5.32
0.02
-0.17
0.44
-0.93

>  <PUBCHEM_SHAPE_SELFOVERLAP>  (1) 
1052.31

>  <PUBCHEM_SHAPE_VOLUME>  (1) 
286.1

>  <PUBCHEM_COORDINATE_TYPE>  (1) 
2
5
10

$$$$
