35382
     RDKit          3D

 24 25  0  0  0  0  0  0  0  0999 V2000
    1.1083   -2.0023    2.4984 Cl  0  0  0  0  0  0  0  0  0  0  0  0
   -0.7583   -2.4216   -0.4699 O   0  0  0  0  0  0  0  0  0  0  0  0
    3.5083    2.4142   -0.8637 O   0  0  0  0  0  0  0  0  0  0  0  0
    2.7336    2.7938    1.2360 O   0  0  0  0  0  0  0  0  0  0  0  0
   -0.7812   -0.0878    0.0413 N   0  0  0  0  0  0  0  0  0  0  0  0
    0.0023    1.0836    0.3251 C   0  0  0  0  0  0  0  0  0  0  0  0
   -2.2432    0.0285    0.0167 C   0  0  0  0  0  0  0  0  0  0  0  0
    0.3726    1.8685   -0.9326 C   0  0  0  0  0  0  0  0  0  0  0  0
   -2.8805   -0.2855   -1.1456 C   0  0  0  0  0  0  0  0  0  0  0  0
   -2.8612    0.4430    1.1577 C   0  0  0  0  0  0  0  0  0  0  0  0
    1.2433    3.0994   -0.6673 C   0  0  0  0  0  0  0  0  0  0  0  0
   -0.1873   -1.3613   -0.2177 C   0  0  0  0  0  0  0  0  0  0  0  0
   -4.2707   -0.1743   -1.1693 C   0  0  0  0  0  0  0  0  0  0  0  0
   -4.2515    0.5542    1.1342 C   0  0  0  0  0  0  0  0  0  0  0  0
    1.2852   -1.4391   -0.1656 C   0  0  0  0  0  0  0  0  0  0  0  0
   -2.1746   -0.7381   -2.3828 C   0  0  0  0  0  0  0  0  0  0  0  0
   -2.1346    0.7806    2.4193 C   0  0  0  0  0  0  0  0  0  0  0  0
   -4.9561    0.2455   -0.0294 C   0  0  0  0  0  0  0  0  0  0  0  0
    2.5465    2.7711    0.0275 C   0  0  0  0  0  0  0  0  0  0  0  0
    1.9501   -1.7230    1.0164 C   0  0  0  0  0  0  0  0  0  0  0  0
    1.9787   -1.2170   -1.3458 C   0  0  0  0  0  0  0  0  0  0  0  0
    3.3436   -1.7866    1.0196 C   0  0  0  0  0  0  0  0  0  0  0  0
    3.3721   -1.2806   -1.3426 C   0  0  0  0  0  0  0  0  0  0  0  0
    4.0546   -1.5654   -0.1599 C   0  0  0  0  0  0  0  0  0  0  0  0
  1 20  1  0
  2 12  2  0
  3 19  1  0
  4 19  2  0
  5  6  1  0
  5  7  1  0
  5 12  1  0
  6  8  1  0
  7  9  2  0
  7 10  1  0
  8 11  1  0
  9 13  1  0
  9 16  1  0
 10 14  2  0
 10 17  1  0
 11 19  1  0
 12 15  1  0
 13 18  2  0
 14 18  1  0
 15 20  2  0
 15 21  1  0
 20 22  1  0
 21 23  2  0
 22 24  2  0
 23 24  1  0
M  END
>  <PUBCHEM_COMPOUND_CID>  (1) 
35382

>  <PUBCHEM_CONFORMER_RMSD>  (1) 
0.8

>  <PUBCHEM_CONFORMER_DIVERSEORDER>  (1) 
2
16
46
42
8
10
32
34
24
19
30
52
50
18
26
7
31
25
43
23
45
17
49
29
44
27
9
37
15
47
11
28
41
21
1
36
33
13
20
6
12
38
4
40
35
22
51
39
48
5
3
14

>  <PUBCHEM_MMFF94_PARTIAL_CHARGES>  (1) 
31
1 -0.18
10 -0.14
11 0.06
12 0.54
13 -0.15
14 -0.15
15 0.09
16 0.14
17 0.14
18 -0.15
19 0.66
2 -0.57
20 0.18
21 -0.15
22 -0.15
23 -0.15
24 -0.15
3 -0.65
31 0.15
32 0.15
39 0.15
4 -0.57
40 0.15
41 0.15
42 0.15
43 0.15
44 0.5
5 -0.48
6 0.3
7 0.12
9 -0.14

>  <PUBCHEM_EFFECTIVE_ROTOR_COUNT>  (1) 
7

>  <PUBCHEM_PHARMACOPHORE_FEATURES>  (1) 
6
1 2 acceptor
1 3 acceptor
1 4 acceptor
3 3 4 19 anion
6 15 20 21 22 23 24 rings
6 7 9 10 13 14 18 rings

>  <PUBCHEM_HEAVY_ATOM_COUNT>  (1) 
24

>  <PUBCHEM_ATOM_DEF_STEREO_COUNT>  (1) 
0

>  <PUBCHEM_ATOM_UDEF_STEREO_COUNT>  (1) 
0

>  <PUBCHEM_BOND_DEF_STEREO_COUNT>  (1) 
0

>  <PUBCHEM_BOND_UDEF_STEREO_COUNT>  (1) 
0

>  <PUBCHEM_ISOTOPIC_ATOM_COUNT>  (1) 
0

>  <PUBCHEM_COMPONENT_COUNT>  (1) 
1

>  <PUBCHEM_CACTVS_TAUTO_COUNT>  (1) 
1

>  <PUBCHEM_CONFORMER_ID>  (1) 
00008A3600000002

>  <PUBCHEM_MMFF94_ENERGY>  (1) 
91.5076

>  <PUBCHEM_FEATURE_SELFOVERLAP>  (1) 
30.506

>  <PUBCHEM_SHAPE_FINGERPRINT>  (1) 
10366900 7 17530971237219822955
10989021 7 18412544275692263860
11578080 2 17677349306304244925
12236239 1 18060419080460073479
12422481 6 18123435433469935064
12553582 1 18337670789652905374
12592029 89 18116422842248529345
12788726 201 17395006548304409536
13140716 1 18409730702756927858
133893 2 18264185062943226284
13583140 156 17967813860008621355
14181834 199 18411979182571189548
14787075 74 17749687237158208170
14955137 171 17984734158385180627
1601671 61 18053949450662551833
16945 1 18337680706516126942
17492 54 18336564762954984388
17980427 23 17773853416320579290
1813 80 18270964514311987414
200 152 17532094899390941779
20600515 1 18198883886449132946
20691752 17 17749943483306780150
23402539 116 18198621030398334478
23419403 2 17824856483314287577
23558518 356 17759243285893213878
23559900 14 16343413990946051335
23566358 2 18195528322979544687
23598288 3 17613712613903849906
3380486 77 17618449477463825087
4340502 62 18266467692849755195
474 4 18338795727470963576
5895379 119 17202784595524516416
6034566 193 17466235540357230084
7495541 125 17968107421307938027
9981440 41 17624405781407393464

>  <PUBCHEM_SHAPE_MULTIPOLES>  (1) 
473.19
7.77
3.1
2.02
4.51
2.7
-0.52
-0.56
0.38
-4.23
-0.26
0.65
-0.59
-0.72

>  <PUBCHEM_SHAPE_SELFOVERLAP>  (1) 
995.601

>  <PUBCHEM_SHAPE_VOLUME>  (1) 
267.3

>  <PUBCHEM_COORDINATE_TYPE>  (1) 
2
5
10

$$$$
