35386
     RDKit          3D

 14 16  0  0  0  0  0  0  0  0999 V2000
    3.7139    0.6762    0.3514 C   0  0  0  0  0  0  0  0  0  0  0  0
    3.7145   -0.6761   -0.3492 C   0  0  0  0  0  0  0  0  0  0  0  0
    2.4893    1.4904   -0.0621 C   0  0  0  0  0  0  0  0  0  0  0  0
    2.4893   -1.4903    0.0620 C   0  0  0  0  0  0  0  0  0  0  0  0
    1.2041    0.7020   -0.0099 C   0  0  0  0  0  0  0  0  0  0  0  0
    1.2041   -0.7020    0.0085 C   0  0  0  0  0  0  0  0  0  0  0  0
   -0.0184    1.3914   -0.0380 C   0  0  0  0  0  0  0  0  0  0  0  0
   -0.0183   -1.3915    0.0364 C   0  0  0  0  0  0  0  0  0  0  0  0
   -1.2436    0.7058   -0.0207 C   0  0  0  0  0  0  0  0  0  0  0  0
   -1.2436   -0.7058    0.0194 C   0  0  0  0  0  0  0  0  0  0  0  0
   -2.4687    1.3927   -0.0411 C   0  0  0  0  0  0  0  0  0  0  0  0
   -2.4688   -1.3927    0.0415 C   0  0  0  0  0  0  0  0  0  0  0  0
   -3.6769    0.6954   -0.0200 C   0  0  0  0  0  0  0  0  0  0  0  0
   -3.6769   -0.6954    0.0218 C   0  0  0  0  0  0  0  0  0  0  0  0
  1  2  1  0
  1  3  1  0
  2  4  1  0
  3  5  1  0
  4  6  1  0
  5  6  2  0
  5  7  1  0
  6  8  1  0
  7  9  2  0
  8 10  2  0
  9 10  1  0
  9 11  1  0
 10 12  1  0
 11 13  2  0
 12 14  2  0
 13 14  1  0
M  END
>  <PUBCHEM_COMPOUND_CID>  (1) 
35386

>  <PUBCHEM_CONFORMER_RMSD>  (1) 
0.4

>  <PUBCHEM_CONFORMER_DIVERSEORDER>  (1) 
1

>  <PUBCHEM_MMFF94_PARTIAL_CHARGES>  (1) 
16
11 -0.15
12 -0.15
13 -0.15
14 -0.15
23 0.15
24 0.15
25 0.15
26 0.15
27 0.15
28 0.15
3 0.14
4 0.14
5 -0.14
6 -0.14
7 -0.15
8 -0.15

>  <PUBCHEM_EFFECTIVE_ROTOR_COUNT>  (1) 
0.8

>  <PUBCHEM_PHARMACOPHORE_FEATURES>  (1) 
3
6 1 2 3 4 5 6 rings
6 5 6 7 8 9 10 rings
6 9 10 11 12 13 14 rings

>  <PUBCHEM_HEAVY_ATOM_COUNT>  (1) 
14

>  <PUBCHEM_ATOM_DEF_STEREO_COUNT>  (1) 
0

>  <PUBCHEM_ATOM_UDEF_STEREO_COUNT>  (1) 
0

>  <PUBCHEM_BOND_DEF_STEREO_COUNT>  (1) 
0

>  <PUBCHEM_BOND_UDEF_STEREO_COUNT>  (1) 
0

>  <PUBCHEM_ISOTOPIC_ATOM_COUNT>  (1) 
0

>  <PUBCHEM_COMPONENT_COUNT>  (1) 
1

>  <PUBCHEM_CACTVS_TAUTO_COUNT>  (1) 
1

>  <PUBCHEM_CONFORMER_ID>  (1) 
00008A3A00000001

>  <PUBCHEM_MMFF94_ENERGY>  (1) 
33.2484

>  <PUBCHEM_FEATURE_SELFOVERLAP>  (1) 
15.269

>  <PUBCHEM_SHAPE_FINGERPRINT>  (1) 
10411042 1 15744442624593215575
10608611 8 18410852161609505472
10922523 26 18411982451009458430
10967382 1 18410292501605950378
10980938 120 18410856559972287378
11132069 177 18411131446168414256
11471102 20 18411133632470207300
11806522 49 18338513166010101279
12032990 46 18410580590821825315
12932764 1 17458618978217939973
13221675 6 18410011035203453986
13296908 3 18411983559121719430
13380535 76 18410009952871896818
14144814 61 18410011018018180291
14325111 11 18410855464423330465
15196674 1 18410855460186184076
15219456 202 18412544309998975254
15442244 35 18194964041585832626
15536298 74 18342738516212536960
15775835 57 18410295808714937553
16945 1 18408603660325026055
18186145 218 18409730621136328684
18522853 276 18413387644002301840
193761 8 17617940231722566765
200 152 18060128860929818461
20201158 50 18411419496729628874
20510252 161 18272652329069419385
20528008 55 18412539916400451213
20645477 70 18342173332565392495
21267235 1 18410583885072570183
21501502 16 18410856563950581125
21501925 9 18409720777298100602
221490 88 18336837484487937826
2334 1 18410575114733124743
23402539 116 18342728633049710036
23402655 69 18341326713070307613
23463225 33 18408322181222218172
23559900 14 18341609270832353234
2748010 2 18410293609696924431
3312278 4 18411421717301372761
335352 9 18122343467271100317
474 4 16734683089909525580
5104073 3 18410856555350111010
528886 8 18410849958301481530
53812653 166 18342734148020067000
57096353 35 18338516464143798607
69090 78 18343860030841959903
7364860 26 18343582941279831974
8809292 202 18261116300273300611
9709674 26 18411423937852764374

>  <PUBCHEM_SHAPE_MULTIPOLES>  (1) 
288.11
6.7
1.76
0.64
0.25
0
0
0
0
0.09
0
0.07
0
0.12

>  <PUBCHEM_SHAPE_SELFOVERLAP>  (1) 
635.53

>  <PUBCHEM_SHAPE_VOLUME>  (1) 
145.9

>  <PUBCHEM_COORDINATE_TYPE>  (1) 
2
5
10

$$$$
