35383
     RDKit          3D

 24 25  0  0  0  0  0  0  0  0999 V2000
    5.6647    1.3951    0.2566 Cl  0  0  0  0  0  0  0  0  0  0  0  0
   -0.8139    2.5388    0.0289 O   0  0  0  0  0  0  0  0  0  0  0  0
    2.4510   -4.0656    0.3612 O   0  0  0  0  0  0  0  0  0  0  0  0
    2.9396   -1.9688   -0.3585 O   0  0  0  0  0  0  0  0  0  0  0  0
   -0.9564    0.1573    0.1590 N   0  0  0  0  0  0  0  0  0  0  0  0
   -0.2343   -1.0819    0.2557 C   0  0  0  0  0  0  0  0  0  0  0  0
   -2.4219    0.1194    0.1080 C   0  0  0  0  0  0  0  0  0  0  0  0
    0.1147   -1.6731   -1.1095 C   0  0  0  0  0  0  0  0  0  0  0  0
   -3.0275    0.6467   -0.9925 C   0  0  0  0  0  0  0  0  0  0  0  0
   -3.0746   -0.4397    1.1648 C   0  0  0  0  0  0  0  0  0  0  0  0
    0.8476   -3.0154   -1.0404 C   0  0  0  0  0  0  0  0  0  0  0  0
   -0.2983    1.4248    0.1109 C   0  0  0  0  0  0  0  0  0  0  0  0
   -4.4211    0.6113   -1.0408 C   0  0  0  0  0  0  0  0  0  0  0  0
   -4.4681   -0.4754    1.1165 C   0  0  0  0  0  0  0  0  0  0  0  0
    1.1767    1.4177    0.1465 C   0  0  0  0  0  0  0  0  0  0  0  0
   -2.2839    1.2542   -2.1377 C   0  0  0  0  0  0  0  0  0  0  0  0
   -2.3820   -1.0110    2.3596 C   0  0  0  0  0  0  0  0  0  0  0  0
   -5.1414    0.0503    0.0136 C   0  0  0  0  0  0  0  0  0  0  0  0
    2.1844   -2.9306   -0.3372 C   0  0  0  0  0  0  0  0  0  0  0  0
    1.8820    1.3537   -1.0430 C   0  0  0  0  0  0  0  0  0  0  0  0
    1.8237    1.4747    1.3693 C   0  0  0  0  0  0  0  0  0  0  0  0
    3.2765    1.3465   -1.0088 C   0  0  0  0  0  0  0  0  0  0  0  0
    3.2181    1.4676    1.4034 C   0  0  0  0  0  0  0  0  0  0  0  0
    3.9446    1.4034    0.2144 C   0  0  0  0  0  0  0  0  0  0  0  0
  1 24  1  0
  2 12  2  0
  3 19  1  0
  4 19  2  0
  5  6  1  0
  5  7  1  0
  5 12  1  0
  6  8  1  0
  7  9  2  0
  7 10  1  0
  8 11  1  0
  9 13  1  0
  9 16  1  0
 10 14  2  0
 10 17  1  0
 11 19  1  0
 12 15  1  0
 13 18  2  0
 14 18  1  0
 15 20  2  0
 15 21  1  0
 20 22  1  0
 21 23  2  0
 22 24  2  0
 23 24  1  0
M  END
>  <PUBCHEM_COMPOUND_CID>  (1) 
35383

>  <PUBCHEM_CONFORMER_RMSD>  (1) 
0.8

>  <PUBCHEM_CONFORMER_DIVERSEORDER>  (1) 
11
6
17
14
31
32
21
34
26
22
27
23
33
1
12
35
13
29
24
30
7
10
18
25
20
8
19
4
5
16
9
2
28
3
15

>  <PUBCHEM_MMFF94_PARTIAL_CHARGES>  (1) 
31
1 -0.18
10 -0.14
11 0.06
12 0.54
13 -0.15
14 -0.15
15 0.09
16 0.14
17 0.14
18 -0.15
19 0.66
2 -0.57
20 -0.15
21 -0.15
22 -0.15
23 -0.15
24 0.18
3 -0.65
31 0.15
32 0.15
39 0.15
4 -0.57
40 0.15
41 0.15
42 0.15
43 0.15
44 0.5
5 -0.48
6 0.3
7 0.12
9 -0.14

>  <PUBCHEM_EFFECTIVE_ROTOR_COUNT>  (1) 
7

>  <PUBCHEM_PHARMACOPHORE_FEATURES>  (1) 
6
1 2 acceptor
1 3 acceptor
1 4 acceptor
3 3 4 19 anion
6 15 20 21 22 23 24 rings
6 7 9 10 13 14 18 rings

>  <PUBCHEM_HEAVY_ATOM_COUNT>  (1) 
24

>  <PUBCHEM_ATOM_DEF_STEREO_COUNT>  (1) 
0

>  <PUBCHEM_ATOM_UDEF_STEREO_COUNT>  (1) 
0

>  <PUBCHEM_BOND_DEF_STEREO_COUNT>  (1) 
0

>  <PUBCHEM_BOND_UDEF_STEREO_COUNT>  (1) 
0

>  <PUBCHEM_ISOTOPIC_ATOM_COUNT>  (1) 
0

>  <PUBCHEM_COMPONENT_COUNT>  (1) 
1

>  <PUBCHEM_CACTVS_TAUTO_COUNT>  (1) 
1

>  <PUBCHEM_CONFORMER_ID>  (1) 
00008A370000000B

>  <PUBCHEM_MMFF94_ENERGY>  (1) 
90.4889

>  <PUBCHEM_FEATURE_SELFOVERLAP>  (1) 
30.505

>  <PUBCHEM_SHAPE_FINGERPRINT>  (1) 
107951 10 17749388213340615922
11578080 2 17823978922600872869
11963148 33 18118113895823616699
12236239 1 16917075473166709377
12293681 25 18041294248290223339
12592029 89 18341328976470456691
12596602 18 17203611535995739849
12788726 201 16605758311537219754
13140716 1 18054227901723940440
13149001 5 17544751231814846397
133893 2 18192735374471168114
13533116 47 18272090466364982211
13583140 156 17917715742766228921
13911987 19 18266465488656593021
14251757 17 17969501511451267907
15309172 13 18269559497418265945
1813 80 17343515400900390702
18915476 22 18411411779047938039
20028762 73 17697604647140810791
20645477 70 18410570656594170182
20691752 17 17386576730552153137
21285901 2 18040992921831641501
22182313 1 18187921729591815741
23419403 2 18044643213977466311
23557571 272 17603587409272159765
23558518 356 18119815707287985649
23559900 14 17750242417278433567
266924 87 18340482253522474333
3380486 145 18263098759015222947
4340502 62 17916882334517050507
465052 167 17605848142670243475
469060 322 18048024461900409527
474 4 17059209426545522944
5265222 85 18192722357296160916
59755656 215 18408323280554445919
59755656 520 17845658169490779588
633830 44 17703514405716624689
6669772 16 18272657861852583694
81228 2 17334205127378315182

>  <PUBCHEM_SHAPE_MULTIPOLES>  (1) 
473.19
9.25
3.23
1.63
0.16
4.14
0.22
-3.21
1.03
-3.59
-0.49
1.02
-0.13
1.27

>  <PUBCHEM_SHAPE_SELFOVERLAP>  (1) 
995.029

>  <PUBCHEM_SHAPE_VOLUME>  (1) 
268

>  <PUBCHEM_COORDINATE_TYPE>  (1) 
2
5
10

$$$$
