35397
     RDKit          3D

 10 10  0  0  0  0  0  0  0  0999 V2000
    1.1703   -2.7445   -0.0001 Cl  0  0  0  0  0  0  0  0  0  0  0  0
    1.1693    2.7448   -0.0001 Cl  0  0  0  0  0  0  0  0  0  0  0  0
    2.8099    0.0005    0.0001 Cl  0  0  0  0  0  0  0  0  0  0  0  0
   -1.7182   -0.0002    0.0000 C   0  0  0  0  0  0  0  0  0  0  0  0
   -1.0210    1.2079    0.0000 C   0  0  0  0  0  0  0  0  0  0  0  0
   -1.0206   -1.2082    0.0000 C   0  0  0  0  0  0  0  0  0  0  0  0
    0.3743   -1.2081    0.0000 C   0  0  0  0  0  0  0  0  0  0  0  0
    0.3738    1.2080    0.0000 C   0  0  0  0  0  0  0  0  0  0  0  0
   -3.2096   -0.0004    0.0000 C   0  0  0  0  0  0  0  0  0  0  0  0
    1.0716    0.0001    0.0000 C   0  0  0  0  0  0  0  0  0  0  0  0
  1  7  1  0
  2  8  1  0
  3 10  1  0
  4  5  2  0
  4  6  1  0
  4  9  1  0
  5  8  1  0
  6  7  2  0
  7 10  1  0
  8 10  2  0
M  END
>  <PUBCHEM_COMPOUND_CID>  (1) 
35397

>  <PUBCHEM_CONFORMER_RMSD>  (1) 
0.4

>  <PUBCHEM_CONFORMER_DIVERSEORDER>  (1) 
1

>  <PUBCHEM_MMFF94_PARTIAL_CHARGES>  (1) 
12
1 -0.18
10 0.18
11 0.15
12 0.15
2 -0.18
3 -0.18
4 -0.14
5 -0.15
6 -0.15
7 0.18
8 0.18
9 0.14

>  <PUBCHEM_EFFECTIVE_ROTOR_COUNT>  (1) 
0

>  <PUBCHEM_PHARMACOPHORE_FEATURES>  (1) 
1
6 4 5 6 7 8 10 rings

>  <PUBCHEM_HEAVY_ATOM_COUNT>  (1) 
10

>  <PUBCHEM_ATOM_DEF_STEREO_COUNT>  (1) 
0

>  <PUBCHEM_ATOM_UDEF_STEREO_COUNT>  (1) 
0

>  <PUBCHEM_BOND_DEF_STEREO_COUNT>  (1) 
0

>  <PUBCHEM_BOND_UDEF_STEREO_COUNT>  (1) 
0

>  <PUBCHEM_ISOTOPIC_ATOM_COUNT>  (1) 
0

>  <PUBCHEM_COMPONENT_COUNT>  (1) 
1

>  <PUBCHEM_CACTVS_TAUTO_COUNT>  (1) 
1

>  <PUBCHEM_CONFORMER_ID>  (1) 
00008A4500000001

>  <PUBCHEM_MMFF94_ENERGY>  (1) 
21.8501

>  <PUBCHEM_FEATURE_SELFOVERLAP>  (1) 
5.074

>  <PUBCHEM_SHAPE_FINGERPRINT>  (1) 
1 1 18338233872670782431
13380535 76 17908697680916768676
13380536 305 18338805631428255740
161256 15 18125162632528636278
16945 1 18410575084863519493
18185500 45 18340486668769245543
193761 8 17762338007382750468
20588541 1 18334581226265973715
20871998 184 16541875131258593412
21040471 1 17906452482357093029
2334 1 17978229692408269959
23402655 69 18195509421635577341
23552423 10 18339640148127214295
241688 4 17906173953680169729
2748010 2 18048600605539156775
5084963 1 18059012903228765665

>  <PUBCHEM_SHAPE_MULTIPOLES>  (1) 
211.4
3.39
2.8
0.63
1.41
0
0
0
0
-1.61
0
-0.02
0
0

>  <PUBCHEM_SHAPE_SELFOVERLAP>  (1) 
411.716

>  <PUBCHEM_SHAPE_VOLUME>  (1) 
124.8

>  <PUBCHEM_COORDINATE_TYPE>  (1) 
2
5
10

$$$$
