35409
     RDKit          3D

 11 10  0  0  0  0  0  0  0  0999 V2000
    0.4206   -0.2675    0.2415 O   0  0  0  0  0  0  0  0  0  0  0  0
    2.1772   -1.6424   -0.3262 O   0  0  0  0  0  0  0  0  0  0  0  0
   -4.4866    0.8797   -0.0823 O   0  0  0  0  0  0  0  0  0  0  0  0
   -2.3092    0.0640   -0.4213 N   0  0  0  0  0  0  0  0  0  0  0  0
   -0.4694   -1.3886    0.2228 C   0  0  0  0  0  0  0  0  0  0  0  0
   -1.8718   -0.9232    0.5695 C   0  0  0  0  0  0  0  0  0  0  0  0
    2.5207    0.7138    0.0065 C   0  0  0  0  0  0  0  0  0  0  0  0
    1.7207   -0.5412   -0.0533 C   0  0  0  0  0  0  0  0  0  0  0  0
    1.8625    2.0145    0.3514 C   0  0  0  0  0  0  0  0  0  0  0  0
    3.8320    0.6209   -0.2587 C   0  0  0  0  0  0  0  0  0  0  0  0
   -3.3967    0.4699   -0.2500 C   0  0  0  0  0  0  0  0  0  0  0  0
  1  5  1  0
  1  8  1  0
  2  8  2  0
  3 11  2  0
  4  6  1  0
  4 11  2  0
  5  6  1  0
  7  8  1  0
  7  9  1  0
  7 10  2  0
M  END
>  <PUBCHEM_COMPOUND_CID>  (1) 
35409

>  <PUBCHEM_CONFORMER_RMSD>  (1) 
0.6

>  <PUBCHEM_CONFORMER_DIVERSEORDER>  (1) 
1
126
31
85
59
113
88
138
119
3
103
47
65
121
56
115
44
107
117
57
81
116
70
111
50
99
112
48
62
43
53
34
28
66
32
94
77
15
72
12
17
23
133
71
82
21
20
104
128
110
10
98
35
130
83
5
108
33
14
7
78
26
74
92
30
101
102
64
19
90
69
87
89
84
134
76
67
124
96
11
86
22
80
51
37
45
42
114
49
97
109
118
25
6
100
40
38
36
95
68
8
135
91
13
125
2
39
58
27
61
16
52
9
29
60
106
24
129
18
132
4
79
63
41
127
55
75
54
105
137
131
120
46
73
136
93
122
123

>  <PUBCHEM_MMFF94_PARTIAL_CHARGES>  (1) 
13
1 -0.43
10 -0.3
11 0.79
19 0.15
2 -0.57
20 0.15
3 -0.49
4 -0.55
5 0.28
6 0.25
7 -0.12
8 0.71
9 0.14

>  <PUBCHEM_EFFECTIVE_ROTOR_COUNT>  (1) 
5

>  <PUBCHEM_PHARMACOPHORE_FEATURES>  (1) 
2
1 2 acceptor
1 4 acceptor

>  <PUBCHEM_HEAVY_ATOM_COUNT>  (1) 
11

>  <PUBCHEM_ATOM_DEF_STEREO_COUNT>  (1) 
0

>  <PUBCHEM_ATOM_UDEF_STEREO_COUNT>  (1) 
0

>  <PUBCHEM_BOND_DEF_STEREO_COUNT>  (1) 
0

>  <PUBCHEM_BOND_UDEF_STEREO_COUNT>  (1) 
0

>  <PUBCHEM_ISOTOPIC_ATOM_COUNT>  (1) 
0

>  <PUBCHEM_COMPONENT_COUNT>  (1) 
1

>  <PUBCHEM_CACTVS_TAUTO_COUNT>  (1) 
1

>  <PUBCHEM_CONFORMER_ID>  (1) 
00008A5100000001

>  <PUBCHEM_MMFF94_ENERGY>  (1) 
13.0593

>  <PUBCHEM_FEATURE_SELFOVERLAP>  (1) 
10.149

>  <PUBCHEM_SHAPE_FINGERPRINT>  (1) 
10608611 8 18337390560005428113
12251169 10 11963391851391773041
13922767 16 18272083955078659776
14252887 29 12396290440140880216
14325111 11 18408885139992589747
14390081 3 18336545009862403851
15775835 57 18333168375283118405
177051 138 9295289443313143137
18186145 218 18342463603893211035
20201158 50 18412263943250550960
20606313 2 18412824664063178644
20645476 183 17418085546817005335
20645477 70 18271810064429040775
21119208 17 17275105033039362757
22485316 2 9367345925260516009
23402655 69 18272366447672462645
23500284 214 18187369826689762529
25 1 18409729551657907754

>  <PUBCHEM_SHAPE_MULTIPOLES>  (1) 
203.79
7.11
1.66
0.67
4.58
0.1
-0.03
2.89
0.8
-0.62
-0.12
0.02
0
0.39

>  <PUBCHEM_SHAPE_SELFOVERLAP>  (1) 
391.859

>  <PUBCHEM_SHAPE_VOLUME>  (1) 
123.6

>  <PUBCHEM_COORDINATE_TYPE>  (1) 
2
5
10

$$$$
