3540
     RDKit          3D

 18 19  0  0  0  0  0  0  0  0999 V2000
    0.5924   -1.4790   -1.1634 S   0  0  0  0  0  0  0  0  0  0  0  0
    1.2635   -2.6815   -0.6972 O   0  0  0  0  0  0  0  0  0  0  0  0
   -0.0638   -1.4757   -2.4604 O   0  0  0  0  0  0  0  0  0  0  0  0
    1.6875   -0.1717   -1.0946 N   0  0  0  0  0  0  0  0  0  0  0  0
    4.4247    1.1126    1.0873 N   0  0  0  0  0  0  0  0  0  0  0  0
   -3.3113    2.1799   -0.5018 N   0  0  0  0  0  0  0  0  0  0  0  0
   -0.6086   -1.0163    0.0327 C   0  0  0  0  0  0  0  0  0  0  0  0
   -1.5005    0.0510   -0.1619 C   0  0  0  0  0  0  0  0  0  0  0  0
    2.3780    0.1446    0.1639 C   0  0  0  0  0  0  0  0  0  0  0  0
   -2.4342    0.3579    0.8493 C   0  0  0  0  0  0  0  0  0  0  0  0
    3.7190    0.7934   -0.1472 C   0  0  0  0  0  0  0  0  0  0  0  0
   -0.6433   -1.7653    1.2103 C   0  0  0  0  0  0  0  0  0  0  0  0
   -2.4603   -0.4022    2.0303 C   0  0  0  0  0  0  0  0  0  0  0  0
   -1.4908    0.8202   -1.3311 C   0  0  0  0  0  0  0  0  0  0  0  0
   -1.5671   -1.4587    2.2068 C   0  0  0  0  0  0  0  0  0  0  0  0
   -3.3046    1.4254    0.6202 C   0  0  0  0  0  0  0  0  0  0  0  0
   -2.4039    1.8571   -1.4479 C   0  0  0  0  0  0  0  0  0  0  0  0
    5.7232    1.7083    0.8048 C   0  0  0  0  0  0  0  0  0  0  0  0
  1  2  2  0
  1  3  2  0
  1  4  1  0
  1  7  1  0
  4  9  1  0
  5 11  1  0
  5 18  1  0
  6 16  2  0
  6 17  1  0
  7  8  1  0
  7 12  2  0
  8 10  2  0
  8 14  1  0
  9 11  1  0
 10 13  1  0
 10 16  1  0
 12 15  1  0
 13 15  2  0
 14 17  2  0
M  END
>  <PUBCHEM_COMPOUND_CID>  (1) 
3540

>  <PUBCHEM_CONFORMER_RMSD>  (1) 
0.6

>  <PUBCHEM_CONFORMER_DIVERSEORDER>  (1) 
1
54
36
34
51
6
45
50
48
3
27
12
60
52
28
38
53
59
58
39
33
37
19
21
23
11
46
47
29
43
42
16
55
2
22
17
30
10
40
56
31
44
5
14
18
7
41
25
32
4
13
9
8
57
20
24
49
15
26
35

>  <PUBCHEM_MMFF94_PARTIAL_CHARGES>  (1) 
24
1 1.45
11 0.27
12 -0.15
13 -0.15
14 -0.15
15 -0.15
16 0.16
17 0.16
18 0.27
2 -0.65
21 0.42
24 0.15
25 0.15
26 0.15
27 0.15
28 0.15
29 0.36
3 -0.65
30 0.15
4 -0.91
5 -0.9
6 -0.62
7 -0.01
9 0.36

>  <PUBCHEM_EFFECTIVE_ROTOR_COUNT>  (1) 
5

>  <PUBCHEM_PHARMACOPHORE_FEATURES>  (1) 
8
1 2 acceptor
1 3 acceptor
1 4 donor
1 5 cation
1 5 donor
1 6 acceptor
6 6 8 10 14 16 17 rings
6 7 8 10 12 13 15 rings

>  <PUBCHEM_HEAVY_ATOM_COUNT>  (1) 
18

>  <PUBCHEM_ATOM_DEF_STEREO_COUNT>  (1) 
0

>  <PUBCHEM_ATOM_UDEF_STEREO_COUNT>  (1) 
0

>  <PUBCHEM_BOND_DEF_STEREO_COUNT>  (1) 
0

>  <PUBCHEM_BOND_UDEF_STEREO_COUNT>  (1) 
0

>  <PUBCHEM_ISOTOPIC_ATOM_COUNT>  (1) 
0

>  <PUBCHEM_COMPONENT_COUNT>  (1) 
1

>  <PUBCHEM_CACTVS_TAUTO_COUNT>  (1) 
1

>  <PUBCHEM_CONFORMER_ID>  (1) 
00000DD400000001

>  <PUBCHEM_MMFF94_ENERGY>  (1) 
30.3829

>  <PUBCHEM_FEATURE_SELFOVERLAP>  (1) 
40.64

>  <PUBCHEM_SHAPE_FINGERPRINT>  (1) 
11127187 94 10591771956265520456
11221954 11 18123753054179543788
11640471 11 16558195882265558050
11680611 10 15721114693649261399
11725454 13 18265033774282543541
12633257 1 17458349645414929884
12892183 10 17821729464039995434
13134695 92 17694789519294873126
13544592 271 18411703166429619464
13571099 52 18335703776145687943
14142880 1 17846222218992777691
14420673 8 17242161350459555114
15061688 2 18339071605846974164
15295992 7 17902529090051435817
16945 1 17097808732132609851
17780758 139 16951384638574764152
18219364 16 18202006572496809016
20871999 31 12535632648045277905
21095088 737 14978252864135627056
21650355 55 17532663540217865059
23175994 123 17692268338974276310
23402539 116 18114461279561686947
23557571 272 17970658279494035739
23559900 14 17751942232116299391
27216 239 18338515347642556096
2748010 2 16809577170712537955
4072396 5 16371308631935875817
4921388 177 10663556927602527040
58807428 26 17023753299433660633
7097593 13 17022618676543074464
7364860 26 16740588201816255691
81228 2 17607282898118222667
90316 7 16877950450881819325
9981440 41 18340476799140069720

>  <PUBCHEM_SHAPE_MULTIPOLES>  (1) 
347.6
7.43
2.4
2.02
13.47
0.17
0.44
-6.08
-4.38
-1.14
0.14
-0.26
0.77
1.79

>  <PUBCHEM_SHAPE_SELFOVERLAP>  (1) 
719.308

>  <PUBCHEM_SHAPE_VOLUME>  (1) 
199.4

>  <PUBCHEM_COORDINATE_TYPE>  (1) 
2
5
10

$$$$
