35400
     RDKit          3D

 26 28  0  0  0  0  0  0  0  0999 V2000
    5.9230   -3.1079    0.7452 Cl  0  0  0  0  0  0  0  0  0  0  0  0
    3.4280    5.0464    0.3751 Cl  0  0  0  0  0  0  0  0  0  0  0  0
   -2.4117   -0.8304    0.8039 O   0  0  0  0  0  0  0  0  0  0  0  0
    0.7241   -0.9777   -0.9602 O   0  0  0  0  0  0  0  0  0  0  0  0
   -0.6037    0.8153   -0.1885 O   0  0  0  0  0  0  0  0  0  0  0  0
   -1.6860   -2.2278   -0.8817 O   0  0  0  0  0  0  0  0  0  0  0  0
   -3.7767   -0.9412    0.4156 C   0  0  0  0  0  0  0  0  0  0  0  0
   -3.9986   -0.1935   -0.8982 C   0  0  0  0  0  0  0  0  0  0  0  0
   -4.6723   -0.4001    1.5294 C   0  0  0  0  0  0  0  0  0  0  0  0
   -5.4681   -0.2003   -1.3066 C   0  0  0  0  0  0  0  0  0  0  0  0
   -6.1419   -0.4070    1.1212 C   0  0  0  0  0  0  0  0  0  0  0  0
   -6.3633    0.3382   -0.1931 C   0  0  0  0  0  0  0  0  0  0  0  0
   -1.4956   -1.3095   -0.0948 C   0  0  0  0  0  0  0  0  0  0  0  0
   -0.1920   -0.5408    0.0385 C   0  0  0  0  0  0  0  0  0  0  0  0
    1.9366   -1.4757   -0.5636 C   0  0  0  0  0  0  0  0  0  0  0  0
    0.3377    1.8009   -0.0574 C   0  0  0  0  0  0  0  0  0  0  0  0
    1.9859   -2.5961    0.2584 C   0  0  0  0  0  0  0  0  0  0  0  0
    0.9854    1.9778    1.1605 C   0  0  0  0  0  0  0  0  0  0  0  0
    3.1073   -0.8546   -0.9851 C   0  0  0  0  0  0  0  0  0  0  0  0
    0.6359    2.6177   -1.1429 C   0  0  0  0  0  0  0  0  0  0  0  0
    3.2211   -3.1018    0.6640 C   0  0  0  0  0  0  0  0  0  0  0  0
    1.9429    2.9834    1.2943 C   0  0  0  0  0  0  0  0  0  0  0  0
    4.3424   -1.3604   -0.5796 C   0  0  0  0  0  0  0  0  0  0  0  0
    1.5934    3.6231   -1.0090 C   0  0  0  0  0  0  0  0  0  0  0  0
    4.3993   -2.4839    0.2449 C   0  0  0  0  0  0  0  0  0  0  0  0
    2.2468    3.8060    0.2097 C   0  0  0  0  0  0  0  0  0  0  0  0
  1 25  1  0
  2 26  1  0
  3  7  1  0
  3 13  1  0
  4 14  1  0
  4 15  1  0
  5 14  1  0
  5 16  1  0
  6 13  2  0
  7  8  1  0
  7  9  1  0
  8 10  1  0
  9 11  1  0
 10 12  1  0
 11 12  1  0
 13 14  1  0
 15 17  2  0
 15 19  1  0
 16 18  2  0
 16 20  1  0
 17 21  1  0
 18 22  1  0
 19 23  2  0
 20 24  2  0
 21 25  2  0
 22 26  2  0
 23 25  1  0
 24 26  1  0
M  END
>  <PUBCHEM_COMPOUND_CID>  (1) 
35400

>  <PUBCHEM_CONFORMER_RMSD>  (1) 
1

>  <PUBCHEM_CONFORMER_DIVERSEORDER>  (1) 
1
33
90
113
88
96
61
114
3
97
53
59
112
30
21
103
40
11
118
42
22
77
110
66
111
60
56
9
47
63
68
10
20
54
91
50
24
32
80
57
2
34
13
100
72
84
41
69
82
76
115
85
43
81
12
23
102
109
62
18
98
6
89
92
71
105
26
7
39
17
15
4
86
79
117
119
29
107
48
121
116
106
75
73
120
74
38
16
83
78
19
8
45
58
35
94
108
99
67
65
25
5
27
64
93
31
101
49
52
37
87
70
14
36
104
28
55
95
51
122
46
44

>  <PUBCHEM_MMFF94_PARTIAL_CHARGES>  (1) 
29
1 -0.18
13 0.66
14 0.62
15 0.08
16 0.08
17 -0.15
18 -0.15
19 -0.15
2 -0.18
20 -0.15
21 -0.15
22 -0.15
23 -0.15
24 -0.15
25 0.18
26 0.18
3 -0.43
39 0.15
4 -0.36
40 0.15
41 0.15
42 0.15
43 0.15
44 0.15
45 0.15
46 0.15
5 -0.36
6 -0.57
7 0.28

>  <PUBCHEM_EFFECTIVE_ROTOR_COUNT>  (1) 
8.2

>  <PUBCHEM_PHARMACOPHORE_FEATURES>  (1) 
6
1 4 acceptor
1 5 acceptor
1 6 acceptor
6 15 17 19 21 23 25 rings
6 16 18 20 22 24 26 rings
6 7 8 9 10 11 12 rings

>  <PUBCHEM_HEAVY_ATOM_COUNT>  (1) 
26

>  <PUBCHEM_ATOM_DEF_STEREO_COUNT>  (1) 
0

>  <PUBCHEM_ATOM_UDEF_STEREO_COUNT>  (1) 
0

>  <PUBCHEM_BOND_DEF_STEREO_COUNT>  (1) 
0

>  <PUBCHEM_BOND_UDEF_STEREO_COUNT>  (1) 
0

>  <PUBCHEM_ISOTOPIC_ATOM_COUNT>  (1) 
0

>  <PUBCHEM_COMPONENT_COUNT>  (1) 
1

>  <PUBCHEM_CACTVS_TAUTO_COUNT>  (1) 
1

>  <PUBCHEM_CONFORMER_ID>  (1) 
00008A4800000001

>  <PUBCHEM_MMFF94_ENERGY>  (1) 
70.58

>  <PUBCHEM_FEATURE_SELFOVERLAP>  (1) 
30.492

>  <PUBCHEM_SHAPE_FINGERPRINT>  (1) 
10050765 1 18267866263093101799
102385 1 18050004686146962218
10675989 125 18198914801819544960
11265709 11 18338238150532347918
11331351 85 17773882990921956623
11456790 92 18115883901874320009
12107698 1 18340484470774781149
12166972 35 18272086081119041891
12422481 6 18118658123792594016
12516196 113 18338515235815527491
12549972 3 17895207639996442227
12788726 201 17972314015156850562
13004483 165 18265325115100073114
13134695 92 18409167684379078415
13140716 1 18194969766624257362
133893 2 18125695006567562878
13540713 5 18059007432174251559
13590594 115 18339081476109250721
14068700 675 18059002892092645497
14347329 18 16227716742590566557
14466204 15 18195532480982043145
14950920 106 18194997160933396947
15042514 8 17977669710425177126
15230672 131 17831301971946053652
15439362 3 18337949120471014177
15664445 248 18129118774455662262
15927050 60 17981048832128156838
167882 2 18339357590628905821
17980427 23 17846222094802775017
17980427 26 18197209472131875692
1813 80 18129671789769861079
18222031 100 18131355163430972822
18365409 1 16558164095999020503
18785283 64 18263082274276593229
20238998 120 18267581317128577864
20600515 1 18131079181928378198
20642791 105 17899408684857974420
20642791 35 18270975651663365468
20832881 197 18261395507707622163
21033648 29 17676480675676787813
21049683 271 18260840301595930068
21304253 13 18341331080788114976
2132832 1 18130795516755750017
21639891 77 18045486522643686748
22182313 1 18041541612420183453
23366157 5 18263643046781783318
23559900 14 17603873325529812815
244849 19 17969480702677669365
249057 25 17847067667253994809
249999 5 18339644571748616856
283562 15 17974008341174295682
3411729 13 18270964681947710624
5171179 24 18338502063419830197
5385378 56 18267311009130192473
57124632 79 18267303329427759432
57724786 102 18411989091857586401
5895379 119 16485038798560364633
69474 34 18342452621366695962
7495541 125 18260561034570363451
79837 15 17400080167717576426
9981440 41 17833267897680280721

>  <PUBCHEM_SHAPE_MULTIPOLES>  (1) 
515.33
12.55
5.58
1.26
16.47
7.16
-0.08
-8.25
-1.73
-11.74
-0.71
0.66
0.23
0.01

>  <PUBCHEM_SHAPE_SELFOVERLAP>  (1) 
1073.482

>  <PUBCHEM_SHAPE_VOLUME>  (1) 
293.4

>  <PUBCHEM_COORDINATE_TYPE>  (1) 
2
5
10

$$$$
