3541
     RDKit          3D

 27 29  0  0  0  0  0  0  0  0999 V2000
    5.8466   -2.0341   -0.3293 Br  0  0  0  0  0  0  0  0  0  0  0  0
   -3.9396   -0.6596    0.4996 S   0  0  0  0  0  0  0  0  0  0  0  0
   -5.0645   -0.5003   -0.4075 O   0  0  0  0  0  0  0  0  0  0  0  0
   -4.0259   -1.6093    1.5965 O   0  0  0  0  0  0  0  0  0  0  0  0
   -3.5121    0.8700    1.1251 N   0  0  0  0  0  0  0  0  0  0  0  0
   -1.4582    3.5416   -0.4706 N   0  0  0  0  0  0  0  0  0  0  0  0
    1.2125   -2.0502    1.2650 N   0  0  0  0  0  0  0  0  0  0  0  0
   -2.5203   -1.0796   -0.4470 C   0  0  0  0  0  0  0  0  0  0  0  0
   -3.2133    1.9816    0.2109 C   0  0  0  0  0  0  0  0  0  0  0  0
   -1.2851   -1.3999    0.1398 C   0  0  0  0  0  0  0  0  0  0  0  0
   -1.7764    2.4356    0.4235 C   0  0  0  0  0  0  0  0  0  0  0  0
   -0.1940   -1.7254   -0.6922 C   0  0  0  0  0  0  0  0  0  0  0  0
   -2.6691   -1.0825   -1.8350 C   0  0  0  0  0  0  0  0  0  0  0  0
   -0.3551   -1.7250   -2.0877 C   0  0  0  0  0  0  0  0  0  0  0  0
   -1.1042   -1.4063    1.5277 C   0  0  0  0  0  0  0  0  0  0  0  0
   -1.5890   -1.4043   -2.6535 C   0  0  0  0  0  0  0  0  0  0  0  0
   -0.0943    4.0059   -0.2581 C   0  0  0  0  0  0  0  0  0  0  0  0
    1.0177   -2.0383   -0.0729 C   0  0  0  0  0  0  0  0  0  0  0  0
    0.1460   -1.7338    2.0299 C   0  0  0  0  0  0  0  0  0  0  0  0
    0.9036    2.9126   -0.5012 C   0  0  0  0  0  0  0  0  0  0  0  0
    1.7488    2.4647    0.4409 C   0  0  0  0  0  0  0  0  0  0  0  0
    2.7325    1.3848    0.2560 C   0  0  0  0  0  0  0  0  0  0  0  0
    3.1288    1.0391   -1.0263 C   0  0  0  0  0  0  0  0  0  0  0  0
    3.2439    0.7341    1.3676 C   0  0  0  0  0  0  0  0  0  0  0  0
    4.0606    0.0159   -1.2014 C   0  0  0  0  0  0  0  0  0  0  0  0
    4.1758   -0.2890    1.1924 C   0  0  0  0  0  0  0  0  0  0  0  0
    4.5841   -0.6480   -0.0920 C   0  0  0  0  0  0  0  0  0  0  0  0
  1 27  1  0
  2  3  2  0
  2  4  2  0
  2  5  1  0
  2  8  1  0
  5  9  1  0
  6 11  1  0
  6 17  1  0
  7 18  2  0
  7 19  1  0
  8 10  1  0
  8 13  2  0
  9 11  1  0
 10 12  2  0
 10 15  1  0
 12 14  1  0
 12 18  1  0
 13 16  1  0
 14 16  2  0
 15 19  2  0
 17 20  1  0
 20 21  2  0
 21 22  1  0
 22 23  2  0
 22 24  1  0
 23 25  1  0
 24 26  2  0
 25 27  2  0
 26 27  1  0
M  END
>  <PUBCHEM_COMPOUND_CID>  (1) 
3541

>  <PUBCHEM_CONFORMER_RMSD>  (1) 
1

>  <PUBCHEM_CONFORMER_DIVERSEORDER>  (1) 
2
17
61
49
108
80
48
107
34
70
3
124
63
146
106
142
105
38
20
121
11
19
44
41
67
39
145
74
87
110
150
113
71
68
64
133
126
144
131
97
90
96
35
149
40
103
60
119
43
134
10
54
100
62
81
83
141
33
82
9
21
117
122
13
104
37
114
88
151
129
23
138
76
18
84
85
45
36
79
1
32
66
5
135
27
12
140
26
130
53
4
42
78
93
15
29
16
55
99
101
115
98
8
24
111
73
22
92
56
139
58
65
148
59
28
112
75
50
72
77
30
91
123
118
69
109
102
47
7
86
89
94
137
14
136
51
120
57
95
52
25
125
6
127
143
147
128
132
46
31
116

>  <PUBCHEM_MMFF94_PARTIAL_CHARGES>  (1) 
39
1 -0.11
11 0.27
13 -0.15
14 -0.15
15 -0.15
16 -0.15
17 0.41
18 0.16
19 0.16
2 1.45
20 -0.29
21 -0.18
22 0.03
23 -0.15
24 -0.15
25 -0.15
26 -0.15
27 0.11
3 -0.65
30 0.42
33 0.15
34 0.36
35 0.15
36 0.15
37 0.15
4 -0.65
40 0.15
41 0.15
42 0.15
43 0.15
44 0.15
45 0.15
46 0.15
47 0.15
5 -0.91
6 -0.9
7 -0.62
8 -0.01
9 0.36

>  <PUBCHEM_EFFECTIVE_ROTOR_COUNT>  (1) 
8

>  <PUBCHEM_PHARMACOPHORE_FEATURES>  (1) 
10
1 1 hydrophobe
1 3 acceptor
1 4 acceptor
1 5 donor
1 6 cation
1 6 donor
1 7 acceptor
6 22 23 24 25 26 27 rings
6 7 10 12 15 18 19 rings
6 8 10 12 13 14 16 rings

>  <PUBCHEM_HEAVY_ATOM_COUNT>  (1) 
27

>  <PUBCHEM_ATOM_DEF_STEREO_COUNT>  (1) 
0

>  <PUBCHEM_ATOM_UDEF_STEREO_COUNT>  (1) 
0

>  <PUBCHEM_BOND_DEF_STEREO_COUNT>  (1) 
0

>  <PUBCHEM_BOND_UDEF_STEREO_COUNT>  (1) 
1

>  <PUBCHEM_ISOTOPIC_ATOM_COUNT>  (1) 
0

>  <PUBCHEM_COMPONENT_COUNT>  (1) 
1

>  <PUBCHEM_CACTVS_TAUTO_COUNT>  (1) 
1

>  <PUBCHEM_CONFORMER_ID>  (1) 
00000DD500000002

>  <PUBCHEM_MMFF94_ENERGY>  (1) 
53.5563

>  <PUBCHEM_FEATURE_SELFOVERLAP>  (1) 
50.79

>  <PUBCHEM_SHAPE_FINGERPRINT>  (1) 
104564 63 18337103454917260588
12156800 1 16670848592410309904
12422481 6 18128563525457464201
12539773 59 17627815306861704961
12553582 1 18193552487937003268
12788726 201 18335995215863789556
13165053 137 15171083563631497046
14251751 93 18265614278078494260
14251757 17 17627804011266339726
14279260 333 18044091251484675050
19930381 70 17473542928857387027
20905425 154 18122911932036713588
21857420 4 15903990067380431071
238 59 16466401359004067140
3052486 1 18263077739376755964
35225 105 18337398145150210852
392239 28 18042708190104334747
508706 21 18266465295366681629
6438718 38 18272087167434511612

>  <PUBCHEM_SHAPE_MULTIPOLES>  (1) 
538.76
9.16
3.93
1.88
5.91
4.31
-0.38
-3.22
0.54
-0.58
-0.41
-0.63
-1.24
-0.16

>  <PUBCHEM_SHAPE_SELFOVERLAP>  (1) 
1124.11

>  <PUBCHEM_SHAPE_VOLUME>  (1) 
310.6

>  <PUBCHEM_COORDINATE_TYPE>  (1) 
2
5
10

$$$$
