35411
     RDKit          3D

  9  9  0  0  0  0  0  0  0  0999 V2000
    0.5408   -0.2573   -0.0588 C   0  0  0  0  0  0  0  0  0  0  0  0
   -0.4758   -1.2998    0.4597 C   0  0  0  0  0  0  0  0  0  0  0  0
    0.0325    1.1699    0.2477 C   0  0  0  0  0  0  0  0  0  0  0  0
   -1.9053   -1.0444   -0.0180 C   0  0  0  0  0  0  0  0  0  0  0  0
   -1.3978    1.4212   -0.2296 C   0  0  0  0  0  0  0  0  0  0  0  0
   -2.3641    0.3722    0.3091 C   0  0  0  0  0  0  0  0  0  0  0  0
    1.8877   -0.4733    0.6565 C   0  0  0  0  0  0  0  0  0  0  0  0
    0.7745   -0.4352   -1.5715 C   0  0  0  0  0  0  0  0  0  0  0  0
    2.9076    0.5467    0.2049 C   0  0  0  0  0  0  0  0  0  0  0  0
  1  2  1  0
  1  3  1  0
  1  7  1  0
  1  8  1  0
  2  4  1  0
  3  5  1  0
  4  6  1  0
  5  6  1  0
  7  9  1  0
M  END
>  <PUBCHEM_COMPOUND_CID>  (1) 
35411

>  <PUBCHEM_CONFORMER_RMSD>  (1) 
0.4

>  <PUBCHEM_CONFORMER_DIVERSEORDER>  (1) 
1
9
8
11
5
2
10
6
3
7
4

>  <PUBCHEM_MMFF94_PARTIAL_CHARGES>  (1) 
0

>  <PUBCHEM_EFFECTIVE_ROTOR_COUNT>  (1) 
2.2

>  <PUBCHEM_PHARMACOPHORE_FEATURES>  (1) 
2
1 9 hydrophobe
6 1 2 3 4 5 6 rings

>  <PUBCHEM_HEAVY_ATOM_COUNT>  (1) 
9

>  <PUBCHEM_ATOM_DEF_STEREO_COUNT>  (1) 
0

>  <PUBCHEM_ATOM_UDEF_STEREO_COUNT>  (1) 
0

>  <PUBCHEM_BOND_DEF_STEREO_COUNT>  (1) 
0

>  <PUBCHEM_BOND_UDEF_STEREO_COUNT>  (1) 
0

>  <PUBCHEM_ISOTOPIC_ATOM_COUNT>  (1) 
0

>  <PUBCHEM_COMPONENT_COUNT>  (1) 
1

>  <PUBCHEM_CACTVS_TAUTO_COUNT>  (1) 
1

>  <PUBCHEM_CONFORMER_ID>  (1) 
00008A5300000001

>  <PUBCHEM_MMFF94_ENERGY>  (1) 
15.47

>  <PUBCHEM_FEATURE_SELFOVERLAP>  (1) 
10.148

>  <PUBCHEM_SHAPE_FINGERPRINT>  (1) 
10857977 72 18341321296826195664
12423570 1 9058975832887186047
12716758 59 18338811004511477374
13024252 1 17894899746206459522
137420 1 7903612716618852598
13839132 238 18199475354779482796
16945 1 18410848893160135048
18185500 45 18113338630401476011
20653085 51 11311502484146626338
21040471 1 18120100485289101877
23235685 24 18060700563446600081
23552423 10 18187365381177402746
29004967 10 17060344002280424043
369184 2 18334850610825161880
5084963 1 18201996638115835096

>  <PUBCHEM_SHAPE_MULTIPOLES>  (1) 
185.22
3.32
1.4
0.99
1
0.13
-0.38
0.37
0.49
-0.5
0.06
0.27
-0.15
0.08

>  <PUBCHEM_SHAPE_SELFOVERLAP>  (1) 
355.98

>  <PUBCHEM_SHAPE_VOLUME>  (1) 
113.8

>  <PUBCHEM_COORDINATE_TYPE>  (1) 
2
5
10

$$$$
