35426
     RDKit          3D

 23 24  0  0  0  0  0  0  0  0999 V2000
   -1.8414   -1.6294    0.5851 O   0  0  0  0  0  0  0  0  0  0  0  0
    2.2204   -2.8021   -0.8940 O   0  0  0  0  0  0  0  0  0  0  0  0
   -3.3711   -1.6347   -1.1147 O   0  0  0  0  0  0  0  0  0  0  0  0
    0.9615   -2.1379    0.9438 N   0  0  0  0  0  0  0  0  0  0  0  0
   -3.4183   -0.0318    0.5907 N   0  0  0  0  0  0  0  0  0  0  0  0
   -0.0364   -3.1824    0.8823 C   0  0  0  0  0  0  0  0  0  0  0  0
   -1.2175   -2.7753    0.0205 C   0  0  0  0  0  0  0  0  0  0  0  0
    4.8723    0.5145   -0.2488 C   0  0  0  0  0  0  0  0  0  0  0  0
   -4.5259    0.7790    0.2531 C   0  0  0  0  0  0  0  0  0  0  0  0
    2.0090   -2.0398    0.0435 C   0  0  0  0  0  0  0  0  0  0  0  0
    3.9454   -0.6148   -0.4412 C   0  0  0  0  0  0  0  0  0  0  0  0
    2.8856   -0.8709    0.3396 C   0  0  0  0  0  0  0  0  0  0  0  0
   -2.9349   -1.1355   -0.0847 C   0  0  0  0  0  0  0  0  0  0  0  0
   -4.8549    1.8522    1.0661 C   0  0  0  0  0  0  0  0  0  0  0  0
   -5.2610    0.4857   -0.8846 C   0  0  0  0  0  0  0  0  0  0  0  0
    4.9380    1.1350    0.9882 C   0  0  0  0  0  0  0  0  0  0  0  0
    5.6601    0.9339   -1.3087 C   0  0  0  0  0  0  0  0  0  0  0  0
   -5.9475    2.6527    0.7330 C   0  0  0  0  0  0  0  0  0  0  0  0
   -6.3536    1.2864   -1.2177 C   0  0  0  0  0  0  0  0  0  0  0  0
    5.8151    2.2042    1.1704 C   0  0  0  0  0  0  0  0  0  0  0  0
    6.5372    2.0030   -1.1264 C   0  0  0  0  0  0  0  0  0  0  0  0
   -6.6968    2.3698   -0.4088 C   0  0  0  0  0  0  0  0  0  0  0  0
    6.6148    2.6381    0.1132 C   0  0  0  0  0  0  0  0  0  0  0  0
  1  7  1  0
  1 13  1  0
  2 10  2  0
  3 13  2  0
  4  6  1  0
  4 10  1  0
  5  9  1  0
  5 13  1  0
  6  7  1  0
  8 11  1  0
  8 16  2  0
  8 17  1  0
  9 14  2  0
  9 15  1  0
 10 12  1  0
 11 12  2  0
 14 18  1  0
 15 19  2  0
 16 20  1  0
 17 21  2  0
 18 22  2  0
 19 22  1  0
 20 23  2  0
 21 23  1  0
M  END
>  <PUBCHEM_COMPOUND_CID>  (1) 
35426

>  <PUBCHEM_CONFORMER_RMSD>  (1) 
1

>  <PUBCHEM_CONFORMER_DIVERSEORDER>  (1) 
1
41
7
76
74
86
48
28
29
114
53
111
70
12
107
6
59
102
39
24
26
83
66
77
3
109
64
52
45
5
69
50
80
4
87
116
90
110
10
44
62
46
106
21
16
112
105
18
61
78
40
51
99
27
13
98
22
84
88
14
75
100
36
35
2
115
38
85
113
9
94
82
95
91
49
17
33
71
58
55
101
93
60
63
72
19
43
20
79
97
15
34
108
81
65
47
103
30
25
57
8
56
73
117
42
96
31
23
92
11
89
68
37
67
32
104
54

>  <PUBCHEM_MMFF94_PARTIAL_CHARGES>  (1) 
37
1 -0.43
10 0.62
11 -0.18
12 -0.14
13 0.78
14 -0.15
15 -0.15
16 -0.15
17 -0.15
18 -0.15
19 -0.15
2 -0.57
20 -0.15
21 -0.15
22 -0.15
23 -0.15
28 0.37
29 0.15
3 -0.57
30 0.15
31 0.37
32 0.15
33 0.15
34 0.15
35 0.15
36 0.15
37 0.15
38 0.15
39 0.15
4 -0.73
40 0.15
41 0.15
5 -0.55
6 0.3
7 0.28
8 0.03
9 0.12

>  <PUBCHEM_EFFECTIVE_ROTOR_COUNT>  (1) 
9

>  <PUBCHEM_PHARMACOPHORE_FEATURES>  (1) 
6
1 2 acceptor
1 3 acceptor
1 4 donor
1 5 donor
6 8 16 17 20 21 23 rings
6 9 14 15 18 19 22 rings

>  <PUBCHEM_HEAVY_ATOM_COUNT>  (1) 
23

>  <PUBCHEM_ATOM_DEF_STEREO_COUNT>  (1) 
0

>  <PUBCHEM_ATOM_UDEF_STEREO_COUNT>  (1) 
0

>  <PUBCHEM_BOND_DEF_STEREO_COUNT>  (1) 
0

>  <PUBCHEM_BOND_UDEF_STEREO_COUNT>  (1) 
1

>  <PUBCHEM_ISOTOPIC_ATOM_COUNT>  (1) 
0

>  <PUBCHEM_COMPONENT_COUNT>  (1) 
1

>  <PUBCHEM_CACTVS_TAUTO_COUNT>  (1) 
4

>  <PUBCHEM_CONFORMER_ID>  (1) 
00008A6200000001

>  <PUBCHEM_MMFF94_ENERGY>  (1) 
55.2161

>  <PUBCHEM_FEATURE_SELFOVERLAP>  (1) 
30.446

>  <PUBCHEM_SHAPE_FINGERPRINT>  (1) 
10319926 262 13479407202832929659
10981352 41 11241975884129256536
11463208 1 11525649919305510477
11475781 23 18272937155001601476
1361 87 13254500012117158957
13885169 86 18333739034729658213
14123256 34 9727639418683354208
14216079 64 9511456724138459601
14251764 30 9079124349470647348
14251764 75 18339646646602669755
14429114 114 18266457612208785129
14565420 104 17968095270624184899
14931854 50 17989208126938659441
15198563 99 17697309981961001015
15510800 12 11599712987373662966
15513586 35 16591699358931886078
15519825 34 15575293102577397417
15803439 3 16917072187327072182
15980000 95 17545603353859895250
16993089 31 12822711896676319317
1768 23 17313962929954585820
19438510 23 18259985980834411978
20058555 10 18410855439091714377
20398071 356 9511458931356088853
20691028 202 18334859415519045044
20715895 44 18410855469461947208
21298829 104 18409450263210564749
21401589 2 18113341924847426307
21585480 29 12397735314447516744
21585483 132 13325759266652147460
21774942 28 17989207015285785352
229767 8 11742680333062248165
23522609 53 17415847891290825577
23569914 152 17556601854739722710
241686 156 17970915693758961156
270888 7 18408322185343216042
2748736 6 18408315588299992040
2838139 119 18270958055129722778
3472631 163 18342175527531031575
3862424 121 14332260044558978813
393628 179 18058435656000065160
393628 194 18263363740753748852
406291 66 9655571903245228941
42767 28 17703792526529437208
44249763 50 17702651306648036586
5219985 13 18408603660336212366
543368 44 18412542099003551365
54583773 228 18412255114264789181
5718773 13 9727631691826244101
59682541 52 17131839725003161246
636775 72 18122905593498986816
6712543 237 14707208808034882985
6898599 12 18201153347337209671
7288768 16 18113620101220896091
7970288 3 9799689285743028065
9849439 229 18334856121337372146

>  <PUBCHEM_SHAPE_MULTIPOLES>  (1) 
445.76
21.57
4.01
1.21
0.71
1.59
-0.09
-25.7
-3.18
-0.16
0.58
-0.26
-0.3
-0.18

>  <PUBCHEM_SHAPE_SELFOVERLAP>  (1) 
935.25

>  <PUBCHEM_SHAPE_VOLUME>  (1) 
249.5

>  <PUBCHEM_COORDINATE_TYPE>  (1) 
2
5
10

$$$$
