35432
     RDKit          3D

 15 15  0  0  0  0  0  0  0  0999 V2000
    3.2322    3.0700    0.1543 O   0  0  0  0  0  0  0  0  0  0  0  0
    1.6960   -2.3843   -0.6621 O   0  0  0  0  0  0  0  0  0  0  0  0
    2.8723   -0.5964    0.2442 N   0  0  0  0  0  0  0  0  0  0  0  0
    2.9279    0.7737    0.7506 C   0  0  0  0  0  0  0  0  0  0  0  0
    3.2040    1.7527   -0.3794 C   0  0  0  0  0  0  0  0  0  0  0  0
    1.7173   -1.2377   -0.2121 C   0  0  0  0  0  0  0  0  0  0  0  0
    4.1471   -1.3010    0.1983 C   0  0  0  0  0  0  0  0  0  0  0  0
    0.4579   -0.4381   -0.1608 C   0  0  0  0  0  0  0  0  0  0  0  0
   -2.0300   -0.3932   -0.0106 C   0  0  0  0  0  0  0  0  0  0  0  0
   -0.7203   -1.0679   -0.0409 C   0  0  0  0  0  0  0  0  0  0  0  0
   -2.1430    0.8922   -0.5150 C   0  0  0  0  0  0  0  0  0  0  0  0
   -3.1230   -1.0574    0.5219 C   0  0  0  0  0  0  0  0  0  0  0  0
   -3.3828    1.5309   -0.4861 C   0  0  0  0  0  0  0  0  0  0  0  0
   -4.3629   -0.4188    0.5508 C   0  0  0  0  0  0  0  0  0  0  0  0
   -4.4927    0.8753    0.0467 C   0  0  0  0  0  0  0  0  0  0  0  0
  1  5  1  0
  2  6  2  0
  3  4  1  0
  3  6  1  0
  3  7  1  0
  4  5  1  0
  6  8  1  0
  8 10  2  0
  9 10  1  0
  9 11  2  0
  9 12  1  0
 11 13  1  0
 12 14  2  0
 13 15  2  0
 14 15  1  0
M  END
>  <PUBCHEM_COMPOUND_CID>  (1) 
35432

>  <PUBCHEM_CONFORMER_RMSD>  (1) 
0.6

>  <PUBCHEM_CONFORMER_DIVERSEORDER>  (1) 
3
39
40
35
41
31
13
46
27
6
30
10
28
26
42
25
43
47
34
18
44
23
38
11
15
8
32
17
36
5
19
9
21
29
12
37
33
16
1
22
14
4
2
7
20
24
45

>  <PUBCHEM_MMFF94_PARTIAL_CHARGES>  (1) 
23
1 -0.68
10 -0.18
11 -0.15
12 -0.15
13 -0.15
14 -0.15
15 -0.15
2 -0.57
23 0.15
24 0.15
25 0.15
26 0.15
27 0.15
28 0.15
29 0.15
3 -0.66
30 0.4
4 0.3
5 0.28
6 0.62
7 0.3
8 -0.14
9 0.03

>  <PUBCHEM_EFFECTIVE_ROTOR_COUNT>  (1) 
5

>  <PUBCHEM_PHARMACOPHORE_FEATURES>  (1) 
4
1 1 acceptor
1 1 donor
1 2 acceptor
6 9 11 12 13 14 15 rings

>  <PUBCHEM_HEAVY_ATOM_COUNT>  (1) 
15

>  <PUBCHEM_ATOM_DEF_STEREO_COUNT>  (1) 
0

>  <PUBCHEM_ATOM_UDEF_STEREO_COUNT>  (1) 
0

>  <PUBCHEM_BOND_DEF_STEREO_COUNT>  (1) 
0

>  <PUBCHEM_BOND_UDEF_STEREO_COUNT>  (1) 
1

>  <PUBCHEM_ISOTOPIC_ATOM_COUNT>  (1) 
0

>  <PUBCHEM_COMPONENT_COUNT>  (1) 
1

>  <PUBCHEM_CACTVS_TAUTO_COUNT>  (1) 
1

>  <PUBCHEM_CONFORMER_ID>  (1) 
00008A6800000003

>  <PUBCHEM_MMFF94_ENERGY>  (1) 
38.7938

>  <PUBCHEM_FEATURE_SELFOVERLAP>  (1) 
20.297

>  <PUBCHEM_SHAPE_FINGERPRINT>  (1) 
10608611 8 18336263457729269205
11615756 256 18412268311327691401
11615757 297 17917996074748739315
12507557 5 18411413982244653344
13081056 2 18409168805286349457
13533116 47 17168133491471347995
14026960 21 18337392741864586741
14123255 52 18124312963739114232
14415576 193 18412827984183622814
15196674 1 18408885148487630765
15219456 202 18410292501853902715
15536298 74 18409451400975458341
18186145 218 18200883872287866963
20279233 1 18338520738106230199
20645477 56 18115309960957104221
20645477 70 17843962542368094111
20671657 53 17769949977916872022
21065198 57 18336828602416474419
21652331 79 18335984259048613941
21709351 56 18341604910876279798
22854114 111 18413387644202618826
23402539 116 18333725798410526855
23558518 356 18123735703139675278
23559900 14 18338232639920703491
351380 180 18335978688412435235
474 4 18411135861489720648
49207404 50 18335145348602912417
5104073 3 18334298677874383657
77779 3 18408605859533027955
7808743 9 17762054741853901936
9709674 26 18410297982354232263

>  <PUBCHEM_SHAPE_MULTIPOLES>  (1) 
291.97
9.36
2.34
0.76
2.07
1.18
-0.02
2.12
-1.05
-2.5
0.19
0.03
-0.01
0.61

>  <PUBCHEM_SHAPE_SELFOVERLAP>  (1) 
591.843

>  <PUBCHEM_SHAPE_VOLUME>  (1) 
170.5

>  <PUBCHEM_COORDINATE_TYPE>  (1) 
2
5
10

$$$$
