35436
     RDKit          3D

 19 19  0  0  0  0  0  0  0  0999 V2000
    2.8850    3.7631    0.0013 O   0  0  0  0  0  0  0  0  0  0  0  0
    4.1151   -2.2882    1.1365 O   0  0  0  0  0  0  0  0  0  0  0  0
    2.2274   -1.8352   -1.0679 O   0  0  0  0  0  0  0  0  0  0  0  0
   -5.6374    0.7190    0.3359 O   0  0  0  0  0  0  0  0  0  0  0  0
    3.1554    0.0770   -0.1277 N   0  0  0  0  0  0  0  0  0  0  0  0
    3.0212    1.4107    0.4552 C   0  0  0  0  0  0  0  0  0  0  0  0
    4.5218   -0.4023   -0.2907 C   0  0  0  0  0  0  0  0  0  0  0  0
    2.0921   -0.7246   -0.5524 C   0  0  0  0  0  0  0  0  0  0  0  0
    3.0538    2.4909   -0.6104 C   0  0  0  0  0  0  0  0  0  0  0  0
    4.9867   -1.1853    0.9236 C   0  0  0  0  0  0  0  0  0  0  0  0
    0.7256   -0.1493   -0.3793 C   0  0  0  0  0  0  0  0  0  0  0  0
   -1.7203   -0.5268   -0.0800 C   0  0  0  0  0  0  0  0  0  0  0  0
   -0.3233   -0.9716   -0.2277 C   0  0  0  0  0  0  0  0  0  0  0  0
   -1.9795    0.7738    0.3207 C   0  0  0  0  0  0  0  0  0  0  0  0
   -2.7472   -1.4184   -0.3443 C   0  0  0  0  0  0  0  0  0  0  0  0
   -4.3473    0.3085    0.1987 C   0  0  0  0  0  0  0  0  0  0  0  0
   -3.3021    1.1942    0.4610 C   0  0  0  0  0  0  0  0  0  0  0  0
   -4.0698   -0.9977   -0.2041 C   0  0  0  0  0  0  0  0  0  0  0  0
   -6.6572   -0.2377    0.0516 C   0  0  0  0  0  0  0  0  0  0  0  0
  1  9  1  0
  2 10  1  0
  3  8  2  0
  4 16  1  0
  4 19  1  0
  5  6  1  0
  5  7  1  0
  5  8  1  0
  6  9  1  0
  7 10  1  0
  8 11  1  0
 11 13  2  0
 12 13  1  0
 12 14  2  0
 12 15  1  0
 14 17  1  0
 15 18  2  0
 16 17  2  0
 16 18  1  0
M  END
>  <PUBCHEM_COMPOUND_CID>  (1) 
35436

>  <PUBCHEM_CONFORMER_RMSD>  (1) 
0.8

>  <PUBCHEM_CONFORMER_DIVERSEORDER>  (1) 
1
56
21
17
45
53
35
34
50
46
29
30
18
22
23
38
41
14
55
51
5
27
24
25
52
31
54
36
20
19
57
11
16
44
42
37
13
4
9
40
2
28
48
49
26
47
43
10
33
3
8
12
7
15
58
32
6
39

>  <PUBCHEM_MMFF94_PARTIAL_CHARGES>  (1) 
27
1 -0.68
10 0.28
11 -0.14
12 0.03
13 -0.18
14 -0.15
15 -0.15
16 0.08
17 -0.15
18 -0.15
19 0.28
2 -0.68
28 0.15
29 0.15
3 -0.57
30 0.15
31 0.15
32 0.15
33 0.15
34 0.4
35 0.4
4 -0.36
5 -0.66
6 0.3
7 0.3
8 0.62
9 0.28

>  <PUBCHEM_EFFECTIVE_ROTOR_COUNT>  (1) 
8

>  <PUBCHEM_PHARMACOPHORE_FEATURES>  (1) 
7
1 1 acceptor
1 1 donor
1 2 acceptor
1 2 donor
1 3 acceptor
1 4 acceptor
6 12 14 15 16 17 18 rings

>  <PUBCHEM_HEAVY_ATOM_COUNT>  (1) 
19

>  <PUBCHEM_ATOM_DEF_STEREO_COUNT>  (1) 
0

>  <PUBCHEM_ATOM_UDEF_STEREO_COUNT>  (1) 
0

>  <PUBCHEM_BOND_DEF_STEREO_COUNT>  (1) 
0

>  <PUBCHEM_BOND_UDEF_STEREO_COUNT>  (1) 
1

>  <PUBCHEM_ISOTOPIC_ATOM_COUNT>  (1) 
0

>  <PUBCHEM_COMPONENT_COUNT>  (1) 
1

>  <PUBCHEM_CACTVS_TAUTO_COUNT>  (1) 
1

>  <PUBCHEM_CONFORMER_ID>  (1) 
00008A6C00000001

>  <PUBCHEM_MMFF94_ENERGY>  (1) 
54.6475

>  <PUBCHEM_FEATURE_SELFOVERLAP>  (1) 
35.524

>  <PUBCHEM_SHAPE_FINGERPRINT>  (1) 
10366900 7 17895205371873907624
10688039 33 17968095274945662188
10937287 8 17397553477313538548
11089746 13 18334005069767970543
11405975 8 18408604794391857163
11724838 91 18272926158830159031
12107183 9 17688870839211239098
12166972 35 18060140908107537528
12236239 1 18186520978033226595
12403260 363 18412824660032176329
12507557 5 18412259523824226936
12616971 3 18343579659887946935
12633257 1 18411419496845472166
13533116 47 17967810514039180931
14251764 18 18335417963647874530
14341114 176 18411702080161161050
15196674 1 18341051929800219973
17834072 33 18272652385441758919
18681886 176 18059856203637173246
19050596 39 18343582958027373039
20645477 56 18334580144530281895
21033648 29 17023449924202377861
21267235 1 18342468023346123367
21315763 129 18410573951367063597
21315764 268 18334008398352346445
21709351 56 18342451556283112614
23402539 116 18272644645931998527
23557571 272 16845302583319577248
23558518 356 17900825160556357046
23559900 14 18202290186304098462
2838139 119 18189887640205191341
3004659 81 18344149189319951720
345986 75 17607504866460171770
34797466 226 14476960134096916337
351380 180 18410011030992772419
3545911 37 18131635556007132111
474 4 18263084473315802884
5104073 3 18339084890692348851
5374978 207 18343582927983681507
67856867 119 18341607174244747640
9709674 26 18342748420138915127
9971528 1 18202004288101559182
9981440 41 17759800747174454208

>  <PUBCHEM_SHAPE_MULTIPOLES>  (1) 
362.55
13.4
2.48
0.84
11.07
2.12
-0.04
-0.69
-2.06
-3.86
0
-0.61
-0.21
-1

>  <PUBCHEM_SHAPE_SELFOVERLAP>  (1) 
733.923

>  <PUBCHEM_SHAPE_VOLUME>  (1) 
211.6

>  <PUBCHEM_COORDINATE_TYPE>  (1) 
2
5
10

$$$$
