35437
     RDKit          3D

 18 18  0  0  0  0  0  0  0  0999 V2000
   -6.3416    0.7085    0.3716 Cl  0  0  0  0  0  0  0  0  0  0  0  0
    3.8007   -2.2445    1.1421 O   0  0  0  0  0  0  0  0  0  0  0  0
    2.4740    3.7837   -0.0066 O   0  0  0  0  0  0  0  0  0  0  0  0
    1.9059   -1.8268   -1.0631 O   0  0  0  0  0  0  0  0  0  0  0  0
    2.8032    0.1021   -0.1273 N   0  0  0  0  0  0  0  0  0  0  0  0
    4.1771   -0.3556   -0.2894 C   0  0  0  0  0  0  0  0  0  0  0  0
    2.6477    1.4348    0.4525 C   0  0  0  0  0  0  0  0  0  0  0  0
    4.6546   -1.1283    0.9267 C   0  0  0  0  0  0  0  0  0  0  0  0
    2.6630    2.5130   -0.6155 C   0  0  0  0  0  0  0  0  0  0  0  0
    1.7528   -0.7173   -0.5501 C   0  0  0  0  0  0  0  0  0  0  0  0
    0.3773   -0.1635   -0.3781 C   0  0  0  0  0  0  0  0  0  0  0  0
   -0.6583   -1.0021   -0.2246 C   0  0  0  0  0  0  0  0  0  0  0  0
   -2.0621   -0.5793   -0.0778 C   0  0  0  0  0  0  0  0  0  0  0  0
   -2.3420    0.7179    0.3201 C   0  0  0  0  0  0  0  0  0  0  0  0
   -3.0751   -1.4876   -0.3397 C   0  0  0  0  0  0  0  0  0  0  0  0
   -3.6710    1.1177    0.4597 C   0  0  0  0  0  0  0  0  0  0  0  0
   -4.4041   -1.0876   -0.2001 C   0  0  0  0  0  0  0  0  0  0  0  0
   -4.7021    0.2150    0.1997 C   0  0  0  0  0  0  0  0  0  0  0  0
  1 18  1  0
  2  8  1  0
  3  9  1  0
  4 10  2  0
  5  6  1  0
  5  7  1  0
  5 10  1  0
  6  8  1  0
  7  9  1  0
 10 11  1  0
 11 12  2  0
 12 13  1  0
 13 14  2  0
 13 15  1  0
 14 16  1  0
 15 17  2  0
 16 18  2  0
 17 18  1  0
M  END
>  <PUBCHEM_COMPOUND_CID>  (1) 
35437

>  <PUBCHEM_CONFORMER_RMSD>  (1) 
0.8

>  <PUBCHEM_CONFORMER_DIVERSEORDER>  (1) 
1
13
32
11
34
10
24
23
25
30
21
18
26
29
9
16
28
36
22
17
12
35
3
31
33
4
5
19
14
8
7
15
27
20
6
2

>  <PUBCHEM_MMFF94_PARTIAL_CHARGES>  (1) 
26
1 -0.18
10 0.62
11 -0.14
12 -0.18
13 0.03
14 -0.15
15 -0.15
16 -0.15
17 -0.15
18 0.18
2 -0.68
27 0.15
28 0.15
29 0.15
3 -0.68
30 0.15
31 0.4
32 0.4
33 0.15
34 0.15
4 -0.57
5 -0.66
6 0.3
7 0.3
8 0.28
9 0.28

>  <PUBCHEM_EFFECTIVE_ROTOR_COUNT>  (1) 
7

>  <PUBCHEM_PHARMACOPHORE_FEATURES>  (1) 
6
1 2 acceptor
1 2 donor
1 3 acceptor
1 3 donor
1 4 acceptor
6 13 14 15 16 17 18 rings

>  <PUBCHEM_HEAVY_ATOM_COUNT>  (1) 
18

>  <PUBCHEM_ATOM_DEF_STEREO_COUNT>  (1) 
0

>  <PUBCHEM_ATOM_UDEF_STEREO_COUNT>  (1) 
0

>  <PUBCHEM_BOND_DEF_STEREO_COUNT>  (1) 
0

>  <PUBCHEM_BOND_UDEF_STEREO_COUNT>  (1) 
1

>  <PUBCHEM_ISOTOPIC_ATOM_COUNT>  (1) 
0

>  <PUBCHEM_COMPONENT_COUNT>  (1) 
1

>  <PUBCHEM_CACTVS_TAUTO_COUNT>  (1) 
1

>  <PUBCHEM_CONFORMER_ID>  (1) 
00008A6D00000001

>  <PUBCHEM_MMFF94_ENERGY>  (1) 
41.0265

>  <PUBCHEM_FEATURE_SELFOVERLAP>  (1) 
30.449

>  <PUBCHEM_SHAPE_FINGERPRINT>  (1) 
10937287 8 17397552381928079500
11089746 13 18261946372076369909
11405975 8 18408887364822533699
12107183 9 17760927346675149667
12403260 363 18413102853748636461
12507557 5 18412259527939820193
12616971 3 18342457058663687015
12633257 1 18411419496808535861
13167823 11 18410008866440629083
13533116 47 17895191069817896363
13583140 156 18114754801499475299
14341114 176 18411421704490362874
14415576 193 18271812362183166356
15196674 1 18341051925626643405
17802600 8 18411417293611924645
18186145 218 17821721775737324655
18681886 176 18059857307343522046
19050596 39 18343302582789097959
19433438 15 17917426557948493711
20645477 56 18334861602485216527
21033648 29 17023449924328971901
21065198 57 18336265729798773187
212847 35 18333736814241790908
21709351 56 18342452660010586407
2255824 54 18336547218029462494
23402539 116 18273207595890655583
23503953 91 18343578551459557439
23557571 272 16845302583351225825
23558518 356 17901106635411722414
23559900 14 18130514058505247015
2838139 119 18189887640284332085
345986 75 17607223391346311074
351380 180 18410011031198507227
3545911 37 18059579053096606167
42 15 18113336379707068874
4214541 1 18412826885025552815
474 4 17970630907282466364
5104073 3 18338803415836931515
633830 44 18335978770148851559
67856867 119 18341607174218393393
9709674 26 18343029899611040167
9971528 1 18202004287974958630
9981440 41 17688023532738333904

>  <PUBCHEM_SHAPE_MULTIPOLES>  (1) 
349.71
12.22
2.58
0.86
9.34
2.28
-0.06
0.04
-2.35
-3.3
0.06
-0.54
-0.21
-1.06

>  <PUBCHEM_SHAPE_SELFOVERLAP>  (1) 
700.401

>  <PUBCHEM_SHAPE_VOLUME>  (1) 
206.3

>  <PUBCHEM_COORDINATE_TYPE>  (1) 
2
5
10

$$$$
