35435
     RDKit          3D

 16 16  0  0  0  0  0  0  0  0999 V2000
    4.0100    0.6413   -2.1156 O   0  0  0  0  0  0  0  0  0  0  0  0
    3.9587   -2.0980    1.0891 O   0  0  0  0  0  0  0  0  0  0  0  0
    1.3102    1.4765    1.3215 O   0  0  0  0  0  0  0  0  0  0  0  0
    2.2090   -0.1688   -0.0487 N   0  0  0  0  0  0  0  0  0  0  0  0
    3.6197    0.1264    0.2097 C   0  0  0  0  0  0  0  0  0  0  0  0
    4.1037    1.1690   -0.7982 C   0  0  0  0  0  0  0  0  0  0  0  0
    4.4385   -1.1657    0.1269 C   0  0  0  0  0  0  0  0  0  0  0  0
    1.1880    0.5411    0.5374 C   0  0  0  0  0  0  0  0  0  0  0  0
   -0.1426    0.0311    0.0993 C   0  0  0  0  0  0  0  0  0  0  0  0
   -2.6283    0.1939    0.1849 C   0  0  0  0  0  0  0  0  0  0  0  0
   -1.2637    0.6078    0.5565 C   0  0  0  0  0  0  0  0  0  0  0  0
   -2.8347   -1.0733   -0.3358 C   0  0  0  0  0  0  0  0  0  0  0  0
   -3.6783    1.0800    0.3634 C   0  0  0  0  0  0  0  0  0  0  0  0
   -4.1263   -1.4651   -0.6877 C   0  0  0  0  0  0  0  0  0  0  0  0
   -4.9700    0.6881    0.0114 C   0  0  0  0  0  0  0  0  0  0  0  0
   -5.1939   -0.5844   -0.5141 C   0  0  0  0  0  0  0  0  0  0  0  0
  1  6  1  0
  2  7  1  0
  3  8  2  0
  4  5  1  0
  4  8  1  0
  5  6  1  0
  5  7  1  0
  8  9  1  0
  9 11  2  0
 10 11  1  0
 10 12  2  0
 10 13  1  0
 12 14  1  0
 13 15  2  0
 14 16  2  0
 15 16  1  0
M  END
>  <PUBCHEM_COMPOUND_CID>  (1) 
35435

>  <PUBCHEM_CONFORMER_RMSD>  (1) 
0.8

>  <PUBCHEM_CONFORMER_DIVERSEORDER>  (1) 
1
13
7
9
5
4
6
10
12
2
11
8
3

>  <PUBCHEM_MMFF94_PARTIAL_CHARGES>  (1) 
26
1 -0.68
10 0.03
11 -0.18
12 -0.15
13 -0.15
14 -0.15
15 -0.15
16 -0.15
2 -0.68
22 0.37
23 0.15
24 0.15
25 0.4
26 0.4
27 0.15
28 0.15
29 0.15
3 -0.57
30 0.15
31 0.15
4 -0.73
5 0.3
6 0.28
7 0.28
8 0.62
9 -0.14

>  <PUBCHEM_EFFECTIVE_ROTOR_COUNT>  (1) 
6

>  <PUBCHEM_PHARMACOPHORE_FEATURES>  (1) 
7
1 1 acceptor
1 1 donor
1 2 acceptor
1 2 donor
1 3 acceptor
1 4 donor
6 10 12 13 14 15 16 rings

>  <PUBCHEM_HEAVY_ATOM_COUNT>  (1) 
16

>  <PUBCHEM_ATOM_DEF_STEREO_COUNT>  (1) 
0

>  <PUBCHEM_ATOM_UDEF_STEREO_COUNT>  (1) 
0

>  <PUBCHEM_BOND_DEF_STEREO_COUNT>  (1) 
0

>  <PUBCHEM_BOND_UDEF_STEREO_COUNT>  (1) 
1

>  <PUBCHEM_ISOTOPIC_ATOM_COUNT>  (1) 
0

>  <PUBCHEM_COMPONENT_COUNT>  (1) 
1

>  <PUBCHEM_CACTVS_TAUTO_COUNT>  (1) 
2

>  <PUBCHEM_CONFORMER_ID>  (1) 
00008A6B00000001

>  <PUBCHEM_MMFF94_ENERGY>  (1) 
34.0612

>  <PUBCHEM_FEATURE_SELFOVERLAP>  (1) 
35.528

>  <PUBCHEM_SHAPE_FINGERPRINT>  (1) 
10670039 82 11963663353803302906
10912923 1 18412830178832906969
11128504 68 17822012038101156525
11287383 113 16805611399025671177
11543360 7 17967817192596871808
12616999 72 18059585684932059646
13167823 11 18409445873452898515
13675066 3 15267344019941048257
13760787 5 18186806867756120297
14251718 22 18130228262907337940
14252887 29 15769777940317931430
15242433 33 18409730668396870987
17804303 29 18060419149089937945
17834072 33 18409448115441384901
17844677 252 18202567302005132769
17870717 6 17846229864514664749
18186145 218 15791737403585506560
18222031 100 16702020885192424712
1986462 14 18272368676939752645
200 152 15985103024984495001
20281475 54 18411978044341442056
20369508 70 18202275918717841424
20374829 77 18131909373684543985
20432913 95 14979961371507017309
20645477 56 14273455902950696569
20645477 70 17822293457586430778
22485316 2 18413385445047527120
22646028 1 18343016696722569323
23175994 123 16272210803974832345
23402539 116 18187641384291749869
23557571 272 16772970107111854289
23559900 14 17988632052039753377
239999 70 17632579388050615132
300161 21 18408599279653705880
3004659 81 18409730625948559310
32948 21 18409724032952207389
4214541 1 18272086076644771841
449060 50 7925636630819396603
4921388 177 17095811018184129635
4990 188 17989494030094859916
5104073 3 17846213410553171387
522135 26 18187083945113483736
5281201 14 17385720262422596630
542803 24 17821447963188089381
559249 180 18269266877233628219
573450 72 18271802385269543427
633830 44 17240202105857078737
7164475 11 18188771622585436716
77779 3 18342454872208978073
960060 61 18334581243719941854

>  <PUBCHEM_SHAPE_MULTIPOLES>  (1) 
306.68
12.46
1.52
1.1
0.74
0.41
-0.37
2.28
-2.38
-0.39
0.26
-1.37
-0.1
-1.33

>  <PUBCHEM_SHAPE_SELFOVERLAP>  (1) 
622.755

>  <PUBCHEM_SHAPE_VOLUME>  (1) 
177.6

>  <PUBCHEM_COORDINATE_TYPE>  (1) 
2
5
10

$$$$
