35442
     RDKit          3D

 16 16  0  0  0  0  0  0  0  0999 V2000
   -5.7420    1.1588    0.0556 Cl  0  0  0  0  0  0  0  0  0  0  0  0
    3.3918    3.2123    0.1484 O   0  0  0  0  0  0  0  0  0  0  0  0
    2.2434   -2.3388   -0.6532 O   0  0  0  0  0  0  0  0  0  0  0  0
    3.2894   -0.4700    0.2498 N   0  0  0  0  0  0  0  0  0  0  0  0
    3.2475    0.9022    0.7517 C   0  0  0  0  0  0  0  0  0  0  0  0
    3.4572    1.8946   -0.3809 C   0  0  0  0  0  0  0  0  0  0  0  0
    2.1832   -1.1921   -0.2070 C   0  0  0  0  0  0  0  0  0  0  0  0
    4.6104   -1.0837    0.2091 C   0  0  0  0  0  0  0  0  0  0  0  0
    0.8708   -0.4825   -0.1612 C   0  0  0  0  0  0  0  0  0  0  0  0
   -1.6145   -0.6115   -0.0168 C   0  0  0  0  0  0  0  0  0  0  0  0
   -0.2608   -1.1929   -0.0419 C   0  0  0  0  0  0  0  0  0  0  0  0
   -1.8158    0.6612   -0.5259 C   0  0  0  0  0  0  0  0  0  0  0  0
   -2.6603   -1.3495    0.5135 C   0  0  0  0  0  0  0  0  0  0  0  0
   -3.0975    1.2110   -0.5037 C   0  0  0  0  0  0  0  0  0  0  0  0
   -3.9421   -0.7997    0.5356 C   0  0  0  0  0  0  0  0  0  0  0  0
   -4.1607    0.4805    0.0270 C   0  0  0  0  0  0  0  0  0  0  0  0
  1 16  1  0
  2  6  1  0
  3  7  2  0
  4  5  1  0
  4  7  1  0
  4  8  1  0
  5  6  1  0
  7  9  1  0
  9 11  2  0
 10 11  1  0
 10 12  2  0
 10 13  1  0
 12 14  1  0
 13 15  2  0
 14 16  2  0
 15 16  1  0
M  END
>  <PUBCHEM_COMPOUND_CID>  (1) 
35442

>  <PUBCHEM_CONFORMER_RMSD>  (1) 
0.6

>  <PUBCHEM_CONFORMER_DIVERSEORDER>  (1) 
3
41
46
19
12
39
45
26
4
44
34
9
27
8
10
25
37
30
35
31
36
5
32
33
28
38
20
18
17
29
24
40
2
42
1
22
43
11
23
21
16
14
7
15
13
6

>  <PUBCHEM_MMFF94_PARTIAL_CHARGES>  (1) 
23
1 -0.18
10 0.03
11 -0.18
12 -0.15
13 -0.15
14 -0.15
15 -0.15
16 0.18
2 -0.68
24 0.15
25 0.15
26 0.15
27 0.15
28 0.15
29 0.15
3 -0.57
30 0.4
4 -0.66
5 0.3
6 0.28
7 0.62
8 0.3
9 -0.14

>  <PUBCHEM_EFFECTIVE_ROTOR_COUNT>  (1) 
5

>  <PUBCHEM_PHARMACOPHORE_FEATURES>  (1) 
4
1 2 acceptor
1 2 donor
1 3 acceptor
6 10 12 13 14 15 16 rings

>  <PUBCHEM_HEAVY_ATOM_COUNT>  (1) 
16

>  <PUBCHEM_ATOM_DEF_STEREO_COUNT>  (1) 
0

>  <PUBCHEM_ATOM_UDEF_STEREO_COUNT>  (1) 
0

>  <PUBCHEM_BOND_DEF_STEREO_COUNT>  (1) 
0

>  <PUBCHEM_BOND_UDEF_STEREO_COUNT>  (1) 
1

>  <PUBCHEM_ISOTOPIC_ATOM_COUNT>  (1) 
0

>  <PUBCHEM_COMPONENT_COUNT>  (1) 
1

>  <PUBCHEM_CACTVS_TAUTO_COUNT>  (1) 
1

>  <PUBCHEM_CONFORMER_ID>  (1) 
00008A7200000003

>  <PUBCHEM_MMFF94_ENERGY>  (1) 
39.575

>  <PUBCHEM_FEATURE_SELFOVERLAP>  (1) 
20.297

>  <PUBCHEM_SHAPE_FINGERPRINT>  (1) 
10014705 185 18335135393728459213
10608611 8 18408319973471819573
11132069 177 18113341882245600599
11405975 8 18335138687151048899
12507557 5 18411696578376568360
13081056 2 18408322168405927061
13533116 47 17095794413692623539
13675066 3 17968104109946038507
14026960 21 18337392754828538468
14251764 75 18124327256879209361
14415576 193 18412828001574540542
14866123 147 8354382376354664332
15196674 1 18409167748713975065
15342168 16 18411701027794206765
17834072 32 18412263977499480621
17834072 33 18273210924469074399
18186145 218 18272378524740827051
19050596 39 18334856121257906311
20279233 1 18411423869291530167
20645477 56 18259988137477569687
20645477 70 17844527704013434015
21065198 57 18408886222050217275
212847 35 18261115158196686356
21503847 285 18334012791982154992
21652331 79 18335420196524596197
21709351 56 18341887502744960462
23402539 116 18335414648149439047
23532345 1 18412827979857175843
23559900 14 18339079293928397018
351380 180 18409163290300558067
3545911 37 18410857620597204863
474 4 18411699902401771432
5104073 3 18333453166222489289
633830 44 18335695065757189999
77779 3 18409168830850593915
7808743 9 17690278635761989088
9709674 26 18410297999312594351

>  <PUBCHEM_SHAPE_MULTIPOLES>  (1) 
314.42
11.09
2.34
0.75
4.21
1.3
-0.02
3.58
-1.02
-2.62
0.09
-0.01
-0.01
0.6

>  <PUBCHEM_SHAPE_SELFOVERLAP>  (1) 
630.859

>  <PUBCHEM_SHAPE_VOLUME>  (1) 
186.2

>  <PUBCHEM_COORDINATE_TYPE>  (1) 
2
5
10

$$$$
