35456
     RDKit          3D

  9  9  0  0  1  0  0  0  0  0999 V2000
    3.0591   -0.1351    0.2085 N   0  0  0  0  0  0  0  0  0  0  0  0
   -0.4386    0.6346   -0.0232 C   0  0  0  0  0  0  0  0  0  0  0  0
    0.5639   -0.3571   -0.6510 C   0  0  0  0  0  0  0  0  0  0  0  0
   -0.1836   -1.5564   -0.0303 C   0  0  0  0  0  0  0  0  0  0  0  0
   -1.3318   -0.5801    0.0999 C   0  0  0  0  0  0  0  0  0  0  0  0
   -0.0347    1.2751    1.2865 C   0  0  0  0  0  0  0  0  0  0  0  0
   -0.9561    1.6828   -0.9872 C   0  0  0  0  0  0  0  0  0  0  0  0
   -2.6456   -0.7335    0.2695 C   0  0  0  0  0  0  0  0  0  0  0  0
    1.9674   -0.2303   -0.1727 C   0  0  0  0  0  0  0  0  0  0  0  0
  1  9  3  0
  2  3  1  0
  2  5  1  0
  2  6  1  0
  2  7  1  0
  3  4  1  0
  3  9  1  0
  4  5  1  0
  5  8  2  0
M  END
>  <PUBCHEM_COMPOUND_CID>  (1) 
35456

>  <PUBCHEM_CONFORMER_RMSD>  (1) 
0.4

>  <PUBCHEM_CONFORMER_DIVERSEORDER>  (1) 
1
2

>  <PUBCHEM_MMFF94_PARTIAL_CHARGES>  (1) 
9
1 -0.56
19 0.15
2 0.14
20 0.15
3 0.18
4 0.14
5 -0.31
8 -0.27
9 0.38

>  <PUBCHEM_EFFECTIVE_ROTOR_COUNT>  (1) 
0.6

>  <PUBCHEM_PHARMACOPHORE_FEATURES>  (1) 
3
1 1 acceptor
3 2 6 7 hydrophobe
4 2 3 4 5 rings

>  <PUBCHEM_HEAVY_ATOM_COUNT>  (1) 
9

>  <PUBCHEM_ATOM_DEF_STEREO_COUNT>  (1) 
0

>  <PUBCHEM_ATOM_UDEF_STEREO_COUNT>  (1) 
1

>  <PUBCHEM_BOND_DEF_STEREO_COUNT>  (1) 
0

>  <PUBCHEM_BOND_UDEF_STEREO_COUNT>  (1) 
0

>  <PUBCHEM_ISOTOPIC_ATOM_COUNT>  (1) 
0

>  <PUBCHEM_COMPONENT_COUNT>  (1) 
1

>  <PUBCHEM_CACTVS_TAUTO_COUNT>  (1) 
1

>  <PUBCHEM_CONFORMER_ID>  (1) 
00008A8000000001

>  <PUBCHEM_MMFF94_ENERGY>  (1) 
15.8427

>  <PUBCHEM_FEATURE_SELFOVERLAP>  (1) 
15.223

>  <PUBCHEM_SHAPE_FINGERPRINT>  (1) 
10857977 72 18272646882966342402
12423570 1 11749422555057497609
13024252 1 15068628171077550588
137420 1 13364132354776319589
16945 1 18410864273506691263
20653091 64 17904218257760553939
21040471 1 17756993306892630068
23552423 10 18115033974426735102
29004967 10 17968388943049078539
369184 2 18410569565983622426
5084963 1 18337402530406342734
68250623 7 16809571964668706627

>  <PUBCHEM_SHAPE_MULTIPOLES>  (1) 
180.23
3.02
1.56
0.97
1.38
0.31
0.1
-0.77
0.23
-0.51
-0.08
-0.08
0.41
0.25

>  <PUBCHEM_SHAPE_SELFOVERLAP>  (1) 
361.351

>  <PUBCHEM_SHAPE_VOLUME>  (1) 
107.4

>  <PUBCHEM_COORDINATE_TYPE>  (1) 
2
5
10

$$$$
