35453
     RDKit          3D

 12 13  0  0  0  0  0  0  0  0999 V2000
    0.2249   -1.8557   -0.1343 O   0  0  0  0  0  0  0  0  0  0  0  0
    2.5082   -1.6199    0.0972 O   0  0  0  0  0  0  0  0  0  0  0  0
    1.0914    0.2349    0.2485 N   0  0  0  0  0  0  0  0  0  0  0  0
   -0.2760    0.3740    0.1506 C   0  0  0  0  0  0  0  0  0  0  0  0
    2.0080    1.3211    0.4873 C   0  0  0  0  0  0  0  0  0  0  0  0
   -0.7722   -0.8931   -0.0790 C   0  0  0  0  0  0  0  0  0  0  0  0
    1.3965   -1.1056    0.0774 C   0  0  0  0  0  0  0  0  0  0  0  0
   -1.0942    1.4805    0.2426 C   0  0  0  0  0  0  0  0  0  0  0  0
    2.4811    1.9434   -0.8101 C   0  0  0  0  0  0  0  0  0  0  0  0
   -2.1228   -1.1256   -0.2304 C   0  0  0  0  0  0  0  0  0  0  0  0
   -2.4673    1.2691    0.0923 C   0  0  0  0  0  0  0  0  0  0  0  0
   -2.9776   -0.0231   -0.1422 C   0  0  0  0  0  0  0  0  0  0  0  0
  1  6  1  0
  1  7  1  0
  2  7  2  0
  3  4  1  0
  3  5  1  0
  3  7  1  0
  4  6  2  0
  4  8  1  0
  5  9  1  0
  6 10  1  0
  8 11  2  0
 10 12  2  0
 11 12  1  0
M  END
>  <PUBCHEM_COMPOUND_CID>  (1) 
35453

>  <PUBCHEM_CONFORMER_RMSD>  (1) 
0.4

>  <PUBCHEM_CONFORMER_DIVERSEORDER>  (1) 
1
3
2

>  <PUBCHEM_MMFF94_PARTIAL_CHARGES>  (1) 
15
1 -0.23
10 -0.15
11 -0.15
12 -0.15
15 0.15
19 0.15
2 -0.57
20 0.15
21 0.15
3 -0.48
4 0.12
5 0.3
6 0.08
7 0.78
8 -0.15

>  <PUBCHEM_EFFECTIVE_ROTOR_COUNT>  (1) 
1

>  <PUBCHEM_PHARMACOPHORE_FEATURES>  (1) 
3
1 2 acceptor
5 1 3 4 6 7 rings
6 4 6 8 10 11 12 rings

>  <PUBCHEM_HEAVY_ATOM_COUNT>  (1) 
12

>  <PUBCHEM_ATOM_DEF_STEREO_COUNT>  (1) 
0

>  <PUBCHEM_ATOM_UDEF_STEREO_COUNT>  (1) 
0

>  <PUBCHEM_BOND_DEF_STEREO_COUNT>  (1) 
0

>  <PUBCHEM_BOND_UDEF_STEREO_COUNT>  (1) 
0

>  <PUBCHEM_ISOTOPIC_ATOM_COUNT>  (1) 
0

>  <PUBCHEM_COMPONENT_COUNT>  (1) 
1

>  <PUBCHEM_CACTVS_TAUTO_COUNT>  (1) 
1

>  <PUBCHEM_CONFORMER_ID>  (1) 
00008A7D00000001

>  <PUBCHEM_MMFF94_ENERGY>  (1) 
29.8243

>  <PUBCHEM_FEATURE_SELFOVERLAP>  (1) 
15.336

>  <PUBCHEM_SHAPE_FINGERPRINT>  (1) 
10465860 71 18056781844350431398
12423570 1 10570206358557636122
12897270 3 18340486793360421797
13380535 21 18339375152850243651
13380535 76 18337667628572513938
14325111 11 18411698798600632833
15775835 57 18342184396358844665
16945 1 18195246620369138203
193761 8 18411418440215211803
19973954 147 18410855434537797089
21040471 1 18268424805597077008
21501502 16 18412826880466646507
2334 1 18411980303710419987
23552423 10 18408600349042585803
2748010 2 18411417323681704143
3071541 158 18263645057000427868
5084963 1 18200869570009536435
57177213 63 18262521523435987836
7364860 26 18343863308054766504

>  <PUBCHEM_SHAPE_MULTIPOLES>  (1) 
230.23
4.07
2.11
0.7
0.25
0.12
-0.04
-0.94
-0.36
-0.9
-0.12
-0.15
-0.15
-0.36

>  <PUBCHEM_SHAPE_SELFOVERLAP>  (1) 
497.592

>  <PUBCHEM_SHAPE_VOLUME>  (1) 
128.1

>  <PUBCHEM_COORDINATE_TYPE>  (1) 
2
5
10

$$$$
