3546
     RDKit          3D

 20 21  0  0  0  0  0  0  0  0999 V2000
    0.1419    0.9466    1.3054 S   0  0  0  0  0  0  0  0  0  0  0  0
    0.7576    2.2618    1.2361 O   0  0  0  0  0  0  0  0  0  0  0  0
   -0.2620    0.4059    2.5927 O   0  0  0  0  0  0  0  0  0  0  0  0
    1.1576   -0.1820    0.5258 N   0  0  0  0  0  0  0  0  0  0  0  0
   -3.9456   -2.3120   -0.0131 N   0  0  0  0  0  0  0  0  0  0  0  0
    3.9330   -0.0085   -0.2117 N   0  0  0  0  0  0  0  0  0  0  0  0
    6.1391    0.0630    0.4933 N   0  0  0  0  0  0  0  0  0  0  0  0
    5.6322   -1.4093   -1.1712 N   0  0  0  0  0  0  0  0  0  0  0  0
   -1.2759    0.9438    0.2676 C   0  0  0  0  0  0  0  0  0  0  0  0
   -2.1540   -0.1493    0.1864 C   0  0  0  0  0  0  0  0  0  0  0  0
   -3.2695   -0.0710   -0.6727 C   0  0  0  0  0  0  0  0  0  0  0  0
    1.5909    0.0515   -0.8592 C   0  0  0  0  0  0  0  0  0  0  0  0
   -1.5016    2.0940   -0.4907 C   0  0  0  0  0  0  0  0  0  0  0  0
   -3.4869    1.0912   -1.4313 C   0  0  0  0  0  0  0  0  0  0  0  0
   -1.9552   -1.3158    0.9339 C   0  0  0  0  0  0  0  0  0  0  0  0
   -2.6046    2.1673   -1.3383 C   0  0  0  0  0  0  0  0  0  0  0  0
    2.9414   -0.6040   -1.1100 C   0  0  0  0  0  0  0  0  0  0  0  0
   -4.1200   -1.1770   -0.7268 C   0  0  0  0  0  0  0  0  0  0  0  0
   -2.8674   -2.3512    0.7985 C   0  0  0  0  0  0  0  0  0  0  0  0
    5.1492   -0.4453   -0.3145 C   0  0  0  0  0  0  0  0  0  0  0  0
  1  2  2  0
  1  3  2  0
  1  4  1  0
  1  9  1  0
  4 12  1  0
  5 18  2  0
  5 19  1  0
  6 17  1  0
  6 20  2  3
  7 20  1  0
  8 20  1  0
  9 10  1  0
  9 13  2  0
 10 11  2  0
 10 15  1  0
 11 14  1  0
 11 18  1  0
 12 17  1  0
 13 16  1  0
 14 16  2  0
 15 19  2  0
M  END
>  <PUBCHEM_COMPOUND_CID>  (1) 
3546

>  <PUBCHEM_CONFORMER_RMSD>  (1) 
0.8

>  <PUBCHEM_CONFORMER_DIVERSEORDER>  (1) 
1
46
23
44
37
30
39
24
25
43
47
36
27
3
35
6
20
41
22
48
16
17
9
12
40
38
7
26
13
21
49
42
15
18
32
31
14
34
4
10
45
33
19
29
2
5
28
11
8

>  <PUBCHEM_MMFF94_PARTIAL_CHARGES>  (1) 
29
1 1.45
12 0.36
13 -0.15
14 -0.15
15 -0.15
16 -0.15
17 0.25
18 0.16
19 0.16
2 -0.65
20 0.55
21 0.42
24 0.15
25 0.15
26 0.15
29 0.15
3 -0.65
30 0.15
31 0.15
32 0.4
33 0.4
34 0.4
35 0.4
4 -0.91
5 -0.62
6 -0.7
7 -0.85
8 -0.85
9 -0.01

>  <PUBCHEM_EFFECTIVE_ROTOR_COUNT>  (1) 
5

>  <PUBCHEM_PHARMACOPHORE_FEATURES>  (1) 
9
1 2 acceptor
1 3 acceptor
1 4 donor
1 5 acceptor
1 7 donor
1 8 donor
4 6 7 8 20 cation
6 5 10 11 15 18 19 rings
6 9 10 11 13 14 16 rings

>  <PUBCHEM_HEAVY_ATOM_COUNT>  (1) 
20

>  <PUBCHEM_ATOM_DEF_STEREO_COUNT>  (1) 
0

>  <PUBCHEM_ATOM_UDEF_STEREO_COUNT>  (1) 
0

>  <PUBCHEM_BOND_DEF_STEREO_COUNT>  (1) 
0

>  <PUBCHEM_BOND_UDEF_STEREO_COUNT>  (1) 
0

>  <PUBCHEM_ISOTOPIC_ATOM_COUNT>  (1) 
0

>  <PUBCHEM_COMPONENT_COUNT>  (1) 
1

>  <PUBCHEM_CACTVS_TAUTO_COUNT>  (1) 
2

>  <PUBCHEM_CONFORMER_ID>  (1) 
00000DDA00000001

>  <PUBCHEM_MMFF94_ENERGY>  (1) 
45.8253

>  <PUBCHEM_FEATURE_SELFOVERLAP>  (1) 
45.772

>  <PUBCHEM_SHAPE_FINGERPRINT>  (1) 
11089746 13 16877947153317295324
121448 382 18040154011038065802
12892183 10 13254536257045456591
13544592 145 18340197596733782085
13544653 18 17418096511905317520
14251740 79 18261398814679621586
14251764 30 17242755318492864195
14341114 328 13183019640214374210
16945 1 17896859111125651737
17870717 6 18336835207891520734
1813 80 16271658866070124944
19489759 90 18114178623436885950
19784866 240 15984525802707362005
200 152 17489867116202133508
20300324 65 18040154019649190140
20871999 31 18335130969559028477
21728266 224 18187353325504785946
23175994 123 17989771098382455241
23402539 116 16950283992457949580
23557571 272 18410853252578691068
23559900 14 18335128834554295236
2748010 2 17609474375432447365
4921388 177 18336271158500090485
5283173 99 18334851697916689452

>  <PUBCHEM_SHAPE_MULTIPOLES>  (1) 
378.8
10.47
2.27
1.57
19.53
0.01
0.66
-4.43
-4.01
-2.9
-0.03
0.05
0.32
1.34

>  <PUBCHEM_SHAPE_SELFOVERLAP>  (1) 
789.631

>  <PUBCHEM_SHAPE_VOLUME>  (1) 
214.9

>  <PUBCHEM_COORDINATE_TYPE>  (1) 
2
5
10

$$$$
