35465
     RDKit          3D

 28 29  0  0  0  0  0  0  0  0999 V2000
    1.7183    0.5870    0.3525 O   0  0  0  0  0  0  0  0  0  0  0  0
   -4.7231    0.3425    0.0055 N   0  0  0  0  0  0  0  0  0  0  0  0
   -4.2168   -0.3708    2.2369 N   0  0  0  0  0  0  0  0  0  0  0  0
   -6.0657   -0.2271   -0.0695 C   0  0  0  0  0  0  0  0  0  0  0  0
   -4.4053    1.3215   -1.0308 C   0  0  0  0  0  0  0  0  0  0  0  0
    5.8846    0.6770   -0.7441 C   0  0  0  0  0  0  0  0  0  0  0  0
    4.5384    1.0278   -0.1061 C   0  0  0  0  0  0  0  0  0  0  0  0
    7.0021    0.4501    0.2781 C   0  0  0  0  0  0  0  0  0  0  0  0
   -3.8215    0.0208    1.0460 C   0  0  0  0  0  0  0  0  0  0  0  0
    3.4566    1.2202   -1.1680 C   0  0  0  0  0  0  0  0  0  0  0  0
   -2.3775    0.0989    0.8438 C   0  0  0  0  0  0  0  0  0  0  0  0
    8.3295    0.0273   -0.3549 C   0  0  0  0  0  0  0  0  0  0  0  0
   -1.6233   -0.9872    0.3709 C   0  0  0  0  0  0  0  0  0  0  0  0
   -7.0975    0.8909    0.0044 C   0  0  0  0  0  0  0  0  0  0  0  0
   -6.2018   -1.0233   -1.3605 C   0  0  0  0  0  0  0  0  0  0  0  0
   -4.1695    2.6828   -0.3896 C   0  0  0  0  0  0  0  0  0  0  0  0
   -3.1804    0.8532   -1.8052 C   0  0  0  0  0  0  0  0  0  0  0  0
    2.1227    1.6100   -0.5468 C   0  0  0  0  0  0  0  0  0  0  0  0
   -0.2267   -0.8371    0.1981 C   0  0  0  0  0  0  0  0  0  0  0  0
    0.3697    0.3942    0.5040 C   0  0  0  0  0  0  0  0  0  0  0  0
    9.3868   -0.2553    0.7136 C   0  0  0  0  0  0  0  0  0  0  0  0
   -1.7636    1.3157    1.1423 C   0  0  0  0  0  0  0  0  0  0  0  0
   -0.3902    1.4633    0.9724 C   0  0  0  0  0  0  0  0  0  0  0  0
   -2.2245   -2.2191    0.0655 C   0  0  0  0  0  0  0  0  0  0  0  0
    0.5275   -1.9232   -0.2749 C   0  0  0  0  0  0  0  0  0  0  0  0
   10.6973   -0.7127    0.0933 C   0  0  0  0  0  0  0  0  0  0  0  0
   -1.4597   -3.2877   -0.4035 C   0  0  0  0  0  0  0  0  0  0  0  0
   -0.0863   -3.1399   -0.5733 C   0  0  0  0  0  0  0  0  0  0  0  0
  1 18  1  0
  1 20  1  0
  2  4  1  0
  2  5  1  0
  2  9  1  0
  3  9  2  0
  4 14  1  0
  4 15  1  0
  5 16  1  0
  5 17  1  0
  6  7  1  0
  6  8  1  0
  7 10  1  0
  8 12  1  0
  9 11  1  0
 10 18  1  0
 11 13  2  0
 11 22  1  0
 12 21  1  0
 13 19  1  0
 13 24  1  0
 19 20  2  0
 19 25  1  0
 20 23  1  0
 21 26  1  0
 22 23  2  0
 24 27  2  0
 25 28  2  0
 27 28  1  0
M  END
>  <PUBCHEM_COMPOUND_CID>  (1) 
35465

>  <PUBCHEM_CONFORMER_RMSD>  (1) 
1

>  <PUBCHEM_CONFORMER_DIVERSEORDER>  (1) 
24
66
25
14
119
51
134
133
80
54
117
10
43
86
83
88
18
8
59
55
58
125
136
101
123
17
32
85
126
2
23
52
57
82
112
128
35
28
50
70
84
111
75
29
40
44
104
68
69
37
41
109
60
48
140
16
79
138
9
46
108
135
100
30
142
36
116
118
137
87
12
76
64
49
113
121
56
6
72
129
97
47
38
127
19
27
62
63
77
71
120
122
4
3
65
81
93
31
34
115
61
21
131
22
67
53
15
74
45
95
105
73
39
42
78
13
106
92
110
26
1
99
102
5
139
11
91
20
130
96
107
124
103
132
7
114
141
33
90
98
89
94

>  <PUBCHEM_MMFF94_PARTIAL_CHARGES>  (1) 
22
1 -0.36
11 0.09
18 0.28
2 -0.79
20 0.08
22 -0.15
23 -0.15
24 -0.15
25 -0.15
27 -0.15
28 -0.15
3 -0.85
4 0.37
5 0.37
57 0.15
58 0.15
59 0.15
60 0.15
64 0.4
65 0.15
66 0.15
9 0.41

>  <PUBCHEM_EFFECTIVE_ROTOR_COUNT>  (1) 
12

>  <PUBCHEM_PHARMACOPHORE_FEATURES>  (1) 
10
1 1 acceptor
1 26 hydrophobe
1 3 donor
3 2 3 9 cation
3 4 14 15 hydrophobe
3 5 16 17 hydrophobe
3 6 7 10 hydrophobe
3 8 12 21 hydrophobe
6 11 13 19 20 22 23 rings
6 13 19 24 25 27 28 rings

>  <PUBCHEM_HEAVY_ATOM_COUNT>  (1) 
28

>  <PUBCHEM_ATOM_DEF_STEREO_COUNT>  (1) 
0

>  <PUBCHEM_ATOM_UDEF_STEREO_COUNT>  (1) 
0

>  <PUBCHEM_BOND_DEF_STEREO_COUNT>  (1) 
0

>  <PUBCHEM_BOND_UDEF_STEREO_COUNT>  (1) 
0

>  <PUBCHEM_ISOTOPIC_ATOM_COUNT>  (1) 
0

>  <PUBCHEM_COMPONENT_COUNT>  (1) 
1

>  <PUBCHEM_CACTVS_TAUTO_COUNT>  (1) 
1

>  <PUBCHEM_CONFORMER_ID>  (1) 
00008A8900000018

>  <PUBCHEM_MMFF94_ENERGY>  (1) 
89.209

>  <PUBCHEM_FEATURE_SELFOVERLAP>  (1) 
50.786

>  <PUBCHEM_SHAPE_FINGERPRINT>  (1) 
10165383 225 18411136918885372005
10577160 183 18260255336009602578
10670039 82 18187076235273531389
11315181 36 17060341846528777032
11578080 2 13841358768664725535
12498461 61 18341604911942104018
12643181 29 18342736339260574362
13583140 156 17458628947280165625
13631057 29 11887948852420264724
14856354 85 15864076489690142464
15021287 119 17603590759499696484
15131766 46 16809004617339091308
15183329 4 16370721531191548592
15338160 23 12180107757827319223
15461852 350 17632578292839087116
15849732 13 18113338622397091036
20721686 146 14708027901722832199
20721686 56 18334861576346738586
21344244 246 18272935994464081727
21756936 100 17417826023776898979
21859007 373 18261943086279767244
23559900 14 18058445573205781648
249057 3 18408041836576442772
2838139 119 17748824137973946309
335352 9 18411702114832168404
3383291 50 18130793382236286798
4015057 19 17131828832697385232
4017518 198 18202003218855923254
444769 64 18334292072488975246
5085150 59 18131068264559628422
559249 180 18408887373734377290
57527293 21 17317644146397522571
59521270 166 18261955151021658708
59682541 35 10159691404964304356
59755656 520 18409161147307296991
6691757 9 17988652917091402682
7226269 152 18130791161669344048

>  <PUBCHEM_SHAPE_MULTIPOLES>  (1) 
560.4
23.79
2.57
1.28
72.35
1.87
-0.08
-2.02
0.71
-2.25
0.55
-1.36
-0.2
-0.25

>  <PUBCHEM_SHAPE_SELFOVERLAP>  (1) 
1146.174

>  <PUBCHEM_SHAPE_VOLUME>  (1) 
325.5

>  <PUBCHEM_COORDINATE_TYPE>  (1) 
2
5
10

$$$$
