35477
     RDKit          3D

 29 30  0  0  0  0  0  0  0  0999 V2000
   -2.3511   -1.3633   -1.2581 O   0  0  0  0  0  0  0  0  0  0  0  0
    3.6675    0.7515   -0.2382 N   0  0  0  0  0  0  0  0  0  0  0  0
    3.9250   -1.0624   -1.7834 N   0  0  0  0  0  0  0  0  0  0  0  0
    2.8099    1.5778    0.6076 C   0  0  0  0  0  0  0  0  0  0  0  0
    5.0741    1.1427   -0.2661 C   0  0  0  0  0  0  0  0  0  0  0  0
    2.3430    2.8207   -0.1453 C   0  0  0  0  0  0  0  0  0  0  0  0
    5.8601    0.4154    0.8215 C   0  0  0  0  0  0  0  0  0  0  0  0
    3.1606   -0.3073   -1.0263 C   0  0  0  0  0  0  0  0  0  0  0  0
   -5.4904    0.4594   -0.2858 C   0  0  0  0  0  0  0  0  0  0  0  0
   -6.8093   -0.0197    0.3246 C   0  0  0  0  0  0  0  0  0  0  0  0
    1.7362   -0.6286   -1.0317 C   0  0  0  0  0  0  0  0  0  0  0  0
   -4.5308   -0.7075   -0.5148 C   0  0  0  0  0  0  0  0  0  0  0  0
    1.1656   -1.5373   -0.1256 C   0  0  0  0  0  0  0  0  0  0  0  0
   -7.8192    1.1085    0.5542 C   0  0  0  0  0  0  0  0  0  0  0  0
    1.4778    3.7429    0.7175 C   0  0  0  0  0  0  0  0  0  0  0  0
    7.3334    0.8290    0.8616 C   0  0  0  0  0  0  0  0  0  0  0  0
   -0.2239   -1.7982   -0.1896 C   0  0  0  0  0  0  0  0  0  0  0  0
   -3.1995   -0.2369   -1.0831 C   0  0  0  0  0  0  0  0  0  0  0  0
   -1.0019   -1.1428   -1.1578 C   0  0  0  0  0  0  0  0  0  0  0  0
    0.9482    0.0136   -1.9872 C   0  0  0  0  0  0  0  0  0  0  0  0
   -9.1636    0.6203    1.0952 C   0  0  0  0  0  0  0  0  0  0  0  0
   -0.4183   -0.2430   -2.0502 C   0  0  0  0  0  0  0  0  0  0  0  0
    1.9435   -2.1928    0.8427 C   0  0  0  0  0  0  0  0  0  0  0  0
    1.0835    5.0021   -0.0388 C   0  0  0  0  0  0  0  0  0  0  0  0
    8.0736    0.1373    1.9960 C   0  0  0  0  0  0  0  0  0  0  0  0
   -0.7945   -2.7069    0.7165 C   0  0  0  0  0  0  0  0  0  0  0  0
  -10.1529    1.7671    1.2376 C   0  0  0  0  0  0  0  0  0  0  0  0
    1.3599   -3.0925    1.7350 C   0  0  0  0  0  0  0  0  0  0  0  0
   -0.0065   -3.3491    1.6720 C   0  0  0  0  0  0  0  0  0  0  0  0
  1 18  1  0
  1 19  1  0
  2  4  1  0
  2  5  1  0
  2  8  1  0
  3  8  2  0
  4  6  1  0
  5  7  1  0
  6 15  1  0
  7 16  1  0
  8 11  1  0
  9 10  1  0
  9 12  1  0
 10 14  1  0
 11 13  2  0
 11 20  1  0
 12 18  1  0
 13 17  1  0
 13 23  1  0
 14 21  1  0
 15 24  1  0
 16 25  1  0
 17 19  2  0
 17 26  1  0
 19 22  1  0
 20 22  2  0
 21 27  1  0
 23 28  2  0
 26 29  2  0
 28 29  1  0
M  END
>  <PUBCHEM_COMPOUND_CID>  (1) 
35477

>  <PUBCHEM_CONFORMER_RMSD>  (1) 
1.2

>  <PUBCHEM_CONFORMER_DIVERSEORDER>  (1) 
1
65
9
10
57
71
58
54
91
26
87
52
55
33
45
47
41
15
13
23
64
86
42
59
50
90
74
40
82
73
19
63
80
78
66
89
46
44
81
77
88
85
22
68
75
39
11
27
79
83
28
2
5
36
24
37
12
34
51
38
62
31
67
8
60
84
72
53
29
16
25
6
56
70
69
48
76
18
21
20
61
32
17
43
14
30
35
3
49
7
4

>  <PUBCHEM_MMFF94_PARTIAL_CHARGES>  (1) 
22
1 -0.36
11 0.09
18 0.28
19 0.08
2 -0.79
20 -0.15
22 -0.15
23 -0.15
26 -0.15
28 -0.15
29 -0.15
3 -0.85
4 0.37
5 0.37
52 0.15
55 0.15
56 0.15
63 0.15
67 0.4
68 0.15
69 0.15
8 0.41

>  <PUBCHEM_EFFECTIVE_ROTOR_COUNT>  (1) 
15

>  <PUBCHEM_PHARMACOPHORE_FEATURES>  (1) 
9
1 1 acceptor
1 24 hydrophobe
1 25 hydrophobe
1 27 hydrophobe
1 3 donor
3 2 3 8 cation
5 9 10 12 14 21 hydrophobe
6 11 13 17 19 20 22 rings
6 13 17 23 26 28 29 rings

>  <PUBCHEM_HEAVY_ATOM_COUNT>  (1) 
29

>  <PUBCHEM_ATOM_DEF_STEREO_COUNT>  (1) 
0

>  <PUBCHEM_ATOM_UDEF_STEREO_COUNT>  (1) 
0

>  <PUBCHEM_BOND_DEF_STEREO_COUNT>  (1) 
0

>  <PUBCHEM_BOND_UDEF_STEREO_COUNT>  (1) 
0

>  <PUBCHEM_ISOTOPIC_ATOM_COUNT>  (1) 
0

>  <PUBCHEM_COMPONENT_COUNT>  (1) 
1

>  <PUBCHEM_CACTVS_TAUTO_COUNT>  (1) 
1

>  <PUBCHEM_CONFORMER_ID>  (1) 
00008A9500000001

>  <PUBCHEM_MMFF94_ENERGY>  (1) 
63.9985

>  <PUBCHEM_FEATURE_SELFOVERLAP>  (1) 
45.698

>  <PUBCHEM_SHAPE_FINGERPRINT>  (1) 
10165383 225 17895205406450255526
11135609 99 12757158978012923457
11456790 92 18261109690223589433
11534866 41 17458633315879130331
11607047 141 18056768619920059447
12293681 4 18339079393329342528
12788726 201 18265871633341745472
14028597 1 18261660490558276456
14849402 71 18335415807067857225
15183329 4 12391517460808341263
15238133 3 18338516452029400212
15295992 7 18119522387313088318
15347590 135 18113899326135695481
15475509 84 17902219015051219501
21285901 2 11311792660616172239
21475661 188 18268429207986236069
21781055 127 18335433335710133478
22956985 138 16010699513360424202
23559900 14 17317868502831244086
24893992 56 18409450328124957123
3178227 256 18187364337284032896
3633792 109 16200443455384708614
392239 28 18264499545323920499
4093350 32 18130503059817142990
4340502 62 18114184129416758623
465052 167 15213021557059911079
5104073 3 17604987006407399781
5385378 56 18186799145284272163
57527306 92 17917706903027487368
7226269 152 18336529587589788428

>  <PUBCHEM_SHAPE_MULTIPOLES>  (1) 
580.98
21.85
4.16
1.79
50.07
3.38
0.23
13.68
-13.95
-2.24
-1.83
-0.89
-0.73
-0.99

>  <PUBCHEM_SHAPE_SELFOVERLAP>  (1) 
1170.687

>  <PUBCHEM_SHAPE_VOLUME>  (1) 
342

>  <PUBCHEM_COORDINATE_TYPE>  (1) 
2
5
10

$$$$
