35488
     RDKit          3D

 23 24  0  0  0  0  0  0  0  0999 V2000
    4.2448    2.8236    0.0040 Cl  0  0  0  0  0  0  0  0  0  0  0  0
    7.1968   -1.6744   -0.0007 Cl  0  0  0  0  0  0  0  0  0  0  0  0
   -5.1132   -2.0460   -1.4622 Cl  0  0  0  0  0  0  0  0  0  0  0  0
   -2.8596   -3.0813    0.0062 Cl  0  0  0  0  0  0  0  0  0  0  0  0
   -5.1177   -2.0319    1.4644 Cl  0  0  0  0  0  0  0  0  0  0  0  0
    0.4457   -0.9404   -0.0023 O   0  0  0  0  0  0  0  0  0  0  0  0
    1.8831    0.9089    0.0005 N   0  0  0  0  0  0  0  0  0  0  0  0
   -0.4001    1.2399   -0.0007 N   0  0  0  0  0  0  0  0  0  0  0  0
   -2.2058   -0.2447   -0.0013 N   0  0  0  0  0  0  0  0  0  0  0  0
   -2.5619    2.1282   -0.0022 N   0  0  0  0  0  0  0  0  0  0  0  0
   -4.4389    0.6334   -0.0009 N   0  0  0  0  0  0  0  0  0  0  0  0
    3.1522    0.3223    0.0008 C   0  0  0  0  0  0  0  0  0  0  0  0
   -1.7993    1.0294   -0.0018 C   0  0  0  0  0  0  0  0  0  0  0  0
    4.3122    1.0972    0.0015 C   0  0  0  0  0  0  0  0  0  0  0  0
    3.2432   -1.0695   -0.0005 C   0  0  0  0  0  0  0  0  0  0  0  0
    0.6192    0.2741   -0.0010 C   0  0  0  0  0  0  0  0  0  0  0  0
   -3.5431   -0.3669   -0.0006 C   0  0  0  0  0  0  0  0  0  0  0  0
   -3.8761    1.8525   -0.0016 C   0  0  0  0  0  0  0  0  0  0  0  0
    5.5631    0.4801    0.0006 C   0  0  0  0  0  0  0  0  0  0  0  0
    4.4940   -1.6866   -0.0014 C   0  0  0  0  0  0  0  0  0  0  0  0
    5.6541   -0.9119   -0.0009 C   0  0  0  0  0  0  0  0  0  0  0  0
   -4.0886   -1.7546    0.0017 C   0  0  0  0  0  0  0  0  0  0  0  0
   -4.8043    3.0187   -0.0015 C   0  0  0  0  0  0  0  0  0  0  0  0
  1 14  1  0
  2 21  1  0
  3 22  1  0
  4 22  1  0
  5 22  1  0
  6 16  2  0
  7 12  1  0
  7 16  1  0
  8 13  1  0
  8 16  1  0
  9 13  2  0
  9 17  1  0
 10 13  1  0
 10 18  2  0
 11 17  2  0
 11 18  1  0
 12 14  2  0
 12 15  1  0
 14 19  1  0
 15 20  2  0
 17 22  1  0
 18 23  1  0
 19 21  2  0
 20 21  1  0
M  END
>  <PUBCHEM_COMPOUND_CID>  (1) 
35488

>  <PUBCHEM_CONFORMER_RMSD>  (1) 
0.8

>  <PUBCHEM_CONFORMER_DIVERSEORDER>  (1) 
1
21
12
10
8
16
5
13
7
6
9
3
20
14
11
4
17
15
2
19
18

>  <PUBCHEM_MMFF94_PARTIAL_CHARGES>  (1) 
28
1 -0.18
10 -0.62
11 -0.62
12 0.12
13 0.74
14 0.18
15 -0.15
16 0.69
17 0.48
18 0.48
19 -0.15
2 -0.18
20 -0.15
21 0.18
22 1.01
23 0.14
24 0.37
25 0.15
26 0.37
27 0.15
28 0.15
3 -0.29
4 -0.29
5 -0.29
6 -0.57
7 -0.55
8 -0.55
9 -0.62

>  <PUBCHEM_EFFECTIVE_ROTOR_COUNT>  (1) 
5

>  <PUBCHEM_PHARMACOPHORE_FEATURES>  (1) 
7
1 6 acceptor
1 7 donor
1 8 donor
3 10 11 18 cation
3 9 11 17 cation
6 12 14 15 19 20 21 rings
6 9 10 11 13 17 18 rings

>  <PUBCHEM_HEAVY_ATOM_COUNT>  (1) 
23

>  <PUBCHEM_ATOM_DEF_STEREO_COUNT>  (1) 
0

>  <PUBCHEM_ATOM_UDEF_STEREO_COUNT>  (1) 
0

>  <PUBCHEM_BOND_DEF_STEREO_COUNT>  (1) 
0

>  <PUBCHEM_BOND_UDEF_STEREO_COUNT>  (1) 
0

>  <PUBCHEM_ISOTOPIC_ATOM_COUNT>  (1) 
0

>  <PUBCHEM_COMPONENT_COUNT>  (1) 
1

>  <PUBCHEM_CACTVS_TAUTO_COUNT>  (1) 
9

>  <PUBCHEM_CONFORMER_ID>  (1) 
00008AA000000001

>  <PUBCHEM_MMFF94_ENERGY>  (1) 
55.9027

>  <PUBCHEM_FEATURE_SELFOVERLAP>  (1) 
36.494

>  <PUBCHEM_SHAPE_FINGERPRINT>  (1) 
10411042 1 18266460005096211171
10595046 47 18338516443059715572
11315181 36 18040719177194630927
11405975 8 18411419479739871968
11524674 6 17060339625999368383
11545043 162 18201714050732104016
11796584 16 18270963436670834702
12107183 9 17976817588839668370
12760667 363 18340486759718289987
13073987 5 18408885165873059552
13167823 11 18408884044665029626
14341114 176 18337677511007334344
14508225 48 18266164193455272709
15196674 1 18410575093601374496
15250474 111 18334844005372046706
17492 89 18264210373127355682
17844677 252 18411425028879692688
17857418 61 18412259562436890446
18681886 176 18342733023519266322
18927931 339 18411706495583064655
20028762 73 18272083907982440302
21065198 57 18410855443201902968
21236236 1 18411981356267661739
21267235 1 18408329899194358434
21315763 129 18411699876985551300
21709351 56 18409162195458385908
220451 1 17894916166357042714
23402539 116 18408601448411717500
23522609 53 17913520053360305489
23559900 14 18341887455553067496
249057 3 18337110059986741973
3004659 81 18334292063846189178
4073 2 18187089459856968370
4214541 1 18410575063315128804
5104073 3 18411981360415118720
559249 180 18409445843440738411
5924683 9 18343017818110005791
59755656 520 18336259025893076509
633830 44 17167870759368049312
6431902 208 18337109072381802919
67856867 119 18410854382825262596
7495541 125 17846494872476109608
77779 3 18410856559903890952
9709674 26 18335144240817906554

>  <PUBCHEM_SHAPE_MULTIPOLES>  (1) 
451.9
17.08
3.36
0.82
14.12
0.7
0
-5.25
0.01
-3.19
0
-1.09
-0.43
0.01

>  <PUBCHEM_SHAPE_SELFOVERLAP>  (1) 
909.067

>  <PUBCHEM_SHAPE_VOLUME>  (1) 
264.6

>  <PUBCHEM_COORDINATE_TYPE>  (1) 
2
5
10

$$$$
