35483
     RDKit          3D

 17 17  0  0  0  0  0  0  0  0999 V2000
    3.6209   -1.4130    1.4565 Cl  0  0  0  0  0  0  0  0  0  0  0  0
    1.6585   -2.9395   -0.0014 Cl  0  0  0  0  0  0  0  0  0  0  0  0
    3.6103   -1.4031   -1.4701 Cl  0  0  0  0  0  0  0  0  0  0  0  0
   -2.0071   -1.6062    0.0176 O   0  0  0  0  0  0  0  0  0  0  0  0
   -3.8815   -0.2478   -0.0043 N   0  0  0  0  0  0  0  0  0  0  0  0
   -1.7255    0.7033    0.0126 N   0  0  0  0  0  0  0  0  0  0  0  0
    0.3724   -0.3282    0.0066 N   0  0  0  0  0  0  0  0  0  0  0  0
    0.1753    2.0632    0.0042 N   0  0  0  0  0  0  0  0  0  0  0  0
    2.3449    1.0381   -0.0038 N   0  0  0  0  0  0  0  0  0  0  0  0
   -0.3132    0.8191    0.0080 C   0  0  0  0  0  0  0  0  0  0  0  0
   -2.4848   -0.4695    0.0172 C   0  0  0  0  0  0  0  0  0  0  0  0
    1.7020   -0.1407    0.0004 C   0  0  0  0  0  0  0  0  0  0  0  0
    1.5177    2.0959   -0.0017 C   0  0  0  0  0  0  0  0  0  0  0  0
   -4.8400   -1.3453   -0.0269 C   0  0  0  0  0  0  0  0  0  0  0  0
   -4.4549    1.0964   -0.0049 C   0  0  0  0  0  0  0  0  0  0  0  0
    2.5509   -1.3666   -0.0033 C   0  0  0  0  0  0  0  0  0  0  0  0
    2.1540    3.4439   -0.0067 C   0  0  0  0  0  0  0  0  0  0  0  0
  1 16  1  0
  2 16  1  0
  3 16  1  0
  4 11  2  0
  5 11  1  0
  5 14  1  0
  5 15  1  0
  6 10  1  0
  6 11  1  0
  7 10  2  0
  7 12  1  0
  8 10  1  0
  8 13  2  0
  9 12  2  0
  9 13  1  0
 12 16  1  0
 13 17  1  0
M  END
>  <PUBCHEM_COMPOUND_CID>  (1) 
35483

>  <PUBCHEM_CONFORMER_RMSD>  (1) 
0.6

>  <PUBCHEM_CONFORMER_DIVERSEORDER>  (1) 
1
8
2
7
3
6
4
5

>  <PUBCHEM_MMFF94_PARTIAL_CHARGES>  (1) 
18
1 -0.29
10 0.74
11 0.69
12 0.48
13 0.48
14 0.3
15 0.3
16 1.01
17 0.14
18 0.37
2 -0.29
3 -0.29
4 -0.57
5 -0.66
6 -0.55
7 -0.62
8 -0.62
9 -0.62

>  <PUBCHEM_EFFECTIVE_ROTOR_COUNT>  (1) 
4

>  <PUBCHEM_PHARMACOPHORE_FEATURES>  (1) 
5
1 4 acceptor
1 6 donor
3 7 9 12 cation
3 8 9 13 cation
6 7 8 9 10 12 13 rings

>  <PUBCHEM_HEAVY_ATOM_COUNT>  (1) 
17

>  <PUBCHEM_ATOM_DEF_STEREO_COUNT>  (1) 
0

>  <PUBCHEM_ATOM_UDEF_STEREO_COUNT>  (1) 
0

>  <PUBCHEM_BOND_DEF_STEREO_COUNT>  (1) 
0

>  <PUBCHEM_BOND_UDEF_STEREO_COUNT>  (1) 
0

>  <PUBCHEM_ISOTOPIC_ATOM_COUNT>  (1) 
0

>  <PUBCHEM_COMPONENT_COUNT>  (1) 
1

>  <PUBCHEM_CACTVS_TAUTO_COUNT>  (1) 
5

>  <PUBCHEM_CONFORMER_ID>  (1) 
00008A9B00000001

>  <PUBCHEM_MMFF94_ENERGY>  (1) 
37.1451

>  <PUBCHEM_FEATURE_SELFOVERLAP>  (1) 
26.296

>  <PUBCHEM_SHAPE_FINGERPRINT>  (1) 
11471102 20 18410290328516061541
116883 192 18197783206352790997
12553582 1 18266187140473478522
14251717 144 18411134774905400495
14252887 29 18060139799900778462
15042514 8 17760926238805636930
15422964 175 18196363719972621422
15442244 35 18340208497065783113
15536298 74 18342176695640368225
15848700 24 18342735165821749614
16945 1 17834114148398982056
18186145 218 17967529082507527613
20369508 70 18408317791665505855
20559304 39 18413389843157387136
20645477 70 18338515343563671703
20671657 53 18340773637030220334
20871998 22 18269836419914142174
20871999 31 18192724349232136148
21501925 9 18412254021854907442
221490 88 18337118976549643571
2255824 54 18409450327439096156
23419403 2 17679266799075682692
23557571 272 18054786187975542954
23558518 356 17326608606501564388
23559900 14 18413101766953261529
23598291 2 18129119877856048929
2748010 2 18046640159158767394
3071541 37 18189619517611689012
3091708 16 9286935354134457096
314173 41 18339369564913448151
33824 294 18265331900810206113
5104073 3 18410577314568926913
58051976 100 18410575072622378055
5902787 121 18334850606667604602
5939293 188 18411697703631846678
7364860 26 18341897445509769716
81228 2 17979079280095099752
81539 233 18118964930301423116
84936 182 18129381681882966633
9709674 26 18337675338271185107
9841814 1 18334856104399622096

>  <PUBCHEM_SHAPE_MULTIPOLES>  (1) 
324.69
8.08
3.26
0.89
9.9
1.8
0.01
-3.42
0.04
-2.66
0.01
-1.1
-0.38
-0.01

>  <PUBCHEM_SHAPE_SELFOVERLAP>  (1) 
630.648

>  <PUBCHEM_SHAPE_VOLUME>  (1) 
196.1

>  <PUBCHEM_COORDINATE_TYPE>  (1) 
2
5
10

$$$$
