3548
     RDKit          3D

 18 20  0  0  1  0  0  0  0  0999 V2000
   -1.0245    0.6745   -1.3360 S   0  0  0  0  0  0  0  0  0  0  0  0
   -2.7579   -1.7822    0.3725 N   0  0  0  0  0  0  0  0  0  0  0  0
    3.4715   -2.0873    0.0195 N   0  0  0  0  0  0  0  0  0  0  0  0
   -2.1325    1.1970    0.0190 C   0  0  0  0  0  0  0  0  0  0  0  0
   -3.6105    1.1877   -0.3964 C   0  0  0  0  0  0  0  0  0  0  0  0
   -1.8920    0.4327    1.3276 C   0  0  0  0  0  0  0  0  0  0  0  0
   -4.2433   -0.1620   -0.7342 C   0  0  0  0  0  0  0  0  0  0  0  0
   -1.8351   -1.0975    1.2700 C   0  0  0  0  0  0  0  0  0  0  0  0
   -4.1065   -1.2366    0.3429 C   0  0  0  0  0  0  0  0  0  0  0  0
    0.5781    0.9331   -0.5884 C   0  0  0  0  0  0  0  0  0  0  0  0
    1.5365   -0.0835   -0.3902 C   0  0  0  0  0  0  0  0  0  0  0  0
    0.8632    2.2448   -0.1868 C   0  0  0  0  0  0  0  0  0  0  0  0
    2.7721    0.2340    0.2109 C   0  0  0  0  0  0  0  0  0  0  0  0
    2.0848    2.5545    0.4067 C   0  0  0  0  0  0  0  0  0  0  0  0
    1.2915   -1.4062   -0.7770 C   0  0  0  0  0  0  0  0  0  0  0  0
    3.0376    1.5556    0.6061 C   0  0  0  0  0  0  0  0  0  0  0  0
    3.6890   -0.8043    0.3864 C   0  0  0  0  0  0  0  0  0  0  0  0
    2.2781   -2.3541   -0.5526 C   0  0  0  0  0  0  0  0  0  0  0  0
  1  4  1  0
  1 10  1  0
  2  8  1  0
  2  9  1  0
  3 17  2  0
  3 18  1  0
  4  5  1  0
  4  6  1  0
  5  7  1  0
  6  8  1  0
  7  9  1  0
 10 11  1  0
 10 12  2  0
 11 13  2  0
 11 15  1  0
 12 14  1  0
 13 16  1  0
 13 17  1  0
 14 16  2  0
 15 18  2  0
M  END
>  <PUBCHEM_COMPOUND_CID>  (1) 
3548

>  <PUBCHEM_CONFORMER_RMSD>  (1) 
0.6

>  <PUBCHEM_CONFORMER_DIVERSEORDER>  (1) 
1
32
27
15
38
33
5
35
9
13
4
23
37
25
40
7
6
3
2
36
24
18
11
16
39
10
20
8
34
22
29
14
26
21
31
12
17
19
30
28

>  <PUBCHEM_MMFF94_PARTIAL_CHARGES>  (1) 
20
1 -0.33
10 0.1
12 -0.15
14 -0.15
15 -0.15
16 -0.15
17 0.16
18 0.16
2 -0.9
3 -0.62
30 0.36
31 0.15
32 0.15
33 0.15
34 0.15
35 0.15
36 0.15
4 0.23
8 0.27
9 0.27

>  <PUBCHEM_EFFECTIVE_ROTOR_COUNT>  (1) 
3.4

>  <PUBCHEM_PHARMACOPHORE_FEATURES>  (1) 
6
1 2 cation
1 2 donor
1 3 acceptor
6 10 11 12 13 14 16 rings
6 3 11 13 15 17 18 rings
7 2 4 5 6 7 8 9 rings

>  <PUBCHEM_HEAVY_ATOM_COUNT>  (1) 
18

>  <PUBCHEM_ATOM_DEF_STEREO_COUNT>  (1) 
0

>  <PUBCHEM_ATOM_UDEF_STEREO_COUNT>  (1) 
1

>  <PUBCHEM_BOND_DEF_STEREO_COUNT>  (1) 
0

>  <PUBCHEM_BOND_UDEF_STEREO_COUNT>  (1) 
0

>  <PUBCHEM_ISOTOPIC_ATOM_COUNT>  (1) 
0

>  <PUBCHEM_COMPONENT_COUNT>  (1) 
1

>  <PUBCHEM_CACTVS_TAUTO_COUNT>  (1) 
1

>  <PUBCHEM_CONFORMER_ID>  (1) 
00000DDC00000001

>  <PUBCHEM_MMFF94_ENERGY>  (1) 
50.2337

>  <PUBCHEM_FEATURE_SELFOVERLAP>  (1) 
30.473

>  <PUBCHEM_SHAPE_FINGERPRINT>  (1) 
10366900 7 18340772653567443385
1100329 8 15166302620895691613
11370993 70 18339635754312496963
11471102 22 18413669106436943412
11582403 64 16242288758392178117
12011746 2 18410015455157344534
12506688 2 18410858716008894700
12553582 1 18196392328596513294
12633257 1 18338803299276630793
13533116 47 18342737434149875185
13544592 145 18187639155546549917
14223421 5 18265621055225560179
14251764 30 16556806070205373574
14289901 80 18201715197778580489
14787075 74 16982086507213690409
14790565 3 18121222245291537980
14866123 147 17115792116024072595
15219456 202 18408882975176020317
15635459 17 18408041801293518834
16752209 62 15574980742269249541
16945 1 18341626870975439968
17492 89 18411699932641538039
17834072 14 18408599275506373155
18186145 218 17967806125120375373
19049666 15 18263358105798321245
19591789 44 18122068860770405300
19862831 5 13695592130670666854
200 152 18060413621371887573
20645477 70 18336822078350264487
221490 88 18409453608657226570
23559900 14 18409724084228168329
3286 77 18408882927788773639
33824 294 18339641268997497530
3797600 57 17130158734384441843
5104073 3 18411138039460192017
5161694 15 17894909620684400191
69090 78 18408880755163062639
7364860 26 18341051903771933816
81228 2 17620209637040091756
8809292 202 18261675857191651012
9709674 26 18334859467448899659

>  <PUBCHEM_SHAPE_MULTIPOLES>  (1) 
364.32
7.43
2.59
1.1
3.8
0
0.04
2.03
0.49
-1.79
0.03
0.46
0.02
0.82

>  <PUBCHEM_SHAPE_SELFOVERLAP>  (1) 
762.079

>  <PUBCHEM_SHAPE_VOLUME>  (1) 
205.5

>  <PUBCHEM_COORDINATE_TYPE>  (1) 
2
5
10

$$$$
