35495
     RDKit          3D

 28 30  0  0  0  0  0  0  0  0999 V2000
   -1.6426    0.6682   -0.0245 O   0  0  0  0  0  0  0  0  0  0  0  0
    1.6467    0.6798   -0.0208 O   0  0  0  0  0  0  0  0  0  0  0  0
   -1.1952   -3.6023   -0.1913 N   0  0  0  0  0  0  0  0  0  0  0  0
    1.2044   -3.5979   -0.1919 N   0  0  0  0  0  0  0  0  0  0  0  0
   -2.3364   -1.5634   -0.1110 N   0  0  0  0  0  0  0  0  0  0  0  0
    2.3378   -1.5553   -0.1121 N   0  0  0  0  0  0  0  0  0  0  0  0
    0.0009   -1.5237   -0.1091 N   0  0  0  0  0  0  0  0  0  0  0  0
   -3.9196    0.1172   -0.0457 N   0  0  0  0  0  0  0  0  0  0  0  0
    3.9169    0.1191   -0.0468 N   0  0  0  0  0  0  0  0  0  0  0  0
    0.0085   -5.6922   -0.2745 C   0  0  0  0  0  0  0  0  0  0  0  0
    0.0057   -4.2026   -0.2155 C   0  0  0  0  0  0  0  0  0  0  0  0
   -1.1100   -2.2684   -0.1384 C   0  0  0  0  0  0  0  0  0  0  0  0
    1.1242   -2.2586   -0.1388 C   0  0  0  0  0  0  0  0  0  0  0  0
    0.0104   -6.3289    1.1133 C   0  0  0  0  0  0  0  0  0  0  0  0
   -4.5471    1.3625    0.0027 C   0  0  0  0  0  0  0  0  0  0  0  0
    4.5489    1.3841    0.0035 C   0  0  0  0  0  0  0  0  0  0  0  0
   -2.5337   -0.1742   -0.0571 C   0  0  0  0  0  0  0  0  0  0  0  0
    2.5408   -0.1596   -0.0560 C   0  0  0  0  0  0  0  0  0  0  0  0
   -5.9398    1.4420    0.0058 C   0  0  0  0  0  0  0  0  0  0  0  0
   -3.7819    2.5280    0.0486 C   0  0  0  0  0  0  0  0  0  0  0  0
    5.9325    1.4509    0.0041 C   0  0  0  0  0  0  0  0  0  0  0  0
    3.7709    2.5293    0.0501 C   0  0  0  0  0  0  0  0  0  0  0  0
   -6.5672    2.6868    0.0545 C   0  0  0  0  0  0  0  0  0  0  0  0
   -4.4095    3.7728    0.0974 C   0  0  0  0  0  0  0  0  0  0  0  0
    6.5556    2.6978    0.0533 C   0  0  0  0  0  0  0  0  0  0  0  0
    4.3942    3.7763    0.0990 C   0  0  0  0  0  0  0  0  0  0  0  0
   -5.8021    3.8521    0.1004 C   0  0  0  0  0  0  0  0  0  0  0  0
    5.7866    3.8604    0.1006 C   0  0  0  0  0  0  0  0  0  0  0  0
  1 17  2  0
  2 18  2  0
  3 11  2  0
  3 12  1  0
  4 11  1  0
  4 13  2  0
  5 12  1  0
  5 17  1  0
  6 13  1  0
  6 18  1  0
  7 12  2  0
  7 13  1  0
  8 15  1  0
  8 17  1  0
  9 16  1  0
  9 18  1  0
 10 11  1  0
 10 14  1  0
 15 19  2  0
 15 20  1  0
 16 21  2  0
 16 22  1  0
 19 23  1  0
 20 24  2  0
 21 25  1  0
 22 26  2  0
 23 27  2  0
 24 27  1  0
 25 28  2  0
 26 28  1  0
M  END
>  <PUBCHEM_COMPOUND_CID>  (1) 
35495

>  <PUBCHEM_CONFORMER_RMSD>  (1) 
1

>  <PUBCHEM_CONFORMER_DIVERSEORDER>  (1) 
1
20
3
19
13
23
2
14
11
7
15
5
24
12
22
6
16
4
21
9
17
10
18
8

>  <PUBCHEM_MMFF94_PARTIAL_CHARGES>  (1) 
41
1 -0.57
10 0.14
11 0.48
12 0.74
13 0.74
15 0.12
16 0.12
17 0.69
18 0.69
19 -0.15
2 -0.57
20 -0.15
21 -0.15
22 -0.15
23 -0.15
24 -0.15
25 -0.15
26 -0.15
27 -0.15
28 -0.15
3 -0.62
34 0.37
35 0.37
36 0.37
37 0.37
38 0.15
39 0.15
4 -0.62
40 0.15
41 0.15
42 0.15
43 0.15
44 0.15
45 0.15
46 0.15
47 0.15
5 -0.55
6 -0.55
7 -0.62
8 -0.55
9 -0.55

>  <PUBCHEM_EFFECTIVE_ROTOR_COUNT>  (1) 
9

>  <PUBCHEM_PHARMACOPHORE_FEATURES>  (1) 
11
1 1 acceptor
1 14 hydrophobe
1 2 acceptor
1 5 donor
1 6 donor
1 8 donor
1 9 donor
3 3 4 11 cation
6 15 19 20 23 24 27 rings
6 16 21 22 25 26 28 rings
6 3 4 7 11 12 13 rings

>  <PUBCHEM_HEAVY_ATOM_COUNT>  (1) 
28

>  <PUBCHEM_ATOM_DEF_STEREO_COUNT>  (1) 
0

>  <PUBCHEM_ATOM_UDEF_STEREO_COUNT>  (1) 
0

>  <PUBCHEM_BOND_DEF_STEREO_COUNT>  (1) 
0

>  <PUBCHEM_BOND_UDEF_STEREO_COUNT>  (1) 
0

>  <PUBCHEM_ISOTOPIC_ATOM_COUNT>  (1) 
0

>  <PUBCHEM_COMPONENT_COUNT>  (1) 
1

>  <PUBCHEM_CACTVS_TAUTO_COUNT>  (1) 
58

>  <PUBCHEM_CONFORMER_ID>  (1) 
00008AA700000001

>  <PUBCHEM_MMFF94_ENERGY>  (1) 
77.5825

>  <PUBCHEM_FEATURE_SELFOVERLAP>  (1) 
55.92

>  <PUBCHEM_SHAPE_FINGERPRINT>  (1) 
10050765 1 18411419509594133455
10411042 1 17185877190835133575
10675989 125 18197503926220504224
10937287 8 18411136939473887719
11059845 2 18123438770822989688
11386260 185 17548123438841908581
12107183 9 18335969918980767402
12293681 160 17918277549588450008
12788726 201 18052802930349358551
13248334 5 18122342367786774794
138480 1 17762619486417376454
13955234 65 18120661227909408443
14223995 32 18270952549224873216
14251764 75 18342184328014187481
14790565 3 18411136935104872460
14849402 71 18122345674895333315
14932702 115 17985558990023766104
15064981 194 17900265500431256036
15142526 21 18261394395632852531
15198563 99 17837770393601978279
15320467 1 18411419505315315104
15400415 2 18410855464429709561
15419008 42 17988097677120613052
15439362 3 18413109442698240006
15513586 35 16664878472121434292
15890870 6 18411419513894394877
16087824 20 18051130587093333799
16990350 14 18266741268860135624
16992779 147 18053121531497811961
16993438 75 18191311670100850443
17980427 26 18267572533741357159
19053607 189 18267852913823387881
19319366 153 18271518698279628333
19427546 62 18410576162705183958
20238998 120 17401766822866318167
21033648 144 18041270003077972205
21033650 10 17827941829760453764
21133410 127 18042406824586574140
23559900 14 17833548991054144267
23845131 108 18334859411593693611
245318 6 18042141962595741317
3418910 222 16968021619381512096
3627633 1 17690280838331093182
4058900 60 18340775857533795425
4144715 1 18193280922055986218
5219985 13 18412262843617610605
550186 72 17402331971932074756
563151 97 18410564103186350471
6371380 46 18339371769102161510
6697151 62 17251720384276432847
6700243 42 17189297153296534142
7288768 16 18114180856461249043
77188 2 17401767419529032246
7808743 9 18339076107188945808
9849439 229 18409171016957221413
9981440 41 18335709364219906787

>  <PUBCHEM_SHAPE_MULTIPOLES>  (1) 
529.62
15.56
9.11
0.65
0.19
14.33
0.06
-31.44
0.47
-0.06
1.2
0
0.3
0

>  <PUBCHEM_SHAPE_SELFOVERLAP>  (1) 
1132.261

>  <PUBCHEM_SHAPE_VOLUME>  (1) 
286.3

>  <PUBCHEM_COORDINATE_TYPE>  (1) 
2
5
10

$$$$
