35496
     RDKit          3D

 32 35  0  0  0  0  0  0  0  0999 V2000
    3.9321    0.4665    0.0139 O   0  0  0  0  0  0  0  0  0  0  0  0
   -3.9319    0.4664   -0.0141 O   0  0  0  0  0  0  0  0  0  0  0  0
    1.1998    0.7945    0.0032 N   0  0  0  0  0  0  0  0  0  0  0  0
   -1.1998    0.7945   -0.0041 N   0  0  0  0  0  0  0  0  0  0  0  0
    2.3375   -1.2477    0.0067 N   0  0  0  0  0  0  0  0  0  0  0  0
   -2.3371   -1.2476   -0.0074 N   0  0  0  0  0  0  0  0  0  0  0  0
    4.5769   -1.7814    0.0144 N   0  0  0  0  0  0  0  0  0  0  0  0
   -4.5767   -1.7815   -0.0145 N   0  0  0  0  0  0  0  0  0  0  0  0
    0.0000   -1.2835   -0.0003 N   0  0  0  0  0  0  0  0  0  0  0  0
   -0.0002    2.8368    0.0001 C   0  0  0  0  0  0  0  0  0  0  0  0
    0.0000    1.3898   -0.0006 C   0  0  0  0  0  0  0  0  0  0  0  0
    1.1222   -0.5460    0.0029 C   0  0  0  0  0  0  0  0  0  0  0  0
   -1.1220   -0.5461   -0.0039 C   0  0  0  0  0  0  0  0  0  0  0  0
   -1.0487    3.5341    0.6003 C   0  0  0  0  0  0  0  0  0  0  0  0
    1.0480    3.5345   -0.6001 C   0  0  0  0  0  0  0  0  0  0  0  0
    5.9893   -1.6983    0.0195 C   0  0  0  0  0  0  0  0  0  0  0  0
   -5.9891   -1.6984   -0.0194 C   0  0  0  0  0  0  0  0  0  0  0  0
   -1.0487    4.9289    0.6004 C   0  0  0  0  0  0  0  0  0  0  0  0
    1.0480    4.9293   -0.6000 C   0  0  0  0  0  0  0  0  0  0  0  0
   -0.0004    5.6265    0.0003 C   0  0  0  0  0  0  0  0  0  0  0  0
    3.6492   -0.7273    0.0118 C   0  0  0  0  0  0  0  0  0  0  0  0
   -3.6491   -0.7275   -0.0122 C   0  0  0  0  0  0  0  0  0  0  0  0
    6.5952   -0.4527    0.0221 C   0  0  0  0  0  0  0  0  0  0  0  0
    6.7367   -2.8646    0.0213 C   0  0  0  0  0  0  0  0  0  0  0  0
   -6.7365   -2.8648   -0.0210 C   0  0  0  0  0  0  0  0  0  0  0  0
   -6.5951   -0.4529   -0.0216 C   0  0  0  0  0  0  0  0  0  0  0  0
    7.9877   -0.3712    0.0267 C   0  0  0  0  0  0  0  0  0  0  0  0
    8.1292   -2.7829    0.0260 C   0  0  0  0  0  0  0  0  0  0  0  0
   -8.1290   -2.7832   -0.0253 C   0  0  0  0  0  0  0  0  0  0  0  0
   -7.9877   -0.3714   -0.0259 C   0  0  0  0  0  0  0  0  0  0  0  0
    8.7546   -1.5363    0.0286 C   0  0  0  0  0  0  0  0  0  0  0  0
   -8.7545   -1.5366   -0.0277 C   0  0  0  0  0  0  0  0  0  0  0  0
  1 21  2  0
  2 22  2  0
  3 11  2  0
  3 12  1  0
  4 11  1  0
  4 13  2  0
  5 12  1  0
  5 21  1  0
  6 13  1  0
  6 22  1  0
  7 16  1  0
  7 21  1  0
  8 17  1  0
  8 22  1  0
  9 12  2  0
  9 13  1  0
 10 11  1  0
 10 14  2  0
 10 15  1  0
 14 18  1  0
 15 19  2  0
 16 23  2  0
 16 24  1  0
 17 25  2  0
 17 26  1  0
 18 20  2  0
 19 20  1  0
 23 27  1  0
 24 28  2  0
 25 29  1  0
 26 30  2  0
 27 31  2  0
 28 31  1  0
 29 32  2  0
 30 32  1  0
M  END
>  <PUBCHEM_COMPOUND_CID>  (1) 
35496

>  <PUBCHEM_CONFORMER_RMSD>  (1) 
1

>  <PUBCHEM_CONFORMER_DIVERSEORDER>  (1) 
1
16
20
21
8
23
17
22
19
18
2
24
11
9
5
15
7
3
4
10
12
6
14
13

>  <PUBCHEM_MMFF94_PARTIAL_CHARGES>  (1) 
50
1 -0.57
11 0.62
12 0.74
13 0.74
14 -0.15
15 -0.15
16 0.12
17 0.12
18 -0.15
19 -0.15
2 -0.57
20 -0.15
21 0.69
22 0.69
23 -0.15
24 -0.15
25 -0.15
26 -0.15
27 -0.15
28 -0.15
29 -0.15
3 -0.62
30 -0.15
31 -0.15
32 -0.15
33 0.15
34 0.15
35 0.37
36 0.37
37 0.15
38 0.15
39 0.37
4 -0.62
40 0.37
41 0.15
42 0.15
43 0.15
44 0.15
45 0.15
46 0.15
47 0.15
48 0.15
49 0.15
5 -0.55
50 0.15
51 0.15
6 -0.55
7 -0.55
8 -0.55
9 -0.62

>  <PUBCHEM_EFFECTIVE_ROTOR_COUNT>  (1) 
9

>  <PUBCHEM_PHARMACOPHORE_FEATURES>  (1) 
11
1 1 acceptor
1 2 acceptor
1 5 donor
1 6 donor
1 7 donor
1 8 donor
3 3 4 11 cation
6 10 14 15 18 19 20 rings
6 16 23 24 27 28 31 rings
6 17 25 26 29 30 32 rings
6 3 4 9 11 12 13 rings

>  <PUBCHEM_HEAVY_ATOM_COUNT>  (1) 
32

>  <PUBCHEM_ATOM_DEF_STEREO_COUNT>  (1) 
0

>  <PUBCHEM_ATOM_UDEF_STEREO_COUNT>  (1) 
0

>  <PUBCHEM_BOND_DEF_STEREO_COUNT>  (1) 
0

>  <PUBCHEM_BOND_UDEF_STEREO_COUNT>  (1) 
0

>  <PUBCHEM_ISOTOPIC_ATOM_COUNT>  (1) 
0

>  <PUBCHEM_COMPONENT_COUNT>  (1) 
1

>  <PUBCHEM_CACTVS_TAUTO_COUNT>  (1) 
28

>  <PUBCHEM_CONFORMER_ID>  (1) 
00008AA800000001

>  <PUBCHEM_MMFF94_ENERGY>  (1) 
98.9722

>  <PUBCHEM_FEATURE_SELFOVERLAP>  (1) 
55.923

>  <PUBCHEM_SHAPE_FINGERPRINT>  (1) 
10 15 11600007648122186879
10050765 1 17977948213749333751
10100884 174 18261392231123108882
10411042 1 18410575084668756421
11062273 19 18192723447099483157
11297750 10 18271794714722567760
11331351 85 18059852878889582253
11672396 167 18269550702386417687
12166972 35 18272652394163673113
12539745 222 17846220991017513418
12758862 11 17022626406977798546
12758862 56 18335696182902725659
13248334 5 18122062280169117652
13617811 41 18340218435957807942
14040222 275 18266200416750199182
14068700 675 18333735693619518700
14068700 686 18127412255237449726
14150022 121 17846219895389506824
14394314 77 18337676304638567227
14937079 2 18338799042959025093
15021287 119 18272086141565290167
15131766 46 16054317389432712128
15198563 99 18337953372684018076
15439362 3 18048878799103623453
15773216 30 18118690048311015468
15979999 66 18408323319600146341
15980000 95 18410860962082449829
16087824 20 18266740174382005261
16090146 7 17096387067956771146
16991971 28 18410576205766081427
16992752 21 18410864231211029428
17686467 74 18343293757116705720
18608769 82 18268430140437452568
18681886 176 18340481253412110899
19301679 30 18339359639904046742
20238998 120 18413106164768138345
20771845 65 18272652389336358641
21049683 271 18187366570640653597
21267235 1 18410856563935179110
21304303 172 18340773645889615713
21792961 116 18260821558232406999
21927370 108 18338809939612652961
22224240 67 9727635007662458891
23559900 14 18266735960881295067
23729398 52 18191875736556929364
283562 15 18189898621634336850
3103668 31 18261951822269413525
3627633 1 18337954476274620453
5219985 9 18410855460128161794
58083652 198 18335428992812576889
5969126 39 18341325600747500996
6057620 51 18260834779043609282
6698420 124 17122834527377851280
9962374 69 18269550710664868911

>  <PUBCHEM_SHAPE_MULTIPOLES>  (1) 
611.94
26.16
6.3
0.64
0.01
13.2
0
-38.92
0.01
0
0
0
0.22
-0.48

>  <PUBCHEM_SHAPE_SELFOVERLAP>  (1) 
1337.388

>  <PUBCHEM_SHAPE_VOLUME>  (1) 
323.6

>  <PUBCHEM_COORDINATE_TYPE>  (1) 
2
5
10

$$$$
