35504
     RDKit          3D

 27 30  0  0  0  0  0  0  0  0999 V2000
   -6.2218    3.9787    0.1366 Cl  0  0  0  0  0  0  0  0  0  0  0  0
    6.5899    3.3364   -0.1326 Cl  0  0  0  0  0  0  0  0  0  0  0  0
   -0.3730   -7.3620    0.0041 Cl  0  0  0  0  0  0  0  0  0  0  0  0
   -1.2052    0.7768    0.0577 N   0  0  0  0  0  0  0  0  0  0  0  0
    1.2779    0.6524   -0.0608 N   0  0  0  0  0  0  0  0  0  0  0  0
   -0.0709   -1.4163   -0.0022 N   0  0  0  0  0  0  0  0  0  0  0  0
    0.0753    1.4906    0.0015 C   0  0  0  0  0  0  0  0  0  0  0  0
   -1.2440   -0.6237   -0.3669 C   0  0  0  0  0  0  0  0  0  0  0  0
    1.1770   -0.7462    0.3596 C   0  0  0  0  0  0  0  0  0  0  0  0
   -2.3906    1.5335    0.0760 C   0  0  0  0  0  0  0  0  0  0  0  0
    2.5331    1.2869   -0.0776 C   0  0  0  0  0  0  0  0  0  0  0  0
   -0.1417   -2.8143   -0.0010 C   0  0  0  0  0  0  0  0  0  0  0  0
   -2.4271    2.8232    0.6510 C   0  0  0  0  0  0  0  0  0  0  0  0
    2.6977    2.5696   -0.6457 C   0  0  0  0  0  0  0  0  0  0  0  0
   -1.0062   -3.5126   -0.8798 C   0  0  0  0  0  0  0  0  0  0  0  0
   -3.5884    1.0318   -0.4799 C   0  0  0  0  0  0  0  0  0  0  0  0
    3.6755    0.6647    0.4733 C   0  0  0  0  0  0  0  0  0  0  0  0
    0.6479   -3.5949    0.8792 C   0  0  0  0  0  0  0  0  0  0  0  0
   -3.6028    3.5737    0.6694 C   0  0  0  0  0  0  0  0  0  0  0  0
    3.9427    3.1987   -0.6623 C   0  0  0  0  0  0  0  0  0  0  0  0
   -1.0769   -4.9057   -0.8784 C   0  0  0  0  0  0  0  0  0  0  0  0
   -4.7640    1.7823   -0.4616 C   0  0  0  0  0  0  0  0  0  0  0  0
    4.9203    1.2938    0.4567 C   0  0  0  0  0  0  0  0  0  0  0  0
    0.5773   -4.9880    0.8804 C   0  0  0  0  0  0  0  0  0  0  0  0
   -4.7712    3.0533    0.1130 C   0  0  0  0  0  0  0  0  0  0  0  0
    5.0539    2.5608   -0.1111 C   0  0  0  0  0  0  0  0  0  0  0  0
   -0.2850   -5.6434    0.0017 C   0  0  0  0  0  0  0  0  0  0  0  0
  1 25  1  0
  2 26  1  0
  3 27  1  0
  4  7  1  0
  4  8  1  0
  4 10  1  0
  5  7  1  0
  5  9  1  0
  5 11  1  0
  6  8  1  0
  6  9  1  0
  6 12  1  0
 10 13  2  0
 10 16  1  0
 11 14  2  0
 11 17  1  0
 12 15  2  0
 12 18  1  0
 13 19  1  0
 14 20  1  0
 15 21  1  0
 16 22  2  0
 17 23  2  0
 18 24  2  0
 19 25  2  0
 20 26  2  0
 21 27  2  0
 22 25  1  0
 23 26  1  0
 24 27  1  0
M  END
>  <PUBCHEM_COMPOUND_CID>  (1) 
35504

>  <PUBCHEM_CONFORMER_RMSD>  (1) 
0.8

>  <PUBCHEM_CONFORMER_DIVERSEORDER>  (1) 
1
7
6
2
8
5
4
3

>  <PUBCHEM_MMFF94_PARTIAL_CHARGES>  (1) 
39
1 -0.18
10 0.1
11 0.1
12 0.1
13 -0.15
14 -0.15
15 -0.15
16 -0.15
17 -0.15
18 -0.15
19 -0.15
2 -0.18
20 -0.15
21 -0.15
22 -0.15
23 -0.15
24 -0.15
25 0.18
26 0.18
27 0.18
3 -0.18
34 0.15
35 0.15
36 0.15
37 0.15
38 0.15
39 0.15
4 -0.84
40 0.15
41 0.15
42 0.15
43 0.15
44 0.15
45 0.15
5 -0.84
6 -0.84
7 0.74
8 0.74
9 0.74

>  <PUBCHEM_EFFECTIVE_ROTOR_COUNT>  (1) 
4.2

>  <PUBCHEM_PHARMACOPHORE_FEATURES>  (1) 
7
1 4 cation
1 5 cation
1 6 cation
6 10 13 16 19 22 25 rings
6 11 14 17 20 23 26 rings
6 12 15 18 21 24 27 rings
6 4 5 6 7 8 9 rings

>  <PUBCHEM_HEAVY_ATOM_COUNT>  (1) 
27

>  <PUBCHEM_ATOM_DEF_STEREO_COUNT>  (1) 
0

>  <PUBCHEM_ATOM_UDEF_STEREO_COUNT>  (1) 
0

>  <PUBCHEM_BOND_DEF_STEREO_COUNT>  (1) 
0

>  <PUBCHEM_BOND_UDEF_STEREO_COUNT>  (1) 
0

>  <PUBCHEM_ISOTOPIC_ATOM_COUNT>  (1) 
0

>  <PUBCHEM_COMPONENT_COUNT>  (1) 
1

>  <PUBCHEM_CACTVS_TAUTO_COUNT>  (1) 
1

>  <PUBCHEM_CONFORMER_ID>  (1) 
00008AB000000001

>  <PUBCHEM_MMFF94_ENERGY>  (1) 
113.3767

>  <PUBCHEM_FEATURE_SELFOVERLAP>  (1) 
35.589

>  <PUBCHEM_SHAPE_FINGERPRINT>  (1) 
10411042 1 17257935317527536326
10937287 8 18411134727502257796
11056379 131 18122353642760936788
11763715 3 17326352411317256140
12107183 9 18335126580661647440
12516196 113 17113536477148207246
12788726 201 18048022262528948730
13248334 5 18050286959859930347
13590594 115 17471862875517771011
13785724 45 17259906213542004585
138480 1 17690279305000517639
13955234 65 18122352268144678809
14790565 3 18410571773248568451
15347591 1 18050286965569856369
15400415 2 18410572872824597576
15664445 248 17695636151748518014
15878777 1 7882071110619292704
15927050 60 18411419527433112806
16087824 20 18122907792749115079
17980427 26 18268420239946706469
19319366 153 18271520888976862125
19427546 20 18048037669025155716
20101258 96 17616823570411723520
20238998 120 17186157011989907057
21033648 144 18040429967372899197
21033648 29 18341607152886937256
21049683 271 17758976821785258406
21120745 212 17615985733940974324
21133410 32 14857219839715311186
21307412 95 18128563517474022510
21796203 349 17117236922122779971
23366157 5 18049448037199882853
23559900 14 17689150116040679281
23929065 36 17908969252158175584
24771750 20 18117577140542125430
249999 5 18195248806724016785
255183 313 18124055660822125731
283562 15 18341048623055041277
3091708 16 9121475350833155792
3534868 343 17252311307304198796
3627633 1 17762339514742113740
38695281 34 18409445860525766096
4409770 3 18192428804211816031
5385378 56 18195249906098949337
563151 97 18411127018812013301
59755656 520 18410289237937838252
6058803 2 17970905803345446212
6376802 90 18269005340033156724
6673363 416 17188146591889620030
6677587 24 16309288461397031637
6679774 75 18043523920364140034
6695519 79 18270141070867108465
6697151 62 17180510496597607941
6700243 42 17333694885801771316
77188 2 17041763660209465271
79837 15 18339361967216236064
9981440 41 18408887334810757361
9982175 49 18051666902919856935

>  <PUBCHEM_SHAPE_MULTIPOLES>  (1) 
546.31
10.91
10.85
0.84
3.93
25.64
0
-25.97
0.14
-3.9
-0.16
-0.02
0.26
-1.48

>  <PUBCHEM_SHAPE_SELFOVERLAP>  (1) 
1153.179

>  <PUBCHEM_SHAPE_VOLUME>  (1) 
306.2

>  <PUBCHEM_COORDINATE_TYPE>  (1) 
2
5
10

$$$$
