35511
     RDKit          3D

 18 19  0  0  1  0  0  0  0  0999 V2000
    5.6070    0.1998    0.3911 Cl  0  0  0  0  0  0  0  0  0  0  0  0
   -0.3051   -0.1887   -0.1632 N   0  0  0  0  0  0  0  0  0  0  0  0
   -2.3358    0.2837    1.1738 N   0  0  0  0  0  0  0  0  0  0  0  0
   -2.2160   -1.5869   -0.2735 N   0  0  0  0  0  0  0  0  0  0  0  0
   -0.4244   -1.9650   -1.7111 N   0  0  0  0  0  0  0  0  0  0  0  0
   -3.9134   -1.3979    1.3461 N   0  0  0  0  0  0  0  0  0  0  0  0
   -1.1378    0.8217    0.5042 C   0  0  0  0  0  0  0  0  0  0  0  0
   -1.6263    1.8569   -0.5160 C   0  0  0  0  0  0  0  0  0  0  0  0
   -2.4551    1.1826   -1.6054 C   0  0  0  0  0  0  0  0  0  0  0  0
   -2.4340    2.9501    0.1776 C   0  0  0  0  0  0  0  0  0  0  0  0
    1.1019   -0.0964   -0.0316 C   0  0  0  0  0  0  0  0  0  0  0  0
   -1.0106   -1.2699   -0.6799 C   0  0  0  0  0  0  0  0  0  0  0  0
   -2.7932   -0.8624    0.7567 C   0  0  0  0  0  0  0  0  0  0  0  0
    1.8837   -1.2470    0.1779 C   0  0  0  0  0  0  0  0  0  0  0  0
    1.7531    1.1485   -0.1069 C   0  0  0  0  0  0  0  0  0  0  0  0
    3.2696   -1.1559    0.3076 C   0  0  0  0  0  0  0  0  0  0  0  0
    3.1389    1.2395    0.0227 C   0  0  0  0  0  0  0  0  0  0  0  0
    3.8973    0.0874    0.2300 C   0  0  0  0  0  0  0  0  0  0  0  0
  1 18  1  0
  2  7  1  0
  2 11  1  0
  2 12  1  0
  3  7  1  0
  3 13  2  0
  4 12  2  0
  4 13  1  0
  5 12  1  0
  6 13  1  0
  7  8  1  0
  8  9  1  0
  8 10  1  0
 11 14  2  0
 11 15  1  0
 14 16  1  0
 15 17  2  0
 16 18  2  0
 17 18  1  0
M  END
>  <PUBCHEM_COMPOUND_CID>  (1) 
35511

>  <PUBCHEM_CONFORMER_RMSD>  (1) 
0.6

>  <PUBCHEM_CONFORMER_DIVERSEORDER>  (1) 
4
3
1
2
7
5
6

>  <PUBCHEM_MMFF94_PARTIAL_CHARGES>  (1) 
23
1 -0.18
11 0.1
12 0.55
13 0.71
14 -0.15
15 -0.15
16 -0.15
17 -0.15
18 0.18
2 -0.52
27 0.15
28 0.15
29 0.4
3 -0.7
30 0.4
31 0.15
32 0.15
33 0.4
34 0.4
4 -0.66
5 -0.85
6 -0.85
7 0.62

>  <PUBCHEM_EFFECTIVE_ROTOR_COUNT>  (1) 
2.4

>  <PUBCHEM_PHARMACOPHORE_FEATURES>  (1) 
7
1 5 donor
1 6 donor
3 8 9 10 hydrophobe
4 2 4 5 12 cation
4 3 4 6 13 cation
6 11 14 15 16 17 18 rings
6 2 3 4 7 12 13 rings

>  <PUBCHEM_HEAVY_ATOM_COUNT>  (1) 
18

>  <PUBCHEM_ATOM_DEF_STEREO_COUNT>  (1) 
0

>  <PUBCHEM_ATOM_UDEF_STEREO_COUNT>  (1) 
1

>  <PUBCHEM_BOND_DEF_STEREO_COUNT>  (1) 
0

>  <PUBCHEM_BOND_UDEF_STEREO_COUNT>  (1) 
0

>  <PUBCHEM_ISOTOPIC_ATOM_COUNT>  (1) 
0

>  <PUBCHEM_COMPONENT_COUNT>  (1) 
1

>  <PUBCHEM_CACTVS_TAUTO_COUNT>  (1) 
5

>  <PUBCHEM_CONFORMER_ID>  (1) 
00008AB700000004

>  <PUBCHEM_MMFF94_ENERGY>  (1) 
70.8754

>  <PUBCHEM_FEATURE_SELFOVERLAP>  (1) 
35.558

>  <PUBCHEM_SHAPE_FINGERPRINT>  (1) 
10366900 7 18114754831706593106
11132069 177 18131360738387979179
12077114 3 18337948991769422060
12251169 10 18272097131399994346
12403814 3 18340206383661960947
12507560 40 18339082588500187138
12932764 1 18272645783892330496
13024252 1 17167576094736267359
13140716 1 17975698604052023466
13214271 11 18113612370474324588
13296908 3 18335703789410482322
13296909 8 17458627787380526173
13675066 3 18411978058075520626
15309172 13 18060424620319279191
15375462 478 18261117404126946063
16945 1 18410859896850529671
17844478 74 18334581273441853955
18186145 218 17775001323919376248
200 152 18342727542365439079
20510252 161 18342461417390912929
21339142 126 18340484560077479263
21524375 3 18050557457291083925
22182313 1 18129112138498873374
2306618 200 18202280303605195937
23402539 116 18260263096466847779
23419403 2 15694293267420927647
23557571 272 18335990808614985277
26918003 58 17822010964396444443
2748010 2 18127982914081563134
312423 11 17822585979292788628
3286 77 17240766228758454396
34934 24 18115860811703004416
350125 39 18409172146861096248
45790113 50 17895482539008995916
474 4 17765428751917700793
5104073 3 18335694997913056712
81228 2 17484215802308030318
90525 40 18271802406712906798

>  <PUBCHEM_SHAPE_MULTIPOLES>  (1) 
347.4
7.82
2.29
1.14
9.16
0.8
-0.24
0.35
1.91
-2.1
-0.23
-1.05
-0.26
0.46

>  <PUBCHEM_SHAPE_SELFOVERLAP>  (1) 
724.509

>  <PUBCHEM_SHAPE_VOLUME>  (1) 
196.1

>  <PUBCHEM_COORDINATE_TYPE>  (1) 
2
5
10

$$$$
