35522
     RDKit          3D

 13 13  0  0  1  0  0  0  0  0999 V2000
   -0.5568   -3.1431   -0.2965 O   0  0  0  0  0  0  0  0  0  0  0  0
    0.3199    0.6708    0.7160 N   0  0  0  0  0  0  0  0  0  0  0  0
    0.7743   -1.2936   -0.5771 N   0  0  0  0  0  0  0  0  0  0  0  0
   -1.2358   -1.1444    0.6063 N   0  0  0  0  0  0  0  0  0  0  0  0
    0.9866    0.1444   -0.4779 C   0  0  0  0  0  0  0  0  0  0  0  0
   -1.0967    0.2977    0.7431 C   0  0  0  0  0  0  0  0  0  0  0  0
    2.4778    0.4577   -0.4069 C   0  0  0  0  0  0  0  0  0  0  0  0
   -1.9316    1.0371   -0.2997 C   0  0  0  0  0  0  0  0  0  0  0  0
   -0.3598   -1.9410   -0.1130 C   0  0  0  0  0  0  0  0  0  0  0  0
    2.7076    1.9666   -0.3649 C   0  0  0  0  0  0  0  0  0  0  0  0
    3.1106   -0.2162    0.8085 C   0  0  0  0  0  0  0  0  0  0  0  0
   -3.3976    0.6153   -0.2142 C   0  0  0  0  0  0  0  0  0  0  0  0
   -1.7985    2.5489   -0.1237 C   0  0  0  0  0  0  0  0  0  0  0  0
  1  9  2  0
  2  5  1  0
  2  6  1  0
  3  5  1  0
  3  9  1  0
  4  6  1  0
  4  9  1  0
  5  7  1  0
  6  8  1  0
  7 10  1  0
  7 11  1  0
  8 12  1  0
  8 13  1  0
M  END
>  <PUBCHEM_COMPOUND_CID>  (1) 
35522

>  <PUBCHEM_CONFORMER_RMSD>  (1) 
0.6

>  <PUBCHEM_CONFORMER_DIVERSEORDER>  (1) 
1
3
5
4
2

>  <PUBCHEM_MMFF94_PARTIAL_CHARGES>  (1) 
10
1 -0.57
18 0.36
19 0.37
2 -0.9
20 0.37
3 -0.73
4 -0.73
5 0.57
6 0.57
9 0.69

>  <PUBCHEM_EFFECTIVE_ROTOR_COUNT>  (1) 
3

>  <PUBCHEM_PHARMACOPHORE_FEATURES>  (1) 
8
1 1 acceptor
1 2 cation
1 2 donor
1 3 donor
1 4 donor
3 7 10 11 hydrophobe
3 8 12 13 hydrophobe
6 2 3 4 5 6 9 rings

>  <PUBCHEM_HEAVY_ATOM_COUNT>  (1) 
13

>  <PUBCHEM_ATOM_DEF_STEREO_COUNT>  (1) 
0

>  <PUBCHEM_ATOM_UDEF_STEREO_COUNT>  (1) 
2

>  <PUBCHEM_BOND_DEF_STEREO_COUNT>  (1) 
0

>  <PUBCHEM_BOND_UDEF_STEREO_COUNT>  (1) 
0

>  <PUBCHEM_ISOTOPIC_ATOM_COUNT>  (1) 
0

>  <PUBCHEM_COMPONENT_COUNT>  (1) 
1

>  <PUBCHEM_CACTVS_TAUTO_COUNT>  (1) 
2

>  <PUBCHEM_CONFORMER_ID>  (1) 
00008AC200000001

>  <PUBCHEM_MMFF94_ENERGY>  (1) 
20.4739

>  <PUBCHEM_FEATURE_SELFOVERLAP>  (1) 
40.703

>  <PUBCHEM_SHAPE_FINGERPRINT>  (1) 
1 1 18266740173310405735
12138202 97 18339081596003993950
12932764 1 18191882316931285448
13380535 76 18335701581570399963
13538477 17 18262231244045183248
14648413 74 17760652460600529905
15490181 8 18265624194825353169
15775835 57 18260554454326901732
16945 1 18409738326275957074
18186145 218 18200318705957254189
193761 8 17474672127604951085
20871998 184 18265910231199932323
21028194 46 18260267399987220021
21524375 3 18261390005632878641
23402539 116 18340190951860524629
23419403 2 14042323290168249998
23526114 1 17907299845044842758
23552423 10 17980762641087314365
23557571 272 17910972544974105964
23559900 14 18202288026948209580
23598294 1 18191589859338051386
241688 4 16609140409182302954
2748010 2 18339662052191612895
305870 269 18121212082743865256
5084963 1 18059297560897717700
6333449 129 18338519771369115549
7364860 26 17836923400164604263
81228 2 18053384584826799059

>  <PUBCHEM_SHAPE_MULTIPOLES>  (1) 
246.72
4.42
2.71
0.83
0.55
1.18
-0.07
-2.36
-0.03
-0.61
0.42
0.17
0
-0.09

>  <PUBCHEM_SHAPE_SELFOVERLAP>  (1) 
482.238

>  <PUBCHEM_SHAPE_VOLUME>  (1) 
147.6

>  <PUBCHEM_COORDINATE_TYPE>  (1) 
2
5
10

$$$$
