35525
     RDKit          3D

 12 12  0  0  0  0  0  0  0  0999 V2000
    0.0000   -2.0343    0.0000 O   0  0  0  0  0  0  0  0  0  0  0  0
    1.1316    0.0372   -0.0083 N   0  0  0  0  0  0  0  0  0  0  0  0
   -1.1316    0.0372    0.0083 N   0  0  0  0  0  0  0  0  0  0  0  0
    0.7606    1.4336   -0.0317 C   0  0  0  0  0  0  0  0  0  0  0  0
   -0.7607    1.4337    0.0316 C   0  0  0  0  0  0  0  0  0  0  0  0
    0.0001   -0.8086    0.0000 C   0  0  0  0  0  0  0  0  0  0  0  0
    2.4183   -0.4100    0.0041 C   0  0  0  0  0  0  0  0  0  0  0  0
   -2.4183   -0.4100   -0.0041 C   0  0  0  0  0  0  0  0  0  0  0  0
    3.4717    0.4149   -0.0045 C   0  0  0  0  0  0  0  0  0  0  0  0
   -3.4717    0.4149    0.0045 C   0  0  0  0  0  0  0  0  0  0  0  0
    4.8889   -0.0543    0.0081 C   0  0  0  0  0  0  0  0  0  0  0  0
   -4.8889   -0.0543   -0.0080 C   0  0  0  0  0  0  0  0  0  0  0  0
  1  6  2  0
  2  4  1  0
  2  6  1  0
  2  7  1  0
  3  5  1  0
  3  6  1  0
  3  8  1  0
  4  5  1  0
  7  9  2  0
  8 10  2  0
  9 11  1  0
 10 12  1  0
M  END
>  <PUBCHEM_COMPOUND_CID>  (1) 
35525

>  <PUBCHEM_CONFORMER_RMSD>  (1) 
0.6

>  <PUBCHEM_CONFORMER_DIVERSEORDER>  (1) 
1
3
2

>  <PUBCHEM_MMFF94_PARTIAL_CHARGES>  (1) 
16
1 -0.57
10 -0.29
11 0.14
12 0.14
17 0.15
18 0.15
19 0.15
2 -0.47
20 0.15
3 -0.47
4 0.3
5 0.3
6 0.69
7 -0.04
8 -0.04
9 -0.29

>  <PUBCHEM_EFFECTIVE_ROTOR_COUNT>  (1) 
2.8

>  <PUBCHEM_PHARMACOPHORE_FEATURES>  (1) 
4
1 1 acceptor
1 11 hydrophobe
1 12 hydrophobe
5 2 3 4 5 6 rings

>  <PUBCHEM_HEAVY_ATOM_COUNT>  (1) 
12

>  <PUBCHEM_ATOM_DEF_STEREO_COUNT>  (1) 
0

>  <PUBCHEM_ATOM_UDEF_STEREO_COUNT>  (1) 
0

>  <PUBCHEM_BOND_DEF_STEREO_COUNT>  (1) 
0

>  <PUBCHEM_BOND_UDEF_STEREO_COUNT>  (1) 
2

>  <PUBCHEM_ISOTOPIC_ATOM_COUNT>  (1) 
0

>  <PUBCHEM_COMPONENT_COUNT>  (1) 
1

>  <PUBCHEM_CACTVS_TAUTO_COUNT>  (1) 
1

>  <PUBCHEM_CONFORMER_ID>  (1) 
00008AC500000001

>  <PUBCHEM_MMFF94_ENERGY>  (1) 
24.1848

>  <PUBCHEM_FEATURE_SELFOVERLAP>  (1) 
20.297

>  <PUBCHEM_SHAPE_FINGERPRINT>  (1) 
10219947 1 18409451379700821881
11062470 55 18410856563940135557
11401426 45 18413665820586469405
12032990 46 18410580586516269543
13380535 76 18410577287981847427
13690532 89 18408322181348740712
13862211 1 18410568487593747494
14325111 11 18410856525496413472
14911166 2 18410856576856627684
14993402 34 18409450301606079836
17846911 113 18412260636378817304
187816 3 17918277553941224474
20645477 70 18270119002723909870
21293036 1 18409166614589310492
23402539 116 18272362079442569052
23402655 69 18340475665954733069
23559900 14 18343301509685499408
2748010 2 18122626325222018100
366044 4 18410573993905312386
42788 4 18410855460128298220
528886 8 18411414025157454843
53655031 270 18410855434363717392
69090 78 17917706920270426110

>  <PUBCHEM_SHAPE_MULTIPOLES>  (1) 
231.12
8.31
1.34
0.59
0
0.12
0
-0.02
0
0
0
0
-0.02
-0.01

>  <PUBCHEM_SHAPE_SELFOVERLAP>  (1) 
458.157

>  <PUBCHEM_SHAPE_VOLUME>  (1) 
140.1

>  <PUBCHEM_COORDINATE_TYPE>  (1) 
2
5
10

$$$$
