35538
     RDKit          3D

 22 22  0  0  0  0  0  0  0  0999 V2000
    3.7359    0.8838    1.3990 Cl  0  0  0  0  0  0  0  0  0  0  0  0
    2.5212   -1.6668    1.8241 Cl  0  0  0  0  0  0  0  0  0  0  0  0
   -2.0207   -2.0467    1.8859 Cl  0  0  0  0  0  0  0  0  0  0  0  0
   -3.6526    0.2656    1.4969 Cl  0  0  0  0  0  0  0  0  0  0  0  0
    4.7840   -1.5448   -0.5776 Cl  0  0  0  0  0  0  0  0  0  0  0  0
    3.3249    0.5449   -1.9533 Cl  0  0  0  0  0  0  0  0  0  0  0  0
    2.0916   -2.0441   -1.5216 Cl  0  0  0  0  0  0  0  0  0  0  0  0
   -4.3348   -2.3088   -0.4549 Cl  0  0  0  0  0  0  0  0  0  0  0  0
   -1.6229   -2.3574   -1.4708 Cl  0  0  0  0  0  0  0  0  0  0  0  0
   -3.2794   -0.0098   -1.8655 Cl  0  0  0  0  0  0  0  0  0  0  0  0
   -0.2605    3.9215   -0.0916 S   0  0  0  0  0  0  0  0  0  0  0  0
    0.1181   -0.4635    0.6432 N   0  0  0  0  0  0  0  0  0  0  0  0
   -1.2536    1.4778    0.3154 N   0  0  0  0  0  0  0  0  0  0  0  0
    1.1372    1.6789    0.2837 N   0  0  0  0  0  0  0  0  0  0  0  0
    2.5231   -0.2701    0.6098 C   0  0  0  0  0  0  0  0  0  0  0  0
   -2.2862   -0.6733    0.6741 C   0  0  0  0  0  0  0  0  0  0  0  0
    1.1737    0.3553    0.5064 C   0  0  0  0  0  0  0  0  0  0  0  0
   -1.0625    0.1671    0.5360 C   0  0  0  0  0  0  0  0  0  0  0  0
    3.1453   -0.7940   -0.7546 C   0  0  0  0  0  0  0  0  0  0  0  0
   -2.8487   -1.2969   -0.6742 C   0  0  0  0  0  0  0  0  0  0  0  0
   -0.1094    2.1708    0.1997 C   0  0  0  0  0  0  0  0  0  0  0  0
   -1.8238    4.0105   -1.0100 C   0  0  0  0  0  0  0  0  0  0  0  0
  1 15  1  0
  2 15  1  0
  3 16  1  0
  4 16  1  0
  5 19  1  0
  6 19  1  0
  7 19  1  0
  8 20  1  0
  9 20  1  0
 10 20  1  0
 11 21  1  0
 11 22  1  0
 12 17  2  0
 12 18  1  0
 13 18  2  0
 13 21  1  0
 14 17  1  0
 14 21  2  0
 15 17  1  0
 15 19  1  0
 16 18  1  0
 16 20  1  0
M  END
>  <PUBCHEM_COMPOUND_CID>  (1) 
35538

>  <PUBCHEM_CONFORMER_RMSD>  (1) 
0.8

>  <PUBCHEM_CONFORMER_DIVERSEORDER>  (1) 
1
24
11
2
22
18
3
23
7
20
10
13
19
16
21
12
17
6
9
15
8
5
14
4

>  <PUBCHEM_MMFF94_PARTIAL_CHARGES>  (1) 
22
1 -0.29
10 -0.29
11 -0.33
12 -0.62
13 -0.62
14 -0.62
15 0.72
16 0.72
17 0.48
18 0.48
19 0.87
2 -0.29
20 0.87
21 0.72
22 0.23
3 -0.29
4 -0.29
5 -0.29
6 -0.29
7 -0.29
8 -0.29
9 -0.29

>  <PUBCHEM_EFFECTIVE_ROTOR_COUNT>  (1) 
5

>  <PUBCHEM_PHARMACOPHORE_FEATURES>  (1) 
5
1 22 hydrophobe
3 12 13 18 cation
3 12 14 17 cation
3 13 14 21 cation
6 12 13 14 17 18 21 rings

>  <PUBCHEM_HEAVY_ATOM_COUNT>  (1) 
22

>  <PUBCHEM_ATOM_DEF_STEREO_COUNT>  (1) 
0

>  <PUBCHEM_ATOM_UDEF_STEREO_COUNT>  (1) 
0

>  <PUBCHEM_BOND_DEF_STEREO_COUNT>  (1) 
0

>  <PUBCHEM_BOND_UDEF_STEREO_COUNT>  (1) 
0

>  <PUBCHEM_ISOTOPIC_ATOM_COUNT>  (1) 
0

>  <PUBCHEM_COMPONENT_COUNT>  (1) 
1

>  <PUBCHEM_CACTVS_TAUTO_COUNT>  (1) 
1

>  <PUBCHEM_CONFORMER_ID>  (1) 
00008AD200000001

>  <PUBCHEM_MMFF94_ENERGY>  (1) 
48.3762

>  <PUBCHEM_FEATURE_SELFOVERLAP>  (1) 
28.144

>  <PUBCHEM_SHAPE_FINGERPRINT>  (1) 
12156800 1 15467666130601863238
12160290 23 18192994807539280289
12363563 72 18411136965264952914
12553582 1 18334579044332826155
12596599 1 16629981978800048398
12633257 1 17060073492645779962
12707595 3 18190182467127052746
12788726 201 18262519165472711665
13224815 77 18412825815315081994
13681431 1 18194404617690207361
14022347 108 18262818288438152939
16752209 62 18192420879522154600
16945 1 18186521011891772928
17357779 13 18201142296000806325
1813 80 18339646745165254345
18186145 218 17385733529666445762
19141452 34 17988371377394354651
20600515 1 18059862804321327800
20645476 183 17534923882811341352
20645477 70 18052253192126218095
20671657 53 18340200907652498411
20691752 17 18343303677895352470
21285901 2 18272080561853873909
21524375 3 17470440729708832521
2255824 54 17907298002609374065
22907989 373 18336836268664345837
23114952 82 17900818563670843381
23402539 116 18409173182216999606
23419403 2 16241300478095614176
23557571 272 18409721838450805104
23558518 356 18043527205548948762
23559900 14 16773804696750845218
23598288 3 17972035842682182793
23598291 2 18198076952546743665
238 59 17400624417299118495
26353 1 18337112362147235597
2748010 2 18265330805525318377
34934 24 18409445899169721233
352729 6 17688028617636824513
46194498 28 17834359661725398311
6913067 236 17914868011734181776
6992083 37 18130245795285379601
81228 2 18338237063705487129

>  <PUBCHEM_SHAPE_MULTIPOLES>  (1) 
460.35
7.59
3.93
1.94
2.35
4.61
-0.08
-4.48
-0.92
-2.11
-0.93
0.1
-0.77
0.35

>  <PUBCHEM_SHAPE_SELFOVERLAP>  (1) 
828.484

>  <PUBCHEM_SHAPE_VOLUME>  (1) 
298.3

>  <PUBCHEM_COORDINATE_TYPE>  (1) 
2
5
10

$$$$
