35537
     RDKit          3D

 23 24  0  0  0  0  0  0  0  0999 V2000
    3.3065    2.4160    1.7871 Cl  0  0  0  0  0  0  0  0  0  0  0  0
    4.0675    2.2146   -1.0424 Cl  0  0  0  0  0  0  0  0  0  0  0  0
    1.4469   -3.2108    1.0150 Cl  0  0  0  0  0  0  0  0  0  0  0  0
    0.7206   -3.1236   -1.8293 Cl  0  0  0  0  0  0  0  0  0  0  0  0
    4.8333   -1.0163   -0.5390 Cl  0  0  0  0  0  0  0  0  0  0  0  0
   -1.7060   -2.2854    1.7675 Cl  0  0  0  0  0  0  0  0  0  0  0  0
   -1.3666    2.3067   -0.9916 S   0  0  0  0  0  0  0  0  0  0  0  0
    1.8737   -0.5642    0.0900 N   0  0  0  0  0  0  0  0  0  0  0  0
   -0.3983   -0.1422   -0.5566 N   0  0  0  0  0  0  0  0  0  0  0  0
    1.1282    1.6875   -0.2737 N   0  0  0  0  0  0  0  0  0  0  0  0
    3.4157    1.2699    0.3738 C   0  0  0  0  0  0  0  0  0  0  0  0
    0.3440   -2.4093   -0.1951 C   0  0  0  0  0  0  0  0  0  0  0  0
    2.0521    0.7659    0.0430 C   0  0  0  0  0  0  0  0  0  0  0  0
    0.6245   -0.9454   -0.2217 C   0  0  0  0  0  0  0  0  0  0  0  0
    4.4822    0.1880    0.7379 C   0  0  0  0  0  0  0  0  0  0  0  0
   -1.1177   -2.8259    0.1657 C   0  0  0  0  0  0  0  0  0  0  0  0
   -0.0686    1.1568   -0.5605 C   0  0  0  0  0  0  0  0  0  0  0  0
   -2.8099    1.4349   -0.4138 C   0  0  0  0  0  0  0  0  0  0  0  0
   -3.2632    1.6245    0.8916 C   0  0  0  0  0  0  0  0  0  0  0  0
   -3.4866    0.5634   -1.2674 C   0  0  0  0  0  0  0  0  0  0  0  0
   -4.3928    0.9424    1.3439 C   0  0  0  0  0  0  0  0  0  0  0  0
   -4.6163   -0.1185   -0.8151 C   0  0  0  0  0  0  0  0  0  0  0  0
   -5.0692    0.0710    0.4906 C   0  0  0  0  0  0  0  0  0  0  0  0
  1 11  1  0
  2 11  1  0
  3 12  1  0
  4 12  1  0
  5 15  1  0
  6 16  1  0
  7 17  1  0
  7 18  1  0
  8 13  2  0
  8 14  1  0
  9 14  2  0
  9 17  1  0
 10 13  1  0
 10 17  2  0
 11 13  1  0
 11 15  1  0
 12 14  1  0
 12 16  1  0
 18 19  2  0
 18 20  1  0
 19 21  1  0
 20 22  2  0
 21 23  2  0
 22 23  1  0
M  END
>  <PUBCHEM_COMPOUND_CID>  (1) 
35537

>  <PUBCHEM_CONFORMER_RMSD>  (1) 
0.8

>  <PUBCHEM_CONFORMER_DIVERSEORDER>  (1) 
1
336
236
265
168
310
318
179
200
331
93
237
134
64
209
123
226
247
239
196
243
174
185
172
194
233
223
156
178
284
199
206
117
268
71
77
260
184
59
139
218
133
157
18
149
195
181
41
108
258
182
36
158
98
150
167
65
112
197
76
63
212
307
142
40
280
281
143
227
257
144
205
242
255
153
269
192
88
154
314
225
87
241
164
240
34
101
313
275
229
248
324
293
221
89
222
256
90
337
81
80
216
245
323
85
190
86
82
176
230
326
32
232
99
69
173
290
234
306
188
83
250
146
286
208
235
238
30
330
128
246
288
312
266
118
138
204
78
271
261
191
220
329
159
231
198
263
333
282
170
322
297
7
72
193
317
294
129
163
29
8
127
67
135
264
298
267
55
187
321
276
278
316
136
201
210
25
207
319
270
44
75
161
283
9
328
160
27
46
96
122
325
50
211
148
3
335
252
291
23
289
277
262
10
104
2
102
228
217
244
287
19
169
296
272
259
334
105
92
180
171
47
39
219
302
107
54
106
214
311
292
37
113
53
84
130
327
224
303
315
308
301
332
62
141
43
5
100
285
186
38
66
120
94
304
140
12
111
103
56
166
202
309
189
155
57
52
251
114
162
320
299
6
97
49
110
177
73
137
279
58
14
4
131
17
51
109
24
16
175
151
48
249
295
254
203
95
35
42
11
145
13
147
124
116
132
91
68
183
74
253
119
21
305
274
152
45
121
273
31
300
60
165
20
33
79
213
28
215
15
61
22
115
70
26
126
125

>  <PUBCHEM_MMFF94_PARTIAL_CHARGES>  (1) 
28
1 -0.29
10 -0.62
11 0.72
12 0.72
13 0.48
14 0.48
15 0.29
16 0.29
17 0.72
18 0.1
19 -0.15
2 -0.29
20 -0.15
21 -0.15
22 -0.15
23 -0.15
28 0.15
29 0.15
3 -0.29
30 0.15
31 0.15
32 0.15
4 -0.29
5 -0.29
6 -0.29
7 -0.2
8 -0.62
9 -0.62

>  <PUBCHEM_EFFECTIVE_ROTOR_COUNT>  (1) 
6

>  <PUBCHEM_PHARMACOPHORE_FEATURES>  (1) 
5
3 8 10 13 cation
3 8 9 14 cation
3 9 10 17 cation
6 18 19 20 21 22 23 rings
6 8 9 10 13 14 17 rings

>  <PUBCHEM_HEAVY_ATOM_COUNT>  (1) 
23

>  <PUBCHEM_ATOM_DEF_STEREO_COUNT>  (1) 
0

>  <PUBCHEM_ATOM_UDEF_STEREO_COUNT>  (1) 
0

>  <PUBCHEM_BOND_DEF_STEREO_COUNT>  (1) 
0

>  <PUBCHEM_BOND_UDEF_STEREO_COUNT>  (1) 
0

>  <PUBCHEM_ISOTOPIC_ATOM_COUNT>  (1) 
0

>  <PUBCHEM_COMPONENT_COUNT>  (1) 
1

>  <PUBCHEM_CACTVS_TAUTO_COUNT>  (1) 
1

>  <PUBCHEM_CONFORMER_ID>  (1) 
00008AD100000001

>  <PUBCHEM_MMFF94_ENERGY>  (1) 
51.5328

>  <PUBCHEM_FEATURE_SELFOVERLAP>  (1) 
28.152

>  <PUBCHEM_SHAPE_FINGERPRINT>  (1) 
11488393 25 18052821347358859110
12035758 1 18340764858766089570
12592029 89 18335136436983740162
12596599 1 17983584005542088627
12788726 201 17545875388054377238
13140716 1 18335985388440188664
13402501 40 18333456439214557955
13583140 156 16154250806521208284
14178342 30 18335714797654729361
14787075 74 17988356083137470801
14790565 3 18335146439867925756
15209289 33 18272367590091656133
15295992 7 18059288868147837160
17349148 13 18260265252524586581
19591789 44 18337387150107220374
20028762 73 18201711881805833415
20261772 1 18261673765511150249
204376 136 18335421304763126717
20645477 70 18196075652542676925
20739085 24 18335994077280893548
21033648 29 18261936501488221388
21197605 99 18266187304516257435
21524375 3 18412819192459472966
23419403 2 17695959588255004111
23559900 14 17970338209645823501
352729 6 18337116764467282996
458136 41 18340216206083504644
469060 322 17460571822992052183
474229 33 18408601482940260861
59755656 215 18263077734854799325
6287921 2 17987516996946639839
633830 44 17703789240605518853
81228 2 17904742720569927924

>  <PUBCHEM_SHAPE_MULTIPOLES>  (1) 
473.45
9.41
3.81
1.53
1.93
2.65
0.2
-4.54
1.06
-1.6
0.09
0.14
0.2
0.65

>  <PUBCHEM_SHAPE_SELFOVERLAP>  (1) 
918.654

>  <PUBCHEM_SHAPE_VOLUME>  (1) 
288.5

>  <PUBCHEM_COORDINATE_TYPE>  (1) 
2
5
10

$$$$
