35548
     RDKit          3D

 19 19  0  0  0  0  0  0  0  0999 V2000
    1.2493   -0.6255   -1.9622 S   0  0  0  0  0  0  0  0  0  0  0  0
    4.3915   -1.1880   -0.4872 S   0  0  0  0  0  0  0  0  0  0  0  0
    2.5437   -0.5596   -0.2660 P   0  0  0  0  0  0  0  0  0  0  0  0
    1.7772   -1.3242    0.9599 O   0  0  0  0  0  0  0  0  0  0  0  0
    2.4792    0.9601    0.3347 O   0  0  0  0  0  0  0  0  0  0  0  0
   -3.4449   -1.5619   -0.5810 O   0  0  0  0  0  0  0  0  0  0  0  0
   -1.5838    2.4670    0.7265 O   0  0  0  0  0  0  0  0  0  0  0  0
   -0.3022    1.0022   -0.5243 N   0  0  0  0  0  0  0  0  0  0  0  0
   -1.2671   -1.0879   -1.2014 N   0  0  0  0  0  0  0  0  0  0  0  0
   -2.5573    0.4650    0.0953 N   0  0  0  0  0  0  0  0  0  0  0  0
    1.5713   -2.7265    0.9131 C   0  0  0  0  0  0  0  0  0  0  0  0
    3.0373    2.0424   -0.3926 C   0  0  0  0  0  0  0  0  0  0  0  0
    0.8439   -3.1602    2.1679 C   0  0  0  0  0  0  0  0  0  0  0  0
    2.8361    3.3205    0.3934 C   0  0  0  0  0  0  0  0  0  0  0  0
   -0.2708   -0.1902   -1.1405 C   0  0  0  0  0  0  0  0  0  0  0  0
   -2.3793   -0.6927   -0.5612 C   0  0  0  0  0  0  0  0  0  0  0  0
   -1.4769    1.2621    0.0720 C   0  0  0  0  0  0  0  0  0  0  0  0
   -4.6204   -1.1411    0.0961 C   0  0  0  0  0  0  0  0  0  0  0  0
   -2.8269    2.7387    1.3576 C   0  0  0  0  0  0  0  0  0  0  0  0
  1  3  1  0
  1 15  1  0
  2  3  2  0
  3  4  1  0
  3  5  1  0
  4 11  1  0
  5 12  1  0
  6 16  1  0
  6 18  1  0
  7 17  1  0
  7 19  1  0
  8 15  2  0
  8 17  1  0
  9 15  1  0
  9 16  2  0
 10 16  1  0
 10 17  2  0
 11 13  1  0
 12 14  1  0
M  END
>  <PUBCHEM_COMPOUND_CID>  (1) 
35548

>  <PUBCHEM_CONFORMER_RMSD>  (1) 
0.8

>  <PUBCHEM_CONFORMER_DIVERSEORDER>  (1) 
1
53
21
16
22
57
5
14
59
13
42
28
56
46
35
10
51
25
20
49
11
27
3
31
44
52
23
55
18
30
39
47
54
34
60
48
15
29
45
43
58
38
24
26
4
50
37
6
12
32
8
17
40
33
41
19
36
2
7
9

>  <PUBCHEM_MMFF94_PARTIAL_CHARGES>  (1) 
17
1 -0.35
10 -0.62
11 0.28
12 0.28
15 0.72
16 0.7
17 0.7
18 0.28
19 0.28
2 -0.68
3 1.47
4 -0.55
5 -0.55
6 -0.36
7 -0.36
8 -0.62
9 -0.62

>  <PUBCHEM_EFFECTIVE_ROTOR_COUNT>  (1) 
8

>  <PUBCHEM_PHARMACOPHORE_FEATURES>  (1) 
4
3 8 10 17 cation
3 8 9 15 cation
3 9 10 16 cation
6 8 9 10 15 16 17 rings

>  <PUBCHEM_HEAVY_ATOM_COUNT>  (1) 
19

>  <PUBCHEM_ATOM_DEF_STEREO_COUNT>  (1) 
0

>  <PUBCHEM_ATOM_UDEF_STEREO_COUNT>  (1) 
0

>  <PUBCHEM_BOND_DEF_STEREO_COUNT>  (1) 
0

>  <PUBCHEM_BOND_UDEF_STEREO_COUNT>  (1) 
0

>  <PUBCHEM_ISOTOPIC_ATOM_COUNT>  (1) 
0

>  <PUBCHEM_COMPONENT_COUNT>  (1) 
1

>  <PUBCHEM_CACTVS_TAUTO_COUNT>  (1) 
1

>  <PUBCHEM_CONFORMER_ID>  (1) 
00008ADC00000001

>  <PUBCHEM_MMFF94_ENERGY>  (1) 
31.9069

>  <PUBCHEM_FEATURE_SELFOVERLAP>  (1) 
23.07

>  <PUBCHEM_SHAPE_FINGERPRINT>  (1) 
10064457 181 17824290157801576858
11578080 2 17968646138528732245
13583140 156 18042985172540407313
14178342 30 18194663909461092696
14787075 74 17905319981138244783
15209289 33 18261678082517869570
15375462 189 17900266308243783818
15852999 172 17168421670258881050
22445834 79 18189898608475082483
23419403 2 15955803573803011030
23493267 7 17844247319984224610
23558518 356 18339935882174243241
23559900 14 17916030044963411655
23598291 2 18340211795421396372
23598294 1 18200307693903745835
3286 77 18334292063809506454
392239 28 18263649635071913330
4340502 62 17971188373058490223
7097593 13 18120090572283108355
7832392 63 18198342845313383012
9981440 41 17695049395366238440

>  <PUBCHEM_SHAPE_MULTIPOLES>  (1) 
364.14
6.98
3.75
1.55
2.29
1.4
-0.14
-0.18
0.05
-1.26
-2.42
-0.21
-0.9
-1.22

>  <PUBCHEM_SHAPE_SELFOVERLAP>  (1) 
677.82

>  <PUBCHEM_SHAPE_VOLUME>  (1) 
232

>  <PUBCHEM_COORDINATE_TYPE>  (1) 
2
5
10

$$$$
