35553
     RDKit          3D

 27 27  0  0  0  0  0  0  0  0999 V2000
   -4.0415    0.3688   -0.1132 O   0  0  0  0  0  0  0  0  0  0  0  0
    2.6989    1.8620    0.0964 O   0  0  0  0  0  0  0  0  0  0  0  0
    1.3868   -2.2701   -0.1099 O   0  0  0  0  0  0  0  0  0  0  0  0
   -3.5415    2.6132   -0.0041 O   0  0  0  0  0  0  0  0  0  0  0  0
    1.2933    3.6844    0.1446 O   0  0  0  0  0  0  0  0  0  0  0  0
   -0.8117   -2.9486   -0.1837 O   0  0  0  0  0  0  0  0  0  0  0  0
   -0.8584    1.9545    0.0262 N   0  0  0  0  0  0  0  0  0  0  0  0
   -1.5775   -0.3320   -0.0870 N   0  0  0  0  0  0  0  0  0  0  0  0
    0.7642    0.1872   -0.0150 N   0  0  0  0  0  0  0  0  0  0  0  0
   -6.2537   -0.6235   -0.2083 C   0  0  0  0  0  0  0  0  0  0  0  0
    5.1245    1.8967    0.1491 C   0  0  0  0  0  0  0  0  0  0  0  0
    3.3521   -3.6790   -0.1330 C   0  0  0  0  0  0  0  0  0  0  0  0
   -5.4407    0.6718   -0.1330 C   0  0  0  0  0  0  0  0  0  0  0  0
    3.8381    2.7270    0.1574 C   0  0  0  0  0  0  0  0  0  0  0  0
    1.8222   -3.6223   -0.1610 C   0  0  0  0  0  0  0  0  0  0  0  0
   -7.7440   -0.3110   -0.3249 C   0  0  0  0  0  0  0  0  0  0  0  0
   -5.9912   -1.5178    1.0052 C   0  0  0  0  0  0  0  0  0  0  0  0
    6.3440    2.8019    0.3086 C   0  0  0  0  0  0  0  0  0  0  0  0
    5.2430    1.0653   -1.1302 C   0  0  0  0  0  0  0  0  0  0  0  0
    3.9093   -3.0620    1.1516 C   0  0  0  0  0  0  0  0  0  0  0  0
    3.8346   -5.1203   -0.2821 C   0  0  0  0  0  0  0  0  0  0  0  0
   -3.1752    1.4282   -0.0470 C   0  0  0  0  0  0  0  0  0  0  0  0
    1.4645    2.4563    0.0957 C   0  0  0  0  0  0  0  0  0  0  0  0
    0.0393   -2.0745   -0.1281 C   0  0  0  0  0  0  0  0  0  0  0  0
   -1.7931    0.9923   -0.0347 C   0  0  0  0  0  0  0  0  0  0  0  0
    0.3970    1.4778    0.0326 C   0  0  0  0  0  0  0  0  0  0  0  0
   -0.2832   -0.6262   -0.0720 C   0  0  0  0  0  0  0  0  0  0  0  0
  1 13  1  0
  1 22  1  0
  2 14  1  0
  2 23  1  0
  3 15  1  0
  3 24  1  0
  4 22  2  0
  5 23  2  0
  6 24  2  0
  7 25  2  0
  7 26  1  0
  8 25  1  0
  8 27  2  0
  9 26  2  0
  9 27  1  0
 10 13  1  0
 10 16  1  0
 10 17  1  0
 11 14  1  0
 11 18  1  0
 11 19  1  0
 12 15  1  0
 12 20  1  0
 12 21  1  0
 22 25  1  0
 23 26  1  0
 24 27  1  0
M  END
>  <PUBCHEM_COMPOUND_CID>  (1) 
35553

>  <PUBCHEM_CONFORMER_RMSD>  (1) 
1

>  <PUBCHEM_CONFORMER_DIVERSEORDER>  (1) 
1
20
15
12
17
14
4
18
16
10
11
5
13
6
2
19
8
9
3
7

>  <PUBCHEM_MMFF94_PARTIAL_CHARGES>  (1) 
18
1 -0.43
13 0.28
14 0.28
15 0.28
2 -0.43
22 0.63
23 0.63
24 0.63
25 0.71
26 0.71
27 0.71
3 -0.43
4 -0.57
5 -0.57
6 -0.57
7 -0.62
8 -0.62
9 -0.62

>  <PUBCHEM_EFFECTIVE_ROTOR_COUNT>  (1) 
12

>  <PUBCHEM_PHARMACOPHORE_FEATURES>  (1) 
10
1 4 acceptor
1 5 acceptor
1 6 acceptor
3 10 16 17 hydrophobe
3 11 18 19 hydrophobe
3 12 20 21 hydrophobe
3 7 8 25 cation
3 7 9 26 cation
3 8 9 27 cation
6 7 8 9 25 26 27 rings

>  <PUBCHEM_HEAVY_ATOM_COUNT>  (1) 
27

>  <PUBCHEM_ATOM_DEF_STEREO_COUNT>  (1) 
0

>  <PUBCHEM_ATOM_UDEF_STEREO_COUNT>  (1) 
0

>  <PUBCHEM_BOND_DEF_STEREO_COUNT>  (1) 
0

>  <PUBCHEM_BOND_UDEF_STEREO_COUNT>  (1) 
0

>  <PUBCHEM_ISOTOPIC_ATOM_COUNT>  (1) 
0

>  <PUBCHEM_COMPONENT_COUNT>  (1) 
1

>  <PUBCHEM_CACTVS_TAUTO_COUNT>  (1) 
1

>  <PUBCHEM_CONFORMER_ID>  (1) 
00008AE100000001

>  <PUBCHEM_MMFF94_ENERGY>  (1) 
49.0555

>  <PUBCHEM_FEATURE_SELFOVERLAP>  (1) 
53.578

>  <PUBCHEM_SHAPE_FINGERPRINT>  (1) 
10050765 1 18338797789599136677
10411042 1 18123187900871067319
10838868 158 17679322990012062779
11135926 11 18339353180536068535
11719270 70 18410005576621884705
11963148 33 18263637528187411547
12293681 25 17896061943441259715
138480 1 18050848824067606774
14028597 1 17775019989108975049
14866123 147 18124030401676696346
15927050 60 18341329014999263662
167882 2 18337953381421183724
20028762 73 18055352689503077631
20771845 171 17967541185498579916
21344244 246 18410293601149499550
21360443 120 18335985354787189212
22311459 1 18339360872253458497
23559900 14 18266448825111158425
249999 5 18412259532435338650
3178227 256 18266752453123468025
335352 9 18267584791572692661
350125 39 18338233881451160017
469060 322 17620761587656394826
5104073 3 18339654343711656889
5265222 85 18048325728107759252
5385378 56 18411987961463367081
59755656 215 18410013273266595805
6669772 16 18412826919105905206
6700243 42 16909208218505003158

>  <PUBCHEM_SHAPE_MULTIPOLES>  (1) 
505.49
15.45
5.94
0.75
19.9
6.14
0.04
-2.58
0.04
-11.52
0.16
-0.25
0.19
0.29

>  <PUBCHEM_SHAPE_SELFOVERLAP>  (1) 
1017.222

>  <PUBCHEM_SHAPE_VOLUME>  (1) 
292.1

>  <PUBCHEM_COORDINATE_TYPE>  (1) 
2
5
10

$$$$
