35561
     RDKit          3D

 15 15  0  0  0  0  0  0  0  0999 V2000
   -0.0020    3.6855    0.7750 Cl  0  0  0  0  0  0  0  0  0  0  0  0
   -4.3783   -1.9224   -0.1233 Cl  0  0  0  0  0  0  0  0  0  0  0  0
   -2.1134   -1.2023    1.5798 Cl  0  0  0  0  0  0  0  0  0  0  0  0
    4.3799   -1.9199   -0.1244 Cl  0  0  0  0  0  0  0  0  0  0  0  0
    2.1148   -1.2033    1.5797 Cl  0  0  0  0  0  0  0  0  0  0  0  0
    0.0003   -0.3842   -0.8680 N   0  0  0  0  0  0  0  0  0  0  0  0
    1.1990    1.5423   -0.0872 N   0  0  0  0  0  0  0  0  0  0  0  0
   -1.2005    1.5417   -0.0889 N   0  0  0  0  0  0  0  0  0  0  0  0
   -2.3307   -0.3470   -0.8576 N   0  0  0  0  0  0  0  0  0  0  0  0
    2.3313   -0.3449   -0.8565 N   0  0  0  0  0  0  0  0  0  0  0  0
   -1.1222    0.2992   -0.5920 C   0  0  0  0  0  0  0  0  0  0  0  0
    1.1221    0.2997   -0.5903 C   0  0  0  0  0  0  0  0  0  0  0  0
   -0.0010    2.1008    0.1384 C   0  0  0  0  0  0  0  0  0  0  0  0
   -2.8990   -1.0731    0.0577 C   0  0  0  0  0  0  0  0  0  0  0  0
    2.8999   -1.0722    0.0575 C   0  0  0  0  0  0  0  0  0  0  0  0
  1 13  1  0
  2 14  1  0
  3 14  1  0
  4 15  1  0
  5 15  1  0
  6 11  2  0
  6 12  1  0
  7 12  2  0
  7 13  1  0
  8 11  1  0
  8 13  2  0
  9 11  1  0
  9 14  2  3
 10 12  1  0
 10 15  2  3
M  END
>  <PUBCHEM_COMPOUND_CID>  (1) 
35561

>  <PUBCHEM_CONFORMER_RMSD>  (1) 
0.6

>  <PUBCHEM_CONFORMER_DIVERSEORDER>  (1) 
1
2
3
5
4

>  <PUBCHEM_MMFF94_PARTIAL_CHARGES>  (1) 
15
1 -0.18
10 -0.63
11 0.8
12 0.8
13 0.8
14 0.87
15 0.87
2 -0.21
3 -0.21
4 -0.21
5 -0.21
6 -0.62
7 -0.62
8 -0.62
9 -0.63

>  <PUBCHEM_EFFECTIVE_ROTOR_COUNT>  (1) 
2

>  <PUBCHEM_PHARMACOPHORE_FEATURES>  (1) 
5
1 10 acceptor
1 9 acceptor
4 6 7 10 12 cation
4 6 8 9 11 cation
6 6 7 8 11 12 13 rings

>  <PUBCHEM_HEAVY_ATOM_COUNT>  (1) 
15

>  <PUBCHEM_ATOM_DEF_STEREO_COUNT>  (1) 
0

>  <PUBCHEM_ATOM_UDEF_STEREO_COUNT>  (1) 
0

>  <PUBCHEM_BOND_DEF_STEREO_COUNT>  (1) 
0

>  <PUBCHEM_BOND_UDEF_STEREO_COUNT>  (1) 
0

>  <PUBCHEM_ISOTOPIC_ATOM_COUNT>  (1) 
0

>  <PUBCHEM_COMPONENT_COUNT>  (1) 
1

>  <PUBCHEM_CACTVS_TAUTO_COUNT>  (1) 
1

>  <PUBCHEM_CONFORMER_ID>  (1) 
00008AE900000001

>  <PUBCHEM_MMFF94_ENERGY>  (1) 
38.0812

>  <PUBCHEM_FEATURE_SELFOVERLAP>  (1) 
25.417

>  <PUBCHEM_SHAPE_FINGERPRINT>  (1) 
108231 29 18408322215645487594
11357001 24 18195534688004694784
12363563 72 18411421708643340679
12507560 14 18343305898562171607
12824470 246 17822846481548612490
13140716 1 18271527502730554496
13275264 69 18339651026984138713
13533116 47 18120945164382583651
136203 1 18125160437573683224
14123255 52 9079114462044793710
14252887 29 18341893043136616962
14787075 74 18116712005648963106
14817 1 13588710069897512777
15375462 189 18186527578960110979
16945 1 17531246162202446060
17841504 4 18339364183662083561
20369508 70 18264197175278729391
20645477 70 18191861434895595327
20832881 197 18334579053645648499
20871998 184 18058725780644374278
20871998 22 18412822520848143660
21296965 67 18410853269810969935
21524375 3 16760835665059853220
23526113 38 18041560372530818129
2748010 2 18272357672796145484
3071541 236 17906160755230409756
31174 14 18194396921461675645
7364860 26 18124593338644683605
81228 2 18126002650585225004
81539 233 17760359290274989029

>  <PUBCHEM_SHAPE_MULTIPOLES>  (1) 
293.14
6.31
3.19
1.2
0.01
3.66
0.46
-7.37
-0.24
-0.01
0.96
0
-0.3
0

>  <PUBCHEM_SHAPE_SELFOVERLAP>  (1) 
560.941

>  <PUBCHEM_SHAPE_VOLUME>  (1) 
176.2

>  <PUBCHEM_COORDINATE_TYPE>  (1) 
2
5
10

$$$$
