35567
     RDKit          3D

 12 12  0  0  0  0  0  0  0  0999 V2000
   -3.7590    0.0001    1.0028 Cl  0  0  0  0  0  0  0  0  0  0  0  0
    1.1792    2.3128    0.0300 O   0  0  0  0  0  0  0  0  0  0  0  0
    1.1780   -2.3132    0.0298 O   0  0  0  0  0  0  0  0  0  0  0  0
   -0.8294   -1.1994   -0.2596 N   0  0  0  0  0  0  0  0  0  0  0  0
   -0.8287    1.2001   -0.2596 N   0  0  0  0  0  0  0  0  0  0  0  0
    1.2280   -0.0003    0.0349 N   0  0  0  0  0  0  0  0  0  0  0  0
   -1.4260    0.0005   -0.3451 C   0  0  0  0  0  0  0  0  0  0  0  0
    0.4983    1.1220   -0.0697 C   0  0  0  0  0  0  0  0  0  0  0  0
    0.4976   -1.1221   -0.0697 C   0  0  0  0  0  0  0  0  0  0  0  0
   -2.9022    0.0006   -0.5553 C   0  0  0  0  0  0  0  0  0  0  0  0
    2.5826    2.2269    0.2309 C   0  0  0  0  0  0  0  0  0  0  0  0
    2.5816   -2.2280    0.2306 C   0  0  0  0  0  0  0  0  0  0  0  0
  1 10  1  0
  2  8  1  0
  2 11  1  0
  3  9  1  0
  3 12  1  0
  4  7  2  0
  4  9  1  0
  5  7  1  0
  5  8  2  0
  6  8  1  0
  6  9  2  0
  7 10  1  0
M  END
>  <PUBCHEM_COMPOUND_CID>  (1) 
35567

>  <PUBCHEM_CONFORMER_RMSD>  (1) 
0.6

>  <PUBCHEM_CONFORMER_DIVERSEORDER>  (1) 
1
2
3
4

>  <PUBCHEM_MMFF94_PARTIAL_CHARGES>  (1) 
12
1 -0.29
10 0.43
11 0.28
12 0.28
2 -0.36
3 -0.36
4 -0.62
5 -0.62
6 -0.62
7 0.48
8 0.7
9 0.7

>  <PUBCHEM_EFFECTIVE_ROTOR_COUNT>  (1) 
3

>  <PUBCHEM_PHARMACOPHORE_FEATURES>  (1) 
4
3 4 5 7 cation
3 4 6 9 cation
3 5 6 8 cation
6 4 5 6 7 8 9 rings

>  <PUBCHEM_HEAVY_ATOM_COUNT>  (1) 
12

>  <PUBCHEM_ATOM_DEF_STEREO_COUNT>  (1) 
0

>  <PUBCHEM_ATOM_UDEF_STEREO_COUNT>  (1) 
0

>  <PUBCHEM_BOND_DEF_STEREO_COUNT>  (1) 
0

>  <PUBCHEM_BOND_UDEF_STEREO_COUNT>  (1) 
0

>  <PUBCHEM_ISOTOPIC_ATOM_COUNT>  (1) 
0

>  <PUBCHEM_COMPONENT_COUNT>  (1) 
1

>  <PUBCHEM_CACTVS_TAUTO_COUNT>  (1) 
1

>  <PUBCHEM_CONFORMER_ID>  (1) 
00008AEF00000001

>  <PUBCHEM_MMFF94_ENERGY>  (1) 
32.3171

>  <PUBCHEM_FEATURE_SELFOVERLAP>  (1) 
23.07

>  <PUBCHEM_SHAPE_FINGERPRINT>  (1) 
1 1 18337950220077243356
108231 29 18189623730568548179
12759256 9 18341604876553412431
13380535 21 18264498449611400519
13380535 76 18191576669456600699
14022349 108 18337941360018485552
161256 15 18335421235885375069
16945 1 18410848867400835343
17841504 4 18336554807015109131
19021347 4 17978227493369352698
20645476 183 17536038002008045724
20645477 70 18336814347910616711
20871998 22 18054516798472807759
21040471 1 17905885130020034428
21061003 4 18192997019636919243
21524375 3 17984703582550189837
23552423 10 18339916103981311439
241688 4 17907008483016201184
2748010 2 18051677855164920140
305870 269 18340207500343194105
3071541 250 18267878189631272342
3071541 37 18335138734411415805
528862 383 18336256920498803427
58734985 188 18339079276769224218
58734987 50 18411138064929515943
7364860 26 18413387639823255574
81228 2 17331674652858844272

>  <PUBCHEM_SHAPE_MULTIPOLES>  (1) 
222.14
4.64
2.65
0.74
3.53
0
0.08
0
1.1
-3.3
0.17
0.46
0
0

>  <PUBCHEM_SHAPE_SELFOVERLAP>  (1) 
439.677

>  <PUBCHEM_SHAPE_VOLUME>  (1) 
133.4

>  <PUBCHEM_COORDINATE_TYPE>  (1) 
2
5
10

$$$$
