35572
     RDKit          3D

 13 13  0  0  0  0  0  0  0  0999 V2000
   -2.3751   -1.9980   -1.6232 Br  0  0  0  0  0  0  0  0  0  0  0  0
   -2.3723   -1.9965    1.6255 Br  0  0  0  0  0  0  0  0  0  0  0  0
   -0.6669    2.7496    0.0004 O   0  0  0  0  0  0  0  0  0  0  0  0
    3.0286   -0.0331    0.0005 O   0  0  0  0  0  0  0  0  0  0  0  0
    0.9191   -0.9839   -0.0013 N   0  0  0  0  0  0  0  0  0  0  0  0
   -0.9978    0.4596   -0.0014 N   0  0  0  0  0  0  0  0  0  0  0  0
    1.2107    1.3978   -0.0016 N   0  0  0  0  0  0  0  0  0  0  0  0
   -0.4021   -0.7440   -0.0013 C   0  0  0  0  0  0  0  0  0  0  0  0
   -1.2988   -1.9353    0.0002 C   0  0  0  0  0  0  0  0  0  0  0  0
   -0.1293    1.4837   -0.0016 C   0  0  0  0  0  0  0  0  0  0  0  0
    1.6634    0.1337   -0.0016 C   0  0  0  0  0  0  0  0  0  0  0  0
   -2.0845    2.8375    0.0028 C   0  0  0  0  0  0  0  0  0  0  0  0
    3.5050   -1.3711    0.0027 C   0  0  0  0  0  0  0  0  0  0  0  0
  1  9  1  0
  2  9  1  0
  3 10  1  0
  3 12  1  0
  4 11  1  0
  4 13  1  0
  5  8  2  0
  5 11  1  0
  6  8  1  0
  6 10  2  0
  7 10  1  0
  7 11  2  0
  8  9  1  0
M  END
>  <PUBCHEM_COMPOUND_CID>  (1) 
35572

>  <PUBCHEM_CONFORMER_RMSD>  (1) 
0.6

>  <PUBCHEM_CONFORMER_DIVERSEORDER>  (1) 
1
8
7
3
4
5
9
2
6

>  <PUBCHEM_MMFF94_PARTIAL_CHARGES>  (1) 
13
1 -0.23
10 0.7
11 0.7
12 0.28
13 0.28
2 -0.23
3 -0.36
4 -0.36
5 -0.62
6 -0.62
7 -0.62
8 0.48
9 0.6

>  <PUBCHEM_EFFECTIVE_ROTOR_COUNT>  (1) 
3

>  <PUBCHEM_PHARMACOPHORE_FEATURES>  (1) 
7
1 1 hydrophobe
1 2 hydrophobe
3 1 2 9 hydrophobe
3 5 6 8 cation
3 5 7 11 cation
3 6 7 10 cation
6 5 6 7 8 10 11 rings

>  <PUBCHEM_HEAVY_ATOM_COUNT>  (1) 
13

>  <PUBCHEM_ATOM_DEF_STEREO_COUNT>  (1) 
0

>  <PUBCHEM_ATOM_UDEF_STEREO_COUNT>  (1) 
0

>  <PUBCHEM_BOND_DEF_STEREO_COUNT>  (1) 
0

>  <PUBCHEM_BOND_UDEF_STEREO_COUNT>  (1) 
0

>  <PUBCHEM_ISOTOPIC_ATOM_COUNT>  (1) 
0

>  <PUBCHEM_COMPONENT_COUNT>  (1) 
1

>  <PUBCHEM_CACTVS_TAUTO_COUNT>  (1) 
1

>  <PUBCHEM_CONFORMER_ID>  (1) 
00008AF400000001

>  <PUBCHEM_MMFF94_ENERGY>  (1) 
33.6499

>  <PUBCHEM_FEATURE_SELFOVERLAP>  (1) 
39.567

>  <PUBCHEM_SHAPE_FINGERPRINT>  (1) 
1 1 17472981696795698396
12423570 1 18129400270411252154
12759256 9 17618216647248914826
13294875 104 16888854351176948455
13380535 76 17978229352989815560
14817 1 12947938947263408227
15906896 17 18265896865288048375
16945 1 18410856525464693508
18721546 61 18339349774046955059
193761 8 18410575123619043076
20379382 53 17397280798286593299
20645476 183 17464006486811059326
20711985 344 18337376180449724442
20871998 184 18342748377141138998
21524375 3 17833546799755471448
23419403 2 16822417477274881212
23526113 38 17827334872776064931
23530152 11 17837484155405737301
23559900 14 17984417440004636862
23598291 2 17554630743306657591
2748010 2 18267297810452630820
3071541 236 18117265978551108208
31174 14 17540544947288592443
54173680 148 18335709316516414787
6992083 37 17987530367026838167
81228 2 18335969917931110720
81539 233 17469043259220174517

>  <PUBCHEM_SHAPE_MULTIPOLES>  (1) 
252.74
4.31
3.33
1.16
1.43
3.5
0
-3.69
0
-0.61
0
-1.52
-0.74
0

>  <PUBCHEM_SHAPE_SELFOVERLAP>  (1) 
483.005

>  <PUBCHEM_SHAPE_VOLUME>  (1) 
161.2

>  <PUBCHEM_COORDINATE_TYPE>  (1) 
2
5
10

$$$$
