35573
     RDKit          3D

 13 13  0  0  0  0  0  0  0  0999 V2000
   -2.8653   -0.3369    1.4655 Cl  0  0  0  0  0  0  0  0  0  0  0  0
   -2.3305    2.0833   -0.0054 Cl  0  0  0  0  0  0  0  0  0  0  0  0
   -2.8622   -0.3509   -1.4611 Cl  0  0  0  0  0  0  0  0  0  0  0  0
    2.5787    1.4110    0.0002 O   0  0  0  0  0  0  0  0  0  0  0  0
   -0.3261   -1.4203    0.0001 N   0  0  0  0  0  0  0  0  0  0  0  0
    0.3243    0.8894   -0.0005 N   0  0  0  0  0  0  0  0  0  0  0  0
    1.9994   -0.8287    0.0005 N   0  0  0  0  0  0  0  0  0  0  0  0
   -0.5814   -0.1020   -0.0004 C   0  0  0  0  0  0  0  0  0  0  0  0
    0.9854   -1.7089    0.0005 C   0  0  0  0  0  0  0  0  0  0  0  0
   -2.0163    0.3022   -0.0006 C   0  0  0  0  0  0  0  0  0  0  0  0
    1.5935    0.4513   -0.0001 C   0  0  0  0  0  0  0  0  0  0  0  0
    1.3533   -3.1537    0.0016 C   0  0  0  0  0  0  0  0  0  0  0  0
    2.1471    2.7642   -0.0004 C   0  0  0  0  0  0  0  0  0  0  0  0
  1 10  1  0
  2 10  1  0
  3 10  1  0
  4 11  1  0
  4 13  1  0
  5  8  2  0
  5  9  1  0
  6  8  1  0
  6 11  2  0
  7  9  2  0
  7 11  1  0
  8 10  1  0
  9 12  1  0
M  END
>  <PUBCHEM_COMPOUND_CID>  (1) 
35573

>  <PUBCHEM_CONFORMER_RMSD>  (1) 
0.6

>  <PUBCHEM_CONFORMER_DIVERSEORDER>  (1) 
1
2
3
4

>  <PUBCHEM_MMFF94_PARTIAL_CHARGES>  (1) 
13
1 -0.29
10 1.01
11 0.7
12 0.14
13 0.28
2 -0.29
3 -0.29
4 -0.36
5 -0.62
6 -0.62
7 -0.62
8 0.48
9 0.48

>  <PUBCHEM_EFFECTIVE_ROTOR_COUNT>  (1) 
2

>  <PUBCHEM_PHARMACOPHORE_FEATURES>  (1) 
4
3 5 6 8 cation
3 5 7 9 cation
3 6 7 11 cation
6 5 6 7 8 9 11 rings

>  <PUBCHEM_HEAVY_ATOM_COUNT>  (1) 
13

>  <PUBCHEM_ATOM_DEF_STEREO_COUNT>  (1) 
0

>  <PUBCHEM_ATOM_UDEF_STEREO_COUNT>  (1) 
0

>  <PUBCHEM_BOND_DEF_STEREO_COUNT>  (1) 
0

>  <PUBCHEM_BOND_UDEF_STEREO_COUNT>  (1) 
0

>  <PUBCHEM_ISOTOPIC_ATOM_COUNT>  (1) 
0

>  <PUBCHEM_COMPONENT_COUNT>  (1) 
1

>  <PUBCHEM_CACTVS_TAUTO_COUNT>  (1) 
1

>  <PUBCHEM_CONFORMER_ID>  (1) 
00008AF500000001

>  <PUBCHEM_MMFF94_ENERGY>  (1) 
29.0026

>  <PUBCHEM_FEATURE_SELFOVERLAP>  (1) 
23.07

>  <PUBCHEM_SHAPE_FINGERPRINT>  (1) 
1 1 18410576205897567150
12932764 1 17988642961013721345
14648413 74 18264210210098200033
15775835 57 18131075960776648713
15852999 172 17749652082850480847
16945 1 18410573972272077350
17841504 4 18192161395089430819
17990270 104 18265050228296908251
18380122 1 18041573541116857955
19973954 147 18337113341584089281
20082192 1 17489031444441692301
21130352 189 17762054337567105193
21160774 45 17832985327503149039
21524375 3 18128535058118780936
228727 97 17774435126638291693
23552423 10 18341324505404116463
2748010 2 18192721265445773118
3071541 236 17760906834196154146
31174 14 18263947470090523259
5084963 1 18060129964129855753
6992083 37 17554043239077608003
7364860 26 18340486656000303734
81228 2 17330276585417503778

>  <PUBCHEM_SHAPE_MULTIPOLES>  (1) 
252.33
4.34
3.03
0.98
1.71
0.04
0
0.98
0
-2.58
0
1.08
-0.2
0

>  <PUBCHEM_SHAPE_SELFOVERLAP>  (1) 
485.625

>  <PUBCHEM_SHAPE_VOLUME>  (1) 
154.2

>  <PUBCHEM_COORDINATE_TYPE>  (1) 
2
5
10

$$$$
