35585
     RDKit          3D

 21 21  0  0  0  0  0  0  0  0999 V2000
    2.7928    3.1463   -1.4520 Cl  0  0  0  0  0  0  0  0  0  0  0  0
    0.3538    3.6375    0.0028 Cl  0  0  0  0  0  0  0  0  0  0  0  0
    2.7836    3.1301    1.4745 Cl  0  0  0  0  0  0  0  0  0  0  0  0
    4.6606   -1.5951    1.4795 Cl  0  0  0  0  0  0  0  0  0  0  0  0
    3.2483   -3.6225   -0.0046 Cl  0  0  0  0  0  0  0  0  0  0  0  0
    4.6819   -1.5752   -1.4471 Cl  0  0  0  0  0  0  0  0  0  0  0  0
   -1.0281   -1.1197   -0.0214 O   0  0  0  0  0  0  0  0  0  0  0  0
    1.2541   -1.5021   -0.0082 N   0  0  0  0  0  0  0  0  0  0  0  0
    0.3654    0.7269   -0.0085 N   0  0  0  0  0  0  0  0  0  0  0  0
    2.7400    0.3819    0.0057 N   0  0  0  0  0  0  0  0  0  0  0  0
   -4.6067    0.0251   -0.0344 C   0  0  0  0  0  0  0  0  0  0  0  0
   -5.9616   -0.6871    0.0080 C   0  0  0  0  0  0  0  0  0  0  0  0
   -3.4162   -0.9325   -0.0149 C   0  0  0  0  0  0  0  0  0  0  0  0
   -7.1532    0.2703   -0.0364 C   0  0  0  0  0  0  0  0  0  0  0  0
   -2.0928   -0.1787   -0.0253 C   0  0  0  0  0  0  0  0  0  0  0  0
   -8.4715   -0.4799    0.0813 C   0  0  0  0  0  0  0  0  0  0  0  0
    0.2454   -0.6127   -0.0126 C   0  0  0  0  0  0  0  0  0  0  0  0
    2.4705   -0.9335    0.0007 C   0  0  0  0  0  0  0  0  0  0  0  0
    1.6394    1.1511    0.0005 C   0  0  0  0  0  0  0  0  0  0  0  0
    1.8533    2.6266    0.0060 C   0  0  0  0  0  0  0  0  0  0  0  0
    3.6409   -1.8569    0.0064 C   0  0  0  0  0  0  0  0  0  0  0  0
  1 20  1  0
  2 20  1  0
  3 20  1  0
  4 21  1  0
  5 21  1  0
  6 21  1  0
  7 15  1  0
  7 17  1  0
  8 17  2  0
  8 18  1  0
  9 17  1  0
  9 19  2  0
 10 18  2  0
 10 19  1  0
 11 12  1  0
 11 13  1  0
 12 14  1  0
 13 15  1  0
 14 16  1  0
 18 21  1  0
 19 20  1  0
M  END
>  <PUBCHEM_COMPOUND_CID>  (1) 
35585

>  <PUBCHEM_CONFORMER_RMSD>  (1) 
0.8

>  <PUBCHEM_CONFORMER_DIVERSEORDER>  (1) 
1
60
73
80
9
102
84
11
85
45
107
19
28
48
12
3
82
101
108
25
105
95
55
87
35
13
43
27
50
10
26
24
99
77
36
75
5
83
94
76
64
34
16
81
39
49
106
30
46
2
22
37
57
96
21
54
70
104
7
8
44
91
97
52
41
15
38
98
14
71
78
100
6
92
103
29
51
53
18
32
31
20
86
67
88
62
4
63
79
58
61
17
47
33
42
68
90
66
40
74
93
23
89
56
72
59
65
69

>  <PUBCHEM_MMFF94_PARTIAL_CHARGES>  (1) 
16
1 -0.29
10 -0.62
15 0.28
17 0.7
18 0.48
19 0.48
2 -0.29
20 1.01
21 1.01
3 -0.29
4 -0.29
5 -0.29
6 -0.29
7 -0.36
8 -0.62
9 -0.62

>  <PUBCHEM_EFFECTIVE_ROTOR_COUNT>  (1) 
8

>  <PUBCHEM_PHARMACOPHORE_FEATURES>  (1) 
6
1 16 hydrophobe
3 8 10 18 cation
3 8 9 17 cation
3 9 10 19 cation
4 11 12 13 14 hydrophobe
6 8 9 10 17 18 19 rings

>  <PUBCHEM_HEAVY_ATOM_COUNT>  (1) 
21

>  <PUBCHEM_ATOM_DEF_STEREO_COUNT>  (1) 
0

>  <PUBCHEM_ATOM_UDEF_STEREO_COUNT>  (1) 
0

>  <PUBCHEM_BOND_DEF_STEREO_COUNT>  (1) 
0

>  <PUBCHEM_BOND_UDEF_STEREO_COUNT>  (1) 
0

>  <PUBCHEM_ISOTOPIC_ATOM_COUNT>  (1) 
0

>  <PUBCHEM_COMPONENT_COUNT>  (1) 
1

>  <PUBCHEM_CACTVS_TAUTO_COUNT>  (1) 
1

>  <PUBCHEM_CONFORMER_ID>  (1) 
00008B0100000001

>  <PUBCHEM_MMFF94_ENERGY>  (1) 
30.1911

>  <PUBCHEM_FEATURE_SELFOVERLAP>  (1) 
33.212

>  <PUBCHEM_SHAPE_FINGERPRINT>  (1) 
10411042 1 18266459793951691242
11405975 8 18409731794332781427
12166972 35 18059575759283672713
12553582 1 18340478981305871918
12616971 3 18059569214075396823
12730499 353 18192441972554866665
13167372 99 18272656715196379625
13533116 47 18412265051995633089
13878862 14 18264469811450200317
13955234 65 18341048613837457195
14170010 4 18412824702812836464
15042514 8 17762336912393060338
15420108 30 17770198760203164912
15475509 35 17023728053262434914
17844677 252 18411426099159791345
1813 80 18200604583565561462
18222031 100 18271250426148410494
20369508 70 18410855456107819526
20612939 158 18410300228821932045
21344244 78 18201707445035700777
21478907 32 18049724018702620210
221357 26 18335139765762671053
23419403 2 17972563725035078452
23559900 14 18411979195820328683
3004659 81 18343304764796085999
3411729 13 18265890436133755664
3421961 26 18411133636601715728
4073 2 18042127729701466763
5104073 3 18338238275714251683
67856867 119 18272080652127320835
7164475 11 17974575693801238310
7364860 26 18342739676101795672
81228 2 18048604716498079530
9841814 1 18334571339615301138

>  <PUBCHEM_SHAPE_MULTIPOLES>  (1) 
422.58
15.48
4.19
1.07
47.38
3.03
-0.02
-7.47
-0.18
-7.6
-0.01
-1.7
0.36
0.01

>  <PUBCHEM_SHAPE_SELFOVERLAP>  (1) 
786.512

>  <PUBCHEM_SHAPE_VOLUME>  (1) 
264.1

>  <PUBCHEM_COORDINATE_TYPE>  (1) 
2
5
10

$$$$
