35581
     RDKit          3D

 18 18  0  0  0  0  0  0  0  0999 V2000
   -3.4753    1.4196    1.5494 Cl  0  0  0  0  0  0  0  0  0  0  0  0
   -2.2353    3.5032   -0.0087 Cl  0  0  0  0  0  0  0  0  0  0  0  0
   -3.6021    1.3597   -1.3739 Cl  0  0  0  0  0  0  0  0  0  0  0  0
   -1.4503   -3.2468   -1.3980 Cl  0  0  0  0  0  0  0  0  0  0  0  0
    1.0645   -3.5817   -0.0302 Cl  0  0  0  0  0  0  0  0  0  0  0  0
   -1.3344   -3.1930    1.5258 Cl  0  0  0  0  0  0  0  0  0  0  0  0
    2.1719    1.2462   -0.1602 O   0  0  0  0  0  0  0  0  0  0  0  0
   -1.5008   -0.4658    0.0274 N   0  0  0  0  0  0  0  0  0  0  0  0
    0.8874   -0.6766   -0.0731 N   0  0  0  0  0  0  0  0  0  0  0  0
   -0.1256    1.4986   -0.0639 N   0  0  0  0  0  0  0  0  0  0  0  0
   -1.3067    0.8626   -0.0023 C   0  0  0  0  0  0  0  0  0  0  0  0
   -0.3592   -1.1718   -0.0107 C   0  0  0  0  0  0  0  0  0  0  0  0
    0.9309    0.6672   -0.0964 C   0  0  0  0  0  0  0  0  0  0  0  0
   -2.5266    1.7189    0.0366 C   0  0  0  0  0  0  0  0  0  0  0  0
   -0.4888   -2.6566    0.0182 C   0  0  0  0  0  0  0  0  0  0  0  0
    3.2882    0.3681   -0.1946 C   0  0  0  0  0  0  0  0  0  0  0  0
    4.5340    1.1807   -0.3201 C   0  0  0  0  0  0  0  0  0  0  0  0
    5.5280    1.1674    0.5748 C   0  0  0  0  0  0  0  0  0  0  0  0
  1 14  1  0
  2 14  1  0
  3 14  1  0
  4 15  1  0
  5 15  1  0
  6 15  1  0
  7 13  1  0
  7 16  1  0
  8 11  2  0
  8 12  1  0
  9 12  2  0
  9 13  1  0
 10 11  1  0
 10 13  2  0
 11 14  1  0
 12 15  1  0
 16 17  1  0
 17 18  2  0
M  END
>  <PUBCHEM_COMPOUND_CID>  (1) 
35581

>  <PUBCHEM_CONFORMER_RMSD>  (1) 
0.6

>  <PUBCHEM_CONFORMER_DIVERSEORDER>  (1) 
1
19
18
20
21
7
23
10
2
8
13
22
17
14
15
3
4
9
11
5
12
16
6

>  <PUBCHEM_MMFF94_PARTIAL_CHARGES>  (1) 
21
1 -0.29
10 -0.62
11 0.48
12 0.48
13 0.7
14 1.01
15 1.01
16 0.42
17 -0.29
18 -0.3
2 -0.29
21 0.15
22 0.15
23 0.15
3 -0.29
4 -0.29
5 -0.29
6 -0.29
7 -0.36
8 -0.62
9 -0.62

>  <PUBCHEM_EFFECTIVE_ROTOR_COUNT>  (1) 
5

>  <PUBCHEM_PHARMACOPHORE_FEATURES>  (1) 
5
1 18 hydrophobe
3 8 10 11 cation
3 8 9 12 cation
3 9 10 13 cation
6 8 9 10 11 12 13 rings

>  <PUBCHEM_HEAVY_ATOM_COUNT>  (1) 
18

>  <PUBCHEM_ATOM_DEF_STEREO_COUNT>  (1) 
0

>  <PUBCHEM_ATOM_UDEF_STEREO_COUNT>  (1) 
0

>  <PUBCHEM_BOND_DEF_STEREO_COUNT>  (1) 
0

>  <PUBCHEM_BOND_UDEF_STEREO_COUNT>  (1) 
0

>  <PUBCHEM_ISOTOPIC_ATOM_COUNT>  (1) 
0

>  <PUBCHEM_COMPONENT_COUNT>  (1) 
1

>  <PUBCHEM_CACTVS_TAUTO_COUNT>  (1) 
1

>  <PUBCHEM_CONFORMER_ID>  (1) 
00008AFD00000001

>  <PUBCHEM_MMFF94_ENERGY>  (1) 
32.9925

>  <PUBCHEM_FEATURE_SELFOVERLAP>  (1) 
28.137

>  <PUBCHEM_SHAPE_FINGERPRINT>  (1) 
11357001 24 18191310579216294378
121448 382 18341322357973488933
12173636 292 18410572873156387708
12500047 106 18412257363972758624
12553582 1 17618235339495538134
12759256 9 17836083369144525063
12788726 201 18192977421522118034
13052359 8 18335135440155623234
13140716 1 18049451631781398857
13583140 156 17094957753742011352
14178000 22 18411130308339996244
14178342 30 18263634217067416800
14508225 48 17909818074480255669
15042514 8 18263652920747956226
16752209 62 18193541484214771746
16945 1 17977668611034712727
17539 30 18055059115292335831
204376 136 18409733936861994336
20510252 161 18343306989256914256
20645477 56 18411423925453185052
20645477 70 17977940186491874501
21041028 32 17759255371789195387
21524375 3 18411981330054765801
22224240 67 18341062860898437305
2255824 54 17907855102912199463
23402539 116 18199744911527694599
23419403 2 17052798037058000751
23526113 38 17775288248988045736
23557571 272 18056778726399547972
23598288 3 18117852220259875294
23728640 28 18337389452304955066
257057 1 17547850119322004350
2748010 2 18265352637018046631
3071541 12 17834678192957160188
3091708 16 9053355077916911040
352729 6 18337680809621540492
3759504 43 18259981591272099461
474229 33 18409169926489182585
532947 4 18052539872756363502
53917941 68 18265872787474690164
559249 180 18334564751578554466
58779409 54 18196922477710680574
59755656 520 18130236985795849520
633830 44 18057329379191785188
7364860 26 17835521518328100701
81228 2 18051406567855929953
84936 182 17984131566031869112
9709674 26 18272093825045108606
9981440 41 18262795147276376625

>  <PUBCHEM_SHAPE_MULTIPOLES>  (1) 
360.84
7.18
4.77
1.17
10.29
4.27
-0.13
-7.73
-0.46
-2.07
-0.06
-1.14
0.5
0.04

>  <PUBCHEM_SHAPE_SELFOVERLAP>  (1) 
677.735

>  <PUBCHEM_SHAPE_VOLUME>  (1) 
223.8

>  <PUBCHEM_COORDINATE_TYPE>  (1) 
2
5
10

$$$$
