3558
     RDKit          3D

 15 14  0  0  1  0  0  0  0  0999 V2000
    1.8048   -2.1141   -0.9174 Br  0  0  0  0  0  0  0  0  0  0  0  0
   -2.2201   -1.8671    1.8923 Br  0  0  0  0  0  0  0  0  0  0  0  0
    3.6041    1.9631   -0.0118 Cl  0  0  0  0  0  0  0  0  0  0  0  0
   -1.8313    2.2424    0.0204 Cl  0  0  0  0  0  0  0  0  0  0  0  0
   -4.6854    0.5153   -0.0210 Cl  0  0  0  0  0  0  0  0  0  0  0  0
    0.7518    0.3286    0.1261 C   0  0  0  0  0  0  0  0  0  0  0  0
    2.0032   -0.1625   -0.6364 C   0  0  0  0  0  0  0  0  0  0  0  0
   -0.5668   -0.1023   -0.5533 C   0  0  0  0  0  0  0  0  0  0  0  0
    3.3623    0.1601    0.0496 C   0  0  0  0  0  0  0  0  0  0  0  0
   -1.8892    0.4145    0.1037 C   0  0  0  0  0  0  0  0  0  0  0  0
    4.5614   -0.4424   -0.7019 C   0  0  0  0  0  0  0  0  0  0  0  0
    3.4193   -0.2487    1.5279 C   0  0  0  0  0  0  0  0  0  0  0  0
   -1.9774    0.0486    1.5998 C   0  0  0  0  0  0  0  0  0  0  0  0
   -3.1473   -0.0039   -0.6755 C   0  0  0  0  0  0  0  0  0  0  0  0
   -3.1894   -0.7315   -1.8025 C   0  0  0  0  0  0  0  0  0  0  0  0
  1  7  1  0
  2 13  1  0
  3  9  1  0
  4 10  1  0
  5 14  1  0
  6  7  1  0
  6  8  1  0
  7  9  1  0
  8 10  1  0
  9 11  1  0
  9 12  1  0
 10 13  1  0
 10 14  1  0
 14 15  2  0
M  END
>  <PUBCHEM_COMPOUND_CID>  (1) 
3558

>  <PUBCHEM_CONFORMER_RMSD>  (1) 
0.6

>  <PUBCHEM_CONFORMER_DIVERSEORDER>  (1) 
1
285
264
276
79
142
280
278
269
138
273
191
173
271
122
239
277
193
172
83
288
143
228
88
270
260
179
141
223
159
212
287
262
248
40
230
274
272
265
145
160
27
263
253
238
243
190
171
237
158
154
284
176
140
73
206
221
279
283
286
250
217
56
59
202
157
275
224
98
126
218
252
182
231
195
257
69
203
161
108
256
214
151
128
167
245
66
64
246
207
268
198
72
227
194
20
129
205
180
68
139
184
267
51
55
210
225
178
92
162
281
155
23
101
232
251
89
153
175
211
91
47
136
236
67
164
35
165
70
133
213
177
156
186
222
282
26
226
135
199
185
219
42
57
216
254
229
84
97
183
220
215
78
36
209
114
233
244
117
3
255
146
204
19
249
170
197
189
258
82
94
188
121
242
200
119
39
24
192
90
18
240
137
150
241
41
60
81
259
13
32
123
201
85
74
168
102
169
106
28
7
235
30
15
166
63
148
131
76
234
247
38
16
130
71
12
120
61
87
113
187
58
31
111
5
33
115
11
53
104
99
8
77
93
134
163
75
208
125
52
181
34
9
116
49
21
86
196
266
6
14
261
62
147
4
29
25
96
80
2
109
10
118
65
152
43
95
22
48
54
46
174
149
103
45
44
144
127
37
100
17
132
110
50
124
112
105
107

>  <PUBCHEM_MMFF94_PARTIAL_CHARGES>  (1) 
12
1 -0.23
10 0.43
13 0.23
15 -0.3
2 -0.23
29 0.15
3 -0.29
30 0.15
4 -0.29
5 -0.14
7 0.23
9 0.29

>  <PUBCHEM_EFFECTIVE_ROTOR_COUNT>  (1) 
6

>  <PUBCHEM_PHARMACOPHORE_FEATURES>  (1) 
3
1 1 hydrophobe
1 2 hydrophobe
3 9 11 12 hydrophobe

>  <PUBCHEM_HEAVY_ATOM_COUNT>  (1) 
15

>  <PUBCHEM_ATOM_DEF_STEREO_COUNT>  (1) 
0

>  <PUBCHEM_ATOM_UDEF_STEREO_COUNT>  (1) 
2

>  <PUBCHEM_BOND_DEF_STEREO_COUNT>  (1) 
0

>  <PUBCHEM_BOND_UDEF_STEREO_COUNT>  (1) 
0

>  <PUBCHEM_ISOTOPIC_ATOM_COUNT>  (1) 
0

>  <PUBCHEM_COMPONENT_COUNT>  (1) 
1

>  <PUBCHEM_CACTVS_TAUTO_COUNT>  (1) 
1

>  <PUBCHEM_CONFORMER_ID>  (1) 
00000DE600000001

>  <PUBCHEM_MMFF94_ENERGY>  (1) 
38.7232

>  <PUBCHEM_FEATURE_SELFOVERLAP>  (1) 
15.225

>  <PUBCHEM_SHAPE_FINGERPRINT>  (1) 
10366900 7 18411423899318884424
11132069 177 17775558762606765412
11615757 297 17060621100907006210
12346177 29 16733259153051530851
12500047 106 16805598187869857378
12596599 1 16343152431843221632
12670545 47 18334018310893648546
12916754 54 17775284975848497892
12932764 1 17845943926639574358
13296908 3 17968384540976515040
13533116 47 17895468124893243379
13581323 91 15719392832612130295
13583140 156 17677320744940369010
14289901 80 18202563964688468492
15375358 24 18334296470034404243
15775835 57 17846499210039592095
15852999 172 17603861174445203963
18186145 218 17894628166992777852
187816 3 18114178627842785501
19050596 39 17846773005535591174
19422 9 16774087271402596812
200 152 17632855321944345255
20279233 1 18260558800533046914
20528008 55 17967812760195929616
20645477 56 16515399690230984109
20645477 70 18343022173038208022
22169311 21 17385717028259461912
2306618 200 17203612545213022801
23402539 116 18187638094652626453
23557571 272 17895493516739961971
23559900 14 18040715887919640768
3248919 1 18187373099111924622
4175511 318 16660362588929346031
581208 293 18273491273911165406
633830 44 18410855468923818500
69090 78 16732698355261651851
81228 2 18263936431713874817
9709674 26 18338522945276224278

>  <PUBCHEM_SHAPE_MULTIPOLES>  (1) 
326.19
8.76
1.99
1.62
2.41
0.05
0.28
1.07
-0.61
0.13
0.26
-0.8
-0.84
0.76

>  <PUBCHEM_SHAPE_SELFOVERLAP>  (1) 
565.869

>  <PUBCHEM_SHAPE_VOLUME>  (1) 
218.5

>  <PUBCHEM_COORDINATE_TYPE>  (1) 
2
5
10

$$$$
