35596
     RDKit          3D

 10 10  0  0  0  0  0  0  0  0999 V2000
    2.0979   -1.0136   -0.0002 O   0  0  0  0  0  0  0  0  0  0  0  0
   -2.4445   -1.6431   -0.0006 O   0  0  0  0  0  0  0  0  0  0  0  0
   -0.7146    2.6117   -0.0006 O   0  0  0  0  0  0  0  0  0  0  0  0
   -0.1620   -1.3176    0.0002 N   0  0  0  0  0  0  0  0  0  0  0  0
   -1.5950    0.5062    0.0002 N   0  0  0  0  0  0  0  0  0  0  0  0
    0.7578    0.8602    0.0005 N   0  0  0  0  0  0  0  0  0  0  0  0
    0.8801   -0.4260    0.0004 C   0  0  0  0  0  0  0  0  0  0  0  0
   -1.4777   -0.8828    0.0001 C   0  0  0  0  0  0  0  0  0  0  0  0
   -0.5169    1.3962    0.0003 C   0  0  0  0  0  0  0  0  0  0  0  0
    3.1747   -0.0912   -0.0004 C   0  0  0  0  0  0  0  0  0  0  0  0
  1  7  1  0
  1 10  1  0
  2  8  2  0
  3  9  2  0
  4  7  1  0
  4  8  1  0
  5  8  1  0
  5  9  1  0
  6  7  2  0
  6  9  1  0
M  END
>  <PUBCHEM_COMPOUND_CID>  (1) 
35596

>  <PUBCHEM_CONFORMER_RMSD>  (1) 
0.4

>  <PUBCHEM_CONFORMER_DIVERSEORDER>  (1) 
1
2

>  <PUBCHEM_MMFF94_PARTIAL_CHARGES>  (1) 
12
1 -0.43
10 0.28
11 0.37
12 0.37
2 -0.57
3 -0.57
4 -0.49
5 -0.49
6 -0.66
7 0.66
8 0.69
9 0.84

>  <PUBCHEM_EFFECTIVE_ROTOR_COUNT>  (1) 
1

>  <PUBCHEM_PHARMACOPHORE_FEATURES>  (1) 
6
1 2 acceptor
1 3 acceptor
1 4 donor
1 5 donor
1 6 donor
6 4 5 6 7 8 9 rings

>  <PUBCHEM_HEAVY_ATOM_COUNT>  (1) 
10

>  <PUBCHEM_ATOM_DEF_STEREO_COUNT>  (1) 
0

>  <PUBCHEM_ATOM_UDEF_STEREO_COUNT>  (1) 
0

>  <PUBCHEM_BOND_DEF_STEREO_COUNT>  (1) 
0

>  <PUBCHEM_BOND_UDEF_STEREO_COUNT>  (1) 
0

>  <PUBCHEM_ISOTOPIC_ATOM_COUNT>  (1) 
0

>  <PUBCHEM_COMPONENT_COUNT>  (1) 
1

>  <PUBCHEM_CACTVS_TAUTO_COUNT>  (1) 
5

>  <PUBCHEM_CONFORMER_ID>  (1) 
00008B0C00000001

>  <PUBCHEM_MMFF94_ENERGY>  (1) 
21.9625

>  <PUBCHEM_FEATURE_SELFOVERLAP>  (1) 
30.566

>  <PUBCHEM_SHAPE_FINGERPRINT>  (1) 
10857977 72 18340756139549786474
16945 1 18338516313904358148
18185500 45 18338801246298269015
20871998 184 18273496753835936462
21040471 1 17906453216854302048
23552423 10 18188496761631404430
23552449 1 18411697660476354448
241688 4 18410572915847136593
2748010 2 18339635758475478421
29004967 10 18337955721824932370

>  <PUBCHEM_SHAPE_MULTIPOLES>  (1) 
173.24
3.34
2.05
0.56
2.21
1.14
0
-1.27
0
-1.12
0
0.02
0
0

>  <PUBCHEM_SHAPE_SELFOVERLAP>  (1) 
356.255

>  <PUBCHEM_SHAPE_VOLUME>  (1) 
98.4

>  <PUBCHEM_COORDINATE_TYPE>  (1) 
2
5
10

$$$$
