35590
     RDKit          3D

 16 16  0  0  0  0  0  0  0  0999 V2000
    2.6747   -2.2431    0.9423 Br  0  0  0  0  0  0  0  0  0  0  0  0
    3.2363   -0.7219   -1.8749 Br  0  0  0  0  0  0  0  0  0  0  0  0
    3.9552    0.6776    0.8999 Br  0  0  0  0  0  0  0  0  0  0  0  0
   -1.6101   -2.9844   -0.9418 Br  0  0  0  0  0  0  0  0  0  0  0  0
   -2.6491   -1.7390    1.8752 Br  0  0  0  0  0  0  0  0  0  0  0  0
   -3.7970   -0.6635   -0.8998 Br  0  0  0  0  0  0  0  0  0  0  0  0
   -0.4561    3.1066    0.0007 O   0  0  0  0  0  0  0  0  0  0  0  0
    0.2344   -0.8906   -0.0004 N   0  0  0  0  0  0  0  0  0  0  0  0
   -1.3018    0.9527   -0.0015 N   0  0  0  0  0  0  0  0  0  0  0  0
    1.0626    1.3615    0.0015 N   0  0  0  0  0  0  0  0  0  0  0  0
    1.2145    0.0274    0.0012 C   0  0  0  0  0  0  0  0  0  0  0  0
   -0.9970   -0.3550   -0.0017 C   0  0  0  0  0  0  0  0  0  0  0  0
    2.6139   -0.4869    0.0031 C   0  0  0  0  0  0  0  0  0  0  0  0
   -2.1423   -1.3093   -0.0032 C   0  0  0  0  0  0  0  0  0  0  0  0
   -0.2224    1.7513    0.0000 C   0  0  0  0  0  0  0  0  0  0  0  0
   -1.8160    3.5166   -0.0008 C   0  0  0  0  0  0  0  0  0  0  0  0
  1 13  1  0
  2 13  1  0
  3 13  1  0
  4 14  1  0
  5 14  1  0
  6 14  1  0
  7 15  1  0
  7 16  1  0
  8 11  2  0
  8 12  1  0
  9 12  2  0
  9 15  1  0
 10 11  1  0
 10 15  2  0
 11 13  1  0
 12 14  1  0
M  END
>  <PUBCHEM_COMPOUND_CID>  (1) 
35590

>  <PUBCHEM_CONFORMER_RMSD>  (1) 
0.6

>  <PUBCHEM_CONFORMER_DIVERSEORDER>  (1) 
1
3
4
2

>  <PUBCHEM_MMFF94_PARTIAL_CHARGES>  (1) 
16
1 -0.23
10 -0.62
11 0.48
12 0.48
13 0.83
14 0.83
15 0.7
16 0.28
2 -0.23
3 -0.23
4 -0.23
5 -0.23
6 -0.23
7 -0.36
8 -0.62
9 -0.62

>  <PUBCHEM_EFFECTIVE_ROTOR_COUNT>  (1) 
3

>  <PUBCHEM_PHARMACOPHORE_FEATURES>  (1) 
12
1 1 hydrophobe
1 2 hydrophobe
1 3 hydrophobe
1 4 hydrophobe
1 5 hydrophobe
1 6 hydrophobe
3 8 10 11 cation
3 8 9 12 cation
3 9 10 15 cation
4 1 2 3 13 hydrophobe
4 4 5 6 14 hydrophobe
6 8 9 10 11 12 15 rings

>  <PUBCHEM_HEAVY_ATOM_COUNT>  (1) 
16

>  <PUBCHEM_ATOM_DEF_STEREO_COUNT>  (1) 
0

>  <PUBCHEM_ATOM_UDEF_STEREO_COUNT>  (1) 
0

>  <PUBCHEM_BOND_DEF_STEREO_COUNT>  (1) 
0

>  <PUBCHEM_BOND_UDEF_STEREO_COUNT>  (1) 
0

>  <PUBCHEM_ISOTOPIC_ATOM_COUNT>  (1) 
0

>  <PUBCHEM_COMPONENT_COUNT>  (1) 
1

>  <PUBCHEM_CACTVS_TAUTO_COUNT>  (1) 
1

>  <PUBCHEM_CONFORMER_ID>  (1) 
00008B0600000001

>  <PUBCHEM_MMFF94_ENERGY>  (1) 
38.2081

>  <PUBCHEM_FEATURE_SELFOVERLAP>  (1) 
65.575

>  <PUBCHEM_SHAPE_FINGERPRINT>  (1) 
104564 63 18338528421538595399
11132069 177 18129655452104410154
12553582 1 18337963396995085954
13140716 1 18192993944165853640
13538477 17 18043261145441854652
14022347 108 18337125521842471247
14115302 16 17458338654340288258
14178342 30 18188204300370606312
14252887 29 18129391538996109338
15490181 8 17688879635388578711
16752209 62 18267584611167955958
16945 1 18334584533369497826
20510252 161 18200868474624369872
20645476 183 17828505569275752900
20645477 70 17621593247928262303
20711985 344 18267880401191133630
21041028 32 18191319366867101097
21501502 16 18265326201858057314
21524375 3 17543633032705178633
2334 1 17905327686251278436
23402539 116 18200857552933784999
23419403 2 14580160320553514978
23557571 272 18272368655559959268
23558518 356 18118119160787889235
23559900 14 18339629046095605610
23598288 3 18263085414082660226
23598291 2 17912383201138748663
23598294 1 18338807693144355402
2748010 2 18339642346976493941
34934 24 18339348777335123278
352729 6 17979072682656113089
4175511 71 18124056738653051523
6049 1 17988653943619656556
6992083 37 18129112288891507915
7364860 26 17693656326327365317
8030462 33 18260554381449555798
81228 2 18335703797473188641

>  <PUBCHEM_SHAPE_MULTIPOLES>  (1) 
344.11
6.24
3.64
1.45
2.06
2.79
0
-2.28
-0.06
-1.94
0.06
0.18
-0.95
0.24

>  <PUBCHEM_SHAPE_SELFOVERLAP>  (1) 
612.744

>  <PUBCHEM_SHAPE_VOLUME>  (1) 
232.8

>  <PUBCHEM_COORDINATE_TYPE>  (1) 
2
5
10

$$$$
