35605
     RDKit          3D

  6  5  0  0  0  0  0  0  0  0999 V2000
    1.4607   -1.4633   -0.0217 Cl  0  0  0  0  0  0  0  0  0  0  0  0
    1.4626    1.4623   -0.0221 Cl  0  0  0  0  0  0  0  0  0  0  0  0
   -1.8064    0.0006    0.8719 N   0  0  0  0  0  0  0  0  0  0  0  0
   -0.9696    0.0000   -1.3210 N   0  0  0  0  0  0  0  0  0  0  0  0
    0.6295    0.0000    0.5270 C   0  0  0  0  0  0  0  0  0  0  0  0
   -0.7767    0.0004   -0.0341 C   0  0  0  0  0  0  0  0  0  0  0  0
  1  5  1  0
  2  5  1  0
  3  6  1  0
  4  6  2  0
  5  6  1  0
M  END
>  <PUBCHEM_COMPOUND_CID>  (1) 
35605

>  <PUBCHEM_CONFORMER_RMSD>  (1) 
0.4

>  <PUBCHEM_CONFORMER_DIVERSEORDER>  (1) 
1
2
3

>  <PUBCHEM_MMFF94_PARTIAL_CHARGES>  (1) 
9
1 -0.29
10 0.4
2 -0.29
3 -0.85
4 -0.85
5 0.64
6 0.44
8 0.4
9 0.4

>  <PUBCHEM_EFFECTIVE_ROTOR_COUNT>  (1) 
1

>  <PUBCHEM_PHARMACOPHORE_FEATURES>  (1) 
3
1 3 donor
1 4 donor
3 3 4 6 cation

>  <PUBCHEM_HEAVY_ATOM_COUNT>  (1) 
6

>  <PUBCHEM_ATOM_DEF_STEREO_COUNT>  (1) 
0

>  <PUBCHEM_ATOM_UDEF_STEREO_COUNT>  (1) 
0

>  <PUBCHEM_BOND_DEF_STEREO_COUNT>  (1) 
0

>  <PUBCHEM_BOND_UDEF_STEREO_COUNT>  (1) 
0

>  <PUBCHEM_ISOTOPIC_ATOM_COUNT>  (1) 
0

>  <PUBCHEM_COMPONENT_COUNT>  (1) 
1

>  <PUBCHEM_CACTVS_TAUTO_COUNT>  (1) 
1

>  <PUBCHEM_CONFORMER_ID>  (1) 
00008B1500000001

>  <PUBCHEM_MMFF94_ENERGY>  (1) 
9.2079

>  <PUBCHEM_FEATURE_SELFOVERLAP>  (1) 
15.264

>  <PUBCHEM_SHAPE_FINGERPRINT>  (1) 
137420 1 13164360111546224296
139733 1 8789728512294249818
20096714 4 18129953402079990944
24536 1 18336530668855806897
29004967 10 18265054639402381666
5943 1 14150116674086498860

>  <PUBCHEM_SHAPE_MULTIPOLES>  (1) 
117.25
2.13
1.42
0.98
0.32
0
-0.19
0
0.2
-1.12
-0.04
0.38
0
0

>  <PUBCHEM_SHAPE_SELFOVERLAP>  (1) 
196.712

>  <PUBCHEM_SHAPE_VOLUME>  (1) 
80.9

>  <PUBCHEM_COORDINATE_TYPE>  (1) 
2
5
10

$$$$
