35607
     RDKit          3D

 15 15  0  0  0  0  0  0  0  0999 V2000
   -3.6734   -0.2544   -0.8382 Cl  0  0  0  0  0  0  0  0  0  0  0  0
   -2.9298    1.0135    1.6809 Cl  0  0  0  0  0  0  0  0  0  0  0  0
   -2.1794    2.2505   -0.8448 Cl  0  0  0  0  0  0  0  0  0  0  0  0
    3.6707   -0.2533    0.8436 Cl  0  0  0  0  0  0  0  0  0  0  0  0
    2.9353    1.0117   -1.6793 Cl  0  0  0  0  0  0  0  0  0  0  0  0
    2.1764    2.2516    0.8425 Cl  0  0  0  0  0  0  0  0  0  0  0  0
    0.0001   -3.2550    0.0008 O   0  0  0  0  0  0  0  0  0  0  0  0
    0.0000    0.6286   -0.0012 N   0  0  0  0  0  0  0  0  0  0  0  0
   -1.2338   -1.3586   -0.0010 N   0  0  0  0  0  0  0  0  0  0  0  0
    1.2340   -1.3585   -0.0002 N   0  0  0  0  0  0  0  0  0  0  0  0
   -1.1918   -0.0548   -0.0032 C   0  0  0  0  0  0  0  0  0  0  0  0
    1.1919   -0.0548    0.0004 C   0  0  0  0  0  0  0  0  0  0  0  0
   -2.4725    0.7294    0.0005 C   0  0  0  0  0  0  0  0  0  0  0  0
    2.4723    0.7294   -0.0001 C   0  0  0  0  0  0  0  0  0  0  0  0
    0.0001   -2.0255   -0.0007 C   0  0  0  0  0  0  0  0  0  0  0  0
  1 13  1  0
  2 13  1  0
  3 13  1  0
  4 14  1  0
  5 14  1  0
  6 14  1  0
  7 15  2  0
  8 11  1  0
  8 12  1  0
  9 11  2  0
  9 15  1  0
 10 12  2  0
 10 15  1  0
 11 13  1  0
 12 14  1  0
M  END
>  <PUBCHEM_COMPOUND_CID>  (1) 
35607

>  <PUBCHEM_CONFORMER_RMSD>  (1) 
0.6

>  <PUBCHEM_CONFORMER_DIVERSEORDER>  (1) 
1
3
2

>  <PUBCHEM_MMFF94_PARTIAL_CHARGES>  (1) 
16
1 -0.29
10 -0.66
11 0.44
12 0.44
13 0.93
14 0.93
15 0.99
16 0.4
2 -0.29
3 -0.29
4 -0.29
5 -0.29
6 -0.29
7 -0.57
8 -0.5
9 -0.66

>  <PUBCHEM_EFFECTIVE_ROTOR_COUNT>  (1) 
2

>  <PUBCHEM_PHARMACOPHORE_FEATURES>  (1) 
5
1 10 donor
1 7 acceptor
1 8 donor
1 9 donor
6 8 9 10 11 12 15 rings

>  <PUBCHEM_HEAVY_ATOM_COUNT>  (1) 
15

>  <PUBCHEM_ATOM_DEF_STEREO_COUNT>  (1) 
0

>  <PUBCHEM_ATOM_UDEF_STEREO_COUNT>  (1) 
0

>  <PUBCHEM_BOND_DEF_STEREO_COUNT>  (1) 
0

>  <PUBCHEM_BOND_UDEF_STEREO_COUNT>  (1) 
0

>  <PUBCHEM_ISOTOPIC_ATOM_COUNT>  (1) 
0

>  <PUBCHEM_COMPONENT_COUNT>  (1) 
1

>  <PUBCHEM_CACTVS_TAUTO_COUNT>  (1) 
3

>  <PUBCHEM_CONFORMER_ID>  (1) 
00008B1700000001

>  <PUBCHEM_MMFF94_ENERGY>  (1) 
36.8468

>  <PUBCHEM_FEATURE_SELFOVERLAP>  (1) 
25.48

>  <PUBCHEM_SHAPE_FINGERPRINT>  (1) 
1 1 18338511928721864494
12403259 226 18338785775757626916
12403260 363 18338778079176277964
12932764 1 18410578387493371268
13380535 76 18410568487593831939
13538477 17 18042121140825553686
14614273 12 18337381661313264869
14648413 74 17828768331080155909
15309172 13 18409174315745331577
15775835 57 18410579482709901828
16945 1 18410859862469666180
17802600 8 18338785775757685377
18186145 218 18130792243600188712
18219364 16 18410858715935444801
19107657 47 17603857892920955860
193761 8 17187280167739688762
20233049 118 18336542738373674664
20510252 161 18054226806475443195
20645476 183 17968666054523769422
21028194 46 18408599262283932641
21501502 16 18196646522278608912
21524375 3 18410854364911917059
21947302 44 17773869977514383320
2334 1 17906452477961619629
23402539 116 18199731704313439751
23419403 2 16675358759327753042
23526113 38 17844837882857184644
23557571 272 16271919415786275881
23559900 14 18272384088052654980
25 1 18200048256324882364
2748010 2 17836366329799962574
305870 269 18265325119093885962
3071541 158 17758400673355157774
458136 41 18193866797611163547
7364860 26 18124870153687509655
74978 22 18340207522113280224
81228 2 17905895029866962730

>  <PUBCHEM_SHAPE_MULTIPOLES>  (1) 
299.1
5.83
2.61
1.25
0
1.27
0
-2.12
0
0
0
0
-0.6
-0.25

>  <PUBCHEM_SHAPE_SELFOVERLAP>  (1) 
565.193

>  <PUBCHEM_SHAPE_VOLUME>  (1) 
186.2

>  <PUBCHEM_COORDINATE_TYPE>  (1) 
2
5
10

$$$$
