35616
     RDKit          3D

 21 23  0  0  0  0  0  0  0  0999 V2000
   -6.3993   -2.2238   -0.1724 Cl  0  0  0  0  0  0  0  0  0  0  0  0
    6.3963   -2.2262   -0.1706 Cl  0  0  0  0  0  0  0  0  0  0  0  0
    0.0030    3.9628    0.3091 O   0  0  0  0  0  0  0  0  0  0  0  0
    0.0010    0.0993   -0.0058 N   0  0  0  0  0  0  0  0  0  0  0  0
   -1.2274    2.0741    0.1672 N   0  0  0  0  0  0  0  0  0  0  0  0
    1.2315    2.0732    0.1657 N   0  0  0  0  0  0  0  0  0  0  0  0
   -1.2035    0.7708    0.0589 C   0  0  0  0  0  0  0  0  0  0  0  0
    1.2060    0.7701    0.0575 C   0  0  0  0  0  0  0  0  0  0  0  0
   -2.4945    0.0271    0.0025 C   0  0  0  0  0  0  0  0  0  0  0  0
    2.4956    0.0247   -0.0001 C   0  0  0  0  0  0  0  0  0  0  0  0
   -3.6239    0.6319   -0.5487 C   0  0  0  0  0  0  0  0  0  0  0  0
    3.6221    0.6299   -0.5524 C   0  0  0  0  0  0  0  0  0  0  0  0
   -2.5724   -1.2741    0.4993 C   0  0  0  0  0  0  0  0  0  0  0  0
    2.5700   -1.2734    0.5001 C   0  0  0  0  0  0  0  0  0  0  0  0
   -4.8315   -0.0642   -0.6029 C   0  0  0  0  0  0  0  0  0  0  0  0
    4.8295   -0.0667   -0.6049 C   0  0  0  0  0  0  0  0  0  0  0  0
   -3.7798   -1.9704    0.4450 C   0  0  0  0  0  0  0  0  0  0  0  0
    3.7774   -1.9700    0.4476 C   0  0  0  0  0  0  0  0  0  0  0  0
    0.0023    2.7369    0.2160 C   0  0  0  0  0  0  0  0  0  0  0  0
   -4.9094   -1.3654   -0.1063 C   0  0  0  0  0  0  0  0  0  0  0  0
    4.9072   -1.3665   -0.1048 C   0  0  0  0  0  0  0  0  0  0  0  0
  1 20  1  0
  2 21  1  0
  3 19  2  0
  4  7  1  0
  4  8  1  0
  5  7  2  0
  5 19  1  0
  6  8  2  0
  6 19  1  0
  7  9  1  0
  8 10  1  0
  9 11  2  0
  9 13  1  0
 10 12  2  0
 10 14  1  0
 11 15  1  0
 12 16  1  0
 13 17  2  0
 14 18  2  0
 15 20  2  0
 16 21  2  0
 17 20  1  0
 18 21  1  0
M  END
>  <PUBCHEM_COMPOUND_CID>  (1) 
35616

>  <PUBCHEM_CONFORMER_RMSD>  (1) 
0.6

>  <PUBCHEM_CONFORMER_DIVERSEORDER>  (1) 
1
2

>  <PUBCHEM_MMFF94_PARTIAL_CHARGES>  (1) 
30
1 -0.18
10 0.09
11 -0.15
12 -0.15
13 -0.15
14 -0.15
15 -0.15
16 -0.15
17 -0.15
18 -0.15
19 0.99
2 -0.18
20 0.18
21 0.18
22 0.4
23 0.15
24 0.15
25 0.15
26 0.15
27 0.15
28 0.15
29 0.15
3 -0.57
30 0.15
4 -0.5
5 -0.66
6 -0.66
7 0.41
8 0.41
9 0.09

>  <PUBCHEM_EFFECTIVE_ROTOR_COUNT>  (1) 
2

>  <PUBCHEM_PHARMACOPHORE_FEATURES>  (1) 
7
1 3 acceptor
1 4 donor
1 5 donor
1 6 donor
6 10 12 14 16 18 21 rings
6 4 5 6 7 8 19 rings
6 9 11 13 15 17 20 rings

>  <PUBCHEM_HEAVY_ATOM_COUNT>  (1) 
21

>  <PUBCHEM_ATOM_DEF_STEREO_COUNT>  (1) 
0

>  <PUBCHEM_ATOM_UDEF_STEREO_COUNT>  (1) 
0

>  <PUBCHEM_BOND_DEF_STEREO_COUNT>  (1) 
0

>  <PUBCHEM_BOND_UDEF_STEREO_COUNT>  (1) 
0

>  <PUBCHEM_ISOTOPIC_ATOM_COUNT>  (1) 
0

>  <PUBCHEM_COMPONENT_COUNT>  (1) 
1

>  <PUBCHEM_CACTVS_TAUTO_COUNT>  (1) 
3

>  <PUBCHEM_CONFORMER_ID>  (1) 
00008B2000000001

>  <PUBCHEM_MMFF94_ENERGY>  (1) 
63.2424

>  <PUBCHEM_FEATURE_SELFOVERLAP>  (1) 
35.632

>  <PUBCHEM_SHAPE_FINGERPRINT>  (1) 
10411042 1 18411982459546645209
10616163 171 18267586801991601854
11045515 52 18114182999444994140
11265709 11 18411421695837326121
12166972 35 17967256403238899814
12363563 72 18412554205624789303
12403259 118 11671484725573707075
12516196 113 18412824706944279858
12553582 1 18341319063496293414
12592606 108 18341612651415233639
12760667 363 18411139104148071339
12788726 201 18191019006512884960
13288520 33 18411419484050396967
13533116 47 18197217169214214955
13544653 18 18335146400891024616
13631057 29 18338235960663406074
13685833 64 18409168848516006691
13862211 1 18412825789271173030
13955234 65 17910676793579000641
14576447 43 18260830354942477354
14767858 380 18262532502063571516
14866123 147 18196937678359914673
14931854 50 17967811617730120675
15042514 8 18268716008606654505
15183329 4 18260822671219390271
15188451 53 16128359524517676951
15196674 1 18409166610268125227
15250474 111 17972875857277799786
15352361 1 18410573985162241019
15927050 60 17693940004875428740
17492 89 18267304219219628334
1813 80 18130803273018208861
18222031 100 18202280329237700095
18681886 176 18407757037337249634
19427546 20 18191310381885604444
19784866 240 18412268350309009307
200 152 18335138670218871750
20261772 1 17989483035184648662
20281475 54 18410016528519659017
20374829 77 18409727344144976939
20388580 30 18334862761451627500
20403669 9 18341619217380823951
20645477 56 8646473138184879662
20645477 70 18191862530016751337
20832881 197 18408604782034138259
21033650 10 16878218654314847453
21049683 271 18189906489867191405
21250096 35 18410855468728665379
21267235 1 18410299102955262819
21279426 13 18334848408134797093
221357 26 18334289903430419799
221490 88 18118690048109769019
2215653 11 18336254726604257559
22950370 63 18411423903481963225
23402539 116 18341610369600059253
23522609 53 18122941791372542065
23557571 272 18057323890698080884
23559900 14 18338227297582423257
270888 7 8935000364948620806
2871803 45 18259703393772400874
2916195 48 11242265068725198590
3004659 81 18113052727598553570
314173 41 18338802315739753591
314194 84 18339365274483868315
329604 57 18407763638227099990
335352 9 18410290277804856669
3421961 26 18341329014951342553
351380 3 18342455954335391695
4214541 1 18335138648606989277
46194498 28 17386846286852018077
463206 1 18336829796148909499
465052 167 18272374208388443783
4921388 177 15936702552930966123
5104073 3 18130787845516729144
5283173 99 18114736023733957301
5486654 36 18336277794762659465
559249 180 18411417272585435559
5718773 13 18341889749287714911
59682541 35 18272356604440883650
77188 2 18412262865124952856
7970288 3 18412824689749483054
8863177 126 17971202666989597083
9709674 26 18046906254322022819

>  <PUBCHEM_SHAPE_MULTIPOLES>  (1) 
415.1
13.98
3.2
0.73
0.04
2.4
0.02
-14.03
2.14
0
-0.47
0
-0.06
0

>  <PUBCHEM_SHAPE_SELFOVERLAP>  (1) 
891.853

>  <PUBCHEM_SHAPE_VOLUME>  (1) 
229.9

>  <PUBCHEM_COORDINATE_TYPE>  (1) 
2
5
10

$$$$
