35629
     RDKit          3D

 18 19  0  0  0  0  0  0  0  0999 V2000
   -0.6461   -2.4689    1.5929 Cl  0  0  0  0  0  0  0  0  0  0  0  0
   -3.6534    1.8012   -1.8271 Cl  0  0  0  0  0  0  0  0  0  0  0  0
   -4.9979    0.5685    0.8473 Cl  0  0  0  0  0  0  0  0  0  0  0  0
    2.0368    2.5283    1.8609 Cl  0  0  0  0  0  0  0  0  0  0  0  0
    5.2216   -0.5593   -0.8583 Cl  0  0  0  0  0  0  0  0  0  0  0  0
    0.3405   -1.1522   -0.9225 O   0  0  0  0  0  0  0  0  0  0  0  0
    2.6345   -0.8511   -0.8747 N   0  0  0  0  0  0  0  0  0  0  0  0
    1.1657    0.5729    0.3795 N   0  0  0  0  0  0  0  0  0  0  0  0
    3.5378    0.9259    0.4610 N   0  0  0  0  0  0  0  0  0  0  0  0
   -0.8967   -0.7582   -0.5066 C   0  0  0  0  0  0  0  0  0  0  0  0
   -1.4757   -1.2895    0.6460 C   0  0  0  0  0  0  0  0  0  0  0  0
   -1.5849    0.1950   -1.2571 C   0  0  0  0  0  0  0  0  0  0  0  0
   -2.8521    0.6171   -0.8551 C   0  0  0  0  0  0  0  0  0  0  0  0
   -2.7431   -0.8675    1.0480 C   0  0  0  0  0  0  0  0  0  0  0  0
   -3.4313    0.0859    0.2974 C   0  0  0  0  0  0  0  0  0  0  0  0
    1.4314   -0.4438   -0.4504 C   0  0  0  0  0  0  0  0  0  0  0  0
    2.2696    1.2139    0.7959 C   0  0  0  0  0  0  0  0  0  0  0  0
    3.6433   -0.1180   -0.3770 C   0  0  0  0  0  0  0  0  0  0  0  0
  1 11  1  0
  2 13  1  0
  3 15  1  0
  4 17  1  0
  5 18  1  0
  6 10  1  0
  6 16  1  0
  7 16  2  0
  7 18  1  0
  8 16  1  0
  8 17  2  0
  9 17  1  0
  9 18  2  0
 10 11  2  0
 10 12  1  0
 11 14  1  0
 12 13  2  0
 13 15  1  0
 14 15  2  0
M  END
>  <PUBCHEM_COMPOUND_CID>  (1) 
35629

>  <PUBCHEM_CONFORMER_RMSD>  (1) 
0.6

>  <PUBCHEM_CONFORMER_DIVERSEORDER>  (1) 
2
7
5
6
1
3
4

>  <PUBCHEM_MMFF94_PARTIAL_CHARGES>  (1) 
20
1 -0.18
10 0.08
11 0.18
12 -0.15
13 0.18
14 -0.15
15 0.18
16 0.7
17 0.8
18 0.8
19 0.15
2 -0.18
20 0.15
3 -0.18
4 -0.18
5 -0.18
6 -0.17
7 -0.62
8 -0.62
9 -0.62

>  <PUBCHEM_EFFECTIVE_ROTOR_COUNT>  (1) 
2

>  <PUBCHEM_PHARMACOPHORE_FEATURES>  (1) 
5
3 7 8 16 cation
3 7 9 18 cation
3 8 9 17 cation
6 10 11 12 13 14 15 rings
6 7 8 9 16 17 18 rings

>  <PUBCHEM_HEAVY_ATOM_COUNT>  (1) 
18

>  <PUBCHEM_ATOM_DEF_STEREO_COUNT>  (1) 
0

>  <PUBCHEM_ATOM_UDEF_STEREO_COUNT>  (1) 
0

>  <PUBCHEM_BOND_DEF_STEREO_COUNT>  (1) 
0

>  <PUBCHEM_BOND_UDEF_STEREO_COUNT>  (1) 
0

>  <PUBCHEM_ISOTOPIC_ATOM_COUNT>  (1) 
0

>  <PUBCHEM_COMPONENT_COUNT>  (1) 
1

>  <PUBCHEM_CACTVS_TAUTO_COUNT>  (1) 
1

>  <PUBCHEM_CONFORMER_ID>  (1) 
00008B2D00000002

>  <PUBCHEM_MMFF94_ENERGY>  (1) 
44.3381

>  <PUBCHEM_FEATURE_SELFOVERLAP>  (1) 
28.159

>  <PUBCHEM_SHAPE_FINGERPRINT>  (1) 
10165383 225 18188221922246829731
10366900 7 18333448763701882955
12236239 1 15985106284089355846
12403259 415 18408037412237985973
124424 183 18342460339865882630
12500047 106 18186518813100820390
12507557 5 17846780736608657682
12507560 18 18410865334548373162
12596602 18 15502384434673109437
12916754 54 17845647187433684943
13134695 92 17846498128209188072
13294875 104 18120343537382907418
15042514 8 17459771378738339443
15295992 7 18342462585690504851
15653759 3 18260548956625948250
16752209 62 17313652858758849147
16945 1 18130780127386449583
18186145 218 18343012298639128409
19049666 15 18335985250980149054
192875 21 16559037099050286232
19422 9 15719105847155390664
19433438 15 16343986914019086889
19862831 5 15267344028425377351
19930381 70 17054689420723109625
200 152 16200430264764565118
20510252 161 18040721325232322933
20645477 70 17917717898776547094
21033648 29 18261944198333041541
21069387 34 16486970717651786372
21486144 27 18271521008866239673
21618674 57 18410296887163380770
21639500 275 17632005463738444856
23175994 123 18201169779870988476
23402539 116 17967816076675885183
23493267 7 17895189978632192072
23559900 14 18260552250918871750
23598288 3 15069439593394785926
23598294 1 17022895757240831093
25 1 18342176622425633031
27216 239 17766545133860219113
3524813 1 18410007715473672845
474 4 17847061107757622417
495365 180 17753583790776995007
6049 1 18266462186079228488
74978 22 17631731702834052334
77492 1 15913332394137231606
81228 2 17755297113013278131
84936 182 17757533180556722405
90316 7 15430309188456323661
9971528 1 17132113533663695016
9981440 41 16696078205501805416

>  <PUBCHEM_SHAPE_MULTIPOLES>  (1) 
358.97
8.95
2.07
1.66
2.46
0.08
-0.3
-2.32
1.08
-0.38
-0.95
-0.08
-0.64
2.14

>  <PUBCHEM_SHAPE_SELFOVERLAP>  (1) 
727.565

>  <PUBCHEM_SHAPE_VOLUME>  (1) 
212.4

>  <PUBCHEM_COORDINATE_TYPE>  (1) 
2
5
10

$$$$
