35624
     RDKit          3D

 15 16  0  0  0  0  0  0  0  0999 V2000
    1.6977   -2.6931    0.0003 F   0  0  0  0  0  0  0  0  0  0  0  0
    4.2197    1.1194   -0.0002 F   0  0  0  0  0  0  0  0  0  0  0  0
   -0.3697    1.4148    0.0002 O   0  0  0  0  0  0  0  0  0  0  0  0
    1.9423    1.3240    0.0000 N   0  0  0  0  0  0  0  0  0  0  0  0
    0.6184   -0.6773    0.0002 N   0  0  0  0  0  0  0  0  0  0  0  0
    3.0135   -0.8232   -0.0002 N   0  0  0  0  0  0  0  0  0  0  0  0
   -1.5621    0.7590    0.0001 C   0  0  0  0  0  0  0  0  0  0  0  0
   -2.1734    0.4227    1.2080 C   0  0  0  0  0  0  0  0  0  0  0  0
   -2.1728    0.4225   -1.2081 C   0  0  0  0  0  0  0  0  0  0  0  0
   -3.3953   -0.2501    1.2079 C   0  0  0  0  0  0  0  0  0  0  0  0
   -3.3947   -0.2503   -1.2082 C   0  0  0  0  0  0  0  0  0  0  0  0
   -4.0059   -0.5866   -0.0002 C   0  0  0  0  0  0  0  0  0  0  0  0
    0.7854    0.6508    0.0002 C   0  0  0  0  0  0  0  0  0  0  0  0
    1.7793   -1.3521    0.0002 C   0  0  0  0  0  0  0  0  0  0  0  0
    3.0175    0.5196   -0.0001 C   0  0  0  0  0  0  0  0  0  0  0  0
  1 14  1  0
  2 15  1  0
  3  7  1  0
  3 13  1  0
  4 13  2  0
  4 15  1  0
  5 13  1  0
  5 14  2  0
  6 14  1  0
  6 15  2  0
  7  8  2  0
  7  9  1  0
  8 10  1  0
  9 11  2  0
 10 12  2  0
 11 12  1  0
M  END
>  <PUBCHEM_COMPOUND_CID>  (1) 
35624

>  <PUBCHEM_CONFORMER_RMSD>  (1) 
0.6

>  <PUBCHEM_CONFORMER_DIVERSEORDER>  (1) 
1
4
5
2
3
6

>  <PUBCHEM_MMFF94_PARTIAL_CHARGES>  (1) 
20
1 -0.19
10 -0.15
11 -0.15
12 -0.15
13 0.7
14 0.81
15 0.81
16 0.15
17 0.15
18 0.15
19 0.15
2 -0.19
20 0.15
3 -0.17
4 -0.62
5 -0.62
6 -0.62
7 0.08
8 -0.15
9 -0.15

>  <PUBCHEM_EFFECTIVE_ROTOR_COUNT>  (1) 
2

>  <PUBCHEM_PHARMACOPHORE_FEATURES>  (1) 
5
3 4 5 13 cation
3 4 6 15 cation
3 5 6 14 cation
6 4 5 6 13 14 15 rings
6 7 8 9 10 11 12 rings

>  <PUBCHEM_HEAVY_ATOM_COUNT>  (1) 
15

>  <PUBCHEM_ATOM_DEF_STEREO_COUNT>  (1) 
0

>  <PUBCHEM_ATOM_UDEF_STEREO_COUNT>  (1) 
0

>  <PUBCHEM_BOND_DEF_STEREO_COUNT>  (1) 
0

>  <PUBCHEM_BOND_UDEF_STEREO_COUNT>  (1) 
0

>  <PUBCHEM_ISOTOPIC_ATOM_COUNT>  (1) 
0

>  <PUBCHEM_COMPONENT_COUNT>  (1) 
1

>  <PUBCHEM_CACTVS_TAUTO_COUNT>  (1) 
1

>  <PUBCHEM_CONFORMER_ID>  (1) 
00008B2800000001

>  <PUBCHEM_MMFF94_ENERGY>  (1) 
40.0449

>  <PUBCHEM_FEATURE_SELFOVERLAP>  (1) 
28.159

>  <PUBCHEM_SHAPE_FINGERPRINT>  (1) 
107287 299 18335145301542901178
12932764 1 17632289060418463337
13296908 3 18261672575952616495
14144814 61 17632577141218197469
14251717 144 18411698802774118414
15219456 202 18186518782967139813
15375358 24 18040428889314222533
15375462 189 17988924465981376275
16945 1 18410856572640943876
18186145 218 17386287580210031897
19422 9 17632582625664600774
200 152 18343294882076130109
20201158 50 18187085057262197643
20279233 1 17821729438001165819
204376 136 18265614462915068808
20645477 70 18339632339913821191
21730867 7 18334295374685797046
22445834 79 18131072615075908627
23402539 116 16226315006555921359
23557571 272 17022900129696854381
23559900 14 16877932820452291672
25610 137 18410294713604064453
33824 294 18407760339296922171
474 4 17557971016788020904
57812782 119 17313101968683016485
581208 293 18411417323708084376
77492 1 17775849021102923533

>  <PUBCHEM_SHAPE_MULTIPOLES>  (1) 
273.33
7.09
1.56
1.02
0.52
0.82
0
0.27
0
1.37
0
-1.2
-0.04
0

>  <PUBCHEM_SHAPE_SELFOVERLAP>  (1) 
592.588

>  <PUBCHEM_SHAPE_VOLUME>  (1) 
147.7

>  <PUBCHEM_COORDINATE_TYPE>  (1) 
2
5
10

$$$$
