35626
     RDKit          3D

 16 17  0  0  0  0  0  0  0  0999 V2000
    3.6568    2.7232    0.0040 Cl  0  0  0  0  0  0  0  0  0  0  0  0
    4.3864   -2.4284    0.0283 Cl  0  0  0  0  0  0  0  0  0  0  0  0
   -0.1093   -0.4368   -0.0315 O   0  0  0  0  0  0  0  0  0  0  0  0
    2.0177   -1.3480   -0.0035 N   0  0  0  0  0  0  0  0  0  0  0  0
    1.6813    1.0278   -0.0147 N   0  0  0  0  0  0  0  0  0  0  0  0
    3.9069    0.1314    0.0138 N   0  0  0  0  0  0  0  0  0  0  0  0
   -2.3587    0.3353   -0.0171 C   0  0  0  0  0  0  0  0  0  0  0  0
   -0.9210    0.7311   -0.0451 C   0  0  0  0  0  0  0  0  0  0  0  0
   -3.0474    0.1244   -1.2117 C   0  0  0  0  0  0  0  0  0  0  0  0
   -3.0147    0.1757    1.2036 C   0  0  0  0  0  0  0  0  0  0  0  0
   -4.3919   -0.2460   -1.1857 C   0  0  0  0  0  0  0  0  0  0  0  0
   -4.3592   -0.1947    1.2294 C   0  0  0  0  0  0  0  0  0  0  0  0
   -5.0478   -0.4055    0.0348 C   0  0  0  0  0  0  0  0  0  0  0  0
    1.2473   -0.2454   -0.0158 C   0  0  0  0  0  0  0  0  0  0  0  0
    3.0195    1.1389    0.0003 C   0  0  0  0  0  0  0  0  0  0  0  0
    3.3340   -1.0831    0.0109 C   0  0  0  0  0  0  0  0  0  0  0  0
  1 15  1  0
  2 16  1  0
  3  8  1  0
  3 14  1  0
  4 14  2  0
  4 16  1  0
  5 14  1  0
  5 15  2  0
  6 15  1  0
  6 16  2  0
  7  8  1  0
  7  9  2  0
  7 10  1  0
  9 11  1  0
 10 12  2  0
 11 13  2  0
 12 13  1  0
M  END
>  <PUBCHEM_COMPOUND_CID>  (1) 
35626

>  <PUBCHEM_CONFORMER_RMSD>  (1) 
0.6

>  <PUBCHEM_CONFORMER_DIVERSEORDER>  (1) 
1
25
23
2
26
5
24
4
3
17
21
11
15
19
16
14
20
13
18
6
10
7
8
9
22
12

>  <PUBCHEM_MMFF94_PARTIAL_CHARGES>  (1) 
21
1 -0.18
10 -0.15
11 -0.15
12 -0.15
13 -0.15
14 0.7
15 0.8
16 0.8
19 0.15
2 -0.18
20 0.15
21 0.15
22 0.15
23 0.15
3 -0.36
4 -0.62
5 -0.62
6 -0.62
7 -0.14
8 0.42
9 -0.15

>  <PUBCHEM_EFFECTIVE_ROTOR_COUNT>  (1) 
3

>  <PUBCHEM_PHARMACOPHORE_FEATURES>  (1) 
5
3 4 5 14 cation
3 4 6 16 cation
3 5 6 15 cation
6 4 5 6 14 15 16 rings
6 7 9 10 11 12 13 rings

>  <PUBCHEM_HEAVY_ATOM_COUNT>  (1) 
16

>  <PUBCHEM_ATOM_DEF_STEREO_COUNT>  (1) 
0

>  <PUBCHEM_ATOM_UDEF_STEREO_COUNT>  (1) 
0

>  <PUBCHEM_BOND_DEF_STEREO_COUNT>  (1) 
0

>  <PUBCHEM_BOND_UDEF_STEREO_COUNT>  (1) 
0

>  <PUBCHEM_ISOTOPIC_ATOM_COUNT>  (1) 
0

>  <PUBCHEM_COMPONENT_COUNT>  (1) 
1

>  <PUBCHEM_CACTVS_TAUTO_COUNT>  (1) 
1

>  <PUBCHEM_CONFORMER_ID>  (1) 
00008B2A00000001

>  <PUBCHEM_MMFF94_ENERGY>  (1) 
37.5429

>  <PUBCHEM_FEATURE_SELFOVERLAP>  (1) 
28.137

>  <PUBCHEM_SHAPE_FINGERPRINT>  (1) 
10912923 1 17846782931589997603
11471102 20 18409448090072397252
11615757 297 18272370875635928209
12236239 1 17703792521954595512
12403259 415 17749107781660844237
12616971 3 18131070424663712615
12916754 54 18411698773136498407
13167823 11 18272650147405367759
13296908 3 17748828509939013733
13631057 29 17696464457634674479
13760787 5 18272087201852174909
13955234 65 18411417341362740192
15242439 84 17676486108056250727
15375358 24 17676764361844419145
15961568 22 16298955380427588868
17834072 33 18200874080020589775
17844677 252 18409733937188996653
17870717 6 16805612421724097555
1813 80 18057616365254816254
18186145 218 17603587400418305321
19026448 4 17821726139461072677
19026448 5 17846500339753082281
19050596 39 17632858611931693347
19422 9 17917712396437922895
200 152 18342452626093868059
20279233 1 17603586335366428345
20281475 54 18131062753752018687
20369508 70 18187077313842637338
204376 136 18264489657654999052
20645477 70 18335697230636894110
21065201 7 16515399655797340633
2255824 54 18413672405235720318
22646028 1 18060415798683098599
23048698 100 18272371983721614393
23532345 1 18337109068097040920
23557571 272 17095518487491957693
23559900 14 17168143416639484858
312423 11 18270412606661578568
3268164 11 15936680537187290231
474 4 18197494249838761640
5104073 3 18409449154929193753
5281201 14 18187365406767741908
573450 72 17203608164541513859
633830 44 18259980453485560961
77779 3 18411419510010039733
90127 26 18113335297760211317

>  <PUBCHEM_SHAPE_MULTIPOLES>  (1) 
312.2
11.32
1.94
0.99
4.28
0.34
-0.01
-1.93
-0.11
-4.54
-0.01
1.42
-0.01
-0.04

>  <PUBCHEM_SHAPE_SELFOVERLAP>  (1) 
646.143

>  <PUBCHEM_SHAPE_VOLUME>  (1) 
178.6

>  <PUBCHEM_COORDINATE_TYPE>  (1) 
2
5
10

$$$$
