35645
     RDKit          3D

 12 12  0  0  0  0  0  0  0  0999 V2000
    2.5995   -0.7468   -1.4622 Cl  0  0  0  0  0  0  0  0  0  0  0  0
    2.5995   -0.7470    1.4622 Cl  0  0  0  0  0  0  0  0  0  0  0  0
   -2.2432   -2.6577   -0.0002 Cl  0  0  0  0  0  0  0  0  0  0  0  0
   -2.4427    2.5409    0.0003 Cl  0  0  0  0  0  0  0  0  0  0  0  0
   -0.1957    1.2247   -0.0001 N   0  0  0  0  0  0  0  0  0  0  0  0
   -0.1038   -1.1732    0.0003 N   0  0  0  0  0  0  0  0  0  0  0  0
   -2.2263   -0.0539   -0.0001 N   0  0  0  0  0  0  0  0  0  0  0  0
    1.9425    0.1061    0.0001 C   0  0  0  0  0  0  0  0  0  0  0  0
    0.4529    0.0490    0.0001 C   0  0  0  0  0  0  0  0  0  0  0  0
    2.5958    1.5092   -0.0001 C   0  0  0  0  0  0  0  0  0  0  0  0
   -1.4463   -1.1469    0.0001 C   0  0  0  0  0  0  0  0  0  0  0  0
   -1.5323    1.0956   -0.0003 C   0  0  0  0  0  0  0  0  0  0  0  0
  1  8  1  0
  2  8  1  0
  3 11  1  0
  4 12  1  0
  5  9  2  0
  5 12  1  0
  6  9  1  0
  6 11  2  0
  7 11  1  0
  7 12  2  0
  8  9  1  0
  8 10  1  0
M  END
>  <PUBCHEM_COMPOUND_CID>  (1) 
35645

>  <PUBCHEM_CONFORMER_RMSD>  (1) 
0.4

>  <PUBCHEM_CONFORMER_DIVERSEORDER>  (1) 
1
2
3

>  <PUBCHEM_MMFF94_PARTIAL_CHARGES>  (1) 
11
1 -0.29
11 0.8
12 0.8
2 -0.29
3 -0.18
4 -0.18
5 -0.62
6 -0.62
7 -0.62
8 0.72
9 0.48

>  <PUBCHEM_EFFECTIVE_ROTOR_COUNT>  (1) 
1

>  <PUBCHEM_PHARMACOPHORE_FEATURES>  (1) 
4
3 5 6 9 cation
3 5 7 12 cation
3 6 7 11 cation
6 5 6 7 9 11 12 rings

>  <PUBCHEM_HEAVY_ATOM_COUNT>  (1) 
12

>  <PUBCHEM_ATOM_DEF_STEREO_COUNT>  (1) 
0

>  <PUBCHEM_ATOM_UDEF_STEREO_COUNT>  (1) 
0

>  <PUBCHEM_BOND_DEF_STEREO_COUNT>  (1) 
0

>  <PUBCHEM_BOND_UDEF_STEREO_COUNT>  (1) 
0

>  <PUBCHEM_ISOTOPIC_ATOM_COUNT>  (1) 
0

>  <PUBCHEM_COMPONENT_COUNT>  (1) 
1

>  <PUBCHEM_CACTVS_TAUTO_COUNT>  (1) 
1

>  <PUBCHEM_CONFORMER_ID>  (1) 
00008B3D00000001

>  <PUBCHEM_MMFF94_ENERGY>  (1) 
20.4152

>  <PUBCHEM_FEATURE_SELFOVERLAP>  (1) 
23.07

>  <PUBCHEM_SHAPE_FINGERPRINT>  (1) 
1 1 17761489193149049021
12423570 1 11815079806047653762
12524768 44 18269840967909832422
12716758 59 18342181007544907799
12932764 1 17967817128351768980
13538477 17 18259698999604021675
14252887 29 17909284807088599307
14648413 74 18271815596773789356
15279308 100 18267875990565903228
15775835 57 18041849389565403148
16945 1 18410856529728103239
18186145 218 17914051993406970049
18380122 1 17986953149091267610
19973954 147 18412831308541310788
20082192 1 18272381857935778608
20645476 183 17969802790321798454
20645477 70 16971389423339465951
20711985 344 18337121136770487415
20871998 184 18129381664670896439
20871998 22 18052834824886872087
21040471 1 18266740177679180389
21501502 16 18409444812854231304
21524375 3 17971753264289558949
22445834 79 17968643926841717690
22802520 49 18201174182001515990
23402539 116 18197472126651429181
23552423 10 18115309015357358806
23557571 272 18267025135890127684
23559900 14 18127700319147510806
2748010 2 18341897436639981109
3071541 236 18335969883966764379
3248919 1 18131910455546979568
5084963 1 17988649540713734160
74978 22 18337390448552465244
8030462 33 17894915165271109314
81228 2 18411420648260658947
88987 49 18410009901690673668

>  <PUBCHEM_SHAPE_MULTIPOLES>  (1) 
239.49
4.53
2.58
1.01
1.1
0.08
0
-0.28
0
-2.62
0
1.04
0.28
0

>  <PUBCHEM_SHAPE_SELFOVERLAP>  (1) 
454.27

>  <PUBCHEM_SHAPE_VOLUME>  (1) 
146.6

>  <PUBCHEM_COORDINATE_TYPE>  (1) 
2
5
10

$$$$
