35642
     RDKit          3D

 11 11  0  0  0  0  0  0  0  0999 V2000
   -2.9467   -0.0406   -1.6243 Br  0  0  0  0  0  0  0  0  0  0  0  0
   -2.9468   -0.0414    1.6244 Br  0  0  0  0  0  0  0  0  0  0  0  0
    1.4606    2.8903    0.0001 Cl  0  0  0  0  0  0  0  0  0  0  0  0
    2.7174   -2.1580    0.0002 Cl  0  0  0  0  0  0  0  0  0  0  0  0
    0.2490   -1.3283   -0.0003 N   0  0  0  0  0  0  0  0  0  0  0  0
   -0.3306    1.0002    0.0003 N   0  0  0  0  0  0  0  0  0  0  0  0
    1.9757    0.3379    0.0000 N   0  0  0  0  0  0  0  0  0  0  0  0
   -0.6260   -0.3098    0.0000 C   0  0  0  0  0  0  0  0  0  0  0  0
   -2.0726   -0.6699   -0.0001 C   0  0  0  0  0  0  0  0  0  0  0  0
    0.9890    1.2487    0.0002 C   0  0  0  0  0  0  0  0  0  0  0  0
    1.5311   -0.9291   -0.0004 C   0  0  0  0  0  0  0  0  0  0  0  0
  1  9  1  0
  2  9  1  0
  3 10  1  0
  4 11  1  0
  5  8  2  0
  5 11  1  0
  6  8  1  0
  6 10  2  0
  7 10  1  0
  7 11  2  0
  8  9  1  0
M  END
>  <PUBCHEM_COMPOUND_CID>  (1) 
35642

>  <PUBCHEM_CONFORMER_RMSD>  (1) 
0.4

>  <PUBCHEM_CONFORMER_DIVERSEORDER>  (1) 
1
2
3

>  <PUBCHEM_MMFF94_PARTIAL_CHARGES>  (1) 
11
1 -0.23
10 0.8
11 0.8
2 -0.23
3 -0.18
4 -0.18
5 -0.62
6 -0.62
7 -0.62
8 0.48
9 0.6

>  <PUBCHEM_EFFECTIVE_ROTOR_COUNT>  (1) 
1

>  <PUBCHEM_PHARMACOPHORE_FEATURES>  (1) 
7
1 1 hydrophobe
1 2 hydrophobe
3 1 2 9 hydrophobe
3 5 6 8 cation
3 5 7 11 cation
3 6 7 10 cation
6 5 6 7 8 10 11 rings

>  <PUBCHEM_HEAVY_ATOM_COUNT>  (1) 
11

>  <PUBCHEM_ATOM_DEF_STEREO_COUNT>  (1) 
0

>  <PUBCHEM_ATOM_UDEF_STEREO_COUNT>  (1) 
0

>  <PUBCHEM_BOND_DEF_STEREO_COUNT>  (1) 
0

>  <PUBCHEM_BOND_UDEF_STEREO_COUNT>  (1) 
0

>  <PUBCHEM_ISOTOPIC_ATOM_COUNT>  (1) 
0

>  <PUBCHEM_COMPONENT_COUNT>  (1) 
1

>  <PUBCHEM_CACTVS_TAUTO_COUNT>  (1) 
1

>  <PUBCHEM_CONFORMER_ID>  (1) 
00008B3A00000001

>  <PUBCHEM_MMFF94_ENERGY>  (1) 
14.8465

>  <PUBCHEM_FEATURE_SELFOVERLAP>  (1) 
39.567

>  <PUBCHEM_SHAPE_FINGERPRINT>  (1) 
1 1 18193835075056549028
12759256 9 18411979178381678054
12932741 1 17748823025376624527
12932764 1 17748826332480557995
16945 1 18410855503236155268
17357990 137 17344099357923445713
18380122 1 17679026156136484643
20711985 344 17759512275410648482
20715346 28 17822290236307801573
20871998 184 17695350274387708166
21040471 1 17690280838641777220
21061003 4 18189631470347203979
21524375 3 17686898727952932672
21930827 45 16515677819734009117
228727 97 17343504694089648797
23211744 41 17606389110638282041
23552423 10 18269275823270444279
2748010 2 18266733585173425988
63268167 104 18412539942217701803
81228 2 17760362189425081240

>  <PUBCHEM_SHAPE_MULTIPOLES>  (1) 
227.06
4.58
2.38
1.25
1.87
1.39
0
-1.35
0
-2.85
0
1.79
-0.03
0

>  <PUBCHEM_SHAPE_SELFOVERLAP>  (1) 
418.019

>  <PUBCHEM_SHAPE_VOLUME>  (1) 
150.3

>  <PUBCHEM_COORDINATE_TYPE>  (1) 
2
5
10

$$$$
