35643
     RDKit          3D

 10 10  0  0  0  0  0  0  0  0999 V2000
    3.5385   -0.0001   -1.0075 I   0  0  0  0  0  0  0  0  0  0  0  0
   -1.8311   -2.6014   -0.2286 Cl  0  0  0  0  0  0  0  0  0  0  0  0
   -1.8317    2.6010   -0.2283 Cl  0  0  0  0  0  0  0  0  0  0  0  0
    0.3044    1.1999    0.2769 N   0  0  0  0  0  0  0  0  0  0  0  0
    0.3045   -1.1997    0.2774 N   0  0  0  0  0  0  0  0  0  0  0  0
   -1.7177   -0.0001   -0.2017 N   0  0  0  0  0  0  0  0  0  0  0  0
    0.8913    0.0002    0.4161 C   0  0  0  0  0  0  0  0  0  0  0  0
    2.3419    0.0003    0.7594 C   0  0  0  0  0  0  0  0  0  0  0  0
   -1.0000   -1.1222   -0.0316 C   0  0  0  0  0  0  0  0  0  0  0  0
   -1.0001    1.1220   -0.0321 C   0  0  0  0  0  0  0  0  0  0  0  0
  1  8  1  0
  2  9  1  0
  3 10  1  0
  4  7  2  0
  4 10  1  0
  5  7  1  0
  5  9  2  0
  6  9  1  0
  6 10  2  0
  7  8  1  0
M  END
>  <PUBCHEM_COMPOUND_CID>  (1) 
35643

>  <PUBCHEM_CONFORMER_RMSD>  (1) 
0.4

>  <PUBCHEM_CONFORMER_DIVERSEORDER>  (1) 
1
2

>  <PUBCHEM_MMFF94_PARTIAL_CHARGES>  (1) 
10
1 -0.19
10 0.8
2 -0.18
3 -0.18
4 -0.62
5 -0.62
6 -0.62
7 0.48
8 0.33
9 0.8

>  <PUBCHEM_EFFECTIVE_ROTOR_COUNT>  (1) 
1

>  <PUBCHEM_PHARMACOPHORE_FEATURES>  (1) 
5
1 1 hydrophobe
3 4 5 7 cation
3 4 6 10 cation
3 5 6 9 cation
6 4 5 6 7 9 10 rings

>  <PUBCHEM_HEAVY_ATOM_COUNT>  (1) 
10

>  <PUBCHEM_ATOM_DEF_STEREO_COUNT>  (1) 
0

>  <PUBCHEM_ATOM_UDEF_STEREO_COUNT>  (1) 
0

>  <PUBCHEM_BOND_DEF_STEREO_COUNT>  (1) 
0

>  <PUBCHEM_BOND_UDEF_STEREO_COUNT>  (1) 
0

>  <PUBCHEM_ISOTOPIC_ATOM_COUNT>  (1) 
0

>  <PUBCHEM_COMPONENT_COUNT>  (1) 
1

>  <PUBCHEM_CACTVS_TAUTO_COUNT>  (1) 
1

>  <PUBCHEM_CONFORMER_ID>  (1) 
00008B3B00000001

>  <PUBCHEM_MMFF94_ENERGY>  (1) 
13.8053

>  <PUBCHEM_FEATURE_SELFOVERLAP>  (1) 
28.144

>  <PUBCHEM_SHAPE_FINGERPRINT>  (1) 
1 1 17618212914917111909
12138202 97 18269561554781233302
12716758 59 18342177713716428902
161256 15 18053662765769062048
16945 1 18410846668330106995
18380122 1 17771329044976250416
20645476 183 18117285761386881222
20645477 70 17042312316897971471
20653085 51 18043271071232815924
20711985 344 18410291445096983474
20871998 22 17981045528755077914
21040471 1 18194951959621276432
21524375 3 17971475096126527296
23552423 10 18189051057214785050
23557571 272 18272096032621667452
23559900 14 18129101122852173246
2748010 2 18051397763162423343
3071541 250 17831592233137538903
81228 2 18339354262139872081

>  <PUBCHEM_SHAPE_MULTIPOLES>  (1) 
206.53
4.37
2.57
0.88
4.76
0
0.06
0
1.26
-3.13
0.36
0.58
0
0

>  <PUBCHEM_SHAPE_SELFOVERLAP>  (1) 
382.444

>  <PUBCHEM_SHAPE_VOLUME>  (1) 
136.2

>  <PUBCHEM_COORDINATE_TYPE>  (1) 
2
5
10

$$$$
