35641
     RDKit          3D

 10 10  0  0  0  0  0  0  0  0999 V2000
    3.3926   -0.0001   -0.9604 Br  0  0  0  0  0  0  0  0  0  0  0  0
   -1.8218   -2.6013   -0.2030 Cl  0  0  0  0  0  0  0  0  0  0  0  0
   -1.8224    2.6011   -0.2027 Cl  0  0  0  0  0  0  0  0  0  0  0  0
    0.3240    1.1999    0.2567 N   0  0  0  0  0  0  0  0  0  0  0  0
    0.3240   -1.1997    0.2572 N   0  0  0  0  0  0  0  0  0  0  0  0
   -1.7079   -0.0001   -0.1786 N   0  0  0  0  0  0  0  0  0  0  0  0
    0.9137    0.0002    0.3833 C   0  0  0  0  0  0  0  0  0  0  0  0
    2.3713    0.0003    0.6956 C   0  0  0  0  0  0  0  0  0  0  0  0
   -0.9867   -1.1222   -0.0238 C   0  0  0  0  0  0  0  0  0  0  0  0
   -0.9868    1.1220   -0.0243 C   0  0  0  0  0  0  0  0  0  0  0  0
  1  8  1  0
  2  9  1  0
  3 10  1  0
  4  7  2  0
  4 10  1  0
  5  7  1  0
  5  9  2  0
  6  9  1  0
  6 10  2  0
  7  8  1  0
M  END
>  <PUBCHEM_COMPOUND_CID>  (1) 
35641

>  <PUBCHEM_CONFORMER_RMSD>  (1) 
0.4

>  <PUBCHEM_CONFORMER_DIVERSEORDER>  (1) 
1
2

>  <PUBCHEM_MMFF94_PARTIAL_CHARGES>  (1) 
10
1 -0.23
10 0.8
2 -0.18
3 -0.18
4 -0.62
5 -0.62
6 -0.62
7 0.48
8 0.37
9 0.8

>  <PUBCHEM_EFFECTIVE_ROTOR_COUNT>  (1) 
1

>  <PUBCHEM_PHARMACOPHORE_FEATURES>  (1) 
5
1 1 hydrophobe
3 4 5 7 cation
3 4 6 10 cation
3 5 6 9 cation
6 4 5 6 7 9 10 rings

>  <PUBCHEM_HEAVY_ATOM_COUNT>  (1) 
10

>  <PUBCHEM_ATOM_DEF_STEREO_COUNT>  (1) 
0

>  <PUBCHEM_ATOM_UDEF_STEREO_COUNT>  (1) 
0

>  <PUBCHEM_BOND_DEF_STEREO_COUNT>  (1) 
0

>  <PUBCHEM_BOND_UDEF_STEREO_COUNT>  (1) 
0

>  <PUBCHEM_ISOTOPIC_ATOM_COUNT>  (1) 
0

>  <PUBCHEM_COMPONENT_COUNT>  (1) 
1

>  <PUBCHEM_CACTVS_TAUTO_COUNT>  (1) 
1

>  <PUBCHEM_CONFORMER_ID>  (1) 
00008B3900000001

>  <PUBCHEM_MMFF94_ENERGY>  (1) 
13.5826

>  <PUBCHEM_FEATURE_SELFOVERLAP>  (1) 
28.144

>  <PUBCHEM_SHAPE_FINGERPRINT>  (1) 
1 1 17617931439972088741
12138202 97 18341619148798062230
12716758 59 18341895134912056630
14128692 85 18121505914462851374
161256 15 17981605175994459376
16945 1 18410847763557316979
20645476 183 18117005385916530110
20645477 70 17042313416425429975
20653085 51 18043552541893460276
20711985 344 18410290341264014650
20871998 22 17981045528755084426
21040471 1 18194671579887606488
21524375 3 17972034743123484496
23552423 10 18189051061483385074
23559900 14 18129101118557244926
2748010 2 18051679238149677015
81228 2 18339073886658958465

>  <PUBCHEM_SHAPE_MULTIPOLES>  (1) 
200.53
3.98
2.61
0.82
3.97
0
0.06
0
0.99
-3.08
0.29
0.48
0
0

>  <PUBCHEM_SHAPE_SELFOVERLAP>  (1) 
377.624

>  <PUBCHEM_SHAPE_VOLUME>  (1) 
130.2

>  <PUBCHEM_COORDINATE_TYPE>  (1) 
2
5
10

$$$$
