35653
     RDKit          3D

 23 25  0  0  0  0  0  0  0  0999 V2000
    5.7294    0.0276   -0.0009 Cl  0  0  0  0  0  0  0  0  0  0  0  0
    1.3754    2.3133   -0.0002 O   0  0  0  0  0  0  0  0  0  0  0  0
    1.4045   -2.3128    0.0006 O   0  0  0  0  0  0  0  0  0  0  0  0
    1.3402    0.0000    0.0002 N   0  0  0  0  0  0  0  0  0  0  0  0
    3.4258   -1.1867    0.0000 N   0  0  0  0  0  0  0  0  0  0  0  0
    3.4107    1.2128    0.0002 N   0  0  0  0  0  0  0  0  0  0  0  0
   -2.7708    2.1181    0.0001 C   0  0  0  0  0  0  0  0  0  0  0  0
   -2.7424   -2.1319   -0.0004 C   0  0  0  0  0  0  0  0  0  0  0  0
    0.0158    2.2500   -0.0008 C   0  0  0  0  0  0  0  0  0  0  0  0
    0.0276   -2.2535    0.0009 C   0  0  0  0  0  0  0  0  0  0  0  0
   -2.0738    2.1518    1.2079 C   0  0  0  0  0  0  0  0  0  0  0  0
   -2.0451   -2.1631   -1.2081 C   0  0  0  0  0  0  0  0  0  0  0  0
   -2.0745    2.1504   -1.2080 C   0  0  0  0  0  0  0  0  0  0  0  0
   -2.0460   -2.1618    1.2080 C   0  0  0  0  0  0  0  0  0  0  0  0
   -0.6805    2.2178    1.2074 C   0  0  0  0  0  0  0  0  0  0  0  0
   -0.6811    2.2162   -1.2085 C   0  0  0  0  0  0  0  0  0  0  0  0
   -0.6516   -2.2243   -1.2074 C   0  0  0  0  0  0  0  0  0  0  0  0
   -0.6526   -2.2228    1.2086 C   0  0  0  0  0  0  0  0  0  0  0  0
   -4.2603    2.0485    0.0003 C   0  0  0  0  0  0  0  0  0  0  0  0
   -4.2321   -2.0674   -0.0007 C   0  0  0  0  0  0  0  0  0  0  0  0
    2.0755    1.1185    0.0004 C   0  0  0  0  0  0  0  0  0  0  0  0
    2.0847   -1.1174    0.0002 C   0  0  0  0  0  0  0  0  0  0  0  0
    4.0212    0.0168    0.0001 C   0  0  0  0  0  0  0  0  0  0  0  0
  1 23  1  0
  2  9  1  0
  2 21  1  0
  3 10  1  0
  3 22  1  0
  4 21  2  0
  4 22  1  0
  5 22  2  0
  5 23  1  0
  6 21  1  0
  6 23  2  0
  7 11  2  0
  7 13  1  0
  7 19  1  0
  8 12  2  0
  8 14  1  0
  8 20  1  0
  9 15  2  0
  9 16  1  0
 10 17  2  0
 10 18  1  0
 11 15  1  0
 12 17  1  0
 13 16  2  0
 14 18  2  0
M  END
>  <PUBCHEM_COMPOUND_CID>  (1) 
35653

>  <PUBCHEM_CONFORMER_RMSD>  (1) 
0.8

>  <PUBCHEM_CONFORMER_DIVERSEORDER>  (1) 
1
16
11
2
27
28
25
7
4
21
9
17
8
26
5
18
10
22
14
24
12
15
23
20
13
6
3
19

>  <PUBCHEM_MMFF94_PARTIAL_CHARGES>  (1) 
31
1 -0.18
10 0.08
11 -0.15
12 -0.15
13 -0.15
14 -0.15
15 -0.15
16 -0.15
17 -0.15
18 -0.15
19 0.14
2 -0.17
20 0.14
21 0.7
22 0.7
23 0.8
24 0.15
25 0.15
26 0.15
27 0.15
28 0.15
29 0.15
3 -0.17
30 0.15
31 0.15
4 -0.62
5 -0.62
6 -0.62
7 -0.14
8 -0.14
9 0.08

>  <PUBCHEM_EFFECTIVE_ROTOR_COUNT>  (1) 
4

>  <PUBCHEM_PHARMACOPHORE_FEATURES>  (1) 
6
3 4 5 22 cation
3 4 6 21 cation
3 5 6 23 cation
6 4 5 6 21 22 23 rings
6 7 9 11 13 15 16 rings
6 8 10 12 14 17 18 rings

>  <PUBCHEM_HEAVY_ATOM_COUNT>  (1) 
23

>  <PUBCHEM_ATOM_DEF_STEREO_COUNT>  (1) 
0

>  <PUBCHEM_ATOM_UDEF_STEREO_COUNT>  (1) 
0

>  <PUBCHEM_BOND_DEF_STEREO_COUNT>  (1) 
0

>  <PUBCHEM_BOND_UDEF_STEREO_COUNT>  (1) 
0

>  <PUBCHEM_ISOTOPIC_ATOM_COUNT>  (1) 
0

>  <PUBCHEM_COMPONENT_COUNT>  (1) 
1

>  <PUBCHEM_CACTVS_TAUTO_COUNT>  (1) 
1

>  <PUBCHEM_CONFORMER_ID>  (1) 
00008B4500000001

>  <PUBCHEM_MMFF94_ENERGY>  (1) 
70.7635

>  <PUBCHEM_FEATURE_SELFOVERLAP>  (1) 
33.234

>  <PUBCHEM_SHAPE_FINGERPRINT>  (1) 
104564 63 18338803428120361556
10688039 33 18042125517581967991
1100329 8 17903347109380759162
12293681 4 18189621716223767699
12422481 6 18195556799155608003
12788726 201 18196390314415431988
13140716 1 18338787928063399448
14931854 50 18338500964213430709
17138139 8 17912605148195850277
17357779 13 18268138928184033487
17492 54 18263626395689338853
19591789 44 17185877186671833718
20775438 99 16546030082916800231
20905425 154 18340210790794408719
21041028 32 18193283115829706747
21160774 45 18336825277853370021
21197605 99 18411430514386197971
21236236 1 18410855473846500502
23419403 2 17416670526770391304
238 59 17396396344234960925
3014063 31 18339636871373057591
3052486 1 18335152981239838998
338550 245 18334022709315134917
350125 39 18339082708970631808
469060 322 17385442124319184703
5171179 24 17843670304398349504
6287921 2 17124234214016145219
6438718 38 18272929418768482607
7237137 82 18338814389816093180
81228 2 18263357143836254408

>  <PUBCHEM_SHAPE_MULTIPOLES>  (1) 
448.52
7.58
4.19
1.13
7.72
0.04
0
-0.1
0
-3.74
0
-0.71
0
0

>  <PUBCHEM_SHAPE_SELFOVERLAP>  (1) 
967.551

>  <PUBCHEM_SHAPE_VOLUME>  (1) 
245.1

>  <PUBCHEM_COORDINATE_TYPE>  (1) 
2
5
10

$$$$
