35657
     RDKit          3D

 13 13  0  0  0  0  0  0  0  0999 V2000
    4.1590    0.0000    0.0060 Cl  0  0  0  0  0  0  0  0  0  0  0  0
   -0.3825   -2.6643    0.0004 S   0  0  0  0  0  0  0  0  0  0  0  0
   -0.3824    2.6642   -0.0009 S   0  0  0  0  0  0  0  0  0  0  0  0
   -0.2298    0.0001   -0.0034 N   0  0  0  0  0  0  0  0  0  0  0  0
    1.8483    1.1997   -0.0019 N   0  0  0  0  0  0  0  0  0  0  0  0
    1.8482   -1.1998   -0.0004 N   0  0  0  0  0  0  0  0  0  0  0  0
   -2.1069   -2.0969    0.0000 C   0  0  0  0  0  0  0  0  0  0  0  0
   -2.1069    2.0969    0.0010 C   0  0  0  0  0  0  0  0  0  0  0  0
    0.5077   -1.1222   -0.0019 C   0  0  0  0  0  0  0  0  0  0  0  0
    0.5078    1.1221   -0.0034 C   0  0  0  0  0  0  0  0  0  0  0  0
   -3.0569   -3.2794    0.0018 C   0  0  0  0  0  0  0  0  0  0  0  0
   -3.0569    3.2795    0.0033 C   0  0  0  0  0  0  0  0  0  0  0  0
    2.4512    0.0000   -0.0006 C   0  0  0  0  0  0  0  0  0  0  0  0
  1 13  1  0
  2  7  1  0
  2  9  1  0
  3  8  1  0
  3 10  1  0
  4  9  2  0
  4 10  1  0
  5 10  2  0
  5 13  1  0
  6  9  1  0
  6 13  2  0
  7 11  1  0
  8 12  1  0
M  END
>  <PUBCHEM_COMPOUND_CID>  (1) 
35657

>  <PUBCHEM_CONFORMER_RMSD>  (1) 
0.6

>  <PUBCHEM_CONFORMER_DIVERSEORDER>  (1) 
1
17
9
54
53
18
40
20
3
19
50
41
31
4
39
44
21
38
30
33
43
51
24
48
37
2
45
49
10
6
32
52
35
25
47
23
36
5
11
34
42
15
28
7
16
26
22
46
29
12
27
14
8
13

>  <PUBCHEM_MMFF94_PARTIAL_CHARGES>  (1) 
11
1 -0.18
10 0.72
13 0.8
2 -0.33
3 -0.33
4 -0.62
5 -0.62
6 -0.62
7 0.23
8 0.23
9 0.72

>  <PUBCHEM_EFFECTIVE_ROTOR_COUNT>  (1) 
4

>  <PUBCHEM_PHARMACOPHORE_FEATURES>  (1) 
6
1 11 hydrophobe
1 12 hydrophobe
3 4 5 10 cation
3 4 6 9 cation
3 5 6 13 cation
6 4 5 6 9 10 13 rings

>  <PUBCHEM_HEAVY_ATOM_COUNT>  (1) 
13

>  <PUBCHEM_ATOM_DEF_STEREO_COUNT>  (1) 
0

>  <PUBCHEM_ATOM_UDEF_STEREO_COUNT>  (1) 
0

>  <PUBCHEM_BOND_DEF_STEREO_COUNT>  (1) 
0

>  <PUBCHEM_BOND_UDEF_STEREO_COUNT>  (1) 
0

>  <PUBCHEM_ISOTOPIC_ATOM_COUNT>  (1) 
0

>  <PUBCHEM_COMPONENT_COUNT>  (1) 
1

>  <PUBCHEM_CACTVS_TAUTO_COUNT>  (1) 
1

>  <PUBCHEM_CONFORMER_ID>  (1) 
00008B4900000001

>  <PUBCHEM_MMFF94_ENERGY>  (1) 
14.7854

>  <PUBCHEM_FEATURE_SELFOVERLAP>  (1) 
33.219

>  <PUBCHEM_SHAPE_FINGERPRINT>  (1) 
116883 192 18340774848227004238
13052359 8 18336820892643898080
13380535 76 18197212538717217308
14178000 15 17907859861767585815
14251717 144 17689992337241112125
20606313 2 17762335116833207311
20645477 70 17469600712037774733
21041028 32 18193837273921542447
21160774 45 18335414634752866765
21665062 11 17761226805102161851
2255824 54 17402617342111559909
23419403 2 17346022502228137008
23530152 11 18122346770185346661
23557571 272 18270975651985177348
23558518 356 18261675960719350088
2748010 2 17977405853193097299
3071541 12 16969989748798400308
33824 294 17904765471170346649
54173680 148 18410573976814893050
58779409 8 18265625285884261782
68521 5 18338521966345141886
7364860 26 17330271667347640297
81228 2 18335142046089514408
81539 233 17901670358416779900
8199 65 17689997838914506389

>  <PUBCHEM_SHAPE_MULTIPOLES>  (1) 
262.16
5.21
4.69
0.61
2.74
0
0
0
0.01
-6.53
0
-0.01
0
0

>  <PUBCHEM_SHAPE_SELFOVERLAP>  (1) 
483.2

>  <PUBCHEM_SHAPE_VOLUME>  (1) 
167.1

>  <PUBCHEM_COORDINATE_TYPE>  (1) 
2
5
10

$$$$
