35675
     RDKit          3D

 21 21  0  0  0  0  0  0  0  0999 V2000
    1.6034    2.1844   -0.1774 O   0  0  0  0  0  0  0  0  0  0  0  0
    0.2861   -2.2334    0.2101 O   0  0  0  0  0  0  0  0  0  0  0  0
   -2.8916    1.1273    0.1068 O   0  0  0  0  0  0  0  0  0  0  0  0
    0.9925   -0.0388    0.0147 N   0  0  0  0  0  0  0  0  0  0  0  0
   -0.6557    1.7043   -0.0386 N   0  0  0  0  0  0  0  0  0  0  0  0
   -1.3389   -0.5871    0.1623 N   0  0  0  0  0  0  0  0  0  0  0  0
    3.9189    2.8645   -0.3162 C   0  0  0  0  0  0  0  0  0  0  0  0
    1.8482   -4.0776    0.2580 C   0  0  0  0  0  0  0  0  0  0  0  0
   -5.2705    0.7109    0.2296 C   0  0  0  0  0  0  0  0  0  0  0  0
    2.9367    1.6955   -0.2022 C   0  0  0  0  0  0  0  0  0  0  0  0
    1.6679   -2.5596    0.1709 C   0  0  0  0  0  0  0  0  0  0  0  0
   -3.8665    0.0999    0.2277 C   0  0  0  0  0  0  0  0  0  0  0  0
    3.7967    3.8136    0.8778 C   0  0  0  0  0  0  0  0  0  0  0  0
    5.3506    2.3475   -0.4386 C   0  0  0  0  0  0  0  0  0  0  0  0
    1.1721   -4.7874   -0.9168 C   0  0  0  0  0  0  0  0  0  0  0  0
    3.3318   -4.4358    0.3117 C   0  0  0  0  0  0  0  0  0  0  0  0
   -5.5521    1.4649   -1.0718 C   0  0  0  0  0  0  0  0  0  0  0  0
   -6.3229   -0.3729    0.4533 C   0  0  0  0  0  0  0  0  0  0  0  0
    0.6058    1.2447   -0.0624 C   0  0  0  0  0  0  0  0  0  0  0  0
   -0.0332   -0.8984    0.1256 C   0  0  0  0  0  0  0  0  0  0  0  0
   -1.5793    0.7333    0.0757 C   0  0  0  0  0  0  0  0  0  0  0  0
  1 10  1  0
  1 19  1  0
  2 11  1  0
  2 20  1  0
  3 12  1  0
  3 21  1  0
  4 19  2  0
  4 20  1  0
  5 19  1  0
  5 21  2  0
  6 20  2  0
  6 21  1  0
  7 10  1  0
  7 13  1  0
  7 14  1  0
  8 11  1  0
  8 15  1  0
  8 16  1  0
  9 12  1  0
  9 17  1  0
  9 18  1  0
M  END
>  <PUBCHEM_COMPOUND_CID>  (1) 
35675

>  <PUBCHEM_CONFORMER_RMSD>  (1) 
0.8

>  <PUBCHEM_CONFORMER_DIVERSEORDER>  (1) 
1
64
51
2
63
19
35
66
65
46
38
30
49
56
69
59
72
60
28
34
48
11
78
16
7
57
76
37
52
25
44
45
3
74
47
9
12
68
18
55
58
50
23
71
54
39
14
42
8
70
27
77
13
21
67
24
41
26
4
62
75
6
22
33
36
61
73
17
32
40
53
10
31
5
15
29
20
43

>  <PUBCHEM_MMFF94_PARTIAL_CHARGES>  (1) 
12
1 -0.36
10 0.28
11 0.28
12 0.28
19 0.7
2 -0.36
20 0.7
21 0.7
3 -0.36
4 -0.62
5 -0.62
6 -0.62

>  <PUBCHEM_EFFECTIVE_ROTOR_COUNT>  (1) 
9

>  <PUBCHEM_PHARMACOPHORE_FEATURES>  (1) 
7
3 4 5 19 cation
3 4 6 20 cation
3 5 6 21 cation
3 7 13 14 hydrophobe
3 8 15 16 hydrophobe
3 9 17 18 hydrophobe
6 4 5 6 19 20 21 rings

>  <PUBCHEM_HEAVY_ATOM_COUNT>  (1) 
21

>  <PUBCHEM_ATOM_DEF_STEREO_COUNT>  (1) 
0

>  <PUBCHEM_ATOM_UDEF_STEREO_COUNT>  (1) 
0

>  <PUBCHEM_BOND_DEF_STEREO_COUNT>  (1) 
0

>  <PUBCHEM_BOND_UDEF_STEREO_COUNT>  (1) 
0

>  <PUBCHEM_ISOTOPIC_ATOM_COUNT>  (1) 
0

>  <PUBCHEM_COMPONENT_COUNT>  (1) 
1

>  <PUBCHEM_CACTVS_TAUTO_COUNT>  (1) 
1

>  <PUBCHEM_CONFORMER_ID>  (1) 
00008B5B00000001

>  <PUBCHEM_MMFF94_ENERGY>  (1) 
46.3035

>  <PUBCHEM_FEATURE_SELFOVERLAP>  (1) 
38.287

>  <PUBCHEM_SHAPE_FINGERPRINT>  (1) 
10050765 1 18337955559624107361
10411042 1 17905889175942972442
11056379 131 17400933393558509004
13540713 4 17968660407369905109
138480 1 18122345684033562722
13955234 65 18410578353402385979
13968360 50 18336822078313334759
14508225 48 17761765170303837935
14790565 3 18266739271335501452
14866123 147 17979356683712228714
15042514 8 17472707304479047890
15664445 248 17913506652840653126
15927050 60 18268431407426781902
167882 2 18408885105347878351
17539 30 17477483578710587086
17913733 40 18267319775295081027
18915476 22 18263065670223171373
20286276 3 18193844743613793313
20645477 70 18334572400756916547
21033648 29 18053942028622150064
21049683 271 18189351073665760726
21054139 6 18198336467598152887
221490 88 18263088734624889699
23559900 14 18264763256263225267
23598288 3 17393334625374372172
249999 5 18410291397809989594
3091708 16 9115003617081862418
3421961 26 18338517413796067059
38695281 34 18339079392712320014
5104073 3 18187932738527049129
532947 4 18411991247746253670
5385378 56 18410583881167973961
59755656 215 18408326579211123140
59755656 520 18267300022603693588
6025842 7 18411133619928274807
6669772 16 18342183292984669566
77188 2 17978509728740059902
9841814 1 17897159118142693723

>  <PUBCHEM_SHAPE_MULTIPOLES>  (1) 
399.62
11.53
6.41
0.78
16.49
8.65
-0.07
-9.05
-0.34
-12.46
-0.19
0.11
-0.02
0.4

>  <PUBCHEM_SHAPE_SELFOVERLAP>  (1) 
784.157

>  <PUBCHEM_SHAPE_VOLUME>  (1) 
237.6

>  <PUBCHEM_COORDINATE_TYPE>  (1) 
2
5
10

$$$$
