35679
     RDKit          3D

 10 10  0  0  0  0  0  0  0  0999 V2000
    3.3485    0.0011   -0.3180 O   0  0  0  0  0  0  0  0  0  0  0  0
   -0.6763   -0.0020   -0.1210 N   0  0  0  0  0  0  0  0  0  0  0  0
    1.4011   -1.1680    0.0356 N   0  0  0  0  0  0  0  0  0  0  0  0
    1.3989    1.1688    0.0278 N   0  0  0  0  0  0  0  0  0  0  0  0
   -2.0897   -0.0021    0.2501 C   0  0  0  0  0  0  0  0  0  0  0  0
   -0.0045   -1.1906    0.4044 C   0  0  0  0  0  0  0  0  0  0  0  0
   -0.0066    1.1912    0.3968 C   0  0  0  0  0  0  0  0  0  0  0  0
   -2.7532   -1.2575   -0.3004 C   0  0  0  0  0  0  0  0  0  0  0  0
   -2.7564    1.2585   -0.2854 C   0  0  0  0  0  0  0  0  0  0  0  0
    2.1381    0.0007   -0.0899 C   0  0  0  0  0  0  0  0  0  0  0  0
  1 10  2  0
  2  5  1  0
  2  6  1  0
  2  7  1  0
  3  6  1  0
  3 10  1  0
  4  7  1  0
  4 10  1  0
  5  8  1  0
  5  9  1  0
M  END
>  <PUBCHEM_COMPOUND_CID>  (1) 
35679

>  <PUBCHEM_CONFORMER_RMSD>  (1) 
0.4

>  <PUBCHEM_CONFORMER_DIVERSEORDER>  (1) 
1
5
2
6
3
4

>  <PUBCHEM_MMFF94_PARTIAL_CHARGES>  (1) 
10
1 -0.57
10 0.69
2 -0.81
22 0.37
23 0.37
3 -0.73
4 -0.73
5 0.27
6 0.57
7 0.57

>  <PUBCHEM_EFFECTIVE_ROTOR_COUNT>  (1) 
2

>  <PUBCHEM_PHARMACOPHORE_FEATURES>  (1) 
6
1 1 acceptor
1 2 cation
1 3 donor
1 4 donor
3 5 8 9 hydrophobe
6 2 3 4 6 7 10 rings

>  <PUBCHEM_HEAVY_ATOM_COUNT>  (1) 
10

>  <PUBCHEM_ATOM_DEF_STEREO_COUNT>  (1) 
0

>  <PUBCHEM_ATOM_UDEF_STEREO_COUNT>  (1) 
0

>  <PUBCHEM_BOND_DEF_STEREO_COUNT>  (1) 
0

>  <PUBCHEM_BOND_UDEF_STEREO_COUNT>  (1) 
0

>  <PUBCHEM_ISOTOPIC_ATOM_COUNT>  (1) 
0

>  <PUBCHEM_COMPONENT_COUNT>  (1) 
1

>  <PUBCHEM_CACTVS_TAUTO_COUNT>  (1) 
2

>  <PUBCHEM_CONFORMER_ID>  (1) 
00008B5F00000001

>  <PUBCHEM_MMFF94_ENERGY>  (1) 
17.2746

>  <PUBCHEM_FEATURE_SELFOVERLAP>  (1) 
30.489

>  <PUBCHEM_SHAPE_FINGERPRINT>  (1) 
12897270 3 18409724093044540535
12932764 1 18411138039085534515
14128692 85 18200594820946362375
14325111 11 18409449197810047180
14390081 3 18409726249028523721
15775835 57 18334580105374357661
16945 1 18410572889971714019
20201158 50 18411981351519137295
21040471 1 18336545014151999010
21293036 1 18338241560841590276
23235685 24 18407758123193640712
23402655 69 18267851797563991645
23552423 10 18334575771710105909
2748010 2 18122625217146913961
29004967 10 16630531738718518650
3248919 1 17167864179219234288
5084963 1 18270683185390350073
528886 8 18410569552908797121

>  <PUBCHEM_SHAPE_MULTIPOLES>  (1) 
184.98
4.5
1.48
0.65
0.58
0
0.02
0
-0.73
-0.56
0.03
-0.07
0
-0.01

>  <PUBCHEM_SHAPE_SELFOVERLAP>  (1) 
361.568

>  <PUBCHEM_SHAPE_VOLUME>  (1) 
110.3

>  <PUBCHEM_COORDINATE_TYPE>  (1) 
2
5
10

$$$$
