35674
     RDKit          3D

 33 33  0  0  0  0  0  0  0  0999 V2000
    3.4525    4.1743   -1.4292 Cl  0  0  0  0  0  0  0  0  0  0  0  0
    3.4167    4.0989    1.4744 Cl  0  0  0  0  0  0  0  0  0  0  0  0
   -5.7813    2.1483    1.3741 Cl  0  0  0  0  0  0  0  0  0  0  0  0
   -5.6973    2.0050   -1.5259 Cl  0  0  0  0  0  0  0  0  0  0  0  0
    0.7364   -4.5507    1.4346 Cl  0  0  0  0  0  0  0  0  0  0  0  0
    0.7280   -4.4627   -1.4689 Cl  0  0  0  0  0  0  0  0  0  0  0  0
    5.5889    1.6012   -1.4702 Cl  0  0  0  0  0  0  0  0  0  0  0  0
    5.5492    1.5123    1.4250 Cl  0  0  0  0  0  0  0  0  0  0  0  0
    6.4143    3.9243    0.0619 Cl  0  0  0  0  0  0  0  0  0  0  0  0
   -8.3445    0.6144   -0.0872 Cl  0  0  0  0  0  0  0  0  0  0  0  0
   -6.5252   -1.2407   -1.3809 Cl  0  0  0  0  0  0  0  0  0  0  0  0
   -6.6185   -1.0871    1.5102 Cl  0  0  0  0  0  0  0  0  0  0  0  0
    3.3018   -6.0293   -0.0788 Cl  0  0  0  0  0  0  0  0  0  0  0  0
    3.9544   -3.5514   -1.4421 Cl  0  0  0  0  0  0  0  0  0  0  0  0
    3.9582   -3.6528    1.4530 Cl  0  0  0  0  0  0  0  0  0  0  0  0
    1.3641    2.4629   -0.0400 O   0  0  0  0  0  0  0  0  0  0  0  0
   -3.1498    1.4510    0.0237 O   0  0  0  0  0  0  0  0  0  0  0  0
   -0.0157   -1.9518    0.0560 O   0  0  0  0  0  0  0  0  0  0  0  0
   -0.9038    2.0057   -0.0092 N   0  0  0  0  0  0  0  0  0  0  0  0
    0.7218    0.2406    0.0074 N   0  0  0  0  0  0  0  0  0  0  0  0
   -1.6194   -0.2841    0.0406 N   0  0  0  0  0  0  0  0  0  0  0  0
    3.7398    3.0910   -0.0008 C   0  0  0  0  0  0  0  0  0  0  0  0
   -5.5702    1.0020   -0.0179 C   0  0  0  0  0  0  0  0  0  0  0  0
    1.5787   -3.8213    0.0011 C   0  0  0  0  0  0  0  0  0  0  0  0
    2.6919    1.9585   -0.0438 C   0  0  0  0  0  0  0  0  0  0  0  0
   -4.1400    0.4255    0.0528 C   0  0  0  0  0  0  0  0  0  0  0  0
    1.3629   -2.2935    0.0488 C   0  0  0  0  0  0  0  0  0  0  0  0
    5.2143    2.5752    0.0038 C   0  0  0  0  0  0  0  0  0  0  0  0
   -6.6845   -0.0926    0.0041 C   0  0  0  0  0  0  0  0  0  0  0  0
    3.0844   -4.2371   -0.0156 C   0  0  0  0  0  0  0  0  0  0  0  0
    0.3525    1.5315   -0.0128 C   0  0  0  0  0  0  0  0  0  0  0  0
   -1.8437    1.0427    0.0181 C   0  0  0  0  0  0  0  0  0  0  0  0
   -0.3168   -0.6101    0.0338 C   0  0  0  0  0  0  0  0  0  0  0  0
  1 22  1  0
  2 22  1  0
  3 23  1  0
  4 23  1  0
  5 24  1  0
  6 24  1  0
  7 28  1  0
  8 28  1  0
  9 28  1  0
 10 29  1  0
 11 29  1  0
 12 29  1  0
 13 30  1  0
 14 30  1  0
 15 30  1  0
 16 25  1  0
 16 31  1  0
 17 26  1  0
 17 32  1  0
 18 27  1  0
 18 33  1  0
 19 31  2  0
 19 32  1  0
 20 31  1  0
 20 33  2  0
 21 32  2  0
 21 33  1  0
 22 25  1  0
 22 28  1  0
 23 26  1  0
 23 29  1  0
 24 27  1  0
 24 30  1  0
M  END
>  <PUBCHEM_COMPOUND_CID>  (1) 
35674

>  <PUBCHEM_CONFORMER_RMSD>  (1) 
1.4

>  <PUBCHEM_CONFORMER_DIVERSEORDER>  (1) 
1
17
16
2
12
13
4
9
8
6
15
10
11
7
14
5
3

>  <PUBCHEM_MMFF94_PARTIAL_CHARGES>  (1) 
33
1 -0.29
10 -0.29
11 -0.29
12 -0.29
13 -0.29
14 -0.29
15 -0.29
16 -0.36
17 -0.36
18 -0.36
19 -0.62
2 -0.29
20 -0.62
21 -0.62
22 0.58
23 0.58
24 0.58
25 0.28
26 0.28
27 0.28
28 0.87
29 0.87
3 -0.29
30 0.87
31 0.7
32 0.7
33 0.7
4 -0.29
5 -0.29
6 -0.29
7 -0.29
8 -0.29
9 -0.29

>  <PUBCHEM_EFFECTIVE_ROTOR_COUNT>  (1) 
12

>  <PUBCHEM_PHARMACOPHORE_FEATURES>  (1) 
4
3 19 20 31 cation
3 19 21 32 cation
3 20 21 33 cation
6 19 20 21 31 32 33 rings

>  <PUBCHEM_HEAVY_ATOM_COUNT>  (1) 
33

>  <PUBCHEM_ATOM_DEF_STEREO_COUNT>  (1) 
0

>  <PUBCHEM_ATOM_UDEF_STEREO_COUNT>  (1) 
0

>  <PUBCHEM_BOND_DEF_STEREO_COUNT>  (1) 
0

>  <PUBCHEM_BOND_UDEF_STEREO_COUNT>  (1) 
0

>  <PUBCHEM_ISOTOPIC_ATOM_COUNT>  (1) 
0

>  <PUBCHEM_COMPONENT_COUNT>  (1) 
1

>  <PUBCHEM_CACTVS_TAUTO_COUNT>  (1) 
1

>  <PUBCHEM_CONFORMER_ID>  (1) 
00008B5A00000001

>  <PUBCHEM_MMFF94_ENERGY>  (1) 
80.9566

>  <PUBCHEM_FEATURE_SELFOVERLAP>  (1) 
23.059

>  <PUBCHEM_SHAPE_FINGERPRINT>  (1) 
10050765 1 18266741282246145265
102385 1 18121215373011561397
10411042 1 17978510828157170786
11062273 19 18268429027719052636
11135926 11 18339072792212496461
11136131 41 18335411409180329667
11204353 107 18410301328134197775
11488393 25 18263635178254146885
11719270 70 18409444816959573993
11763715 3 17473848129402648926
11991303 11 18045504376463553407
12058002 1 17532682098935886393
12522641 126 18411409601167410998
12522641 33 18409729594591750220
12977781 61 17895778264967244691
13540713 4 18042122073461730781
13540713 5 18058735681198781865
1361 2 18410291398395668914
13692114 37 18196360644612468386
13968360 50 18410008875141008725
14028597 1 17774733003673600769
14150023 79 18409728490774475470
14790565 3 18194682798284037769
15183329 4 17417819495189933133
15200665 1 17980483678212772219
15347591 1 18339362956262039609
15400415 2 18194401315430529900
15927050 60 18269556194346290206
16090146 7 18195550274695018784
17913733 40 18340216292494378673
19315958 150 18335706036501570737
19319366 153 18271522091219233893
21796203 349 17908177320318523867
22311459 1 18339359768816297449
23559900 14 18265607677082804843
24771750 20 18334870428157765622
249999 5 18411135822771653043
3411729 13 18334855030293905043
38695281 34 18339361971410963310
4017518 198 18339932631848734756
4073 2 18335426790258997977
4573279 73 18270386321625556759
5109719 28 18410580599538361027
5265222 85 18120383317634461572
5385378 56 18410862053225306009
6376802 90 17895185585983214533
6669772 16 18412267267608044598
6673363 416 17764040069555526270
6679774 75 18188474866278592226
6898599 12 17541671942428277580
9658208 31 18054225707212190032

>  <PUBCHEM_SHAPE_MULTIPOLES>  (1) 
674.62
18.85
8.52
1.46
34.42
10.33
-0.01
-13.17
-0.04
-18.54
-0.03
-0.17
0.19
0.04

>  <PUBCHEM_SHAPE_SELFOVERLAP>  (1) 
1223.158

>  <PUBCHEM_SHAPE_VOLUME>  (1) 
428

>  <PUBCHEM_COORDINATE_TYPE>  (1) 
2
5
10

$$$$
