3568
     RDKit          3D

 24 25  0  0  0  0  0  0  0  0999 V2000
    0.0483    3.0646   -1.0055 O   0  0  0  0  0  0  0  0  0  0  0  0
   -0.0483   -3.0646   -1.0055 O   0  0  0  0  0  0  0  0  0  0  0  0
    0.9905   -1.5679    1.8200 O   0  0  0  0  0  0  0  0  0  0  0  0
   -0.9906    1.5679    1.8200 O   0  0  0  0  0  0  0  0  0  0  0  0
    3.7061   -1.1608    1.8186 O   0  0  0  0  0  0  0  0  0  0  0  0
   -3.7061    1.1609    1.8187 O   0  0  0  0  0  0  0  0  0  0  0  0
    4.8247    0.7190    0.1224 O   0  0  0  0  0  0  0  0  0  0  0  0
   -4.8247   -0.7191    0.1224 O   0  0  0  0  0  0  0  0  0  0  0  0
    0.7182    0.1063    0.1229 C   0  0  0  0  0  0  0  0  0  0  0  0
   -0.7183   -0.1063    0.1230 C   0  0  0  0  0  0  0  0  0  0  0  0
    1.2861    1.0526   -0.7301 C   0  0  0  0  0  0  0  0  0  0  0  0
   -1.2861   -1.0526   -0.7301 C   0  0  0  0  0  0  0  0  0  0  0  0
    1.5303   -0.6375    0.9791 C   0  0  0  0  0  0  0  0  0  0  0  0
   -1.5303    0.6375    0.9791 C   0  0  0  0  0  0  0  0  0  0  0  0
    0.4501    1.8702   -1.6620 C   0  0  0  0  0  0  0  0  0  0  0  0
   -0.4500   -1.8701   -1.6621 C   0  0  0  0  0  0  0  0  0  0  0  0
    2.6662    1.2552   -0.7268 C   0  0  0  0  0  0  0  0  0  0  0  0
   -2.6662   -1.2551   -0.7268 C   0  0  0  0  0  0  0  0  0  0  0  0
    2.9104   -0.4350    0.9822 C   0  0  0  0  0  0  0  0  0  0  0  0
   -2.9104    0.4350    0.9822 C   0  0  0  0  0  0  0  0  0  0  0  0
    3.4783    0.5114    0.1294 C   0  0  0  0  0  0  0  0  0  0  0  0
   -3.4784   -0.5114    0.1293 C   0  0  0  0  0  0  0  0  0  0  0  0
   -0.7517    3.8809   -1.8503 C   0  0  0  0  0  0  0  0  0  0  0  0
    0.7518   -3.8809   -1.8502 C   0  0  0  0  0  0  0  0  0  0  0  0
  1 15  1  0
  1 23  1  0
  2 16  1  0
  2 24  1  0
  3 13  1  0
  4 14  1  0
  5 19  1  0
  6 20  1  0
  7 21  1  0
  8 22  1  0
  9 10  1  0
  9 11  2  0
  9 13  1  0
 10 12  2  0
 10 14  1  0
 11 15  1  0
 11 17  1  0
 12 16  1  0
 12 18  1  0
 13 19  2  0
 14 20  2  0
 17 21  2  0
 18 22  2  0
 19 21  1  0
 20 22  1  0
M  END
>  <PUBCHEM_COMPOUND_CID>  (1) 
3568

>  <PUBCHEM_CONFORMER_RMSD>  (1) 
0.8

>  <PUBCHEM_CONFORMER_DIVERSEORDER>  (1) 
1
3
2
4
5
6

>  <PUBCHEM_MMFF94_PARTIAL_CHARGES>  (1) 
30
1 -0.56
11 -0.14
12 -0.14
13 0.08
14 0.08
15 0.42
16 0.42
17 -0.15
18 -0.15
19 0.08
2 -0.56
20 0.08
21 0.08
22 0.08
23 0.28
24 0.28
29 0.15
3 -0.53
30 0.15
31 0.45
32 0.45
33 0.45
34 0.45
35 0.45
36 0.45
4 -0.53
5 -0.53
6 -0.53
7 -0.53
8 -0.53

>  <PUBCHEM_EFFECTIVE_ROTOR_COUNT>  (1) 
5

>  <PUBCHEM_PHARMACOPHORE_FEATURES>  (1) 
10
1 1 acceptor
1 2 acceptor
1 3 donor
1 4 donor
1 5 donor
1 6 donor
1 7 donor
1 8 donor
6 10 12 14 18 20 22 rings
6 9 11 13 17 19 21 rings

>  <PUBCHEM_HEAVY_ATOM_COUNT>  (1) 
24

>  <PUBCHEM_ATOM_DEF_STEREO_COUNT>  (1) 
0

>  <PUBCHEM_ATOM_UDEF_STEREO_COUNT>  (1) 
0

>  <PUBCHEM_BOND_DEF_STEREO_COUNT>  (1) 
0

>  <PUBCHEM_BOND_UDEF_STEREO_COUNT>  (1) 
0

>  <PUBCHEM_ISOTOPIC_ATOM_COUNT>  (1) 
0

>  <PUBCHEM_COMPONENT_COUNT>  (1) 
1

>  <PUBCHEM_CACTVS_TAUTO_COUNT>  (1) 
383

>  <PUBCHEM_CONFORMER_ID>  (1) 
00000DF000000001

>  <PUBCHEM_MMFF94_ENERGY>  (1) 
76.2109

>  <PUBCHEM_FEATURE_SELFOVERLAP>  (1) 
50.769

>  <PUBCHEM_SHAPE_FINGERPRINT>  (1) 
10382601 240 18267037067235890634
104564 63 18114460050779183708
11370993 70 17775574152028637606
11578080 2 17693113872005555132
12236239 1 18410574019511189737
13134695 92 17968093170385137949
13583140 156 17606127418739885659
13965767 371 18124332522698544345
14863182 85 17845947298658933239
14943834 7 17617941777879138772
16945 1 17917705855002439834
1813 80 18188494554350484694
19765921 60 17256256363092645869
20028762 73 16841913017380787431
20600515 1 17346049990293527513
20645476 183 18122349248745739975
20691752 17 18265634094941761615
21197605 99 17899973829973324685
21330990 113 18127710244178154142
22182313 1 17689997830023807247
23175994 123 16877941650546492532
23402539 116 17489867176184054165
23419403 2 17335903383106005974
23559900 14 17203342091539157444
23598291 2 18121218946170176620
2748010 2 17473825022140219599
34934 24 18188484808689674108
350125 39 17267813978552513897
352729 6 17983871248311971903
43471831 8 18059577957922552927
474 4 17901384816285738608
5845 1 13718831395862084343
6992083 37 18338796839629993246
77492 1 18410574023806157019
81228 2 12388645578452677853
90525 40 18412542136793379703

>  <PUBCHEM_SHAPE_MULTIPOLES>  (1) 
446.95
6.12
3.52
1.93
0
0
-0.04
0
-2.7
0
3.16
0
0
-0.94

>  <PUBCHEM_SHAPE_SELFOVERLAP>  (1) 
966.082

>  <PUBCHEM_SHAPE_VOLUME>  (1) 
247.3

>  <PUBCHEM_COORDINATE_TYPE>  (1) 
2
5
10

$$$$
