35682
     RDKit          3D

  9  9  0  0  0  0  0  0  0  0999 V2000
    2.8705   -0.5884   -0.8452 Cl  0  0  0  0  0  0  0  0  0  0  0  0
    0.6228    2.1073    0.1307 O   0  0  0  0  0  0  0  0  0  0  0  0
    0.4582   -0.2771    0.3142 C   0  0  0  0  0  0  0  0  0  0  0  0
   -0.1226    0.9681    0.0744 C   0  0  0  0  0  0  0  0  0  0  0  0
   -0.3199   -1.4332    0.2525 C   0  0  0  0  0  0  0  0  0  0  0  0
    1.9112   -0.3916    0.6382 C   0  0  0  0  0  0  0  0  0  0  0  0
   -1.4816    1.0574   -0.2271 C   0  0  0  0  0  0  0  0  0  0  0  0
   -1.6789   -1.3439   -0.0490 C   0  0  0  0  0  0  0  0  0  0  0  0
   -2.2598   -0.0986   -0.2887 C   0  0  0  0  0  0  0  0  0  0  0  0
  1  6  1  0
  2  4  1  0
  3  4  2  0
  3  5  1  0
  3  6  1  0
  4  7  1  0
  5  8  2  0
  7  9  2  0
  8  9  1  0
M  END
>  <PUBCHEM_COMPOUND_CID>  (1) 
35682

>  <PUBCHEM_CONFORMER_RMSD>  (1) 
0.4

>  <PUBCHEM_CONFORMER_DIVERSEORDER>  (1) 
1
4
3
2

>  <PUBCHEM_MMFF94_PARTIAL_CHARGES>  (1) 
14
1 -0.29
10 0.15
13 0.15
14 0.15
15 0.15
16 0.45
2 -0.53
3 -0.14
4 0.08
5 -0.15
6 0.43
7 -0.15
8 -0.15
9 -0.15

>  <PUBCHEM_EFFECTIVE_ROTOR_COUNT>  (1) 
1

>  <PUBCHEM_PHARMACOPHORE_FEATURES>  (1) 
2
1 2 donor
6 3 4 5 7 8 9 rings

>  <PUBCHEM_HEAVY_ATOM_COUNT>  (1) 
9

>  <PUBCHEM_ATOM_DEF_STEREO_COUNT>  (1) 
0

>  <PUBCHEM_ATOM_UDEF_STEREO_COUNT>  (1) 
0

>  <PUBCHEM_BOND_DEF_STEREO_COUNT>  (1) 
0

>  <PUBCHEM_BOND_UDEF_STEREO_COUNT>  (1) 
0

>  <PUBCHEM_ISOTOPIC_ATOM_COUNT>  (1) 
0

>  <PUBCHEM_COMPONENT_COUNT>  (1) 
1

>  <PUBCHEM_CACTVS_TAUTO_COUNT>  (1) 
3

>  <PUBCHEM_CONFORMER_ID>  (1) 
00008B6200000001

>  <PUBCHEM_MMFF94_ENERGY>  (1) 
19.3221

>  <PUBCHEM_FEATURE_SELFOVERLAP>  (1) 
10.148

>  <PUBCHEM_SHAPE_FINGERPRINT>  (1) 
11206711 2 18334843996939497325
12716758 59 18339081463108044270
12897270 3 18411987923209458006
14128692 85 18339928232821119246
15310529 11 16660362541383758995
161256 15 18048042062217016779
16714656 1 18338518542918635702
16945 1 18409158905360442931
18185500 45 18262507105120018419
20653085 51 16805901580080523606
21040471 1 18049711936843117345
23552423 10 18115867592933839462
241688 4 18335696212829625105
2748010 2 18119800559259494719
29004967 10 16558742404180270082
5084963 1 18130503123718685387

>  <PUBCHEM_SHAPE_MULTIPOLES>  (1) 
181.22
3.27
1.71
0.78
1.59
0.49
-0.04
-0.69
-0.8
-0.33
0.07
0.31
-0.07
0.12

>  <PUBCHEM_SHAPE_SELFOVERLAP>  (1) 
364.755

>  <PUBCHEM_SHAPE_VOLUME>  (1) 
107.8

>  <PUBCHEM_COORDINATE_TYPE>  (1) 
2
5
10

$$$$
