35689
     RDKit          3D

 14 15  0  0  0  0  0  0  0  0999 V2000
    3.0999   -2.5276    0.3035 Cl  0  0  0  0  0  0  0  0  0  0  0  0
    0.8533    1.2166   -0.1450 N   0  0  0  0  0  0  0  0  0  0  0  0
    0.8859   -1.1658    0.1391 N   0  0  0  0  0  0  0  0  0  0  0  0
    2.9474    0.0536   -0.0052 N   0  0  0  0  0  0  0  0  0  0  0  0
   -1.1724   -0.0026   -0.0002 C   0  0  0  0  0  0  0  0  0  0  0  0
    0.2743    0.0173   -0.0023 C   0  0  0  0  0  0  0  0  0  0  0  0
   -1.8845    1.0978    0.4768 C   0  0  0  0  0  0  0  0  0  0  0  0
   -1.8551   -1.1222   -0.4755 C   0  0  0  0  0  0  0  0  0  0  0  0
    2.1947    1.1576   -0.1374 C   0  0  0  0  0  0  0  0  0  0  0  0
   -3.2792    1.0787    0.4787 C   0  0  0  0  0  0  0  0  0  0  0  0
   -3.2499   -1.1415   -0.4738 C   0  0  0  0  0  0  0  0  0  0  0  0
   -3.9619   -0.0409    0.0033 C   0  0  0  0  0  0  0  0  0  0  0  0
    2.9222    2.4496   -0.2904 C   0  0  0  0  0  0  0  0  0  0  0  0
    2.2253   -1.0705    0.1284 C   0  0  0  0  0  0  0  0  0  0  0  0
  1 14  1  0
  2  6  2  0
  2  9  1  0
  3  6  1  0
  3 14  2  0
  4  9  2  0
  4 14  1  0
  5  6  1  0
  5  7  2  0
  5  8  1  0
  7 10  1  0
  8 11  2  0
  9 13  1  0
 10 12  2  0
 11 12  1  0
M  END
>  <PUBCHEM_COMPOUND_CID>  (1) 
35689

>  <PUBCHEM_CONFORMER_RMSD>  (1) 
0.4

>  <PUBCHEM_CONFORMER_DIVERSEORDER>  (1) 
1
2
3

>  <PUBCHEM_MMFF94_PARTIAL_CHARGES>  (1) 
18
1 -0.18
10 -0.15
11 -0.15
12 -0.15
13 0.14
14 0.8
15 0.15
16 0.15
17 0.15
18 0.15
19 0.15
2 -0.62
3 -0.62
4 -0.62
6 0.62
7 -0.15
8 -0.15
9 0.48

>  <PUBCHEM_EFFECTIVE_ROTOR_COUNT>  (1) 
1

>  <PUBCHEM_PHARMACOPHORE_FEATURES>  (1) 
5
3 2 3 6 cation
3 2 4 9 cation
3 3 4 14 cation
6 2 3 4 6 9 14 rings
6 5 7 8 10 11 12 rings

>  <PUBCHEM_HEAVY_ATOM_COUNT>  (1) 
14

>  <PUBCHEM_ATOM_DEF_STEREO_COUNT>  (1) 
0

>  <PUBCHEM_ATOM_UDEF_STEREO_COUNT>  (1) 
0

>  <PUBCHEM_BOND_DEF_STEREO_COUNT>  (1) 
0

>  <PUBCHEM_BOND_UDEF_STEREO_COUNT>  (1) 
0

>  <PUBCHEM_ISOTOPIC_ATOM_COUNT>  (1) 
0

>  <PUBCHEM_COMPONENT_COUNT>  (1) 
1

>  <PUBCHEM_CACTVS_TAUTO_COUNT>  (1) 
1

>  <PUBCHEM_CONFORMER_ID>  (1) 
00008B6900000001

>  <PUBCHEM_MMFF94_ENERGY>  (1) 
34.8372

>  <PUBCHEM_FEATURE_SELFOVERLAP>  (1) 
28.155

>  <PUBCHEM_SHAPE_FINGERPRINT>  (1) 
10608611 8 18407757036683310245
10980938 120 18410012160701273816
11471102 20 18408036295166356126
11769659 78 18341605997566237223
12251169 10 18340765948970286130
12346645 44 18267585882536193724
12553582 1 18047184155585717506
12932764 1 17458337507784265899
13380535 76 18189896598825812682
14144814 61 18412826871871463211
14325111 11 18411983585134213729
14897335 6 18339640147868803285
15279307 12 18341895259155170974
15375462 189 18201444730908466819
15442244 35 18267868285151753512
15536298 74 18343582945427099722
15669948 3 17774437304123504999
15775835 57 18342183314106233317
16945 1 18408323297955848144
18186145 218 17603864481770066091
18619055 16 18413383242103863533
19422 9 18341895190741571107
20559304 39 18413669106384156992
20645477 70 18408315580074158479
20671657 1 18410860979641139748
20871998 22 18124876751258637590
21267235 1 18412554205851915367
21499 59 18118403084170343244
21501502 16 18342176669944391439
21501925 9 18339349791163559770
21524375 3 18125723628593873140
221490 88 18335711567153553138
22445834 79 18411138009042096219
2255824 54 18335704931798157314
22854114 111 18409732893195380488
22959321 4 18409730655765293707
23402655 69 18411698781584424101
23463225 33 18341049627349615719
23552423 10 18410292531654884215
23559900 14 18342166744069469666
25610 137 18266463298718338187
3071541 37 18260835933972807932
3312278 4 18196373834736433483
474 4 18116154556995364236
5104073 3 18412546505254863099
57096353 35 18198339752810355909
603831 33 18057874943264856791
6992083 37 17910124511912437536
7364860 26 18413388739751569210
74978 22 18410576158563385879
77492 1 18202565081485363041
84936 182 18200312255249029736
9709674 26 18410296934186929283
9939556 21 18341894073859981687
9981440 41 17977096083299356688

>  <PUBCHEM_SHAPE_MULTIPOLES>  (1) 
275.04
6.73
2.29
0.69
2.39
0.03
0
0.45
0.08
-2.61
-0.01
0.14
0.01
-0.82

>  <PUBCHEM_SHAPE_SELFOVERLAP>  (1) 
584.63

>  <PUBCHEM_SHAPE_VOLUME>  (1) 
151.2

>  <PUBCHEM_COORDINATE_TYPE>  (1) 
2
5
10

$$$$
