35684
     RDKit          3D

  9  9  0  0  0  0  0  0  0  0999 V2000
   -3.3100    0.0003    0.9476 Cl  0  0  0  0  0  0  0  0  0  0  0  0
    3.1483   -0.0001    0.3370 O   0  0  0  0  0  0  0  0  0  0  0  0
   -0.9460   -0.0004   -0.3454 C   0  0  0  0  0  0  0  0  0  0  0  0
   -0.2579   -1.2081   -0.2305 C   0  0  0  0  0  0  0  0  0  0  0  0
   -0.2584    1.2079   -0.2307 C   0  0  0  0  0  0  0  0  0  0  0  0
   -2.4170   -0.0004   -0.5900 C   0  0  0  0  0  0  0  0  0  0  0  0
    1.1180   -1.2077   -0.0007 C   0  0  0  0  0  0  0  0  0  0  0  0
    1.1175    1.2082   -0.0011 C   0  0  0  0  0  0  0  0  0  0  0  0
    1.8056    0.0004    0.1139 C   0  0  0  0  0  0  0  0  0  0  0  0
  1  6  1  0
  2  9  1  0
  3  4  2  0
  3  5  1  0
  3  6  1  0
  4  7  1  0
  5  8  2  0
  7  9  2  0
  8  9  1  0
M  END
>  <PUBCHEM_COMPOUND_CID>  (1) 
35684

>  <PUBCHEM_CONFORMER_RMSD>  (1) 
0.4

>  <PUBCHEM_CONFORMER_DIVERSEORDER>  (1) 
1
2

>  <PUBCHEM_MMFF94_PARTIAL_CHARGES>  (1) 
14
1 -0.29
10 0.15
11 0.15
14 0.15
15 0.15
16 0.45
2 -0.53
3 -0.14
4 -0.15
5 -0.15
6 0.43
7 -0.15
8 -0.15
9 0.08

>  <PUBCHEM_EFFECTIVE_ROTOR_COUNT>  (1) 
1

>  <PUBCHEM_PHARMACOPHORE_FEATURES>  (1) 
2
1 2 donor
6 3 4 5 7 8 9 rings

>  <PUBCHEM_HEAVY_ATOM_COUNT>  (1) 
9

>  <PUBCHEM_ATOM_DEF_STEREO_COUNT>  (1) 
0

>  <PUBCHEM_ATOM_UDEF_STEREO_COUNT>  (1) 
0

>  <PUBCHEM_BOND_DEF_STEREO_COUNT>  (1) 
0

>  <PUBCHEM_BOND_UDEF_STEREO_COUNT>  (1) 
0

>  <PUBCHEM_ISOTOPIC_ATOM_COUNT>  (1) 
0

>  <PUBCHEM_COMPONENT_COUNT>  (1) 
1

>  <PUBCHEM_CACTVS_TAUTO_COUNT>  (1) 
2

>  <PUBCHEM_CONFORMER_ID>  (1) 
00008B6400000001

>  <PUBCHEM_MMFF94_ENERGY>  (1) 
18.5154

>  <PUBCHEM_FEATURE_SELFOVERLAP>  (1) 
10.148

>  <PUBCHEM_SHAPE_FINGERPRINT>  (1) 
10219947 1 18410012139157612221
10857977 72 18113615698899873153
16945 1 18410569591452654998
21040471 1 18194959862440163836
23235685 24 18412539924969273800
23402655 69 18123446329902399645
23552423 10 18045220436418499870
2748010 2 18051122606098410206
29004967 10 18260550000287215921
5084963 1 18270387412520206533

>  <PUBCHEM_SHAPE_MULTIPOLES>  (1) 
181.22
4.19
1.27
0.8
1.42
0
-0.05
0
-1.15
-0.33
0.07
0.43
0
0

>  <PUBCHEM_SHAPE_SELFOVERLAP>  (1) 
363.87

>  <PUBCHEM_SHAPE_VOLUME>  (1) 
108.2

>  <PUBCHEM_COORDINATE_TYPE>  (1) 
2
5
10

$$$$
