35691
     RDKit          3D

 14 14  0  0  0  0  0  0  0  0999 V2000
   -0.0125    0.0297    0.7847 N   0  0  0  0  0  0  0  0  0  0  0  0
    1.2404    1.7664   -0.3203 N   0  0  0  0  0  0  0  0  0  0  0  0
   -2.3425    0.0422    0.7822 N   0  0  0  0  0  0  0  0  0  0  0  0
    2.3206    0.0201    0.7863 N   0  0  0  0  0  0  0  0  0  0  0  0
   -4.0671   -1.4693    0.3351 N   0  0  0  0  0  0  0  0  0  0  0  0
   -2.4164   -1.2836   -1.2297 N   0  0  0  0  0  0  0  0  0  0  0  0
    4.0359   -1.5033    0.3367 N   0  0  0  0  0  0  0  0  0  0  0  0
    2.3839   -1.3067   -1.2254 N   0  0  0  0  0  0  0  0  0  0  0  0
   -1.1453    0.6490    0.3930 C   0  0  0  0  0  0  0  0  0  0  0  0
   -1.1658    1.8139   -0.3467 C   0  0  0  0  0  0  0  0  0  0  0  0
    1.1277    0.6338    0.3994 C   0  0  0  0  0  0  0  0  0  0  0  0
    0.0691    2.3325   -0.6781 C   0  0  0  0  0  0  0  0  0  0  0  0
   -2.8896   -0.8491   -0.0105 C   0  0  0  0  0  0  0  0  0  0  0  0
    2.8618   -0.8755   -0.0068 C   0  0  0  0  0  0  0  0  0  0  0  0
  1  9  2  0
  1 11  1  0
  2 11  2  0
  2 12  1  0
  3  9  1  0
  3 13  2  3
  4 11  1  0
  4 14  2  3
  5 13  1  0
  6 13  1  0
  7 14  1  0
  8 14  1  0
  9 10  1  0
 10 12  2  0
M  END
>  <PUBCHEM_COMPOUND_CID>  (1) 
35691

>  <PUBCHEM_CONFORMER_RMSD>  (1) 
0.6

>  <PUBCHEM_CONFORMER_DIVERSEORDER>  (1) 
1
5
4
6
3
8
7
2

>  <PUBCHEM_MMFF94_PARTIAL_CHARGES>  (1) 
24
1 -0.62
10 -0.15
11 0.8
12 0.16
13 0.55
14 0.55
15 0.15
16 0.15
17 0.4
18 0.4
19 0.4
2 -0.62
20 0.4
21 0.4
22 0.4
23 0.4
24 0.4
3 -0.63
4 -0.63
5 -0.85
6 -0.85
7 -0.85
8 -0.85
9 0.49

>  <PUBCHEM_EFFECTIVE_ROTOR_COUNT>  (1) 
2

>  <PUBCHEM_PHARMACOPHORE_FEATURES>  (1) 
8
1 5 donor
1 6 donor
1 7 donor
1 8 donor
4 1 2 4 11 cation
4 3 5 6 13 cation
4 4 7 8 14 cation
6 1 2 9 10 11 12 rings

>  <PUBCHEM_HEAVY_ATOM_COUNT>  (1) 
14

>  <PUBCHEM_ATOM_DEF_STEREO_COUNT>  (1) 
0

>  <PUBCHEM_ATOM_UDEF_STEREO_COUNT>  (1) 
0

>  <PUBCHEM_BOND_DEF_STEREO_COUNT>  (1) 
0

>  <PUBCHEM_BOND_UDEF_STEREO_COUNT>  (1) 
0

>  <PUBCHEM_ISOTOPIC_ATOM_COUNT>  (1) 
0

>  <PUBCHEM_COMPONENT_COUNT>  (1) 
1

>  <PUBCHEM_CACTVS_TAUTO_COUNT>  (1) 
13

>  <PUBCHEM_CONFORMER_ID>  (1) 
00008B6B00000001

>  <PUBCHEM_MMFF94_ENERGY>  (1) 
49.2302

>  <PUBCHEM_FEATURE_SELFOVERLAP>  (1) 
40.748

>  <PUBCHEM_SHAPE_FINGERPRINT>  (1) 
10618630 7 18411982476900763139
11206711 2 17676764279955249389
11769659 78 18272086110550602131
12138202 97 17829319194784675052
14252887 29 18336265763952569401
14350558 41 18131357444110983995
15477762 27 18263644146340708467
16945 1 18046069525403787241
20339313 130 18336833103668502449
20361792 2 18334856129905609935
20645477 70 18118113904486585379
20653085 51 12540967439787461529
20671657 53 18259984889907287369
20711985 344 17970054565705450977
20871998 184 18270398265712795996
20871998 22 18408884061549623217
20871999 31 18187365380960871749
21061003 4 17274528842049713400
23114952 82 17386570313501703005
23402539 116 18113898205085635042
23557571 272 18339927000761792500
23559900 14 17977372838750593290
2748010 2 18261660537043851877
449060 23 18410576167021302435
7364860 26 18197500842354903264
81228 2 18189331269086606161

>  <PUBCHEM_SHAPE_MULTIPOLES>  (1) 
248.27
5.83
2.16
0.96
0.27
0.92
-0.17
-5.02
0.23
-0.09
-0.56
0
-0.16
0.02

>  <PUBCHEM_SHAPE_SELFOVERLAP>  (1) 
513.856

>  <PUBCHEM_SHAPE_VOLUME>  (1) 
136.3

>  <PUBCHEM_COORDINATE_TYPE>  (1) 
2
5
10

$$$$
