35696
     RDKit          3D

 31 33  0  0  1  0  0  0  0  0999 V2000
   -4.6525    0.1487   -0.4844 O   0  0  0  0  0  0  0  0  0  0  0  0
    4.6715    0.7254   -1.8016 O   0  0  0  0  0  0  0  0  0  0  0  0
   -4.0555   -0.4036   -2.6379 O   0  0  0  0  0  0  0  0  0  0  0  0
   -8.1624   -0.6146    0.3536 N   0  0  0  0  0  0  0  0  0  0  0  0
    5.1843    0.1237    0.4340 N   0  0  0  0  0  0  0  0  0  0  0  0
    4.7254    0.4441    1.6935 N   0  0  0  0  0  0  0  0  0  0  0  0
    2.1813    1.1865   -0.2333 N   0  0  0  0  0  0  0  0  0  0  0  0
    1.3132    2.0828   -0.1175 N   0  0  0  0  0  0  0  0  0  0  0  0
   -6.7970   -0.1513    0.5506 C   0  0  0  0  0  0  0  0  0  0  0  0
   -8.2338   -2.0745    0.4522 C   0  0  0  0  0  0  0  0  0  0  0  0
   -9.0648    0.0023    1.3289 C   0  0  0  0  0  0  0  0  0  0  0  0
    3.5076    1.6617    0.1183 C   0  0  0  0  0  0  0  0  0  0  0  0
   -5.9796   -0.3349   -0.7181 C   0  0  0  0  0  0  0  0  0  0  0  0
    3.7777    1.3141    1.5429 C   0  0  0  0  0  0  0  0  0  0  0  0
    4.5128    0.8054   -0.5949 C   0  0  0  0  0  0  0  0  0  0  0  0
   -9.6422   -2.5750    0.1799 C   0  0  0  0  0  0  0  0  0  0  0  0
   -8.6958   -0.3970    2.7475 C   0  0  0  0  0  0  0  0  0  0  0  0
    6.2044   -0.8038    0.2954 C   0  0  0  0  0  0  0  0  0  0  0  0
    3.0255    1.9273    2.6732 C   0  0  0  0  0  0  0  0  0  0  0  0
    6.6669   -1.1477   -0.9749 C   0  0  0  0  0  0  0  0  0  0  0  0
    6.7695   -1.3928    1.4264 C   0  0  0  0  0  0  0  0  0  0  0  0
   -3.7701    0.0621   -1.5266 C   0  0  0  0  0  0  0  0  0  0  0  0
   -2.4615    0.5823   -1.1641 C   0  0  0  0  0  0  0  0  0  0  0  0
    0.0490    1.5801   -0.4683 C   0  0  0  0  0  0  0  0  0  0  0  0
    7.6944   -2.0807   -1.1141 C   0  0  0  0  0  0  0  0  0  0  0  0
    7.7971   -2.3258    1.2872 C   0  0  0  0  0  0  0  0  0  0  0  0
   -1.3138    0.0621   -1.7625 C   0  0  0  0  0  0  0  0  0  0  0  0
   -2.3538    1.6015   -0.2178 C   0  0  0  0  0  0  0  0  0  0  0  0
   -0.0586    0.5610   -1.4147 C   0  0  0  0  0  0  0  0  0  0  0  0
   -1.0986    2.1004    0.1301 C   0  0  0  0  0  0  0  0  0  0  0  0
    8.2595   -2.6697    0.0169 C   0  0  0  0  0  0  0  0  0  0  0  0
  1 13  1  0
  1 22  1  0
  2 15  2  0
  3 22  2  0
  4  9  1  0
  4 10  1  0
  4 11  1  0
  5  6  1  0
  5 15  1  0
  5 18  1  0
  6 14  2  0
  7  8  2  0
  7 12  1  0
  8 24  1  0
  9 13  1  0
 10 16  1  0
 11 17  1  0
 12 14  1  0
 12 15  1  0
 14 19  1  0
 18 20  2  0
 18 21  1  0
 20 25  1  0
 21 26  2  0
 22 23  1  0
 23 27  2  0
 23 28  1  0
 24 29  2  0
 24 30  1  0
 25 31  2  0
 26 31  1  0
 27 29  1  0
 28 30  2  0
M  END
>  <PUBCHEM_COMPOUND_CID>  (1) 
35696

>  <PUBCHEM_CONFORMER_RMSD>  (1) 
1

>  <PUBCHEM_CONFORMER_DIVERSEORDER>  (1) 
1
31
60
4
14
25
35
45
19
41
33
61
9
26
27
11
29
59
20
36
18
39
2
48
52
8
46
7
63
42
34
17
3
55
10
51
23
40
58
37
32
16
57
21
44
6
53
5
65
30
12
64
28
43
24
50
13
15
56
38
49
47
54
22
62

>  <PUBCHEM_MMFF94_PARTIAL_CHARGES>  (1) 
38
1 -0.43
10 0.27
11 0.27
12 0.37
13 0.28
14 0.33
15 0.57
18 0.12
19 0.06
2 -0.57
20 -0.15
21 -0.15
22 0.63
23 0.09
24 0.18
25 -0.15
26 -0.15
27 -0.15
28 -0.15
29 -0.15
3 -0.57
30 -0.15
31 -0.15
4 -0.81
5 -0.11
50 0.15
51 0.15
52 0.15
53 0.15
54 0.15
55 0.15
56 0.15
57 0.15
58 0.15
6 -0.51
7 -0.25
8 -0.18
9 0.27

>  <PUBCHEM_EFFECTIVE_ROTOR_COUNT>  (1) 
10.4

>  <PUBCHEM_PHARMACOPHORE_FEATURES>  (1) 
7
1 2 acceptor
1 3 acceptor
1 4 cation
1 6 acceptor
5 5 6 12 14 15 rings
6 18 20 21 25 26 31 rings
6 23 24 27 28 29 30 rings

>  <PUBCHEM_HEAVY_ATOM_COUNT>  (1) 
31

>  <PUBCHEM_ATOM_DEF_STEREO_COUNT>  (1) 
0

>  <PUBCHEM_ATOM_UDEF_STEREO_COUNT>  (1) 
1

>  <PUBCHEM_BOND_DEF_STEREO_COUNT>  (1) 
0

>  <PUBCHEM_BOND_UDEF_STEREO_COUNT>  (1) 
0

>  <PUBCHEM_ISOTOPIC_ATOM_COUNT>  (1) 
0

>  <PUBCHEM_COMPONENT_COUNT>  (1) 
1

>  <PUBCHEM_CACTVS_TAUTO_COUNT>  (1) 
3

>  <PUBCHEM_CONFORMER_ID>  (1) 
00008B7000000001

>  <PUBCHEM_MMFF94_ENERGY>  (1) 
83.0945

>  <PUBCHEM_FEATURE_SELFOVERLAP>  (1) 
35.522

>  <PUBCHEM_SHAPE_FINGERPRINT>  (1) 
10280341 67 14835858210379003347
10429389 143 10375867485354644695
10533779 47 16988575575701397999
10625338 131 16271939190511955233
11408170 132 14056982937626610071
11409948 41 14924774607736862586
11411753 29 18114174233348353389
11456790 92 16988844986314966611
11578821 258 10879988078075827139
12124843 1 14996562829510010526
12539745 222 18260269617377579877
13627175 4 18187353342442445139
13668630 136 17675920984532938036
14347424 109 17418089961890787840
14444916 359 18187365415869989947
15419008 145 17560808689243719497
16991971 28 16877665682181884215
16993089 31 18040711477004500503
16994733 274 11023821764998044837
1754911 235 12251902585908163955
1818759 1 17313392223300789819
19301679 30 18272657805195088492
195137 95 14476963355085057251
20105231 36 18410856543014536190
2026 5 17822568305149470802
20982279 24 18041575649867322579
21033648 29 13110962041712914184
21130935 74 17987509493606858847
21150785 3 14129059209722686621
21267235 1 18409446964680417044
21344244 181 17894912936367680466
21362857 166 15502641673550023682
21585481 151 18408042923018766987
21781051 124 18040157322642889370
21792934 111 15841558439919087497
21867018 265 13334741254447963819
22864921 267 15913054175584625598
23576562 1 11170498854211954547
25269216 80 17822578205533748164
255183 451 17748828535461515812
3178227 256 17988922271722592894
3383291 50 18411973651054927214
397638 26 16917068871823126927
397638 5 16128379247175993035
439807 62 18113340804098364162
4403749 210 11455878192450057909
45377200 153 17385735733143146107
4616759 239 16486983921315658291
5028188 123 16588306060296379381
5104073 3 17130975637111374085
5283384 27 10519981573675831364
5937810 71 7925649812802931471
6058803 2 16984882500896045933
9980921 7 9871450033179505762
9995097 26 17167868568696916326

>  <PUBCHEM_SHAPE_MULTIPOLES>  (1) 
595.45
33.01
2.54
2.16
40.01
0.87
0.6
31.51
13.01
-2.59
0.56
0.95
-0.26
0.91

>  <PUBCHEM_SHAPE_SELFOVERLAP>  (1) 
1259.37

>  <PUBCHEM_SHAPE_VOLUME>  (1) 
335.2

>  <PUBCHEM_COORDINATE_TYPE>  (1) 
2
5
10

$$$$
