35698
     RDKit          3D

 11 10  0  0  0  0  0  0  0  0999 V2000
    4.9244    0.2006   -0.4414 O   0  0  0  0  0  0  0  0  0  0  0  0
    3.6947   -1.3984    0.6001 O   0  0  0  0  0  0  0  0  0  0  0  0
    0.0726    0.9447   -0.1470 C   0  0  0  0  0  0  0  0  0  0  0  0
   -1.2816    0.4008    0.3197 C   0  0  0  0  0  0  0  0  0  0  0  0
    1.2505    0.0328    0.2128 C   0  0  0  0  0  0  0  0  0  0  0  0
   -2.5107    1.2278   -0.0805 C   0  0  0  0  0  0  0  0  0  0  0  0
    2.5790    0.5538   -0.3381 C   0  0  0  0  0  0  0  0  0  0  0  0
   -3.8492    0.7097    0.4491 C   0  0  0  0  0  0  0  0  0  0  0  0
    3.7554   -0.3365   -0.0037 C   0  0  0  0  0  0  0  0  0  0  0  0
   -4.1803   -0.6232   -0.0733 C   0  0  0  0  0  0  0  0  0  0  0  0
   -4.4548   -1.7121   -0.4976 C   0  0  0  0  0  0  0  0  0  0  0  0
  1  9  1  0
  2  9  2  0
  3  4  1  0
  3  5  1  0
  4  6  1  0
  5  7  1  0
  6  8  1  0
  7  9  1  0
  8 10  1  0
 10 11  3  0
M  END
>  <PUBCHEM_COMPOUND_CID>  (1) 
35698

>  <PUBCHEM_CONFORMER_RMSD>  (1) 
0.6

>  <PUBCHEM_CONFORMER_DIVERSEORDER>  (1) 
1
140
136
57
153
19
176
129
45
119
2
171
165
163
22
64
150
166
18
160
29
169
82
86
88
5
70
77
149
73
104
21
175
27
137
180
120
40
128
71
139
178
10
24
107
44
62
103
170
162
30
159
41
47
117
3
152
8
161
34
135
123
65
138
167
97
96
67
112
68
156
4
55
134
9
76
110
83
36
11
155
7
16
143
122
157
54
154
50
151
147
177
141
164
61
42
179
35
23
126
66
158
75
130
100
12
108
148
174
146
114
33
144
49
93
131
43
168
6
79
116
15
124
99
115
125
26
145
72
101
46
173
17
118
132
109
121
13
106
89
60
102
98
133
25
111
51
14
53
80
113
32
127
28
90
69
91
56
142
58
37
92
85
48
63
95
105
39
38
172
74
31
78
84
52
20
87
59
94
81

>  <PUBCHEM_MMFF94_PARTIAL_CHARGES>  (1) 
9
1 -0.65
10 -0.2
11 -0.18
2 -0.57
24 0.5
25 0.18
7 0.06
8 0.2
9 0.66

>  <PUBCHEM_EFFECTIVE_ROTOR_COUNT>  (1) 
6

>  <PUBCHEM_PHARMACOPHORE_FEATURES>  (1) 
4
1 1 acceptor
1 11 hydrophobe
1 2 acceptor
3 1 2 9 anion

>  <PUBCHEM_HEAVY_ATOM_COUNT>  (1) 
11

>  <PUBCHEM_ATOM_DEF_STEREO_COUNT>  (1) 
0

>  <PUBCHEM_ATOM_UDEF_STEREO_COUNT>  (1) 
0

>  <PUBCHEM_BOND_DEF_STEREO_COUNT>  (1) 
0

>  <PUBCHEM_BOND_UDEF_STEREO_COUNT>  (1) 
0

>  <PUBCHEM_ISOTOPIC_ATOM_COUNT>  (1) 
0

>  <PUBCHEM_COMPONENT_COUNT>  (1) 
1

>  <PUBCHEM_CACTVS_TAUTO_COUNT>  (1) 
1

>  <PUBCHEM_CONFORMER_ID>  (1) 
00008B7200000001

>  <PUBCHEM_MMFF94_ENERGY>  (1) 
3.1673

>  <PUBCHEM_FEATURE_SELFOVERLAP>  (1) 
20.356

>  <PUBCHEM_SHAPE_FINGERPRINT>  (1) 
100836 57 8070035488674299159
10912923 1 18409170991440774560
11046707 91 18342173384531773841
11159736 12 18334847295089778179
11987891 27 18333450936770523470
11987891 38 18411420591972669611
12757275 245 18412545448798668743
13167823 11 18410573976561756899
14123238 8 18408887343226267204
14251718 22 18342179994491905628
14252887 29 16128383657580054012
14455015 7 16486987163213347148
17834072 32 9438589893864440299
17834072 33 18408889568114467124
18186145 218 15068629300696550333
18915474 69 18333731342411322503
20621476 21 17845675731544254702
20645477 70 14851877011498680448
20724930 69 8718835292691016813
20828058 21 18060703874998156580
20828058 44 18059859454494808585
22485316 2 18408884010104876609
23402539 116 17822007592767930589
23402655 69 17968374546355846541
573450 72 18339074891771080545
7062679 117 18409735100850664806

>  <PUBCHEM_SHAPE_MULTIPOLES>  (1) 
214.64
11.04
1.39
0.71
2.9
0.39
-0.01
3.93
0.62
-1.21
0.04
0
0.03
-0.72

>  <PUBCHEM_SHAPE_SELFOVERLAP>  (1) 
393.795

>  <PUBCHEM_SHAPE_VOLUME>  (1) 
134.7

>  <PUBCHEM_COORDINATE_TYPE>  (1) 
2
5
10

$$$$
