35693
     RDKit          3D

 19 19  0  0  0  0  0  0  0  0999 V2000
   -1.6886   -0.8664    0.6346 N   0  0  0  0  0  0  0  0  0  0  0  0
    0.9663   -1.5046   -0.2263 N   0  0  0  0  0  0  0  0  0  0  0  0
   -3.7668   -0.0453   -0.0971 N   0  0  0  0  0  0  0  0  0  0  0  0
    3.3030   -1.1658   -0.0032 N   0  0  0  0  0  0  0  0  0  0  0  0
   -2.7628    0.6352    1.9700 N   0  0  0  0  0  0  0  0  0  0  0  0
   -7.0724    1.5318   -0.7116 N   0  0  0  0  0  0  0  0  0  0  0  0
    2.5264   -3.2976   -0.0269 N   0  0  0  0  0  0  0  0  0  0  0  0
    2.3132    0.9924   -0.1990 N   0  0  0  0  0  0  0  0  0  0  0  0
   -1.4390   -1.7306   -0.4945 C   0  0  0  0  0  0  0  0  0  0  0  0
   -0.1255   -2.4772   -0.3107 C   0  0  0  0  0  0  0  0  0  0  0  0
   -2.8150   -0.0752    0.7887 C   0  0  0  0  0  0  0  0  0  0  0  0
   -4.9034    0.8255    0.1726 C   0  0  0  0  0  0  0  0  0  0  0  0
   -5.9072    0.6941   -0.9640 C   0  0  0  0  0  0  0  0  0  0  0  0
    2.1693   -1.9631   -0.0892 C   0  0  0  0  0  0  0  0  0  0  0  0
    3.4297    0.2390   -0.0583 C   0  0  0  0  0  0  0  0  0  0  0  0
    4.7088    0.7693    0.0366 C   0  0  0  0  0  0  0  0  0  0  0  0
    4.8500    2.1516   -0.0158 C   0  0  0  0  0  0  0  0  0  0  0  0
    3.7242    2.9550   -0.1597 C   0  0  0  0  0  0  0  0  0  0  0  0
    2.4897    2.3319   -0.2462 C   0  0  0  0  0  0  0  0  0  0  0  0
  1  9  1  0
  1 11  1  0
  2 10  1  0
  2 14  2  0
  3 11  2  0
  3 12  1  0
  4 14  1  0
  4 15  1  0
  5 11  1  0
  6 13  1  0
  7 14  1  0
  8 15  2  0
  8 19  1  0
  9 10  1  0
 12 13  1  0
 15 16  1  0
 16 17  2  0
 17 18  1  0
 18 19  2  0
M  END
>  <PUBCHEM_COMPOUND_CID>  (1) 
35693

>  <PUBCHEM_CONFORMER_RMSD>  (1) 
0.8

>  <PUBCHEM_CONFORMER_DIVERSEORDER>  (1) 
1
129
242
47
101
312
42
58
371
48
135
246
346
323
156
181
350
49
163
46
369
44
45
310
85
28
154
364
238
82
271
398
401
293
232
13
315
86
301
56
77
119
78
147
88
245
283
344
98
403
37
50
114
145
139
305
300
329
345
289
307
393
36
227
93
355
130
83
286
268
92
299
228
295
260
193
87
384
133
11
322
32
347
208
316
244
236
60
380
291
175
4
296
194
59
216
63
213
269
187
368
257
190
233
10
144
265
204
343
387
229
102
152
97
182
143
303
272
2
336
327
297
220
349
331
326
76
340
153
52
178
107
337
62
170
375
254
267
306
23
192
89
180
111
231
224
362
325
134
69
270
391
348
217
334
189
223
396
284
146
277
16
148
71
400
258
200
275
318
38
226
55
118
159
106
317
221
186
219
352
67
65
66
292
137
276
165
141
179
26
123
99
212
131
333
188
239
243
183
237
298
397
358
75
195
73
309
68
392
40
319
17
164
389
328
64
370
41
311
262
214
399
367
122
256
342
94
279
142
51
210
287
383
338
90
294
20
96
363
132
234
91
314
176
240
95
205
136
157
140
335
169
377
263
14
222
313
7
361
151
252
330
247
290
351
9
127
168
177
261
25
31
215
53
80
171
255
57
115
125
150
302
149
207
21
274
209
288
385
332
19
251
174
321
357
162
250
249
324
18
281
100
117
22
339
155
379
278
280
39
202
360
110
24
225
5
341
81
198
27
191
160
388
43
320
8
112
395
33
374
113
253
15
74
394
235
356
61
126
54
70
373
197
167
304
12
230
282
381
158
218
6
185
172
390
173
29
353
84
109
378
203
354
308
376
79
359
35
259
166
248
199
386
161
266
382
104
120
241
196
34
365
108
72
264
402
184
273
138
116
285
201
103
128
121
124
211
3
366
30
372
105
206

>  <PUBCHEM_MMFF94_PARTIAL_CHARGES>  (1) 
31
1 -0.82
10 0.25
11 0.55
12 0.25
13 0.27
14 0.55
15 0.41
16 -0.15
17 -0.15
18 -0.15
19 0.16
2 -0.7
24 0.4
29 0.4
3 -0.7
30 0.4
31 0.4
32 0.15
33 0.36
34 0.36
35 0.4
36 0.4
37 0.15
38 0.15
39 0.15
4 -0.55
5 -0.85
6 -0.99
7 -0.85
8 -0.62
9 0.37

>  <PUBCHEM_EFFECTIVE_ROTOR_COUNT>  (1) 
8

>  <PUBCHEM_PHARMACOPHORE_FEATURES>  (1) 
10
1 1 donor
1 4 donor
1 5 donor
1 6 cation
1 6 donor
1 7 donor
1 8 acceptor
4 1 3 5 11 cation
4 2 4 7 14 cation
6 8 15 16 17 18 19 rings

>  <PUBCHEM_HEAVY_ATOM_COUNT>  (1) 
19

>  <PUBCHEM_ATOM_DEF_STEREO_COUNT>  (1) 
0

>  <PUBCHEM_ATOM_UDEF_STEREO_COUNT>  (1) 
0

>  <PUBCHEM_BOND_DEF_STEREO_COUNT>  (1) 
0

>  <PUBCHEM_BOND_UDEF_STEREO_COUNT>  (1) 
0

>  <PUBCHEM_ISOTOPIC_ATOM_COUNT>  (1) 
0

>  <PUBCHEM_COMPONENT_COUNT>  (1) 
1

>  <PUBCHEM_CACTVS_TAUTO_COUNT>  (1) 
15

>  <PUBCHEM_CONFORMER_ID>  (1) 
00008B6D00000001

>  <PUBCHEM_MMFF94_ENERGY>  (1) 
48.5139

>  <PUBCHEM_FEATURE_SELFOVERLAP>  (1) 
50.863

>  <PUBCHEM_SHAPE_FINGERPRINT>  (1) 
10411042 1 17834111940617889902
10498660 4 18271250529084817688
12769317 202 18412257346096479376
12838862 33 18340470245300258520
13402501 40 18186795864324832077
13878862 14 18189033348821933895
14123255 52 18339646753866043242
14251764 38 18266459802636753365
14251764 75 18268163121925469553
14767858 380 18060125579865084911
14774955 27 18411135840278634727
14931854 50 17988935486947254536
15003188 8 18337381755581460248
15322687 12 18271802470868637985
15342168 16 18410009961620002927
17810953 82 18408605868065206860
17834072 32 18339082695626306770
20157964 124 18410854339758882735
21298829 104 18342740697903839385
21315763 76 18342737420679755528
21475661 188 18040716995340727432
23559900 14 18338237051010781515
23845131 108 18259984902924948475
2838139 119 18261381235837259301
328310 1195 18190165798960357485
335352 9 18411420610065038910
474 4 18411702092740484634
5312510 48 18410854326974831037

>  <PUBCHEM_SHAPE_MULTIPOLES>  (1) 
351.16
13.81
3.38
0.91
19.51
1.11
0.31
-11.44
-2.36
-3.86
-0.44
1.08
-0.17
0.22

>  <PUBCHEM_SHAPE_SELFOVERLAP>  (1) 
699.658

>  <PUBCHEM_SHAPE_VOLUME>  (1) 
198.9

>  <PUBCHEM_COORDINATE_TYPE>  (1) 
2
5
10

$$$$
