35709
     RDKit          3D

 14 14  0  0  0  0  0  0  0  0999 V2000
    4.0820   -0.0345   -0.1496 S   0  0  0  0  0  0  0  0  0  0  0  0
    3.6455    1.6539    0.9300 S   0  0  0  0  0  0  0  0  0  0  0  0
    0.1287    0.4828   -0.6086 N   0  0  0  0  0  0  0  0  0  0  0  0
    1.4396    0.4113    0.0333 C   0  0  0  0  0  0  0  0  0  0  0  0
   -0.8491    1.0889    0.2872 C   0  0  0  0  0  0  0  0  0  0  0  0
   -0.3079   -0.8523   -1.0211 C   0  0  0  0  0  0  0  0  0  0  0  0
    2.4506   -0.2383   -0.9122 C   0  0  0  0  0  0  0  0  0  0  0  0
    1.9195    1.8155    0.4014 C   0  0  0  0  0  0  0  0  0  0  0  0
   -2.2243    1.1287   -0.3772 C   0  0  0  0  0  0  0  0  0  0  0  0
   -0.4417   -1.7664    0.1957 C   0  0  0  0  0  0  0  0  0  0  0  0
   -3.2705    1.7419    0.5543 C   0  0  0  0  0  0  0  0  0  0  0  0
   -0.9180   -3.1614   -0.2109 C   0  0  0  0  0  0  0  0  0  0  0  0
   -4.6347    1.8177   -0.1126 C   0  0  0  0  0  0  0  0  0  0  0  0
   -1.0197   -4.0877    0.9904 C   0  0  0  0  0  0  0  0  0  0  0  0
  1  2  1  0
  1  7  1  0
  2  8  1  0
  3  4  1  0
  3  5  1  0
  3  6  1  0
  4  7  1  0
  4  8  1  0
  5  9  1  0
  6 10  1  0
  9 11  1  0
 10 12  1  0
 11 13  1  0
 12 14  1  0
M  END
>  <PUBCHEM_COMPOUND_CID>  (1) 
35709

>  <PUBCHEM_CONFORMER_RMSD>  (1) 
0.8

>  <PUBCHEM_CONFORMER_DIVERSEORDER>  (1) 
1
18
21
2
11
14
17
9
13
19
20
7
8
15
12
5
4
16
6
10
3

>  <PUBCHEM_MMFF94_PARTIAL_CHARGES>  (1) 
8
1 -0.23
2 -0.23
3 -0.81
4 0.27
5 0.27
6 0.27
7 0.23
8 0.23

>  <PUBCHEM_EFFECTIVE_ROTOR_COUNT>  (1) 
8

>  <PUBCHEM_PHARMACOPHORE_FEATURES>  (1) 
4
1 13 hydrophobe
1 14 hydrophobe
1 3 cation
5 1 2 4 7 8 rings

>  <PUBCHEM_HEAVY_ATOM_COUNT>  (1) 
14

>  <PUBCHEM_ATOM_DEF_STEREO_COUNT>  (1) 
0

>  <PUBCHEM_ATOM_UDEF_STEREO_COUNT>  (1) 
0

>  <PUBCHEM_BOND_DEF_STEREO_COUNT>  (1) 
0

>  <PUBCHEM_BOND_UDEF_STEREO_COUNT>  (1) 
0

>  <PUBCHEM_ISOTOPIC_ATOM_COUNT>  (1) 
0

>  <PUBCHEM_COMPONENT_COUNT>  (1) 
1

>  <PUBCHEM_CACTVS_TAUTO_COUNT>  (1) 
1

>  <PUBCHEM_CONFORMER_ID>  (1) 
00008B7D00000001

>  <PUBCHEM_MMFF94_ENERGY>  (1) 
17.1042

>  <PUBCHEM_FEATURE_SELFOVERLAP>  (1) 
20.297

>  <PUBCHEM_SHAPE_FINGERPRINT>  (1) 
10922049 32 18341334409577770765
122479 349 18272928358143727244
12500047 106 18410576206145486836
12532896 13 18412258441376326455
13052359 8 18335983159721583003
13380535 76 18201717349467551060
136203 1 18193837274111537539
14115302 16 18336842913774817932
14178342 30 18191290771291121624
15279308 132 18412546479263622704
15502708 68 18265615368857496357
15885798 251 17831868215010015747
15906896 17 18270675501625565343
18186145 218 18271519806212476692
201361 129 17983022145977708153
20511035 2 18130505348791462748
20645477 70 17910391694087417125
21054139 6 18341597219354399509
21501502 16 18264767851941580780
21524375 3 18200873980946574957
23402539 116 18130495366876276380
23419403 2 16839718258251130591
23532345 11 18265884942796341024
23558518 356 18268140036301296781
23559900 14 18343024381437134772
3071541 236 18337661022633192275
3250762 1 18054225706979879952
366044 4 18411137991698631732
57672749 33 17834102053132968363
633830 44 18130222649490863189
7364860 26 17907017279510279647
81228 2 18119522391217769319
81539 233 18189899699755296669
9981440 41 16768689897602766576

>  <PUBCHEM_SHAPE_MULTIPOLES>  (1) 
290.83
6.8
3.9
0.97
0.17
5.52
0.01
-6.01
0.6
3.44
1.36
-0.23
0.2
0.75

>  <PUBCHEM_SHAPE_SELFOVERLAP>  (1) 
527.342

>  <PUBCHEM_SHAPE_VOLUME>  (1) 
189.4

>  <PUBCHEM_COORDINATE_TYPE>  (1) 
2
5
10

$$$$
