3570
     RDKit          3D

 27 32  0  0  0  0  0  0  0  0999 V2000
   -1.9952   -3.6539   -0.1002 O   0  0  0  0  0  0  0  0  0  0  0  0
    2.6092   -3.3423   -0.1183 O   0  0  0  0  0  0  0  0  0  0  0  0
   -1.4468    1.8160    0.1445 N   0  0  0  0  0  0  0  0  0  0  0  0
    1.3305    2.0039    0.1347 N   0  0  0  0  0  0  0  0  0  0  0  0
    0.3333   -3.8872   -0.1267 N   0  0  0  0  0  0  0  0  0  0  0  0
   -0.6783    0.7048    0.0894 C   0  0  0  0  0  0  0  0  0  0  0  0
   -1.2313   -0.6184    0.0333 C   0  0  0  0  0  0  0  0  0  0  0  0
    0.7183    0.7994    0.0843 C   0  0  0  0  0  0  0  0  0  0  0  0
    1.4441   -0.4372    0.0230 C   0  0  0  0  0  0  0  0  0  0  0  0
   -0.5035   -1.8035   -0.0252 C   0  0  0  0  0  0  0  0  0  0  0  0
    0.8823   -1.7097   -0.0308 C   0  0  0  0  0  0  0  0  0  0  0  0
   -2.6324   -0.1749    0.0627 C   0  0  0  0  0  0  0  0  0  0  0  0
   -2.7159    1.2568    0.1276 C   0  0  0  0  0  0  0  0  0  0  0  0
    2.7729    0.1911    0.0420 C   0  0  0  0  0  0  0  0  0  0  0  0
    2.6631    1.6210    0.1078 C   0  0  0  0  0  0  0  0  0  0  0  0
   -1.1741    3.2293    0.2065 C   0  0  0  0  0  0  0  0  0  0  0  0
   -0.8649   -3.2089   -0.0871 C   0  0  0  0  0  0  0  0  0  0  0  0
    1.4293   -3.0537   -0.0965 C   0  0  0  0  0  0  0  0  0  0  0  0
   -3.8525   -0.8926    0.0385 C   0  0  0  0  0  0  0  0  0  0  0  0
   -3.9499    1.9237    0.1652 C   0  0  0  0  0  0  0  0  0  0  0  0
    4.0783   -0.3556    0.0079 C   0  0  0  0  0  0  0  0  0  0  0  0
    3.7964    2.4481    0.1371 C   0  0  0  0  0  0  0  0  0  0  0  0
   -1.0743    3.8566   -1.1734 C   0  0  0  0  0  0  0  0  0  0  0  0
   -5.0774   -0.2177    0.0766 C   0  0  0  0  0  0  0  0  0  0  0  0
   -5.1232    1.1687    0.1389 C   0  0  0  0  0  0  0  0  0  0  0  0
    5.2015    0.4781    0.0375 C   0  0  0  0  0  0  0  0  0  0  0  0
    5.0605    1.8582    0.1009 C   0  0  0  0  0  0  0  0  0  0  0  0
  1 17  2  0
  2 18  2  0
  3  6  1  0
  3 13  1  0
  3 16  1  0
  4  8  1  0
  4 15  1  0
  5 17  1  0
  5 18  1  0
  6  7  2  0
  6  8  1  0
  7 10  1  0
  7 12  1  0
  8  9  2  0
  9 11  1  0
  9 14  1  0
 10 11  2  0
 10 17  1  0
 11 18  1  0
 12 13  2  0
 12 19  1  0
 13 20  1  0
 14 15  2  0
 14 21  1  0
 15 22  1  0
 16 23  1  0
 19 24  2  0
 20 25  2  0
 21 26  2  0
 22 27  2  0
 24 25  1  0
 26 27  1  0
M  END
>  <PUBCHEM_COMPOUND_CID>  (1) 
3570

>  <PUBCHEM_CONFORMER_RMSD>  (1) 
0.6

>  <PUBCHEM_CONFORMER_DIVERSEORDER>  (1) 
1

>  <PUBCHEM_MMFF94_PARTIAL_CHARGES>  (1) 
34
1 -0.57
10 0.09
11 0.09
13 -0.15
15 -0.15
16 0.26
17 0.54
18 0.54
19 -0.15
2 -0.57
20 -0.15
21 -0.15
22 -0.15
24 -0.15
25 -0.15
26 -0.15
27 -0.15
28 0.27
3 -0.04
31 0.15
32 0.15
33 0.37
34 0.15
35 0.15
39 0.15
4 -0.05
40 0.15
41 0.15
42 0.15
5 -0.49
6 -0.05
7 -0.01
8 -0.05
9 -0.01

>  <PUBCHEM_EFFECTIVE_ROTOR_COUNT>  (1) 
1.2

>  <PUBCHEM_PHARMACOPHORE_FEATURES>  (1) 
12
1 1 acceptor
1 2 acceptor
1 3 cation
1 4 cation
1 4 donor
1 5 donor
5 3 6 7 12 13 rings
5 4 8 9 14 15 rings
5 5 10 11 17 18 rings
6 12 13 19 20 24 25 rings
6 14 15 21 22 26 27 rings
6 6 7 8 9 10 11 rings

>  <PUBCHEM_HEAVY_ATOM_COUNT>  (1) 
27

>  <PUBCHEM_ATOM_DEF_STEREO_COUNT>  (1) 
0

>  <PUBCHEM_ATOM_UDEF_STEREO_COUNT>  (1) 
0

>  <PUBCHEM_BOND_DEF_STEREO_COUNT>  (1) 
0

>  <PUBCHEM_BOND_UDEF_STEREO_COUNT>  (1) 
0

>  <PUBCHEM_ISOTOPIC_ATOM_COUNT>  (1) 
0

>  <PUBCHEM_COMPONENT_COUNT>  (1) 
1

>  <PUBCHEM_CACTVS_TAUTO_COUNT>  (1) 
12

>  <PUBCHEM_CONFORMER_ID>  (1) 
00000DF200000001

>  <PUBCHEM_MMFF94_ENERGY>  (1) 
112.5351

>  <PUBCHEM_FEATURE_SELFOVERLAP>  (1) 
61.365

>  <PUBCHEM_SHAPE_FINGERPRINT>  (1) 
10319926 262 17983555676296832728
10411042 1 17258497172122456990
10675989 125 17757821235771750149
10906281 52 18189354440777955401
10967382 1 18411419509762191355
1100329 8 18122908895753395657
12788726 201 17686612850903808538
12838862 33 18339342145979666201
13140716 1 18267015236249025266
138480 1 17762902065390690146
13911987 19 18335132137648098437
14223421 5 18192993716733254557
14787075 74 18131066082288518849
14790565 3 18411425033022231409
15042514 8 18337390573201618418
15196674 1 18411419522494281393
15927050 60 18413108376644842222
16728300 4 17535158109253541842
18681886 176 18336543910799792816
19591789 44 18339361971574513171
19930381 70 18338234838896219937
20028762 73 18201432601404267662
20739085 24 18120402907317538497
20775438 99 15467431273480343575
20905425 154 18197220234897750332
21033648 29 18271800289257555369
21267235 1 18410582807178132281
21421861 104 18044938965683704289
21796203 349 17259101426591482355
22113638 7 18263926712118312941
22182313 1 18267611124033073247
23227448 37 18341613779920188958
2334 1 17979073013569002978
23366157 5 17971199118866139730
23402539 116 18342733065572289869
23559900 14 18050842217795956449
266924 87 18265605490633773581
3178227 256 18192726746652302851
335352 9 18411419514732340278
350125 39 18266179427023256268
352729 6 18339366365431655882
484989 97 17832135397005588815
5104073 3 18409451341035840513
5265222 85 18194133022082289436
5486654 2 18411704313175403012
59755656 215 18409732820191180996
6138700 20 18267872692585141558
7364860 26 18195809570095829642
9709674 26 18264775359312104315

>  <PUBCHEM_SHAPE_MULTIPOLES>  (1) 
528.97
9.04
4.77
0.66
1.02
2.49
0.06
-4.36
-0.61
0.06
0.69
-0.06
-0.23
0.19

>  <PUBCHEM_SHAPE_SELFOVERLAP>  (1) 
1236.416

>  <PUBCHEM_SHAPE_VOLUME>  (1) 
269.7

>  <PUBCHEM_COORDINATE_TYPE>  (1) 
2
5
10

$$$$
