35703
     RDKit          3D

 14 15  0  0  0  0  0  0  0  0999 V2000
    3.0531   -0.1073    0.3846 O   0  0  0  0  0  0  0  0  0  0  0  0
   -1.5220    1.2681    0.1282 O   0  0  0  0  0  0  0  0  0  0  0  0
   -3.7172    1.9089    0.0016 O   0  0  0  0  0  0  0  0  0  0  0  0
   -0.9658   -1.0936   -0.0641 C   0  0  0  0  0  0  0  0  0  0  0  0
   -0.5684    0.2300    0.1051 C   0  0  0  0  0  0  0  0  0  0  0  0
    1.7374   -0.4249    0.2384 C   0  0  0  0  0  0  0  0  0  0  0  0
    0.7718    0.5793    0.2568 C   0  0  0  0  0  0  0  0  0  0  0  0
    0.0086   -2.0940   -0.0816 C   0  0  0  0  0  0  0  0  0  0  0  0
    1.3571   -1.7583    0.0695 C   0  0  0  0  0  0  0  0  0  0  0  0
   -2.3807   -1.3865   -0.2164 C   0  0  0  0  0  0  0  0  0  0  0  0
    3.4685    1.1724   -0.0900 C   0  0  0  0  0  0  0  0  0  0  0  0
   -3.2778   -0.3976   -0.1939 C   0  0  0  0  0  0  0  0  0  0  0  0
   -2.8816    1.0118   -0.0163 C   0  0  0  0  0  0  0  0  0  0  0  0
    4.9171    1.0917   -0.5220 C   0  0  0  0  0  0  0  0  0  0  0  0
  1  6  1  0
  1 11  1  0
  2  5  1  0
  2 13  1  0
  3 13  2  0
  4  5  2  0
  4  8  1  0
  4 10  1  0
  5  7  1  0
  6  7  2  0
  6  9  1  0
  8  9  2  0
 10 12  2  0
 11 14  1  0
 12 13  1  0
M  END
>  <PUBCHEM_COMPOUND_CID>  (1) 
35703

>  <PUBCHEM_CONFORMER_RMSD>  (1) 
0.6

>  <PUBCHEM_CONFORMER_DIVERSEORDER>  (1) 
1
4
2
3

>  <PUBCHEM_MMFF94_PARTIAL_CHARGES>  (1) 
18
1 -0.36
10 -0.18
11 0.28
12 -0.14
13 0.71
15 0.15
16 0.15
17 0.15
18 0.15
2 -0.23
21 0.15
3 -0.57
4 0.03
5 0.08
6 0.08
7 -0.15
8 -0.15
9 -0.15

>  <PUBCHEM_EFFECTIVE_ROTOR_COUNT>  (1) 
2

>  <PUBCHEM_PHARMACOPHORE_FEATURES>  (1) 
4
1 1 acceptor
1 3 acceptor
6 2 4 5 10 12 13 rings
6 4 5 6 7 8 9 rings

>  <PUBCHEM_HEAVY_ATOM_COUNT>  (1) 
14

>  <PUBCHEM_ATOM_DEF_STEREO_COUNT>  (1) 
0

>  <PUBCHEM_ATOM_UDEF_STEREO_COUNT>  (1) 
0

>  <PUBCHEM_BOND_DEF_STEREO_COUNT>  (1) 
0

>  <PUBCHEM_BOND_UDEF_STEREO_COUNT>  (1) 
0

>  <PUBCHEM_ISOTOPIC_ATOM_COUNT>  (1) 
0

>  <PUBCHEM_COMPONENT_COUNT>  (1) 
1

>  <PUBCHEM_CACTVS_TAUTO_COUNT>  (1) 
1

>  <PUBCHEM_CONFORMER_ID>  (1) 
00008B7700000001

>  <PUBCHEM_MMFF94_ENERGY>  (1) 
46.8794

>  <PUBCHEM_FEATURE_SELFOVERLAP>  (1) 
20.325

>  <PUBCHEM_SHAPE_FINGERPRINT>  (1) 
10608611 8 18338513041213268033
11543360 7 15410601640502820072
12346645 44 18408602565261482842
12390115 104 18270983287535157313
12932764 1 17417799669303740523
13380535 21 18341899549943466019
13380535 76 18410570678074521810
14325111 11 18411134718901773778
14897335 6 18411413981986209655
15196674 1 18410855442969528038
15536298 74 18342738477695358222
15775835 57 18410013217052089168
16945 1 18270387421041965555
18186145 218 17632859767309356488
20510252 161 18271529800616653227
20645477 56 18269274733008303016
21501502 16 18339070497967081187
21524375 3 18408318900094180778
23366157 5 18042406833608530626
23402539 116 18271802445800194036
23402655 69 18199453399745332053
23463225 33 18335975364266185690
23559900 14 18130790084239077504
25 1 18412542085385328976
2748010 2 18340489963188860511
474 4 17530969141666192180
4990 188 17989213642193099396
5104073 3 18409165489334273066
57096353 35 18342726442906637071
7364860 26 18197778800085714262

>  <PUBCHEM_SHAPE_MULTIPOLES>  (1) 
270.51
7.13
2
0.64
5.43
0.33
0.01
-4.09
0.95
-0.77
0.05
0.13
0.01
-0.31

>  <PUBCHEM_SHAPE_SELFOVERLAP>  (1) 
578.83

>  <PUBCHEM_SHAPE_VOLUME>  (1) 
150.1

>  <PUBCHEM_COORDINATE_TYPE>  (1) 
2
5
10

$$$$
