35714
     RDKit          3D

 26 27  0  0  0  0  0  0  0  0999 V2000
    1.6267    1.4782   -2.7351 Cl  0  0  0  0  0  0  0  0  0  0  0  0
    1.6298    1.5048    2.7243 Cl  0  0  0  0  0  0  0  0  0  0  0  0
    4.2592   -0.1908    2.7182 Cl  0  0  0  0  0  0  0  0  0  0  0  0
    4.2564   -0.2153   -2.7156 Cl  0  0  0  0  0  0  0  0  0  0  0  0
    5.5738   -1.0514    0.0045 Cl  0  0  0  0  0  0  0  0  0  0  0  0
   -1.6742   -3.3957   -1.4547 Cl  0  0  0  0  0  0  0  0  0  0  0  0
    0.7346   -2.8047    0.0134 Cl  0  0  0  0  0  0  0  0  0  0  0  0
   -1.6878   -3.3808    1.4719 Cl  0  0  0  0  0  0  0  0  0  0  0  0
   -5.3933    0.0958    1.4672 Cl  0  0  0  0  0  0  0  0  0  0  0  0
   -4.9733    2.5345   -0.0103 Cl  0  0  0  0  0  0  0  0  0  0  0  0
   -5.3940    0.0748   -1.4593 Cl  0  0  0  0  0  0  0  0  0  0  0  0
    0.2397    2.3848   -0.0093 S   0  0  0  0  0  0  0  0  0  0  0  0
   -2.2654    1.4641   -0.0052 N   0  0  0  0  0  0  0  0  0  0  0  0
   -0.5137   -0.1757   -0.0002 N   0  0  0  0  0  0  0  0  0  0  0  0
   -2.8097   -0.8729    0.0003 N   0  0  0  0  0  0  0  0  0  0  0  0
    1.7629    1.4049   -0.0050 C   0  0  0  0  0  0  0  0  0  0  0  0
   -0.9777    1.0842   -0.0034 C   0  0  0  0  0  0  0  0  0  0  0  0
   -3.1249    0.4324   -0.0030 C   0  0  0  0  0  0  0  0  0  0  0  0
   -1.4866   -1.1012    0.0017 C   0  0  0  0  0  0  0  0  0  0  0  0
    2.3490    1.0223   -1.2114 C   0  0  0  0  0  0  0  0  0  0  0  0
    2.3489    1.0314    1.2046 C   0  0  0  0  0  0  0  0  0  0  0  0
    3.5210    0.2753    1.2076 C   0  0  0  0  0  0  0  0  0  0  0  0
    3.5212    0.2661   -1.2084 C   0  0  0  0  0  0  0  0  0  0  0  0
    4.1072   -0.1074    0.0011 C   0  0  0  0  0  0  0  0  0  0  0  0
   -1.0526   -2.5276    0.0075 C   0  0  0  0  0  0  0  0  0  0  0  0
   -4.5771    0.7699   -0.0016 C   0  0  0  0  0  0  0  0  0  0  0  0
  1 20  1  0
  2 21  1  0
  3 22  1  0
  4 23  1  0
  5 24  1  0
  6 25  1  0
  7 25  1  0
  8 25  1  0
  9 26  1  0
 10 26  1  0
 11 26  1  0
 12 16  1  0
 12 17  1  0
 13 17  2  0
 13 18  1  0
 14 17  1  0
 14 19  2  0
 15 18  2  0
 15 19  1  0
 16 20  2  0
 16 21  1  0
 18 26  1  0
 19 25  1  0
 20 23  1  0
 21 22  2  0
 22 24  1  0
 23 24  2  0
M  END
>  <PUBCHEM_COMPOUND_CID>  (1) 
35714

>  <PUBCHEM_CONFORMER_RMSD>  (1) 
0.8

>  <PUBCHEM_CONFORMER_DIVERSEORDER>  (1) 
1
6
10
5
4
9
8
7
2
3

>  <PUBCHEM_MMFF94_PARTIAL_CHARGES>  (1) 
26
1 -0.18
10 -0.29
11 -0.29
12 -0.2
13 -0.62
14 -0.62
15 -0.62
16 0.1
17 0.72
18 0.48
19 0.48
2 -0.18
20 0.18
21 0.18
22 0.18
23 0.18
24 0.18
25 1.01
26 1.01
3 -0.18
4 -0.18
5 -0.18
6 -0.29
7 -0.29
8 -0.29
9 -0.29

>  <PUBCHEM_EFFECTIVE_ROTOR_COUNT>  (1) 
4

>  <PUBCHEM_PHARMACOPHORE_FEATURES>  (1) 
5
3 13 14 17 cation
3 13 15 18 cation
3 14 15 19 cation
6 13 14 15 17 18 19 rings
6 16 20 21 22 23 24 rings

>  <PUBCHEM_HEAVY_ATOM_COUNT>  (1) 
26

>  <PUBCHEM_ATOM_DEF_STEREO_COUNT>  (1) 
0

>  <PUBCHEM_ATOM_UDEF_STEREO_COUNT>  (1) 
0

>  <PUBCHEM_BOND_DEF_STEREO_COUNT>  (1) 
0

>  <PUBCHEM_BOND_UDEF_STEREO_COUNT>  (1) 
0

>  <PUBCHEM_ISOTOPIC_ATOM_COUNT>  (1) 
0

>  <PUBCHEM_COMPONENT_COUNT>  (1) 
1

>  <PUBCHEM_CACTVS_TAUTO_COUNT>  (1) 
1

>  <PUBCHEM_CONFORMER_ID>  (1) 
00008B8200000001

>  <PUBCHEM_MMFF94_ENERGY>  (1) 
58.9986

>  <PUBCHEM_FEATURE_SELFOVERLAP>  (1) 
28.144

>  <PUBCHEM_SHAPE_FINGERPRINT>  (1) 
10366900 7 16988572316232293184
10906281 52 17274836782599636648
11578080 2 17628365066675245945
12236239 1 17676774197430576036
12403259 327 18058994156197639960
12422481 6 17972583403762676593
12553582 1 18041265630711320938
12592029 89 18334305244963820331
12633257 1 18056452115373932880
12778500 126 15502932992127740885
12788726 201 17903642126610783095
13140716 1 18266461090688410481
13402501 40 18200878375114980174
13544592 145 18060144232158971156
13583140 156 15122933149062722587
13726171 33 18047504336802282076
14022347 108 18411429409909897528
14115302 16 18336272309730907724
15664445 248 16392973790326022226
1601671 61 18187929426300154733
16752209 62 18408603630455947029
17093844 170 18339365167489195390
17349148 13 18408041827680494749
1813 80 17024297536573139322
20511986 3 17968374654294531884
20600515 1 18343014519101102936
20832881 197 17702956807313273937
21033648 29 18200580437307318601
21781051 124 18261685873852503131
22956985 138 17826508856456020675
23559900 14 18201444726708873628
3298306 158 18337110077619914991
338550 245 18333736818457948719
340366 18 17894917364098991820
38695281 34 18129660795212791567
404807 14 15119330908547036551
465052 167 17603595135949817801
469060 322 11676290815341992291
513532 50 17561074770693624150
5265222 85 18338808892073162468
5385378 56 18124885551963034585
59755656 215 18340763763791924637
6138700 20 18339924792584333966
7226269 152 18131070407125641537
81228 2 17905876334522877347
9709674 26 17986947646969240053

>  <PUBCHEM_SHAPE_MULTIPOLES>  (1) 
544.54
11.11
3.26
2.42
4.88
2.92
0
-2.08
0.01
2.5
0.01
-2.92
-0.37
0.02

>  <PUBCHEM_SHAPE_SELFOVERLAP>  (1) 
1037.632

>  <PUBCHEM_SHAPE_VOLUME>  (1) 
339.7

>  <PUBCHEM_COORDINATE_TYPE>  (1) 
2
5
10

$$$$
