35719
     RDKit          3D

 16 16  0  0  1  0  0  0  0  0999 V2000
    0.8023    0.4775    0.4215 O   0  0  0  0  0  0  0  0  0  0  0  0
    0.5004    2.2145   -1.0621 O   0  0  0  0  0  0  0  0  0  0  0  0
   -2.0203    2.6808   -0.1558 N   0  0  0  0  0  0  0  0  0  0  0  0
    4.2564   -1.0736    0.3635 C   0  0  0  0  0  0  0  0  0  0  0  0
    2.7897   -0.8183    0.7468 C   0  0  0  0  0  0  0  0  0  0  0  0
    2.1424    0.3228   -0.0288 C   0  0  0  0  0  0  0  0  0  0  0  0
    4.3553   -1.3931   -1.1299 C   0  0  0  0  0  0  0  0  0  0  0  0
    5.1610    0.1128    0.6990 C   0  0  0  0  0  0  0  0  0  0  0  0
   -1.3181    1.5284    0.4157 C   0  0  0  0  0  0  0  0  0  0  0  0
   -2.0895    0.2455    0.1905 C   0  0  0  0  0  0  0  0  0  0  0  0
    0.0776    1.4731   -0.1840 C   0  0  0  0  0  0  0  0  0  0  0  0
   -3.0391   -0.1433    1.1191 C   0  0  0  0  0  0  0  0  0  0  0  0
   -1.8284   -0.5101   -0.9392 C   0  0  0  0  0  0  0  0  0  0  0  0
   -3.7500   -1.3253    0.9117 C   0  0  0  0  0  0  0  0  0  0  0  0
   -2.5394   -1.6921   -1.1467 C   0  0  0  0  0  0  0  0  0  0  0  0
   -3.5003   -2.0996   -0.2212 C   0  0  0  0  0  0  0  0  0  0  0  0
  1  6  1  0
  1 11  1  0
  2 11  2  0
  3  9  1  0
  4  5  1  0
  4  7  1  0
  4  8  1  0
  5  6  1  0
  9 10  1  0
  9 11  1  0
 10 12  2  0
 10 13  1  0
 12 14  1  0
 13 15  2  0
 14 16  2  0
 15 16  1  0
M  END
>  <PUBCHEM_COMPOUND_CID>  (1) 
35719

>  <PUBCHEM_CONFORMER_RMSD>  (1) 
0.8

>  <PUBCHEM_CONFORMER_DIVERSEORDER>  (1) 
1
18
65
49
28
22
59
5
71
47
63
32
21
56
83
57
31
36
76
81
37
54
23
44
13
2
9
53
29
55
7
69
82
35
86
48
24
73
84
75
27
17
42
39
34
51
72
46
67
78
11
40
68
85
38
20
60
6
33
4
15
79
74
61
25
50
58
19
43
52
16
66
10
64
30
77
41
8
70
45
12
62
26
3
80
14

>  <PUBCHEM_MMFF94_PARTIAL_CHARGES>  (1) 
19
1 -0.43
10 -0.14
11 0.66
12 -0.15
13 -0.15
14 -0.15
15 -0.15
16 -0.15
2 -0.57
29 0.15
3 -0.99
30 0.15
31 0.36
32 0.36
33 0.15
34 0.15
35 0.15
6 0.28
9 0.47

>  <PUBCHEM_EFFECTIVE_ROTOR_COUNT>  (1) 
6

>  <PUBCHEM_PHARMACOPHORE_FEATURES>  (1) 
5
1 2 acceptor
1 3 cation
1 3 donor
3 4 7 8 hydrophobe
6 10 12 13 14 15 16 rings

>  <PUBCHEM_HEAVY_ATOM_COUNT>  (1) 
16

>  <PUBCHEM_ATOM_DEF_STEREO_COUNT>  (1) 
0

>  <PUBCHEM_ATOM_UDEF_STEREO_COUNT>  (1) 
1

>  <PUBCHEM_BOND_DEF_STEREO_COUNT>  (1) 
0

>  <PUBCHEM_BOND_UDEF_STEREO_COUNT>  (1) 
0

>  <PUBCHEM_ISOTOPIC_ATOM_COUNT>  (1) 
0

>  <PUBCHEM_COMPONENT_COUNT>  (1) 
1

>  <PUBCHEM_CACTVS_TAUTO_COUNT>  (1) 
1

>  <PUBCHEM_CONFORMER_ID>  (1) 
00008B8700000001

>  <PUBCHEM_MMFF94_ENERGY>  (1) 
31.8028

>  <PUBCHEM_FEATURE_SELFOVERLAP>  (1) 
25.371

>  <PUBCHEM_SHAPE_FINGERPRINT>  (1) 
11046707 91 18341893004244417506
11370993 144 17274830099535220866
11543360 7 14707211049712210266
11552529 35 16271348838018864574
12553582 1 18409453617194478686
12633257 1 15769219478442369611
14123260 362 9655575227438483682
15342168 16 10231491734698380611
17349148 13 17095236987452084578
17804303 29 18273501164877891641
1813 80 18334305278938397878
19141452 34 18202004326424078619
193927 3 18336555996389052410
200 152 16950561065319905074
20291156 8 18409449210621148010
20361792 2 18261106408947410253
204376 136 10807941478615092985
20671657 53 17748823055209352164
22646028 28 18409728495227964690
23402539 116 17676485000439757736
23559900 14 18341599439162115808
27216 239 11311771813013917559
4325135 7 18410856594996625140
449060 23 18411135835851960930
5104073 3 18270391695225126202
7970288 3 18334857255088003986

>  <PUBCHEM_SHAPE_MULTIPOLES>  (1) 
312.55
9.24
2.36
1.12
10.56
0.92
-0.08
-5.44
1.44
-1.64
-0.6
-0.12
-0.22
0.07

>  <PUBCHEM_SHAPE_SELFOVERLAP>  (1) 
629.371

>  <PUBCHEM_SHAPE_VOLUME>  (1) 
183.6

>  <PUBCHEM_COORDINATE_TYPE>  (1) 
2
5
10

$$$$
