35721
     RDKit          3D

  9  8  0  0  0  0  0  0  0  0999 V2000
    2.4151   -1.2984    0.0028 O   0  0  0  0  0  0  0  0  0  0  0  0
   -1.7135    0.0031    0.0024 N   0  0  0  0  0  0  0  0  0  0  0  0
   -0.3326   -0.6347   -0.0477 C   0  0  0  0  0  0  0  0  0  0  0  0
   -1.8910    0.9237   -1.1964 C   0  0  0  0  0  0  0  0  0  0  0  0
   -2.7764   -1.0856   -0.0321 C   0  0  0  0  0  0  0  0  0  0  0  0
   -1.8541    0.8088    1.2859 C   0  0  0  0  0  0  0  0  0  0  0  0
    0.7367    0.4457   -0.0218 C   0  0  0  0  0  0  0  0  0  0  0  0
    2.1575   -0.0957   -0.0067 C   0  0  0  0  0  0  0  0  0  0  0  0
    3.2582    0.9332    0.0137 C   0  0  0  0  0  0  0  0  0  0  0  0
  1  8  2  0
  2  3  1  0
  2  4  1  0
  2  5  1  0
  2  6  1  0
  3  7  1  0
  7  8  1  0
  8  9  1  0
M  CHG  1   2   1
M  END
>  <PUBCHEM_COMPOUND_CID>  (1) 
35721

>  <PUBCHEM_CONFORMER_RMSD>  (1) 
0.6

>  <PUBCHEM_CONFORMER_DIVERSEORDER>  (1) 
1
5
4
2
3

>  <PUBCHEM_MMFF94_PARTIAL_CHARGES>  (1) 
9
1 -0.57
2 -1.01
3 0.5
4 0.5
5 0.5
6 0.5
7 0.06
8 0.45
9 0.06

>  <PUBCHEM_EFFECTIVE_ROTOR_COUNT>  (1) 
3

>  <PUBCHEM_PHARMACOPHORE_FEATURES>  (1) 
2
1 1 acceptor
1 2 cation

>  <PUBCHEM_HEAVY_ATOM_COUNT>  (1) 
9

>  <PUBCHEM_ATOM_DEF_STEREO_COUNT>  (1) 
0

>  <PUBCHEM_ATOM_UDEF_STEREO_COUNT>  (1) 
0

>  <PUBCHEM_BOND_DEF_STEREO_COUNT>  (1) 
0

>  <PUBCHEM_BOND_UDEF_STEREO_COUNT>  (1) 
0

>  <PUBCHEM_ISOTOPIC_ATOM_COUNT>  (1) 
0

>  <PUBCHEM_COMPONENT_COUNT>  (1) 
1

>  <PUBCHEM_CACTVS_TAUTO_COUNT>  (1) 
3

>  <PUBCHEM_CONFORMER_ID>  (1) 
00008B8900000001

>  <PUBCHEM_MMFF94_ENERGY>  (1) 
24.5021

>  <PUBCHEM_FEATURE_SELFOVERLAP>  (1) 
10.148

>  <PUBCHEM_SHAPE_FINGERPRINT>  (1) 
10857977 72 16732994149184657912
12932764 1 18114187384764143818
14325111 11 18410573985293940926
14390081 3 17822003190415818188
15310529 11 18412258449871283006
19973954 147 18260545593709143556
20653085 51 18116145567802653189
23552423 10 18334296422731943098
29004967 10 17603874394543951336
3248919 1 18060414673380535582
369184 2 18410011018223895497
5084963 1 18335420183612930699
5460574 1 9223237346870309806
8030462 33 17703784799798537096

>  <PUBCHEM_SHAPE_MULTIPOLES>  (1) 
174.37
4.97
1.23
0.96
2.37
0.14
-0.05
0.01
0
-0.04
0.03
-0.67
-0.33
0.01

>  <PUBCHEM_SHAPE_SELFOVERLAP>  (1) 
313.689

>  <PUBCHEM_SHAPE_VOLUME>  (1) 
115.3

>  <PUBCHEM_COORDINATE_TYPE>  (1) 
2
5
10

$$$$
