35746
     RDKit          3D

 10 10  0  0  0  0  0  0  0  0999 V2000
    0.9652    3.0580   -0.0001 Cl  0  0  0  0  0  0  0  0  0  0  0  0
    2.6740   -2.0610    0.0001 Cl  0  0  0  0  0  0  0  0  0  0  0  0
   -3.3275   -0.1295    0.0001 O   0  0  0  0  0  0  0  0  0  0  0  0
   -0.9815   -0.4367    0.0005 C   0  0  0  0  0  0  0  0  0  0  0  0
    0.0625   -1.3617    0.0001 C   0  0  0  0  0  0  0  0  0  0  0  0
   -0.7024    0.9300    0.0003 C   0  0  0  0  0  0  0  0  0  0  0  0
    0.6207    1.3716    0.0000 C   0  0  0  0  0  0  0  0  0  0  0  0
    1.3856   -0.9201   -0.0002 C   0  0  0  0  0  0  0  0  0  0  0  0
    1.6647    0.4466   -0.0002 C   0  0  0  0  0  0  0  0  0  0  0  0
   -2.3613   -0.8971   -0.0006 C   0  0  0  0  0  0  0  0  0  0  0  0
  1  7  1  0
  2  8  1  0
  3 10  2  0
  4  5  2  0
  4  6  1  0
  4 10  1  0
  5  8  1  0
  6  7  2  0
  7  9  1  0
  8  9  2  0
M  END
>  <PUBCHEM_COMPOUND_CID>  (1) 
35746

>  <PUBCHEM_CONFORMER_RMSD>  (1) 
0.4

>  <PUBCHEM_CONFORMER_DIVERSEORDER>  (1) 
1

>  <PUBCHEM_MMFF94_PARTIAL_CHARGES>  (1) 
14
1 -0.18
10 0.42
11 0.15
12 0.15
13 0.15
14 0.06
2 -0.18
3 -0.57
4 0.09
5 -0.15
6 -0.15
7 0.18
8 0.18
9 -0.15

>  <PUBCHEM_EFFECTIVE_ROTOR_COUNT>  (1) 
1

>  <PUBCHEM_PHARMACOPHORE_FEATURES>  (1) 
2
1 3 acceptor
6 4 5 6 7 8 9 rings

>  <PUBCHEM_HEAVY_ATOM_COUNT>  (1) 
10

>  <PUBCHEM_ATOM_DEF_STEREO_COUNT>  (1) 
0

>  <PUBCHEM_ATOM_UDEF_STEREO_COUNT>  (1) 
0

>  <PUBCHEM_BOND_DEF_STEREO_COUNT>  (1) 
0

>  <PUBCHEM_BOND_UDEF_STEREO_COUNT>  (1) 
0

>  <PUBCHEM_ISOTOPIC_ATOM_COUNT>  (1) 
0

>  <PUBCHEM_COMPONENT_COUNT>  (1) 
1

>  <PUBCHEM_CACTVS_TAUTO_COUNT>  (1) 
1

>  <PUBCHEM_CONFORMER_ID>  (1) 
00008BA200000001

>  <PUBCHEM_MMFF94_ENERGY>  (1) 
19.681

>  <PUBCHEM_FEATURE_SELFOVERLAP>  (1) 
10.148

>  <PUBCHEM_SHAPE_FINGERPRINT>  (1) 
1 1 18122344846034918300
12423570 1 9868320922071244926
13380535 76 17904474460832962754
14648413 74 18263646323941881659
16945 1 18338517563644869767
19021347 4 17473824408192173688
193761 8 17906172102744898310
20645477 70 18338227293388248023
20871998 184 17840860785690178830
20871998 22 18198911313983736430
21040471 1 17545883088714571456
23552423 10 18268147750231566655
241688 4 18266460893209618144
2748010 2 18339350851925386820
7364860 26 18341050838593644648
81228 2 17905896876897715072

>  <PUBCHEM_SHAPE_MULTIPOLES>  (1) 
203.67
3.52
2.78
0.62
1.83
2.34
0
-2.23
0
-1.69
0
-0.04
0.01
0

>  <PUBCHEM_SHAPE_SELFOVERLAP>  (1) 
407.395

>  <PUBCHEM_SHAPE_VOLUME>  (1) 
122.1

>  <PUBCHEM_COORDINATE_TYPE>  (1) 
2
5
10

$$$$
