35752
     RDKit          3D

 20 21  0  0  0  0  0  0  0  0999 V2000
   -1.8168   -2.3132   -0.2975 O   0  0  0  0  0  0  0  0  0  0  0  0
    0.4186   -1.4147    0.4668 O   0  0  0  0  0  0  0  0  0  0  0  0
    6.3267    0.3052   -1.0834 O   0  0  0  0  0  0  0  0  0  0  0  0
   -3.0982   -0.5263    0.4522 N   0  0  0  0  0  0  0  0  0  0  0  0
   -5.3388    1.1815   -0.2390 C   0  0  0  0  0  0  0  0  0  0  0  0
   -3.9850    1.7602    0.1999 C   0  0  0  0  0  0  0  0  0  0  0  0
   -5.1413   -0.1983   -0.8847 C   0  0  0  0  0  0  0  0  0  0  0  0
   -3.2293    0.7841    1.1001 C   0  0  0  0  0  0  0  0  0  0  0  0
   -4.3641   -1.1338    0.0385 C   0  0  0  0  0  0  0  0  0  0  0  0
   -6.0515    2.1329   -1.1971 C   0  0  0  0  0  0  0  0  0  0  0  0
   -1.9005   -1.2111    0.2506 C   0  0  0  0  0  0  0  0  0  0  0  0
   -0.6449   -0.5356    0.7416 C   0  0  0  0  0  0  0  0  0  0  0  0
    1.6632   -0.8593    0.2686 C   0  0  0  0  0  0  0  0  0  0  0  0
    1.9920    0.3234    0.9139 C   0  0  0  0  0  0  0  0  0  0  0  0
    2.5662   -1.4934   -0.5717 C   0  0  0  0  0  0  0  0  0  0  0  0
    4.1705    0.2579   -0.1284 C   0  0  0  0  0  0  0  0  0  0  0  0
    3.2530    0.8853    0.7141 C   0  0  0  0  0  0  0  0  0  0  0  0
    3.8272   -0.9315   -0.7713 C   0  0  0  0  0  0  0  0  0  0  0  0
    5.4854    0.8434   -0.3365 C   0  0  0  0  0  0  0  0  0  0  0  0
    5.8675    2.1432    0.3633 C   0  0  0  0  0  0  0  0  0  0  0  0
  1 11  2  0
  2 12  1  0
  2 13  1  0
  3 19  2  0
  4  8  1  0
  4  9  1  0
  4 11  1  0
  5  6  1  0
  5  7  1  0
  5 10  1  0
  6  8  1  0
  7  9  1  0
 11 12  1  0
 13 14  2  0
 13 15  1  0
 14 17  1  0
 15 18  2  0
 16 17  2  0
 16 18  1  0
 16 19  1  0
 19 20  1  0
M  END
>  <PUBCHEM_COMPOUND_CID>  (1) 
35752

>  <PUBCHEM_CONFORMER_RMSD>  (1) 
0.8

>  <PUBCHEM_CONFORMER_DIVERSEORDER>  (1) 
1
43
15
90
74
79
38
107
87
120
31
92
95
19
77
93
12
85
39
35
47
67
65
46
49
20
5
72
41
113
73
101
106
91
121
14
89
16
24
55
34
2
57
58
99
44
51
17
9
88
80
36
118
61
71
32
100
42
6
104
60
54
83
21
45
112
11
50
86
48
29
33
7
56
40
53
103
37
3
96
10
111
26
115
108
109
75
64
27
18
116
119
59
52
97
78
110
84
22
117
8
69
94
98
68
114
63
4
30
28
25
82
23
62
81
13
102
105
76
66
70

>  <PUBCHEM_MMFF94_PARTIAL_CHARGES>  (1) 
20
1 -0.57
11 0.57
12 0.34
13 0.08
14 -0.15
15 -0.15
16 0.09
17 -0.15
18 -0.15
19 0.42
2 -0.36
20 0.06
3 -0.57
35 0.15
36 0.15
37 0.15
38 0.15
4 -0.66
8 0.3
9 0.3

>  <PUBCHEM_EFFECTIVE_ROTOR_COUNT>  (1) 
6.2

>  <PUBCHEM_PHARMACOPHORE_FEATURES>  (1) 
5
1 1 acceptor
1 2 acceptor
1 3 acceptor
6 13 14 15 16 17 18 rings
6 4 5 6 7 8 9 rings

>  <PUBCHEM_HEAVY_ATOM_COUNT>  (1) 
20

>  <PUBCHEM_ATOM_DEF_STEREO_COUNT>  (1) 
0

>  <PUBCHEM_ATOM_UDEF_STEREO_COUNT>  (1) 
0

>  <PUBCHEM_BOND_DEF_STEREO_COUNT>  (1) 
0

>  <PUBCHEM_BOND_UDEF_STEREO_COUNT>  (1) 
0

>  <PUBCHEM_ISOTOPIC_ATOM_COUNT>  (1) 
0

>  <PUBCHEM_COMPONENT_COUNT>  (1) 
1

>  <PUBCHEM_CACTVS_TAUTO_COUNT>  (1) 
2

>  <PUBCHEM_CONFORMER_ID>  (1) 
00008BA800000001

>  <PUBCHEM_MMFF94_ENERGY>  (1) 
50.5432

>  <PUBCHEM_FEATURE_SELFOVERLAP>  (1) 
25.39

>  <PUBCHEM_SHAPE_FINGERPRINT>  (1) 
10014705 185 18409450293174452859
10498660 4 18410008798000331129
11796584 16 11239462353587999084
12596602 18 16588027913434376993
12633257 1 14562822066024005219
12670543 26 18273220781313562542
13288520 33 11384114146514710027
13668630 136 15123510319679462445
14123255 352 18408605863733023736
1420 369 10735873976119333149
14251751 18 9151175358890914639
14251764 75 17692254033092880193
14528608 73 18272931635192847812
15183329 4 18272375235317786490
15188451 53 9511451222353931665
15238133 3 16588314868978826092
15348495 7 12107797327537961172
15537594 2 12895082803296358109
17349148 13 13470692550621463758
17780758 139 11025795393044743087
18222031 100 13830130581391117258
18335252 98 18409453601101520395
193927 3 11815605420098069997
19784866 240 12463564097941293241
200 152 15841560669112570354
20281389 69 18187363229203459192
20621476 21 11815604324929499981
20645477 56 18411984684730322307
20645477 70 17417544531552039502
21403212 168 8430328974335189863
221357 26 17846778498878209121
22289505 5 18272088284352874872
23402655 69 18202566163590495818
23522609 53 10230917892518557810
23559900 14 17774432892791347601
25122255 55 11527942391646195405
2767999 5 18040149625971551204
2838139 119 18409161104151830364
2916195 48 18334295409166802970
29717793 49 16702314433960241628
300161 21 18411697699426537314
351380 3 11671780464031293405
3545911 37 18343305894045463411
4028521 119 18412261718853078755
441001 317 18408605868275839507
465052 167 8286207154407796488
5104073 3 17676205745444558531
5718773 13 9727047864881387437
59682541 35 18041292019708157217
59682541 52 17632298917652971942
59755656 520 17530682125686155210
7495541 125 9007055756222077342
7970288 3 11023819583223821301
8863177 126 9727334862389131133

>  <PUBCHEM_SHAPE_MULTIPOLES>  (1) 
389
16.46
2.09
1.02
2.19
0.26
-0.05
9.9
-4.92
-0.88
-0.2
-0.2
0.16
1

>  <PUBCHEM_SHAPE_SELFOVERLAP>  (1) 
805.082

>  <PUBCHEM_SHAPE_VOLUME>  (1) 
221.9

>  <PUBCHEM_COORDINATE_TYPE>  (1) 
2
5
10

$$$$
