35750
     RDKit          3D

 17 18  0  0  0  0  0  0  0  0999 V2000
   -3.8159   -1.9296    0.1961 O   0  0  0  0  0  0  0  0  0  0  0  0
   -1.6895   -2.3424    0.8849 O   0  0  0  0  0  0  0  0  0  0  0  0
    0.0497   -0.6350   -0.4508 N   0  0  0  0  0  0  0  0  0  0  0  0
    1.9234    0.4577    0.5320 N   0  0  0  0  0  0  0  0  0  0  0  0
    4.1567   -0.2093   -0.0799 N   0  0  0  0  0  0  0  0  0  0  0  0
    3.7962    1.5092    1.4765 N   0  0  0  0  0  0  0  0  0  0  0  0
   -1.0279    0.2707   -0.3298 C   0  0  0  0  0  0  0  0  0  0  0  0
   -2.2830   -0.1625    0.0978 C   0  0  0  0  0  0  0  0  0  0  0  0
   -0.8237    1.6144   -0.6442 C   0  0  0  0  0  0  0  0  0  0  0  0
    1.4415   -0.4811   -0.3161 C   0  0  0  0  0  0  0  0  0  0  0  0
   -3.3338    0.7480    0.2110 C   0  0  0  0  0  0  0  0  0  0  0  0
   -1.8744    2.5248   -0.5308 C   0  0  0  0  0  0  0  0  0  0  0  0
   -3.1294    2.0915   -0.1033 C   0  0  0  0  0  0  0  0  0  0  0  0
    2.2575   -1.3086   -1.0686 C   0  0  0  0  0  0  0  0  0  0  0  0
   -2.5290   -1.5592    0.4339 C   0  0  0  0  0  0  0  0  0  0  0  0
    3.6158   -1.1266   -0.9084 C   0  0  0  0  0  0  0  0  0  0  0  0
    3.2659    0.5379    0.5997 C   0  0  0  0  0  0  0  0  0  0  0  0
  1 15  1  0
  2 15  2  0
  3  7  1  0
  3 10  1  0
  4 10  2  0
  4 17  1  0
  5 16  1  0
  5 17  2  0
  6 17  1  0
  7  8  2  0
  7  9  1  0
  8 11  1  0
  8 15  1  0
  9 12  2  0
 10 14  1  0
 11 13  2  0
 12 13  1  0
 14 16  2  0
M  END
>  <PUBCHEM_COMPOUND_CID>  (1) 
35750

>  <PUBCHEM_CONFORMER_RMSD>  (1) 
0.6

>  <PUBCHEM_CONFORMER_DIVERSEORDER>  (1) 
2
15
22
9
12
3
4
14
23
19
20
5
17
16
10
21
8
13
1
18
7
11
6

>  <PUBCHEM_MMFF94_PARTIAL_CHARGES>  (1) 
27
1 -0.65
10 0.41
11 -0.15
12 -0.15
13 -0.15
14 -0.15
15 0.63
16 0.16
17 0.72
18 0.4
19 0.15
2 -0.57
20 0.15
21 0.15
22 0.15
23 0.15
24 0.15
25 0.4
26 0.4
27 0.5
3 -0.6
4 -0.62
5 -0.62
6 -0.9
7 0.1
8 0.09
9 -0.15

>  <PUBCHEM_EFFECTIVE_ROTOR_COUNT>  (1) 
3

>  <PUBCHEM_PHARMACOPHORE_FEATURES>  (1) 
8
1 1 acceptor
1 2 acceptor
1 3 donor
1 6 donor
3 1 2 15 anion
4 4 5 6 17 cation
6 4 5 10 14 16 17 rings
6 7 8 9 11 12 13 rings

>  <PUBCHEM_HEAVY_ATOM_COUNT>  (1) 
17

>  <PUBCHEM_ATOM_DEF_STEREO_COUNT>  (1) 
0

>  <PUBCHEM_ATOM_UDEF_STEREO_COUNT>  (1) 
0

>  <PUBCHEM_BOND_DEF_STEREO_COUNT>  (1) 
0

>  <PUBCHEM_BOND_UDEF_STEREO_COUNT>  (1) 
0

>  <PUBCHEM_ISOTOPIC_ATOM_COUNT>  (1) 
0

>  <PUBCHEM_COMPONENT_COUNT>  (1) 
1

>  <PUBCHEM_CACTVS_TAUTO_COUNT>  (1) 
13

>  <PUBCHEM_CONFORMER_ID>  (1) 
00008BA600000002

>  <PUBCHEM_MMFF94_ENERGY>  (1) 
67.0911

>  <PUBCHEM_FEATURE_SELFOVERLAP>  (1) 
40.652

>  <PUBCHEM_SHAPE_FINGERPRINT>  (1) 
10366900 7 18343299262668433012
10608611 8 18342736291272037932
11132069 177 18408040706319574909
11615757 297 16702021989146504906
12173636 292 18118682119695430717
12500047 106 18263645060952419348
12553582 1 18048054139945206247
12633257 1 18269274573519299208
12824470 246 15358847662811992841
13214271 11 18341606040278475140
13544592 145 18125732183614436423
14026960 21 18126277778059104248
14178342 30 18186796959393285962
14289901 80 18259709999458196472
14866123 147 15749803851184854326
15219456 202 18273494567997976980
15653759 3 18410858733230838508
16945 1 18260552182362860429
17844478 74 18342460361024026054
18175812 5 18343867697142123708
18186145 218 18200033911055024808
19049666 15 18198346156548616958
20279233 1 18342459201346043470
20510252 161 18411983559453905737
20645477 56 18337114453980690381
20645477 70 17346318120959499126
20681677 76 18271798038615095916
22943178 12 18271807899981261966
23402539 116 18411131455544540471
23526113 38 17843126896261132318
23557571 272 18411145748514979068
23559900 14 18338238150759091134
2748010 2 18343864398781378628
49207404 50 18200869699175287392
5104073 3 18342175540436818554
6049 1 18272661125383688548
7097593 13 17896861189499472538
77492 1 16805329876857035198
81228 2 18260840301669587745
84936 182 17184456625932785317
8809292 202 18339367353226654742
90316 7 17676758791013808988
9709674 26 18271247110111794622

>  <PUBCHEM_SHAPE_MULTIPOLES>  (1) 
318.19
7.58
2.42
0.98
4.34
0.03
0.08
0.15
0.83
-2.23
0.17
0.71
0.07
1.58

>  <PUBCHEM_SHAPE_SELFOVERLAP>  (1) 
686.56

>  <PUBCHEM_SHAPE_VOLUME>  (1) 
171.5

>  <PUBCHEM_COORDINATE_TYPE>  (1) 
2
5
10

$$$$
