35760
     RDKit          3D

 14 14  0  0  1  0  0  0  0  0999 V2000
    3.6777    0.3744   -1.0807 Br  0  0  0  0  0  0  0  0  0  0  0  0
    1.4945    1.1473    1.4322 O   0  0  0  0  0  0  0  0  0  0  0  0
   -2.3339   -1.3887    0.2559 C   0  0  0  0  0  0  0  0  0  0  0  0
   -1.2214   -1.7554   -0.7334 C   0  0  0  0  0  0  0  0  0  0  0  0
   -3.2317   -0.2369   -0.2215 C   0  0  0  0  0  0  0  0  0  0  0  0
   -0.1738   -2.7067   -0.1468 C   0  0  0  0  0  0  0  0  0  0  0  0
   -2.5027    1.0661   -0.5780 C   0  0  0  0  0  0  0  0  0  0  0  0
    0.7557   -2.0805    0.9037 C   0  0  0  0  0  0  0  0  0  0  0  0
   -1.6914    1.6570    0.5802 C   0  0  0  0  0  0  0  0  0  0  0  0
    2.0583   -1.4736    0.3567 C   0  0  0  0  0  0  0  0  0  0  0  0
   -0.6105    2.6472    0.1278 C   0  0  0  0  0  0  0  0  0  0  0  0
    1.9018   -0.2236   -0.5053 C   0  0  0  0  0  0  0  0  0  0  0  0
    0.5616    1.9984   -0.6160 C   0  0  0  0  0  0  0  0  0  0  0  0
    1.3158    0.9750    0.2254 C   0  0  0  0  0  0  0  0  0  0  0  0
  1 12  1  0
  2 14  2  0
  3  4  1  0
  3  5  1  0
  4  6  1  0
  5  7  1  0
  6  8  1  0
  7  9  1  0
  8 10  1  0
  9 11  1  0
 10 12  1  0
 11 13  1  0
 12 14  1  0
 13 14  1  0
M  END
>  <PUBCHEM_COMPOUND_CID>  (1) 
35760

>  <PUBCHEM_CONFORMER_RMSD>  (1) 
0.6

>  <PUBCHEM_CONFORMER_DIVERSEORDER>  (1) 
1
33
20
32
35
47
42
27
43
13
34
26
19
45
44
15
22
10
16
48
46
9
7
28
40
18
25
31
4
30
29
23
37
6
21
41
8
17
3
14
12
36
5
38
39
24
2
11

>  <PUBCHEM_MMFF94_PARTIAL_CHARGES>  (1) 
5
1 -0.23
12 0.29
13 0.06
14 0.45
2 -0.57

>  <PUBCHEM_EFFECTIVE_ROTOR_COUNT>  (1) 
2.2

>  <PUBCHEM_PHARMACOPHORE_FEATURES>  (1) 
2
1 1 hydrophobe
1 2 acceptor

>  <PUBCHEM_HEAVY_ATOM_COUNT>  (1) 
14

>  <PUBCHEM_ATOM_DEF_STEREO_COUNT>  (1) 
0

>  <PUBCHEM_ATOM_UDEF_STEREO_COUNT>  (1) 
1

>  <PUBCHEM_BOND_DEF_STEREO_COUNT>  (1) 
0

>  <PUBCHEM_BOND_UDEF_STEREO_COUNT>  (1) 
0

>  <PUBCHEM_ISOTOPIC_ATOM_COUNT>  (1) 
0

>  <PUBCHEM_COMPONENT_COUNT>  (1) 
1

>  <PUBCHEM_CACTVS_TAUTO_COUNT>  (1) 
3

>  <PUBCHEM_CONFORMER_ID>  (1) 
00008BB000000001

>  <PUBCHEM_MMFF94_ENERGY>  (1) 
17.4996

>  <PUBCHEM_FEATURE_SELFOVERLAP>  (1) 
10.148

>  <PUBCHEM_SHAPE_FINGERPRINT>  (1) 
104564 63 18269000790681270055
1420 336 18122626325296111479
14251711 518 18340194289002816031
14251717 144 16970537821513311117
14251745 187 18198908191964135016
15775835 57 18410019805748166591
16945 1 18272650155894789602
19930374 2 17902187296306483320
21249577 28 18264487274154060018
21634736 98 18338810025675782636
22802520 49 17764044840339745574
2334 1 18410006654479230383
23419403 2 16115349067396771647
23559900 14 18342464772926370580
2748010 2 18339634637636577199
2897 32 18409445907907186119
353137 74 18336273374808664788
44154327 71 18121227484834380773
57483677 78 18264227901168433444
66348 1 18339074887465472411

>  <PUBCHEM_SHAPE_MULTIPOLES>  (1) 
288.19
4.65
3.18
1.04
0.8
0.32
-0.09
-0.26
1.24
-0.66
-0.26
0.4
-0.06
-0.32

>  <PUBCHEM_SHAPE_SELFOVERLAP>  (1) 
534.77

>  <PUBCHEM_SHAPE_VOLUME>  (1) 
181.3

>  <PUBCHEM_COORDINATE_TYPE>  (1) 
2
5
10

$$$$
