35762
     RDKit          3D

 17 18  0  0  0  0  0  0  0  0999 V2000
    2.0461   -2.6163   -1.0951 Cl  0  0  0  0  0  0  0  0  0  0  0  0
   -2.2903    1.2433   -2.0566 Cl  0  0  0  0  0  0  0  0  0  0  0  0
   -4.8069    1.3035   -0.0504 Cl  0  0  0  0  0  0  0  0  0  0  0  0
    5.0223    1.2869    1.1240 Cl  0  0  0  0  0  0  0  0  0  0  0  0
   -0.1063   -0.5189   -1.0982 O   0  0  0  0  0  0  0  0  0  0  0  0
    1.1107   -0.1147   -0.5785 C   0  0  0  0  0  0  0  0  0  0  0  0
   -1.1935   -0.4643   -0.2772 C   0  0  0  0  0  0  0  0  0  0  0  0
    2.1787   -0.9940   -0.5243 C   0  0  0  0  0  0  0  0  0  0  0  0
    1.2222    1.1876   -0.1199 C   0  0  0  0  0  0  0  0  0  0  0  0
   -2.3042    0.3200   -0.5889 C   0  0  0  0  0  0  0  0  0  0  0  0
   -1.1781   -1.2161    0.8976 C   0  0  0  0  0  0  0  0  0  0  0  0
    3.3943   -0.5589    0.0041 C   0  0  0  0  0  0  0  0  0  0  0  0
    2.4375    1.6225    0.4084 C   0  0  0  0  0  0  0  0  0  0  0  0
   -3.3993    0.3526    0.2744 C   0  0  0  0  0  0  0  0  0  0  0  0
   -2.2730   -1.1834    1.7609 C   0  0  0  0  0  0  0  0  0  0  0  0
    3.5236    0.7494    0.4704 C   0  0  0  0  0  0  0  0  0  0  0  0
   -3.3837   -0.3992    1.4493 C   0  0  0  0  0  0  0  0  0  0  0  0
  1  8  1  0
  2 10  1  0
  3 14  1  0
  4 16  1  0
  5  6  1  0
  5  7  1  0
  6  8  2  0
  6  9  1  0
  7 10  2  0
  7 11  1  0
  8 12  1  0
  9 13  2  0
 10 14  1  0
 11 15  2  0
 12 16  2  0
 13 16  1  0
 14 17  2  0
 15 17  1  0
M  END
>  <PUBCHEM_COMPOUND_CID>  (1) 
35762

>  <PUBCHEM_CONFORMER_RMSD>  (1) 
0.6

>  <PUBCHEM_CONFORMER_DIVERSEORDER>  (1) 
1
2
11
12
5
3
8
4
7
6
9
10
13
14

>  <PUBCHEM_MMFF94_PARTIAL_CHARGES>  (1) 
23
1 -0.18
10 0.18
11 -0.15
12 -0.15
13 -0.15
14 0.18
15 -0.15
16 0.18
17 -0.15
18 0.15
19 0.15
2 -0.18
20 0.15
21 0.15
22 0.15
23 0.15
3 -0.18
4 -0.18
5 -0.17
6 0.08
7 0.08
8 0.18
9 -0.15

>  <PUBCHEM_EFFECTIVE_ROTOR_COUNT>  (1) 
2

>  <PUBCHEM_PHARMACOPHORE_FEATURES>  (1) 
3
1 5 acceptor
6 6 8 9 12 13 16 rings
6 7 10 11 14 15 17 rings

>  <PUBCHEM_HEAVY_ATOM_COUNT>  (1) 
17

>  <PUBCHEM_ATOM_DEF_STEREO_COUNT>  (1) 
0

>  <PUBCHEM_ATOM_UDEF_STEREO_COUNT>  (1) 
0

>  <PUBCHEM_BOND_DEF_STEREO_COUNT>  (1) 
0

>  <PUBCHEM_BOND_UDEF_STEREO_COUNT>  (1) 
0

>  <PUBCHEM_ISOTOPIC_ATOM_COUNT>  (1) 
0

>  <PUBCHEM_COMPONENT_COUNT>  (1) 
1

>  <PUBCHEM_CACTVS_TAUTO_COUNT>  (1) 
1

>  <PUBCHEM_CONFORMER_ID>  (1) 
00008BB200000001

>  <PUBCHEM_MMFF94_ENERGY>  (1) 
50.7625

>  <PUBCHEM_FEATURE_SELFOVERLAP>  (1) 
15.223

>  <PUBCHEM_SHAPE_FINGERPRINT>  (1) 
10366900 7 18260548960731037501
10498660 4 13829861170903604003
1100329 8 14732844359226790859
11132069 177 17967540051896180093
11543360 7 13757790494790943736
11640471 11 16917352540879038488
12236239 1 16774075154909542669
12251169 10 17822289136606373652
12633257 1 17894627084466158880
12788726 201 16250841442695941591
13581323 91 16805323305372436371
13583140 156 17703506688139961067
14178342 30 17458068187575851891
15219456 202 18409453582802864327
15309172 13 18200594816930943942
15375358 24 18408885139654817368
15653759 3 18040436611322672312
15775835 57 17060624412252945032
16752209 62 16081079381998554575
16945 1 18273216378755773934
17804303 29 17676215666676398155
1813 80 13335008340925698714
18186145 218 18189337875141264151
18219364 16 18342453793971707144
19049666 15 18116714002096768239
19422 9 13984669139439540607
19784866 170 18409732880806357220
200 152 17989199387154556287
20157964 124 18201718410677920397
20279233 1 18334298673236615067
204376 136 18130224981989861794
20600515 1 17530972380024152029
20645476 183 16702014292918545453
20645477 70 18201436913699028406
21486144 27 18411706473749291559
21618674 25 18413106156188207571
21650355 55 17241329204444821249
22112679 90 15140683553080961526
23048698 100 17346601841655446198
231179 274 17988647415063787744
232386 152 16226050036816853546
23402539 116 17822561803090522175
23557571 272 18114761402985638547
23559900 14 17968952881061704238
23598288 3 13985211142790351063
2838139 119 17628081092745597689
296302 2 18272932738936165528
351380 180 18410290303094722681
465052 167 13984961627440600409
474 4 17775001340682572584
495365 180 18342171120614900323
58807428 26 17240486862790034907
6049 1 18262250914610537286
633830 44 17489315234738403012
69090 78 18408601470461774655
77492 1 16702300118153898671
8272917 22 18059298660335551310
90316 7 16732702757666602997

>  <PUBCHEM_SHAPE_MULTIPOLES>  (1) 
351.46
8.62
1.93
1.54
1.04
0.67
0.09
-3.74
-2.5
1.13
0.3
-0.92
0.13
1.92

>  <PUBCHEM_SHAPE_SELFOVERLAP>  (1) 
722.949

>  <PUBCHEM_SHAPE_VOLUME>  (1) 
205.9

>  <PUBCHEM_COORDINATE_TYPE>  (1) 
2
5
10

$$$$
