35794
     RDKit          3D

  8  8  0  0  0  0  0  0  0  0999 V2000
   -0.2146    0.1292    0.3460 N   0  0  0  0  0  0  0  0  0  0  0  0
   -2.2500    0.4885   -0.4139 N   0  0  0  0  0  0  0  0  0  0  0  0
    1.1492    0.4100    0.7928 C   0  0  0  0  0  0  0  0  0  0  0  0
   -0.7901   -1.0959    0.2899 C   0  0  0  0  0  0  0  0  0  0  0  0
   -1.1107    1.0527   -0.0799 C   0  0  0  0  0  0  0  0  0  0  0  0
    2.1223    0.3597   -0.3437 C   0  0  0  0  0  0  0  0  0  0  0  0
   -2.0571   -0.8509   -0.1852 C   0  0  0  0  0  0  0  0  0  0  0  0
    3.1510   -0.4933   -0.4059 C   0  0  0  0  0  0  0  0  0  0  0  0
  1  3  1  0
  1  4  1  0
  1  5  1  0
  2  5  2  0
  2  7  1  0
  3  6  1  0
  4  7  2  0
  6  8  2  0
M  END
>  <PUBCHEM_COMPOUND_CID>  (1) 
35794

>  <PUBCHEM_CONFORMER_RMSD>  (1) 
0.4

>  <PUBCHEM_CONFORMER_DIVERSEORDER>  (1) 
3
7
14
11
16
5
9
6
2
13
8
4
15
1
10
12

>  <PUBCHEM_MMFF94_PARTIAL_CHARGES>  (1) 
14
1 0.05
11 0.15
12 0.15
13 0.15
14 0.15
15 0.15
16 0.15
2 -0.57
3 0.39
4 -0.3
5 0.04
6 -0.29
7 0.08
8 -0.3

>  <PUBCHEM_EFFECTIVE_ROTOR_COUNT>  (1) 
2

>  <PUBCHEM_PHARMACOPHORE_FEATURES>  (1) 
3
1 8 hydrophobe
3 1 2 5 cation
5 1 2 4 5 7 rings

>  <PUBCHEM_HEAVY_ATOM_COUNT>  (1) 
8

>  <PUBCHEM_ATOM_DEF_STEREO_COUNT>  (1) 
0

>  <PUBCHEM_ATOM_UDEF_STEREO_COUNT>  (1) 
0

>  <PUBCHEM_BOND_DEF_STEREO_COUNT>  (1) 
0

>  <PUBCHEM_BOND_UDEF_STEREO_COUNT>  (1) 
0

>  <PUBCHEM_ISOTOPIC_ATOM_COUNT>  (1) 
0

>  <PUBCHEM_COMPONENT_COUNT>  (1) 
1

>  <PUBCHEM_CACTVS_TAUTO_COUNT>  (1) 
1

>  <PUBCHEM_CONFORMER_ID>  (1) 
00008BD200000003

>  <PUBCHEM_MMFF94_ENERGY>  (1) 
3.7

>  <PUBCHEM_FEATURE_SELFOVERLAP>  (1) 
15.223

>  <PUBCHEM_SHAPE_FINGERPRINT>  (1) 
12897270 3 18335140916507847158
14390081 3 12107781921711829174
15310529 11 18341897441251446556
16714656 1 18334857225196162341
20201158 50 18059859437346802638
20653085 51 17676778590849641764
21040471 1 18263908965502927457
23552423 10 18260546766198044946
29004967 10 16702305667488813834
369184 2 10591766458665072982

>  <PUBCHEM_SHAPE_MULTIPOLES>  (1) 
154.67
4.01
1.1
0.76
2.35
0.07
-0.06
0.51
0.88
-0.37
0
0.13
-0.02
0.16

>  <PUBCHEM_SHAPE_SELFOVERLAP>  (1) 
310.129

>  <PUBCHEM_SHAPE_VOLUME>  (1) 
93.3

>  <PUBCHEM_COORDINATE_TYPE>  (1) 
2
5
10

$$$$
