35791
     RDKit          3D

 11 12  0  0  1  0  0  0  0  0999 V2000
   -0.9135    0.2193   -1.4574 S   0  0  0  0  0  0  0  0  0  0  0  0
   -1.5859    0.0472    1.4544 S   0  0  0  0  0  0  0  0  0  0  0  0
   -0.1868    0.1420    0.2461 C   0  0  0  0  0  0  0  0  0  0  0  0
    0.7672   -1.0751    0.4356 C   0  0  0  0  0  0  0  0  0  0  0  0
    0.5587    1.4663    0.5273 C   0  0  0  0  0  0  0  0  0  0  0  0
    2.0813   -0.9061   -0.3557 C   0  0  0  0  0  0  0  0  0  0  0  0
    1.8668    1.6080   -0.2544 C   0  0  0  0  0  0  0  0  0  0  0  0
    2.7807    0.4102   -0.0333 C   0  0  0  0  0  0  0  0  0  0  0  0
    0.1580   -2.4473    0.1057 C   0  0  0  0  0  0  0  0  0  0  0  0
   -2.6404   -0.0697   -0.9994 C   0  0  0  0  0  0  0  0  0  0  0  0
   -2.8863    0.6052    0.3310 C   0  0  0  0  0  0  0  0  0  0  0  0
  1  3  1  0
  1 10  1  0
  2  3  1  0
  2 11  1  0
  3  4  1  0
  3  5  1  0
  4  6  1  0
  4  9  1  0
  5  7  1  0
  6  8  1  0
  7  8  1  0
 10 11  1  0
M  END
>  <PUBCHEM_COMPOUND_CID>  (1) 
35791

>  <PUBCHEM_CONFORMER_RMSD>  (1) 
0.4

>  <PUBCHEM_CONFORMER_DIVERSEORDER>  (1) 
1
4
2
3

>  <PUBCHEM_MMFF94_PARTIAL_CHARGES>  (1) 
5
1 -0.46
10 0.23
11 0.23
2 -0.46
3 0.46

>  <PUBCHEM_EFFECTIVE_ROTOR_COUNT>  (1) 
1.8

>  <PUBCHEM_PHARMACOPHORE_FEATURES>  (1) 
2
5 1 2 3 10 11 rings
6 3 4 5 6 7 8 rings

>  <PUBCHEM_HEAVY_ATOM_COUNT>  (1) 
11

>  <PUBCHEM_ATOM_DEF_STEREO_COUNT>  (1) 
0

>  <PUBCHEM_ATOM_UDEF_STEREO_COUNT>  (1) 
1

>  <PUBCHEM_BOND_DEF_STEREO_COUNT>  (1) 
0

>  <PUBCHEM_BOND_UDEF_STEREO_COUNT>  (1) 
0

>  <PUBCHEM_ISOTOPIC_ATOM_COUNT>  (1) 
0

>  <PUBCHEM_COMPONENT_COUNT>  (1) 
1

>  <PUBCHEM_CACTVS_TAUTO_COUNT>  (1) 
1

>  <PUBCHEM_CONFORMER_ID>  (1) 
00008BCF00000001

>  <PUBCHEM_MMFF94_ENERGY>  (1) 
19.0243

>  <PUBCHEM_FEATURE_SELFOVERLAP>  (1) 
10.15

>  <PUBCHEM_SHAPE_FINGERPRINT>  (1) 
1 1 18334573538237603654
10702982 57 18202006563790634679
10857977 72 16515692156108126245
12326174 3 18115860815533696314
12423570 1 14314644475941969056
12491281 212 16916804988473102952
14128692 85 17774708827423496717
14817 1 14297009344756917571
14993402 34 17632577123943597277
15557651 10 17822279223616223684
15775835 57 18131636690100167633
16945 1 18260832566032599978
17834069 17 18190761901323003413
18175812 5 17603874424402896581
20201158 50 18114743724609909403
21040471 1 18266179615922780600
22802520 49 17534334544599803237
23211744 41 17458615701421637249
23235685 24 18411417341072790720
23552423 10 18270960129229369359
2748010 2 17980492470559381360
29004967 10 18335141929835285937
5084963 1 18059853973847591609
528862 383 18337105679051170946
528886 8 18411695487043528816
63268167 104 18273214192269357984
77492 1 17775567515950626633

>  <PUBCHEM_SHAPE_MULTIPOLES>  (1) 
234.07
3.78
1.8
1.24
0.59
0.8
-0.08
-0.82
-0.3
-0.82
0.12
0.75
-0.07
-0.04

>  <PUBCHEM_SHAPE_SELFOVERLAP>  (1) 
440.838

>  <PUBCHEM_SHAPE_VOLUME>  (1) 
143.9

>  <PUBCHEM_COORDINATE_TYPE>  (1) 
2
5
10

$$$$
