35808
     RDKit          3D

 14 15  0  0  0  0  0  0  0  0999 V2000
   -0.1675   -0.8226   -0.4348 N   0  0  0  0  0  0  0  0  0  0  0  0
   -1.8500   -1.9481    0.3296 N   0  0  0  0  0  0  0  0  0  0  0  0
    3.4427    0.1035   -0.3112 N   0  0  0  0  0  0  0  0  0  0  0  0
    1.1600   -0.5225   -0.9351 C   0  0  0  0  0  0  0  0  0  0  0  0
   -1.1865    0.0891   -0.2500 C   0  0  0  0  0  0  0  0  0  0  0  0
    2.1099   -0.1773    0.2055 C   0  0  0  0  0  0  0  0  0  0  0  0
   -2.2727   -0.6375    0.2434 C   0  0  0  0  0  0  0  0  0  0  0  0
   -0.5817   -2.0439   -0.0820 C   0  0  0  0  0  0  0  0  0  0  0  0
   -1.2430    1.4603   -0.4703 C   0  0  0  0  0  0  0  0  0  0  0  0
   -3.4912   -0.0437    0.5509 C   0  0  0  0  0  0  0  0  0  0  0  0
    4.3633    0.4252    0.7706 C   0  0  0  0  0  0  0  0  0  0  0  0
   -2.4661    2.0738   -0.1643 C   0  0  0  0  0  0  0  0  0  0  0  0
   -3.5635    1.3397    0.3340 C   0  0  0  0  0  0  0  0  0  0  0  0
    5.7462    0.7041    0.2140 C   0  0  0  0  0  0  0  0  0  0  0  0
  1  4  1  0
  1  5  1  0
  1  8  2  0
  2  7  1  0
  2  8  1  0
  3  6  1  0
  3 11  1  0
  4  6  1  0
  5  7  2  0
  5  9  1  0
  7 10  1  0
  9 12  2  0
 10 13  2  0
 11 14  1  0
 12 13  1  0
M  CHG  1   1   1
M  END
>  <PUBCHEM_COMPOUND_CID>  (1) 
35808

>  <PUBCHEM_CONFORMER_RMSD>  (1) 
0.6

>  <PUBCHEM_CONFORMER_DIVERSEORDER>  (1) 
2
22
6
5
21
28
8
18
19
24
26
15
12
23
25
13
27
11
10
29
4
16
7
3
14
17
9
1
20

>  <PUBCHEM_MMFF94_PARTIAL_CHARGES>  (1) 
20
1 -0.76
10 -0.11
11 0.27
12 -0.15
13 -0.15
19 0.15
2 -0.7
20 0.45
21 0.36
22 0.15
23 0.15
26 0.15
27 0.15
3 -0.9
4 0.51
5 0.31
6 0.27
7 0.31
8 0.65
9 -0.11

>  <PUBCHEM_EFFECTIVE_ROTOR_COUNT>  (1) 
4

>  <PUBCHEM_PHARMACOPHORE_FEATURES>  (1) 
6
1 2 donor
1 3 cation
1 3 donor
3 1 2 8 cation
5 1 2 5 7 8 rings
6 5 7 9 10 12 13 rings

>  <PUBCHEM_HEAVY_ATOM_COUNT>  (1) 
14

>  <PUBCHEM_ATOM_DEF_STEREO_COUNT>  (1) 
0

>  <PUBCHEM_ATOM_UDEF_STEREO_COUNT>  (1) 
0

>  <PUBCHEM_BOND_DEF_STEREO_COUNT>  (1) 
0

>  <PUBCHEM_BOND_UDEF_STEREO_COUNT>  (1) 
0

>  <PUBCHEM_ISOTOPIC_ATOM_COUNT>  (1) 
0

>  <PUBCHEM_COMPONENT_COUNT>  (1) 
1

>  <PUBCHEM_CACTVS_TAUTO_COUNT>  (1) 
2

>  <PUBCHEM_CONFORMER_ID>  (1) 
00008BE000000002

>  <PUBCHEM_MMFF94_ENERGY>  (1) 
10.8523

>  <PUBCHEM_FEATURE_SELFOVERLAP>  (1) 
30.554

>  <PUBCHEM_SHAPE_FINGERPRINT>  (1) 
11132069 177 18336836311877327165
12251169 10 18260267460322230724
12390115 104 18128272111468039873
13214271 11 18343301483124301175
13897977 58 18334017228709888404
14420673 8 18045496410091400146
15042514 8 18264214784434088235
15061688 2 17751909230188886381
15219456 202 18201445727119528230
16945 1 18262257542393804335
17846911 113 18411419484087372085
1813 80 16298671582311316070
200 152 13984659273883882944
20432913 95 14996279206843501144
20510252 161 18342179916866119833
20645464 45 18272937123971167655
20645477 56 18412827988752896660
20645477 70 16773527577477673582
21119208 17 12607404390687742640
21650355 55 18190463946625642275
23402539 116 18341043129581386679
23500284 214 18272654519423410936
23557571 272 18130516330679856222
23559900 14 18268731436819973782
27216 239 18272646895951373584
2748010 2 17901968352465133719
7364860 26 17907863903337547447
90316 7 17676204628542285500

>  <PUBCHEM_SHAPE_MULTIPOLES>  (1) 
273.17
8.8
1.89
0.8
14.95
0.2
0.02
-3.83
-2.09
-1.72
0.04
0.13
-0.01
0.32

>  <PUBCHEM_SHAPE_SELFOVERLAP>  (1) 
570.886

>  <PUBCHEM_SHAPE_VOLUME>  (1) 
156.7

>  <PUBCHEM_COORDINATE_TYPE>  (1) 
2
5
10

$$$$
