35829
     RDKit          3D

 15 16  0  0  1  0  0  0  0  0999 V2000
   -0.5608    1.3455   -0.0078 O   0  0  0  0  0  0  0  0  0  0  0  0
   -3.4468   -0.6328   -0.6969 O   0  0  0  0  0  0  0  0  0  0  0  0
    2.2557    0.6014   -0.0636 N   0  0  0  0  0  0  0  0  0  0  0  0
    1.1791   -0.3580    0.0099 C   0  0  0  0  0  0  0  0  0  0  0  0
   -2.4718   -0.1396    0.2003 C   0  0  0  0  0  0  0  0  0  0  0  0
   -0.1437    0.0396    0.0328 C   0  0  0  0  0  0  0  0  0  0  0  0
   -1.9890    1.2504   -0.2481 C   0  0  0  0  0  0  0  0  0  0  0  0
   -1.1849   -0.8728    0.1227 C   0  0  0  0  0  0  0  0  0  0  0  0
    3.6484   -0.0926   -0.0678 C   0  0  0  0  0  0  0  0  0  0  0  0
    2.2262    1.5957    1.1332 C   0  0  0  0  0  0  0  0  0  0  0  0
    2.2532    1.5060   -1.3372 C   0  0  0  0  0  0  0  0  0  0  0  0
    1.4481   -1.7266    0.0671 C   0  0  0  0  0  0  0  0  0  0  0  0
   -0.9302   -2.2311    0.1907 C   0  0  0  0  0  0  0  0  0  0  0  0
   -2.6839    2.3724    0.5095 C   0  0  0  0  0  0  0  0  0  0  0  0
    0.4001   -2.6575    0.1554 C   0  0  0  0  0  0  0  0  0  0  0  0
  1  6  1  0
  1  7  1  0
  2  5  1  0
  3  4  1  0
  3  9  1  0
  3 10  1  0
  3 11  1  0
  4  6  2  0
  4 12  1  0
  5  7  1  0
  5  8  1  0
  6  8  1  0
  7 14  1  0
  8 13  2  0
 12 15  2  0
 13 15  1  0
M  CHG  1   3   1
M  END
>  <PUBCHEM_COMPOUND_CID>  (1) 
35829

>  <PUBCHEM_CONFORMER_RMSD>  (1) 
0.6

>  <PUBCHEM_CONFORMER_DIVERSEORDER>  (1) 
1

>  <PUBCHEM_MMFF94_PARTIAL_CHARGES>  (1) 
18
1 -0.36
10 0.5
11 0.5
12 -0.15
13 -0.15
15 -0.15
2 -0.68
27 0.15
28 0.15
3 -0.87
32 0.15
33 0.4
4 0.36
5 0.42
6 0.08
7 0.28
8 -0.14
9 0.5

>  <PUBCHEM_EFFECTIVE_ROTOR_COUNT>  (1) 
1.6

>  <PUBCHEM_PHARMACOPHORE_FEATURES>  (1) 
6
1 1 acceptor
1 2 acceptor
1 2 donor
1 3 cation
5 1 5 6 7 8 rings
6 4 6 8 12 13 15 rings

>  <PUBCHEM_HEAVY_ATOM_COUNT>  (1) 
15

>  <PUBCHEM_ATOM_DEF_STEREO_COUNT>  (1) 
2

>  <PUBCHEM_ATOM_UDEF_STEREO_COUNT>  (1) 
0

>  <PUBCHEM_BOND_DEF_STEREO_COUNT>  (1) 
0

>  <PUBCHEM_BOND_UDEF_STEREO_COUNT>  (1) 
0

>  <PUBCHEM_ISOTOPIC_ATOM_COUNT>  (1) 
0

>  <PUBCHEM_COMPONENT_COUNT>  (1) 
1

>  <PUBCHEM_CACTVS_TAUTO_COUNT>  (1) 
1

>  <PUBCHEM_CONFORMER_ID>  (1) 
00008BF500000001

>  <PUBCHEM_MMFF94_ENERGY>  (1) 
65.5896

>  <PUBCHEM_FEATURE_SELFOVERLAP>  (1) 
30.547

>  <PUBCHEM_SHAPE_FINGERPRINT>  (1) 
10967382 1 17978229361585083377
13140716 1 18049725418819403811
13380535 21 18267033747494799753
13380535 76 18409164407092613042
13538477 17 17970343939390373166
14614273 12 18188480299005662173
14648413 74 18047759191523569731
15490181 8 18334869306760032271
15775835 57 18341618049080926569
16945 1 18339084911660658955
193761 8 18194401091690576363
20510252 161 18270964660219673289
20511035 2 18339080371891036415
20645476 183 17678182800505854222
21501502 16 18266736883629213979
21524375 3 18409729547368390619
22802520 49 18128272261981396446
2334 1 18410012091986818499
23402539 116 18269824453797658759
23419403 2 15314532735702239067
23463225 33 18260545576792816858
23493267 7 17603303769330900643
23552423 10 18264489477646258743
23557571 272 17765441228934416940
23559900 14 18272658922956944396
25 1 18194406584663344238
2748010 2 18336549300608579135
305870 269 18336826364558859874
352729 6 18336267967234472554
53812653 166 18341048497926204312
7364860 26 18054226531502668343
7832392 63 17981886341701804657
81228 2 17977944918754576307

>  <PUBCHEM_SHAPE_MULTIPOLES>  (1) 
291.97
4.77
2.7
0.87
0.11
0.7
0.05
-1.9
0.31
-0.45
-0.26
0.32
-0.36
-0.28

>  <PUBCHEM_SHAPE_SELFOVERLAP>  (1) 
614.223

>  <PUBCHEM_SHAPE_VOLUME>  (1) 
168.6

>  <PUBCHEM_COORDINATE_TYPE>  (1) 
2
5
10

$$$$
