35831
     RDKit          3D

 15 16  0  0  1  0  0  0  0  0999 V2000
   -2.4883    1.3076    0.1885 O   0  0  0  0  0  0  0  0  0  0  0  0
   -2.2227   -2.2248    0.1845 O   0  0  0  0  0  0  0  0  0  0  0  0
    2.8584   -0.2666   -0.0728 N   0  0  0  0  0  0  0  0  0  0  0  0
    1.4781    0.1605   -0.0031 C   0  0  0  0  0  0  0  0  0  0  0  0
   -0.8338   -0.3205    0.1278 C   0  0  0  0  0  0  0  0  0  0  0  0
    0.4609   -0.7924    0.0622 C   0  0  0  0  0  0  0  0  0  0  0  0
    3.6870    0.2686    1.1293 C   0  0  0  0  0  0  0  0  0  0  0  0
    3.5463    0.2220   -1.3793 C   0  0  0  0  0  0  0  0  0  0  0  0
    3.0741   -1.8126   -0.0567 C   0  0  0  0  0  0  0  0  0  0  0  0
   -1.1489    1.0226    0.1288 C   0  0  0  0  0  0  0  0  0  0  0  0
   -3.1716    0.0321    0.2830 C   0  0  0  0  0  0  0  0  0  0  0  0
    1.1744    1.5348   -0.0029 C   0  0  0  0  0  0  0  0  0  0  0  0
   -2.0897   -1.0170    0.1972 C   0  0  0  0  0  0  0  0  0  0  0  0
   -0.1518    1.9757    0.0624 C   0  0  0  0  0  0  0  0  0  0  0  0
   -4.1723   -0.0899   -0.8489 C   0  0  0  0  0  0  0  0  0  0  0  0
  1 10  1  0
  1 11  1  0
  2 13  2  0
  3  4  1  0
  3  7  1  0
  3  8  1  0
  3  9  1  0
  4  6  2  0
  4 12  1  0
  5  6  1  0
  5 10  2  0
  5 13  1  0
 10 14  1  0
 11 13  1  0
 11 15  1  0
 12 14  2  0
M  CHG  1   3   1
M  END
>  <PUBCHEM_COMPOUND_CID>  (1) 
35831

>  <PUBCHEM_CONFORMER_RMSD>  (1) 
0.6

>  <PUBCHEM_CONFORMER_DIVERSEORDER>  (1) 
2
1

>  <PUBCHEM_MMFF94_PARTIAL_CHARGES>  (1) 
17
1 -0.36
10 0.08
11 0.34
12 -0.15
13 0.42
14 -0.15
16 0.15
2 -0.57
27 0.15
28 0.15
3 -0.87
4 0.36
5 0.09
6 -0.15
7 0.5
8 0.5
9 0.5

>  <PUBCHEM_EFFECTIVE_ROTOR_COUNT>  (1) 
1.4

>  <PUBCHEM_PHARMACOPHORE_FEATURES>  (1) 
5
1 1 acceptor
1 2 acceptor
1 3 cation
5 1 5 10 11 13 rings
6 4 5 6 10 12 14 rings

>  <PUBCHEM_HEAVY_ATOM_COUNT>  (1) 
15

>  <PUBCHEM_ATOM_DEF_STEREO_COUNT>  (1) 
0

>  <PUBCHEM_ATOM_UDEF_STEREO_COUNT>  (1) 
1

>  <PUBCHEM_BOND_DEF_STEREO_COUNT>  (1) 
0

>  <PUBCHEM_BOND_UDEF_STEREO_COUNT>  (1) 
0

>  <PUBCHEM_ISOTOPIC_ATOM_COUNT>  (1) 
0

>  <PUBCHEM_COMPONENT_COUNT>  (1) 
1

>  <PUBCHEM_CACTVS_TAUTO_COUNT>  (1) 
2

>  <PUBCHEM_CONFORMER_ID>  (1) 
00008BF700000002

>  <PUBCHEM_MMFF94_ENERGY>  (1) 
56.5516

>  <PUBCHEM_FEATURE_SELFOVERLAP>  (1) 
25.471

>  <PUBCHEM_SHAPE_FINGERPRINT>  (1) 
10130415 120 18334573546727266152
10465860 71 18267888175456642036
10967382 1 18410575093268922298
11132069 177 18409726266144953114
11401426 45 18341037567471806149
11543360 7 15936981837168270059
12032990 46 18410579482999798915
12553582 1 18410584988878801528
13140716 1 18266461086572856337
13296908 3 18202569492469608094
13571099 22 18408886221944384414
13690532 89 18410570678575337375
13760787 5 18260557688252425437
14115302 16 18114186340955176927
14144814 61 18411140220786574099
14289901 80 15769775758005196090
14911166 2 18409164416072437797
14993402 34 18411139134370825285
15375358 24 18341323465927039730
15536298 74 18272090560406168328
15848700 24 18342449348575112892
16752209 62 18263073323738802121
16945 1 18410298007833320617
18175812 5 17918277554057262484
18186145 218 16732992998323177200
200 152 17846205671037706685
20201158 50 18411699889448388503
20279233 1 18343580750577667682
20281407 28 18412268345628848826
20281475 54 18410299111560638483
20510252 161 18200872864144438489
20523700 14 18259991495640913318
20645476 183 17604442901905836158
20645477 70 18200594812409188695
21029758 11 18272079501013171729
21267235 1 18410020909370483162
21501502 16 18125448518425976438
21501925 9 18340760524547936704
2334 1 18050006898106886129
23402539 116 18271514326334853717
23463225 33 18336548214045241094
23552423 10 18117845623053062277
23557571 272 18273215258075511408
23559900 14 18412262822955014276
2748010 2 18122062267446713233
3312278 4 18336554896871909506
34934 24 18410845586135654314
69090 78 18201430389854552527
7364860 26 18198626738109326736
74978 22 18337111271383270881
81228 2 18338806593590958344
8809292 202 18261678176648389259
9709674 26 18271247123181487974

>  <PUBCHEM_SHAPE_MULTIPOLES>  (1) 
291.97
6.76
1.82
0.89
0.03
0.16
0.13
1.3
0.82
-0.14
-0.1
0.57
-0.05
0.04

>  <PUBCHEM_SHAPE_SELFOVERLAP>  (1) 
619.639

>  <PUBCHEM_SHAPE_VOLUME>  (1) 
168.3

>  <PUBCHEM_COORDINATE_TYPE>  (1) 
2
5
10

$$$$
