35841
     RDKit          3D

  7  6  0  0  0  0  0  0  0  0999 V2000
   -2.8805    0.5967    0.2193 N   0  0  0  0  0  0  0  0  0  0  0  0
    2.0078    0.2658   -0.5715 C   0  0  0  0  0  0  0  0  0  0  0  0
    0.5573    0.6054   -0.3612 C   0  0  0  0  0  0  0  0  0  0  0  0
    2.7725    0.2789    0.7433 C   0  0  0  0  0  0  0  0  0  0  0  0
   -0.4547   -0.2455   -0.1071 C   0  0  0  0  0  0  0  0  0  0  0  0
   -0.2108   -1.7250    0.0057 C   0  0  0  0  0  0  0  0  0  0  0  0
   -1.7916    0.2236    0.0714 C   0  0  0  0  0  0  0  0  0  0  0  0
  1  7  3  0
  2  3  1  0
  2  4  1  0
  3  5  2  0
  5  6  1  0
  5  7  1  0
M  END
>  <PUBCHEM_COMPOUND_CID>  (1) 
35841

>  <PUBCHEM_CONFORMER_RMSD>  (1) 
0.4

>  <PUBCHEM_CONFORMER_DIVERSEORDER>  (1) 
2
1

>  <PUBCHEM_MMFF94_PARTIAL_CHARGES>  (1) 
7
1 -0.56
10 0.15
2 0.14
3 -0.29
5 -0.07
6 0.14
7 0.49

>  <PUBCHEM_EFFECTIVE_ROTOR_COUNT>  (1) 
1

>  <PUBCHEM_PHARMACOPHORE_FEATURES>  (1) 
3
1 1 acceptor
1 4 hydrophobe
1 6 hydrophobe

>  <PUBCHEM_HEAVY_ATOM_COUNT>  (1) 
7

>  <PUBCHEM_ATOM_DEF_STEREO_COUNT>  (1) 
0

>  <PUBCHEM_ATOM_UDEF_STEREO_COUNT>  (1) 
0

>  <PUBCHEM_BOND_DEF_STEREO_COUNT>  (1) 
0

>  <PUBCHEM_BOND_UDEF_STEREO_COUNT>  (1) 
1

>  <PUBCHEM_ISOTOPIC_ATOM_COUNT>  (1) 
0

>  <PUBCHEM_COMPONENT_COUNT>  (1) 
1

>  <PUBCHEM_CACTVS_TAUTO_COUNT>  (1) 
1

>  <PUBCHEM_CONFORMER_ID>  (1) 
00008C0100000002

>  <PUBCHEM_MMFF94_ENERGY>  (1) 
2.8251

>  <PUBCHEM_FEATURE_SELFOVERLAP>  (1) 
15.223

>  <PUBCHEM_SHAPE_FINGERPRINT>  (1) 
12897270 3 9655582915472063584
12932741 1 17273992396334239708
14325111 11 18411420613542263269
14390081 3 17917993845618676993
16714656 1 18333453153015937268
20096714 4 18409174337030185997
21040471 1 18410864269169512990
29004967 10 15140674800195996620
5460574 1 8862944965617518325

>  <PUBCHEM_SHAPE_MULTIPOLES>  (1) 
139.08
3.82
1.18
0.76
0.04
0.67
-0.02
-1.17
-0.76
-0.24
0.01
0.32
-0.04
-0.06

>  <PUBCHEM_SHAPE_SELFOVERLAP>  (1) 
253.709

>  <PUBCHEM_SHAPE_VOLUME>  (1) 
87.4

>  <PUBCHEM_COORDINATE_TYPE>  (1) 
2
5
10

$$$$
