3584
     RDKit          3D

 37 38  0  0  1  0  0  0  0  0999 V2000
   -1.9311   -1.8427   -1.7988 O   0  0  0  0  0  0  0  0  0  0  0  0
    0.6685    0.0886    0.4214 O   0  0  0  0  0  0  0  0  0  0  0  0
    6.6516    1.2291    1.0481 O   0  0  0  0  0  0  0  0  0  0  0  0
    4.7582    0.8112    2.2307 O   0  0  0  0  0  0  0  0  0  0  0  0
   -1.3037   -1.6850    0.4239 N   0  0  0  0  0  0  0  0  0  0  0  0
    1.8817   -1.1601   -1.0999 N   0  0  0  0  0  0  0  0  0  0  0  0
   -4.5208   -2.0219   -0.4000 N   0  0  0  0  0  0  0  0  0  0  0  0
   -1.1343    2.9307   -0.8558 N   0  0  0  0  0  0  0  0  0  0  0  0
   -3.8705    0.4056   -0.9285 C   0  0  0  0  0  0  0  0  0  0  0  0
    0.5364   -2.9888    1.4989 C   0  0  0  0  0  0  0  0  0  0  0  0
    0.0310   -2.2166    0.2403 C   0  0  0  0  0  0  0  0  0  0  0  0
   -3.5360   -0.9540   -0.2032 C   0  0  0  0  0  0  0  0  0  0  0  0
   -2.7726    1.4534   -0.6089 C   0  0  0  0  0  0  0  0  0  0  0  0
   -2.1860   -1.5417   -0.6335 C   0  0  0  0  0  0  0  0  0  0  0  0
   -5.2437    0.9421   -0.4253 C   0  0  0  0  0  0  0  0  0  0  0  0
   -4.0584    0.1900   -2.4553 C   0  0  0  0  0  0  0  0  0  0  0  0
    0.8818   -0.9949   -0.1359 C   0  0  0  0  0  0  0  0  0  0  0  0
    0.6996   -2.0754    2.7309 C   0  0  0  0  0  0  0  0  0  0  0  0
   -0.4326   -4.1273    1.8721 C   0  0  0  0  0  0  0  0  0  0  0  0
    1.9094   -3.6263    1.1901 C   0  0  0  0  0  0  0  0  0  0  0  0
    2.7514   -0.0683   -1.5240 C   0  0  0  0  0  0  0  0  0  0  0  0
   -2.4118    1.9370    0.6799 C   0  0  0  0  0  0  0  0  0  0  0  0
    1.9375    1.0568   -2.2115 C   0  0  0  0  0  0  0  0  0  0  0  0
   -1.9699    2.0829   -1.5322 C   0  0  0  0  0  0  0  0  0  0  0  0
   -1.3819    2.8623    0.4967 C   0  0  0  0  0  0  0  0  0  0  0  0
    2.1349   -2.4381   -1.7587 C   0  0  0  0  0  0  0  0  0  0  0  0
   -4.4734   -2.9707    0.6998 C   0  0  0  0  0  0  0  0  0  0  0  0
    3.5382    0.3822   -0.3162 C   0  0  0  0  0  0  0  0  0  0  0  0
   -2.8638    1.6754    1.9885 C   0  0  0  0  0  0  0  0  0  0  0  0
    2.7944    2.2373   -2.6839 C   0  0  0  0  0  0  0  0  0  0  0  0
    1.1099    0.5161   -3.3818 C   0  0  0  0  0  0  0  0  0  0  0  0
   -0.7791    3.5419    1.5613 C   0  0  0  0  0  0  0  0  0  0  0  0
   -2.2701    2.3477    3.0631 C   0  0  0  0  0  0  0  0  0  0  0  0
   -1.2440    3.2662    2.8504 C   0  0  0  0  0  0  0  0  0  0  0  0
    4.8663    0.2674   -0.1220 C   0  0  0  0  0  0  0  0  0  0  0  0
    5.8540   -0.2970   -1.0997 C   0  0  0  0  0  0  0  0  0  0  0  0
    5.3790    0.7847    1.1792 C   0  0  0  0  0  0  0  0  0  0  0  0
  1 14  2  0
  2 17  2  0
  3 37  1  0
  4 37  2  0
  5 11  1  0
  5 14  1  0
  6 17  1  0
  6 21  1  0
  6 26  1  0
  7 12  1  0
  7 27  1  0
  8 24  1  0
  8 25  1  0
  9 12  1  0
  9 13  1  0
  9 15  1  0
  9 16  1  0
 10 11  1  0
 10 18  1  0
 10 19  1  0
 10 20  1  0
 11 17  1  0
 12 14  1  0
 13 22  1  0
 13 24  2  0
 21 23  1  0
 21 28  1  0
 22 25  2  0
 22 29  1  0
 23 30  1  0
 23 31  1  0
 25 32  1  0
 28 35  2  0
 29 33  2  0
 32 34  2  0
 33 34  1  0
 35 36  1  0
 35 37  1  0
M  END
>  <PUBCHEM_COMPOUND_CID>  (1) 
3584

>  <PUBCHEM_CONFORMER_RMSD>  (1) 
1.2

>  <PUBCHEM_CONFORMER_DIVERSEORDER>  (1) 
4
187
30
284
322
20
85
2
227
216
238
23
315
236
252
13
324
285
287
5
211
91
175
88
231
39
162
89
46
139
65
310
293
313
298
26
317
254
215
159
140
265
224
240
80
281
63
115
66
275
295
143
116
58
84
286
328
307
14
169
326
228
208
186
154
131
64
250
32
209
166
296
163
194
62
220
61
294
146
177
289
241
93
258
226
203
204
70
132
82
325
156
276
274
155
263
314
86
122
189
233
279
269
311
257
321
77
109
308
201
11
304
98
128
127
112
267
9
305
303
323
170
329
206
217
76
167
249
264
176
130
17
197
43
266
253
237
292
268
123
261
120
55
318
256
218
147
205
243
99
10
97
262
192
171
309
193
50
119
316
312
24
121
200
214
136
290
100
73
270
135
153
54
117
152
259
282
223
191
246
235
113
273
301
288
35
291
251
142
145
299
300
118
221
48
190
278
149
6
242
90
106
271
95
124
157
198
16
172
195
101
92
21
181
36
12
68
306
232
94
1
225
199
42
148
178
244
33
96
320
234
105
164
248
45
165
219
280
144
44
158
229
87
81
34
183
72
168
174
302
182
185
125
150
75
114
49
297
47
179
27
41
210
319
255
38
212
67
71
137
222
230
327
239
60
28
188
69
3
18
74
196
272
52
111
78
8
83
126
202
277
283
129
102
260
107
108
15
184
138
25
31
57
19
161
51
37
245
213
134
103
160
7
40
247
151
22
56
133
29
173
141
207
180
59
104
79
110
53

>  <PUBCHEM_MMFF94_PARTIAL_CHARGES>  (1) 
37
1 -0.57
11 0.36
12 0.33
13 -0.18
14 0.57
17 0.57
2 -0.57
21 0.44
24 -0.3
25 -0.15
26 0.3
27 0.27
28 -0.29
29 -0.15
3 -0.65
32 -0.15
33 -0.15
34 -0.15
35 -0.12
36 0.14
37 0.71
4 -0.57
40 0.37
5 -0.73
57 0.36
59 0.15
6 -0.66
60 0.27
64 0.15
68 0.15
7 -0.9
75 0.15
76 0.15
77 0.15
8 0.03
81 0.5
9 0.18

>  <PUBCHEM_EFFECTIVE_ROTOR_COUNT>  (1) 
13

>  <PUBCHEM_PHARMACOPHORE_FEATURES>  (1) 
16
1 1 acceptor
1 2 acceptor
1 3 acceptor
1 36 hydrophobe
1 4 acceptor
1 5 donor
1 7 cation
1 7 donor
1 8 cation
1 8 donor
3 23 30 31 hydrophobe
3 3 4 37 anion
3 9 15 16 hydrophobe
4 10 18 19 20 hydrophobe
5 8 13 22 24 25 rings
6 22 25 29 32 33 34 rings

>  <PUBCHEM_HEAVY_ATOM_COUNT>  (1) 
37

>  <PUBCHEM_ATOM_DEF_STEREO_COUNT>  (1) 
0

>  <PUBCHEM_ATOM_UDEF_STEREO_COUNT>  (1) 
3

>  <PUBCHEM_BOND_DEF_STEREO_COUNT>  (1) 
0

>  <PUBCHEM_BOND_UDEF_STEREO_COUNT>  (1) 
1

>  <PUBCHEM_ISOTOPIC_ATOM_COUNT>  (1) 
0

>  <PUBCHEM_COMPONENT_COUNT>  (1) 
1

>  <PUBCHEM_CACTVS_TAUTO_COUNT>  (1) 
2

>  <PUBCHEM_CONFORMER_ID>  (1) 
00000E0000000004

>  <PUBCHEM_MMFF94_ENERGY>  (1) 
98.6823

>  <PUBCHEM_FEATURE_SELFOVERLAP>  (1) 
81.345

>  <PUBCHEM_SHAPE_FINGERPRINT>  (1) 
11007060 377 17604728780062276060
11578080 2 17273722908642959378
12128747 34 18201157660217239906
12160290 23 17827394194801313738
12788726 201 18053691288420262036
14932701 244 17846506936664503202
17349148 13 18260554445836869548
19319366 153 18334297557183876267
20764821 26 18128278816281312800
20775438 99 16829515048361172007
22223350 30 17756993680908661299
3493558 16 18336254648931258962
392239 28 18342178898805902985
469060 322 18113913666741106081
57527452 28 18334295375113020063
57527585 103 17607281841013247547

>  <PUBCHEM_SHAPE_MULTIPOLES>  (1) 
718.04
10.12
4.68
3.18
9.89
2.12
-0.25
-2.01
0.43
-2.21
-2.96
0.31
-1.52
-1.2

>  <PUBCHEM_SHAPE_SELFOVERLAP>  (1) 
1480.889

>  <PUBCHEM_SHAPE_VOLUME>  (1) 
412.4

>  <PUBCHEM_COORDINATE_TYPE>  (1) 
2
5
10

$$$$
