35840
     RDKit          3D

 36 44  0  0  0  0  0  0  0  0999 V2000
    1.0036   -0.7113    0.0062 C   0  0  0  0  0  0  0  0  0  0  0  0
    1.0035    0.7113    0.0062 C   0  0  0  0  0  0  0  0  0  0  0  0
   -0.2087   -1.4290   -0.2081 C   0  0  0  0  0  0  0  0  0  0  0  0
   -0.2087    1.4290   -0.2083 C   0  0  0  0  0  0  0  0  0  0  0  0
    2.2284   -1.4105    0.1940 C   0  0  0  0  0  0  0  0  0  0  0  0
    2.2284    1.4106    0.1939 C   0  0  0  0  0  0  0  0  0  0  0  0
   -1.4329   -0.7072    0.0014 C   0  0  0  0  0  0  0  0  0  0  0  0
   -1.4329    0.7071    0.0012 C   0  0  0  0  0  0  0  0  0  0  0  0
    3.4356   -0.7070    0.5105 C   0  0  0  0  0  0  0  0  0  0  0  0
    3.4356    0.7070    0.5104 C   0  0  0  0  0  0  0  0  0  0  0  0
   -0.1228   -2.8354   -0.5648 C   0  0  0  0  0  0  0  0  0  0  0  0
   -0.1228    2.8355   -0.5649 C   0  0  0  0  0  0  0  0  0  0  0  0
    1.0889   -3.5191   -0.3751 C   0  0  0  0  0  0  0  0  0  0  0  0
    1.0888    3.5191   -0.3751 C   0  0  0  0  0  0  0  0  0  0  0  0
    2.2101   -2.8121    0.0488 C   0  0  0  0  0  0  0  0  0  0  0  0
    2.2100    2.8121    0.0491 C   0  0  0  0  0  0  0  0  0  0  0  0
   -2.6605   -1.3601    0.3164 C   0  0  0  0  0  0  0  0  0  0  0  0
   -2.6606    1.3602    0.3161 C   0  0  0  0  0  0  0  0  0  0  0  0
   -3.8721   -0.6967    0.5667 C   0  0  0  0  0  0  0  0  0  0  0  0
   -3.8722    0.6967    0.5666 C   0  0  0  0  0  0  0  0  0  0  0  0
    4.6627   -1.3661    0.8205 C   0  0  0  0  0  0  0  0  0  0  0  0
    4.6629    1.3659    0.8201 C   0  0  0  0  0  0  0  0  0  0  0  0
   -1.1616   -3.6024   -1.1647 C   0  0  0  0  0  0  0  0  0  0  0  0
   -1.1614    3.6024   -1.1650 C   0  0  0  0  0  0  0  0  0  0  0  0
    1.2027   -4.8993   -0.6352 C   0  0  0  0  0  0  0  0  0  0  0  0
    1.2026    4.8994   -0.6348 C   0  0  0  0  0  0  0  0  0  0  0  0
    5.8427   -0.6877    1.1174 C   0  0  0  0  0  0  0  0  0  0  0  0
    5.8427    0.6876    1.1170 C   0  0  0  0  0  0  0  0  0  0  0  0
   -1.0439   -4.9679   -1.4415 C   0  0  0  0  0  0  0  0  0  0  0  0
   -1.0436    4.9680   -1.4417 C   0  0  0  0  0  0  0  0  0  0  0  0
   -5.0649   -1.3886    0.8469 C   0  0  0  0  0  0  0  0  0  0  0  0
   -5.0650    1.3886    0.8472 C   0  0  0  0  0  0  0  0  0  0  0  0
    0.1377   -5.6246   -1.1540 C   0  0  0  0  0  0  0  0  0  0  0  0
    0.1377    5.6247   -1.1537 C   0  0  0  0  0  0  0  0  0  0  0  0
   -6.2450   -0.6953    1.1150 C   0  0  0  0  0  0  0  0  0  0  0  0
   -6.2450    0.6952    1.1154 C   0  0  0  0  0  0  0  0  0  0  0  0
  1  2  2  0
  1  3  1  0
  1  5  1  0
  2  4  1  0
  2  6  1  0
  3  7  2  0
  3 11  1  0
  4  8  2  0
  4 12  1  0
  5  9  1  0
  5 15  2  0
  6 10  1  0
  6 16  2  0
  7  8  1  0
  7 17  1  0
  8 18  1  0
  9 10  2  0
  9 21  1  0
 10 22  1  0
 11 13  2  0
 11 23  1  0
 12 14  2  0
 12 24  1  0
 13 15  1  0
 13 25  1  0
 14 16  1  0
 14 26  1  0
 17 19  2  0
 18 20  2  0
 19 20  1  0
 19 31  1  0
 20 32  1  0
 21 27  2  0
 22 28  2  0
 23 29  2  0
 24 30  2  0
 25 33  2  0
 26 34  2  0
 27 28  1  0
 29 33  1  0
 30 34  1  0
 31 35  2  0
 32 36  2  0
 35 36  1  0
M  END
>  <PUBCHEM_COMPOUND_CID>  (1) 
35840

>  <PUBCHEM_CONFORMER_RMSD>  (1) 
0.6

>  <PUBCHEM_CONFORMER_DIVERSEORDER>  (1) 
1
2

>  <PUBCHEM_MMFF94_PARTIAL_CHARGES>  (1) 
40
15 -0.15
16 -0.15
17 -0.15
18 -0.15
21 -0.15
22 -0.15
23 -0.15
24 -0.15
25 -0.15
26 -0.15
27 -0.15
28 -0.15
29 -0.15
30 -0.15
31 -0.15
32 -0.15
33 -0.15
34 -0.15
35 -0.15
36 -0.15
37 0.15
38 0.15
39 0.15
40 0.15
41 0.15
42 0.15
43 0.15
44 0.15
45 0.15
46 0.15
47 0.15
48 0.15
49 0.15
50 0.15
51 0.15
52 0.15
53 0.15
54 0.15
55 0.15
56 0.15

>  <PUBCHEM_EFFECTIVE_ROTOR_COUNT>  (1) 
0

>  <PUBCHEM_PHARMACOPHORE_FEATURES>  (1) 
9
6 1 2 3 4 7 8 rings
6 1 2 5 6 9 10 rings
6 1 3 5 11 13 15 rings
6 11 13 23 25 29 33 rings
6 12 14 24 26 30 34 rings
6 19 20 31 32 35 36 rings
6 2 4 6 12 14 16 rings
6 7 8 17 18 19 20 rings
6 9 10 21 22 27 28 rings

>  <PUBCHEM_HEAVY_ATOM_COUNT>  (1) 
36

>  <PUBCHEM_ATOM_DEF_STEREO_COUNT>  (1) 
0

>  <PUBCHEM_ATOM_UDEF_STEREO_COUNT>  (1) 
0

>  <PUBCHEM_BOND_DEF_STEREO_COUNT>  (1) 
0

>  <PUBCHEM_BOND_UDEF_STEREO_COUNT>  (1) 
0

>  <PUBCHEM_ISOTOPIC_ATOM_COUNT>  (1) 
0

>  <PUBCHEM_COMPONENT_COUNT>  (1) 
1

>  <PUBCHEM_CACTVS_TAUTO_COUNT>  (1) 
1

>  <PUBCHEM_CONFORMER_ID>  (1) 
00008C0000000001

>  <PUBCHEM_MMFF94_ENERGY>  (1) 
181.7628

>  <PUBCHEM_FEATURE_SELFOVERLAP>  (1) 
45.913

>  <PUBCHEM_SHAPE_FINGERPRINT>  (1) 
10258939 38 18041562421141015737
10290309 65 18268979896646849466
10940486 97 18123469638256975388
1100329 8 18124031488376905042
11115154 58 16551671647177496383
11445158 3 18115873061007547813
11513181 2 17478909628317445030
12202916 173 18259979354269592923
13140716 1 18266456697116149714
1361 2 18412827984505999939
14020679 6 17823417274159776898
14028597 1 17274275971898515043
140371 6 18262810540671163021
14068700 686 18267303119074484604
14117953 113 18411419501282890637
14394314 77 18047749597285211244
14395042 24 18051961808755531491
14725015 67 18047471123467053403
14790565 3 18413393150445787440
14955137 171 18334302002026134688
15420108 30 18122903406706330048
15775530 1 17690000033363128862
15927050 60 17761503877658720948
16728300 4 17752743763841237914
18365409 1 17916577795471450775
18681886 176 18338233881071086184
1979834 28 18340216202131506995
20028762 73 18201719600189189687
20642791 268 18199485298409631529
20739085 24 18409738369405329001
21033648 29 18059563728489563306
21583282 1 17533790565348526852
21796203 349 17973477495858364648
22113638 7 18338514260925828060
22223350 30 17914044567181143250
22440779 20 16460021485860476083
23558518 356 17689432007069950946
23559900 14 17043153976110854530
24771293 8 18271237348215646064
24771750 20 18043553783492950581
25019877 29 17775283893401020318
255183 313 18200295689670730778
4017518 198 18060427928088143926
437795 96 18192427468629941901
5171179 24 17620476805412070219
6004065 56 18409443713811959057
7399639 24 18267581299821783214

>  <PUBCHEM_SHAPE_MULTIPOLES>  (1) 
740.86
10.2
8.07
1.19
4.93
0
0.13
0
-7.48
-1.1
5.89
0.25
0
0

>  <PUBCHEM_SHAPE_SELFOVERLAP>  (1) 
1768.675

>  <PUBCHEM_SHAPE_VOLUME>  (1) 
329.6

>  <PUBCHEM_COORDINATE_TYPE>  (1) 
2
5
10

$$$$
