35852
     RDKit          3D

 20 22  0  0  0  0  0  0  0  0999 V2000
    2.5686   -0.8770   -0.4798 N   0  0  0  0  0  0  0  0  0  0  0  0
   -1.1123   -0.3809   -0.1473 N   0  0  0  0  0  0  0  0  0  0  0  0
    4.4109   -1.8312    0.1349 N   0  0  0  0  0  0  0  0  0  0  0  0
    1.1917   -0.7128   -0.9040 C   0  0  0  0  0  0  0  0  0  0  0  0
    3.4770    0.1407   -0.2727 C   0  0  0  0  0  0  0  0  0  0  0  0
    0.2636   -0.5631    0.2953 C   0  0  0  0  0  0  0  0  0  0  0  0
    4.6663   -0.4754    0.1242 C   0  0  0  0  0  0  0  0  0  0  0  0
    3.1448   -2.0574   -0.2304 C   0  0  0  0  0  0  0  0  0  0  0  0
   -2.0064   -0.2073    0.9894 C   0  0  0  0  0  0  0  0  0  0  0  0
    3.3556    1.5196   -0.3981 C   0  0  0  0  0  0  0  0  0  0  0  0
   -3.4369   -0.0278    0.5555 C   0  0  0  0  0  0  0  0  0  0  0  0
    5.8169    0.2445    0.4234 C   0  0  0  0  0  0  0  0  0  0  0  0
    4.5086    2.2597   -0.0998 C   0  0  0  0  0  0  0  0  0  0  0  0
    5.7100    1.6373    0.3013 C   0  0  0  0  0  0  0  0  0  0  0  0
   -4.2518   -1.1418    0.4107 C   0  0  0  0  0  0  0  0  0  0  0  0
   -3.9201    1.2490    0.3060 C   0  0  0  0  0  0  0  0  0  0  0  0
   -6.0738    0.3030   -0.2451 C   0  0  0  0  0  0  0  0  0  0  0  0
   -5.5770   -0.9755    0.0085 C   0  0  0  0  0  0  0  0  0  0  0  0
   -5.2453    1.4153   -0.0963 C   0  0  0  0  0  0  0  0  0  0  0  0
   -7.4904    0.4808   -0.6759 C   0  0  0  0  0  0  0  0  0  0  0  0
  1  4  1  0
  1  5  1  0
  1  8  2  0
  2  6  1  0
  2  9  1  0
  3  7  1  0
  3  8  1  0
  4  6  1  0
  5  7  2  0
  5 10  1  0
  7 12  1  0
  9 11  1  0
 10 13  2  0
 11 15  2  0
 11 16  1  0
 12 14  2  0
 13 14  1  0
 15 18  1  0
 16 19  2  0
 17 18  2  0
 17 19  1  0
 17 20  1  0
M  CHG  1   1   1
M  END
>  <PUBCHEM_COMPOUND_CID>  (1) 
35852

>  <PUBCHEM_CONFORMER_RMSD>  (1) 
0.8

>  <PUBCHEM_CONFORMER_DIVERSEORDER>  (1) 
1
31
8
11
23
24
9
22
16
32
26
30
15
2
21
3
20
33
6
28
29
10
12
5
17
27
4
25
18
14
13
19
7

>  <PUBCHEM_MMFF94_PARTIAL_CHARGES>  (1) 
31
1 -0.76
10 -0.11
11 -0.14
12 -0.11
13 -0.15
14 -0.15
15 -0.15
16 -0.15
17 -0.14
18 -0.15
19 -0.15
2 -0.9
20 0.14
25 0.15
26 0.36
27 0.45
3 -0.7
30 0.15
31 0.15
32 0.15
33 0.15
34 0.15
35 0.15
36 0.15
37 0.15
4 0.51
5 0.31
6 0.27
7 0.31
8 0.65
9 0.41

>  <PUBCHEM_EFFECTIVE_ROTOR_COUNT>  (1) 
5

>  <PUBCHEM_PHARMACOPHORE_FEATURES>  (1) 
7
1 2 cation
1 2 donor
1 3 donor
3 1 3 8 cation
5 1 3 5 7 8 rings
6 11 15 16 17 18 19 rings
6 5 7 10 12 13 14 rings

>  <PUBCHEM_HEAVY_ATOM_COUNT>  (1) 
20

>  <PUBCHEM_ATOM_DEF_STEREO_COUNT>  (1) 
0

>  <PUBCHEM_ATOM_UDEF_STEREO_COUNT>  (1) 
0

>  <PUBCHEM_BOND_DEF_STEREO_COUNT>  (1) 
0

>  <PUBCHEM_BOND_UDEF_STEREO_COUNT>  (1) 
0

>  <PUBCHEM_ISOTOPIC_ATOM_COUNT>  (1) 
0

>  <PUBCHEM_COMPONENT_COUNT>  (1) 
1

>  <PUBCHEM_CACTVS_TAUTO_COUNT>  (1) 
2

>  <PUBCHEM_CONFORMER_ID>  (1) 
00008C0C00000001

>  <PUBCHEM_MMFF94_ENERGY>  (1) 
35.2863

>  <PUBCHEM_FEATURE_SELFOVERLAP>  (1) 
35.63

>  <PUBCHEM_SHAPE_FINGERPRINT>  (1) 
10299344 5 8790885198637387897
10411042 1 18050849915364703878
10595046 47 18342457037020136243
10835480 77 18410008828281327853
11089746 13 18113616780941591922
11724838 91 18272083933271286526
12107183 9 17691692181805905539
12236239 1 17917712391905702167
125118 31 18186803552479750685
13167372 99 18341897333677245889
13533116 47 17313376773791957594
14123256 10 17418093230624110945
1420 363 13110959829883384519
14251732 16 18411701027994614527
14251764 18 11674882191282162537
14528608 73 18343023306492595646
15183329 4 18410857650915398233
15537594 2 14979952554451004893
16079462 125 18041271119605795717
17834072 33 18342175574685747335
17844677 252 18269845232912577517
19427546 62 18337392742466402118
19489759 90 17676488350356109937
20157964 124 18411983546252739254
20281389 69 18186801345077179957
20511986 3 18340193168005756743
21150785 3 15841548604528232585
21315763 129 18407759222499845485
21315764 268 18261106344639393877
21344244 78 18128802059657390594
21859007 373 17314214588972896045
22950370 63 9223229646036451475
2297311 6 12031792466051750523
23035841 295 11455891356297121581
23081809 10 16773522079597943003
23536379 177 18409448064281579099
23559900 14 18341042013179793273
239999 70 18200882777446149646
29717793 49 17917999334338916078
300161 21 18408321094738202931
3004659 81 18409168788254206074
329604 57 18131634474013178881
335352 9 18412549804475632574
34797466 226 17846789511332384133
351380 180 18334297560729296153
4073 2 17968383441180557834
4325135 7 18131068242778141493
5104073 3 18334022661732625339
5283173 99 18335136432831638973
5385378 56 15719665451761987769
9971528 1 17821453447502546262

>  <PUBCHEM_SHAPE_MULTIPOLES>  (1) 
396.65
19.53
1.89
0.8
15.61
0.22
-0.01
5
0.8
-2.29
0.07
0.21
-0.02
0.36

>  <PUBCHEM_SHAPE_SELFOVERLAP>  (1) 
852.987

>  <PUBCHEM_SHAPE_VOLUME>  (1) 
220.7

>  <PUBCHEM_COORDINATE_TYPE>  (1) 
2
5
10

$$$$
