35855
     RDKit          3D

 12 12  0  0  0  0  0  0  0  0999 V2000
    0.8965   -0.0122   -0.1148 O   0  0  0  0  0  0  0  0  0  0  0  0
    4.5293   -0.0206   -0.1253 O   0  0  0  0  0  0  0  0  0  0  0  0
   -0.1077   -0.0357   -1.1218 C   0  0  0  0  0  0  0  0  0  0  0  0
   -1.4536   -0.0143   -0.4798 C   0  0  0  0  0  0  0  0  0  0  0  0
    2.2003   -0.0314   -0.6791 C   0  0  0  0  0  0  0  0  0  0  0  0
    3.2240    0.0192    0.4387 C   0  0  0  0  0  0  0  0  0  0  0  0
   -2.0869   -1.2118   -0.1475 C   0  0  0  0  0  0  0  0  0  0  0  0
   -2.0791    1.2032   -0.2117 C   0  0  0  0  0  0  0  0  0  0  0  0
   -3.3458   -1.1918    0.4529 C   0  0  0  0  0  0  0  0  0  0  0  0
   -3.3380    1.2232    0.3888 C   0  0  0  0  0  0  0  0  0  0  0  0
   -3.9713    0.0257    0.7210 C   0  0  0  0  0  0  0  0  0  0  0  0
    5.5323    0.0465    0.8786 C   0  0  0  0  0  0  0  0  0  0  0  0
  1  3  1  0
  1  5  1  0
  2  6  1  0
  2 12  1  0
  3  4  1  0
  4  7  2  0
  4  8  1  0
  5  6  1  0
  7  9  1  0
  8 10  2  0
  9 11  2  0
 10 11  1  0
M  END
>  <PUBCHEM_COMPOUND_CID>  (1) 
35855

>  <PUBCHEM_CONFORMER_RMSD>  (1) 
0.6

>  <PUBCHEM_CONFORMER_DIVERSEORDER>  (1) 
2
11
20
24
6
25
4
15
16
1
23
5
18
8
17
14
21
19
13
10
9
22
12
7
3

>  <PUBCHEM_MMFF94_PARTIAL_CHARGES>  (1) 
17
1 -0.56
10 -0.15
11 -0.15
12 0.28
19 0.15
2 -0.56
20 0.15
21 0.15
22 0.15
23 0.15
3 0.42
4 -0.14
5 0.28
6 0.28
7 -0.15
8 -0.15
9 -0.15

>  <PUBCHEM_EFFECTIVE_ROTOR_COUNT>  (1) 
5

>  <PUBCHEM_PHARMACOPHORE_FEATURES>  (1) 
3
1 1 acceptor
1 2 acceptor
6 4 7 8 9 10 11 rings

>  <PUBCHEM_HEAVY_ATOM_COUNT>  (1) 
12

>  <PUBCHEM_ATOM_DEF_STEREO_COUNT>  (1) 
0

>  <PUBCHEM_ATOM_UDEF_STEREO_COUNT>  (1) 
0

>  <PUBCHEM_BOND_DEF_STEREO_COUNT>  (1) 
0

>  <PUBCHEM_BOND_UDEF_STEREO_COUNT>  (1) 
0

>  <PUBCHEM_ISOTOPIC_ATOM_COUNT>  (1) 
0

>  <PUBCHEM_COMPONENT_COUNT>  (1) 
1

>  <PUBCHEM_CACTVS_TAUTO_COUNT>  (1) 
1

>  <PUBCHEM_CONFORMER_ID>  (1) 
00008C0F00000002

>  <PUBCHEM_MMFF94_ENERGY>  (1) 
28.6664

>  <PUBCHEM_FEATURE_SELFOVERLAP>  (1) 
15.223

>  <PUBCHEM_SHAPE_FINGERPRINT>  (1) 
10014705 185 15841258324979211584
114248 4 8070024467608674478
12251169 10 18408606967513212677
13214271 11 17989205945437767917
13675066 3 18131913758825067342
19050596 39 18259989292443951164
200 152 15285356232106344229
20279233 1 17917999368746010375
20432913 95 16660361459474006944
20645464 45 17917437523026386919
20645476 183 11815892336651268869
20645477 56 17418089932099881156
20645477 70 12468622912502672368
20671657 53 13334741215197405758
20828058 44 18334012791892406098
20871999 31 9583519781306054067
21061003 4 14490481889118755781
21119208 17 10664101146918564706
21650355 55 18336550512200728721
22485316 2 16732978717530492268
23402539 116 18342733040540860575
23402655 69 11743850144265467330
23403322 49 12973600032305403864
42 15 18260830388958992966
449060 50 17775288261624930468
57265010 4 18409732863241139187

>  <PUBCHEM_SHAPE_MULTIPOLES>  (1) 
235.22
10.21
1.11
0.94
14.47
0.01
-0.05
0.14
3.81
-1.36
0.06
0.17
0
0.05

>  <PUBCHEM_SHAPE_SELFOVERLAP>  (1) 
466.567

>  <PUBCHEM_SHAPE_VOLUME>  (1) 
140.8

>  <PUBCHEM_COORDINATE_TYPE>  (1) 
2
5
10

$$$$
