35864
     RDKit          3D

 16 18  0  0  0  0  0  0  0  0999 V2000
    3.7294    2.2827   -0.3230 O   0  0  0  0  0  0  0  0  0  0  0  0
    0.8985    0.1028    0.0528 C   0  0  0  0  0  0  0  0  0  0  0  0
    0.5697   -1.2692   -0.0087 C   0  0  0  0  0  0  0  0  0  0  0  0
   -1.4839    0.6746    0.0314 C   0  0  0  0  0  0  0  0  0  0  0  0
   -1.8126   -0.6974   -0.0296 C   0  0  0  0  0  0  0  0  0  0  0  0
   -0.1326    1.0568    0.0717 C   0  0  0  0  0  0  0  0  0  0  0  0
   -0.7815   -1.6514   -0.0491 C   0  0  0  0  0  0  0  0  0  0  0  0
    2.2500    0.4839    0.0938 C   0  0  0  0  0  0  0  0  0  0  0  0
    1.6012   -2.2225   -0.0280 C   0  0  0  0  0  0  0  0  0  0  0  0
   -2.5156    1.6278    0.0508 C   0  0  0  0  0  0  0  0  0  0  0  0
   -3.1640   -1.0789   -0.0696 C   0  0  0  0  0  0  0  0  0  0  0  0
    3.2624   -0.4756    0.0744 C   0  0  0  0  0  0  0  0  0  0  0  0
    2.9384   -1.8272    0.0134 C   0  0  0  0  0  0  0  0  0  0  0  0
   -3.8529    1.2320    0.0110 C   0  0  0  0  0  0  0  0  0  0  0  0
   -4.1767   -0.1196   -0.0493 C   0  0  0  0  0  0  0  0  0  0  0  0
    2.6700    1.8812    0.1579 C   0  0  0  0  0  0  0  0  0  0  0  0
  1 16  2  0
  2  3  1  0
  2  6  2  0
  2  8  1  0
  3  7  2  0
  3  9  1  0
  4  5  2  0
  4  6  1  0
  4 10  1  0
  5  7  1  0
  5 11  1  0
  8 12  2  0
  8 16  1  0
  9 13  2  0
 10 14  2  0
 11 15  2  0
 12 13  1  0
 14 15  1  0
M  END
>  <PUBCHEM_COMPOUND_CID>  (1) 
35864

>  <PUBCHEM_CONFORMER_RMSD>  (1) 
0.6

>  <PUBCHEM_CONFORMER_DIVERSEORDER>  (1) 
1

>  <PUBCHEM_MMFF94_PARTIAL_CHARGES>  (1) 
22
1 -0.57
10 -0.15
11 -0.15
12 -0.15
13 -0.15
14 -0.15
15 -0.15
16 0.42
17 0.15
18 0.15
19 0.15
20 0.15
21 0.15
22 0.15
23 0.15
24 0.15
25 0.15
26 0.06
6 -0.15
7 -0.15
8 0.09
9 -0.15

>  <PUBCHEM_EFFECTIVE_ROTOR_COUNT>  (1) 
1

>  <PUBCHEM_PHARMACOPHORE_FEATURES>  (1) 
4
1 1 acceptor
6 2 3 4 5 6 7 rings
6 2 3 8 9 12 13 rings
6 4 5 10 11 14 15 rings

>  <PUBCHEM_HEAVY_ATOM_COUNT>  (1) 
16

>  <PUBCHEM_ATOM_DEF_STEREO_COUNT>  (1) 
0

>  <PUBCHEM_ATOM_UDEF_STEREO_COUNT>  (1) 
0

>  <PUBCHEM_BOND_DEF_STEREO_COUNT>  (1) 
0

>  <PUBCHEM_BOND_UDEF_STEREO_COUNT>  (1) 
0

>  <PUBCHEM_ISOTOPIC_ATOM_COUNT>  (1) 
0

>  <PUBCHEM_COMPONENT_COUNT>  (1) 
1

>  <PUBCHEM_CACTVS_TAUTO_COUNT>  (1) 
1

>  <PUBCHEM_CONFORMER_ID>  (1) 
00008C1800000001

>  <PUBCHEM_MMFF94_ENERGY>  (1) 
54.0718

>  <PUBCHEM_FEATURE_SELFOVERLAP>  (1) 
20.349

>  <PUBCHEM_SHAPE_FINGERPRINT>  (1) 
10608611 8 18408882902161647781
10616163 171 18340207508848914575
10967382 1 18411136969475303256
10980938 120 18413106173420661810
11132069 177 18340477898604224379
11471102 20 18339074895807649678
12251169 10 18338513041097275554
13140716 1 18410013199909052691
13221675 6 18338797810382597351
13380535 76 18336825398291568458
13897977 150 18410571781986326077
14144814 61 18339642235423310891
14325111 11 18411136931042163161
14415576 193 18410013238669357076
14897335 6 18411696625346979628
15196674 1 18410855464976984547
15219456 202 18408886235045518627
15375462 6 18409448098219428173
15442244 35 18196091036487679210
15536298 74 18342457032429678870
15775835 57 18271248321265840580
16945 1 18194682570645658730
18186145 218 18342178812932800549
19591789 44 16100809370628956827
200 152 18059842936409187133
20510252 161 18341899648943803641
20645477 70 18341891866378888071
21267235 1 18411990130701568951
21501502 16 18412541015901633427
21524375 3 18337668736863882896
221490 88 18409456877164502570
2255824 54 18335421231980934138
22854114 111 18409449171887171656
2334 1 18411417340634726424
23366157 5 18113620067187795530
23402655 69 18342171116615150397
23463225 33 18410572842721889867
23559900 14 18269830935172521866
2748010 2 18409731750675823711
335352 9 18122906430151641007
350125 39 18338239258370289545
474 4 17895197765502994924
5104073 3 18410013226169389467
57096353 35 18270675488940798861
58051976 378 18340767151714298404
69090 78 18342450409943757311
7364860 26 18413389817762032254
7832392 63 18052538759689511393
8809292 202 18261680289793540811
9709674 26 18411422791154622519
9981440 41 18120367924666150376

>  <PUBCHEM_SHAPE_MULTIPOLES>  (1) 
323.4
6.97
2.37
0.62
2.44
0.19
0
1.66
0.15
-1.67
0.07
0
0
-0.14

>  <PUBCHEM_SHAPE_SELFOVERLAP>  (1) 
731.89

>  <PUBCHEM_SHAPE_VOLUME>  (1) 
170.3

>  <PUBCHEM_COORDINATE_TYPE>  (1) 
2
5
10

$$$$
