35881
     RDKit          3D

 18 20  0  0  1  0  0  0  0  0999 V2000
    0.0835   -2.2258    0.9397 O   0  0  0  0  0  0  0  0  0  0  0  0
   -2.8674    1.3747   -0.3306 N   0  0  0  0  0  0  0  0  0  0  0  0
    0.0215   -1.1301    0.0048 C   0  0  0  0  0  0  0  0  0  0  0  0
    0.4249    1.9475   -0.8739 C   0  0  0  0  0  0  0  0  0  0  0  0
    1.2963   -0.2843    0.2016 C   0  0  0  0  0  0  0  0  0  0  0  0
    1.4579    1.0618   -0.2068 C   0  0  0  0  0  0  0  0  0  0  0  0
   -0.7783    1.2999   -1.5406 C   0  0  0  0  0  0  0  0  0  0  0  0
   -1.2933   -0.3885    0.2621 C   0  0  0  0  0  0  0  0  0  0  0  0
   -1.6918    0.7124   -0.5063 C   0  0  0  0  0  0  0  0  0  0  0  0
    2.4271   -0.9252    0.7766 C   0  0  0  0  0  0  0  0  0  0  0  0
    2.6928    1.7128    0.0418 C   0  0  0  0  0  0  0  0  0  0  0  0
   -2.1904   -0.7850    1.2709 C   0  0  0  0  0  0  0  0  0  0  0  0
    3.6377   -0.2663    0.9956 C   0  0  0  0  0  0  0  0  0  0  0  0
    0.0414   -1.7437   -1.3447 C   0  0  0  0  0  0  0  0  0  0  0  0
    3.7686    1.0612    0.6353 C   0  0  0  0  0  0  0  0  0  0  0  0
   -3.3981   -0.1224    1.4686 C   0  0  0  0  0  0  0  0  0  0  0  0
   -3.6899    0.9410    0.6436 C   0  0  0  0  0  0  0  0  0  0  0  0
    0.0576   -2.2401   -2.4376 C   0  0  0  0  0  0  0  0  0  0  0  0
  1  3  1  0
  2  9  2  0
  2 17  1  0
  3  5  1  0
  3  8  1  0
  3 14  1  0
  4  6  1  0
  4  7  1  0
  5  6  2  0
  5 10  1  0
  6 11  1  0
  7  9  1  0
  8  9  1  0
  8 12  2  0
 10 13  2  0
 11 15  2  0
 12 16  1  0
 13 15  1  0
 14 18  3  0
 16 17  2  0
M  END
>  <PUBCHEM_COMPOUND_CID>  (1) 
35881

>  <PUBCHEM_CONFORMER_RMSD>  (1) 
0.6

>  <PUBCHEM_CONFORMER_DIVERSEORDER>  (1) 
1
4
2
3

>  <PUBCHEM_MMFF94_PARTIAL_CHARGES>  (1) 
27
1 -0.68
10 -0.15
11 -0.15
12 -0.15
13 -0.15
14 -0.2
15 -0.15
16 -0.15
17 0.16
18 -0.18
2 -0.62
23 0.15
24 0.15
25 0.15
26 0.15
27 0.15
28 0.4
29 0.15
3 0.77
30 0.15
31 0.18
4 0.14
5 -0.14
6 -0.14
7 0.14
8 -0.14
9 0.17

>  <PUBCHEM_EFFECTIVE_ROTOR_COUNT>  (1) 
0.6

>  <PUBCHEM_PHARMACOPHORE_FEATURES>  (1) 
7
1 1 acceptor
1 1 donor
1 18 hydrophobe
1 2 acceptor
6 2 8 9 12 16 17 rings
6 5 6 10 11 13 15 rings
7 3 4 5 6 7 8 9 rings

>  <PUBCHEM_HEAVY_ATOM_COUNT>  (1) 
18

>  <PUBCHEM_ATOM_DEF_STEREO_COUNT>  (1) 
0

>  <PUBCHEM_ATOM_UDEF_STEREO_COUNT>  (1) 
1

>  <PUBCHEM_BOND_DEF_STEREO_COUNT>  (1) 
0

>  <PUBCHEM_BOND_UDEF_STEREO_COUNT>  (1) 
0

>  <PUBCHEM_ISOTOPIC_ATOM_COUNT>  (1) 
0

>  <PUBCHEM_COMPONENT_COUNT>  (1) 
1

>  <PUBCHEM_CACTVS_TAUTO_COUNT>  (1) 
1

>  <PUBCHEM_CONFORMER_ID>  (1) 
00008C2900000001

>  <PUBCHEM_MMFF94_ENERGY>  (1) 
59.9612

>  <PUBCHEM_FEATURE_SELFOVERLAP>  (1) 
35.538

>  <PUBCHEM_SHAPE_FINGERPRINT>  (1) 
10863032 1 18040436598416704120
10948715 1 17132116839976129597
1100329 8 15018545837270616384
11132069 177 18113616781063008689
11578080 2 15794532181781457134
11640471 11 16988560152520790689
12011746 2 18040714753552324439
12119455 92 18271799099287180777
12251169 10 18187088385782815337
12382932 28 18261115145037900201
12633257 1 18042403526024316225
12696612 119 18113911497402832645
13140716 1 18186799171127402776
13172582 1 18408886247830304096
14178342 30 17896622630094452889
14617773 55 17839442724822095436
14817 1 8280862706777317175
15309172 13 18272929418841984524
15375462 478 18261960768437558739
15775835 57 18343300400613369840
15906896 17 18127690654384540910
16945 1 18116160058747749765
17844478 74 17748820813363127884
1813 80 14634874123780685866
18186145 218 17275114920175280336
19765921 60 15913341164650633515
20361792 2 13406794449568993883
20511035 2 18264215887891964893
21524375 3 18272088335370171667
21731228 192 18341896324233031866
22112679 90 16977876511371515055
23184049 59 18410572877292735368
23419403 2 17979925912517012094
23463225 33 17967254216926660600
23559900 14 17532655616314790594
2748010 2 18115576063739570828
4340502 62 17346613971592753299
4663303 62 17986126118736603695
576247 118 17121725123828137767
598444 67 17750507390942748482
81228 2 17696731621706358454
84936 31 17344915109303938431

>  <PUBCHEM_SHAPE_MULTIPOLES>  (1) 
359.58
5.52
2.22
1.65
0.44
0.7
0.59
-2.37
-3.02
0.31
1.03
-0.46
0.74
0.06

>  <PUBCHEM_SHAPE_SELFOVERLAP>  (1) 
790.253

>  <PUBCHEM_SHAPE_VOLUME>  (1) 
190

>  <PUBCHEM_COORDINATE_TYPE>  (1) 
2
5
10

$$$$
