35888
     RDKit          3D

 22 24  0  0  1  0  0  0  0  0999 V2000
   -1.8378   -0.5697    1.0735 Si  0  0  0  0  0  4  0  0  0  0  0  0
    1.0655   -1.6585    0.9798 Si  0  0  0  0  0  4  0  0  0  0  0  0
   -1.0070   -2.5820   -1.1529 Si  0  0  0  0  0  4  0  0  0  0  0  0
   -0.2747   -0.8712    1.6574 O   0  0  0  0  0  0  0  0  0  0  0  0
   -2.0675   -1.6124   -0.2417 O   0  0  0  0  0  0  0  0  0  0  0  0
    0.4796   -2.5651   -0.3257 O   0  0  0  0  0  0  0  0  0  0  0  0
   -1.8066    1.1840    0.3917 C   0  0  0  0  0  0  0  0  0  0  0  0
    2.1577   -0.3019    0.2678 C   0  0  0  0  0  0  0  0  0  0  0  0
   -3.1417   -0.7584    2.3776 C   0  0  0  0  0  0  0  0  0  0  0  0
    1.9934   -2.6881    2.2111 C   0  0  0  0  0  0  0  0  0  0  0  0
   -1.6644   -4.3281   -1.2885 C   0  0  0  0  0  0  0  0  0  0  0  0
   -0.7958   -1.8656   -2.8717 C   0  0  0  0  0  0  0  0  0  0  0  0
   -0.9927    2.1919    0.9693 C   0  0  0  0  0  0  0  0  0  0  0  0
    2.7478    0.6881    1.0944 C   0  0  0  0  0  0  0  0  0  0  0  0
   -2.5952    1.5613   -0.7254 C   0  0  0  0  0  0  0  0  0  0  0  0
    2.4313   -0.2206   -1.1217 C   0  0  0  0  0  0  0  0  0  0  0  0
   -0.9690    3.4915    0.4630 C   0  0  0  0  0  0  0  0  0  0  0  0
    3.5584    1.6931    0.5664 C   0  0  0  0  0  0  0  0  0  0  0  0
   -2.5712    2.8607   -1.2318 C   0  0  0  0  0  0  0  0  0  0  0  0
    3.2421    0.7843   -1.6496 C   0  0  0  0  0  0  0  0  0  0  0  0
   -1.7581    3.8259   -0.6376 C   0  0  0  0  0  0  0  0  0  0  0  0
    3.8057    1.7411   -0.8055 C   0  0  0  0  0  0  0  0  0  0  0  0
  1  4  1  0
  1  5  1  0
  1  7  1  0
  1  9  1  0
  2  4  1  0
  2  6  1  0
  2  8  1  0
  2 10  1  0
  3  5  1  0
  3  6  1  0
  3 11  1  0
  3 12  1  0
  7 13  2  0
  7 15  1  0
  8 14  2  0
  8 16  1  0
 13 17  1  0
 14 18  1  0
 15 19  2  0
 16 20  2  0
 17 21  2  0
 18 22  2  0
 19 21  1  0
 20 22  1  0
M  END
>  <PUBCHEM_COMPOUND_CID>  (1) 
35888

>  <PUBCHEM_CONFORMER_RMSD>  (1) 
0.6

>  <PUBCHEM_CONFORMER_DIVERSEORDER>  (1) 
14
10
4
17
13
19
12
11
6
5
18
2
15
7
16
8
3
9
1

>  <PUBCHEM_MMFF94_PARTIAL_CHARGES>  (1) 
32
1 0.9
10 -0.08
11 -0.08
12 -0.08
13 -0.15
14 -0.15
15 -0.15
16 -0.15
17 -0.15
18 -0.15
19 -0.15
2 0.9
20 -0.15
21 -0.15
22 -0.15
3 0.76
35 0.15
36 0.15
37 0.15
38 0.15
39 0.15
4 -0.59
40 0.15
41 0.15
42 0.15
43 0.15
44 0.15
5 -0.59
6 -0.59
7 -0.22
8 -0.22
9 -0.08

>  <PUBCHEM_EFFECTIVE_ROTOR_COUNT>  (1) 
3.2

>  <PUBCHEM_PHARMACOPHORE_FEATURES>  (1) 
3
6 1 2 3 4 5 6 rings
6 7 13 15 17 19 21 rings
6 8 14 16 18 20 22 rings

>  <PUBCHEM_HEAVY_ATOM_COUNT>  (1) 
22

>  <PUBCHEM_ATOM_DEF_STEREO_COUNT>  (1) 
0

>  <PUBCHEM_ATOM_UDEF_STEREO_COUNT>  (1) 
2

>  <PUBCHEM_BOND_DEF_STEREO_COUNT>  (1) 
0

>  <PUBCHEM_BOND_UDEF_STEREO_COUNT>  (1) 
0

>  <PUBCHEM_ISOTOPIC_ATOM_COUNT>  (1) 
0

>  <PUBCHEM_COMPONENT_COUNT>  (1) 
1

>  <PUBCHEM_CACTVS_TAUTO_COUNT>  (1) 
1

>  <PUBCHEM_CONFORMER_ID>  (1) 
00008C300000000E

>  <PUBCHEM_MMFF94_ENERGY>  (1) 
36.2638

>  <PUBCHEM_FEATURE_SELFOVERLAP>  (1) 
15.223

>  <PUBCHEM_SHAPE_FINGERPRINT>  (1) 
10165383 225 17771100212986314818
10498660 4 18339081596003974285
10871710 139 18191872446590121540
11221954 11 18046916982722982129
12156800 1 15803192192848972796
12173636 292 17274280394965314283
128993 33 18194141645559195376
14142880 1 17986682673346759579
14251751 93 18263945275457115382
14251757 17 17695945179251324926
14955137 171 17836967677241279611
15664445 248 17836354226535338631
17492 54 17110439148223417860
17980427 23 17689408526288409304
1813 80 17623569061216229271
192875 21 17688005536566718217
20511035 2 18118676617678547378
20600515 1 17189213602754788826
20691752 17 17758947508480300632
20905425 154 18191044316797253969
21524375 3 18336279941887480994
21860390 5 17326882985548614005
22889148 1 17845918706496926831
23419403 2 15524698816947288498
23558518 356 17973722468271951497
23598288 3 18335129899716513594
238 59 17912926084820126277
26353 1 17410467189403563479
3380486 77 17184147049000316690
3493558 16 17022897982767127183
350125 39 17970366827017841144
35225 105 18334858311786394564
469060 322 18049443939490132475
513532 50 15887674942495799853
5262128 65 17118883955896521709
5939293 188 17469318137142721728
81228 2 17981611777433098562
9981440 41 18196071266737671352

>  <PUBCHEM_SHAPE_MULTIPOLES>  (1) 
489.78
5.24
5.12
2.32
5.13
3.86
-0.14
-0.84
-0.67
-3.11
-1.09
-0.85
-1.28
-1.1

>  <PUBCHEM_SHAPE_SELFOVERLAP>  (1) 
978.19

>  <PUBCHEM_SHAPE_VOLUME>  (1) 
288.4

>  <PUBCHEM_COORDINATE_TYPE>  (1) 
2
5
10

$$$$
