35892
     RDKit          3D

 21 22  0  0  1  0  0  0  0  0999 V2000
    1.8471    2.4399   -0.9722 Cl  0  0  0  0  0  0  0  0  0  0  0  0
   -0.5043   -1.3145   -0.5358 O   0  0  0  0  0  0  0  0  0  0  0  0
    0.4284   -0.4816    1.3790 O   0  0  0  0  0  0  0  0  0  0  0  0
   -3.7082   -0.3344    0.2836 N   0  0  0  0  0  0  0  0  0  0  0  0
    1.6072   -0.5585   -0.6421 N   0  0  0  0  0  0  0  0  0  0  0  0
   -4.3368    0.9767    0.2334 C   0  0  0  0  0  0  0  0  0  0  0  0
   -2.2994   -0.2673    0.6787 C   0  0  0  0  0  0  0  0  0  0  0  0
   -1.7072   -1.5811    0.1718 C   0  0  0  0  0  0  0  0  0  0  0  0
   -3.7194   -1.0119   -1.0116 C   0  0  0  0  0  0  0  0  0  0  0  0
   -2.7578   -2.1646   -0.7698 C   0  0  0  0  0  0  0  0  0  0  0  0
   -5.7938    0.8033   -0.2085 C   0  0  0  0  0  0  0  0  0  0  0  0
   -4.2823    1.5980    1.6332 C   0  0  0  0  0  0  0  0  0  0  0  0
   -3.5850    1.8634   -0.7662 C   0  0  0  0  0  0  0  0  0  0  0  0
    0.5195   -0.7506    0.1874 C   0  0  0  0  0  0  0  0  0  0  0  0
    2.8666   -0.0077   -0.3126 C   0  0  0  0  0  0  0  0  0  0  0  0
    3.8760   -0.8541    0.1263 C   0  0  0  0  0  0  0  0  0  0  0  0
    3.0812    1.3589   -0.4292 C   0  0  0  0  0  0  0  0  0  0  0  0
    5.1236   -0.3234    0.4547 C   0  0  0  0  0  0  0  0  0  0  0  0
    3.6661   -2.3279    0.2589 C   0  0  0  0  0  0  0  0  0  0  0  0
    4.3288    1.8893   -0.1005 C   0  0  0  0  0  0  0  0  0  0  0  0
    5.3499    1.0481    0.3413 C   0  0  0  0  0  0  0  0  0  0  0  0
  1 17  1  0
  2  8  1  0
  2 14  1  0
  3 14  2  0
  4  6  1  0
  4  7  1  0
  4  9  1  0
  5 14  1  0
  5 15  1  0
  6 11  1  0
  6 12  1  0
  6 13  1  0
  7  8  1  0
  8 10  1  0
  9 10  1  0
 15 16  2  0
 15 17  1  0
 16 18  1  0
 16 19  1  0
 17 20  2  0
 18 21  2  0
 20 21  1  0
M  END
>  <PUBCHEM_COMPOUND_CID>  (1) 
35892

>  <PUBCHEM_CONFORMER_RMSD>  (1) 
0.8

>  <PUBCHEM_CONFORMER_DIVERSEORDER>  (1) 
2
39
18
70
71
24
3
73
57
26
65
61
21
58
60
23
48
19
22
15
32
72
25
43
68
11
37
69
8
27
16
20
66
35
9
56
5
41
63
51
36
10
4
42
59
33
67
17
52
29
50
64
34
31
40
28
53
49
38
30
62
7
55
54
1
12
6
47
46
14
13
45
44

>  <PUBCHEM_MMFF94_PARTIAL_CHARGES>  (1) 
21
1 -0.18
14 0.78
15 0.12
16 -0.14
17 0.18
18 -0.15
19 0.14
2 -0.43
20 -0.15
21 -0.15
3 -0.57
38 0.37
39 0.15
4 -0.81
43 0.15
44 0.15
5 -0.55
6 0.27
7 0.27
8 0.28
9 0.27

>  <PUBCHEM_EFFECTIVE_ROTOR_COUNT>  (1) 
6

>  <PUBCHEM_PHARMACOPHORE_FEATURES>  (1) 
6
1 3 acceptor
1 4 cation
1 5 donor
4 6 11 12 13 hydrophobe
5 4 7 8 9 10 rings
6 15 16 17 18 20 21 rings

>  <PUBCHEM_HEAVY_ATOM_COUNT>  (1) 
21

>  <PUBCHEM_ATOM_DEF_STEREO_COUNT>  (1) 
0

>  <PUBCHEM_ATOM_UDEF_STEREO_COUNT>  (1) 
1

>  <PUBCHEM_BOND_DEF_STEREO_COUNT>  (1) 
0

>  <PUBCHEM_BOND_UDEF_STEREO_COUNT>  (1) 
0

>  <PUBCHEM_ISOTOPIC_ATOM_COUNT>  (1) 
0

>  <PUBCHEM_COMPONENT_COUNT>  (1) 
1

>  <PUBCHEM_CACTVS_TAUTO_COUNT>  (1) 
2

>  <PUBCHEM_CONFORMER_ID>  (1) 
00008C3400000002

>  <PUBCHEM_MMFF94_ENERGY>  (1) 
77.1639

>  <PUBCHEM_FEATURE_SELFOVERLAP>  (1) 
30.446

>  <PUBCHEM_SHAPE_FINGERPRINT>  (1) 
10014705 185 18412261744475260715
10595046 47 18341890848255451847
10906281 52 18041290962919276876
11089746 13 17917424350604490952
11405975 8 18335421270503849250
11595378 159 17168129105909051644
12107183 9 18124313796572418986
12236239 1 18411415120247761539
12596602 18 15068633711459359692
12633257 1 18187363263731905460
12670546 56 18335412478510407358
13073987 5 18411135861458533450
13583140 156 18041289806939994195
13675066 3 17822016397361138442
15196674 1 18409730689803226781
15256400 18 18336264544282467028
15788980 27 18201722864100115802
15880784 105 13118297983240499973
1601671 61 18409729582503511244
17492 89 18410577331116637006
17818456 19 18058454214141384528
17844677 252 18337962284550986146
18186145 218 17530961406161099058
18335252 114 18264194839164868909
20157964 124 18411980222259295143
20511986 3 18200296801887509360
20645477 56 18407761426218780703
20715895 44 18270965613971593977
21033648 29 17022891346683841437
21033650 10 16629428889785492905
21304253 335 18411703227155202324
21315764 268 18261105253670370805
21421861 104 17895744103197973626
21503847 285 18040718069446632844
22393880 68 18059579160834467254
22950370 63 7853570218860376719
23227448 37 18410013264966538869
23402539 116 18342733031286131566
23402655 69 18413390964581571342
235170 7 13901912154997685393
23557571 272 17775010140711787687
23559900 14 17774729658469199910
23596394 208 12607409840800742200
268830 7 18334285483529186070
2838139 119 18045208359524540437
300161 21 18272364282929817562
34797466 226 16558473092471943856
351380 180 18260830393111736941
3545911 37 18412266138147527306
4214541 1 18411699910928525783
465052 167 11458429024570133576
474 4 18187366575051333696
5104073 3 18408039636957173506
543358 83 18411138022412392266
57724786 102 17240773938056414196
6328613 192 18335993073023327068
633830 44 17967813877156659882
8272917 22 18411139117687380374
9971528 1 18409168797139572238
9981440 41 17326614103416775120

>  <PUBCHEM_SHAPE_MULTIPOLES>  (1) 
412.34
13.06
2.47
1.06
0.74
0.17
-0.18
3.99
-1.11
-0.44
0.41
0.77
0.21
-1.1

>  <PUBCHEM_SHAPE_SELFOVERLAP>  (1) 
850.42

>  <PUBCHEM_SHAPE_VOLUME>  (1) 
240.4

>  <PUBCHEM_COORDINATE_TYPE>  (1) 
2
5
10

$$$$
