35893
     RDKit          3D

 19 20  0  0  1  0  0  0  0  0999 V2000
    1.1502   -0.6056    0.1525 O   0  0  0  0  0  0  0  0  0  0  0  0
   -0.2078   -0.2570   -1.6542 O   0  0  0  0  0  0  0  0  0  0  0  0
    4.1270    0.3902    0.1728 N   0  0  0  0  0  0  0  0  0  0  0  0
   -1.0379   -0.2744    0.5346 N   0  0  0  0  0  0  0  0  0  0  0  0
    2.2680   -0.7284   -0.7171 C   0  0  0  0  0  0  0  0  0  0  0  0
    2.4929    0.5789   -1.4745 C   0  0  0  0  0  0  0  0  0  0  0  0
    3.5354   -0.9494    0.1022 C   0  0  0  0  0  0  0  0  0  0  0  0
    3.9282    0.9690   -1.1548 C   0  0  0  0  0  0  0  0  0  0  0  0
    5.5292    0.3592    0.5618 C   0  0  0  0  0  0  0  0  0  0  0  0
    5.6991   -0.2151    1.9581 C   0  0  0  0  0  0  0  0  0  0  0  0
   -0.0654   -0.3648   -0.4424 C   0  0  0  0  0  0  0  0  0  0  0  0
   -2.4210   -0.0361    0.3666 C   0  0  0  0  0  0  0  0  0  0  0  0
   -2.8949    1.2683    0.3690 C   0  0  0  0  0  0  0  0  0  0  0  0
   -3.2843   -1.1103    0.2026 C   0  0  0  0  0  0  0  0  0  0  0  0
   -4.2599    1.5034    0.2043 C   0  0  0  0  0  0  0  0  0  0  0  0
   -4.6494   -0.8751    0.0377 C   0  0  0  0  0  0  0  0  0  0  0  0
   -1.9803    2.4372    0.5450 C   0  0  0  0  0  0  0  0  0  0  0  0
   -2.7922   -2.5215    0.1972 C   0  0  0  0  0  0  0  0  0  0  0  0
   -5.1370    0.4317    0.0386 C   0  0  0  0  0  0  0  0  0  0  0  0
  1  5  1  0
  1 11  1  0
  2 11  2  0
  3  7  1  0
  3  8  1  0
  3  9  1  0
  4 11  1  0
  4 12  1  0
  5  6  1  0
  5  7  1  0
  6  8  1  0
  9 10  1  0
 12 13  2  0
 12 14  1  0
 13 15  1  0
 13 17  1  0
 14 16  2  0
 14 18  1  0
 15 19  2  0
 16 19  1  0
M  END
>  <PUBCHEM_COMPOUND_CID>  (1) 
35893

>  <PUBCHEM_CONFORMER_RMSD>  (1) 
0.8

>  <PUBCHEM_CONFORMER_DIVERSEORDER>  (1) 
3
8
28
31
16
37
27
15
5
20
26
6
13
7
10
35
9
25
24
4
33
11
22
14
34
23
2
21
17
1
19
12
18
29
32
30
36

>  <PUBCHEM_MMFF94_PARTIAL_CHARGES>  (1) 
21
1 -0.43
11 0.78
12 0.12
13 -0.14
14 -0.14
15 -0.15
16 -0.15
17 0.14
18 0.14
19 -0.15
2 -0.57
3 -0.81
32 0.37
33 0.15
34 0.15
4 -0.55
41 0.15
5 0.28
7 0.27
8 0.27
9 0.27

>  <PUBCHEM_EFFECTIVE_ROTOR_COUNT>  (1) 
6

>  <PUBCHEM_PHARMACOPHORE_FEATURES>  (1) 
5
1 2 acceptor
1 3 cation
1 4 donor
5 3 5 6 7 8 rings
6 12 13 14 15 16 19 rings

>  <PUBCHEM_HEAVY_ATOM_COUNT>  (1) 
19

>  <PUBCHEM_ATOM_DEF_STEREO_COUNT>  (1) 
0

>  <PUBCHEM_ATOM_UDEF_STEREO_COUNT>  (1) 
1

>  <PUBCHEM_BOND_DEF_STEREO_COUNT>  (1) 
0

>  <PUBCHEM_BOND_UDEF_STEREO_COUNT>  (1) 
0

>  <PUBCHEM_ISOTOPIC_ATOM_COUNT>  (1) 
0

>  <PUBCHEM_COMPONENT_COUNT>  (1) 
1

>  <PUBCHEM_CACTVS_TAUTO_COUNT>  (1) 
2

>  <PUBCHEM_CONFORMER_ID>  (1) 
00008C3500000003

>  <PUBCHEM_MMFF94_ENERGY>  (1) 
62.4814

>  <PUBCHEM_FEATURE_SELFOVERLAP>  (1) 
25.371

>  <PUBCHEM_SHAPE_FINGERPRINT>  (1) 
10 15 17988911315598566440
10912923 1 17967820487137344910
11128504 68 13183017432574518192
11132069 177 18336836311724365925
11315181 36 18113901588828650864
12107183 9 17686335365682300810
12236239 1 17748826332506704307
12507557 5 18409730676934415340
12596602 18 17603587464811238128
12616971 3 17530686523705687927
12633257 1 17530966886834598946
12670546 56 18338797810366649754
128620 24 16558754494286342020
13403585 85 18413101784127836672
13533116 47 18270120098030273226
13583140 156 17989483039447876050
13675066 3 18131350800392669686
13911852 28 16734650985208154410
13914758 101 16950552247899856573
14844126 61 18263924517754483139
17349148 13 17676491669843674722
17862501 102 18113053852768903594
1813 80 16515692096110797782
18186145 218 10159693547704650238
19050596 39 18259989292333135862
19489759 90 18412261735610902739
200 152 16660638566163041702
20511986 3 18040983072854335717
20645477 70 15840730516769992894
21033648 29 17131822145443491000
21728266 224 18336258045975998499
23198884 109 11959732702828244200
23227448 37 17345462859594913028
23402539 116 18412823590954279775
23503953 91 18259985976792385222
23557571 272 18059593363811689484
23559900 14 18199484181137847094
345986 75 16879325871831494408
34797466 226 17916601945386337884
351380 180 18413671305259927264
3545911 37 18412551985300803150
4214541 1 18409170995471757159
4325135 7 16128365004437081613
474 4 17458921438568571492
5104073 3 17968385644408908504
573450 72 18260545649337847050
67856867 119 18188493609025247628
9709674 26 18341908350516559399
9971528 1 18041285379118868542
9981440 41 18409172078400232411

>  <PUBCHEM_SHAPE_MULTIPOLES>  (1) 
369.31
12.85
1.82
1.23
8.86
0.04
-0.03
0.92
3.78
-2.27
0.21
1.86
0.09
-0.57

>  <PUBCHEM_SHAPE_SELFOVERLAP>  (1) 
765.675

>  <PUBCHEM_SHAPE_VOLUME>  (1) 
213.6

>  <PUBCHEM_COORDINATE_TYPE>  (1) 
2
5
10

$$$$
