35894
     RDKit          3D

 20 21  0  0  1  0  0  0  0  0999 V2000
   -0.6604    1.4533    0.4323 O   0  0  0  0  0  0  0  0  0  0  0  0
    0.1436    0.2380   -1.3302 O   0  0  0  0  0  0  0  0  0  0  0  0
   -3.9254    0.4343   -0.0122 N   0  0  0  0  0  0  0  0  0  0  0  0
    1.4379    0.6664    0.5728 N   0  0  0  0  0  0  0  0  0  0  0  0
   -1.8961    1.6160   -0.2496 C   0  0  0  0  0  0  0  0  0  0  0  0
   -2.5434    0.2482   -0.4599 C   0  0  0  0  0  0  0  0  0  0  0  0
   -2.8788    2.4026    0.6143 C   0  0  0  0  0  0  0  0  0  0  0  0
   -3.8484    1.3489    1.1255 C   0  0  0  0  0  0  0  0  0  0  0  0
   -4.5769   -0.8223    0.3247 C   0  0  0  0  0  0  0  0  0  0  0  0
   -4.6607   -1.7222   -0.9057 C   0  0  0  0  0  0  0  0  0  0  0  0
   -5.3579   -3.0353   -0.5849 C   0  0  0  0  0  0  0  0  0  0  0  0
    0.3084    0.7288   -0.2201 C   0  0  0  0  0  0  0  0  0  0  0  0
    2.6647    0.0233    0.2912 C   0  0  0  0  0  0  0  0  0  0  0  0
    2.8433   -1.3011    0.6653 C   0  0  0  0  0  0  0  0  0  0  0  0
    3.6719    0.7261   -0.3547 C   0  0  0  0  0  0  0  0  0  0  0  0
    4.0542   -1.9357    0.3879 C   0  0  0  0  0  0  0  0  0  0  0  0
    4.8828    0.0915   -0.6322 C   0  0  0  0  0  0  0  0  0  0  0  0
    1.7701   -2.0737    1.3615 C   0  0  0  0  0  0  0  0  0  0  0  0
    3.4974    2.1524   -0.7654 C   0  0  0  0  0  0  0  0  0  0  0  0
    5.0738   -1.2394   -0.2608 C   0  0  0  0  0  0  0  0  0  0  0  0
  1  5  1  0
  1 12  1  0
  2 12  2  0
  3  6  1  0
  3  8  1  0
  3  9  1  0
  4 12  1  0
  4 13  1  0
  5  6  1  0
  5  7  1  0
  7  8  1  0
  9 10  1  0
 10 11  1  0
 13 14  2  0
 13 15  1  0
 14 16  1  0
 14 18  1  0
 15 17  2  0
 15 19  1  0
 16 20  2  0
 17 20  1  0
M  END
>  <PUBCHEM_COMPOUND_CID>  (1) 
35894

>  <PUBCHEM_CONFORMER_RMSD>  (1) 
0.8

>  <PUBCHEM_CONFORMER_DIVERSEORDER>  (1) 
1
17
18
6
49
45
52
62
24
21
41
51
63
28
39
19
58
64
2
16
8
48
29
13
44
59
4
7
23
40
43
15
12
55
25
33
38
31
42
35
50
10
22
26
61
5
20
14
37
27
9
32
46
3
54
30
11
56
60
53
36
57
34
47

>  <PUBCHEM_MMFF94_PARTIAL_CHARGES>  (1) 
21
1 -0.43
12 0.78
13 0.12
14 -0.14
15 -0.14
16 -0.15
17 -0.15
18 0.14
19 0.14
2 -0.57
20 -0.15
3 -0.81
35 0.37
36 0.15
37 0.15
4 -0.55
44 0.15
5 0.28
6 0.27
8 0.27
9 0.27

>  <PUBCHEM_EFFECTIVE_ROTOR_COUNT>  (1) 
7

>  <PUBCHEM_PHARMACOPHORE_FEATURES>  (1) 
6
1 11 hydrophobe
1 2 acceptor
1 3 cation
1 4 donor
5 3 5 6 7 8 rings
6 13 14 15 16 17 20 rings

>  <PUBCHEM_HEAVY_ATOM_COUNT>  (1) 
20

>  <PUBCHEM_ATOM_DEF_STEREO_COUNT>  (1) 
0

>  <PUBCHEM_ATOM_UDEF_STEREO_COUNT>  (1) 
1

>  <PUBCHEM_BOND_DEF_STEREO_COUNT>  (1) 
0

>  <PUBCHEM_BOND_UDEF_STEREO_COUNT>  (1) 
0

>  <PUBCHEM_ISOTOPIC_ATOM_COUNT>  (1) 
0

>  <PUBCHEM_COMPONENT_COUNT>  (1) 
1

>  <PUBCHEM_CACTVS_TAUTO_COUNT>  (1) 
2

>  <PUBCHEM_CONFORMER_ID>  (1) 
00008C3600000001

>  <PUBCHEM_MMFF94_ENERGY>  (1) 
62.4168

>  <PUBCHEM_FEATURE_SELFOVERLAP>  (1) 
30.446

>  <PUBCHEM_SHAPE_FINGERPRINT>  (1) 
10366900 7 17530973458108344016
10616163 171 18341050731388585655
11046707 91 18342736325942804829
11552529 35 18338795607323103701
11796584 16 18270963431832321311
12107183 9 17617098005805472857
12236239 1 18271529694012844008
12596602 18 17917993884389213320
12633257 1 17561094613732188745
13103583 49 17846233197652217387
13167823 11 18410294683465199977
13631057 29 18340767134581726467
13675066 3 17274815805862928084
13760787 19 18337675200457685353
14289901 80 18334859381143722873
14576447 43 18335136505666156782
14787075 74 18336829800416788512
15250474 111 18336819797681101611
15537594 2 18408610258038780579
15880784 105 18272938240699575211
17134984 74 17386837486849799787
17357779 13 16153428328762871244
17834072 33 18408324384477163508
17857418 61 18408317774432882650
18915474 69 18410292514496172508
19422 9 18411700954637337624
200 152 18260832578965299553
20028762 73 18410005521125758042
20281475 54 18411416202700793961
21054139 6 18333729135225660274
21673915 165 18408603673220938762
21709351 56 18040999488641555556
22950370 63 18342179985669823409
235170 7 16515673451605160767
23559900 14 18341037589005106905
23598288 3 18201435857580484037
2838139 119 10302998418003628827
2871803 45 18113612400054026275
312423 11 18413110575667480629
314194 84 18337678645385083379
351380 3 18342455997838913615
4214541 1 18338237055157626729
465052 167 18131072679157838943
5104073 3 18060698385855925128
5312544 6 18263086685434950868
602551 16 17060326457502791126
6913067 236 17603853555331288148
7495541 125 17989486342367215856
77779 3 18337956692735616840
7970288 3 17904759973855509010
9709674 26 18261402104566483242

>  <PUBCHEM_SHAPE_MULTIPOLES>  (1) 
389.89
12.65
2.82
1.05
3.83
0.82
0.06
6.4
-1.64
2.25
0.1
0.14
0.13
-2.14

>  <PUBCHEM_SHAPE_SELFOVERLAP>  (1) 
803.821

>  <PUBCHEM_SHAPE_VOLUME>  (1) 
226.3

>  <PUBCHEM_COORDINATE_TYPE>  (1) 
2
5
10

$$$$
