35890
     RDKit          3D

 21 23  0  0  0  0  0  0  0  0999 V2000
    1.4119   -0.2712   -1.9103 S   0  0  0  0  0  0  0  0  0  0  0  0
   -1.6494    0.2648    1.1509 O   0  0  0  0  0  0  0  0  0  0  0  0
   -4.8244    0.8601   -0.5900 N   0  0  0  0  0  0  0  0  0  0  0  0
   -0.3260    0.1710    0.7485 C   0  0  0  0  0  0  0  0  0  0  0  0
    0.0855   -1.2041    0.3916 C   0  0  0  0  0  0  0  0  0  0  0  0
   -3.9257    0.5866    0.5214 C   0  0  0  0  0  0  0  0  0  0  0  0
   -2.4850    0.5138    0.0415 C   0  0  0  0  0  0  0  0  0  0  0  0
    1.8888    1.3226    0.3530 C   0  0  0  0  0  0  0  0  0  0  0  0
    0.8365   -1.5163   -0.7592 C   0  0  0  0  0  0  0  0  0  0  0  0
    0.4679    1.2573    0.7354 C   0  0  0  0  0  0  0  0  0  0  0  0
    2.4159    0.7067   -0.7971 C   0  0  0  0  0  0  0  0  0  0  0  0
   -0.3230   -2.2582    1.2304 C   0  0  0  0  0  0  0  0  0  0  0  0
    1.1540   -2.8535   -1.0482 C   0  0  0  0  0  0  0  0  0  0  0  0
    2.7380    2.1032    1.1549 C   0  0  0  0  0  0  0  0  0  0  0  0
    3.7735    0.8676   -1.1136 C   0  0  0  0  0  0  0  0  0  0  0  0
   -4.4624    2.1157   -1.2523 C   0  0  0  0  0  0  0  0  0  0  0  0
   -6.2148    0.9133   -0.1315 C   0  0  0  0  0  0  0  0  0  0  0  0
    0.0044   -3.5830    0.9382 C   0  0  0  0  0  0  0  0  0  0  0  0
    0.7413   -3.8805   -0.2016 C   0  0  0  0  0  0  0  0  0  0  0  0
    4.0880    2.2512    0.8356 C   0  0  0  0  0  0  0  0  0  0  0  0
    4.6053    1.6328   -0.2974 C   0  0  0  0  0  0  0  0  0  0  0  0
  1  9  1  0
  1 11  1  0
  2  4  1  0
  2  7  1  0
  3  6  1  0
  3 16  1  0
  3 17  1  0
  4  5  1  0
  4 10  2  0
  5  9  2  0
  5 12  1  0
  6  7  1  0
  8 10  1  0
  8 11  2  0
  8 14  1  0
  9 13  1  0
 11 15  1  0
 12 18  2  0
 13 19  2  0
 14 20  2  0
 15 21  2  0
 18 19  1  0
 20 21  1  0
M  END
>  <PUBCHEM_COMPOUND_CID>  (1) 
35890

>  <PUBCHEM_CONFORMER_RMSD>  (1) 
0.6

>  <PUBCHEM_CONFORMER_DIVERSEORDER>  (1) 
1
16
25
33
17
23
27
22
26
3
13
18
20
29
7
32
10
30
19
21
2
11
6
8
9
28
14
12
24
15
5
31
4

>  <PUBCHEM_MMFF94_PARTIAL_CHARGES>  (1) 
30
1 -0.2
10 -0.18
11 0.1
12 -0.15
13 -0.15
14 -0.15
15 -0.15
16 0.27
17 0.27
18 -0.15
19 -0.15
2 -0.36
20 -0.15
21 -0.15
26 0.15
27 0.15
28 0.15
29 0.15
3 -0.81
30 0.15
37 0.15
38 0.15
39 0.15
4 0.05
40 0.15
5 0.03
6 0.27
7 0.28
8 0.03
9 0.1

>  <PUBCHEM_EFFECTIVE_ROTOR_COUNT>  (1) 
4.2

>  <PUBCHEM_PHARMACOPHORE_FEATURES>  (1) 
5
1 2 acceptor
1 3 cation
6 5 9 12 13 18 19 rings
6 8 11 14 15 20 21 rings
7 1 4 5 8 9 10 11 rings

>  <PUBCHEM_HEAVY_ATOM_COUNT>  (1) 
21

>  <PUBCHEM_ATOM_DEF_STEREO_COUNT>  (1) 
0

>  <PUBCHEM_ATOM_UDEF_STEREO_COUNT>  (1) 
0

>  <PUBCHEM_BOND_DEF_STEREO_COUNT>  (1) 
0

>  <PUBCHEM_BOND_UDEF_STEREO_COUNT>  (1) 
0

>  <PUBCHEM_ISOTOPIC_ATOM_COUNT>  (1) 
0

>  <PUBCHEM_COMPONENT_COUNT>  (1) 
1

>  <PUBCHEM_CACTVS_TAUTO_COUNT>  (1) 
1

>  <PUBCHEM_CONFORMER_ID>  (1) 
00008C3200000001

>  <PUBCHEM_MMFF94_ENERGY>  (1) 
74.085

>  <PUBCHEM_FEATURE_SELFOVERLAP>  (1) 
25.386

>  <PUBCHEM_SHAPE_FINGERPRINT>  (1) 
105312 117 18262240031390256092
10688039 33 17474111376253311987
10693767 8 17774164479026735030
10764073 3 14566422828960354791
1100329 8 18339642248636026882
12500047 106 18266463285986573032
12730499 353 18410583868614965529
12769317 202 18341041943854037921
12788726 201 17394175760074790466
13004483 165 16462210462733692298
13540713 4 17627519560215422256
14178000 22 18336540633185130312
14251764 3 18409447011508644220
15163728 17 18042139703316024493
15502722 9 18338233752712404249
15852999 172 18338813293913532406
16752209 62 18122902298652032810
17980427 23 16951131806407266279
20197701 30 18411132567228809410
20554085 129 18058993060648884944
20567600 347 18407758136215848723
20645477 70 18270681940419604935
21054139 6 18198890582835592255
21521239 73 17775569732069310468
22112679 90 17192655718294471451
22149856 69 17970654951902028457
22182313 1 18191049917793836867
22393880 68 18342178839029542039
22907989 373 17762637469461061660
23419403 2 17026252437660690902
23598288 3 17462299241473744498
238 59 18201167576146681075
266924 1 17702675328527003713
266924 87 18267590108726497432
2748010 2 17841746146254016382
3060560 45 18412542115276351596
3759504 43 18337672048041068476
4340502 62 18409736166519460343
5895379 119 16840511861171437041
59755656 520 18335974372128435198
6025842 7 18340480068127204735
633830 44 17917448517889963977
6669772 16 18343300375297409134
7471813 234 17910389485672412303
7495541 125 10663807603284732061
81228 2 17618505823102312434
81539 233 18409163286174207337
84936 182 18268999682616943024
90316 7 17402625537141685314

>  <PUBCHEM_SHAPE_MULTIPOLES>  (1) 
425.17
9.03
3.92
1.43
12.84
4.89
-0.3
-10.29
-1.72
-1.62
0.49
-0.41
0.04
1.41

>  <PUBCHEM_SHAPE_SELFOVERLAP>  (1) 
897.052

>  <PUBCHEM_SHAPE_VOLUME>  (1) 
239.3

>  <PUBCHEM_COORDINATE_TYPE>  (1) 
2
5
10

$$$$
