35905
     RDKit          3D

 21 22  0  0  1  0  0  0  0  0999 V2000
    2.4925   -2.4443   -0.8693 Cl  0  0  0  0  0  0  0  0  0  0  0  0
   -0.5343    0.7439   -0.1806 O   0  0  0  0  0  0  0  0  0  0  0  0
    0.7460    0.1639    1.6235 O   0  0  0  0  0  0  0  0  0  0  0  0
   -4.1647    0.0177    0.1127 N   0  0  0  0  0  0  0  0  0  0  0  0
    1.6639    0.4442   -0.5117 N   0  0  0  0  0  0  0  0  0  0  0  0
   -1.7094    0.1665    0.3786 C   0  0  0  0  0  0  0  0  0  0  0  0
   -2.9395    0.6465   -0.3970 C   0  0  0  0  0  0  0  0  0  0  0  0
   -4.0904   -1.4471    0.0143 C   0  0  0  0  0  0  0  0  0  0  0  0
   -1.5944   -1.3553    0.3498 C   0  0  0  0  0  0  0  0  0  0  0  0
   -2.8999   -1.9959    0.8032 C   0  0  0  0  0  0  0  0  0  0  0  0
   -5.3356    0.5207   -0.6052 C   0  0  0  0  0  0  0  0  0  0  0  0
   -5.3959    2.0431   -0.5179 C   0  0  0  0  0  0  0  0  0  0  0  0
   -6.5969   -0.1118   -0.0255 C   0  0  0  0  0  0  0  0  0  0  0  0
    0.6532    0.4220    0.4296 C   0  0  0  0  0  0  0  0  0  0  0  0
    3.0384    0.1759   -0.3195 C   0  0  0  0  0  0  0  0  0  0  0  0
    3.8877    1.2236    0.0100 C   0  0  0  0  0  0  0  0  0  0  0  0
    3.5219   -1.1179   -0.4602 C   0  0  0  0  0  0  0  0  0  0  0  0
    5.2463    0.9726    0.2025 C   0  0  0  0  0  0  0  0  0  0  0  0
    3.3878    2.6235    0.1663 C   0  0  0  0  0  0  0  0  0  0  0  0
    4.8805   -1.3686   -0.2677 C   0  0  0  0  0  0  0  0  0  0  0  0
    5.7427   -0.3234    0.0638 C   0  0  0  0  0  0  0  0  0  0  0  0
  1 17  1  0
  2  6  1  0
  2 14  1  0
  3 14  2  0
  4  7  1  0
  4  8  1  0
  4 11  1  0
  5 14  1  0
  5 15  1  0
  6  7  1  0
  6  9  1  0
  8 10  1  0
  9 10  1  0
 11 12  1  0
 11 13  1  0
 15 16  2  0
 15 17  1  0
 16 18  1  0
 16 19  1  0
 17 20  2  0
 18 21  2  0
 20 21  1  0
M  END
>  <PUBCHEM_COMPOUND_CID>  (1) 
35905

>  <PUBCHEM_CONFORMER_RMSD>  (1) 
0.8

>  <PUBCHEM_CONFORMER_DIVERSEORDER>  (1) 
4
119
17
69
48
43
23
35
18
66
89
81
102
47
87
37
58
22
16
94
77
118
80
28
52
107
106
26
25
79
60
19
99
93
83
95
57
21
88
7
120
12
101
96
20
85
61
112
64
113
27
45
82
84
3
11
76
62
78
116
44
92
51
70
90
75
86
110
72
103
59
49
38
41
115
53
68
36
42
55
46
73
91
67
117
71
74
104
108
32
105
111
13
50
33
65
14
5
114
63
15
100
6
56
29
8
34
24
97
109
10
39
98
54
30
40
9
31
1
2

>  <PUBCHEM_MMFF94_PARTIAL_CHARGES>  (1) 
21
1 -0.18
11 0.27
14 0.78
15 0.12
16 -0.14
17 0.18
18 -0.15
19 0.14
2 -0.43
20 -0.15
21 -0.15
3 -0.57
38 0.37
39 0.15
4 -0.81
43 0.15
44 0.15
5 -0.55
6 0.28
7 0.27
8 0.27

>  <PUBCHEM_EFFECTIVE_ROTOR_COUNT>  (1) 
6.2

>  <PUBCHEM_PHARMACOPHORE_FEATURES>  (1) 
6
1 3 acceptor
1 4 cation
1 5 donor
3 11 12 13 hydrophobe
6 15 16 17 18 20 21 rings
6 4 6 7 8 9 10 rings

>  <PUBCHEM_HEAVY_ATOM_COUNT>  (1) 
21

>  <PUBCHEM_ATOM_DEF_STEREO_COUNT>  (1) 
0

>  <PUBCHEM_ATOM_UDEF_STEREO_COUNT>  (1) 
1

>  <PUBCHEM_BOND_DEF_STEREO_COUNT>  (1) 
0

>  <PUBCHEM_BOND_UDEF_STEREO_COUNT>  (1) 
0

>  <PUBCHEM_ISOTOPIC_ATOM_COUNT>  (1) 
0

>  <PUBCHEM_COMPONENT_COUNT>  (1) 
1

>  <PUBCHEM_CACTVS_TAUTO_COUNT>  (1) 
2

>  <PUBCHEM_CONFORMER_ID>  (1) 
00008C4100000004

>  <PUBCHEM_MMFF94_ENERGY>  (1) 
64.917

>  <PUBCHEM_FEATURE_SELFOVERLAP>  (1) 
30.446

>  <PUBCHEM_SHAPE_FINGERPRINT>  (1) 
10354089 29 11025799799543934470
10366900 7 12319738076506362591
10835480 77 18412258471446943824
11287383 113 18408886260593815272
11370993 70 18410856581484462910
11405975 8 18334577966417457880
11719270 70 18343579621708637790
11796584 16 18411700993624677642
12107183 9 17480593645854229939
12236239 1 17240199928361413473
12516196 113 17632856429866644201
13402501 40 18408885126722423326
13533116 47 17988925531165212690
13668630 136 16845857905764203831
13836976 161 18273498983678103382
14251764 18 17917997179204089731
14573314 32 18410573972730883557
15183329 4 18410009901748682929
15196674 1 18410576218624629078
15375358 24 18410014355229225439
15788980 27 18410294734973094062
17349148 13 14405183980401634277
17834072 33 18272367594307151463
17844677 252 18410862057646886517
18222031 100 14620797106532920320
19141452 34 18333733545866721631
200 152 17918275350422573898
20511986 3 17917414441603463718
20645477 56 18259703402509950541
20645477 70 18060142007387193158
20681677 155 18113335310766244467
21065198 57 18336828700973693388
21279426 13 18265896844108539975
21315759 40 15140679194079305673
21315763 129 18408884065907764061
2215653 11 18341612603035891807
23402539 116 18333726935700868149
23536379 177 18412544293167415153
23557571 272 17967811622024581844
23559900 14 18412541041729687112
239999 70 18201727245499644654
26918003 58 18413671314176662706
29717793 49 17561090185352056236
300161 21 18411132549959100530
3004659 81 18335702724205819394
3545911 37 18408605868112458477
4015057 19 18270108145558093249
4073 2 18041284365211324114
4214541 1 18409167714259356133
495365 180 18059283357709746216
5104073 3 18336549403466151497
5283173 99 18410008793589702377
542803 24 13551189983129518557
59755656 215 18335140852167980734
59755656 520 16225765224924848347
633830 44 16950565540343505032
9709674 26 18412272722327695614
9995097 60 18410293618292133621

>  <PUBCHEM_SHAPE_MULTIPOLES>  (1) 
412.34
15.37
2.23
0.87
8.55
0.05
0.12
-2.18
-1.63
-0.8
-0.17
0.05
0.11
1.25

>  <PUBCHEM_SHAPE_SELFOVERLAP>  (1) 
841.251

>  <PUBCHEM_SHAPE_VOLUME>  (1) 
240.4

>  <PUBCHEM_COORDINATE_TYPE>  (1) 
2
5
10

$$$$
