35908
     RDKit          3D

 22 23  0  0  1  0  0  0  0  0999 V2000
    2.7096   -2.4392   -0.8779 Cl  0  0  0  0  0  0  0  0  0  0  0  0
   -0.3021    0.7369   -0.0765 O   0  0  0  0  0  0  0  0  0  0  0  0
    1.0352    0.1499    1.6834 O   0  0  0  0  0  0  0  0  0  0  0  0
   -3.9198   -0.0004    0.3254 N   0  0  0  0  0  0  0  0  0  0  0  0
    1.8855    0.4449   -0.4777 N   0  0  0  0  0  0  0  0  0  0  0  0
   -5.1137    0.5037   -0.3527 C   0  0  0  0  0  0  0  0  0  0  0  0
   -2.7126    0.6345   -0.2185 C   0  0  0  0  0  0  0  0  0  0  0  0
   -3.8450   -1.4644    0.2161 C   0  0  0  0  0  0  0  0  0  0  0  0
   -1.4577    0.1533    0.5156 C   0  0  0  0  0  0  0  0  0  0  0  0
   -2.6292   -2.0147    0.9643 C   0  0  0  0  0  0  0  0  0  0  0  0
   -1.3400   -1.3681    0.4743 C   0  0  0  0  0  0  0  0  0  0  0  0
   -6.3491   -0.1197    0.3056 C   0  0  0  0  0  0  0  0  0  0  0  0
   -5.1518    2.0283   -0.2046 C   0  0  0  0  0  0  0  0  0  0  0  0
   -5.0568    0.1195   -1.8359 C   0  0  0  0  0  0  0  0  0  0  0  0
    0.9047    0.4147    0.4945 C   0  0  0  0  0  0  0  0  0  0  0  0
    3.2660    0.1791   -0.3299 C   0  0  0  0  0  0  0  0  0  0  0  0
    4.1226    1.2271   -0.0208 C   0  0  0  0  0  0  0  0  0  0  0  0
    3.7480   -1.1125   -0.4932 C   0  0  0  0  0  0  0  0  0  0  0  0
    5.4871    0.9786    0.1278 C   0  0  0  0  0  0  0  0  0  0  0  0
    3.6244    2.6248    0.1592 C   0  0  0  0  0  0  0  0  0  0  0  0
    5.1126   -1.3608   -0.3446 C   0  0  0  0  0  0  0  0  0  0  0  0
    5.9821   -0.3153   -0.0339 C   0  0  0  0  0  0  0  0  0  0  0  0
  1 18  1  0
  2  9  1  0
  2 15  1  0
  3 15  2  0
  4  6  1  0
  4  7  1  0
  4  8  1  0
  5 15  1  0
  5 16  1  0
  6 12  1  0
  6 13  1  0
  6 14  1  0
  7  9  1  0
  8 10  1  0
  9 11  1  0
 10 11  1  0
 16 17  2  0
 16 18  1  0
 17 19  1  0
 17 20  1  0
 18 21  2  0
 19 22  2  0
 21 22  1  0
M  END
>  <PUBCHEM_COMPOUND_CID>  (1) 
35908

>  <PUBCHEM_CONFORMER_RMSD>  (1) 
0.8

>  <PUBCHEM_CONFORMER_DIVERSEORDER>  (1) 
4
86
11
25
70
73
12
54
64
67
87
95
81
98
34
79
92
63
19
59
47
32
78
41
46
28
7
62
30
3
10
83
77
90
97
31
56
45
58
99
82
21
89
33
65
29
49
17
24
20
42
85
52
40
43
88
51
15
91
27
9
35
50
76
74
94
72
84
26
36
53
71
22
6
75
80
96
55
13
5
48
39
23
68
8
66
93
14
38
57
16
44
61
37
2
18
1
60
69

>  <PUBCHEM_MMFF94_PARTIAL_CHARGES>  (1) 
21
1 -0.18
15 0.78
16 0.12
17 -0.14
18 0.18
19 -0.15
2 -0.43
20 0.14
21 -0.15
22 -0.15
3 -0.57
4 -0.81
41 0.37
42 0.15
46 0.15
47 0.15
5 -0.55
6 0.27
7 0.27
8 0.27
9 0.28

>  <PUBCHEM_EFFECTIVE_ROTOR_COUNT>  (1) 
6.2

>  <PUBCHEM_PHARMACOPHORE_FEATURES>  (1) 
6
1 3 acceptor
1 4 cation
1 5 donor
4 6 12 13 14 hydrophobe
6 16 17 18 19 21 22 rings
6 4 7 8 9 10 11 rings

>  <PUBCHEM_HEAVY_ATOM_COUNT>  (1) 
22

>  <PUBCHEM_ATOM_DEF_STEREO_COUNT>  (1) 
0

>  <PUBCHEM_ATOM_UDEF_STEREO_COUNT>  (1) 
1

>  <PUBCHEM_BOND_DEF_STEREO_COUNT>  (1) 
0

>  <PUBCHEM_BOND_UDEF_STEREO_COUNT>  (1) 
0

>  <PUBCHEM_ISOTOPIC_ATOM_COUNT>  (1) 
0

>  <PUBCHEM_COMPONENT_COUNT>  (1) 
1

>  <PUBCHEM_CACTVS_TAUTO_COUNT>  (1) 
2

>  <PUBCHEM_CONFORMER_ID>  (1) 
00008C4400000004

>  <PUBCHEM_MMFF94_ENERGY>  (1) 
77.6595

>  <PUBCHEM_FEATURE_SELFOVERLAP>  (1) 
30.446

>  <PUBCHEM_SHAPE_FINGERPRINT>  (1) 
10354089 29 11169914987704160398
10366900 7 12391514191425586862
10447042 23 18060699473015484774
10835480 77 18411133684173968728
11405975 8 18333733545903580040
11719270 70 18343299250617636950
11796584 16 18409731768447030538
12107183 9 17409382671453603730
12236239 1 16988842778559201724
12516196 113 17489867137407912456
12596602 18 15267334145769335494
12788726 201 16845020009321739307
12916748 109 18186524297926849881
13402501 40 18408041805788796950
13533116 47 17988925531492221354
13668630 136 16774081786434039125
14251764 18 17775289361658726115
14573314 32 18410012126415239221
15183329 4 18335137566222405211
15196674 1 18410577322557811674
15375358 24 18410578400441472750
15788980 27 18411983584960010558
17349148 13 14692572143399444237
17834072 33 18131067142913098637
17844677 252 18411144632061378433
18222031 100 15123513614219883352
18608769 82 18336550521208083763
200 152 17775567533125234059
20511986 3 17703774917110587334
20645477 56 18186801392047338141
20645477 70 18131637751152119566
20681677 155 18040997345436901211
21279426 13 18265334997814053087
21315763 129 18408603694827319164
220451 1 17418094321477193615
22061861 79 18343866601862185798
2215653 11 18412263926149842262
22224240 67 17846206771024328338
23198884 109 18410572882099340529
23402539 116 18412823569152759261
23536379 177 18342458123362077561
23557571 272 17749389239167665740
23559900 14 18411417349588989488
239999 70 18273222984858859958
26918003 58 18413390943112035706
29717793 49 17704079473642369284
300161 21 18409163329171385658
3004659 81 18335703823833478770
3545911 37 18260831509697459465
4015057 19 18270110344433649425
4073 2 18041566944137048170
4214541 1 18409169913124362657
5104073 3 18335706078084570608
5283173 99 18409728422266599505
59755656 215 18334577906688855230
59755656 520 15791730819279238907
633830 44 16733549441569904744
9709674 26 18270410394975051782
9995097 60 18409732871646398650

>  <PUBCHEM_SHAPE_MULTIPOLES>  (1) 
432.92
15.93
2.16
1.03
3.78
0.07
-0.11
-2.21
-2.38
-1.14
-0.04
0.75
0.17
1.15

>  <PUBCHEM_SHAPE_SELFOVERLAP>  (1) 
887.242

>  <PUBCHEM_SHAPE_VOLUME>  (1) 
252.3

>  <PUBCHEM_COORDINATE_TYPE>  (1) 
2
5
10

$$$$
