35903
     RDKit          3D

 21 22  0  0  1  0  0  0  0  0999 V2000
   -0.5397    0.7405   -0.1746 O   0  0  0  0  0  0  0  0  0  0  0  0
    0.7404    0.1427    1.6237 O   0  0  0  0  0  0  0  0  0  0  0  0
   -4.1700    0.0105    0.1107 N   0  0  0  0  0  0  0  0  0  0  0  0
    1.6586    0.4448   -0.5084 N   0  0  0  0  0  0  0  0  0  0  0  0
   -1.7147    0.1572    0.3785 C   0  0  0  0  0  0  0  0  0  0  0  0
   -2.9449    0.6447   -0.3924 C   0  0  0  0  0  0  0  0  0  0  0  0
   -4.0953   -1.4532   -0.0025 C   0  0  0  0  0  0  0  0  0  0  0  0
   -1.5993   -1.3642    0.3343 C   0  0  0  0  0  0  0  0  0  0  0  0
   -2.9047   -2.0097    0.7810 C   0  0  0  0  0  0  0  0  0  0  0  0
   -5.3409    0.5204   -0.6023 C   0  0  0  0  0  0  0  0  0  0  0  0
   -5.4016    2.0418   -0.4996 C   0  0  0  0  0  0  0  0  0  0  0  0
   -6.6021   -0.1182   -0.0292 C   0  0  0  0  0  0  0  0  0  0  0  0
    0.6478    0.4129    0.4324 C   0  0  0  0  0  0  0  0  0  0  0  0
    3.0331    0.1749   -0.3187 C   0  0  0  0  0  0  0  0  0  0  0  0
    3.8922    1.2105    0.0216 C   0  0  0  0  0  0  0  0  0  0  0  0
    3.5030   -1.1214   -0.4765 C   0  0  0  0  0  0  0  0  0  0  0  0
    5.2487    0.9444    0.2078 C   0  0  0  0  0  0  0  0  0  0  0  0
    4.8596   -1.3875   -0.2902 C   0  0  0  0  0  0  0  0  0  0  0  0
    3.4044    2.6125    0.1950 C   0  0  0  0  0  0  0  0  0  0  0  0
    2.5931   -2.2491   -0.8425 C   0  0  0  0  0  0  0  0  0  0  0  0
    5.7324   -0.3544    0.0520 C   0  0  0  0  0  0  0  0  0  0  0  0
  1  5  1  0
  1 13  1  0
  2 13  2  0
  3  6  1  0
  3  7  1  0
  3 10  1  0
  4 13  1  0
  4 14  1  0
  5  6  1  0
  5  8  1  0
  7  9  1  0
  8  9  1  0
 10 11  1  0
 10 12  1  0
 14 15  2  0
 14 16  1  0
 15 17  1  0
 15 19  1  0
 16 18  2  0
 16 20  1  0
 17 21  2  0
 18 21  1  0
M  END
>  <PUBCHEM_COMPOUND_CID>  (1) 
35903

>  <PUBCHEM_CONFORMER_RMSD>  (1) 
0.8

>  <PUBCHEM_CONFORMER_DIVERSEORDER>  (1) 
2
14
99
12
105
94
92
44
98
60
64
29
102
107
31
76
35
30
80
71
19
22
20
91
41
63
3
16
85
96
15
106
67
36
100
68
23
32
101
8
61
52
26
86
66
93
50
87
104
65
54
49
70
38
89
28
75
95
59
58
83
18
24
88
25
82
74
81
10
43
103
47
55
5
72
78
77
37
45
69
46
39
73
6
9
51
48
53
90
7
4
34
84
21
27
79
56
17
40
97
11
13
42
1
33
62
57

>  <PUBCHEM_MMFF94_PARTIAL_CHARGES>  (1) 
21
1 -0.43
10 0.27
13 0.78
14 0.12
15 -0.14
16 -0.14
17 -0.15
18 -0.15
19 0.14
2 -0.57
20 0.14
21 -0.15
3 -0.81
38 0.37
39 0.15
4 -0.55
40 0.15
47 0.15
5 0.28
6 0.27
7 0.27

>  <PUBCHEM_EFFECTIVE_ROTOR_COUNT>  (1) 
6.2

>  <PUBCHEM_PHARMACOPHORE_FEATURES>  (1) 
6
1 2 acceptor
1 3 cation
1 4 donor
3 10 11 12 hydrophobe
6 14 15 16 17 18 21 rings
6 3 5 6 7 8 9 rings

>  <PUBCHEM_HEAVY_ATOM_COUNT>  (1) 
21

>  <PUBCHEM_ATOM_DEF_STEREO_COUNT>  (1) 
0

>  <PUBCHEM_ATOM_UDEF_STEREO_COUNT>  (1) 
1

>  <PUBCHEM_BOND_DEF_STEREO_COUNT>  (1) 
0

>  <PUBCHEM_BOND_UDEF_STEREO_COUNT>  (1) 
0

>  <PUBCHEM_ISOTOPIC_ATOM_COUNT>  (1) 
0

>  <PUBCHEM_COMPONENT_COUNT>  (1) 
1

>  <PUBCHEM_CACTVS_TAUTO_COUNT>  (1) 
2

>  <PUBCHEM_CONFORMER_ID>  (1) 
00008C3F00000002

>  <PUBCHEM_MMFF94_ENERGY>  (1) 
66.59

>  <PUBCHEM_FEATURE_SELFOVERLAP>  (1) 
30.446

>  <PUBCHEM_SHAPE_FINGERPRINT>  (1) 
10354089 29 11025799799549189734
10366900 7 12607405498425561958
10835480 77 18412539946444747024
11287383 113 18409167735570519424
11405975 8 18334859437088625752
11719270 70 18343861096695897958
11796584 16 18411138039381576826
12107183 9 17480593645833130931
12236239 1 17240199928403592009
12516196 113 17561080310810669193
12596602 18 15267051579717970439
12916748 109 18186241723543980457
13533116 47 17988925531165225674
13668630 136 16773800311726275893
14251764 18 17917715708511809859
14573314 32 18410855447712875453
15183329 4 18410009901764481209
15196674 1 18410857693585515486
15375358 24 18410295830190118318
15788980 27 18408324410183715670
15961568 22 17387132164503315844
17349148 13 14405183984696608069
17834072 33 18272649069273306119
17844677 252 18411143532634146685
18222031 100 14620797106532913824
19141452 34 18333733545887833639
200 152 17846499231371912618
20511986 3 17988909085698532798
20645477 56 18259702302987773261
20645477 70 18060142007387186654
20681677 155 18113616785748249355
21065198 57 18336829800480013940
21279426 13 18265896844108565951
21315759 40 15140679194074056889
21315763 129 18408884065902528285
2215653 11 18341894073749296671
23402539 116 18334008410672297557
23536379 177 18412825768159937073
23557571 272 17967811622124730684
23559900 14 18412541041734961864
239999 70 18273503364566149662
26918003 58 18413952789148124586
29717793 49 17561371656033773612
300161 21 18411695495617567538
3004659 81 18408041793209901978
3545911 37 18408887343010015397
4015057 19 18270108145558086761
4073 2 18041565840172236482
4214541 1 18409449184930536997
5104073 3 18408888472496601353
5283173 99 18410008793584421105
542803 24 13695586646171522589
59755656 215 18335140852162718966
59755656 520 16225765224903768827
633830 44 16950566639839289056
9709674 26 18411709789596367438
9995097 60 18410856572540522229

>  <PUBCHEM_SHAPE_MULTIPOLES>  (1) 
410.47
15.43
2.16
0.86
8.33
0.1
-0.12
2.01
1.68
-0.61
0.11
0.02
-0.1
1.22

>  <PUBCHEM_SHAPE_SELFOVERLAP>  (1) 
844.642

>  <PUBCHEM_SHAPE_VOLUME>  (1) 
237.2

>  <PUBCHEM_COORDINATE_TYPE>  (1) 
2
5
10

$$$$
