35900
     RDKit          3D

 21 22  0  0  1  0  0  0  0  0999 V2000
    0.6816    0.8552   -0.7043 O   0  0  0  0  0  0  0  0  0  0  0  0
   -1.0747    0.4327   -2.1070 O   0  0  0  0  0  0  0  0  0  0  0  0
    3.4696    0.1678    0.0215 N   0  0  0  0  0  0  0  0  0  0  0  0
   -1.3177    0.4334    0.2214 N   0  0  0  0  0  0  0  0  0  0  0  0
    1.6416    0.3906   -1.6517 C   0  0  0  0  0  0  0  0  0  0  0  0
    3.0343    0.8505   -1.2081 C   0  0  0  0  0  0  0  0  0  0  0  0
    1.5621   -1.1292   -1.7782 C   0  0  0  0  0  0  0  0  0  0  0  0
    2.0915   -1.8110   -0.5195 C   0  0  0  0  0  0  0  0  0  0  0  0
    3.4808   -1.2905   -0.1508 C   0  0  0  0  0  0  0  0  0  0  0  0
    4.7897    0.6456    0.4323 C   0  0  0  0  0  0  0  0  0  0  0  0
    5.1820    0.0309    1.7735 C   0  0  0  0  0  0  0  0  0  0  0  0
    6.5433    0.5289    2.2338 C   0  0  0  0  0  0  0  0  0  0  0  0
   -0.6323    0.5578   -0.9715 C   0  0  0  0  0  0  0  0  0  0  0  0
   -2.6860    0.1345    0.4120 C   0  0  0  0  0  0  0  0  0  0  0  0
   -3.6087    1.1692    0.4768 C   0  0  0  0  0  0  0  0  0  0  0  0
   -3.0859   -1.1888    0.5321 C   0  0  0  0  0  0  0  0  0  0  0  0
   -4.9590    0.8743    0.6656 C   0  0  0  0  0  0  0  0  0  0  0  0
   -4.4362   -1.4838    0.7206 C   0  0  0  0  0  0  0  0  0  0  0  0
   -3.1966    2.6001    0.3496 C   0  0  0  0  0  0  0  0  0  0  0  0
   -2.1068   -2.3160    0.4644 C   0  0  0  0  0  0  0  0  0  0  0  0
   -5.3727   -0.4522    0.7874 C   0  0  0  0  0  0  0  0  0  0  0  0
  1  5  1  0
  1 13  1  0
  2 13  2  0
  3  6  1  0
  3  9  1  0
  3 10  1  0
  4 13  1  0
  4 14  1  0
  5  6  1  0
  5  7  1  0
  7  8  1  0
  8  9  1  0
 10 11  1  0
 11 12  1  0
 14 15  2  0
 14 16  1  0
 15 17  1  0
 15 19  1  0
 16 18  2  0
 16 20  1  0
 17 21  2  0
 18 21  1  0
M  END
>  <PUBCHEM_COMPOUND_CID>  (1) 
35900

>  <PUBCHEM_CONFORMER_RMSD>  (1) 
0.8

>  <PUBCHEM_CONFORMER_DIVERSEORDER>  (1) 
2
13
77
19
93
89
21
17
11
39
61
103
15
42
66
41
101
37
104
35
36
29
50
80
58
102
49
27
10
91
78
33
97
96
73
34
3
94
92
81
100
54
69
71
9
90
105
28
62
84
60
59
52
95
40
63
82
51
70
64
83
48
43
76
20
7
75
22
68
18
30
106
25
57
99
16
23
38
53
65
86
6
85
12
45
44
14
1
98
87
4
31
24
26
5
67
47
55
72
88
8
56
74
46
79
32

>  <PUBCHEM_MMFF94_PARTIAL_CHARGES>  (1) 
21
1 -0.43
10 0.27
13 0.78
14 0.12
15 -0.14
16 -0.14
17 -0.15
18 -0.15
19 0.14
2 -0.57
20 0.14
21 -0.15
3 -0.81
38 0.37
39 0.15
4 -0.55
40 0.15
47 0.15
5 0.28
6 0.27
9 0.27

>  <PUBCHEM_EFFECTIVE_ROTOR_COUNT>  (1) 
7.2

>  <PUBCHEM_PHARMACOPHORE_FEATURES>  (1) 
6
1 12 hydrophobe
1 2 acceptor
1 3 cation
1 4 donor
6 14 15 16 17 18 21 rings
6 3 5 6 7 8 9 rings

>  <PUBCHEM_HEAVY_ATOM_COUNT>  (1) 
21

>  <PUBCHEM_ATOM_DEF_STEREO_COUNT>  (1) 
0

>  <PUBCHEM_ATOM_UDEF_STEREO_COUNT>  (1) 
1

>  <PUBCHEM_BOND_DEF_STEREO_COUNT>  (1) 
0

>  <PUBCHEM_BOND_UDEF_STEREO_COUNT>  (1) 
0

>  <PUBCHEM_ISOTOPIC_ATOM_COUNT>  (1) 
0

>  <PUBCHEM_COMPONENT_COUNT>  (1) 
1

>  <PUBCHEM_CACTVS_TAUTO_COUNT>  (1) 
2

>  <PUBCHEM_CONFORMER_ID>  (1) 
00008C3C00000002

>  <PUBCHEM_MMFF94_ENERGY>  (1) 
62.6408

>  <PUBCHEM_FEATURE_SELFOVERLAP>  (1) 
30.446

>  <PUBCHEM_SHAPE_FINGERPRINT>  (1) 
10 15 18130499821400551112
10319926 262 18339079277254553370
11045977 3 18273217495605656282
11370993 70 18412551981127551255
12107183 9 17757276976724431033
12236239 1 17530689835853544825
12403259 118 18343299284080602468
12507560 40 18131076982693716988
12633257 1 18113899381684991664
12760667 363 15791724183586576824
12892183 10 18271810068644321397
13533116 47 18129673971708400655
13583140 156 18201993313938118613
14178342 30 18188491259635548852
14341114 328 18260267464965442088
15183329 4 8574441936794929760
15188451 53 18114456851107344579
15375358 24 18272379667502632911
15788980 27 16298104289317373799
17349148 13 17313112959672995755
1813 80 16588035597061979671
193927 3 14779548925174145168
19784866 240 13984659226908287474
204376 136 15985107396738957021
20645477 70 14273742880018052484
21033648 29 17632301142098462249
21065199 12 18271250412941248623
21859007 373 17532079515461803045
23503953 91 18334018297771493332
23557571 272 18269851855773500540
23559900 14 18127152804324914935
2838139 119 14692565533951172136
339767 52 17894907447336288963
351380 3 16515397465727977936
44062 13 11386375854232976369
463206 1 16081090410962758106
474 4 14261635019028003765
4990 188 8430312416096657030
5104073 3 18199196100527542707
559249 180 17022893537243703977
573450 72 18186807980527280721
633830 44 14476416884731344005
67856867 119 18042978755221061053
7064713 232 18335422357030101242
76465 3 16588016918713179036
7808743 9 15841542003337364034
9709674 26 18267326316604586567

>  <PUBCHEM_SHAPE_MULTIPOLES>  (1) 
410.47
13.28
1.96
1.75
7.9
0.15
0.19
-2.54
-9.38
-1.58
-0.16
2.34
-0.1
1.17

>  <PUBCHEM_SHAPE_SELFOVERLAP>  (1) 
841.171

>  <PUBCHEM_SHAPE_VOLUME>  (1) 
237.1

>  <PUBCHEM_COORDINATE_TYPE>  (1) 
2
5
10

$$$$
