35926
     RDKit          3D

 21 23  0  0  1  0  0  0  0  0999 V2000
    0.4334   -1.4590    1.3553 S   0  0  0  0  0  0  0  0  0  0  0  0
    1.4999    1.0199   -2.2453 O   0  0  0  0  0  0  0  0  0  0  0  0
   -4.4926   -1.2527   -0.1619 N   0  0  0  0  0  0  0  0  0  0  0  0
   -0.7580   -0.6634    0.2195 C   0  0  0  0  0  0  0  0  0  0  0  0
   -2.1457   -1.2457    0.5075 C   0  0  0  0  0  0  0  0  0  0  0  0
   -0.6397    0.8355    0.3558 C   0  0  0  0  0  0  0  0  0  0  0  0
   -3.1792   -0.6983   -0.4673 C   0  0  0  0  0  0  0  0  0  0  0  0
    0.4418    1.4941   -0.2456 C   0  0  0  0  0  0  0  0  0  0  0  0
    2.0221   -1.1544    0.5794 C   0  0  0  0  0  0  0  0  0  0  0  0
    2.3428   -0.2360   -0.4367 C   0  0  0  0  0  0  0  0  0  0  0  0
   -1.5466    1.6133    1.0921 C   0  0  0  0  0  0  0  0  0  0  0  0
    1.4201    0.7518   -1.0503 C   0  0  0  0  0  0  0  0  0  0  0  0
    0.5995    2.8820   -0.1563 C   0  0  0  0  0  0  0  0  0  0  0  0
   -1.3879    2.9988    1.1974 C   0  0  0  0  0  0  0  0  0  0  0  0
   -0.3184    3.6326    0.5711 C   0  0  0  0  0  0  0  0  0  0  0  0
    3.0515   -1.9874    1.0675 C   0  0  0  0  0  0  0  0  0  0  0  0
   -4.4823   -2.7100   -0.3024 C   0  0  0  0  0  0  0  0  0  0  0  0
   -5.5146   -0.6663   -1.0309 C   0  0  0  0  0  0  0  0  0  0  0  0
    3.6549   -0.1930   -0.9501 C   0  0  0  0  0  0  0  0  0  0  0  0
    4.3491   -1.9288    0.5576 C   0  0  0  0  0  0  0  0  0  0  0  0
    4.6501   -1.0330   -0.4564 C   0  0  0  0  0  0  0  0  0  0  0  0
  1  4  1  0
  1  9  1  0
  2 12  2  0
  3  7  1  0
  3 17  1  0
  3 18  1  0
  4  5  1  0
  4  6  1  0
  5  7  1  0
  6  8  2  0
  6 11  1  0
  8 12  1  0
  8 13  1  0
  9 10  2  0
  9 16  1  0
 10 12  1  0
 10 19  1  0
 11 14  2  0
 13 15  2  0
 14 15  1  0
 16 20  2  0
 19 21  2  0
 20 21  1  0
M  END
>  <PUBCHEM_COMPOUND_CID>  (1) 
35926

>  <PUBCHEM_CONFORMER_RMSD>  (1) 
0.6

>  <PUBCHEM_CONFORMER_DIVERSEORDER>  (1) 
1
12
10
8
26
22
11
16
7
25
13
19
3
2
21
17
24
5
14
23
20
4
9
15
18
6

>  <PUBCHEM_MMFF94_PARTIAL_CHARGES>  (1) 
28
1 -0.33
10 0.09
11 -0.15
12 0.4
13 -0.15
14 -0.15
15 -0.15
16 -0.15
17 0.27
18 0.27
19 -0.15
2 -0.57
20 -0.15
21 -0.15
27 0.15
28 0.15
29 0.15
3 -0.81
30 0.15
31 0.15
38 0.15
39 0.15
4 0.37
40 0.15
6 -0.14
7 0.27
8 0.09
9 0.1

>  <PUBCHEM_EFFECTIVE_ROTOR_COUNT>  (1) 
3.4

>  <PUBCHEM_PHARMACOPHORE_FEATURES>  (1) 
5
1 2 acceptor
1 3 cation
6 6 8 11 13 14 15 rings
6 9 10 16 19 20 21 rings
7 1 4 6 8 9 10 12 rings

>  <PUBCHEM_HEAVY_ATOM_COUNT>  (1) 
21

>  <PUBCHEM_ATOM_DEF_STEREO_COUNT>  (1) 
0

>  <PUBCHEM_ATOM_UDEF_STEREO_COUNT>  (1) 
1

>  <PUBCHEM_BOND_DEF_STEREO_COUNT>  (1) 
0

>  <PUBCHEM_BOND_UDEF_STEREO_COUNT>  (1) 
0

>  <PUBCHEM_ISOTOPIC_ATOM_COUNT>  (1) 
0

>  <PUBCHEM_COMPONENT_COUNT>  (1) 
1

>  <PUBCHEM_CACTVS_TAUTO_COUNT>  (1) 
1

>  <PUBCHEM_CONFORMER_ID>  (1) 
00008C5600000001

>  <PUBCHEM_MMFF94_ENERGY>  (1) 
77.5191

>  <PUBCHEM_FEATURE_SELFOVERLAP>  (1) 
25.385

>  <PUBCHEM_SHAPE_FINGERPRINT>  (1) 
1100329 8 18340210687599643033
11045515 52 18260545610989102973
11265709 11 18412829083711061889
11578080 2 18187348914389452092
12035759 4 18043243548676012923
12293681 160 17976849766988519972
12553582 1 18340225049526902587
12730499 353 17689723386752929723
12788726 201 18340215106518979810
13004483 165 18341317929814766154
13134695 92 18340197600533020509
13583140 156 17057779851714449114
14251757 17 17096066001322432775
14464042 87 18410295766176727979
14787075 74 18337679740807900876
1813 80 18060142063253377231
18222031 100 18059568122589623183
200 152 18333452027718960626
20369508 70 18268144434806919039
20600515 1 17917720131695199947
20626108 58 17559665334283797847
20775438 99 17475490142871942367
20832881 197 18407758149411954539
21029758 11 18409448111056714466
21250096 35 18411132550191618423
22112679 90 18269296606691237737
221357 26 18334565872538645231
221490 88 18047756185279194723
23402539 116 18342455902705840375
23419403 2 18120059945209249124
23557571 272 17988083279356423371
23559900 14 18338792437277971696
266924 78 16664065795425562396
463206 1 18337670918428694759
7164475 11 18266176132694020274
7471813 234 18341045297953847309
7970288 3 18343020012396267599

>  <PUBCHEM_SHAPE_MULTIPOLES>  (1) 
425.17
8.51
3.59
1.33
4.67
3.06
0.23
-8.61
2.37
1.55
-1.03
-0.34
0.2
-1.49

>  <PUBCHEM_SHAPE_SELFOVERLAP>  (1) 
901.618

>  <PUBCHEM_SHAPE_VOLUME>  (1) 
238.4

>  <PUBCHEM_COORDINATE_TYPE>  (1) 
2
5
10

$$$$
