3592
     RDKit          3D

 27 31  0  0  1  0  0  0  0  0999 V2000
   -0.9129    1.0540   -1.2419 O   0  0  0  0  0  0  0  0  0  0  0  0
    1.0848    3.3384    0.1916 O   0  0  0  0  0  0  0  0  0  0  0  0
   -3.6868    0.2014   -0.9130 O   0  0  0  0  0  0  0  0  0  0  0  0
    3.1259    2.2823   -0.0432 O   0  0  0  0  0  0  0  0  0  0  0  0
   -4.4280    0.5181    1.2846 O   0  0  0  0  0  0  0  0  0  0  0  0
    2.6892   -2.6047   -0.4439 N   0  0  0  0  0  0  0  0  0  0  0  0
    1.0126   -0.2356   -0.5591 C   0  0  0  0  0  0  0  0  0  0  0  0
    2.0661   -0.4518    0.5328 C   0  0  0  0  0  0  0  0  0  0  0  0
    2.1366   -1.9919    0.7892 C   0  0  0  0  0  0  0  0  0  0  0  0
    0.4843    1.1962   -0.7770 C   0  0  0  0  0  0  0  0  0  0  0  0
    1.5112   -0.9065   -1.8571 C   0  0  0  0  0  0  0  0  0  0  0  0
   -0.2824   -0.8503   -0.1539 C   0  0  0  0  0  0  0  0  0  0  0  0
    0.7690   -2.5866    1.2759 C   0  0  0  0  0  0  0  0  0  0  0  0
    1.8761   -2.3873   -1.6455 C   0  0  0  0  0  0  0  0  0  0  0  0
   -0.4459   -1.9694    0.6383 C   0  0  0  0  0  0  0  0  0  0  0  0
    0.4654    2.0862    0.4961 C   0  0  0  0  0  0  0  0  0  0  0  0
    1.8210    0.3816    1.7583 C   0  0  0  0  0  0  0  0  0  0  0  0
   -1.3375   -0.1038   -0.6349 C   0  0  0  0  0  0  0  0  0  0  0  0
    1.1202    1.5225    1.7255 C   0  0  0  0  0  0  0  0  0  0  0  0
    3.0415   -4.0119   -0.2870 C   0  0  0  0  0  0  0  0  0  0  0  0
   -1.7556   -2.3917    0.8675 C   0  0  0  0  0  0  0  0  0  0  0  0
   -2.6370   -0.5099   -0.4352 C   0  0  0  0  0  0  0  0  0  0  0  0
   -2.8406   -1.6756    0.3172 C   0  0  0  0  0  0  0  0  0  0  0  0
    2.4245    3.2848   -0.0574 C   0  0  0  0  0  0  0  0  0  0  0  0
    2.9341    4.6613   -0.3599 C   0  0  0  0  0  0  0  0  0  0  0  0
   -4.5560    0.6900    0.0797 C   0  0  0  0  0  0  0  0  0  0  0  0
   -5.6799    1.4600   -0.5477 C   0  0  0  0  0  0  0  0  0  0  0  0
  1 10  1  0
  1 18  1  0
  2 16  1  0
  2 24  1  0
  3 22  1  0
  3 26  1  0
  4 24  2  0
  5 26  2  0
  6  9  1  0
  6 14  1  0
  6 20  1  0
  7  8  1  0
  7 10  1  0
  7 11  1  0
  7 12  1  0
  8  9  1  0
  8 17  1  0
  9 13  1  0
 10 16  1  0
 11 14  1  0
 12 15  2  0
 12 18  1  0
 13 15  1  0
 15 21  1  0
 16 19  1  0
 17 19  2  0
 18 22  2  0
 21 23  2  0
 22 23  1  0
 24 25  1  0
 26 27  1  0
M  END
>  <PUBCHEM_COMPOUND_CID>  (1) 
3592

>  <PUBCHEM_CONFORMER_RMSD>  (1) 
0.8

>  <PUBCHEM_CONFORMER_DIVERSEORDER>  (1) 
4
50
28
57
26
90
61
103
68
18
37
119
76
111
14
127
104
113
10
3
108
64
20
51
100
88
54
112
27
78
83
114
102
74
19
32
79
129
109
33
59
101
60
29
21
84
11
81
124
107
120
40
97
70
2
75
56
94
15
86
126
52
73
72
42
17
89
121
87
98
122
30
110
44
82
96
128
71
69
80
8
12
55
93
85
53
131
23
116
99
25
66
41
105
7
16
49
91
92
38
62
115
63
117
9
118
24
48
35
43
77
34
65
39
13
46
22
58
31
125
6
5
95
1
123
45
130
106
47
36
67

>  <PUBCHEM_MMFF94_PARTIAL_CHARGES>  (1) 
30
1 -0.36
10 0.28
12 -0.14
13 0.14
14 0.27
15 -0.14
16 0.42
17 -0.29
18 0.08
19 -0.29
2 -0.43
20 0.27
21 -0.15
22 0.08
23 -0.15
24 0.66
25 0.06
26 0.66
27 0.06
3 -0.23
38 0.15
39 0.15
4 -0.57
43 0.15
44 0.15
5 -0.57
6 -0.81
7 0.14
8 0.14
9 0.27

>  <PUBCHEM_EFFECTIVE_ROTOR_COUNT>  (1) 
5.2

>  <PUBCHEM_PHARMACOPHORE_FEATURES>  (1) 
9
1 1 acceptor
1 4 acceptor
1 5 acceptor
1 6 cation
5 1 7 10 12 18 rings
6 12 15 18 21 22 23 rings
6 6 7 8 9 11 14 rings
6 7 8 10 16 17 19 rings
6 7 8 9 12 13 15 rings

>  <PUBCHEM_HEAVY_ATOM_COUNT>  (1) 
27

>  <PUBCHEM_ATOM_DEF_STEREO_COUNT>  (1) 
0

>  <PUBCHEM_ATOM_UDEF_STEREO_COUNT>  (1) 
5

>  <PUBCHEM_BOND_DEF_STEREO_COUNT>  (1) 
0

>  <PUBCHEM_BOND_UDEF_STEREO_COUNT>  (1) 
0

>  <PUBCHEM_ISOTOPIC_ATOM_COUNT>  (1) 
0

>  <PUBCHEM_COMPONENT_COUNT>  (1) 
1

>  <PUBCHEM_CACTVS_TAUTO_COUNT>  (1) 
1

>  <PUBCHEM_CONFORMER_ID>  (1) 
00000E0800000004

>  <PUBCHEM_MMFF94_ENERGY>  (1) 
93.0662

>  <PUBCHEM_FEATURE_SELFOVERLAP>  (1) 
47.783

>  <PUBCHEM_SHAPE_FINGERPRINT>  (1) 
10411042 1 18050565140634258895
104564 63 17761776157036162523
10863032 1 17971465458372558432
10948715 1 18121217851090743584
11578080 2 18120685614701527617
12166972 35 18129373801392834049
12173636 292 17618215547811594852
12293681 160 18045247997477034558
12422481 6 18117533293511859048
12633257 1 18115844417327344521
12788726 201 17832441808066450374
13134695 92 18130214952771792303
13140716 1 18187640353721119067
13464514 151 18339370763256659956
13681431 1 18130801022655727798
13965767 371 17749939051217412261
14022347 108 18192993707895679746
14178342 30 17825393135541767927
14223421 5 18192717958669420275
14790565 3 18121217842580755208
14955137 171 18194136118390050635
15042514 8 16751847758887506294
15081414 286 18339081479965978377
15131766 46 16052890103160883154
15163728 17 18046081611404913212
15230672 131 18047196530362593268
15475509 8 17626689114775474463
16945 1 18116967014515125202
1813 80 17985552147649447358
19591789 44 17977381960712042222
20600515 1 18055921999933967766
20691752 17 17603577539474294783
21756936 100 17691117558427538612
21860390 5 18270951380217366485
23419403 2 17172601996789294334
23559900 14 18412823581646939575
2748010 2 17906139916180503532
283562 15 17614848413721476466
3729539 64 18123499282659427308
474 4 18339349864526150233
5265222 85 17615984635400277932
5895379 119 16557360223981356625
6086070 43 17976803313128512293
7364860 26 18410855486040559486
81228 2 17624996940447376042
9981440 41 18051404364616991153

>  <PUBCHEM_SHAPE_MULTIPOLES>  (1) 
521.32
6.75
4.86
1.44
11.69
2.59
-0.05
2.37
0.46
-6.52
0.13
-0.44
-0.33
0.68

>  <PUBCHEM_SHAPE_SELFOVERLAP>  (1) 
1163.408

>  <PUBCHEM_SHAPE_VOLUME>  (1) 
271.9

>  <PUBCHEM_COORDINATE_TYPE>  (1) 
2
5
10

$$$$
