35934
     RDKit          3D

 36 41  0  0  1  0  0  0  0  0999 V2000
   -2.2826   -0.6599   -1.0675 F   0  0  0  0  0  0  0  0  0  0  0  0
    2.0767   -0.2472   -0.5795 O   0  0  0  0  0  0  0  0  0  0  0  0
    2.7022   -1.4892    1.3033 O   0  0  0  0  0  0  0  0  0  0  0  0
   -2.1684    2.7844   -0.0339 O   0  0  0  0  0  0  0  0  0  0  0  0
    3.6316    1.8026    1.4261 O   0  0  0  0  0  0  0  0  0  0  0  0
    3.9645    3.1663   -0.9466 O   0  0  0  0  0  0  0  0  0  0  0  0
   -7.3663   -1.6394   -1.7059 O   0  0  0  0  0  0  0  0  0  0  0  0
    0.3150    1.0289    0.5965 C   0  0  0  0  0  0  0  0  0  0  0  0
   -0.3686   -0.3019    0.9824 C   0  0  0  0  0  0  0  0  0  0  0  0
   -1.8838   -0.1684    1.1892 C   0  0  0  0  0  0  0  0  0  0  0  0
    1.7910    0.5601    0.5590 C   0  0  0  0  0  0  0  0  0  0  0  0
   -2.5368    0.3385   -0.1367 C   0  0  0  0  0  0  0  0  0  0  0  0
    0.4971   -0.8319    2.1280 C   0  0  0  0  0  0  0  0  0  0  0  0
    1.9262   -0.3835    1.7536 C   0  0  0  0  0  0  0  0  0  0  0  0
   -0.2823    1.4743   -0.7514 C   0  0  0  0  0  0  0  0  0  0  0  0
   -1.8228    1.5932   -0.7232 C   0  0  0  0  0  0  0  0  0  0  0  0
   -4.1139    0.4309   -0.0381 C   0  0  0  0  0  0  0  0  0  0  0  0
   -2.4856   -1.5235    1.5962 C   0  0  0  0  0  0  0  0  0  0  0  0
    0.1518    2.1393    1.6695 C   0  0  0  0  0  0  0  0  0  0  0  0
   -4.6590   -0.9050    0.4893 C   0  0  0  0  0  0  0  0  0  0  0  0
   -3.9997   -1.4534    1.7321 C   0  0  0  0  0  0  0  0  0  0  0  0
    2.7883    1.6813    0.5388 C   0  0  0  0  0  0  0  0  0  0  0  0
    2.8488   -1.3649   -0.1169 C   0  0  0  0  0  0  0  0  0  0  0  0
   -4.6815    0.7138   -1.4601 C   0  0  0  0  0  0  0  0  0  0  0  0
   -4.6147    1.5299    0.9285 C   0  0  0  0  0  0  0  0  0  0  0  0
   -6.1701    0.4320   -1.5871 C   0  0  0  0  0  0  0  0  0  0  0  0
   -5.6907   -1.5674   -0.0602 C   0  0  0  0  0  0  0  0  0  0  0  0
    2.6929    2.6425   -0.6269 C   0  0  0  0  0  0  0  0  0  0  0  0
    2.2937   -2.6329   -0.7641 C   0  0  0  0  0  0  0  0  0  0  0  0
    4.3129   -1.1882   -0.5007 C   0  0  0  0  0  0  0  0  0  0  0  0
   -6.4639   -0.9888   -1.1831 C   0  0  0  0  0  0  0  0  0  0  0  0
    4.6501   -0.4675   -1.6455 C   0  0  0  0  0  0  0  0  0  0  0  0
    5.3129   -1.7477    0.2932 C   0  0  0  0  0  0  0  0  0  0  0  0
    5.9903   -0.3060   -1.9970 C   0  0  0  0  0  0  0  0  0  0  0  0
    6.6530   -1.5861   -0.0583 C   0  0  0  0  0  0  0  0  0  0  0  0
    6.9918   -0.8653   -1.2033 C   0  0  0  0  0  0  0  0  0  0  0  0
  1 12  1  0
  2 11  1  0
  2 23  1  0
  3 14  1  0
  3 23  1  0
  4 16  1  0
  5 22  2  0
  6 28  1  0
  7 31  2  0
  8  9  1  0
  8 11  1  0
  8 15  1  0
  8 19  1  0
  9 10  1  0
  9 13  1  0
 10 12  1  0
 10 18  1  0
 11 14  1  0
 11 22  1  0
 12 16  1  0
 12 17  1  0
 13 14  1  0
 15 16  1  0
 17 20  1  0
 17 24  1  0
 17 25  1  0
 18 21  1  0
 20 21  1  0
 20 27  2  0
 22 28  1  0
 23 29  1  0
 23 30  1  0
 24 26  1  0
 26 31  1  0
 27 31  1  0
 30 32  2  0
 30 33  1  0
 32 34  1  0
 33 35  2  0
 34 36  2  0
 35 36  1  0
M  END
>  <PUBCHEM_COMPOUND_CID>  (1) 
35934

>  <PUBCHEM_CONFORMER_RMSD>  (1) 
0.8

>  <PUBCHEM_CONFORMER_DIVERSEORDER>  (1) 
3
6
7
4
5
8
1
2

>  <PUBCHEM_MMFF94_PARTIAL_CHARGES>  (1) 
34
1 -0.34
11 0.34
12 0.34
14 0.28
16 0.28
17 0.14
2 -0.56
20 -0.28
21 0.14
22 0.45
23 0.7
26 0.06
27 -0.14
28 0.34
3 -0.56
30 -0.14
31 0.49
32 -0.15
33 -0.15
34 -0.15
35 -0.15
36 -0.15
4 -0.68
5 -0.57
57 0.4
6 -0.68
60 0.15
66 0.15
67 0.15
68 0.4
69 0.15
7 -0.57
70 0.15
71 0.15

>  <PUBCHEM_EFFECTIVE_ROTOR_COUNT>  (1) 
5

>  <PUBCHEM_PHARMACOPHORE_FEATURES>  (1) 
14
1 2 acceptor
1 3 acceptor
1 4 acceptor
1 4 donor
1 5 acceptor
1 6 acceptor
1 6 donor
1 7 acceptor
5 2 3 11 14 23 rings
5 8 9 11 13 14 rings
6 10 12 17 18 20 21 rings
6 17 20 24 26 27 31 rings
6 30 32 33 34 35 36 rings
6 8 9 10 12 15 16 rings

>  <PUBCHEM_HEAVY_ATOM_COUNT>  (1) 
36

>  <PUBCHEM_ATOM_DEF_STEREO_COUNT>  (1) 
8

>  <PUBCHEM_ATOM_UDEF_STEREO_COUNT>  (1) 
1

>  <PUBCHEM_BOND_DEF_STEREO_COUNT>  (1) 
0

>  <PUBCHEM_BOND_UDEF_STEREO_COUNT>  (1) 
0

>  <PUBCHEM_ISOTOPIC_ATOM_COUNT>  (1) 
0

>  <PUBCHEM_COMPONENT_COUNT>  (1) 
1

>  <PUBCHEM_CACTVS_TAUTO_COUNT>  (1) 
15

>  <PUBCHEM_CONFORMER_ID>  (1) 
00008C5E00000003

>  <PUBCHEM_MMFF94_ENERGY>  (1) 
122.083

>  <PUBCHEM_FEATURE_SELFOVERLAP>  (1) 
71.803

>  <PUBCHEM_SHAPE_FINGERPRINT>  (1) 
10319926 262 12823029620427122011
10670039 82 16877939408568094805
10930396 42 18264186103781131328
11961588 58 16443355294975742032
12107698 1 18410012117693591844
12166972 35 17203605999403152523
12236239 1 14851605483681823634
12422481 6 11311778311584207992
12522641 33 18266457801646340780
12596602 18 15913324697830605219
12788726 201 18191301581117521097
13224815 77 18040712584894683033
13673619 4 17917990577248609681
13690498 29 18408881811693603293
13782708 43 18131914866420584903
13811026 1 18334856122244096746
14068700 675 18201718419141254632
14341114 176 13398623936135583286
14790565 3 17253998546178063100
14849402 71 13757490297899439922
15082195 135 17750246953148955748
15183329 4 17240204309518524010
15324884 4 17827370087059743416
15361156 5 18336552638099134525
17349148 13 15841555214973303681
1813 80 15985113998394185576
18608769 82 16878524418112040579
19958102 18 17604437284400330170
20028762 73 17561084709185001558
20105231 36 18113621219004500531
20511986 3 17240484728212874402
21033648 29 12108082123183813654
21033650 10 17241039904328309117
21756936 100 13551482487408107347
21792934 111 12247415505685174627
21792938 703 17346048882524307438
22393880 68 17676206904879798115
23522609 53 18124063202664170008
23559900 14 18260269676288342216
23569914 152 17687160021121205759
23576562 1 18263372558758782022
2838139 119 13190345690079349806
3004659 81 18412255134388645539
3383291 50 16415193494826939279
3633792 109 17917424311902104691
4015057 19 18409736196268000185
4066623 53 17676201360742288140
437815 12 17989204841620486897
46194498 28 18410571786508205724
484989 97 18189634881052669610
57527295 17 18338515231963113715
6608658 132 15719383998249421527
6669772 16 18263082283852776696
6823239 73 18333447655895914888

>  <PUBCHEM_SHAPE_MULTIPOLES>  (1) 
698.37
16.44
2.63
1.87
2.3
1.3
-0.14
-7.57
9.35
-1.27
-0.01
0.4
-0.22
0.17

>  <PUBCHEM_SHAPE_SELFOVERLAP>  (1) 
1544.368

>  <PUBCHEM_SHAPE_VOLUME>  (1) 
375.7

>  <PUBCHEM_COORDINATE_TYPE>  (1) 
2
5
10

$$$$
