35942
     RDKit          3D

 25 27  0  0  1  0  0  0  0  0999 V2000
    0.6106   -0.5716    0.2555 O   0  0  0  0  0  0  0  0  0  0  0  0
   -0.7675    1.0113    1.8066 O   0  0  0  0  0  0  0  0  0  0  0  0
    0.4971    1.4276   -0.8799 O   0  0  0  0  0  0  0  0  0  0  0  0
   -0.7644   -3.2017    0.2267 N   0  0  0  0  0  0  0  0  0  0  0  0
    6.7520    0.6639    0.2728 N   0  0  0  0  0  0  0  0  0  0  0  0
   -0.8029   -0.7155    0.1707 C   0  0  0  0  0  0  0  0  0  0  0  0
   -1.2534   -0.7465   -1.2903 C   0  0  0  0  0  0  0  0  0  0  0  0
   -1.2210   -1.9865    0.9220 C   0  0  0  0  0  0  0  0  0  0  0  0
   -0.8332   -2.0525   -1.9596 C   0  0  0  0  0  0  0  0  0  0  0  0
   -1.2876   -3.2630   -1.1441 C   0  0  0  0  0  0  0  0  0  0  0  0
   -1.3715    0.4817    0.8766 C   0  0  0  0  0  0  0  0  0  0  0  0
   -1.1503   -4.3969    0.9769 C   0  0  0  0  0  0  0  0  0  0  0  0
   -2.6862    1.0266    0.4346 C   0  0  0  0  0  0  0  0  0  0  0  0
    1.1292    0.5498   -0.3131 C   0  0  0  0  0  0  0  0  0  0  0  0
   -3.8342    0.5399    1.0194 C   0  0  0  0  0  0  0  0  0  0  0  0
   -2.7052    1.9975   -0.5421 C   0  0  0  0  0  0  0  0  0  0  0  0
    2.6056    0.5798   -0.1587 C   0  0  0  0  0  0  0  0  0  0  0  0
   -5.0647    1.0501    0.6060 C   0  0  0  0  0  0  0  0  0  0  0  0
   -3.9359    2.5078   -0.9554 C   0  0  0  0  0  0  0  0  0  0  0  0
   -5.1156    2.0340   -0.3813 C   0  0  0  0  0  0  0  0  0  0  0  0
    3.2427    1.8008   -0.0748 C   0  0  0  0  0  0  0  0  0  0  0  0
    3.2949   -0.6144   -0.1046 C   0  0  0  0  0  0  0  0  0  0  0  0
    4.6298    1.8289    0.0695 C   0  0  0  0  0  0  0  0  0  0  0  0
    4.6820   -0.5864    0.0397 C   0  0  0  0  0  0  0  0  0  0  0  0
    5.3495    0.6353    0.1269 C   0  0  0  0  0  0  0  0  0  0  0  0
  1  6  1  0
  1 14  1  0
  2 11  2  0
  3 14  2  0
  4  8  1  0
  4 10  1  0
  4 12  1  0
  5 25  1  0
  6  7  1  0
  6  8  1  0
  6 11  1  0
  7  9  1  0
  9 10  1  0
 11 13  1  0
 13 15  2  0
 13 16  1  0
 14 17  1  0
 15 18  1  0
 16 19  2  0
 17 21  2  0
 17 22  1  0
 18 20  2  0
 19 20  1  0
 21 23  1  0
 22 24  2  0
 23 25  2  0
 24 25  1  0
M  END
>  <PUBCHEM_COMPOUND_CID>  (1) 
35942

>  <PUBCHEM_CONFORMER_RMSD>  (1) 
0.8

>  <PUBCHEM_CONFORMER_DIVERSEORDER>  (1) 
8
77
92
124
108
105
135
115
112
68
46
10
34
123
26
134
35
55
133
64
137
138
40
86
44
67
132
102
65
89
33
54
75
39
141
110
106
117
78
130
30
99
32
24
76
73
7
84
74
70
72
97
139
63
20
66
82
131
6
136
140
56
96
107
61
111
85
42
126
128
103
49
16
120
80
79
28
60
27
58
11
122
119
14
69
125
38
94
121
41
29
93
9
83
50
98
36
114
104
88
12
52
90
127
45
118
116
13
48
47
113
1
25
18
22
91
57
15
5
51
87
71
23
2
62
101
95
21
59
129
37
17
31
109
3
43
4
81
19
53
100

>  <PUBCHEM_MMFF94_PARTIAL_CHARGES>  (1) 
34
1 -0.43
10 0.27
11 0.42
12 0.27
13 0.09
14 0.63
15 -0.15
16 -0.15
17 0.09
18 -0.15
19 -0.15
2 -0.57
20 -0.15
21 -0.15
22 -0.15
23 -0.15
24 -0.15
25 0.1
3 -0.57
37 0.15
38 0.15
39 0.15
4 -0.81
40 0.15
41 0.15
42 0.15
43 0.15
44 0.15
45 0.15
46 0.4
47 0.4
5 -0.9
6 0.34
8 0.27

>  <PUBCHEM_EFFECTIVE_ROTOR_COUNT>  (1) 
6.2

>  <PUBCHEM_PHARMACOPHORE_FEATURES>  (1) 
8
1 2 acceptor
1 3 acceptor
1 4 cation
1 5 cation
1 5 donor
6 13 15 16 18 19 20 rings
6 17 21 22 23 24 25 rings
6 4 6 7 8 9 10 rings

>  <PUBCHEM_HEAVY_ATOM_COUNT>  (1) 
25

>  <PUBCHEM_ATOM_DEF_STEREO_COUNT>  (1) 
0

>  <PUBCHEM_ATOM_UDEF_STEREO_COUNT>  (1) 
1

>  <PUBCHEM_BOND_DEF_STEREO_COUNT>  (1) 
0

>  <PUBCHEM_BOND_UDEF_STEREO_COUNT>  (1) 
0

>  <PUBCHEM_ISOTOPIC_ATOM_COUNT>  (1) 
0

>  <PUBCHEM_COMPONENT_COUNT>  (1) 
1

>  <PUBCHEM_CACTVS_TAUTO_COUNT>  (1) 
2

>  <PUBCHEM_CONFORMER_ID>  (1) 
00008C6600000008

>  <PUBCHEM_MMFF94_ENERGY>  (1) 
91.3726

>  <PUBCHEM_FEATURE_SELFOVERLAP>  (1) 
40.597

>  <PUBCHEM_SHAPE_FINGERPRINT>  (1) 
10366900 7 16630527324146247008
10764073 3 16375207353389644023
107951 10 18409453583046191670
10906281 52 17560539355670218016
11370993 70 18410294674917482977
12160290 23 17982201047014941239
12293681 160 17774999038406366937
12500047 106 18412542137199366656
12592029 89 18265053527048043587
12788726 201 18195510709334715011
12969540 114 18263066769582026013
13004483 165 17835801167975930643
13052359 8 18410858806256228355
13149001 5 17632002169709681825
13257819 101 17532641352944445341
133893 2 17767138501093777499
13533116 47 17274260531453849814
13583140 156 18260839210352496576
14178342 30 18118397574059293546
15042514 8 18191033511145295243
15131766 46 15432030096047515404
15849732 13 18186804668764734436
15927050 60 18409448059660590450
1813 80 10737579262914313497
19141452 34 18334857238608623916
200 152 9007055760137230068
20197701 30 18411698742924144703
20602899 9 15554449612703289710
21033648 29 18339068328866789432
21033650 10 16127280834696640656
21236236 1 18343020038671589647
21521721 280 18272655658302193537
21524375 3 18342459201546418925
22224240 67 18341621412947479729
22950370 63 8790592715485736177
2297311 6 8718828712748579904
23227448 37 18338238270649007500
23402539 116 17060338487648437409
23419403 2 12523065260457686121
23558518 356 17827078712536849200
23559900 14 17846495955161367512
23598288 3 18126008397541286542
34934 24 18407757024161970032
3633792 109 18127691526499934408
3759504 43 18409449193625947179
38695281 34 18339358544575641855
394222 165 18126001555922251491
4015057 19 17131823322270272624
404807 14 14829693089082594718
4073 2 18337670936620329218
5104073 3 18266167513470014040
532947 4 18122911932189999838
5385378 56 18192721038144861681
53917941 68 18341034298521529172
559249 180 18413385441412150558
59755656 520 18335696139572652990
6138700 20 17979360759509761126
633830 44 17773331032132990481
6669772 16 18270685259828581542
69090 78 18411702088397817081
77188 2 17399521616006494507
81228 2 17909247415677722611

>  <PUBCHEM_SHAPE_MULTIPOLES>  (1) 
486.92
10.87
3.78
1.26
12.07
4.86
0.18
-9.26
-0.89
-3.11
0.14
-0.92
0.5
0.31

>  <PUBCHEM_SHAPE_SELFOVERLAP>  (1) 
1056.363

>  <PUBCHEM_SHAPE_VOLUME>  (1) 
264.7

>  <PUBCHEM_COORDINATE_TYPE>  (1) 
2
5
10

$$$$
