35949
     RDKit          3D

 28 30  0  0  0  0  0  0  0  0999 V2000
    7.3074   -3.1253    0.2405 Cl  0  0  0  0  0  0  0  0  0  0  0  0
   -7.2951   -2.2207   -0.8373 O   0  0  0  0  0  0  0  0  0  0  0  0
   -1.9870    0.8732    0.9504 O   0  0  0  0  0  0  0  0  0  0  0  0
   -1.1076    3.1122   -0.4235 O   0  0  0  0  0  0  0  0  0  0  0  0
   -0.2227   -1.1981    1.4683 O   0  0  0  0  0  0  0  0  0  0  0  0
    3.7336    2.2110   -1.3897 O   0  0  0  0  0  0  0  0  0  0  0  0
   -5.2826   -0.3135   -0.1936 N   0  0  0  0  0  0  0  0  0  0  0  0
   -6.6258   -0.2429    0.3983 C   0  0  0  0  0  0  0  0  0  0  0  0
   -4.9462   -1.7078   -0.5134 C   0  0  0  0  0  0  0  0  0  0  0  0
   -4.2879    0.2671    0.7059 C   0  0  0  0  0  0  0  0  0  0  0  0
   -7.6444   -0.8657   -0.5521 C   0  0  0  0  0  0  0  0  0  0  0  0
   -6.0040   -2.2953   -1.4431 C   0  0  0  0  0  0  0  0  0  0  0  0
   -2.9168    0.2865    0.0492 C   0  0  0  0  0  0  0  0  0  0  0  0
   -0.6856    0.9557    0.5286 C   0  0  0  0  0  0  0  0  0  0  0  0
   -0.2532    2.0838   -0.1614 C   0  0  0  0  0  0  0  0  0  0  0  0
    0.1931   -0.0900    0.7935 C   0  0  0  0  0  0  0  0  0  0  0  0
    1.9567    1.1217   -0.3280 C   0  0  0  0  0  0  0  0  0  0  0  0
    1.0713    2.1670   -0.5910 C   0  0  0  0  0  0  0  0  0  0  0  0
    1.5176   -0.0069    0.3642 C   0  0  0  0  0  0  0  0  0  0  0  0
    3.3380    1.2098   -0.7742 C   0  0  0  0  0  0  0  0  0  0  0  0
    4.3325    0.1237   -0.5205 C   0  0  0  0  0  0  0  0  0  0  0  0
    5.0739    0.1689    0.6371 C   0  0  0  0  0  0  0  0  0  0  0  0
    4.4660   -0.8773   -1.4541 C   0  0  0  0  0  0  0  0  0  0  0  0
   -1.1909    4.1499    0.5513 C   0  0  0  0  0  0  0  0  0  0  0  0
   -0.0989   -1.1763    2.8889 C   0  0  0  0  0  0  0  0  0  0  0  0
    6.0021   -0.8450    0.8745 C   0  0  0  0  0  0  0  0  0  0  0  0
    5.3941   -1.8911   -1.2165 C   0  0  0  0  0  0  0  0  0  0  0  0
    6.1622   -1.8749   -0.0523 C   0  0  0  0  0  0  0  0  0  0  0  0
  1 28  1  0
  2 11  1  0
  2 12  1  0
  3 13  1  0
  3 14  1  0
  4 15  1  0
  4 24  1  0
  5 16  1  0
  5 25  1  0
  6 20  2  0
  7  8  1  0
  7  9  1  0
  7 10  1  0
  8 11  1  0
  9 12  1  0
 10 13  1  0
 14 15  2  0
 14 16  1  0
 15 18  1  0
 16 19  2  0
 17 18  2  0
 17 19  1  0
 17 20  1  0
 20 21  1  0
 21 22  2  0
 21 23  1  0
 22 26  1  0
 23 27  2  0
 26 28  2  0
 27 28  1  0
M  END
>  <PUBCHEM_COMPOUND_CID>  (1) 
35949

>  <PUBCHEM_CONFORMER_RMSD>  (1) 
1

>  <PUBCHEM_CONFORMER_DIVERSEORDER>  (1) 
1
44
7
21
51
54
49
22
42
45
33
25
18
35
43
52
15
24
47
8
40
31
23
10
41
17
5
50
32
4
13
26
20
28
34
19
37
55
29
39
27
16
14
46
36
53
11
2
9
38
30
12
3
6
56
48

>  <PUBCHEM_MMFF94_PARTIAL_CHARGES>  (1) 
34
1 -0.18
10 0.27
11 0.28
12 0.28
13 0.28
14 0.08
15 0.08
16 0.08
17 0.09
18 -0.15
19 -0.15
2 -0.56
20 0.4
21 0.09
22 -0.15
23 -0.15
24 0.28
25 0.28
26 -0.15
27 -0.15
28 0.18
3 -0.36
4 -0.36
41 0.15
42 0.15
43 0.15
44 0.15
5 -0.36
51 0.15
52 0.15
6 -0.57
7 -0.81
8 0.27
9 0.27

>  <PUBCHEM_EFFECTIVE_ROTOR_COUNT>  (1) 
9.2

>  <PUBCHEM_PHARMACOPHORE_FEATURES>  (1) 
9
1 2 acceptor
1 3 acceptor
1 4 acceptor
1 5 acceptor
1 6 acceptor
1 7 cation
6 14 15 16 17 18 19 rings
6 2 7 8 9 11 12 rings
6 21 22 23 26 27 28 rings

>  <PUBCHEM_HEAVY_ATOM_COUNT>  (1) 
28

>  <PUBCHEM_ATOM_DEF_STEREO_COUNT>  (1) 
0

>  <PUBCHEM_ATOM_UDEF_STEREO_COUNT>  (1) 
0

>  <PUBCHEM_BOND_DEF_STEREO_COUNT>  (1) 
0

>  <PUBCHEM_BOND_UDEF_STEREO_COUNT>  (1) 
0

>  <PUBCHEM_ISOTOPIC_ATOM_COUNT>  (1) 
0

>  <PUBCHEM_COMPONENT_COUNT>  (1) 
1

>  <PUBCHEM_CACTVS_TAUTO_COUNT>  (1) 
1

>  <PUBCHEM_CONFORMER_ID>  (1) 
00008C6D00000001

>  <PUBCHEM_MMFF94_ENERGY>  (1) 
106.9784

>  <PUBCHEM_FEATURE_SELFOVERLAP>  (1) 
45.683

>  <PUBCHEM_SHAPE_FINGERPRINT>  (1) 
10 15 13254796837016886167
10693767 8 18409443721790509515
11607047 403 17771048690702064320
11991303 11 15574723533831849475
12035758 1 14333407869909350079
12166972 35 17894634768162677933
12236239 1 18343305898915437009
12403260 363 18335428920225621092
12838863 1 18115018607640892722
13533116 47 18408887352285999064
13540713 4 17170695533409477288
13782708 43 17489585675674955431
13862211 1 18409731750654685707
14068700 675 18409450254499128796
14347332 77 18337110055823208172
14931854 50 17894621553365556215
15183329 4 18409172133891727071
15188451 53 18272368638269144898
15420108 30 17541098662883265056
15629462 23 18261968379615720617
16067689 68 17702112356687665738
16126227 98 8862932888459515511
20028762 73 18341896277352947350
20775438 99 17978215385777748719
21033648 29 8358246021507411364
21130935 74 18053941759289215850
21279426 13 17604154825659246795
21521239 73 18334293201633149811
21637258 2 17846494851059152197
22224240 67 11167941360090271053
23522609 53 18124350230923039009
23536364 44 18186792548789239349
23559900 14 17895769494928764328
23569943 247 18410857612472163739
3004659 81 18187081767048119486
3103668 31 18188484663178654525
3504750 166 18198910201534160505
3633792 109 17313107445336187500
4058900 60 15647044916307767113
4340502 62 15554450695351591652
5718773 13 18339079290255915510
59755656 215 18040715844437536291
96874 4 18342734122213820775

>  <PUBCHEM_SHAPE_MULTIPOLES>  (1) 
543.77
19.84
3.44
1.48
13.15
2.12
-0.7
-20.95
4.82
-0.34
0.57
-0.28
-0.57
-1.81

>  <PUBCHEM_SHAPE_SELFOVERLAP>  (1) 
1143.743

>  <PUBCHEM_SHAPE_VOLUME>  (1) 
309.2

>  <PUBCHEM_COORDINATE_TYPE>  (1) 
2
5
10

$$$$
