35953
     RDKit          3D

 13 13  0  0  0  0  0  0  0  0999 V2000
    0.9868   -0.2278   -1.1642 S   0  0  0  0  0  0  0  0  0  0  0  0
    3.2338   -2.0381   -0.4870 S   0  0  0  0  0  0  0  0  0  0  0  0
   -4.0984    0.5881    0.2363 O   0  0  0  0  0  0  0  0  0  0  0  0
   -1.4947   -0.5094   -0.1077 N   0  0  0  0  0  0  0  0  0  0  0  0
    3.1584    0.6258    0.2343 N   0  0  0  0  0  0  0  0  0  0  0  0
   -1.8115    0.8633   -0.5262 C   0  0  0  0  0  0  0  0  0  0  0  0
   -2.3519   -0.9026    1.0192 C   0  0  0  0  0  0  0  0  0  0  0  0
   -3.2923    0.9686   -0.8795 C   0  0  0  0  0  0  0  0  0  0  0  0
   -3.8198   -0.7564    0.6286 C   0  0  0  0  0  0  0  0  0  0  0  0
   -0.0824   -0.6307    0.2475 C   0  0  0  0  0  0  0  0  0  0  0  0
    2.5702   -0.4867   -0.3998 C   0  0  0  0  0  0  0  0  0  0  0  0
    4.4561    0.5491    0.9095 C   0  0  0  0  0  0  0  0  0  0  0  0
    2.5457    1.9566    0.2890 C   0  0  0  0  0  0  0  0  0  0  0  0
  1 10  1  0
  1 11  1  0
  2 11  2  0
  3  8  1  0
  3  9  1  0
  4  6  1  0
  4  7  1  0
  4 10  1  0
  5 11  1  0
  5 12  1  0
  5 13  1  0
  6  8  1  0
  7  9  1  0
M  END
>  <PUBCHEM_COMPOUND_CID>  (1) 
35953

>  <PUBCHEM_CONFORMER_RMSD>  (1) 
0.6

>  <PUBCHEM_CONFORMER_DIVERSEORDER>  (1) 
1
33
13
32
49
3
54
14
17
50
29
46
24
16
27
23
56
18
57
53
26
38
20
22
51
35
15
25
55
45
6
52
5
2
47
4
48
43
44
41
21
34
36
39
8
37
28
42
40
9
19
10
7
31
30
12
11

>  <PUBCHEM_MMFF94_PARTIAL_CHARGES>  (1) 
13
1 -0.37
10 0.5
11 0.58
12 0.3
13 0.3
2 -0.38
3 -0.56
4 -0.81
5 -0.66
6 0.27
7 0.27
8 0.28
9 0.28

>  <PUBCHEM_EFFECTIVE_ROTOR_COUNT>  (1) 
5.2

>  <PUBCHEM_PHARMACOPHORE_FEATURES>  (1) 
4
1 2 acceptor
1 3 acceptor
1 4 cation
6 3 4 6 7 8 9 rings

>  <PUBCHEM_HEAVY_ATOM_COUNT>  (1) 
13

>  <PUBCHEM_ATOM_DEF_STEREO_COUNT>  (1) 
0

>  <PUBCHEM_ATOM_UDEF_STEREO_COUNT>  (1) 
0

>  <PUBCHEM_BOND_DEF_STEREO_COUNT>  (1) 
0

>  <PUBCHEM_BOND_UDEF_STEREO_COUNT>  (1) 
0

>  <PUBCHEM_ISOTOPIC_ATOM_COUNT>  (1) 
0

>  <PUBCHEM_COMPONENT_COUNT>  (1) 
1

>  <PUBCHEM_CACTVS_TAUTO_COUNT>  (1) 
1

>  <PUBCHEM_CONFORMER_ID>  (1) 
00008C7100000001

>  <PUBCHEM_MMFF94_ENERGY>  (1) 
34.038

>  <PUBCHEM_FEATURE_SELFOVERLAP>  (1) 
20.297

>  <PUBCHEM_SHAPE_FINGERPRINT>  (1) 
10608611 8 18408039589522505085
11132069 177 17967535657981093159
12932764 1 18341903999471647246
13296908 3 18335144171797879326
15219456 202 18411138017463147830
15775835 57 17132110269029607652
18186145 218 18130518460830699518
19026448 4 18409451362457876623
20279233 1 18408044013212225734
20645464 45 18335702758539034547
20645476 183 15339113567686758269
20645477 56 18261112963547564757
20645477 70 18130223753286792006
20671657 53 18056771922907671790
21499 59 17060337448350228254
22096605 113 18130779105226476596
22169311 14 17968090949823352304
22169311 21 18407761425939387695
22943178 12 18335141977164653399
23402539 116 18040989687906058943
23532345 42 17967819348744216876
23557571 272 18261111906853643865
23559900 14 18187651254374594126
351380 180 18409441488364947365
42 15 17385718089153287858
449060 50 18410575115149927740
548570 60 18412259540919816985
57812782 119 18333732411747214631

>  <PUBCHEM_SHAPE_MULTIPOLES>  (1) 
259.4
8.69
1.68
1.05
0.91
0.02
-0.06
-0.61
1.63
-1.45
-0.02
0.05
0.04
1.25

>  <PUBCHEM_SHAPE_SELFOVERLAP>  (1) 
474.041

>  <PUBCHEM_SHAPE_VOLUME>  (1) 
168.3

>  <PUBCHEM_COORDINATE_TYPE>  (1) 
2
5
10

$$$$
