3595
     RDKit          3D

 27 30  0  0  1  0  0  0  0  0999 V2000
    3.1307    0.8918    1.6042 S   0  0  0  0  0  0  0  0  0  0  0  0
    1.6436    0.7819   -2.5154 O   0  0  0  0  0  0  0  0  0  0  0  0
   -0.9452   -0.5168   -1.4059 O   0  0  0  0  0  0  0  0  0  0  0  0
    2.9428   -2.3943    1.2631 O   0  0  0  0  0  0  0  0  0  0  0  0
    3.6967   -3.1828   -0.7481 O   0  0  0  0  0  0  0  0  0  0  0  0
    2.0439   -0.3017   -0.4591 N   0  0  0  0  0  0  0  0  0  0  0  0
   -0.5437    1.4025   -0.1139 N   0  0  0  0  0  0  0  0  0  0  0  0
   -2.6974    1.8244    0.5636 N   0  0  0  0  0  0  0  0  0  0  0  0
    1.5920    0.3690    0.7587 C   0  0  0  0  0  0  0  0  0  0  0  0
    0.9300    1.4200   -0.1484 C   0  0  0  0  0  0  0  0  0  0  0  0
    3.3758   -0.8713   -0.4798 C   0  0  0  0  0  0  0  0  0  0  0  0
    4.2546    0.0962    0.3510 C   0  0  0  0  0  0  0  0  0  0  0  0
    1.5329    0.6218   -1.3213 C   0  0  0  0  0  0  0  0  0  0  0  0
   -1.3498    2.4117    0.5391 C   0  0  0  0  0  0  0  0  0  0  0  0
   -1.3256    0.4434   -0.7522 C   0  0  0  0  0  0  0  0  0  0  0  0
   -2.7669    0.8295   -0.5136 C   0  0  0  0  0  0  0  0  0  0  0  0
    4.8262    1.2186   -0.5324 C   0  0  0  0  0  0  0  0  0  0  0  0
    5.4112   -0.5868    1.0899 C   0  0  0  0  0  0  0  0  0  0  0  0
   -0.9166    2.6606    1.9856 C   0  0  0  0  0  0  0  0  0  0  0  0
   -1.3565    3.7218   -0.2591 C   0  0  0  0  0  0  0  0  0  0  0  0
    3.3337   -2.2893    0.0674 C   0  0  0  0  0  0  0  0  0  0  0  0
   -3.6499   -0.3402   -0.1585 C   0  0  0  0  0  0  0  0  0  0  0  0
   -5.0032   -0.3288   -0.5051 C   0  0  0  0  0  0  0  0  0  0  0  0
   -3.1184   -1.4404    0.5189 C   0  0  0  0  0  0  0  0  0  0  0  0
   -5.8199   -1.4108   -0.1764 C   0  0  0  0  0  0  0  0  0  0  0  0
   -3.9352   -2.5223    0.8477 C   0  0  0  0  0  0  0  0  0  0  0  0
   -5.2859   -2.5075    0.4999 C   0  0  0  0  0  0  0  0  0  0  0  0
  1  9  1  0
  1 12  1  0
  2 13  2  0
  3 15  2  0
  4 21  1  0
  5 21  2  0
  6  9  1  0
  6 11  1  0
  6 13  1  0
  7 10  1  0
  7 14  1  0
  7 15  1  0
  8 14  1  0
  8 16  1  0
  9 10  1  0
 10 13  1  0
 11 12  1  0
 11 21  1  0
 12 17  1  0
 12 18  1  0
 14 19  1  0
 14 20  1  0
 15 16  1  0
 16 22  1  0
 22 23  2  0
 22 24  1  0
 23 25  1  0
 24 26  2  0
 25 27  2  0
 26 27  1  0
M  CHG  1   4  -1
M  END
>  <PUBCHEM_COMPOUND_CID>  (1) 
3595

>  <PUBCHEM_CONFORMER_RMSD>  (1) 
0.8

>  <PUBCHEM_CONFORMER_DIVERSEORDER>  (1) 
1
59
14
39
50
44
37
63
41
56
45
58
62
46
35
38
54
61
17
31
32
53
21
47
65
60
49
48
34
30
64
13
7
26
33
15
52
51
20
23
9
22
28
25
55
36
40
42
2
6
27
43
11
16
10
5
19
8
4
57
29
12
18
3
24

>  <PUBCHEM_MMFF94_PARTIAL_CHARGES>  (1) 
29
1 -0.45
10 0.28
11 0.19
12 0.23
13 0.58
14 0.57
15 0.57
16 0.47
2 -0.57
21 0.91
22 -0.14
23 -0.15
24 -0.15
25 -0.15
26 -0.15
27 -0.15
3 -0.57
32 0.36
4 -0.9
45 0.15
46 0.15
47 0.15
48 0.15
49 0.15
5 -0.9
6 -0.59
7 -0.59
8 -0.9
9 0.44

>  <PUBCHEM_EFFECTIVE_ROTOR_COUNT>  (1) 
4.6

>  <PUBCHEM_PHARMACOPHORE_FEATURES>  (1) 
13
1 2 acceptor
1 3 acceptor
1 4 acceptor
1 5 acceptor
1 8 cation
1 8 donor
3 12 17 18 hydrophobe
3 14 19 20 hydrophobe
3 4 5 21 anion
4 6 9 10 13 rings
5 7 8 14 15 16 rings
6 22 23 24 25 26 27 rings
7 1 6 9 10 11 12 13 rings

>  <PUBCHEM_HEAVY_ATOM_COUNT>  (1) 
27

>  <PUBCHEM_ATOM_DEF_STEREO_COUNT>  (1) 
0

>  <PUBCHEM_ATOM_UDEF_STEREO_COUNT>  (1) 
4

>  <PUBCHEM_BOND_DEF_STEREO_COUNT>  (1) 
0

>  <PUBCHEM_BOND_UDEF_STEREO_COUNT>  (1) 
0

>  <PUBCHEM_ISOTOPIC_ATOM_COUNT>  (1) 
0

>  <PUBCHEM_COMPONENT_COUNT>  (1) 
1

>  <PUBCHEM_CACTVS_TAUTO_COUNT>  (1) 
1

>  <PUBCHEM_CONFORMER_ID>  (1) 
00000E0B00000001

>  <PUBCHEM_MMFF94_ENERGY>  (1) 
71.0731

>  <PUBCHEM_FEATURE_SELFOVERLAP>  (1) 
69.997

>  <PUBCHEM_SHAPE_FINGERPRINT>  (1) 
10366900 7 18342742944271162992
11578080 2 17895735400925170197
11796584 16 17894904166355847019
11963148 33 18338507647162677542
12236239 1 17894909650274612613
12363563 72 18340212994001751153
12516196 113 18340485677117129403
12553582 1 18270672194379311143
12633257 1 17773045146129733633
12788726 201 18341899575718375977
12892183 10 18200869583179313886
13140716 1 17841697801996715408
13544653 18 18341891909270363069
13583140 156 17986652823656556276
13631057 29 18411984659028810856
14223421 5 18270676472525531136
14289901 80 18335987446267899040
14787075 74 18264768933856270104
14790565 3 17114660173241461721
14863182 85 18336552711113721542
14866123 147 18124036724659301515
15163728 17 9798871335444573939
15183329 4 16950828268510896015
15352361 1 18409448111478934891
15422964 175 18411131476544518985
15927050 60 17259907845783240124
17349148 13 17821732736689134048
17492 89 18268710519960275118
1813 80 17458346338252799343
18335252 114 9366807143141258955
19958102 18 17897713272530561629
21033648 29 15769507447873498347
21033650 10 15214417808178485078
21279426 13 18336819785523517975
21503847 285 11600002159206353106
21756936 100 11887661897217901324
23503958 8 18338798896898280850
23559900 14 18338229379976962436
238 59 14851605483497226873
25222932 49 18128533971461011447
2838139 119 10015595969453696091
3004659 81 17894627097598623175
314194 84 18270960279869826863
329604 57 18408604798776404200
339767 52 18261385676422090267
3421961 26 18268147750606197641
38570 142 13685163405216481018
392239 28 18342171219667992146
439807 62 17605558962934511419
463206 1 18263926725304252403
5104073 3 18058725789366249354
6669772 16 17620200166595896500
7808743 9 9655275034809927615
9709674 26 18268711610797292918

>  <PUBCHEM_SHAPE_MULTIPOLES>  (1) 
521.08
11.56
3.43
1.45
4.13
0.44
0.1
-8.5
-1.32
1.11
-0.75
-0.83
0.39
0.27

>  <PUBCHEM_SHAPE_SELFOVERLAP>  (1) 
1114.224

>  <PUBCHEM_SHAPE_VOLUME>  (1) 
292.8

>  <PUBCHEM_COORDINATE_TYPE>  (1) 
2
5
10

$$$$
