35982
     RDKit          3D

 16 18  0  0  1  0  0  0  0  0999 V2000
   -2.4699   -0.7330    0.0255 N   0  0  0  0  0  0  0  0  0  0  0  0
    0.2023    0.6467   -0.1716 C   0  0  0  0  0  0  0  0  0  0  0  0
    1.9614   -0.0348    1.5214 C   0  0  0  0  0  0  0  0  0  0  0  0
    1.5025   -1.5085   -0.4708 C   0  0  0  0  0  0  0  0  0  0  0  0
    2.6615    0.7074   -0.7830 C   0  0  0  0  0  0  0  0  0  0  0  0
    0.5979    0.6506    1.3241 C   0  0  0  0  0  0  0  0  0  0  0  0
    0.1402   -0.8191   -0.6625 C   0  0  0  0  0  0  0  0  0  0  0  0
    1.2961    1.3906   -0.9740 C   0  0  0  0  0  0  0  0  0  0  0  0
    1.8754   -1.4862    1.0208 C   0  0  0  0  0  0  0  0  0  0  0  0
    3.0286    0.7186    0.7103 C   0  0  0  0  0  0  0  0  0  0  0  0
    2.5721   -0.7477   -1.2720 C   0  0  0  0  0  0  0  0  0  0  0  0
   -1.1544    1.3293   -0.3640 C   0  0  0  0  0  0  0  0  0  0  0  0
   -2.2884    0.6625    0.4249 C   0  0  0  0  0  0  0  0  0  0  0  0
   -3.5999    1.4138    0.1997 C   0  0  0  0  0  0  0  0  0  0  0  0
   -2.8389   -0.8158   -1.3871 C   0  0  0  0  0  0  0  0  0  0  0  0
   -3.4866   -1.3744    0.8581 C   0  0  0  0  0  0  0  0  0  0  0  0
  1 13  1  0
  1 15  1  0
  1 16  1  0
  2  6  1  0
  2  7  1  0
  2  8  1  0
  2 12  1  0
  3  6  1  0
  3  9  1  0
  3 10  1  0
  4  7  1  0
  4  9  1  0
  4 11  1  0
  5  8  1  0
  5 10  1  0
  5 11  1  0
 12 13  1  0
 13 14  1  0
M  END
>  <PUBCHEM_COMPOUND_CID>  (1) 
35982

>  <PUBCHEM_CONFORMER_RMSD>  (1) 
0.6

>  <PUBCHEM_CONFORMER_DIVERSEORDER>  (1) 
1
3
2
4

>  <PUBCHEM_MMFF94_PARTIAL_CHARGES>  (1) 
4
1 -0.81
13 0.27
15 0.27
16 0.27

>  <PUBCHEM_EFFECTIVE_ROTOR_COUNT>  (1) 
4.2

>  <PUBCHEM_PHARMACOPHORE_FEATURES>  (1) 
5
1 1 cation
6 2 3 4 6 7 9 rings
6 2 3 5 6 8 10 rings
6 2 4 5 7 8 11 rings
6 3 4 5 9 10 11 rings

>  <PUBCHEM_HEAVY_ATOM_COUNT>  (1) 
16

>  <PUBCHEM_ATOM_DEF_STEREO_COUNT>  (1) 
0

>  <PUBCHEM_ATOM_UDEF_STEREO_COUNT>  (1) 
1

>  <PUBCHEM_BOND_DEF_STEREO_COUNT>  (1) 
0

>  <PUBCHEM_BOND_UDEF_STEREO_COUNT>  (1) 
0

>  <PUBCHEM_ISOTOPIC_ATOM_COUNT>  (1) 
0

>  <PUBCHEM_COMPONENT_COUNT>  (1) 
1

>  <PUBCHEM_CACTVS_TAUTO_COUNT>  (1) 
1

>  <PUBCHEM_CONFORMER_ID>  (1) 
00008C8E00000001

>  <PUBCHEM_MMFF94_ENERGY>  (1) 
58.5074

>  <PUBCHEM_FEATURE_SELFOVERLAP>  (1) 
37.888

>  <PUBCHEM_SHAPE_FINGERPRINT>  (1) 
10948715 1 18269554017472668856
12382932 28 18412260614809236753
12500047 106 17988638554467121829
12932764 1 17632580465586123199
13134695 92 12757416281198554234
13296908 3 18343306955018215559
13464513 79 18050017876223097715
13538477 17 18114749231037583581
14144814 61 18261111863856601873
14178342 30 18261105266681288683
15219456 202 17989487411523759464
15775835 57 17847061099236252887
16945 1 18340768264200141486
18186145 218 16805328781492655606
20279233 1 17632287965354582049
20442098 301 18342459257407465063
21501502 16 18341323405850264507
21524375 3 17172946281220127084
21730867 7 17775565355439651906
23402539 116 18260270742067687116
23419403 2 13669029227082256694
2748010 2 18272650104175840813
3248919 1 18334006199043682269
528886 8 18336557035807743084
5337951 7 16702307888203235654
74978 22 18040996215944904501
7832392 63 18262525779754314269
8030462 33 18411974771924450639

>  <PUBCHEM_SHAPE_MULTIPOLES>  (1) 
324.29
5.62
1.67
1.4
3.91
0.14
0.09
0.24
0.22
0.34
-0.05
-0.48
0.16
-0.04

>  <PUBCHEM_SHAPE_SELFOVERLAP>  (1) 
684.268

>  <PUBCHEM_SHAPE_VOLUME>  (1) 
177.1

>  <PUBCHEM_COORDINATE_TYPE>  (1) 
2
5
10

$$$$
