35996
     RDKit          3D

 14 16  0  0  0  0  0  0  0  0999 V2000
    3.9555   -0.3810   -0.0003 N   0  0  0  0  0  0  0  0  0  0  0  0
    0.1568   -0.4802   -0.0024 C   0  0  0  0  0  0  0  0  0  0  0  0
   -2.2917   -1.1355    0.0158 C   0  0  0  0  0  0  0  0  0  0  0  0
   -1.5374    0.9268    1.2523 C   0  0  0  0  0  0  0  0  0  0  0  0
   -1.5497    0.9024   -1.2677 C   0  0  0  0  0  0  0  0  0  0  0  0
   -0.8448   -1.6592    0.0136 C   0  0  0  0  0  0  0  0  0  0  0  0
   -0.0927    0.3975    1.2470 C   0  0  0  0  0  0  0  0  0  0  0  0
   -0.1049    0.3732   -1.2661 C   0  0  0  0  0  0  0  0  0  0  0  0
   -2.5122   -0.2624    1.2622 C   0  0  0  0  0  0  0  0  0  0  0  0
   -2.5244   -0.2867   -1.2451 C   0  0  0  0  0  0  0  0  0  0  0  0
   -1.7740    1.7653   -0.0148 C   0  0  0  0  0  0  0  0  0  0  0  0
    1.5951   -1.0050   -0.0043 C   0  0  0  0  0  0  0  0  0  0  0  0
    2.5951    0.1433    0.0204 C   0  0  0  0  0  0  0  0  0  0  0  0
    4.9293    0.7015   -0.0105 C   0  0  0  0  0  0  0  0  0  0  0  0
  1 13  1  0
  1 14  1  0
  2  6  1  0
  2  7  1  0
  2  8  1  0
  2 12  1  0
  3  6  1  0
  3  9  1  0
  3 10  1  0
  4  7  1  0
  4  9  1  0
  4 11  1  0
  5  8  1  0
  5 10  1  0
  5 11  1  0
 12 13  1  0
M  END
>  <PUBCHEM_COMPOUND_CID>  (1) 
35996

>  <PUBCHEM_CONFORMER_RMSD>  (1) 
0.6

>  <PUBCHEM_CONFORMER_DIVERSEORDER>  (1) 
1
2

>  <PUBCHEM_MMFF94_PARTIAL_CHARGES>  (1) 
4
1 -0.9
13 0.27
14 0.27
34 0.36

>  <PUBCHEM_EFFECTIVE_ROTOR_COUNT>  (1) 
4.2

>  <PUBCHEM_PHARMACOPHORE_FEATURES>  (1) 
6
1 1 cation
1 1 donor
6 2 3 4 6 7 9 rings
6 2 3 5 6 8 10 rings
6 2 4 5 7 8 11 rings
6 3 4 5 9 10 11 rings

>  <PUBCHEM_HEAVY_ATOM_COUNT>  (1) 
14

>  <PUBCHEM_ATOM_DEF_STEREO_COUNT>  (1) 
0

>  <PUBCHEM_ATOM_UDEF_STEREO_COUNT>  (1) 
0

>  <PUBCHEM_BOND_DEF_STEREO_COUNT>  (1) 
0

>  <PUBCHEM_BOND_UDEF_STEREO_COUNT>  (1) 
0

>  <PUBCHEM_ISOTOPIC_ATOM_COUNT>  (1) 
0

>  <PUBCHEM_COMPONENT_COUNT>  (1) 
1

>  <PUBCHEM_CACTVS_TAUTO_COUNT>  (1) 
1

>  <PUBCHEM_CONFORMER_ID>  (1) 
00008C9C00000001

>  <PUBCHEM_MMFF94_ENERGY>  (1) 
31.2757

>  <PUBCHEM_FEATURE_SELFOVERLAP>  (1) 
42.962

>  <PUBCHEM_SHAPE_FINGERPRINT>  (1) 
10948715 1 18050285869439747813
11315181 36 14273452609528477468
12423570 1 8757011822566297603
12491281 212 18042117661485487948
13024252 1 14056721240499127023
13214271 11 17275392018358718426
14142880 1 18041839510887759397
15061688 2 16589693574976849341
15309172 13 18259706692375875394
15775835 57 18114741538629700736
16945 1 18410576201607952367
18186145 218 18343869905499092542
200 152 18410284843684686046
20325693 3 14045749244072753432
20525323 117 18187083931753899578
2306618 200 18335414643268902552
23402539 116 10809338958384840659
23419403 2 17978783838042841955
369184 2 18271527498609199163
4175511 318 16845577478543553352

>  <PUBCHEM_SHAPE_MULTIPOLES>  (1) 
283.13
5.84
1.42
1.3
10.54
0.02
-0.01
0.64
-0.01
-0.65
0
-0.93
0.24
0

>  <PUBCHEM_SHAPE_SELFOVERLAP>  (1) 
597.235

>  <PUBCHEM_SHAPE_VOLUME>  (1) 
153.3

>  <PUBCHEM_COORDINATE_TYPE>  (1) 
2
5
10

$$$$
