36002
     RDKit          3D

 17 19  0  0  1  0  0  0  0  0999 V2000
    0.5071    2.4734   -1.0461 Cl  0  0  0  0  0  0  0  0  0  0  0  0
   -0.2740   -2.9622    0.1743 Cl  0  0  0  0  0  0  0  0  0  0  0  0
    2.6340    0.7808    0.4901 N   0  0  0  0  0  0  0  0  0  0  0  0
   -0.0130   -0.2457   -0.5238 C   0  0  0  0  0  0  0  0  0  0  0  0
   -1.4090    1.5291    0.6677 C   0  0  0  0  0  0  0  0  0  0  0  0
   -1.7598   -0.9105    1.2159 C   0  0  0  0  0  0  0  0  0  0  0  0
   -2.5003    0.0017   -1.0139 C   0  0  0  0  0  0  0  0  0  0  0  0
   -0.0115    1.1915    0.1015 C   0  0  0  0  0  0  0  0  0  0  0  0
   -0.3597   -1.2302    0.6454 C   0  0  0  0  0  0  0  0  0  0  0  0
   -1.1199   -0.3306   -1.6096 C   0  0  0  0  0  0  0  0  0  0  0  0
   -1.7452    0.5214    1.7824 C   0  0  0  0  0  0  0  0  0  0  0  0
   -2.4838    1.4231   -0.4309 C   0  0  0  0  0  0  0  0  0  0  0  0
   -2.8311   -0.9907    0.1114 C   0  0  0  0  0  0  0  0  0  0  0  0
    1.3590   -0.5807   -1.1382 C   0  0  0  0  0  0  0  0  0  0  0  0
    2.4982   -0.5432   -0.1172 C   0  0  0  0  0  0  0  0  0  0  0  0
    3.8167   -0.9106   -0.7966 C   0  0  0  0  0  0  0  0  0  0  0  0
    3.6925    0.7835    1.4874 C   0  0  0  0  0  0  0  0  0  0  0  0
  1  8  1  0
  2  9  1  0
  3 15  1  0
  3 17  1  0
  4  8  1  0
  4  9  1  0
  4 10  1  0
  4 14  1  0
  5  8  1  0
  5 11  1  0
  5 12  1  0
  6  9  1  0
  6 11  1  0
  6 13  1  0
  7 10  1  0
  7 12  1  0
  7 13  1  0
 14 15  1  0
 15 16  1  0
M  END
>  <PUBCHEM_COMPOUND_CID>  (1) 
36002

>  <PUBCHEM_CONFORMER_RMSD>  (1) 
0.6

>  <PUBCHEM_CONFORMER_DIVERSEORDER>  (1) 
1
6
5
4
3
2

>  <PUBCHEM_MMFF94_PARTIAL_CHARGES>  (1) 
8
1 -0.29
15 0.27
17 0.27
2 -0.29
3 -0.9
37 0.36
8 0.29
9 0.29

>  <PUBCHEM_EFFECTIVE_ROTOR_COUNT>  (1) 
4.2

>  <PUBCHEM_PHARMACOPHORE_FEATURES>  (1) 
6
1 3 cation
1 3 donor
6 4 5 6 8 9 11 rings
6 4 5 7 8 10 12 rings
6 4 6 7 9 10 13 rings
6 5 6 7 11 12 13 rings

>  <PUBCHEM_HEAVY_ATOM_COUNT>  (1) 
17

>  <PUBCHEM_ATOM_DEF_STEREO_COUNT>  (1) 
0

>  <PUBCHEM_ATOM_UDEF_STEREO_COUNT>  (1) 
5

>  <PUBCHEM_BOND_DEF_STEREO_COUNT>  (1) 
0

>  <PUBCHEM_BOND_UDEF_STEREO_COUNT>  (1) 
0

>  <PUBCHEM_ISOTOPIC_ATOM_COUNT>  (1) 
0

>  <PUBCHEM_COMPONENT_COUNT>  (1) 
1

>  <PUBCHEM_CACTVS_TAUTO_COUNT>  (1) 
1

>  <PUBCHEM_CONFORMER_ID>  (1) 
00008CA200000001

>  <PUBCHEM_MMFF94_ENERGY>  (1) 
53.4299

>  <PUBCHEM_FEATURE_SELFOVERLAP>  (1) 
42.826

>  <PUBCHEM_SHAPE_FINGERPRINT>  (1) 
10863032 1 18266168432033546711
10948715 1 17702670921827163017
12423570 1 16447053983245366927
12491281 212 17274833419281073096
13024252 1 11025808616979859375
13172582 1 18336844046860109055
14142880 1 18200305520355265593
144361 1 18059281068339280669
14817 1 13048227065264515149
15309172 13 18187941538118264354
15775835 57 18126572214893244484
15881359 60 18270110352537799937
16945 1 17821450179306785683
18186145 218 18339636750670848764
19868273 325 18187939360495771652
200 152 16917056733559583556
20525323 117 17489590060546232369
21421861 104 16966631818955644939
21501502 16 17758677037336545319
23236772 104 17918273130277896795
2334 1 18410017615262143598
23402539 116 18268408265578020902
23419403 2 17047352422195550047
23493267 7 17096382643670301082
23559900 14 18335981966189945934
2748010 2 18336838484835496703
3286 77 17632576024774600886
369184 2 18343585126938241675
5084963 1 18272381874994256797
81228 2 18193562387578183866

>  <PUBCHEM_SHAPE_MULTIPOLES>  (1) 
348.61
4.86
2.29
1.51
4.51
0.38
-0.2
-0.04
-0.58
-0.28
0.12
-0.03
-0.19
0.47

>  <PUBCHEM_SHAPE_SELFOVERLAP>  (1) 
716.144

>  <PUBCHEM_SHAPE_VOLUME>  (1) 
200.8

>  <PUBCHEM_COORDINATE_TYPE>  (1) 
2
5
10

$$$$
