36014
     RDKit          3D

 16 18  0  0  1  0  0  0  0  0999 V2000
    2.2730   -2.8919    0.7678 Br  0  0  0  0  0  0  0  0  0  0  0  0
   -2.7715   -0.1042   -0.9092 N   0  0  0  0  0  0  0  0  0  0  0  0
   -0.1769    0.5908    0.4580 C   0  0  0  0  0  0  0  0  0  0  0  0
    2.2425    1.3512    0.4377 C   0  0  0  0  0  0  0  0  0  0  0  0
    1.2002    0.4308   -1.6659 C   0  0  0  0  0  0  0  0  0  0  0  0
    1.6957   -1.0944    0.2673 C   0  0  0  0  0  0  0  0  0  0  0  0
    0.8397    1.6178    1.0117 C   0  0  0  0  0  0  0  0  0  0  0  0
   -0.1994    0.7002   -1.0856 C   0  0  0  0  0  0  0  0  0  0  0  0
    0.2955   -0.8318    0.8461 C   0  0  0  0  0  0  0  0  0  0  0  0
    2.1913    1.4595   -1.0957 C   0  0  0  0  0  0  0  0  0  0  0  0
    2.6899   -0.0676    0.8317 C   0  0  0  0  0  0  0  0  0  0  0  0
    1.6512   -0.9848   -1.2648 C   0  0  0  0  0  0  0  0  0  0  0  0
   -1.5709    0.8620    1.0299 C   0  0  0  0  0  0  0  0  0  0  0  0
   -2.6315   -0.1351    0.5467 C   0  0  0  0  0  0  0  0  0  0  0  0
   -3.9850    0.1876    1.1783 C   0  0  0  0  0  0  0  0  0  0  0  0
   -3.7440   -1.0899   -1.3539 C   0  0  0  0  0  0  0  0  0  0  0  0
  1  6  1  0
  2 14  1  0
  2 16  1  0
  3  7  1  0
  3  8  1  0
  3  9  1  0
  3 13  1  0
  4  7  1  0
  4 10  1  0
  4 11  1  0
  5  8  1  0
  5 10  1  0
  5 12  1  0
  6  9  1  0
  6 11  1  0
  6 12  1  0
 13 14  1  0
 14 15  1  0
M  END
>  <PUBCHEM_COMPOUND_CID>  (1) 
36014

>  <PUBCHEM_CONFORMER_RMSD>  (1) 
0.6

>  <PUBCHEM_CONFORMER_DIVERSEORDER>  (1) 
4
1
3
5
2
6

>  <PUBCHEM_MMFF94_PARTIAL_CHARGES>  (1) 
6
1 -0.23
14 0.27
16 0.27
2 -0.9
37 0.36
6 0.23

>  <PUBCHEM_EFFECTIVE_ROTOR_COUNT>  (1) 
4.2

>  <PUBCHEM_PHARMACOPHORE_FEATURES>  (1) 
7
1 1 hydrophobe
1 2 cation
1 2 donor
6 3 4 5 7 8 10 rings
6 3 4 6 7 9 11 rings
6 3 5 6 8 9 12 rings
6 4 5 6 10 11 12 rings

>  <PUBCHEM_HEAVY_ATOM_COUNT>  (1) 
16

>  <PUBCHEM_ATOM_DEF_STEREO_COUNT>  (1) 
0

>  <PUBCHEM_ATOM_UDEF_STEREO_COUNT>  (1) 
3

>  <PUBCHEM_BOND_DEF_STEREO_COUNT>  (1) 
0

>  <PUBCHEM_BOND_UDEF_STEREO_COUNT>  (1) 
0

>  <PUBCHEM_ISOTOPIC_ATOM_COUNT>  (1) 
0

>  <PUBCHEM_COMPONENT_COUNT>  (1) 
1

>  <PUBCHEM_CACTVS_TAUTO_COUNT>  (1) 
1

>  <PUBCHEM_CONFORMER_ID>  (1) 
00008CAE00000004

>  <PUBCHEM_MMFF94_ENERGY>  (1) 
50.7456

>  <PUBCHEM_FEATURE_SELFOVERLAP>  (1) 
48.037

>  <PUBCHEM_SHAPE_FINGERPRINT>  (1) 
10948715 1 16486118673576440624
11578080 2 18266161847511942288
11680611 10 17917705773529839151
11769659 78 18267574719863411514
12119455 92 17677607747630154300
12326174 3 18342747307957941884
12423570 1 9077981841014786008
12725867 57 17822291241298546012
12932764 1 18271815618238102241
13024252 1 14859805375572805346
13134695 92 17168124755185854156
13296908 3 16805040727042824393
13705890 14 17385729088264014875
14181834 199 18040994042612487318
14817 1 12121923488439642444
15375462 189 18272373074854388835
15852999 172 17896309388795984691
16945 1 18260832592161132376
18186145 218 16153428325021635185
19786989 88 17677347132924140509
20645477 70 18040989640413576595
21524375 3 17413575487438034824
21947302 44 16443643374968543365
22112679 90 17908727041545040024
22802520 49 17531243890549823141
23419403 2 17176247899937069264
2748010 2 17826495687874468714
4175511 335 18335135427249557518
74978 22 10375870762456727041

>  <PUBCHEM_SHAPE_MULTIPOLES>  (1) 
330.23
5.4
2.07
1.59
6.3
1.24
-0.42
1.5
0.09
-2.08
0.26
0.38
-0.13
-0.72

>  <PUBCHEM_SHAPE_SELFOVERLAP>  (1) 
682.864

>  <PUBCHEM_SHAPE_VOLUME>  (1) 
195

>  <PUBCHEM_COORDINATE_TYPE>  (1) 
2
5
10

$$$$
