36021
     RDKit          3D

 19 21  0  0  1  0  0  0  0  0999 V2000
   -2.8056    1.4212    0.8514 O   0  0  0  0  0  0  0  0  0  0  0  0
   -2.1649   -0.1286    2.4079 O   0  0  0  0  0  0  0  0  0  0  0  0
    0.8268   -0.4336    1.0047 N   0  0  0  0  0  0  0  0  0  0  0  0
    0.6084    0.4966   -1.0019 N   0  0  0  0  0  0  0  0  0  0  0  0
   -1.5154   -0.4071    0.0640 C   0  0  0  0  0  0  0  0  0  0  0  0
   -2.3023    0.2343   -1.0826 C   0  0  0  0  0  0  0  0  0  0  0  0
   -2.5976    1.6214   -0.5514 C   0  0  0  0  0  0  0  0  0  0  0  0
   -1.7679   -1.9182    0.1370 C   0  0  0  0  0  0  0  0  0  0  0  0
   -0.0144   -0.0955   -0.0134 C   0  0  0  0  0  0  0  0  0  0  0  0
   -2.1794    0.2701    1.2521 C   0  0  0  0  0  0  0  0  0  0  0  0
   -3.8326    2.2492   -1.1697 C   0  0  0  0  0  0  0  0  0  0  0  0
   -1.1585   -2.6311   -1.0320 C   0  0  0  0  0  0  0  0  0  0  0  0
    2.0883   -0.0303    0.6491 C   0  0  0  0  0  0  0  0  0  0  0  0
    1.9256    0.5473   -0.6071 C   0  0  0  0  0  0  0  0  0  0  0  0
    3.3200   -0.1184    1.2985 C   0  0  0  0  0  0  0  0  0  0  0  0
    3.0476    1.0734   -1.2694 C   0  0  0  0  0  0  0  0  0  0  0  0
   -0.1987   -3.5568   -0.9254 C   0  0  0  0  0  0  0  0  0  0  0  0
    4.4261    0.4101    0.6248 C   0  0  0  0  0  0  0  0  0  0  0  0
    4.2945    0.9960   -0.6364 C   0  0  0  0  0  0  0  0  0  0  0  0
  1  7  1  0
  1 10  1  0
  2 10  2  0
  3  9  1  0
  3 13  1  0
  4  9  2  0
  4 14  1  0
  5  6  1  0
  5  8  1  0
  5  9  1  0
  5 10  1  0
  6  7  1  0
  7 11  1  0
  8 12  1  0
 12 17  2  0
 13 14  2  0
 13 15  1  0
 14 16  1  0
 15 18  2  0
 16 19  2  0
 18 19  1  0
M  END
>  <PUBCHEM_COMPOUND_CID>  (1) 
36021

>  <PUBCHEM_CONFORMER_RMSD>  (1) 
0.6

>  <PUBCHEM_CONFORMER_DIVERSEORDER>  (1) 
1
34
30
25
19
32
29
27
23
22
11
7
35
36
16
14
13
17
18
31
3
33
12
9
8
26
10
20
24
6
28
21
4
2
5
15

>  <PUBCHEM_MMFF94_PARTIAL_CHARGES>  (1) 
25
1 -0.43
10 0.66
12 -0.29
13 -0.15
14 0.23
15 -0.15
16 -0.15
17 -0.3
18 -0.15
19 -0.15
2 -0.57
28 0.27
29 0.15
3 0.03
30 0.15
31 0.15
32 0.15
33 0.15
34 0.15
35 0.15
4 -0.57
5 0.24
7 0.28
8 0.14
9 0.01

>  <PUBCHEM_EFFECTIVE_ROTOR_COUNT>  (1) 
3.8

>  <PUBCHEM_PHARMACOPHORE_FEATURES>  (1) 
7
1 17 hydrophobe
1 2 acceptor
1 3 donor
3 3 4 9 cation
5 1 5 6 7 10 rings
5 3 4 9 13 14 rings
6 13 14 15 16 18 19 rings

>  <PUBCHEM_HEAVY_ATOM_COUNT>  (1) 
19

>  <PUBCHEM_ATOM_DEF_STEREO_COUNT>  (1) 
0

>  <PUBCHEM_ATOM_UDEF_STEREO_COUNT>  (1) 
2

>  <PUBCHEM_BOND_DEF_STEREO_COUNT>  (1) 
0

>  <PUBCHEM_BOND_UDEF_STEREO_COUNT>  (1) 
0

>  <PUBCHEM_ISOTOPIC_ATOM_COUNT>  (1) 
0

>  <PUBCHEM_COMPONENT_COUNT>  (1) 
1

>  <PUBCHEM_CACTVS_TAUTO_COUNT>  (1) 
1

>  <PUBCHEM_CONFORMER_ID>  (1) 
00008CB500000001

>  <PUBCHEM_MMFF94_ENERGY>  (1) 
34.7656

>  <PUBCHEM_FEATURE_SELFOVERLAP>  (1) 
35.629

>  <PUBCHEM_SHAPE_FINGERPRINT>  (1) 
121448 382 17917982889030445975
12173636 292 17988099823623273361
12251169 10 16660371363268080337
12500047 106 18343012307614210862
12592029 89 18336543811809543691
12788726 201 18116981377150105171
12932764 1 18263650717872961784
13024252 1 16371001953673970187
133893 2 17839751361346513563
13583140 156 17774142626807554106
13675066 3 18040719169253763784
13681431 1 17406843877778431895
15309172 13 18411987935656366825
15852999 172 18060133219789108070
15906896 17 18259982716933806827
16752209 62 18269536390452353415
167882 2 18123462783093915526
16945 1 18272089460735979590
18186145 218 17988378004766106796
19049666 15 17059518303893304846
19765921 60 17345197701399076121
19868273 293 18411132545701121500
200 152 17314229045748664651
20600515 1 17555190399294618759
20602899 9 18130782374050198959
20645477 56 18342463681049777968
21524375 3 18115296775038487261
21756936 100 17460336549368856564
22907989 373 18127410266060248405
23402539 116 18201144555607245775
23419403 2 17687786781345590915
23493267 7 17775016716923948338
23557571 272 17843674710944669456
23559900 14 17989211452355831596
23598288 3 18187932836277113510
298252 57 18335968784449855337
5104073 3 17022618706888128744
5706482 22 18411415094767861211
5845 1 16043663774072740951
59755656 520 17703522012562141447
6049 1 17273419593804917306
6992083 37 18333729147835879084
74978 22 18342453802783324240
7615 1 18043520815012158284
81228 2 17913211141752497775
90525 40 18335420187960976974

>  <PUBCHEM_SHAPE_MULTIPOLES>  (1) 
369.31
6.98
2.58
1.56
5.66
2.57
-0.56
-4.45
0.1
-2.43
1.35
-0.42
-0.06
-0.14

>  <PUBCHEM_SHAPE_SELFOVERLAP>  (1) 
804.958

>  <PUBCHEM_SHAPE_VOLUME>  (1) 
201.6

>  <PUBCHEM_COORDINATE_TYPE>  (1) 
2
5
10

$$$$
