36028
     RDKit          3D

 21 21  0  0  1  0  0  0  0  0999 V2000
   -4.5576    0.0221   -0.3250 S   0  0  0  0  0  0  0  0  0  0  0  0
    2.3363    0.1352    0.7324 P   0  0  0  0  0  0  0  0  0  0  0  0
    1.1679    1.2230    0.4458 O   0  0  0  0  0  0  0  0  0  0  0  0
    3.6687    1.0669    0.6264 O   0  0  0  0  0  0  0  0  0  0  0  0
    2.2270   -0.4682    2.1102 O   0  0  0  0  0  0  0  0  0  0  0  0
   -5.0303   -0.7376    0.8221 O   0  0  0  0  0  0  0  0  0  0  0  0
   -5.2283    1.2568   -0.7041 O   0  0  0  0  0  0  0  0  0  0  0  0
    2.3701   -0.9185   -0.5499 N   0  0  0  0  0  0  0  0  0  0  0  0
    3.4420   -1.9004   -0.6180 C   0  0  0  0  0  0  0  0  0  0  0  0
   -2.8576    0.3572   -0.0809 C   0  0  0  0  0  0  0  0  0  0  0  0
   -2.0704   -0.4561    0.7343 C   0  0  0  0  0  0  0  0  0  0  0  0
   -0.1592    0.9367    0.2716 C   0  0  0  0  0  0  0  0  0  0  0  0
    3.7770   -2.2178   -2.0727 C   0  0  0  0  0  0  0  0  0  0  0  0
    3.0259   -3.1596    0.1358 C   0  0  0  0  0  0  0  0  0  0  0  0
   -0.7175   -0.1655    0.9111 C   0  0  0  0  0  0  0  0  0  0  0  0
   -2.2921    1.4609   -0.7193 C   0  0  0  0  0  0  0  0  0  0  0  0
   -0.9392    1.7514   -0.5427 C   0  0  0  0  0  0  0  0  0  0  0  0
   -2.6444   -1.6460    1.4315 C   0  0  0  0  0  0  0  0  0  0  0  0
   -4.5936   -1.0470   -1.7447 C   0  0  0  0  0  0  0  0  0  0  0  0
    3.8861    1.8775   -0.5165 C   0  0  0  0  0  0  0  0  0  0  0  0
    5.1892    2.6290   -0.3474 C   0  0  0  0  0  0  0  0  0  0  0  0
  1  6  2  0
  1  7  2  0
  1 10  1  0
  1 19  1  0
  2  3  1  0
  2  4  1  0
  2  5  2  0
  2  8  1  0
  3 12  1  0
  4 20  1  0
  8  9  1  0
  9 13  1  0
  9 14  1  0
 10 11  2  0
 10 16  1  0
 11 15  1  0
 11 18  1  0
 12 15  2  0
 12 17  1  0
 16 17  2  0
 20 21  1  0
M  END
>  <PUBCHEM_COMPOUND_CID>  (1) 
36028

>  <PUBCHEM_CONFORMER_RMSD>  (1) 
0.8

>  <PUBCHEM_CONFORMER_DIVERSEORDER>  (1) 
1
33
196
29
163
184
87
111
180
14
187
167
149
68
44
198
2
161
83
162
150
103
91
202
19
101
140
139
99
46
182
165
183
56
72
124
75
154
133
189
138
81
143
40
96
208
3
146
82
21
126
151
90
148
134
38
63
191
51
199
60
108
206
142
49
201
67
64
203
32
34
122
102
58
158
128
43
132
190
42
59
37
155
80
54
106
15
52
76
95
144
73
31
45
136
141
186
61
118
200
35
172
147
47
20
98
194
204
114
41
125
26
104
66
71
153
100
127
74
179
79
169
115
18
131
178
77
159
130
116
121
30
10
181
119
171
22
173
185
117
176
105
93
166
195
112
65
193
12
92
69
24
16
5
27
53
50
88
120
205
28
177
207
39
97
7
85
188
70
164
62
78
23
135
168
17
192
160
25
94
55
197
107
137
48
156
11
174
57
175
36
157
110
152
84
4
170
123
8
86
129
89
113
6
13
145
9
109

>  <PUBCHEM_MMFF94_PARTIAL_CHARGES>  (1) 
22
1 1.2
10 -0.01
11 -0.14
12 0.08
15 -0.15
16 -0.15
17 -0.15
18 0.14
19 0.11
2 1.51
20 0.28
23 0.36
3 -0.35
30 0.15
31 0.15
32 0.15
4 -0.55
5 -0.7
6 -0.65
7 -0.65
8 -0.9
9 0.27

>  <PUBCHEM_EFFECTIVE_ROTOR_COUNT>  (1) 
7

>  <PUBCHEM_PHARMACOPHORE_FEATURES>  (1) 
5
1 5 acceptor
1 6 acceptor
1 7 acceptor
3 9 13 14 hydrophobe
6 10 11 12 15 16 17 rings

>  <PUBCHEM_HEAVY_ATOM_COUNT>  (1) 
21

>  <PUBCHEM_ATOM_DEF_STEREO_COUNT>  (1) 
0

>  <PUBCHEM_ATOM_UDEF_STEREO_COUNT>  (1) 
1

>  <PUBCHEM_BOND_DEF_STEREO_COUNT>  (1) 
0

>  <PUBCHEM_BOND_UDEF_STEREO_COUNT>  (1) 
0

>  <PUBCHEM_ISOTOPIC_ATOM_COUNT>  (1) 
0

>  <PUBCHEM_COMPONENT_COUNT>  (1) 
1

>  <PUBCHEM_CACTVS_TAUTO_COUNT>  (1) 
2

>  <PUBCHEM_CONFORMER_ID>  (1) 
00008CBC00000001

>  <PUBCHEM_MMFF94_ENERGY>  (1) 
26.6648

>  <PUBCHEM_FEATURE_SELFOVERLAP>  (1) 
25.389

>  <PUBCHEM_SHAPE_FINGERPRINT>  (1) 
10366900 7 18201154467890949296
12616999 72 18272928345437907096
13533116 47 18131354098748075203
13544592 145 18334297518074970347
13583140 156 16558164104440845161
13911882 115 18265348363530985506
13955234 65 18273493490277729816
15375358 24 18187925122531492401
15502722 9 18341621408499550676
15537594 2 17774723168583276447
18186145 218 17531243929304644925
18222031 100 14620790505395234473
20281475 54 18059850667044520517
20388580 30 17987524710918568662
20645477 70 18272654523882044982
21054139 6 17986098837230829846
21618674 68 18334293167305163876
22182313 1 18042421259923136739
23402539 116 17532364456081157048
23557571 272 17968386756794745400
23558518 356 18125163727793146712
23559900 14 18334296435806547686
23596394 208 18410019818886250350
239999 70 18408040698045995618
312423 11 17917442964502180576
34934 24 18040989695878756657
58051976 378 18187925122901088524
59755656 215 18334861628239455924
633830 44 18261947458539604199
960060 61 18343584027331649302
9709674 26 18407759226905186353

>  <PUBCHEM_SHAPE_MULTIPOLES>  (1) 
405.54
11.34
2.8
1.5
3.69
0.84
-0.09
-0.75
-3.27
-4.5
-0.7
-0.04
0.78
1.03

>  <PUBCHEM_SHAPE_SELFOVERLAP>  (1) 
787.509

>  <PUBCHEM_SHAPE_VOLUME>  (1) 
247.3

>  <PUBCHEM_COORDINATE_TYPE>  (1) 
2
5
10

$$$$
