36035
     RDKit          3D

 23 25  0  0  0  0  0  0  0  0999 V2000
    0.5756    0.1191   -0.3244 N   0  0  0  0  0  0  0  0  0  0  0  0
   -3.7612    0.4700    0.1799 N   0  0  0  0  0  0  0  0  0  0  0  0
    3.1852   -0.2294    1.1353 N   0  0  0  0  0  0  0  0  0  0  0  0
   -0.8044    0.5433   -0.5998 C   0  0  0  0  0  0  0  0  0  0  0  0
   -1.4319    1.1798    0.6400 C   0  0  0  0  0  0  0  0  0  0  0  0
   -2.8933    1.6053    0.4679 C   0  0  0  0  0  0  0  0  0  0  0  0
    0.7934   -1.2805   -0.4228 C   0  0  0  0  0  0  0  0  0  0  0  0
    1.5697    1.1310   -0.1894 C   0  0  0  0  0  0  0  0  0  0  0  0
    1.6226   -1.9534    0.4928 C   0  0  0  0  0  0  0  0  0  0  0  0
    2.8252    0.9171    0.4374 C   0  0  0  0  0  0  0  0  0  0  0  0
    2.2403   -1.1981    1.6306 C   0  0  0  0  0  0  0  0  0  0  0  0
   -5.1490    0.9089    0.0211 C   0  0  0  0  0  0  0  0  0  0  0  0
   -3.6653   -0.5348    1.2403 C   0  0  0  0  0  0  0  0  0  0  0  0
    0.1953   -2.0408   -1.4492 C   0  0  0  0  0  0  0  0  0  0  0  0
    1.3485    2.4077   -0.7709 C   0  0  0  0  0  0  0  0  0  0  0  0
    1.8432   -3.3355    0.3705 C   0  0  0  0  0  0  0  0  0  0  0  0
    3.7875    1.9564    0.4231 C   0  0  0  0  0  0  0  0  0  0  0  0
   -5.2799    1.9505   -1.0710 C   0  0  0  0  0  0  0  0  0  0  0  0
   -4.5096   -1.7532    0.9285 C   0  0  0  0  0  0  0  0  0  0  0  0
    0.4182   -3.4143   -1.5645 C   0  0  0  0  0  0  0  0  0  0  0  0
    1.2442   -4.0617   -0.6549 C   0  0  0  0  0  0  0  0  0  0  0  0
    2.3093    3.4205   -0.7567 C   0  0  0  0  0  0  0  0  0  0  0  0
    3.5365    3.1920   -0.1641 C   0  0  0  0  0  0  0  0  0  0  0  0
  1  4  1  0
  1  7  1  0
  1  8  1  0
  2  6  1  0
  2 12  1  0
  2 13  1  0
  3 10  1  0
  3 11  1  0
  4  5  1  0
  5  6  1  0
  7  9  2  0
  7 14  1  0
  8 10  2  0
  8 15  1  0
  9 11  1  0
  9 16  1  0
 10 17  1  0
 12 18  1  0
 13 19  1  0
 14 20  2  0
 15 22  2  0
 16 21  2  0
 17 23  2  0
 20 21  1  0
 22 23  1  0
M  END
>  <PUBCHEM_COMPOUND_CID>  (1) 
36035

>  <PUBCHEM_CONFORMER_RMSD>  (1) 
0.8

>  <PUBCHEM_CONFORMER_DIVERSEORDER>  (1) 
4
33
44
6
40
31
26
36
8
34
43
22
23
29
24
37
41
10
21
42
19
20
38
35
5
30
17
39
14
18
16
45
15
11
27
7
13
1
32
2
3
12
25
9
28

>  <PUBCHEM_MMFF94_PARTIAL_CHARGES>  (1) 
29
1 -0.57
10 0.1
11 0.51
12 0.27
13 0.27
14 -0.15
15 -0.15
16 -0.15
17 -0.15
2 -0.81
20 -0.15
21 -0.15
22 -0.15
23 -0.15
3 -0.87
36 0.4
37 0.15
38 0.15
39 0.15
4 0.37
40 0.15
47 0.15
48 0.15
49 0.15
50 0.15
6 0.27
7 0.1
8 0.1
9 -0.14

>  <PUBCHEM_EFFECTIVE_ROTOR_COUNT>  (1) 
6.6

>  <PUBCHEM_PHARMACOPHORE_FEATURES>  (1) 
7
1 1 cation
1 2 cation
1 3 cation
1 3 donor
6 7 9 14 16 20 21 rings
6 8 10 15 17 22 23 rings
7 1 3 7 8 9 10 11 rings

>  <PUBCHEM_HEAVY_ATOM_COUNT>  (1) 
23

>  <PUBCHEM_ATOM_DEF_STEREO_COUNT>  (1) 
0

>  <PUBCHEM_ATOM_UDEF_STEREO_COUNT>  (1) 
0

>  <PUBCHEM_BOND_DEF_STEREO_COUNT>  (1) 
0

>  <PUBCHEM_BOND_UDEF_STEREO_COUNT>  (1) 
0

>  <PUBCHEM_ISOTOPIC_ATOM_COUNT>  (1) 
0

>  <PUBCHEM_COMPONENT_COUNT>  (1) 
1

>  <PUBCHEM_CACTVS_TAUTO_COUNT>  (1) 
1

>  <PUBCHEM_CONFORMER_ID>  (1) 
00008CC300000004

>  <PUBCHEM_MMFF94_ENERGY>  (1) 
91.3895

>  <PUBCHEM_FEATURE_SELFOVERLAP>  (1) 
35.539

>  <PUBCHEM_SHAPE_FINGERPRINT>  (1) 
10616163 171 18337394950015821275
1100329 8 17402334170860280601
11578080 2 16734100129075361046
12553582 1 17763485923555949943
12633257 1 17895461540797926073
12788726 201 17620183669620341030
12839892 36 18338510949574582435
14790565 3 18192433184910029956
14866123 147 18195523929781583162
14955137 171 18338511942382142122
17138139 8 17413279693493605103
18681886 176 18339639044500415920
20157964 124 18338227186177349221
20197701 30 18340488983952030800
20645477 70 18409446947627122117
20715895 44 18191859025730360185
20739085 24 18336537240662061290
21197605 99 18118695550348530195
21315764 371 17202458126981868627
21524375 3 18193849355791510264
23419403 2 17605816050426824460
23558518 356 17542502091092526764
23559900 14 18338798893046366683
25147074 1 17611175349970499028
2748010 2 17260436217186543522
3060560 45 18411985737218738916
59755656 520 18195247952131292980
6438718 38 17340139144399331918
6669772 16 18271821163299124220
7364860 26 18340774732188806508
81228 2 17258486176789245328
8272917 22 18409730625653212173
9709674 26 18337111143072250803
9841814 1 17971196928332287057

>  <PUBCHEM_SHAPE_MULTIPOLES>  (1) 
458.39
8.5
4.94
1.3
13.54
2.69
-0.02
-5.83
1.48
-4.29
-1.72
0.07
0.62
0.39

>  <PUBCHEM_SHAPE_SELFOVERLAP>  (1) 
963.633

>  <PUBCHEM_SHAPE_VOLUME>  (1) 
254.9

>  <PUBCHEM_COORDINATE_TYPE>  (1) 
2
5
10

$$$$
