36030
     RDKit          3D

 21 22  0  0  1  0  0  0  0  0999 V2000
   -0.5119   -1.3157   -0.5241 O   0  0  0  0  0  0  0  0  0  0  0  0
    0.4212   -0.4636    1.3820 O   0  0  0  0  0  0  0  0  0  0  0  0
   -3.7147   -0.3227    0.2836 N   0  0  0  0  0  0  0  0  0  0  0  0
    1.6008   -0.5637   -0.6377 N   0  0  0  0  0  0  0  0  0  0  0  0
   -4.3416    0.9886    0.2192 C   0  0  0  0  0  0  0  0  0  0  0  0
   -2.3060   -0.2533    0.6785 C   0  0  0  0  0  0  0  0  0  0  0  0
   -1.7153   -1.5732    0.1858 C   0  0  0  0  0  0  0  0  0  0  0  0
   -3.7263   -1.0140   -1.0043 C   0  0  0  0  0  0  0  0  0  0  0  0
   -2.7664   -2.1653   -0.7498 C   0  0  0  0  0  0  0  0  0  0  0  0
   -5.7986    0.8124   -0.2215 C   0  0  0  0  0  0  0  0  0  0  0  0
   -4.2868    1.6247    1.6122 C   0  0  0  0  0  0  0  0  0  0  0  0
   -3.5882    1.8636   -0.7896 C   0  0  0  0  0  0  0  0  0  0  0  0
    0.5124   -0.7455    0.1934 C   0  0  0  0  0  0  0  0  0  0  0  0
    2.8608   -0.0111   -0.3136 C   0  0  0  0  0  0  0  0  0  0  0  0
    3.0628    1.3553   -0.4494 C   0  0  0  0  0  0  0  0  0  0  0  0
    3.8770   -0.8432    0.1349 C   0  0  0  0  0  0  0  0  0  0  0  0
    4.3066    1.9005   -0.1306 C   0  0  0  0  0  0  0  0  0  0  0  0
    5.1206   -0.2978    0.4538 C   0  0  0  0  0  0  0  0  0  0  0  0
    1.9808    2.2665   -0.9314 C   0  0  0  0  0  0  0  0  0  0  0  0
    3.6777   -2.3165    0.2875 C   0  0  0  0  0  0  0  0  0  0  0  0
    5.3353    1.0741    0.3210 C   0  0  0  0  0  0  0  0  0  0  0  0
  1  7  1  0
  1 13  1  0
  2 13  2  0
  3  5  1  0
  3  6  1  0
  3  8  1  0
  4 13  1  0
  4 14  1  0
  5 10  1  0
  5 11  1  0
  5 12  1  0
  6  7  1  0
  7  9  1  0
  8  9  1  0
 14 15  2  0
 14 16  1  0
 15 17  1  0
 15 19  1  0
 16 18  2  0
 16 20  1  0
 17 21  2  0
 18 21  1  0
M  END
>  <PUBCHEM_COMPOUND_CID>  (1) 
36030

>  <PUBCHEM_CONFORMER_RMSD>  (1) 
0.8

>  <PUBCHEM_CONFORMER_DIVERSEORDER>  (1) 
1
17
27
10
11
12
26
13
28
8
9
24
22
4
16
23
14
3
5
2
25
18
15
21
6
19
7
20

>  <PUBCHEM_MMFF94_PARTIAL_CHARGES>  (1) 
21
1 -0.43
13 0.78
14 0.12
15 -0.14
16 -0.14
17 -0.15
18 -0.15
19 0.14
2 -0.57
20 0.14
21 -0.15
3 -0.81
38 0.37
39 0.15
4 -0.55
40 0.15
47 0.15
5 0.27
6 0.27
7 0.28
8 0.27

>  <PUBCHEM_EFFECTIVE_ROTOR_COUNT>  (1) 
6

>  <PUBCHEM_PHARMACOPHORE_FEATURES>  (1) 
6
1 2 acceptor
1 3 cation
1 4 donor
4 5 10 11 12 hydrophobe
5 3 6 7 8 9 rings
6 14 15 16 17 18 21 rings

>  <PUBCHEM_HEAVY_ATOM_COUNT>  (1) 
21

>  <PUBCHEM_ATOM_DEF_STEREO_COUNT>  (1) 
0

>  <PUBCHEM_ATOM_UDEF_STEREO_COUNT>  (1) 
1

>  <PUBCHEM_BOND_DEF_STEREO_COUNT>  (1) 
0

>  <PUBCHEM_BOND_UDEF_STEREO_COUNT>  (1) 
0

>  <PUBCHEM_ISOTOPIC_ATOM_COUNT>  (1) 
0

>  <PUBCHEM_COMPONENT_COUNT>  (1) 
1

>  <PUBCHEM_CACTVS_TAUTO_COUNT>  (1) 
2

>  <PUBCHEM_CONFORMER_ID>  (1) 
00008CBE00000001

>  <PUBCHEM_MMFF94_ENERGY>  (1) 
78.8487

>  <PUBCHEM_FEATURE_SELFOVERLAP>  (1) 
30.446

>  <PUBCHEM_SHAPE_FINGERPRINT>  (1) 
10014705 185 18411980269509086563
10595046 47 18341609373284002959
10906281 52 18041009487942559724
11089746 13 17989200469670989480
11405975 8 18335138700305190370
12107183 9 18124031222084080554
12236239 1 18411415120263572795
12596602 18 14996294642460545356
12633257 1 18187080684964417476
12670546 56 18335693957792615334
13073987 5 18410854390771502354
13583140 156 18041290906419973475
13675066 3 17821734922384414794
15183329 4 18411418389160738582
15196674 1 18409730689813776277
15256400 18 18335983065021319092
15788980 27 18201441389128673394
15880784 105 13046240389197297293
1601671 61 18409167732088078508
17492 89 18410858801808949342
17818456 19 18058454209856940768
17844677 252 18337962280261287122
18186145 218 17530961406161079570
18335252 114 18264476314131030053
20157964 124 18411698751582820039
20511986 3 18200296801892777624
20645477 56 18335422357209416871
20715895 44 18198908015638685761
21033648 29 16950272993194313453
21033650 10 16629146311007455425
21304253 335 18411421747899322660
21315764 268 18261105253680926805
21421861 104 17895744103197967114
21503847 285 18040436590180197164
22393880 68 18059297685847233118
23227448 37 18410013264971839621
23402539 116 18342733035512514148
23402655 69 18412828014628111078
235170 7 13973687174547287873
23557571 272 17774446086941228287
23559900 14 17774448183492489246
268830 7 18334004008541925918
2838139 119 18044926888832267069
300161 21 18272364282929804570
351380 180 18260830393106455709
3545911 37 18411984663160267142
4214541 1 18411699910933787543
465052 167 11386373625144475328
474 4 18187085095784923992
5104073 3 18335418002128436154
543358 83 18410856547435675098
57724786 102 17241055413043667852
6328613 192 18335711593756910900
633830 44 17967250927192669578
8272917 22 18410857642705388462
9971528 1 18408886218366828990
9981440 41 17326614103416781608

>  <PUBCHEM_SHAPE_MULTIPOLES>  (1) 
410.47
13.12
2.41
1.05
0.68
0.05
-0.18
4.25
-0.94
-0.34
0.34
0.76
0.2
-1.1

>  <PUBCHEM_SHAPE_SELFOVERLAP>  (1) 
853.817

>  <PUBCHEM_SHAPE_VOLUME>  (1) 
237.7

>  <PUBCHEM_COORDINATE_TYPE>  (1) 
2
5
10

$$$$
