36032
     RDKit          3D

 19 20  0  0  0  0  0  0  0  0999 V2000
   -2.5985    0.2013   -0.0107 O   0  0  0  0  0  0  0  0  0  0  0  0
    1.6335   -2.6554    0.1572 O   0  0  0  0  0  0  0  0  0  0  0  0
   -5.7097    1.7880   -0.1367 O   0  0  0  0  0  0  0  0  0  0  0  0
   -3.6597    2.5848   -0.1142 O   0  0  0  0  0  0  0  0  0  0  0  0
   -4.4580    1.6026   -0.1012 N   0  0  0  0  0  0  0  0  0  0  0  0
    2.6383   -0.5377    0.0551 C   0  0  0  0  0  0  0  0  0  0  0  0
    4.8473    1.1632   -0.0450 C   0  0  0  0  0  0  0  0  0  0  0  0
    2.5506    0.7510    0.5814 C   0  0  0  0  0  0  0  0  0  0  0  0
    3.8305   -0.9761   -0.5213 C   0  0  0  0  0  0  0  0  0  0  0  0
    3.6550    1.6014    0.5313 C   0  0  0  0  0  0  0  0  0  0  0  0
    4.9350   -0.1257   -0.5714 C   0  0  0  0  0  0  0  0  0  0  0  0
    1.4869   -1.4247    0.1075 C   0  0  0  0  0  0  0  0  0  0  0  0
   -2.3646   -1.1053    0.0384 C   0  0  0  0  0  0  0  0  0  0  0  0
    0.1111   -0.8212    0.0687 C   0  0  0  0  0  0  0  0  0  0  0  0
   -0.9785   -1.6030    0.0875 C   0  0  0  0  0  0  0  0  0  0  0  0
    6.0281    2.0729   -0.0992 C   0  0  0  0  0  0  0  0  0  0  0  0
   -3.4633   -1.8728    0.0376 C   0  0  0  0  0  0  0  0  0  0  0  0
   -3.9530    0.3022   -0.0463 C   0  0  0  0  0  0  0  0  0  0  0  0
   -4.5311   -0.9457   -0.0186 C   0  0  0  0  0  0  0  0  0  0  0  0
  1 13  1  0
  1 18  1  0
  2 12  2  0
  3  5  1  0
  4  5  2  0
  5 18  1  0
  6  8  2  0
  6  9  1  0
  6 12  1  0
  7 10  2  0
  7 11  1  0
  7 16  1  0
  8 10  1  0
  9 11  2  0
 12 14  1  0
 13 15  1  0
 13 17  2  0
 14 15  2  0
 17 19  1  0
 18 19  2  0
M  CHG  2   3  -1   5   1
M  END
>  <PUBCHEM_COMPOUND_CID>  (1) 
36032

>  <PUBCHEM_CONFORMER_RMSD>  (1) 
0.6

>  <PUBCHEM_CONFORMER_DIVERSEORDER>  (1) 
1
13
7
14
18
16
3
17
19
5
9
10
8
4
2
11
6
15
12

>  <PUBCHEM_MMFF94_PARTIAL_CHARGES>  (1) 
27
1 -0.28
10 -0.15
11 -0.15
12 0.47
13 0.09
14 -0.14
15 -0.11
16 0.14
17 -0.15
18 0.22
19 -0.15
2 -0.57
20 0.15
21 0.15
22 0.15
23 0.15
24 0.15
25 0.15
26 0.15
3 -0.52
30 0.15
4 -0.52
5 0.96
6 0.09
7 -0.14
8 -0.15
9 -0.15

>  <PUBCHEM_EFFECTIVE_ROTOR_COUNT>  (1) 
4

>  <PUBCHEM_PHARMACOPHORE_FEATURES>  (1) 
7
1 1 acceptor
1 2 acceptor
1 3 acceptor
1 3 anion
1 4 acceptor
5 1 13 17 18 19 rings
6 6 7 8 9 10 11 rings

>  <PUBCHEM_HEAVY_ATOM_COUNT>  (1) 
19

>  <PUBCHEM_ATOM_DEF_STEREO_COUNT>  (1) 
0

>  <PUBCHEM_ATOM_UDEF_STEREO_COUNT>  (1) 
0

>  <PUBCHEM_BOND_DEF_STEREO_COUNT>  (1) 
0

>  <PUBCHEM_BOND_UDEF_STEREO_COUNT>  (1) 
1

>  <PUBCHEM_ISOTOPIC_ATOM_COUNT>  (1) 
0

>  <PUBCHEM_COMPONENT_COUNT>  (1) 
1

>  <PUBCHEM_CACTVS_TAUTO_COUNT>  (1) 
1

>  <PUBCHEM_CONFORMER_ID>  (1) 
00008CC000000001

>  <PUBCHEM_MMFF94_ENERGY>  (1) 
50.6376

>  <PUBCHEM_FEATURE_SELFOVERLAP>  (1) 
35.614

>  <PUBCHEM_SHAPE_FINGERPRINT>  (1) 
10014705 185 18409446973491702559
10378564 45 18200604609857429542
10498660 4 18412827971156543120
10670039 82 18260840306160111412
11595378 159 16733256846601527373
12107183 9 17974560299952660690
12390115 104 18341908372233293771
12403259 415 18130785728224218608
12596602 18 16878222073082175064
12916748 109 18336551615617304090
13073987 5 18260827128952650450
13740256 8 9295294945567299442
13785724 45 17976532820441674146
14251764 75 18196943167207150553
14252887 29 13479121385854980922
14528608 73 18341890809558366351
15196674 1 18411136935115421962
15537594 2 12175357919160619245
15778101 99 18410859858533401571
17834072 32 18340770347496650249
17844677 252 18410302436055398474
17959699 21 18412265034330376410
20281389 69 18333449837253731312
20645477 70 17489040305371181142
21033648 29 18271800276250781744
21279426 13 18341336604706810542
21315763 129 18339640144027321736
221357 26 18130505318330903137
22289505 5 18202567268103888148
23402655 69 18202002148938768262
23559900 14 18200309892943338746
245318 6 17026579284809373028
2916195 48 18270396234805155784
34797466 226 17845946215704357534
3545911 37 18410014312801473591
4028521 119 18343585148323394619
4214541 1 18411982464068426841
441001 317 18409448102704137027
465052 167 10953729003225061744
474 4 17822014228402692975
5104073 3 18113899338297898363
59682541 35 18187379723128096729
633830 44 18410006646195725494
7062679 6 18334299807445799460
77779 3 18411419518262740998
7808743 9 18337387253049376410
90127 26 18335712645401191658
9981440 41 18261393381419606651

>  <PUBCHEM_SHAPE_MULTIPOLES>  (1) 
362.55
14.03
2.56
0.67
0.21
0.59
0.01
8.7
-1.25
-1.19
0.01
0.3
0
0.48

>  <PUBCHEM_SHAPE_SELFOVERLAP>  (1) 
780.964

>  <PUBCHEM_SHAPE_VOLUME>  (1) 
200.1

>  <PUBCHEM_COORDINATE_TYPE>  (1) 
2
5
10

$$$$
