36044
     RDKit          3D

 22 24  0  0  1  0  0  0  0  0999 V2000
    0.0180    0.1252    0.9046 N   0  0  0  0  0  0  0  0  0  0  0  0
    3.3142   -1.2656   -0.1177 N   0  0  0  0  0  0  0  0  0  0  0  0
   -2.4168    1.0825   -0.5192 N   0  0  0  0  0  0  0  0  0  0  0  0
    1.3163   -0.5110    1.0779 C   0  0  0  0  0  0  0  0  0  0  0  0
    2.0003   -0.6549   -0.2756 C   0  0  0  0  0  0  0  0  0  0  0  0
   -1.1021   -0.3864    1.6811 C   0  0  0  0  0  0  0  0  0  0  0  0
   -0.0939    1.4121    0.3792 C   0  0  0  0  0  0  0  0  0  0  0  0
   -2.1343   -1.0050    0.7835 C   0  0  0  0  0  0  0  0  0  0  0  0
   -1.2733    1.8743   -0.2550 C   0  0  0  0  0  0  0  0  0  0  0  0
   -2.7663   -0.2465   -0.2131 C   0  0  0  0  0  0  0  0  0  0  0  0
    4.1648   -0.4438    0.7455 C   0  0  0  0  0  0  0  0  0  0  0  0
    3.9525   -1.4610   -1.4209 C   0  0  0  0  0  0  0  0  0  0  0  0
    0.9948    2.3124    0.4699 C   0  0  0  0  0  0  0  0  0  0  0  0
   -2.5139   -2.3429    0.9909 C   0  0  0  0  0  0  0  0  0  0  0  0
   -1.3253    3.2105   -0.7202 C   0  0  0  0  0  0  0  0  0  0  0  0
   -3.7703   -0.8615   -0.9865 C   0  0  0  0  0  0  0  0  0  0  0  0
    5.5152   -1.1020    0.9726 C   0  0  0  0  0  0  0  0  0  0  0  0
    3.0866   -2.3119   -2.3342 C   0  0  0  0  0  0  0  0  0  0  0  0
    0.9236    3.6226   -0.0055 C   0  0  0  0  0  0  0  0  0  0  0  0
   -0.2427    4.0759   -0.5955 C   0  0  0  0  0  0  0  0  0  0  0  0
   -3.5082   -2.9326    0.2138 C   0  0  0  0  0  0  0  0  0  0  0  0
   -4.1392   -2.1903   -0.7756 C   0  0  0  0  0  0  0  0  0  0  0  0
  1  4  1  0
  1  6  1  0
  1  7  1  0
  2  5  1  0
  2 11  1  0
  2 12  1  0
  3  9  1  0
  3 10  1  0
  4  5  1  0
  6  8  1  0
  7  9  2  0
  7 13  1  0
  8 10  2  0
  8 14  1  0
  9 15  1  0
 10 16  1  0
 11 17  1  0
 12 18  1  0
 13 19  2  0
 14 21  2  0
 15 20  2  0
 16 22  2  0
 19 20  1  0
 21 22  1  0
M  END
>  <PUBCHEM_COMPOUND_CID>  (1) 
36044

>  <PUBCHEM_CONFORMER_RMSD>  (1) 
0.8

>  <PUBCHEM_CONFORMER_DIVERSEORDER>  (1) 
5
2
23
4
6
7
17
20
3
1
13
9
10
16
11
14
21
8
15
22
18
19
12

>  <PUBCHEM_MMFF94_PARTIAL_CHARGES>  (1) 
29
1 -0.84
10 0.1
11 0.27
12 0.27
13 -0.15
14 -0.15
15 -0.15
16 -0.15
19 -0.15
2 -0.81
20 -0.15
21 -0.15
22 -0.15
3 -0.6
33 0.4
34 0.15
35 0.15
36 0.15
37 0.15
4 0.37
44 0.15
45 0.15
46 0.15
47 0.15
5 0.27
6 0.51
7 0.1
8 -0.14
9 0.1

>  <PUBCHEM_EFFECTIVE_ROTOR_COUNT>  (1) 
5.6

>  <PUBCHEM_PHARMACOPHORE_FEATURES>  (1) 
7
1 1 cation
1 2 cation
1 3 cation
1 3 donor
6 7 9 13 15 19 20 rings
6 8 10 14 16 21 22 rings
7 1 3 6 7 8 9 10 rings

>  <PUBCHEM_HEAVY_ATOM_COUNT>  (1) 
22

>  <PUBCHEM_ATOM_DEF_STEREO_COUNT>  (1) 
0

>  <PUBCHEM_ATOM_UDEF_STEREO_COUNT>  (1) 
0

>  <PUBCHEM_BOND_DEF_STEREO_COUNT>  (1) 
0

>  <PUBCHEM_BOND_UDEF_STEREO_COUNT>  (1) 
0

>  <PUBCHEM_ISOTOPIC_ATOM_COUNT>  (1) 
0

>  <PUBCHEM_COMPONENT_COUNT>  (1) 
1

>  <PUBCHEM_CACTVS_TAUTO_COUNT>  (1) 
1

>  <PUBCHEM_CONFORMER_ID>  (1) 
00008CCC00000005

>  <PUBCHEM_MMFF94_ENERGY>  (1) 
84.6134

>  <PUBCHEM_FEATURE_SELFOVERLAP>  (1) 
35.536

>  <PUBCHEM_SHAPE_FINGERPRINT>  (1) 
10764073 3 16181355696702306347
11477941 20 17978270181840612764
116883 192 18410848884987263073
12160290 23 17901122827654459680
12173636 292 17687179790502286308
12363563 72 18408890663130816866
12553582 1 18335998505233660427
12788726 201 18189906313625078656
133893 2 17976283522446581321
13544653 18 17775568649627203706
13583140 156 15626215797647803538
13681431 1 18267877253011922937
14790565 3 17977664204346662805
15475509 8 18270404880848492805
15502722 9 17977666742597325515
17357779 13 18271794727063383663
1813 80 18341347655241295211
20645477 70 17904186376640393191
20671657 53 18337672026503162587
20693207 138 17700990842469530958
21304303 282 17539656163730200404
21524375 3 17034169887806244712
21728266 224 18116134611689345114
23114952 82 17899692655258286629
23419403 2 17773006800424669480
23557571 272 18270677555078693096
23559900 14 18192697059236770993
26353 1 18335154097530630364
4280585 95 18337093666280968642
5262128 65 18337670948729946379
6669772 16 17474680923904436276
6913067 236 18130490995158569186
7364860 26 17976817906846790745
81228 2 18267879293147736736
84936 31 17841991384148694841
9709674 26 18126563415048691006

>  <PUBCHEM_SHAPE_MULTIPOLES>  (1) 
437.81
8.13
4.53
1.47
6.23
4.88
-0.37
-9.08
-0.86
-1.28
-1.26
0.9
-0.93
1.11

>  <PUBCHEM_SHAPE_SELFOVERLAP>  (1) 
924.583

>  <PUBCHEM_SHAPE_VOLUME>  (1) 
241.9

>  <PUBCHEM_COORDINATE_TYPE>  (1) 
2
5
10

$$$$
