36052
     RDKit          3D

 12 11  0  0  1  0  0  0  0  0999 V2000
   -2.3951   -0.3866   -0.1906 O   0  0  0  0  0  0  0  0  0  0  0  0
   -0.0083   -1.4484    0.8089 O   0  0  0  0  0  0  0  0  0  0  0  0
    2.4168   -0.4157   -0.1892 O   0  0  0  0  0  0  0  0  0  0  0  0
   -3.7735    1.4207    0.2224 O   0  0  0  0  0  0  0  0  0  0  0  0
    4.6129   -0.6959   -0.2555 O   0  0  0  0  0  0  0  0  0  0  0  0
    3.8113    1.3895    0.1892 O   0  0  0  0  0  0  0  0  0  0  0  0
    0.0035   -0.4179   -0.1817 C   0  0  0  0  0  0  0  0  0  0  0  0
   -1.2467    0.4310    0.0082 C   0  0  0  0  0  0  0  0  0  0  0  0
    1.2714    0.4109   -0.0101 C   0  0  0  0  0  0  0  0  0  0  0  0
   -3.6013    0.2408   -0.0522 C   0  0  0  0  0  0  0  0  0  0  0  0
   -4.7125   -0.7366   -0.2886 C   0  0  0  0  0  0  0  0  0  0  0  0
    3.6216    0.2083   -0.0608 C   0  0  0  0  0  0  0  0  0  0  0  0
  1  8  1  0
  1 10  1  0
  2  7  1  0
  3  9  1  0
  3 12  1  0
  4 10  2  0
  5 12  1  0
  6 12  2  0
  7  8  1  0
  7  9  1  0
 10 11  1  0
M  END
>  <PUBCHEM_COMPOUND_CID>  (1) 
36052

>  <PUBCHEM_CONFORMER_RMSD>  (1) 
0.6

>  <PUBCHEM_CONFORMER_DIVERSEORDER>  (1) 
1
155
302
50
85
110
183
16
334
22
412
319
447
403
4
441
159
413
209
421
193
119
410
68
90
131
199
37
107
180
355
267
339
78
271
18
77
100
265
404
300
416
264
371
126
383
379
400
185
342
318
53
437
63
187
34
142
326
207
444
56
382
41
257
351
79
428
46
228
275
66
348
387
95
108
303
222
28
176
146
137
54
435
177
128
276
104
407
124
20
336
274
91
116
89
149
134
103
55
182
442
411
217
237
19
196
338
299
136
139
47
366
347
69
354
132
270
443
247
415
323
81
263
335
252
392
251
76
13
154
362
194
393
440
7
284
424
288
388
408
245
223
113
143
294
32
249
190
368
138
242
87
291
417
11
102
216
118
234
250
240
289
375
337
179
86
109
164
304
43
175
150
254
268
372
122
277
406
14
147
62
402
27
83
232
233
191
419
72
135
218
213
219
312
235
329
98
356
161
438
120
92
238
133
158
286
405
174
21
349
295
170
426
282
401
350
45
162
236
115
269
325
395
376
165
125
111
390
197
141
51
279
229
184
105
10
203
446
391
436
29
433
385
432
168
80
434
6
389
358
414
423
130
151
40
360
430
26
260
211
44
280
202
212
320
258
153
345
9
301
123
214
8
328
248
314
129
99
36
315
121
306
262
231
200
160
373
445
418
253
333
422
192
357
321
377
384
310
140
346
309
166
398
230
82
38
71
35
49
397
272
186
352
157
178
363
256
330
370
3
266
61
57
431
148
173
117
420
221
188
25
220
285
386
344
224
208
261
163
204
273
144
101
305
88
296
259
227
96
439
381
58
425
167
73
225
23
64
374
278
210
243
396
2
215
75
293
369
226
298
205
246
114
399
359
311
332
31
380
367
327
317
307
195
48
33
70
255
171
189
341
172
30
152
106
39
313
24
287
67
292
331
427
206
15
169
17
52
12
361
112
429
353
394
97
42
281
340
364
283
322
198
244
201
324
5
145
239
241
93
84
409
127
316
181
94
308
65
378
60
59
290
343
297
365
156
74

>  <PUBCHEM_MMFF94_PARTIAL_CHARGES>  (1) 
14
1 -0.43
10 0.66
11 0.06
12 0.87
18 0.4
2 -0.68
22 0.5
3 -0.43
4 -0.57
5 -0.65
6 -0.57
7 0.28
8 0.28
9 0.28

>  <PUBCHEM_EFFECTIVE_ROTOR_COUNT>  (1) 
6

>  <PUBCHEM_PHARMACOPHORE_FEATURES>  (1) 
6
1 2 acceptor
1 2 donor
1 4 acceptor
1 5 acceptor
1 6 acceptor
3 5 6 12 anion

>  <PUBCHEM_HEAVY_ATOM_COUNT>  (1) 
12

>  <PUBCHEM_ATOM_DEF_STEREO_COUNT>  (1) 
0

>  <PUBCHEM_ATOM_UDEF_STEREO_COUNT>  (1) 
1

>  <PUBCHEM_BOND_DEF_STEREO_COUNT>  (1) 
0

>  <PUBCHEM_BOND_UDEF_STEREO_COUNT>  (1) 
0

>  <PUBCHEM_ISOTOPIC_ATOM_COUNT>  (1) 
0

>  <PUBCHEM_COMPONENT_COUNT>  (1) 
1

>  <PUBCHEM_CACTVS_TAUTO_COUNT>  (1) 
1

>  <PUBCHEM_CONFORMER_ID>  (1) 
00008CD400000001

>  <PUBCHEM_MMFF94_ENERGY>  (1) 
16.636

>  <PUBCHEM_FEATURE_SELFOVERLAP>  (1) 
30.504

>  <PUBCHEM_SHAPE_FINGERPRINT>  (1) 
11062470 55 17917993884183490860
12346645 44 18335419032915058403
124424 183 13623527970218541671
13081056 2 18411136943705707404
14123238 8 17703790348943698005
14325111 11 18409729560231868687
17834076 25 13406790021895477135
18186145 218 18334571335061740732
20645477 70 18131356276349677214
20719005 15 18413388743540186375
23402539 116 18271801306911063628
23402655 69 18273496762726570692
265663 24 18342736316756998775
366044 4 18260266360694850794
42788 4 18413951689203915125
4990 188 18272093773009869038

>  <PUBCHEM_SHAPE_MULTIPOLES>  (1) 
211.74
9.83
1.15
0.64
0.34
0.12
0.02
0.54
-0.74
-0.1
0.14
-0.05
-0.07
-0.04

>  <PUBCHEM_SHAPE_SELFOVERLAP>  (1) 
402.802

>  <PUBCHEM_SHAPE_VOLUME>  (1) 
129.5

>  <PUBCHEM_COORDINATE_TYPE>  (1) 
2
5
10

$$$$
