36050
     RDKit          3D

 19 18  0  0  1  0  0  0  0  0999 V2000
   -0.5456    0.9809    0.5423 O   0  0  0  0  0  0  0  0  0  0  0  0
   -2.3703    1.0300    1.9421 O   0  0  0  0  0  0  0  0  0  0  0  0
    3.5899    0.1423    0.1167 N   0  0  0  0  0  0  0  0  0  0  0  0
   -2.6799    0.5377   -0.4340 C   0  0  0  0  0  0  0  0  0  0  0  0
   -2.1699   -0.8051   -1.0357 C   0  0  0  0  0  0  0  0  0  0  0  0
   -2.4676    1.6516   -1.4992 C   0  0  0  0  0  0  0  0  0  0  0  0
   -2.2306   -2.0149   -0.0924 C   0  0  0  0  0  0  0  0  0  0  0  0
   -4.1750    0.4241   -0.0795 C   0  0  0  0  0  0  0  0  0  0  0  0
   -1.8771    0.8772    0.8308 C   0  0  0  0  0  0  0  0  0  0  0  0
   -1.6397   -3.2603   -0.7574 C   0  0  0  0  0  0  0  0  0  0  0  0
   -2.8568    3.0603   -1.0629 C   0  0  0  0  0  0  0  0  0  0  0  0
    1.7448    1.3709    1.1566 C   0  0  0  0  0  0  0  0  0  0  0  0
    0.3061    1.2932    1.6491 C   0  0  0  0  0  0  0  0  0  0  0  0
    2.2046    0.0446    0.5598 C   0  0  0  0  0  0  0  0  0  0  0  0
   -1.7247   -4.4730    0.1559 C   0  0  0  0  0  0  0  0  0  0  0  0
    3.7333    1.1836   -0.9024 C   0  0  0  0  0  0  0  0  0  0  0  0
    4.0571   -1.1441   -0.4033 C   0  0  0  0  0  0  0  0  0  0  0  0
    5.1838    1.3418   -1.3256 C   0  0  0  0  0  0  0  0  0  0  0  0
    3.9175   -2.2408    0.6388 C   0  0  0  0  0  0  0  0  0  0  0  0
  1  9  1  0
  1 13  1  0
  2  9  2  0
  3 14  1  0
  3 16  1  0
  3 17  1  0
  4  5  1  0
  4  6  1  0
  4  8  1  0
  4  9  1  0
  5  7  1  0
  6 11  1  0
  7 10  1  0
 10 15  1  0
 12 13  1  0
 12 14  1  0
 16 18  1  0
 17 19  1  0
M  END
>  <PUBCHEM_COMPOUND_CID>  (1) 
36050

>  <PUBCHEM_CONFORMER_RMSD>  (1) 
1.2

>  <PUBCHEM_CONFORMER_DIVERSEORDER>  (1) 
1
133
72
77
154
20
161
60
129
85
163
56
91
65
42
100
37
147
150
148
130
122
98
58
101
44
105
86
124
31
93
51
110
15
48
63
158
109
107
160
164
167
43
95
64
76
73
27
74
89
79
155
162
45
153
92
131
103
118
149
11
38
123
82
144
159
135
28
156
96
33
138
52
22
84
116
39
47
88
140
29
36
14
66
119
70
125
99
94
7
152
19
141
87
165
104
132
62
90
67
75
61
136
55
166
117
9
40
71
134
26
24
113
137
139
17
142
54
114
112
115
146
21
41
127
143
10
18
50
6
106
5
35
97
78
83
120
81
57
126
32
25
16
46
111
13
49
30
145
157
121
108
69
4
34
102
3
59
128
12
53
68
2
80
151
8
23

>  <PUBCHEM_MMFF94_PARTIAL_CHARGES>  (1) 
9
1 -0.43
13 0.28
14 0.27
16 0.27
17 0.27
2 -0.57
3 -0.81
4 0.06
9 0.66

>  <PUBCHEM_EFFECTIVE_ROTOR_COUNT>  (1) 
12

>  <PUBCHEM_PHARMACOPHORE_FEATURES>  (1) 
6
1 11 hydrophobe
1 15 hydrophobe
1 2 acceptor
1 3 cation
1 8 hydrophobe
5 4 5 6 7 10 hydrophobe

>  <PUBCHEM_HEAVY_ATOM_COUNT>  (1) 
19

>  <PUBCHEM_ATOM_DEF_STEREO_COUNT>  (1) 
0

>  <PUBCHEM_ATOM_UDEF_STEREO_COUNT>  (1) 
1

>  <PUBCHEM_BOND_DEF_STEREO_COUNT>  (1) 
0

>  <PUBCHEM_BOND_UDEF_STEREO_COUNT>  (1) 
0

>  <PUBCHEM_ISOTOPIC_ATOM_COUNT>  (1) 
0

>  <PUBCHEM_COMPONENT_COUNT>  (1) 
1

>  <PUBCHEM_CACTVS_TAUTO_COUNT>  (1) 
1

>  <PUBCHEM_CONFORMER_ID>  (1) 
00008CD200000001

>  <PUBCHEM_MMFF94_ENERGY>  (1) 
23.8576

>  <PUBCHEM_FEATURE_SELFOVERLAP>  (1) 
30.483

>  <PUBCHEM_SHAPE_FINGERPRINT>  (1) 
10759866 29 18409452514142277350
10803635 8 18264484001736893326
12363563 72 16845563202262256344
12553582 1 17775290417814967088
12841375 5 16603506048257066827
13631057 29 18125162886322084038
14251751 93 18115019710576399715
14251757 5 18340772632002578966
15463212 79 18114454647752140114
17859628 97 18196650688159873147
20645476 183 18262508191857728371
20693207 138 18058160794592046352
20871999 31 18412259558200003989
21665056 4 18339633456700165751
22393880 68 18410860997280159516
23559900 14 18202273702963018840
238078 22 18129111176494867856
312425 83 18114458973063951284
4921388 177 18199767966838208380
57210444 14 18194107526570896597
58051976 100 18341054128522918716
633830 44 16950285083727919104
81228 2 17907270485318333195

>  <PUBCHEM_SHAPE_MULTIPOLES>  (1) 
374.29
8.98
4.08
1.5
10.55
5.14
-0.28
-1.44
2.83
-3.22
0.7
-0.06
-0.86
-0.44

>  <PUBCHEM_SHAPE_SELFOVERLAP>  (1) 
699.877

>  <PUBCHEM_SHAPE_VOLUME>  (1) 
235.7

>  <PUBCHEM_COORDINATE_TYPE>  (1) 
2
5
10

$$$$
