36062
     RDKit          3D

 21 22  0  0  1  0  0  0  0  0999 V2000
    1.1158    0.1790   -0.0723 O   0  0  0  0  0  0  0  0  0  0  0  0
    3.9271    0.4506   -0.2777 N   0  0  0  0  0  0  0  0  0  0  0  0
   -0.0997    0.1197    0.6616 C   0  0  0  0  0  0  0  0  0  0  0  0
   -0.7886   -1.1979    0.2919 C   0  0  0  0  0  0  0  0  0  0  0  0
   -0.9832    1.3252    0.3164 C   0  0  0  0  0  0  0  0  0  0  0  0
    0.3454    0.2297    2.1337 C   0  0  0  0  0  0  0  0  0  0  0  0
   -1.1422   -1.4354   -1.0159 C   0  0  0  0  0  0  0  0  0  0  0  0
    1.9592   -0.9260    0.2252 C   0  0  0  0  0  0  0  0  0  0  0  0
   -1.0264   -2.1001    1.3040 C   0  0  0  0  0  0  0  0  0  0  0  0
    3.2358   -0.7997   -0.5906 C   0  0  0  0  0  0  0  0  0  0  0  0
   -2.3480    1.1698    0.3565 C   0  0  0  0  0  0  0  0  0  0  0  0
   -0.3730    2.5102   -0.0181 C   0  0  0  0  0  0  0  0  0  0  0  0
   -1.7684   -2.6417   -1.3299 C   0  0  0  0  0  0  0  0  0  0  0  0
   -0.8805   -0.4491   -2.1065 C   0  0  0  0  0  0  0  0  0  0  0  0
   -1.6524   -3.3063    0.9899 C   0  0  0  0  0  0  0  0  0  0  0  0
   -2.0235   -3.5770   -0.3270 C   0  0  0  0  0  0  0  0  0  0  0  0
   -3.1515    2.2659    0.0428 C   0  0  0  0  0  0  0  0  0  0  0  0
   -1.1767    3.6064   -0.3317 C   0  0  0  0  0  0  0  0  0  0  0  0
   -2.5660    3.4841   -0.3011 C   0  0  0  0  0  0  0  0  0  0  0  0
    4.2650    0.5058    1.1441 C   0  0  0  0  0  0  0  0  0  0  0  0
    5.1320    0.5867   -1.0952 C   0  0  0  0  0  0  0  0  0  0  0  0
  1  3  1  0
  1  8  1  0
  2 10  1  0
  2 20  1  0
  2 21  1  0
  3  4  1  0
  3  5  1  0
  3  6  1  0
  4  7  2  0
  4  9  1  0
  5 11  2  0
  5 12  1  0
  7 13  1  0
  7 14  1  0
  8 10  1  0
  9 15  2  0
 11 17  1  0
 12 18  2  0
 13 16  2  0
 15 16  1  0
 17 19  2  0
 18 19  1  0
M  END
>  <PUBCHEM_COMPOUND_CID>  (1) 
36062

>  <PUBCHEM_CONFORMER_RMSD>  (1) 
0.8

>  <PUBCHEM_CONFORMER_DIVERSEORDER>  (1) 
3
23
22
11
16
10
13
2
8
20
21
9
12
14
26
19
24
6
15
25
7
17
18
1
5
4

>  <PUBCHEM_MMFF94_PARTIAL_CHARGES>  (1) 
29
1 -0.56
10 0.27
11 -0.15
12 -0.15
13 -0.15
14 0.14
15 -0.15
16 -0.15
17 -0.15
18 -0.15
19 -0.15
2 -0.81
20 0.27
21 0.27
27 0.15
3 0.57
30 0.15
31 0.15
32 0.15
36 0.15
37 0.15
38 0.15
39 0.15
4 -0.14
40 0.15
5 -0.14
7 -0.14
8 0.28
9 -0.15

>  <PUBCHEM_EFFECTIVE_ROTOR_COUNT>  (1) 
6

>  <PUBCHEM_PHARMACOPHORE_FEATURES>  (1) 
4
1 1 acceptor
1 2 cation
6 4 7 9 13 15 16 rings
6 5 11 12 17 18 19 rings

>  <PUBCHEM_HEAVY_ATOM_COUNT>  (1) 
21

>  <PUBCHEM_ATOM_DEF_STEREO_COUNT>  (1) 
0

>  <PUBCHEM_ATOM_UDEF_STEREO_COUNT>  (1) 
1

>  <PUBCHEM_BOND_DEF_STEREO_COUNT>  (1) 
0

>  <PUBCHEM_BOND_UDEF_STEREO_COUNT>  (1) 
0

>  <PUBCHEM_ISOTOPIC_ATOM_COUNT>  (1) 
0

>  <PUBCHEM_COMPONENT_COUNT>  (1) 
1

>  <PUBCHEM_CACTVS_TAUTO_COUNT>  (1) 
1

>  <PUBCHEM_CONFORMER_ID>  (1) 
00008CDE00000003

>  <PUBCHEM_MMFF94_ENERGY>  (1) 
87.2608

>  <PUBCHEM_FEATURE_SELFOVERLAP>  (1) 
20.297

>  <PUBCHEM_SHAPE_FINGERPRINT>  (1) 
10670039 82 18046919457611472356
10871710 139 18048337805481747852
10948715 1 18120940503477293157
1100329 8 18336546144256152297
11578080 2 17130417115395901145
11833330 49 18337104691382655753
12173636 292 18337104549653996820
12532896 13 18267576914649449066
12553582 1 18121788493473523658
12592029 89 17690002236786951107
12714826 92 18059582446437203170
12788726 201 18335135427292054546
13149001 5 17702927185119220568
13681431 1 17619335950186315123
14178342 30 18334848429694211506
14181834 199 16399111736999715863
14790565 3 18339366254053514129
14840074 17 17118022467352006456
15131766 46 15649056056403721836
15163728 17 17760678882981197404
15906896 17 18409169887491851827
16945 1 18271508841345163795
17357779 13 17844229938140782174
17539 30 18341606074690915575
1813 80 17767710582063351918
20101258 96 18193290804068924232
20645476 183 18265896865309030502
21041028 32 18047762782148124403
21304303 282 17831534826815826092
21524375 3 18051129194557298936
22620623 9 18202002165833814030
23175994 123 18048879894399340367
23227448 37 18410860988268673316
23419403 2 17058915839797324347
23557571 272 18272098222917669644
23559900 14 18059572431127304818
23566358 27 16899059162780375503
25265897 201 17907341772980018884
2748010 2 17910651478555856681
298252 57 18191588553631180688
3187 122 17906986798112030480
394222 165 17832704573990812763
5845 1 11996306243128488667
6138700 20 17042613011990442718
81228 2 18269254911322476737
81539 233 17832987144305794941

>  <PUBCHEM_SHAPE_MULTIPOLES>  (1) 
421.32
5.97
4.56
1.51
11.33
0.04
0.01
2.37
-1.05
-5.92
-0.29
0.15
-0.59
-0.02

>  <PUBCHEM_SHAPE_SELFOVERLAP>  (1) 
891.499

>  <PUBCHEM_SHAPE_VOLUME>  (1) 
237.7

>  <PUBCHEM_COORDINATE_TYPE>  (1) 
2
5
10

$$$$
