36073
     RDKit          3D

 22 23  0  0  1  0  0  0  0  0999 V2000
    2.2718   -0.6080   -2.4813 Cl  0  0  0  0  0  0  0  0  0  0  0  0
   -0.2793    0.9284    0.8249 O   0  0  0  0  0  0  0  0  0  0  0  0
    1.5924    2.1521    0.3458 O   0  0  0  0  0  0  0  0  0  0  0  0
   -3.1228    0.4237    0.1679 N   0  0  0  0  0  0  0  0  0  0  0  0
    1.6300   -0.1864    0.4456 N   0  0  0  0  0  0  0  0  0  0  0  0
   -1.1536    1.9364    0.3202 C   0  0  0  0  0  0  0  0  0  0  0  0
   -2.5783    1.6375    0.7984 C   0  0  0  0  0  0  0  0  0  0  0  0
   -1.0684    1.9914   -1.2034 C   0  0  0  0  0  0  0  0  0  0  0  0
   -3.1244    0.5356   -1.2963 C   0  0  0  0  0  0  0  0  0  0  0  0
   -1.7097    0.7571   -1.8316 C   0  0  0  0  0  0  0  0  0  0  0  0
   -4.4720    0.1508    0.6627 C   0  0  0  0  0  0  0  0  0  0  0  0
   -4.9838   -1.1760    0.1044 C   0  0  0  0  0  0  0  0  0  0  0  0
   -6.3859   -1.4914    0.6267 C   0  0  0  0  0  0  0  0  0  0  0  0
    1.0523    1.0663    0.5177 C   0  0  0  0  0  0  0  0  0  0  0  0
   -6.9167   -2.7931    0.0476 C   0  0  0  0  0  0  0  0  0  0  0  0
    2.9756   -0.5089    0.1568 C   0  0  0  0  0  0  0  0  0  0  0  0
    3.8824   -0.6070    1.2036 C   0  0  0  0  0  0  0  0  0  0  0  0
    3.3742   -0.7221   -1.1556 C   0  0  0  0  0  0  0  0  0  0  0  0
    5.2133   -0.9245    0.9323 C   0  0  0  0  0  0  0  0  0  0  0  0
    3.4731   -0.3814    2.6232 C   0  0  0  0  0  0  0  0  0  0  0  0
    4.7051   -1.0396   -1.4267 C   0  0  0  0  0  0  0  0  0  0  0  0
    5.6247   -1.1408   -0.3827 C   0  0  0  0  0  0  0  0  0  0  0  0
  1 18  1  0
  2  6  1  0
  2 14  1  0
  3 14  2  0
  4  7  1  0
  4  9  1  0
  4 11  1  0
  5 14  1  0
  5 16  1  0
  6  7  1  0
  6  8  1  0
  8 10  1  0
  9 10  1  0
 11 12  1  0
 12 13  1  0
 13 15  1  0
 16 17  2  0
 16 18  1  0
 17 19  1  0
 17 20  1  0
 18 21  2  0
 19 22  2  0
 21 22  1  0
M  END
>  <PUBCHEM_COMPOUND_CID>  (1) 
36073

>  <PUBCHEM_CONFORMER_RMSD>  (1) 
0.8

>  <PUBCHEM_CONFORMER_DIVERSEORDER>  (1) 
3
128
43
136
165
103
228
274
255
109
210
302
251
230
288
253
131
6
125
196
259
166
41
77
197
19
38
149
111
279
58
312
256
194
294
24
75
88
37
231
118
307
154
32
59
108
73
221
35
285
28
171
16
101
12
247
30
222
205
15
26
44
8
278
202
207
100
190
42
248
304
112
140
281
276
162
246
303
137
13
113
91
11
169
36
78
227
240
40
184
267
82
170
141
134
182
293
257
95
102
63
270
156
34
306
254
143
185
72
81
146
49
18
79
241
219
313
150
290
98
233
265
17
106
284
132
64
305
297
55
291
286
135
116
33
266
138
244
133
160
236
198
273
61
242
250
179
97
163
237
158
144
211
119
212
187
21
262
130
183
86
89
199
193
139
29
239
161
186
295
120
155
309
209
87
62
220
229
175
48
308
263
127
298
164
181
84
117
176
300
224
105
94
114
96
217
261
243
299
5
216
264
245
147
213
311
83
301
148
68
226
76
232
192
167
124
174
258
215
152
67
172
22
275
191
45
282
269
52
249
14
85
70
31
292
20
234
69
200
142
93
289
110
74
122
260
218
65
54
287
203
92
121
90
27
208
206
60
157
153
177
51
159
46
201
238
314
2
80
39
235
56
104
47
296
188
223
168
277
115
57
53
129
280
107
1
50
173
268
195
283
23
252
9
180
25
310
178
225
4
7
271
66
99
151
10
204
189
272
71
126
123
145
214

>  <PUBCHEM_MMFF94_PARTIAL_CHARGES>  (1) 
21
1 -0.18
11 0.27
14 0.78
16 0.12
17 -0.14
18 0.18
19 -0.15
2 -0.43
20 0.14
21 -0.15
22 -0.15
3 -0.57
4 -0.81
41 0.37
42 0.15
46 0.15
47 0.15
5 -0.55
6 0.28
7 0.27
9 0.27

>  <PUBCHEM_EFFECTIVE_ROTOR_COUNT>  (1) 
8.2

>  <PUBCHEM_PHARMACOPHORE_FEATURES>  (1) 
6
1 15 hydrophobe
1 3 acceptor
1 4 cation
1 5 donor
6 16 17 18 19 21 22 rings
6 4 6 7 8 9 10 rings

>  <PUBCHEM_HEAVY_ATOM_COUNT>  (1) 
22

>  <PUBCHEM_ATOM_DEF_STEREO_COUNT>  (1) 
1

>  <PUBCHEM_ATOM_UDEF_STEREO_COUNT>  (1) 
0

>  <PUBCHEM_BOND_DEF_STEREO_COUNT>  (1) 
0

>  <PUBCHEM_BOND_UDEF_STEREO_COUNT>  (1) 
0

>  <PUBCHEM_ISOTOPIC_ATOM_COUNT>  (1) 
0

>  <PUBCHEM_COMPONENT_COUNT>  (1) 
1

>  <PUBCHEM_CACTVS_TAUTO_COUNT>  (1) 
2

>  <PUBCHEM_CONFORMER_ID>  (1) 
00008CE900000003

>  <PUBCHEM_MMFF94_ENERGY>  (1) 
60.788

>  <PUBCHEM_FEATURE_SELFOVERLAP>  (1) 
30.446

>  <PUBCHEM_SHAPE_FINGERPRINT>  (1) 
10042902 136 18263928907474328935
10498660 4 11530488821730975510
10692045 39 12678918800064338893
11069576 57 16951109678177290402
11552529 35 14475519773305627364
12035758 1 17131535164968040082
12633257 1 14261343648425524793
12892183 10 16630537198059840993
13675066 3 17417809513532365401
14123256 34 18411143558530447235
14251751 18 18260544528820692895
14251764 30 18413394215508343879
14341114 176 15769774633240573760
15183329 4 15068613890907682903
15238133 3 11672059753028087914
1813 80 18408610275060426853
18222031 100 18187645834188974913
193927 3 18342458153706358417
200 152 16733272256996776868
20028762 73 18272652398227408463
20775438 99 16808703363426071259
21315759 148 17846781771685265786
21637258 2 18335419093324220791
21774942 28 13262938716199338094
221357 26 14707205509051508871
23016692 55 18186803591302682803
23402539 116 16515689883780523236
23557571 272 18126561215841462332
2748736 6 10519719852024660867
2838139 119 8718554870150443067
3004659 81 18187365458734409091
312425 54 17489321763205056251
3388396 114 16734135450844446604
351380 3 18333449854929693787
4325135 7 18336551607444049052
465052 167 18271813462069372991
5104073 3 17273981233667187162
5385378 56 11023843755093761917
57724786 102 12967127224701153240
59682541 52 14779535786384189083
7970288 3 18411982425214060219

>  <PUBCHEM_SHAPE_MULTIPOLES>  (1) 
432.92
14.94
2.16
1.96
13.32
0.05
0.33
-13.93
-1.24
3.22
-0.03
-2.26
-0.09
0.32

>  <PUBCHEM_SHAPE_SELFOVERLAP>  (1) 
875.672

>  <PUBCHEM_SHAPE_VOLUME>  (1) 
253.5

>  <PUBCHEM_COORDINATE_TYPE>  (1) 
2
5
10

$$$$
