36078
     RDKit          3D

 12 13  0  0  0  0  0  0  0  0999 V2000
   -4.0529    0.1153    0.0041 Cl  0  0  0  0  0  0  0  0  0  0  0  0
    1.8895   -0.2793    0.0010 N   0  0  0  0  0  0  0  0  0  0  0  0
    2.1465    1.2025   -0.3785 C   0  0  0  0  0  0  0  0  0  0  0  0
    0.4065   -0.3495   -0.0104 C   0  0  0  0  0  0  0  0  0  0  0  0
    0.8933    1.9795    0.0337 C   0  0  0  0  0  0  0  0  0  0  0  0
   -0.1571    0.9249   -0.0169 C   0  0  0  0  0  0  0  0  0  0  0  0
    2.3968   -0.5913    1.3950 C   0  0  0  0  0  0  0  0  0  0  0  0
    2.4925   -1.2128   -1.0256 C   0  0  0  0  0  0  0  0  0  0  0  0
   -0.3791   -1.4933    0.0047 C   0  0  0  0  0  0  0  0  0  0  0  0
   -1.5319    1.0893   -0.0068 C   0  0  0  0  0  0  0  0  0  0  0  0
   -1.7658   -1.3336    0.0032 C   0  0  0  0  0  0  0  0  0  0  0  0
   -2.3384   -0.0516   -0.0036 C   0  0  0  0  0  0  0  0  0  0  0  0
  1 12  1  0
  2  3  1  0
  2  4  1  0
  2  7  1  0
  2  8  1  0
  3  5  1  0
  4  6  2  0
  4  9  1  0
  5  6  1  0
  6 10  1  0
  9 11  2  0
 10 12  2  0
 11 12  1  0
M  CHG  1   2   1
M  END
>  <PUBCHEM_COMPOUND_CID>  (1) 
36078

>  <PUBCHEM_CONFORMER_RMSD>  (1) 
0.4

>  <PUBCHEM_CONFORMER_DIVERSEORDER>  (1) 
1

>  <PUBCHEM_MMFF94_PARTIAL_CHARGES>  (1) 
15
1 -0.18
10 -0.15
11 -0.15
12 0.18
2 -0.87
23 0.15
24 0.15
25 0.15
3 0.5
4 0.36
5 0.14
6 -0.14
7 0.5
8 0.5
9 -0.15

>  <PUBCHEM_EFFECTIVE_ROTOR_COUNT>  (1) 
0.6

>  <PUBCHEM_PHARMACOPHORE_FEATURES>  (1) 
3
1 2 cation
5 2 3 4 5 6 rings
6 4 6 9 10 11 12 rings

>  <PUBCHEM_HEAVY_ATOM_COUNT>  (1) 
12

>  <PUBCHEM_ATOM_DEF_STEREO_COUNT>  (1) 
0

>  <PUBCHEM_ATOM_UDEF_STEREO_COUNT>  (1) 
0

>  <PUBCHEM_BOND_DEF_STEREO_COUNT>  (1) 
0

>  <PUBCHEM_BOND_UDEF_STEREO_COUNT>  (1) 
0

>  <PUBCHEM_ISOTOPIC_ATOM_COUNT>  (1) 
0

>  <PUBCHEM_COMPONENT_COUNT>  (1) 
1

>  <PUBCHEM_CACTVS_TAUTO_COUNT>  (1) 
1

>  <PUBCHEM_CONFORMER_ID>  (1) 
00008CEE00000001

>  <PUBCHEM_MMFF94_ENERGY>  (1) 
38.3688

>  <PUBCHEM_FEATURE_SELFOVERLAP>  (1) 
15.306

>  <PUBCHEM_SHAPE_FINGERPRINT>  (1) 
10130415 120 18334008380702439553
10353120 184 18335708191314000519
11206711 2 18262800640686747445
11471102 20 18410854356923038069
12032990 46 18411428280375638103
12423570 1 13005470923167097060
12524768 44 18338801216201674135
12932764 1 17748823029645218071
13380535 21 18192728949152633237
13380535 76 18267301121935570044
14325111 11 18410013273472193957
14344429 50 18260267455800332100
14648413 74 18267593578990721312
14911166 2 18409736131801000215
15310529 11 16805322171590702143
15775835 57 18186803616434209173
16945 1 18408884001657295343
17990270 104 18340772657809409886
18186145 218 18333729113824235173
18522853 295 18335703819063868259
20201158 50 18341897389379704982
20559304 39 18187640263220902730
20645476 183 17530980101969291119
20645477 70 18410570717425488487
21501502 16 18193833962675810911
2334 1 18193556907373448051
23402655 69 18341604928757567541
23463225 33 18334571304870362619
23552423 10 18043531826775418797
241688 4 17908714925136440378
2748010 2 18265336294815080911
5084963 1 18059298660287844379
528886 8 18341050808370494635
53812653 166 18270115867355397296
53812654 25 18341599430323585506
63268167 104 18411426145571092401
7364860 26 18272373126383654384

>  <PUBCHEM_SHAPE_MULTIPOLES>  (1) 
243.84
4.77
1.75
0.88
3.39
0.3
-0.13
-0.4
0
-0.5
0.12
-0.63
-0.19
0.02

>  <PUBCHEM_SHAPE_SELFOVERLAP>  (1) 
506.061

>  <PUBCHEM_SHAPE_VOLUME>  (1) 
143.5

>  <PUBCHEM_COORDINATE_TYPE>  (1) 
2
5
10

$$$$
