36081
     RDKit          3D

 14 14  0  0  0  0  0  0  0  0999 V2000
    2.6167   -0.7681    0.1105 O   0  0  0  0  0  0  0  0  0  0  0  0
    3.5307    1.0165   -1.0370 O   0  0  0  0  0  0  0  0  0  0  0  0
   -1.5617   -0.1048    0.4170 C   0  0  0  0  0  0  0  0  0  0  0  0
   -3.0112    0.2007    0.0440 C   0  0  0  0  0  0  0  0  0  0  0  0
   -1.0694   -1.3648   -0.3086 C   0  0  0  0  0  0  0  0  0  0  0  0
   -0.6576    1.0960    0.1057 C   0  0  0  0  0  0  0  0  0  0  0  0
    0.3942   -1.6590    0.0065 C   0  0  0  0  0  0  0  0  0  0  0  0
    0.8049    0.7949    0.4193 C   0  0  0  0  0  0  0  0  0  0  0  0
    1.2893   -0.4614   -0.3016 C   0  0  0  0  0  0  0  0  0  0  0  0
   -3.4956    1.4406    0.8143 C   0  0  0  0  0  0  0  0  0  0  0  0
   -3.1130    0.4719   -1.4665 C   0  0  0  0  0  0  0  0  0  0  0  0
   -3.9042   -0.9987    0.4036 C   0  0  0  0  0  0  0  0  0  0  0  0
    3.5500    0.2026   -0.1236 C   0  0  0  0  0  0  0  0  0  0  0  0
    4.6269    0.1336    0.9163 C   0  0  0  0  0  0  0  0  0  0  0  0
  1  9  1  0
  1 13  1  0
  2 13  2  0
  3  4  1  0
  3  5  1  0
  3  6  1  0
  4 10  1  0
  4 11  1  0
  4 12  1  0
  5  7  1  0
  6  8  1  0
  7  9  1  0
  8  9  1  0
 13 14  1  0
M  END
>  <PUBCHEM_COMPOUND_CID>  (1) 
36081

>  <PUBCHEM_CONFORMER_RMSD>  (1) 
0.6

>  <PUBCHEM_CONFORMER_DIVERSEORDER>  (1) 
1
4
9
5
10
3
11
2
12
7
8
6

>  <PUBCHEM_MMFF94_PARTIAL_CHARGES>  (1) 
5
1 -0.43
13 0.66
14 0.06
2 -0.57
9 0.28

>  <PUBCHEM_EFFECTIVE_ROTOR_COUNT>  (1) 
4.2

>  <PUBCHEM_PHARMACOPHORE_FEATURES>  (1) 
3
1 2 acceptor
4 4 10 11 12 hydrophobe
6 3 5 6 7 8 9 rings

>  <PUBCHEM_HEAVY_ATOM_COUNT>  (1) 
14

>  <PUBCHEM_ATOM_DEF_STEREO_COUNT>  (1) 
0

>  <PUBCHEM_ATOM_UDEF_STEREO_COUNT>  (1) 
0

>  <PUBCHEM_BOND_DEF_STEREO_COUNT>  (1) 
0

>  <PUBCHEM_BOND_UDEF_STEREO_COUNT>  (1) 
0

>  <PUBCHEM_ISOTOPIC_ATOM_COUNT>  (1) 
0

>  <PUBCHEM_COMPONENT_COUNT>  (1) 
1

>  <PUBCHEM_CACTVS_TAUTO_COUNT>  (1) 
1

>  <PUBCHEM_CONFORMER_ID>  (1) 
00008CF100000001

>  <PUBCHEM_MMFF94_ENERGY>  (1) 
36.4553

>  <PUBCHEM_FEATURE_SELFOVERLAP>  (1) 
15.223

>  <PUBCHEM_SHAPE_FINGERPRINT>  (1) 
11132069 177 18342737416553242134
11401426 45 18201430376584470217
12346645 44 18200596899731600363
124424 183 16298381353420739333
12670546 56 16370995321843661868
12932764 1 16845565388326536123
13214271 11 18343584023595818317
13380535 76 18411700989129198110
13675066 3 18261105284114508130
13705890 14 14692849207550224126
14144814 61 18342458123156180456
14289901 80 16226052218591726584
14325111 11 18412267207351803931
14897335 6 18341608213896072974
14993402 34 18412825802192537005
15536298 74 18201160936523146766
15775835 57 18271528611105825667
16945 1 18059848480742668963
17846911 113 18343016688306695160
18186145 218 18334863757873269638
190213 19 18410011031108784364
19026448 4 16225766298297302426
19026448 5 16588025718747876958
200 152 18272642477126384295
20112054 60 18342739619781937249
20279233 1 17346884472648240078
23402539 116 17917423207916343340
23402655 69 17632014156667875353
23559900 14 18202004339899473510
265663 24 17313381240494426890
2748010 2 17983287420057729083
5104073 3 18341051830757653162
537710 114 18411425033106068684
57812782 119 14490193821019098695
633830 44 18200881681764570310
7364860 26 18057324981672885502

>  <PUBCHEM_SHAPE_MULTIPOLES>  (1) 
276.37
8.07
1.44
0.98
4.72
0.2
0.21
-1.41
-0.65
-0.61
-0.09
-0.22
-0.18
-0.19

>  <PUBCHEM_SHAPE_SELFOVERLAP>  (1) 
545.29

>  <PUBCHEM_SHAPE_VOLUME>  (1) 
165

>  <PUBCHEM_COORDINATE_TYPE>  (1) 
2
5
10

$$$$
