36099
     RDKit          3D

  9 10  0  0  1  0  0  0  0  0999 V2000
   -0.0887    0.5341   -0.6066 C   0  0  0  0  0  0  0  0  0  0  0  0
    0.6660   -0.8143   -0.6379 C   0  0  0  0  0  0  0  0  0  0  0  0
   -1.2913    0.3109    0.3269 C   0  0  0  0  0  0  0  0  0  0  0  0
   -0.1450   -1.7677    0.2443 C   0  0  0  0  0  0  0  0  0  0  0  0
    0.9158    1.5622   -0.0856 C   0  0  0  0  0  0  0  0  0  0  0  0
    2.0734   -0.5273   -0.1182 C   0  0  0  0  0  0  0  0  0  0  0  0
   -1.5511   -1.1890    0.2196 C   0  0  0  0  0  0  0  0  0  0  0  0
    1.9237    0.7423    0.7090 C   0  0  0  0  0  0  0  0  0  0  0  0
   -2.5027    1.1486   -0.0514 C   0  0  0  0  0  0  0  0  0  0  0  0
  1  2  1  0
  1  3  1  0
  1  5  1  0
  2  4  1  0
  2  6  1  0
  3  7  1  0
  3  9  1  0
  4  7  1  0
  5  8  1  0
  6  8  1  0
M  END
>  <PUBCHEM_COMPOUND_CID>  (1) 
36099

>  <PUBCHEM_CONFORMER_RMSD>  (1) 
0.4

>  <PUBCHEM_CONFORMER_DIVERSEORDER>  (1) 
2
4
3
5
1
6

>  <PUBCHEM_MMFF94_PARTIAL_CHARGES>  (1) 
0

>  <PUBCHEM_EFFECTIVE_ROTOR_COUNT>  (1) 
1.2

>  <PUBCHEM_PHARMACOPHORE_FEATURES>  (1) 
2
5 1 2 3 4 7 rings
5 1 2 5 6 8 rings

>  <PUBCHEM_HEAVY_ATOM_COUNT>  (1) 
9

>  <PUBCHEM_ATOM_DEF_STEREO_COUNT>  (1) 
0

>  <PUBCHEM_ATOM_UDEF_STEREO_COUNT>  (1) 
3

>  <PUBCHEM_BOND_DEF_STEREO_COUNT>  (1) 
0

>  <PUBCHEM_BOND_UDEF_STEREO_COUNT>  (1) 
0

>  <PUBCHEM_ISOTOPIC_ATOM_COUNT>  (1) 
0

>  <PUBCHEM_COMPONENT_COUNT>  (1) 
1

>  <PUBCHEM_CACTVS_TAUTO_COUNT>  (1) 
1

>  <PUBCHEM_CONFORMER_ID>  (1) 
00008D0300000002

>  <PUBCHEM_MMFF94_ENERGY>  (1) 
19.5388

>  <PUBCHEM_FEATURE_SELFOVERLAP>  (1) 
10.53

>  <PUBCHEM_SHAPE_FINGERPRINT>  (1) 
12423570 1 15103289553557125974
16945 1 18411983580559535179
18185500 45 13365687596751975500
21040471 1 18409735066374712965
21922407 69 15575569118038568553
23235685 24 18411979135273898936
23552423 10 18188212129674084390
2748010 2 18411142454137880470
29004967 10 18265059045811837440
369184 2 17203043114021959314
5084963 1 18201164359216130979

>  <PUBCHEM_SHAPE_MULTIPOLES>  (1) 
185.22
2.8
1.75
0.78
0.5
0.22
-0.01
-0.69
0.28
0.2
0.07
-0.11
-0.01
0.21

>  <PUBCHEM_SHAPE_SELFOVERLAP>  (1) 
379.152

>  <PUBCHEM_SHAPE_VOLUME>  (1) 
104.3

>  <PUBCHEM_COORDINATE_TYPE>  (1) 
2
5
10

$$$$
