36109
     RDKit          3D

 19 20  0  0  0  0  0  0  0  0999 V2000
   -0.4399    0.6436    1.1208 O   0  0  0  0  0  0  0  0  0  0  0  0
   -0.7250   -1.5765    0.3778 O   0  0  0  0  0  0  0  0  0  0  0  0
   -3.4972   -0.9514   -0.1935 N   0  0  0  0  0  0  0  0  0  0  0  0
   -2.6418   -0.1478    0.6790 C   0  0  0  0  0  0  0  0  0  0  0  0
   -1.1733   -0.2214    0.2304 C   0  0  0  0  0  0  0  0  0  0  0  0
   -3.4335   -0.4566   -1.5683 C   0  0  0  0  0  0  0  0  0  0  0  0
   -4.8771   -0.9387    0.2908 C   0  0  0  0  0  0  0  0  0  0  0  0
    0.2245    1.7145    0.5865 C   0  0  0  0  0  0  0  0  0  0  0  0
    0.5778   -1.8819    0.0908 C   0  0  0  0  0  0  0  0  0  0  0  0
   -0.4844    2.6900   -0.1069 C   0  0  0  0  0  0  0  0  0  0  0  0
    1.0743   -1.6535   -1.1884 C   0  0  0  0  0  0  0  0  0  0  0  0
    1.6030    1.8177    0.7413 C   0  0  0  0  0  0  0  0  0  0  0  0
    1.3945   -2.4186    1.0809 C   0  0  0  0  0  0  0  0  0  0  0  0
    0.1928    3.7808   -0.6519 C   0  0  0  0  0  0  0  0  0  0  0  0
    2.4020   -1.9654   -1.4809 C   0  0  0  0  0  0  0  0  0  0  0  0
    2.2801    2.9087    0.1963 C   0  0  0  0  0  0  0  0  0  0  0  0
    2.7222   -2.7304    0.7882 C   0  0  0  0  0  0  0  0  0  0  0  0
    1.5750    3.8903   -0.5002 C   0  0  0  0  0  0  0  0  0  0  0  0
    3.2259   -2.5038   -0.4927 C   0  0  0  0  0  0  0  0  0  0  0  0
  1  5  1  0
  1  8  1  0
  2  5  1  0
  2  9  1  0
  3  4  1  0
  3  6  1  0
  3  7  1  0
  4  5  1  0
  8 10  2  0
  8 12  1  0
  9 11  2  0
  9 13  1  0
 10 14  1  0
 11 15  1  0
 12 16  2  0
 13 17  2  0
 14 18  2  0
 15 19  2  0
 16 18  1  0
 17 19  1  0
M  END
>  <PUBCHEM_COMPOUND_CID>  (1) 
36109

>  <PUBCHEM_CONFORMER_RMSD>  (1) 
0.8

>  <PUBCHEM_CONFORMER_DIVERSEORDER>  (1) 
1
37
19
40
26
5
23
15
31
10
42
29
39
4
16
33
21
14
35
24
17
28
38
34
20
3
9
41
11
13
43
18
25
7
8
2
30
22
6
32
27
36
12

>  <PUBCHEM_MMFF94_PARTIAL_CHARGES>  (1) 
29
1 -0.36
10 -0.15
11 -0.15
12 -0.15
13 -0.15
14 -0.15
15 -0.15
16 -0.15
17 -0.15
18 -0.15
19 -0.15
2 -0.36
29 0.15
3 -0.81
30 0.15
31 0.15
32 0.15
33 0.15
34 0.15
35 0.15
36 0.15
37 0.15
38 0.15
4 0.27
5 0.56
6 0.27
7 0.27
8 0.08
9 0.08

>  <PUBCHEM_EFFECTIVE_ROTOR_COUNT>  (1) 
6

>  <PUBCHEM_PHARMACOPHORE_FEATURES>  (1) 
5
1 1 acceptor
1 2 acceptor
1 3 cation
6 8 10 12 14 16 18 rings
6 9 11 13 15 17 19 rings

>  <PUBCHEM_HEAVY_ATOM_COUNT>  (1) 
19

>  <PUBCHEM_ATOM_DEF_STEREO_COUNT>  (1) 
0

>  <PUBCHEM_ATOM_UDEF_STEREO_COUNT>  (1) 
0

>  <PUBCHEM_BOND_DEF_STEREO_COUNT>  (1) 
0

>  <PUBCHEM_BOND_UDEF_STEREO_COUNT>  (1) 
0

>  <PUBCHEM_ISOTOPIC_ATOM_COUNT>  (1) 
0

>  <PUBCHEM_COMPONENT_COUNT>  (1) 
1

>  <PUBCHEM_CACTVS_TAUTO_COUNT>  (1) 
1

>  <PUBCHEM_CONFORMER_ID>  (1) 
00008D0D00000001

>  <PUBCHEM_MMFF94_ENERGY>  (1) 
69.1478

>  <PUBCHEM_FEATURE_SELFOVERLAP>  (1) 
25.41

>  <PUBCHEM_SHAPE_FINGERPRINT>  (1) 
107951 10 17245268862123880136
10871710 139 18049186396540095668
10989021 7 18343023246600618707
12553582 1 18266466395274207971
12592029 89 18121218937791206011
12788726 201 17685224880355346715
13257819 37 17325212226222560623
133893 2 18268728232388975803
13681431 1 18341891883479440723
14790565 3 17187286764441424568
14840074 17 18049971632827037704
15502722 9 18339360902465448443
17357779 13 17841406182027495071
17492 54 18264511618550784236
1813 80 18200600185593104407
18785283 64 18190184679335669579
20097449 115 18339360751956950899
20645476 183 17545037568625911828
20671657 53 18339921515904166683
20905425 154 18341336570331384300
21304303 282 16747864751908214492
21344244 246 18126277777858586198
21524375 3 17763174040015390351
21665056 4 17473541833550860876
23419403 2 17970319595378570590
23557571 272 17696744463806357482
23598288 3 17324379410473043627
23728640 28 17332798856754752360
238 59 17759756641975437053
2748010 2 18124576618489942400
3060560 45 18121211249494297437
3187 122 17973972130446792296
352729 6 17834115629682625737
57210444 14 17762070125735172668
6138700 20 18339931527873542044
7164475 11 17832426393075448814
81228 2 17838901430326051411
81539 233 18193552496452506655
8272917 22 18339365296359332641
90525 40 17545320138729423840

>  <PUBCHEM_SHAPE_MULTIPOLES>  (1) 
374.29
5.63
5.27
1.23
4.67
6.88
0.29
-6.5
0.68
-2.53
0.44
-0.15
-0.45
0.12

>  <PUBCHEM_SHAPE_SELFOVERLAP>  (1) 
779.917

>  <PUBCHEM_SHAPE_VOLUME>  (1) 
213.4

>  <PUBCHEM_COORDINATE_TYPE>  (1) 
2
5
10

$$$$
