36106
     RDKit          3D

 15 15  0  0  0  0  0  0  0  0999 V2000
    1.0070    0.0851   -2.3963 S   0  0  0  0  0  0  0  0  0  0  0  0
    1.1446    0.0033   -0.4525 P   0  0  0  0  0  0  0  0  0  0  0  0
    2.4364   -0.7948    0.1360 O   0  0  0  0  0  0  0  0  0  0  0  0
    1.2634    1.4152    0.3473 O   0  0  0  0  0  0  0  0  0  0  0  0
   -0.0630   -0.7335    0.3394 O   0  0  0  0  0  0  0  0  0  0  0  0
   -1.3988   -0.4563    0.2267 C   0  0  0  0  0  0  0  0  0  0  0  0
    2.5431   -2.1966   -0.0470 C   0  0  0  0  0  0  0  0  0  0  0  0
    2.2325    2.3703   -0.0498 C   0  0  0  0  0  0  0  0  0  0  0  0
   -1.8113    0.8357   -0.0826 C   0  0  0  0  0  0  0  0  0  0  0  0
   -2.3321   -1.4688    0.4231 C   0  0  0  0  0  0  0  0  0  0  0  0
    3.8275   -2.6808    0.5918 C   0  0  0  0  0  0  0  0  0  0  0  0
    2.1298    3.5815    0.8524 C   0  0  0  0  0  0  0  0  0  0  0  0
   -3.1725    1.1183   -0.1967 C   0  0  0  0  0  0  0  0  0  0  0  0
   -3.6932   -1.1861    0.3090 C   0  0  0  0  0  0  0  0  0  0  0  0
   -4.1133    0.1075   -0.0009 C   0  0  0  0  0  0  0  0  0  0  0  0
  1  2  2  0
  2  3  1  0
  2  4  1  0
  2  5  1  0
  3  7  1  0
  4  8  1  0
  5  6  1  0
  6  9  2  0
  6 10  1  0
  7 11  1  0
  8 12  1  0
  9 13  1  0
 10 14  2  0
 13 15  2  0
 14 15  1  0
M  END
>  <PUBCHEM_COMPOUND_CID>  (1) 
36106

>  <PUBCHEM_CONFORMER_RMSD>  (1) 
0.6

>  <PUBCHEM_CONFORMER_DIVERSEORDER>  (1) 
1
30
62
17
14
36
55
25
43
41
50
60
5
22
48
15
56
6
4
40
27
28
32
16
29
11
51
18
10
35
21
3
38
37
13
58
42
44
2
12
24
49
19
34
63
57
45
26
46
7
52
59
53
9
47
33
31
23
54
8
20
61
39

>  <PUBCHEM_MMFF94_PARTIAL_CHARGES>  (1) 
18
1 -0.68
10 -0.15
13 -0.15
14 -0.15
15 -0.15
2 1.49
20 0.15
21 0.15
28 0.15
29 0.15
3 -0.55
30 0.15
4 -0.55
5 -0.35
6 0.08
7 0.28
8 0.28
9 -0.15

>  <PUBCHEM_EFFECTIVE_ROTOR_COUNT>  (1) 
6

>  <PUBCHEM_PHARMACOPHORE_FEATURES>  (1) 
1
6 6 9 10 13 14 15 rings

>  <PUBCHEM_HEAVY_ATOM_COUNT>  (1) 
15

>  <PUBCHEM_ATOM_DEF_STEREO_COUNT>  (1) 
0

>  <PUBCHEM_ATOM_UDEF_STEREO_COUNT>  (1) 
0

>  <PUBCHEM_BOND_DEF_STEREO_COUNT>  (1) 
0

>  <PUBCHEM_BOND_UDEF_STEREO_COUNT>  (1) 
0

>  <PUBCHEM_ISOTOPIC_ATOM_COUNT>  (1) 
0

>  <PUBCHEM_COMPONENT_COUNT>  (1) 
1

>  <PUBCHEM_CACTVS_TAUTO_COUNT>  (1) 
1

>  <PUBCHEM_CONFORMER_ID>  (1) 
00008D0A00000001

>  <PUBCHEM_MMFF94_ENERGY>  (1) 
21.8957

>  <PUBCHEM_FEATURE_SELFOVERLAP>  (1) 
5.074

>  <PUBCHEM_SHAPE_FINGERPRINT>  (1) 
10465860 250 18265328400654933730
10608611 8 18409164446084805369
12507560 14 18270677545971793831
12932764 1 18266760110991783295
13134695 92 18340758244057511300
136203 1 17619065032692827456
14817 1 14187001376973989484
14866123 147 16754093433682643683
15295992 7 18262254235247946449
15375462 6 18337954622545198677
15442244 35 18339362950679539153
17041 49 18270690740232743969
17804303 29 18261678056378683791
17841504 4 18410855443059114426
19786989 88 17631184137442916413
20600515 1 17986678073573753682
20671657 1 18341053003204479304
20671657 53 18270123400828001282
21501502 16 18343022228962186929
21524375 3 17626951129234748192
23419403 2 18043506388127308300
23559900 14 18411410709310957075
3286 77 18335983086669826263
7364860 26 18411138064966127522
77188 2 18267303136797542824
81228 2 17481443585802009344
81539 233 18197219367573254556
9709674 26 18335421313480025851

>  <PUBCHEM_SHAPE_MULTIPOLES>  (1) 
298.78
6.81
3.26
1.21
3.75
1.87
1.02
-2.52
-1.21
-4.7
-1.3
-0.68
0.15
0.27

>  <PUBCHEM_SHAPE_SELFOVERLAP>  (1) 
566.962

>  <PUBCHEM_SHAPE_VOLUME>  (1) 
185.6

>  <PUBCHEM_COORDINATE_TYPE>  (1) 
2
5
10

$$$$
