36102
     RDKit          3D

 23 24  0  0  1  0  0  0  0  0999 V2000
    1.7544   -2.4756    0.0621 S   0  0  0  0  0  0  0  0  0  0  0  0
    2.4779   -3.2107    1.0815 O   0  0  0  0  0  0  0  0  0  0  0  0
    1.7139   -2.9596   -1.3043 O   0  0  0  0  0  0  0  0  0  0  0  0
   -0.8315   -1.6437   -1.4438 O   0  0  0  0  0  0  0  0  0  0  0  0
   -2.1099   -1.6225    0.4822 N   0  0  0  0  0  0  0  0  0  0  0  0
    0.1601   -2.1781    0.6023 N   0  0  0  0  0  0  0  0  0  0  0  0
   -3.3573   -1.2404   -0.1369 C   0  0  0  0  0  0  0  0  0  0  0  0
   -3.8814    0.0867    0.4336 C   0  0  0  0  0  0  0  0  0  0  0  0
   -2.9006    1.2244    0.2765 C   0  0  0  0  0  0  0  0  0  0  0  0
   -4.3850   -2.3519    0.0518 C   0  0  0  0  0  0  0  0  0  0  0  0
   -0.9386   -1.7941   -0.2304 C   0  0  0  0  0  0  0  0  0  0  0  0
    2.4037   -0.8328    0.0032 C   0  0  0  0  0  0  0  0  0  0  0  0
   -1.9753    1.4663    1.2791 C   0  0  0  0  0  0  0  0  0  0  0  0
   -2.9447    2.0054   -0.8670 C   0  0  0  0  0  0  0  0  0  0  0  0
    3.0207   -0.3089    1.1263 C   0  0  0  0  0  0  0  0  0  0  0  0
    2.2835   -0.1001   -1.1649 C   0  0  0  0  0  0  0  0  0  0  0  0
   -1.0696    2.5173    1.1342 C   0  0  0  0  0  0  0  0  0  0  0  0
   -2.0392    3.0565   -1.0121 C   0  0  0  0  0  0  0  0  0  0  0  0
    3.4209    1.7401   -0.0894 C   0  0  0  0  0  0  0  0  0  0  0  0
    3.5333    0.9876    1.0795 C   0  0  0  0  0  0  0  0  0  0  0  0
    2.7961    1.1962   -1.2118 C   0  0  0  0  0  0  0  0  0  0  0  0
   -1.1016    3.3123   -0.0114 C   0  0  0  0  0  0  0  0  0  0  0  0
    3.9702    3.1257   -0.1401 C   0  0  0  0  0  0  0  0  0  0  0  0
  1  2  2  0
  1  3  2  0
  1  6  1  0
  1 12  1  0
  4 11  2  0
  5  7  1  0
  5 11  1  0
  6 11  1  0
  7  8  1  0
  7 10  1  0
  8  9  1  0
  9 13  2  0
  9 14  1  0
 12 15  2  0
 12 16  1  0
 13 17  1  0
 14 18  2  0
 15 20  1  0
 16 21  2  0
 17 22  2  0
 18 22  1  0
 19 20  2  0
 19 21  1  0
 19 23  1  0
M  END
>  <PUBCHEM_COMPOUND_CID>  (1) 
36102

>  <PUBCHEM_CONFORMER_RMSD>  (1) 
0.8

>  <PUBCHEM_CONFORMER_DIVERSEORDER>  (1) 
1
37
115
76
95
44
133
52
126
74
35
130
50
72
62
77
99
16
57
119
101
2
28
123
103
81
80
78
111
12
54
79
128
136
4
51
66
43
131
55
64
63
45
96
46
127
106
10
110
3
18
84
117
48
21
9
120
91
60
14
125
129
135
94
29
58
11
24
109
70
134
13
105
122
89
53
100
98
49
102
92
118
25
19
22
20
113
83
124
69
87
67
27
116
15
33
59
42
68
5
6
93
85
73
8
30
112
82
65
26
32
108
104
47
40
31
38
86
107
23
41
97
75
132
39
34
56
17
7
90
114
88
36
121
61
71

>  <PUBCHEM_MMFF94_PARTIAL_CHARGES>  (1) 
33
1 1.45
11 0.87
12 -0.01
13 -0.15
14 -0.15
15 -0.15
16 -0.15
17 -0.15
18 -0.15
19 -0.14
2 -0.65
20 -0.15
21 -0.15
22 -0.15
23 0.14
3 -0.65
30 0.37
31 0.15
32 0.15
33 0.42
34 0.15
35 0.15
36 0.15
37 0.15
38 0.15
39 0.15
4 -0.57
40 0.15
5 -0.73
6 -0.79
7 0.3
8 0.14
9 -0.14

>  <PUBCHEM_EFFECTIVE_ROTOR_COUNT>  (1) 
7

>  <PUBCHEM_PHARMACOPHORE_FEATURES>  (1) 
7
1 2 acceptor
1 3 acceptor
1 4 acceptor
1 5 donor
1 6 donor
6 12 15 16 19 20 21 rings
6 9 13 14 17 18 22 rings

>  <PUBCHEM_HEAVY_ATOM_COUNT>  (1) 
23

>  <PUBCHEM_ATOM_DEF_STEREO_COUNT>  (1) 
1

>  <PUBCHEM_ATOM_UDEF_STEREO_COUNT>  (1) 
0

>  <PUBCHEM_BOND_DEF_STEREO_COUNT>  (1) 
0

>  <PUBCHEM_BOND_UDEF_STEREO_COUNT>  (1) 
0

>  <PUBCHEM_ISOTOPIC_ATOM_COUNT>  (1) 
0

>  <PUBCHEM_COMPONENT_COUNT>  (1) 
1

>  <PUBCHEM_CACTVS_TAUTO_COUNT>  (1) 
3

>  <PUBCHEM_CONFORMER_ID>  (1) 
00008D0600000001

>  <PUBCHEM_MMFF94_ENERGY>  (1) 
32.6841

>  <PUBCHEM_FEATURE_SELFOVERLAP>  (1) 
35.584

>  <PUBCHEM_SHAPE_FINGERPRINT>  (1) 
10498660 4 18411706520909535621
10670039 82 18263655103272078316
10759866 29 18260830444962704312
10871710 139 18195249046893902317
11370993 70 18192136114680168589
12422481 6 17825976744774005113
12633257 1 17762342413950767441
128993 33 18128271003318809656
13122387 1 18410857633471966476
13140716 1 18338241440799225707
13402501 40 17983578786502995360
13583140 156 17534353232324287843
14223421 5 18411140195074850999
14251757 17 17557176976456192620
17492 54 18045503281331522333
17492 89 18335699386811288531
18981168 100 18265892462751436831
20715895 44 17971735702421721157
20905425 154 18341336608558763511
2132832 1 17975096939158310075
22113638 7 17833830851754777605
22749437 52 18266452114112095265
23559900 14 18268987592262606696
238 59 18124299524290547333
350125 39 18338806593548441738
3524813 1 17916021446122503800
394222 165 16156544516778327078
469060 322 18191317163511805889
7097593 13 17900819345044083595

>  <PUBCHEM_SHAPE_MULTIPOLES>  (1) 
449.61
7.74
4.66
1.26
0.44
0.28
0.07
1.06
-0.42
-0.16
0.26
-0.37
0.09
-0.12

>  <PUBCHEM_SHAPE_SELFOVERLAP>  (1) 
928.142

>  <PUBCHEM_SHAPE_VOLUME>  (1) 
257.7

>  <PUBCHEM_COORDINATE_TYPE>  (1) 
2
5
10

$$$$
