36111
     RDKit          3D

 12 13  0  0  1  0  0  0  0  0999 V2000
   -1.8771   -0.2660   -0.2023 C   0  0  0  0  0  0  0  0  0  0  0  0
   -1.3961   -1.6006    0.3747 C   0  0  0  0  0  0  0  0  0  0  0  0
   -0.9456    0.8646    0.2596 C   0  0  0  0  0  0  0  0  0  0  0  0
   -0.0001   -1.9383   -0.1469 C   0  0  0  0  0  0  0  0  0  0  0  0
   -3.3186    0.0210    0.2125 C   0  0  0  0  0  0  0  0  0  0  0  0
    0.5190    0.5394    0.0968 C   0  0  0  0  0  0  0  0  0  0  0  0
    0.9668   -0.7853   -0.0548 C   0  0  0  0  0  0  0  0  0  0  0  0
   -3.8323    1.2992   -0.4213 C   0  0  0  0  0  0  0  0  0  0  0  0
    1.4577    1.5808    0.1555 C   0  0  0  0  0  0  0  0  0  0  0  0
    2.3413   -1.0377   -0.1813 C   0  0  0  0  0  0  0  0  0  0  0  0
    2.8218    1.3158    0.0391 C   0  0  0  0  0  0  0  0  0  0  0  0
    3.2633    0.0072   -0.1318 C   0  0  0  0  0  0  0  0  0  0  0  0
  1  2  1  0
  1  3  1  0
  1  5  1  0
  2  4  1  0
  3  6  1  0
  4  7  1  0
  5  8  1  0
  6  7  2  0
  6  9  1  0
  7 10  1  0
  9 11  2  0
 10 12  2  0
 11 12  1  0
M  END
>  <PUBCHEM_COMPOUND_CID>  (1) 
36111

>  <PUBCHEM_CONFORMER_RMSD>  (1) 
0.4

>  <PUBCHEM_CONFORMER_DIVERSEORDER>  (1) 
1
3
2
4

>  <PUBCHEM_MMFF94_PARTIAL_CHARGES>  (1) 
12
10 -0.15
11 -0.15
12 -0.15
25 0.15
26 0.15
27 0.15
28 0.15
3 0.14
4 0.14
6 -0.14
7 -0.14
9 -0.15

>  <PUBCHEM_EFFECTIVE_ROTOR_COUNT>  (1) 
1.8

>  <PUBCHEM_PHARMACOPHORE_FEATURES>  (1) 
3
1 8 hydrophobe
6 1 2 3 4 6 7 rings
6 6 7 9 10 11 12 rings

>  <PUBCHEM_HEAVY_ATOM_COUNT>  (1) 
12

>  <PUBCHEM_ATOM_DEF_STEREO_COUNT>  (1) 
0

>  <PUBCHEM_ATOM_UDEF_STEREO_COUNT>  (1) 
1

>  <PUBCHEM_BOND_DEF_STEREO_COUNT>  (1) 
0

>  <PUBCHEM_BOND_UDEF_STEREO_COUNT>  (1) 
0

>  <PUBCHEM_ISOTOPIC_ATOM_COUNT>  (1) 
0

>  <PUBCHEM_COMPONENT_COUNT>  (1) 
1

>  <PUBCHEM_CACTVS_TAUTO_COUNT>  (1) 
1

>  <PUBCHEM_CONFORMER_ID>  (1) 
00008D0F00000001

>  <PUBCHEM_MMFF94_ENERGY>  (1) 
23.0646

>  <PUBCHEM_FEATURE_SELFOVERLAP>  (1) 
15.244

>  <PUBCHEM_SHAPE_FINGERPRINT>  (1) 
10130415 120 18335696114150917834
10608611 8 18338233876876390553
10967382 1 18411419479533727576
11471102 20 18339638945478310197
11543360 7 15554156069000585689
12654215 9 18337104549469393404
13380535 21 18337403749844738770
13380535 76 18411417310686311683
13897977 150 18411417327987214381
13922767 16 18412537687280919144
14144814 61 18412266125099277233
14251717 144 18341325600763195279
14325111 11 18410574011137643185
14648413 74 18265616670222349512
14897335 6 18341325677682235758
14911166 2 18340776957393355318
15219456 202 18410016567189825211
15279308 100 18409452496234108956
15775835 57 18334016098647906966
16945 1 18341058440691078866
17844478 74 18115038522881121027
18186145 218 18343309136787833293
193761 8 17763181744959846569
20201158 50 18341897367952328126
20511035 2 18268431411394045326
20606313 2 18340202999037931429
20645476 183 17896055380420202286
20645477 70 18269833130106512759
21501502 16 18266455588877683886
23235685 24 18411976966320435873
23402539 116 18271795818122220372
23402655 69 18270953562694086885
23463225 33 18336263462029511242
23552423 10 18118122700220580150
23559900 14 18200601401833681812
25 1 18337388236691754677
2748010 2 18268155420911255926
528886 8 18411978070137561122
53812653 166 18412260649042212168
63268167 104 18342744000505998595
69090 78 18342172306447834695
7364860 26 18268427928091626754

>  <PUBCHEM_SHAPE_MULTIPOLES>  (1) 
246.95
5.57
1.87
0.66
2.4
0.31
0
-1.97
-0.45
-0.08
0.01
0.08
0
0.3

>  <PUBCHEM_SHAPE_SELFOVERLAP>  (1) 
514.991

>  <PUBCHEM_SHAPE_VOLUME>  (1) 
135.5

>  <PUBCHEM_COORDINATE_TYPE>  (1) 
2
5
10

$$$$
