36112
     RDKit          3D

 13 13  0  0  0  0  0  0  0  0999 V2000
    1.0659   -0.1280    0.0361 O   0  0  0  0  0  0  0  0  0  0  0  0
    0.3743    2.0296   -0.3927 O   0  0  0  0  0  0  0  0  0  0  0  0
    2.3791    0.4992   -0.0748 O   0  0  0  0  0  0  0  0  0  0  0  0
    3.1443   -1.5719    0.3461 O   0  0  0  0  0  0  0  0  0  0  0  0
    4.5572    0.1293    0.0242 O   0  0  0  0  0  0  0  0  0  0  0  0
    3.4503   -0.4009    0.1161 N   0  0  0  0  0  0  0  0  0  0  0  0
   -1.2259    0.2924   -0.0723 C   0  0  0  0  0  0  0  0  0  0  0  0
   -2.2745    1.0923    0.3815 C   0  0  0  0  0  0  0  0  0  0  0  0
   -1.4662   -1.0327   -0.4352 C   0  0  0  0  0  0  0  0  0  0  0  0
   -3.5636    0.5671    0.4726 C   0  0  0  0  0  0  0  0  0  0  0  0
   -2.7552   -1.5580   -0.3443 C   0  0  0  0  0  0  0  0  0  0  0  0
   -3.8039   -0.7580    0.1095 C   0  0  0  0  0  0  0  0  0  0  0  0
    0.1181    0.8396   -0.1669 C   0  0  0  0  0  0  0  0  0  0  0  0
  1  3  1  0
  1 13  1  0
  2 13  2  0
  3  6  1  0
  4  6  1  0
  5  6  2  0
  7  8  2  0
  7  9  1  0
  7 13  1  0
  8 10  1  0
  9 11  2  0
 10 12  2  0
 11 12  1  0
M  CHG  2   4  -1   6   1
M  END
>  <PUBCHEM_COMPOUND_CID>  (1) 
36112

>  <PUBCHEM_CONFORMER_RMSD>  (1) 
0.6

>  <PUBCHEM_CONFORMER_DIVERSEORDER>  (1) 
1
22
19
12
7
24
11
25
6
33
27
15
3
9
34
10
20
2
23
8
35
32
21
17
29
14
31
16
28
4
18
5
13
30
26

>  <PUBCHEM_MMFF94_PARTIAL_CHARGES>  (1) 
18
1 -0.15
10 -0.15
11 -0.15
12 -0.15
13 0.63
14 0.15
15 0.15
16 0.15
17 0.15
18 0.15
2 -0.57
3 0.01
4 -0.52
5 -0.52
6 1.03
7 0.09
8 -0.15
9 -0.15

>  <PUBCHEM_EFFECTIVE_ROTOR_COUNT>  (1) 
4

>  <PUBCHEM_PHARMACOPHORE_FEATURES>  (1) 
4
1 2 acceptor
1 4 acceptor
1 5 acceptor
6 7 8 9 10 11 12 rings

>  <PUBCHEM_HEAVY_ATOM_COUNT>  (1) 
13

>  <PUBCHEM_ATOM_DEF_STEREO_COUNT>  (1) 
0

>  <PUBCHEM_ATOM_UDEF_STEREO_COUNT>  (1) 
0

>  <PUBCHEM_BOND_DEF_STEREO_COUNT>  (1) 
0

>  <PUBCHEM_BOND_UDEF_STEREO_COUNT>  (1) 
0

>  <PUBCHEM_ISOTOPIC_ATOM_COUNT>  (1) 
0

>  <PUBCHEM_COMPONENT_COUNT>  (1) 
1

>  <PUBCHEM_CACTVS_TAUTO_COUNT>  (1) 
1

>  <PUBCHEM_CONFORMER_ID>  (1) 
00008D1000000001

>  <PUBCHEM_MMFF94_ENERGY>  (1) 
29.1813

>  <PUBCHEM_FEATURE_SELFOVERLAP>  (1) 
20.366

>  <PUBCHEM_SHAPE_FINGERPRINT>  (1) 
11769659 78 18341046423572940791
12251169 10 18272089409043397744
124424 183 17132113537446959641
13690532 89 18410853283239236239
14144814 61 18412263930286508355
14445660 50 18271812302254194664
15375462 189 18259983760388859258
17804303 29 18202005442835805897
18186145 218 13406799925731417884
19422 9 18335425681118276575
20281407 28 18410011022550602352
20645464 45 16917074369217410279
22485316 2 18335698330105979552
23402539 116 17917705800085795493
23463225 33 18410294692065788174
23552423 10 18120657100434839093
2748010 2 17836666127750801373
7364860 26 18125720329499989560

>  <PUBCHEM_SHAPE_MULTIPOLES>  (1) 
233.21
7.45
1.58
0.65
6.5
0.04
0
-1.88
0.91
-0.34
-0.1
-0.18
0
-0.48

>  <PUBCHEM_SHAPE_SELFOVERLAP>  (1) 
481.763

>  <PUBCHEM_SHAPE_VOLUME>  (1) 
133.5

>  <PUBCHEM_COORDINATE_TYPE>  (1) 
2
5
10

$$$$
