36117
     RDKit          3D

 21 24  0  0  0  0  0  0  0  0999 V2000
   -3.3530    0.0009    2.0751 O   0  0  0  0  0  0  0  0  0  0  0  0
    0.1896   -0.0005   -1.2910 C   0  0  0  0  0  0  0  0  0  0  0  0
    0.9470   -1.1818   -0.6903 C   0  0  0  0  0  0  0  0  0  0  0  0
    0.9461    1.1816   -0.6906 C   0  0  0  0  0  0  0  0  0  0  0  0
    1.9921   -0.7234    0.1442 C   0  0  0  0  0  0  0  0  0  0  0  0
    1.9916    0.7243    0.1438 C   0  0  0  0  0  0  0  0  0  0  0  0
   -1.2553   -0.0010   -0.9226 C   0  0  0  0  0  0  0  0  0  0  0  0
    0.7028   -2.5349   -0.8627 C   0  0  0  0  0  0  0  0  0  0  0  0
    0.7008    2.5346   -0.8634 C   0  0  0  0  0  0  0  0  0  0  0  0
    2.8121   -1.6243    0.8038 C   0  0  0  0  0  0  0  0  0  0  0  0
    2.8115    1.6260    0.8025 C   0  0  0  0  0  0  0  0  0  0  0  0
   -1.6327   -0.0004    0.4203 C   0  0  0  0  0  0  0  0  0  0  0  0
   -2.2297   -0.0016   -1.9208 C   0  0  0  0  0  0  0  0  0  0  0  0
    1.5304   -3.4413   -0.1982 C   0  0  0  0  0  0  0  0  0  0  0  0
    1.5279    3.4418   -0.1995 C   0  0  0  0  0  0  0  0  0  0  0  0
    2.5753   -2.9907    0.6258 C   0  0  0  0  0  0  0  0  0  0  0  0
    2.5737    2.9921    0.6240 C   0  0  0  0  0  0  0  0  0  0  0  0
   -2.9844   -0.0004    0.7650 C   0  0  0  0  0  0  0  0  0  0  0  0
   -3.5812   -0.0016   -1.5762 C   0  0  0  0  0  0  0  0  0  0  0  0
   -3.9586   -0.0008   -0.2335 C   0  0  0  0  0  0  0  0  0  0  0  0
   -2.3059    0.0012    3.0443 C   0  0  0  0  0  0  0  0  0  0  0  0
  1 18  1  0
  1 21  1  0
  2  3  1  0
  2  4  1  0
  2  7  1  0
  3  5  1  0
  3  8  2  0
  4  6  2  0
  4  9  1  0
  5  6  1  0
  5 10  2  0
  6 11  1  0
  7 12  2  0
  7 13  1  0
  8 14  1  0
  9 15  2  0
 10 16  1  0
 11 17  2  0
 12 18  1  0
 13 19  2  0
 14 16  2  0
 15 17  1  0
 18 20  2  0
 19 20  1  0
M  END
>  <PUBCHEM_COMPOUND_CID>  (1) 
36117

>  <PUBCHEM_CONFORMER_RMSD>  (1) 
0.6

>  <PUBCHEM_CONFORMER_DIVERSEORDER>  (1) 
1
10
8
7
5
2
9
4
3
6

>  <PUBCHEM_MMFF94_PARTIAL_CHARGES>  (1) 
31
1 -0.36
10 -0.15
11 -0.15
12 -0.15
13 -0.15
14 -0.15
15 -0.15
16 -0.15
17 -0.15
18 0.08
19 -0.15
2 0.43
20 -0.15
21 0.28
23 0.15
24 0.15
25 0.15
26 0.15
27 0.15
28 0.15
29 0.15
3 -0.14
30 0.15
31 0.15
32 0.15
33 0.15
34 0.15
4 -0.14
7 -0.14
8 -0.15
9 -0.15

>  <PUBCHEM_EFFECTIVE_ROTOR_COUNT>  (1) 
2.2

>  <PUBCHEM_PHARMACOPHORE_FEATURES>  (1) 
5
1 1 acceptor
5 2 3 4 5 6 rings
6 3 5 8 10 14 16 rings
6 4 6 9 11 15 17 rings
6 7 12 13 18 19 20 rings

>  <PUBCHEM_HEAVY_ATOM_COUNT>  (1) 
21

>  <PUBCHEM_ATOM_DEF_STEREO_COUNT>  (1) 
0

>  <PUBCHEM_ATOM_UDEF_STEREO_COUNT>  (1) 
0

>  <PUBCHEM_BOND_DEF_STEREO_COUNT>  (1) 
0

>  <PUBCHEM_BOND_UDEF_STEREO_COUNT>  (1) 
0

>  <PUBCHEM_ISOTOPIC_ATOM_COUNT>  (1) 
0

>  <PUBCHEM_COMPONENT_COUNT>  (1) 
1

>  <PUBCHEM_CACTVS_TAUTO_COUNT>  (1) 
1

>  <PUBCHEM_CONFORMER_ID>  (1) 
00008D1500000001

>  <PUBCHEM_MMFF94_ENERGY>  (1) 
79.1808

>  <PUBCHEM_FEATURE_SELFOVERLAP>  (1) 
25.533

>  <PUBCHEM_SHAPE_FINGERPRINT>  (1) 
11471102 22 18335412452735043046
11582403 64 16236108403658471789
11640471 11 17775010128117270073
11725454 13 16738838062360903645
12156800 1 14517293157966232323
12202030 40 17531547398745834787
12363563 72 18045776788933214075
12403259 327 16444722008934918969
12553582 1 18268148643611488934
12592029 89 18264753536398546589
12788726 201 17326607003856134530
13009979 54 17632565037837327543
13134695 92 18263355915364688534
13140716 1 18121478392839744488
13681431 1 18263090928820083932
13965767 371 17272595848831566953
14787075 74 17267217356087127119
14790565 3 18410008862789584420
14844126 61 17112383651522102922
15309172 13 18192988446613294716
16945 1 18410566288733574372
17138139 8 17051297448583768503
17876694 64 17702656641013242833
1813 80 17914625960167719166
18219364 16 18191300674837255653
19049666 15 17895461528140078509
19591789 44 18264478654687265302
19765921 60 17843392136350848861
20101258 96 17763465016008782226
20715895 44 17485089588568534481
21524375 3 17985827274759440020
21731228 192 18049161369391349056
21756936 100 17412210989202480208
2255824 54 18341327864031651366
23419403 2 17967824842234248248
23526113 38 17677050135740423671
23558518 356 17762047049477031350
2748010 2 17764554696387267916
31174 14 18262533536686394123
350125 39 17976539738984238094
35225 105 17473836498393061888
3729539 64 18044688423763144844
3797600 57 17558286568119400171
394222 165 18131353063592319767
4340502 62 18125450941426172811
4409770 3 15610494662693233879
474 4 18270677683548007609
539174 4 18131350799680701704
57527295 17 17464504552772785079
5845 1 15538721421095950598
6992083 37 17628358169152706099
77492 1 17703780440533248167
81228 2 17397827878198491700
8988823 20 18266202641944211611

>  <PUBCHEM_SHAPE_MULTIPOLES>  (1) 
426.3
5.66
3.68
1.89
4.76
0
-1.25
0
-1.34
-5.22
0.16
2.2
0
0

>  <PUBCHEM_SHAPE_SELFOVERLAP>  (1) 
960.883

>  <PUBCHEM_SHAPE_VOLUME>  (1) 
226.2

>  <PUBCHEM_COORDINATE_TYPE>  (1) 
2
5
10

$$$$
