36127
     RDKit          3D

 14 14  0  0  1  0  0  0  0  0999 V2000
    2.0985    0.5518    0.6434 O   0  0  0  0  0  0  0  0  0  0  0  0
   -1.3105    0.2899    0.3929 N   0  0  0  0  0  0  0  0  0  0  0  0
    1.2751   -1.0910   -0.6324 N   0  0  0  0  0  0  0  0  0  0  0  0
    2.5615   -0.8216   -1.0608 N   0  0  0  0  0  0  0  0  0  0  0  0
   -1.5982   -0.7177   -0.6272 C   0  0  0  0  0  0  0  0  0  0  0  0
   -1.0780    1.5936   -0.2275 C   0  0  0  0  0  0  0  0  0  0  0  0
   -0.1532   -0.1089    1.1932 C   0  0  0  0  0  0  0  0  0  0  0  0
   -2.8063   -0.2977   -1.4599 C   0  0  0  0  0  0  0  0  0  0  0  0
   -1.8376   -2.0662    0.0442 C   0  0  0  0  0  0  0  0  0  0  0  0
    0.1455    1.5357   -1.1379 C   0  0  0  0  0  0  0  0  0  0  0  0
   -0.9026    2.6492    0.8596 C   0  0  0  0  0  0  0  0  0  0  0  0
   -0.4838   -1.3888    1.9645 C   0  0  0  0  0  0  0  0  0  0  0  0
    1.0866   -0.2717    0.3363 C   0  0  0  0  0  0  0  0  0  0  0  0
    3.0029    0.1434   -0.2883 C   0  0  0  0  0  0  0  0  0  0  0  0
  1 13  1  0
  1 14  1  0
  2  5  1  0
  2  6  1  0
  2  7  1  0
  3  4  1  0
  3 13  2  0
  4 14  2  0
  5  8  1  0
  5  9  1  0
  6 10  1  0
  6 11  1  0
  7 12  1  0
  7 13  1  0
M  END
>  <PUBCHEM_COMPOUND_CID>  (1) 
36127

>  <PUBCHEM_CONFORMER_RMSD>  (1) 
0.6

>  <PUBCHEM_CONFORMER_DIVERSEORDER>  (1) 
5
1
3
2
4

>  <PUBCHEM_MMFF94_PARTIAL_CHARGES>  (1) 
10
1 -0.28
13 0.3
14 0.33
2 -0.81
3 -0.34
33 0.15
4 -0.34
5 0.27
6 0.27
7 0.45

>  <PUBCHEM_EFFECTIVE_ROTOR_COUNT>  (1) 
4

>  <PUBCHEM_PHARMACOPHORE_FEATURES>  (1) 
4
1 2 cation
3 5 8 9 hydrophobe
3 6 10 11 hydrophobe
5 1 3 4 13 14 rings

>  <PUBCHEM_HEAVY_ATOM_COUNT>  (1) 
14

>  <PUBCHEM_ATOM_DEF_STEREO_COUNT>  (1) 
0

>  <PUBCHEM_ATOM_UDEF_STEREO_COUNT>  (1) 
1

>  <PUBCHEM_BOND_DEF_STEREO_COUNT>  (1) 
0

>  <PUBCHEM_BOND_UDEF_STEREO_COUNT>  (1) 
0

>  <PUBCHEM_ISOTOPIC_ATOM_COUNT>  (1) 
0

>  <PUBCHEM_COMPONENT_COUNT>  (1) 
1

>  <PUBCHEM_CACTVS_TAUTO_COUNT>  (1) 
1

>  <PUBCHEM_CONFORMER_ID>  (1) 
00008D1F00000005

>  <PUBCHEM_MMFF94_ENERGY>  (1) 
75.7705

>  <PUBCHEM_FEATURE_SELFOVERLAP>  (1) 
20.297

>  <PUBCHEM_SHAPE_FINGERPRINT>  (1) 
1 1 17259070588651923325
10353120 184 18260828202773153653
10702982 57 17624981530115124505
12423570 1 13445370316866192643
12897270 3 18342170089901682294
13024252 1 17968395475578174226
13299463 15 17988921150203385006
13898156 1 17757525500801379691
14120999 15 18040988553496687797
14817 1 15295170739468746955
15557651 10 17614018299674706372
15775835 57 17826793638071634748
16945 1 18412259519307544601
19837323 101 18195535796090289969
20511035 2 16819656809619869489
20711985 344 18200302222109785195
20820808 20 17024006221430668925
21501502 16 18268991986494218046
21524375 3 17688321083498045016
22802520 49 18342463586365487702
228727 97 18261103037487825033
23211744 25 17533198985448791635
23402539 116 18337656556014910646
23419403 2 17471804493531353076
23559900 14 18041546032431738368
2748010 2 18049155867332397557
353137 74 18261660477056253941
369184 2 16298113098432460808
430814 3 17690005535248286441
4369600 1 18192682692529000123
44249140 249 17704356550145287854
5084963 1 17824257094842430698
528886 8 18343013415420497543
535629 181 18260841375005249510
54276843 12 18188509998672780721
59915604 170 18264759016608186436
68419 9 17831556709695116345
81228 2 18341610386943881153

>  <PUBCHEM_SHAPE_MULTIPOLES>  (1) 
267.3
3.43
2.17
1.49
1.51
0.97
0.29
-0.84
-1.49
-0.98
0.51
-0.33
-0.21
0.06

>  <PUBCHEM_SHAPE_SELFOVERLAP>  (1) 
543.714

>  <PUBCHEM_SHAPE_VOLUME>  (1) 
158

>  <PUBCHEM_COORDINATE_TYPE>  (1) 
2
5
10

$$$$
