36120
     RDKit          3D

  8  8  0  0  0  0  0  0  0  0999 V2000
    2.3623   -0.0096   -1.2855 Br  0  0  0  0  0  0  0  0  0  0  0  0
   -2.6057   -0.0063   -0.5944 O   0  0  0  0  0  0  0  0  0  0  0  0
   -1.4322    0.0068    0.2114 C   0  0  0  0  0  0  0  0  0  0  0  0
   -0.6203    1.2648   -0.0868 C   0  0  0  0  0  0  0  0  0  0  0  0
   -0.6285   -1.2569   -0.0799 C   0  0  0  0  0  0  0  0  0  0  0  0
    0.7062    1.2768    0.6706 C   0  0  0  0  0  0  0  0  0  0  0  0
    0.6976   -1.2738    0.6779 C   0  0  0  0  0  0  0  0  0  0  0  0
    1.5206   -0.0017    0.4867 C   0  0  0  0  0  0  0  0  0  0  0  0
  1  8  1  0
  2  3  1  0
  3  4  1  0
  3  5  1  0
  4  6  1  0
  5  7  1  0
  6  8  1  0
  7  8  1  0
M  END
>  <PUBCHEM_COMPOUND_CID>  (1) 
36120

>  <PUBCHEM_CONFORMER_RMSD>  (1) 
0.4

>  <PUBCHEM_CONFORMER_DIVERSEORDER>  (1) 
2
6
3
1
7
5
4

>  <PUBCHEM_MMFF94_PARTIAL_CHARGES>  (1) 
5
1 -0.23
19 0.4
2 -0.68
3 0.28
8 0.23

>  <PUBCHEM_EFFECTIVE_ROTOR_COUNT>  (1) 
1.2

>  <PUBCHEM_PHARMACOPHORE_FEATURES>  (1) 
4
1 1 hydrophobe
1 2 acceptor
1 2 donor
6 3 4 5 6 7 8 rings

>  <PUBCHEM_HEAVY_ATOM_COUNT>  (1) 
8

>  <PUBCHEM_ATOM_DEF_STEREO_COUNT>  (1) 
0

>  <PUBCHEM_ATOM_UDEF_STEREO_COUNT>  (1) 
0

>  <PUBCHEM_BOND_DEF_STEREO_COUNT>  (1) 
0

>  <PUBCHEM_BOND_UDEF_STEREO_COUNT>  (1) 
0

>  <PUBCHEM_ISOTOPIC_ATOM_COUNT>  (1) 
0

>  <PUBCHEM_COMPONENT_COUNT>  (1) 
1

>  <PUBCHEM_CACTVS_TAUTO_COUNT>  (1) 
1

>  <PUBCHEM_CONFORMER_ID>  (1) 
00008D1800000002

>  <PUBCHEM_MMFF94_ENERGY>  (1) 
7.5564

>  <PUBCHEM_FEATURE_SELFOVERLAP>  (1) 
20.297

>  <PUBCHEM_SHAPE_FINGERPRINT>  (1) 
16714656 1 18338529585406024398
18185500 45 18192986015624537522
20653085 51 16589457334774911646
21040471 1 18262508290530894667
21293036 1 18336835285126767013
23552423 10 17972882453661393474
29004967 10 16128374848596783402
5084963 1 17750224829307708826

>  <PUBCHEM_SHAPE_MULTIPOLES>  (1) 
164.71
2.88
1.43
1.06
0.03
0.01
0.14
-0.01
1.26
0.06
-0.24
-0.45
0
0

>  <PUBCHEM_SHAPE_SELFOVERLAP>  (1) 
303.532

>  <PUBCHEM_SHAPE_VOLUME>  (1) 
106.2

>  <PUBCHEM_COORDINATE_TYPE>  (1) 
2
5
10

$$$$
