36129
     RDKit          3D

 14 15  0  0  1  0  0  0  0  0999 V2000
    2.0745   -0.6162   -1.1040 O   0  0  0  0  0  0  0  0  0  0  0  0
   -0.9716    0.2080    0.1595 N   0  0  0  0  0  0  0  0  0  0  0  0
    1.8795   -0.5253    1.1227 N   0  0  0  0  0  0  0  0  0  0  0  0
    2.9377   -1.3619    0.8204 N   0  0  0  0  0  0  0  0  0  0  0  0
   -2.0956    1.1118   -0.1232 C   0  0  0  0  0  0  0  0  0  0  0  0
   -1.1865   -1.1130   -0.4475 C   0  0  0  0  0  0  0  0  0  0  0  0
    0.2842    0.7902   -0.3131 C   0  0  0  0  0  0  0  0  0  0  0  0
   -3.4105    0.5399    0.4088 C   0  0  0  0  0  0  0  0  0  0  0  0
   -2.4718   -1.7576    0.0740 C   0  0  0  0  0  0  0  0  0  0  0  0
   -3.6772   -0.8523   -0.1521 C   0  0  0  0  0  0  0  0  0  0  0  0
    0.4675    2.1956    0.2917 C   0  0  0  0  0  0  0  0  0  0  0  0
    1.4462   -0.1455   -0.0201 C   0  0  0  0  0  0  0  0  0  0  0  0
    1.7090    2.9118   -0.2274 C   0  0  0  0  0  0  0  0  0  0  0  0
    3.0145   -1.3854   -0.4897 C   0  0  0  0  0  0  0  0  0  0  0  0
  1 12  1  0
  1 14  1  0
  2  5  1  0
  2  6  1  0
  2  7  1  0
  3  4  1  0
  3 12  2  0
  4 14  2  0
  5  8  1  0
  6  9  1  0
  7 11  1  0
  7 12  1  0
  8 10  1  0
  9 10  1  0
 11 13  1  0
M  END
>  <PUBCHEM_COMPOUND_CID>  (1) 
36129

>  <PUBCHEM_CONFORMER_RMSD>  (1) 
0.6

>  <PUBCHEM_CONFORMER_DIVERSEORDER>  (1) 
4
29
23
25
26
35
33
30
37
9
32
3
27
15
1
31
20
41
8
39
18
34
36
28
40
11
17
6
10
12
22
24
16
2
7
38
14
19
13
5
21

>  <PUBCHEM_MMFF94_PARTIAL_CHARGES>  (1) 
10
1 -0.28
12 0.3
14 0.33
2 -0.81
3 -0.34
31 0.15
4 -0.34
5 0.27
6 0.27
7 0.45

>  <PUBCHEM_EFFECTIVE_ROTOR_COUNT>  (1) 
4.2

>  <PUBCHEM_PHARMACOPHORE_FEATURES>  (1) 
4
1 13 hydrophobe
1 2 cation
5 1 3 4 12 14 rings
6 2 5 6 8 9 10 rings

>  <PUBCHEM_HEAVY_ATOM_COUNT>  (1) 
14

>  <PUBCHEM_ATOM_DEF_STEREO_COUNT>  (1) 
0

>  <PUBCHEM_ATOM_UDEF_STEREO_COUNT>  (1) 
1

>  <PUBCHEM_BOND_DEF_STEREO_COUNT>  (1) 
0

>  <PUBCHEM_BOND_UDEF_STEREO_COUNT>  (1) 
0

>  <PUBCHEM_ISOTOPIC_ATOM_COUNT>  (1) 
0

>  <PUBCHEM_COMPONENT_COUNT>  (1) 
1

>  <PUBCHEM_CACTVS_TAUTO_COUNT>  (1) 
1

>  <PUBCHEM_CONFORMER_ID>  (1) 
00008D2100000004

>  <PUBCHEM_MMFF94_ENERGY>  (1) 
13.0276

>  <PUBCHEM_FEATURE_SELFOVERLAP>  (1) 
20.297

>  <PUBCHEM_SHAPE_FINGERPRINT>  (1) 
10130415 120 18335423434998177787
10465860 71 18270138845556538012
11578080 2 17386824176513696860
12932764 1 17894628162887532733
13380535 21 18193850459750800225
13380535 76 17975972381988234665
14144814 61 18411139130181482803
14648413 74 18339366369621154201
15279308 51 18272082838065149655
15375462 189 18114466664838473842
15442244 35 18412548691182427201
16945 1 18337953394358560325
17990270 104 18341333387180291118
18511873 20 18341334405614931137
20559304 39 18270682094484636977
20645477 70 18338510975877623239
20653091 64 18410293652752404296
20871998 22 18341331102563540710
20871999 31 18336835177757892062
21501502 16 18269838769382578869
21501925 9 18341884238506180227
21524375 3 17762617695690632388
2255824 54 18261678180689778454
232386 152 18408605846548087822
23402539 116 18126835011004463542
23463225 33 18337391517772923375
23552423 10 18191307280776206989
23557571 272 18128824036951919236
23598294 1 17903917760347296192
2748010 2 18340194237299496276
43471831 8 17833263499465262784
57177213 63 17975137852831876125
5902787 121 18408317791676075002
7364860 26 18270120252532707060
74978 22 18409729590745149615
81228 2 18054232020681908368
81539 233 17973720569448221556

>  <PUBCHEM_SHAPE_MULTIPOLES>  (1) 
267.3
5.55
2.46
0.84
2.51
1.56
-0.04
-2.17
-0.2
-1.38
0.05
-0.38
-0.15
-0.22

>  <PUBCHEM_SHAPE_SELFOVERLAP>  (1) 
544.45

>  <PUBCHEM_SHAPE_VOLUME>  (1) 
156.1

>  <PUBCHEM_COORDINATE_TYPE>  (1) 
2
5
10

$$$$
