36145
     RDKit          3D

 38 43  0  0  1  0  0  0  0  0999 V2000
    3.1845   -2.6519   -1.7957 O   0  0  0  0  0  0  0  0  0  0  0  0
   -0.8890   -3.8241   -0.0135 O   0  0  0  0  0  0  0  0  0  0  0  0
   -4.2921   -0.8621    1.6039 O   0  0  0  0  0  0  0  0  0  0  0  0
    6.1857    2.7717    1.5540 O   0  0  0  0  0  0  0  0  0  0  0  0
   -5.3276   -0.5338   -0.4693 O   0  0  0  0  0  0  0  0  0  0  0  0
    7.9327    3.2459    0.1330 O   0  0  0  0  0  0  0  0  0  0  0  0
   -4.9506    3.5809   -0.1282 O   0  0  0  0  0  0  0  0  0  0  0  0
   -6.7044    2.4733   -2.1054 O   0  0  0  0  0  0  0  0  0  0  0  0
    1.4578   -1.2299   -0.8176 C   0  0  0  0  0  0  0  0  0  0  0  0
    2.9136   -1.3097   -1.3970 C   0  0  0  0  0  0  0  0  0  0  0  0
    1.3451   -1.8715    0.5946 C   0  0  0  0  0  0  0  0  0  0  0  0
    4.0185   -0.8267   -0.4092 C   0  0  0  0  0  0  0  0  0  0  0  0
   -0.1268   -1.8414    1.1928 C   0  0  0  0  0  0  0  0  0  0  0  0
   -1.1482   -2.4207    0.1499 C   0  0  0  0  0  0  0  0  0  0  0  0
    2.3885   -1.2386    1.5367 C   0  0  0  0  0  0  0  0  0  0  0  0
    3.8081   -1.3896    1.0064 C   0  0  0  0  0  0  0  0  0  0  0  0
    3.8609    0.7180   -0.5082 C   0  0  0  0  0  0  0  0  0  0  0  0
    0.4336   -1.8830   -1.7655 C   0  0  0  0  0  0  0  0  0  0  0  0
    3.1010   -0.3488   -2.5910 C   0  0  0  0  0  0  0  0  0  0  0  0
   -0.9875   -1.7617   -1.2331 C   0  0  0  0  0  0  0  0  0  0  0  0
    3.6148    0.9719   -2.0054 C   0  0  0  0  0  0  0  0  0  0  0  0
   -0.5577   -0.3983    1.5907 C   0  0  0  0  0  0  0  0  0  0  0  0
   -2.6117   -2.2831    0.6202 C   0  0  0  0  0  0  0  0  0  0  0  0
    5.4370   -1.2741   -0.8627 C   0  0  0  0  0  0  0  0  0  0  0  0
   -0.1337   -2.7234    2.4770 C   0  0  0  0  0  0  0  0  0  0  0  0
   -2.0112   -0.2969    2.0543 C   0  0  0  0  0  0  0  0  0  0  0  0
   -2.9872   -0.8623    1.0312 C   0  0  0  0  0  0  0  0  0  0  0  0
    4.9770    1.5462    0.0446 C   0  0  0  0  0  0  0  0  0  0  0  0
    4.9615    2.0391    1.4369 C   0  0  0  0  0  0  0  0  0  0  0  0
    6.0773    1.9378   -0.5921 C   0  0  0  0  0  0  0  0  0  0  0  0
   -5.1861   -0.0348    0.8615 C   0  0  0  0  0  0  0  0  0  0  0  0
    6.8566    2.7230    0.3664 C   0  0  0  0  0  0  0  0  0  0  0  0
   -4.6783    1.4033    0.8587 C   0  0  0  0  0  0  0  0  0  0  0  0
   -5.5683    2.3032    0.0099 C   0  0  0  0  0  0  0  0  0  0  0  0
   -6.2102    0.2269   -1.3013 C   0  0  0  0  0  0  0  0  0  0  0  0
   -5.7616    1.6933   -1.3777 C   0  0  0  0  0  0  0  0  0  0  0  0
   -7.6692    0.0314   -0.8840 C   0  0  0  0  0  0  0  0  0  0  0  0
   -4.7529    4.2001    1.1342 C   0  0  0  0  0  0  0  0  0  0  0  0
  1 10  1  0
  2 14  1  0
  3 27  1  0
  3 31  1  0
  4 29  1  0
  4 32  1  0
  5 31  1  0
  5 35  1  0
  6 32  2  0
  7 34  1  0
  7 38  1  0
  8 36  1  0
  9 10  1  0
  9 11  1  0
  9 18  1  0
 10 12  1  0
 10 19  1  0
 11 13  1  0
 11 15  1  0
 12 16  1  0
 12 17  1  0
 12 24  1  0
 13 14  1  0
 13 22  1  0
 13 25  1  0
 14 20  1  0
 14 23  1  0
 15 16  1  0
 17 21  1  0
 17 28  1  0
 18 20  1  0
 19 21  1  0
 22 26  1  0
 23 27  1  0
 26 27  1  0
 28 29  1  0
 28 30  2  0
 30 32  1  0
 31 33  1  0
 33 34  1  0
 34 36  1  0
 35 36  1  0
 35 37  1  0
M  END
>  <PUBCHEM_COMPOUND_CID>  (1) 
36145

>  <PUBCHEM_CONFORMER_RMSD>  (1) 
1

>  <PUBCHEM_CONFORMER_DIVERSEORDER>  (1) 
5
140
188
175
109
102
200
167
185
65
121
181
95
184
15
195
84
160
134
192
169
120
23
105
155
190
41
165
113
31
178
122
72
77
149
171
11
106
159
143
79
174
53
196
117
154
123
158
62
147
104
127
112
199
49
107
100
24
164
139
151
111
57
118
137
67
156
76
130
108
89
172
198
194
29
10
128
197
20
180
119
150
163
98
60
125
183
46
73
173
168
177
30
56
86
78
37
68
83
87
191
152
32
85
94
132
64
116
162
153
179
144
17
33
182
176
70
22
82
19
69
12
66
21
54
59
55
187
142
35
25
186
26
115
145
80
148
131
170
141
91
2
93
129
88
126
96
38
193
34
138
4
99
7
36
103
51
90
47
74
133
45
52
166
157
81
1
42
114
136
39
135
189
97
43
161
101
8
6
124
71
9
18
75
63
13
110
50
92
14
146
16
3
40
48
61
58
27
28
44

>  <PUBCHEM_MMFF94_PARTIAL_CHARGES>  (1) 
25
1 -0.68
10 0.28
14 0.28
17 0.14
2 -0.68
27 0.28
28 -0.28
29 0.42
3 -0.56
30 -0.14
31 0.56
32 0.71
34 0.28
35 0.28
36 0.28
38 0.28
4 -0.43
5 -0.56
6 -0.57
67 0.4
68 0.4
7 -0.56
71 0.15
8 -0.68
81 0.4

>  <PUBCHEM_EFFECTIVE_ROTOR_COUNT>  (1) 
7.8

>  <PUBCHEM_PHARMACOPHORE_FEATURES>  (1) 
16
1 1 acceptor
1 1 donor
1 2 acceptor
1 2 donor
1 3 acceptor
1 5 acceptor
1 6 acceptor
1 7 acceptor
1 8 acceptor
1 8 donor
5 10 12 17 19 21 rings
5 4 28 29 30 32 rings
6 13 14 22 23 26 27 rings
6 5 31 33 34 35 36 rings
6 9 10 11 12 15 16 rings
6 9 11 13 14 18 20 rings

>  <PUBCHEM_HEAVY_ATOM_COUNT>  (1) 
38

>  <PUBCHEM_ATOM_DEF_STEREO_COUNT>  (1) 
8

>  <PUBCHEM_ATOM_UDEF_STEREO_COUNT>  (1) 
4

>  <PUBCHEM_BOND_DEF_STEREO_COUNT>  (1) 
0

>  <PUBCHEM_BOND_UDEF_STEREO_COUNT>  (1) 
0

>  <PUBCHEM_ISOTOPIC_ATOM_COUNT>  (1) 
0

>  <PUBCHEM_COMPONENT_COUNT>  (1) 
1

>  <PUBCHEM_CACTVS_TAUTO_COUNT>  (1) 
1

>  <PUBCHEM_CONFORMER_ID>  (1) 
00008D3100000005

>  <PUBCHEM_MMFF94_ENERGY>  (1) 
139.9493

>  <PUBCHEM_FEATURE_SELFOVERLAP>  (1) 
81.467

>  <PUBCHEM_SHAPE_FINGERPRINT>  (1) 
10554248 39 17418107485816103046
10674148 151 17023204721232485926
11135609 12 7925634371988508212
11331351 85 16674707612405940979
11377469 6 12751245834818244155
11387372 6 9007064565263448233
11578080 2 18408879668520700950
11796584 16 10447655625871152483
11961588 58 18130507521596716290
12422481 6 15864065442981964103
12633257 1 14707215456290770330
12655364 131 14635136929267914769
131258 43 10015582857135293858
13673619 4 8934733179818480602
13782708 43 9511191720266247252
13911987 19 16701751543619917479
13947930 73 10665223795889216368
14251764 30 9295289434654708248
14739800 52 18334569131548326675
14767858 380 16559034899884826087
14904525 67 17974857478269549356
14950920 106 13190348980282390805
15082195 135 17845936208409263784
15238133 3 17749679596838065526
15289351 153 18410007724796649032
15669420 48 18059289981003192199
15684393 108 14907909283913081893
15721738 202 8142091966384486546
16708801 149 18188502284928160349
16989378 47 14261055589591484369
19246450 95 14780084442601637317
20511986 3 17821999871176296559
21033648 144 18129956666255161803
21033648 29 17894353297617889202
21424621 283 18260824916759571579
21599406 157 16917069928205987133
21859007 373 18114742642615748390
21968339 14 17988924449276202312
23191077 185 18410564081379697931
23516275 100 18409161138718505692
23569914 2 17982975043008556984
25269216 80 16415480480947445541
2748736 6 18259700103490127713
2838139 119 18340210687324790371
3103668 31 16340592876391081870
3388396 114 17346330301592772008
376196 1 18339935805028687099
3862424 121 12966553348557386845
3918712 181 18337664231639167341
393628 179 18270952566046137144
4112364 45 18187641358543071659
4173938 306 17703211993438881232
439807 62 9439415639622456200
50677037 204 18335143051403064309
5104073 3 14707502450115547410
513202 73 7781529104897222359
6697151 62 17984717627653158142
7918774 8 9655571903249743567
9555976 147 15791741823413160761
999808 66 10665213870219535032

>  <PUBCHEM_SHAPE_MULTIPOLES>  (1) 
735.07
19.3
4.29
2.21
5.92
2.58
0.23
22.05
3.64
-0.13
-0.9
-0.03
-0.45
2.1

>  <PUBCHEM_SHAPE_SELFOVERLAP>  (1) 
1577.502

>  <PUBCHEM_SHAPE_VOLUME>  (1) 
403.8

>  <PUBCHEM_COORDINATE_TYPE>  (1) 
2
5
10

$$$$
