36151
     RDKit          3D

 16 16  0  0  1  0  0  0  0  0999 V2000
   -1.3981   -1.0763    0.0681 O   0  0  0  0  0  0  0  0  0  0  0  0
   -0.4925    1.0110   -0.1633 O   0  0  0  0  0  0  0  0  0  0  0  0
    0.8304   -0.9076    0.0587 N   0  0  0  0  0  0  0  0  0  0  0  0
   -2.7091   -0.5018   -0.0019 C   0  0  0  0  0  0  0  0  0  0  0  0
   -2.8371    0.1941   -1.3711 C   0  0  0  0  0  0  0  0  0  0  0  0
   -3.6980   -1.6568    0.1596 C   0  0  0  0  0  0  0  0  0  0  0  0
   -4.1406    0.9482   -1.6017 C   0  0  0  0  0  0  0  0  0  0  0  0
   -2.8624    0.4582    1.1081 C   0  0  0  0  0  0  0  0  0  0  0  0
   -0.3518   -0.1982   -0.0267 C   0  0  0  0  0  0  0  0  0  0  0  0
    2.1514   -0.4073    0.0079 C   0  0  0  0  0  0  0  0  0  0  0  0
    3.2162   -1.2880    0.1121 C   0  0  0  0  0  0  0  0  0  0  0  0
    2.3558    0.9550   -0.1438 C   0  0  0  0  0  0  0  0  0  0  0  0
    4.5196   -0.7935    0.0633 C   0  0  0  0  0  0  0  0  0  0  0  0
    3.6592    1.4494   -0.1927 C   0  0  0  0  0  0  0  0  0  0  0  0
    4.7412    0.5752   -0.0892 C   0  0  0  0  0  0  0  0  0  0  0  0
   -2.9842    1.2385    2.0125 C   0  0  0  0  0  0  0  0  0  0  0  0
  1  4  1  0
  1  9  1  0
  2  9  2  0
  3  9  1  0
  3 10  1  0
  4  5  1  0
  4  6  1  0
  4  8  1  0
  5  7  1  0
  8 16  3  0
 10 11  2  0
 10 12  1  0
 11 13  1  0
 12 14  2  0
 13 15  2  0
 14 15  1  0
M  END
>  <PUBCHEM_COMPOUND_CID>  (1) 
36151

>  <PUBCHEM_CONFORMER_RMSD>  (1) 
0.6

>  <PUBCHEM_CONFORMER_DIVERSEORDER>  (1) 
1
33
27
45
37
42
13
36
48
2
32
31
5
34
22
43
44
10
39
23
11
40
12
29
46
28
8
41
47
9
26
4
18
30
38
7
35
6
19
24
14
25
17
3
20
16
21
15

>  <PUBCHEM_MMFF94_PARTIAL_CHARGES>  (1) 
20
1 -0.43
10 0.12
11 -0.15
12 -0.15
13 -0.15
14 -0.15
15 -0.15
16 -0.18
2 -0.57
25 0.37
26 0.15
27 0.15
28 0.15
29 0.15
3 -0.55
30 0.15
31 0.18
4 0.48
8 -0.2
9 0.78

>  <PUBCHEM_EFFECTIVE_ROTOR_COUNT>  (1) 
5

>  <PUBCHEM_PHARMACOPHORE_FEATURES>  (1) 
5
1 16 hydrophobe
1 2 acceptor
1 3 donor
1 7 hydrophobe
6 10 11 12 13 14 15 rings

>  <PUBCHEM_HEAVY_ATOM_COUNT>  (1) 
16

>  <PUBCHEM_ATOM_DEF_STEREO_COUNT>  (1) 
0

>  <PUBCHEM_ATOM_UDEF_STEREO_COUNT>  (1) 
1

>  <PUBCHEM_BOND_DEF_STEREO_COUNT>  (1) 
0

>  <PUBCHEM_BOND_UDEF_STEREO_COUNT>  (1) 
0

>  <PUBCHEM_ISOTOPIC_ATOM_COUNT>  (1) 
0

>  <PUBCHEM_COMPONENT_COUNT>  (1) 
1

>  <PUBCHEM_CACTVS_TAUTO_COUNT>  (1) 
2

>  <PUBCHEM_CONFORMER_ID>  (1) 
00008D3700000001

>  <PUBCHEM_MMFF94_ENERGY>  (1) 
43.923

>  <PUBCHEM_FEATURE_SELFOVERLAP>  (1) 
25.371

>  <PUBCHEM_SHAPE_FINGERPRINT>  (1) 
10014705 185 18040710364254062173
10680689 15 17531251659760630418
11471102 20 18409726262456556300
11615757 297 18411701006261094384
12500047 106 17022899042917205850
12507557 5 18410007766902309328
12916754 54 18335706078269406907
13296908 3 17603304851630997406
13675066 3 17458350727587952026
14144814 61 18342178864656907562
14289901 80 17095527330882152682
15375358 24 17676482839422523622
18186145 218 18408329869440641730
19050596 39 18201444653403831160
19422 9 18343589546581045122
200 152 18059565910786577567
20279233 1 17458063772190949258
20281475 54 18342459223032116762
20300324 65 17203323412409856345
20645477 56 17749384828789893637
20645477 70 18188762847719311510
2306618 200 18409166598032160817
23402539 116 17132115719612190016
23402655 69 18410289212230714180
23557571 272 18040718077999521151
23559900 14 18261946363402467818
3268164 11 16415474939653922969
4214541 1 18333447651110122511
5104073 3 18409730673177077442
633830 44 18130802126572956270
77779 3 18260265265504323638
90127 26 17313107453799436788

>  <PUBCHEM_SHAPE_MULTIPOLES>  (1) 
312.55
9.97
1.5
1.25
5.2
0.09
-0.15
-0.55
0.82
-0.08
-0.15
-2.06
-0.54
-0.24

>  <PUBCHEM_SHAPE_SELFOVERLAP>  (1) 
642.233

>  <PUBCHEM_SHAPE_VOLUME>  (1) 
178.4

>  <PUBCHEM_COORDINATE_TYPE>  (1) 
2
5
10

$$$$
