36153
     RDKit          3D

 12 12  0  0  1  0  0  0  0  0999 V2000
   -3.4617    0.1983    0.6244 O   0  0  0  0  0  0  0  0  0  0  0  0
   -2.4128    1.5900   -0.8552 O   0  0  0  0  0  0  0  0  0  0  0  0
   -0.5025   -1.0195    0.0622 C   0  0  0  0  0  0  0  0  0  0  0  0
    0.1095    0.3007   -0.2602 C   0  0  0  0  0  0  0  0  0  0  0  0
   -1.1108    0.2447    0.5947 C   0  0  0  0  0  0  0  0  0  0  0  0
   -1.1818   -1.7365   -1.0559 C   0  0  0  0  0  0  0  0  0  0  0  0
    0.1490   -1.9332    1.0464 C   0  0  0  0  0  0  0  0  0  0  0  0
    1.3811    0.6931    0.3769 C   0  0  0  0  0  0  0  0  0  0  0  0
   -2.3760    0.7567    0.0374 C   0  0  0  0  0  0  0  0  0  0  0  0
    2.6314    0.4090   -0.0354 C   0  0  0  0  0  0  0  0  0  0  0  0
    3.8315    0.8874    0.7333 C   0  0  0  0  0  0  0  0  0  0  0  0
    2.9431   -0.3908   -1.2687 C   0  0  0  0  0  0  0  0  0  0  0  0
  1  9  1  0
  2  9  2  0
  3  4  1  0
  3  5  1  0
  3  6  1  0
  3  7  1  0
  4  5  1  0
  4  8  1  0
  5  9  1  0
  8 10  2  3
 10 11  1  0
 10 12  1  0
M  ISO  1   9  14
M  END
>  <PUBCHEM_COMPOUND_CID>  (1) 
36153

>  <PUBCHEM_CONFORMER_RMSD>  (1) 
0.6

>  <PUBCHEM_CONFORMER_DIVERSEORDER>  (1) 
1
13
7
17
2
9
5
16
14
10
4
3
18
12
11
8
6
15

>  <PUBCHEM_MMFF94_PARTIAL_CHARGES>  (1) 
16
1 -0.65
10 -0.28
11 0.14
12 0.14
13 0.1
14 0.1
2 -0.57
21 0.15
22 0.5
3 -0.19
4 -0.06
5 -0.1
6 0.09
7 0.09
8 -0.19
9 0.72

>  <PUBCHEM_EFFECTIVE_ROTOR_COUNT>  (1) 
2.6

>  <PUBCHEM_PHARMACOPHORE_FEATURES>  (1) 
5
1 1 acceptor
1 2 acceptor
3 1 2 9 anion
3 10 11 12 hydrophobe
3 3 6 7 hydrophobe

>  <PUBCHEM_HEAVY_ATOM_COUNT>  (1) 
12

>  <PUBCHEM_ATOM_DEF_STEREO_COUNT>  (1) 
0

>  <PUBCHEM_ATOM_UDEF_STEREO_COUNT>  (1) 
2

>  <PUBCHEM_BOND_DEF_STEREO_COUNT>  (1) 
0

>  <PUBCHEM_BOND_UDEF_STEREO_COUNT>  (1) 
0

>  <PUBCHEM_ISOTOPIC_ATOM_COUNT>  (1) 
1

>  <PUBCHEM_COMPONENT_COUNT>  (1) 
1

>  <PUBCHEM_CACTVS_TAUTO_COUNT>  (1) 
1

>  <PUBCHEM_CONFORMER_ID>  (1) 
00008D3900000001

>  <PUBCHEM_MMFF94_ENERGY>  (1) 
21.8503

>  <PUBCHEM_FEATURE_SELFOVERLAP>  (1) 
25.426

>  <PUBCHEM_SHAPE_FINGERPRINT>  (1) 
1 1 18266458698339106263
11062470 55 15195569000391543240
12138202 97 18131060571771326598
12716758 59 18202846564862305610
12932764 1 18410292523413148248
13024252 1 17895186770349572803
13839132 238 17024592179545143349
14325111 11 18410856538175710553
14713566 1 18060698394393072706
15775835 57 18410290302582746904
16945 1 18187088368613358947
18186145 218 18130795503475026568
20201158 50 17846222159332727276
20645464 45 18341611551122286512
20645476 183 17677068905222442814
20645477 56 18343301509031657592
20653085 51 18272661155068716417
20711983 171 16878230766095956093
21028194 46 18334862688278537824
21501502 16 18053660562429980464
23402539 116 17917701396810789765
23559900 14 18272655641538548638
276578 36 18261680276702429978
305870 269 18042112185592037746
369184 2 16916797317788125490
5084963 1 18337405880264529673
528862 383 17750223721369982610
6333449 129 18059287772561592766
69090 78 18131629006250454127
81228 2 18050005789984588779

>  <PUBCHEM_SHAPE_MULTIPOLES>  (1) 
235.22
5.26
1.64
1.1
2.37
0.65
0.11
-2.15
-0.01
-0.65
0.03
0.21
0.28
0.36

>  <PUBCHEM_SHAPE_SELFOVERLAP>  (1) 
468.415

>  <PUBCHEM_SHAPE_VOLUME>  (1) 
142.3

>  <PUBCHEM_COORDINATE_TYPE>  (1) 
2
5
10

$$$$
