36166
     RDKit          3D

 19 22  0  0  1  0  0  0  0  0999 V2000
   -0.5526    0.3216   -0.8863 N   0  0  0  0  0  0  0  0  0  0  0  0
    0.5633    1.2429    0.9252 N   0  0  0  0  0  0  0  0  0  0  0  0
    1.6528    1.4786    0.1980 N   0  0  0  0  0  0  0  0  0  0  0  0
   -2.8799   -1.5896    0.3207 C   0  0  0  0  0  0  0  0  0  0  0  0
   -3.7260    0.6820   -0.3153 C   0  0  0  0  0  0  0  0  0  0  0  0
   -4.1315   -0.7445    0.0668 C   0  0  0  0  0  0  0  0  0  0  0  0
   -1.7466    0.4864    1.2905 C   0  0  0  0  0  0  0  0  0  0  0  0
   -2.0786   -0.9954    1.4835 C   0  0  0  0  0  0  0  0  0  0  0  0
   -2.9427    1.3252    0.8337 C   0  0  0  0  0  0  0  0  0  0  0  0
   -1.7042   -0.2919   -1.5458 C   0  0  0  0  0  0  0  0  0  0  0  0
   -2.0345   -1.6647   -0.9561 C   0  0  0  0  0  0  0  0  0  0  0  0
   -2.9005    0.6604   -1.6071 C   0  0  0  0  0  0  0  0  0  0  0  0
   -0.5507    0.6702    0.3571 C   0  0  0  0  0  0  0  0  0  0  0  0
    2.7475    0.6065    0.0852 C   0  0  0  0  0  0  0  0  0  0  0  0
    3.8788    0.9871   -0.6427 C   0  0  0  0  0  0  0  0  0  0  0  0
    2.7131   -0.6487    0.6999 C   0  0  0  0  0  0  0  0  0  0  0  0
    4.9658    0.1203   -0.7552 C   0  0  0  0  0  0  0  0  0  0  0  0
    3.8002   -1.5155    0.5875 C   0  0  0  0  0  0  0  0  0  0  0  0
    4.9265   -1.1309   -0.1400 C   0  0  0  0  0  0  0  0  0  0  0  0
  1 10  1  0
  1 13  2  0
  2  3  1  0
  2 13  1  0
  3 14  1  0
  4  6  1  0
  4  8  1  0
  4 11  1  0
  5  6  1  0
  5  9  1  0
  5 12  1  0
  7  8  1  0
  7  9  1  0
  7 13  1  0
 10 11  1  0
 10 12  1  0
 14 15  2  0
 14 16  1  0
 15 17  1  0
 16 18  2  0
 17 19  2  0
 18 19  1  0
M  END
>  <PUBCHEM_COMPOUND_CID>  (1) 
36166

>  <PUBCHEM_CONFORMER_RMSD>  (1) 
0.6

>  <PUBCHEM_CONFORMER_DIVERSEORDER>  (1) 
2
21
14
17
3
12
13
15
1
9
23
20
10
7
5
16
24
18
26
19
25
22
6
8
11
4

>  <PUBCHEM_MMFF94_PARTIAL_CHARGES>  (1) 
19
1 -0.7
10 0.25
13 0.44
14 0.1
15 -0.15
16 -0.15
17 -0.15
18 -0.15
19 -0.15
2 -0.45
3 -0.5
34 0.4
35 0.4
36 0.15
37 0.15
38 0.15
39 0.15
40 0.15
7 0.06

>  <PUBCHEM_EFFECTIVE_ROTOR_COUNT>  (1) 
4

>  <PUBCHEM_PHARMACOPHORE_FEATURES>  (1) 
8
1 2 donor
1 3 donor
3 1 2 13 cation
6 14 15 16 17 18 19 rings
6 4 5 6 10 11 12 rings
6 4 5 6 7 8 9 rings
7 1 4 7 8 10 11 13 rings
7 1 5 7 9 10 12 13 rings

>  <PUBCHEM_HEAVY_ATOM_COUNT>  (1) 
19

>  <PUBCHEM_ATOM_DEF_STEREO_COUNT>  (1) 
0

>  <PUBCHEM_ATOM_UDEF_STEREO_COUNT>  (1) 
2

>  <PUBCHEM_BOND_DEF_STEREO_COUNT>  (1) 
0

>  <PUBCHEM_BOND_UDEF_STEREO_COUNT>  (1) 
0

>  <PUBCHEM_ISOTOPIC_ATOM_COUNT>  (1) 
0

>  <PUBCHEM_COMPONENT_COUNT>  (1) 
1

>  <PUBCHEM_CACTVS_TAUTO_COUNT>  (1) 
2

>  <PUBCHEM_CONFORMER_ID>  (1) 
00008D4600000002

>  <PUBCHEM_MMFF94_ENERGY>  (1) 
56.1075

>  <PUBCHEM_FEATURE_SELFOVERLAP>  (1) 
52.398

>  <PUBCHEM_SHAPE_FINGERPRINT>  (1) 
10498660 4 12901544646044183414
11132069 177 15052016770837866161
11315181 36 18273496771632867064
11578080 2 18058147510723028304
12173636 292 14418403348414554933
12236239 1 18272373057911863652
12346177 29 16558742408237886733
12553582 1 18060137635389813368
12592029 89 18060423491233549351
12670545 47 14261349189207734080
12707595 3 18060136565869318200
128620 24 13984661455954096614
13024252 1 15864064391315966885
13224815 77 18408036330069406978
13296908 3 18272083946098289480
14004511 7 14908185252350847884
14142880 1 16127832768242856153
16752209 62 17846207813667276513
16945 1 15840997792774706585
17349148 13 17060617810772348605
18186145 218 17385442120519965904
19862831 5 18260827090329086400
200 152 18411136939779661026
20281475 54 18408882915273130264
20325693 3 17312823762434803127
20645477 70 18335422340356679590
21065199 12 12679463084369095702
22646028 28 18343863316602632974
2306618 200 16271931497824756665
23402539 116 12319449970659361105
23557571 272 15503236616118752776
23559900 14 18339917229131238129
27216 239 10015590506033534835
3268164 11 14562530708253855826
351380 180 12031789154041056266
4028521 119 14490466495613211574
465052 167 17987243411877553855
4921388 177 16660653989269477739
5161694 15 18040426672963411324
5281201 14 17022906727225433342
559249 180 18199749133491089098
58051976 100 18334577987886869975
74978 22 18130218367218181424

>  <PUBCHEM_SHAPE_MULTIPOLES>  (1) 
376.07
9.74
1.62
1.36
10.22
0.32
0.15
1.6
1.24
-0.07
-0.13
-0.93
-0.02
-0.26

>  <PUBCHEM_SHAPE_SELFOVERLAP>  (1) 
818.906

>  <PUBCHEM_SHAPE_VOLUME>  (1) 
196.5

>  <PUBCHEM_COORDINATE_TYPE>  (1) 
2
5
10

$$$$
