36168
     RDKit          3D

 21 24  0  0  1  0  0  0  0  0999 V2000
    5.5105   -1.2997    0.1695 O   0  0  0  0  0  0  0  0  0  0  0  0
   -1.1869    0.2629   -0.9094 N   0  0  0  0  0  0  0  0  0  0  0  0
   -0.2227    1.5125    0.7889 N   0  0  0  0  0  0  0  0  0  0  0  0
    0.8648    1.7549    0.0611 N   0  0  0  0  0  0  0  0  0  0  0  0
   -3.3695   -1.6893    0.4875 C   0  0  0  0  0  0  0  0  0  0  0  0
   -4.3977    0.3902   -0.4609 C   0  0  0  0  0  0  0  0  0  0  0  0
   -4.6838   -1.0071    0.0969 C   0  0  0  0  0  0  0  0  0  0  0  0
   -2.4649    0.5930    1.1998 C   0  0  0  0  0  0  0  0  0  0  0  0
   -2.6663   -0.8763    1.5792 C   0  0  0  0  0  0  0  0  0  0  0  0
   -3.7164    1.2480    0.6102 C   0  0  0  0  0  0  0  0  0  0  0  0
   -2.2543   -0.5376   -1.5075 C   0  0  0  0  0  0  0  0  0  0  0  0
   -2.4775   -1.8478   -0.7493 C   0  0  0  0  0  0  0  0  0  0  0  0
   -3.5299    0.2805   -1.7201 C   0  0  0  0  0  0  0  0  0  0  0  0
   -1.2596    0.7677    0.2769 C   0  0  0  0  0  0  0  0  0  0  0  0
    2.0380    0.9838    0.0884 C   0  0  0  0  0  0  0  0  0  0  0  0
    3.1538    1.3733   -0.6582 C   0  0  0  0  0  0  0  0  0  0  0  0
    2.0980   -0.1787    0.8628 C   0  0  0  0  0  0  0  0  0  0  0  0
    4.3191    0.6072   -0.6310 C   0  0  0  0  0  0  0  0  0  0  0  0
    3.2633   -0.9448    0.8900 C   0  0  0  0  0  0  0  0  0  0  0  0
    4.3738   -0.5519    0.1430 C   0  0  0  0  0  0  0  0  0  0  0  0
    6.6084   -0.8407   -0.6178 C   0  0  0  0  0  0  0  0  0  0  0  0
  1 20  1  0
  1 21  1  0
  2 11  1  0
  2 14  2  0
  3  4  1  0
  3 14  1  0
  4 15  1  0
  5  7  1  0
  5  9  1  0
  5 12  1  0
  6  7  1  0
  6 10  1  0
  6 13  1  0
  8  9  1  0
  8 10  1  0
  8 14  1  0
 11 12  1  0
 11 13  1  0
 15 16  2  0
 15 17  1  0
 16 18  1  0
 17 19  2  0
 18 20  2  0
 19 20  1  0
M  END
>  <PUBCHEM_COMPOUND_CID>  (1) 
36168

>  <PUBCHEM_CONFORMER_RMSD>  (1) 
0.8

>  <PUBCHEM_CONFORMER_DIVERSEORDER>  (1) 
1
15
9
3
13
12
4
16
5
2
10
8
6
7
11
14

>  <PUBCHEM_MMFF94_PARTIAL_CHARGES>  (1) 
20
1 -0.36
11 0.25
14 0.44
15 0.1
16 -0.15
17 -0.15
18 -0.15
19 -0.15
2 -0.7
20 0.08
21 0.28
3 -0.45
36 0.4
37 0.4
38 0.15
39 0.15
4 -0.5
40 0.15
41 0.15
8 0.06

>  <PUBCHEM_EFFECTIVE_ROTOR_COUNT>  (1) 
5

>  <PUBCHEM_PHARMACOPHORE_FEATURES>  (1) 
9
1 1 acceptor
1 3 donor
1 4 donor
3 2 3 14 cation
6 15 16 17 18 19 20 rings
6 5 6 7 11 12 13 rings
6 5 6 7 8 9 10 rings
7 2 5 8 9 11 12 14 rings
7 2 6 8 10 11 13 14 rings

>  <PUBCHEM_HEAVY_ATOM_COUNT>  (1) 
21

>  <PUBCHEM_ATOM_DEF_STEREO_COUNT>  (1) 
0

>  <PUBCHEM_ATOM_UDEF_STEREO_COUNT>  (1) 
2

>  <PUBCHEM_BOND_DEF_STEREO_COUNT>  (1) 
0

>  <PUBCHEM_BOND_UDEF_STEREO_COUNT>  (1) 
0

>  <PUBCHEM_ISOTOPIC_ATOM_COUNT>  (1) 
0

>  <PUBCHEM_COMPONENT_COUNT>  (1) 
1

>  <PUBCHEM_CACTVS_TAUTO_COUNT>  (1) 
2

>  <PUBCHEM_CONFORMER_ID>  (1) 
00008D4800000001

>  <PUBCHEM_MMFF94_ENERGY>  (1) 
70.5035

>  <PUBCHEM_FEATURE_SELFOVERLAP>  (1) 
57.473

>  <PUBCHEM_SHAPE_FINGERPRINT>  (1) 
10 15 12535332495042098510
10366900 7 16298101012230985712
10498660 4 11963383046672022974
10803635 8 17749098968298437818
11046707 91 18202565077116744328
11315181 36 16845570915944074184
12173636 292 13985205671603025117
12236239 1 18342178864783780784
12553582 1 18410002217941531264
12596602 18 12967121710285320862
12633257 1 15195285365019961026
12788726 201 18192704557954881633
13167823 11 18410013255991618424
13224815 77 18260822735126857216
13288520 33 18272371966325395848
15188451 53 15697702801270171261
15463212 79 12973889264188522904
15788980 27 18060419110350712740
17349148 13 17417810677500066901
1813 80 18272664437020219572
18186145 218 17313382348712241736
19489759 90 15339117922756832203
19862831 5 18040428901956602944
200 152 18409729564780141216
20325693 3 16805038519535064271
20645477 70 18334858329371990076
20871999 31 16515402971301122401
21065199 12 12751249107271684028
21267235 1 18411707594598716091
22393880 68 17749101214671711978
22646028 1 18343021099206621912
22646028 28 18413668028262898098
23198884 109 15791730780524273070
23402539 116 18411703158509169168
23559900 14 18337665416469710592
3004659 81 18259983773690427184
3268164 11 13984661481497112171
339767 52 18343014480704158378
351380 3 18412825772681855062
4325135 7 8358251541057409233
465052 167 18199195164557260239
4921388 177 16370731473639432051
5104073 3 17917998325221964713
5281201 14 17095242536117346708
542803 24 14201398274795629742
559249 180 18270962340947616157
5924683 9 14404890427850534325
602551 16 16774076297940542822

>  <PUBCHEM_SHAPE_MULTIPOLES>  (1) 
411.36
12.55
1.68
1.33
16.01
0.1
0.14
4.02
1.74
-0.22
-0.09
-1.06
0.08
-0.26

>  <PUBCHEM_SHAPE_SELFOVERLAP>  (1) 
891.432

>  <PUBCHEM_SHAPE_VOLUME>  (1) 
220.1

>  <PUBCHEM_COORDINATE_TYPE>  (1) 
2
5
10

$$$$
