3616
     RDKit          3D

 14 13  0  0  0  0  0  0  0  0999 V2000
    4.2754   -1.2305   -1.1182 O   0  0  0  0  0  0  0  0  0  0  0  0
   -4.2716   -1.2242    1.1243 O   0  0  0  0  0  0  0  0  0  0  0  0
    3.5013    0.2149    0.5359 N   0  0  0  0  0  0  0  0  0  0  0  0
   -3.5100    0.2118   -0.5436 N   0  0  0  0  0  0  0  0  0  0  0  0
    0.7260    1.3476    0.2925 C   0  0  0  0  0  0  0  0  0  0  0  0
   -0.6969    1.3017   -0.2699 C   0  0  0  0  0  0  0  0  0  0  0  0
    1.7662    1.3081   -0.8322 C   0  0  0  0  0  0  0  0  0  0  0  0
   -1.7818    1.3315    0.8130 C   0  0  0  0  0  0  0  0  0  0  0  0
    3.1976    1.3396   -0.3055 C   0  0  0  0  0  0  0  0  0  0  0  0
   -3.2141    1.3464    0.2869 C   0  0  0  0  0  0  0  0  0  0  0  0
    4.0174   -0.9821    0.0566 C   0  0  0  0  0  0  0  0  0  0  0  0
   -4.0166   -0.9848   -0.0530 C   0  0  0  0  0  0  0  0  0  0  0  0
    4.2664   -1.9827    1.1532 C   0  0  0  0  0  0  0  0  0  0  0  0
   -4.2592   -1.9972   -1.1400 C   0  0  0  0  0  0  0  0  0  0  0  0
  1 11  2  0
  2 12  2  0
  3  9  1  0
  3 11  1  0
  4 10  1  0
  4 12  1  0
  5  6  1  0
  5  7  1  0
  6  8  1  0
  7  9  1  0
  8 10  1  0
 11 13  1  0
 12 14  1  0
M  END
>  <PUBCHEM_COMPOUND_CID>  (1) 
3616

>  <PUBCHEM_CONFORMER_RMSD>  (1) 
0.8

>  <PUBCHEM_CONFORMER_DIVERSEORDER>  (1) 
1
169
25
106
44
105
179
107
61
24
157
72
20
94
11
17
183
22
141
87
172
112
37
97
13
121
32
137
77
190
45
184
64
75
3
78
176
34
118
66
60
46
131
170
73
127
171
85
114
175
130
146
70
163
38
54
90
14
188
52
128
26
156
12
103
79
5
43
110
95
124
164
86
129
8
136
142
39
153
33
166
30
189
7
6
88
59
92
165
2
158
65
193
4
56
28
84
187
51
144
192
115
36
68
29
98
174
71
53
148
122
109
138
182
21
150
27
76
143
116
140
168
74
177
93
126
91
173
111
83
50
100
161
67
113
145
55
117
10
134
99
155
186
120
18
62
125
81
48
180
104
181
58
185
16
151
191
47
102
178
119
63
41
162
133
49
89
19
80
108
152
57
132
15
147
167
82
159
31
23
160
35
135
9
139
42
69
123
96
154
40
101
149

>  <PUBCHEM_MMFF94_PARTIAL_CHARGES>  (1) 
12
1 -0.57
10 0.3
11 0.57
12 0.57
13 0.06
14 0.06
2 -0.57
27 0.37
28 0.37
3 -0.73
4 -0.73
9 0.3

>  <PUBCHEM_EFFECTIVE_ROTOR_COUNT>  (1) 
9

>  <PUBCHEM_PHARMACOPHORE_FEATURES>  (1) 
5
1 1 acceptor
1 2 acceptor
1 3 donor
1 4 donor
4 5 6 7 8 hydrophobe

>  <PUBCHEM_HEAVY_ATOM_COUNT>  (1) 
14

>  <PUBCHEM_ATOM_DEF_STEREO_COUNT>  (1) 
0

>  <PUBCHEM_ATOM_UDEF_STEREO_COUNT>  (1) 
0

>  <PUBCHEM_BOND_DEF_STEREO_COUNT>  (1) 
0

>  <PUBCHEM_BOND_UDEF_STEREO_COUNT>  (1) 
0

>  <PUBCHEM_ISOTOPIC_ATOM_COUNT>  (1) 
0

>  <PUBCHEM_COMPONENT_COUNT>  (1) 
1

>  <PUBCHEM_CACTVS_TAUTO_COUNT>  (1) 
3

>  <PUBCHEM_CONFORMER_ID>  (1) 
00000E2000000001

>  <PUBCHEM_MMFF94_ENERGY>  (1) 
5.1408

>  <PUBCHEM_FEATURE_SELFOVERLAP>  (1) 
25.371

>  <PUBCHEM_SHAPE_FINGERPRINT>  (1) 
10062212 137 18410855434801450409
10498660 4 11241973680742123878
11159736 12 18410567388081710466
11987891 38 18409450292916158740
122479 349 10231750102392381444
12410352 35 18411130325187471526
13167823 11 18410859858174952229
13255334 9 18408889554928956186
13887833 79 15574984031723853650
14123255 352 10231753383752319715
14123260 362 7925913694653697519
1420 369 18413392055118331023
14251710 61 18410859858174679397
15239191 94 18411417314865072036
177051 138 18413109454965878716
17834072 33 18410863183197220316
18186145 218 14996291335283005909
18915474 69 18408321115901588689
193927 3 18410584980273140066
20281475 54 18410858762963923789
20621476 91 16486107631067836103
20645477 70 17603590759262221840
21054139 6 18264492969866179524
22485316 2 18410572885640420996
22620623 9 17096354047530560661
22646028 28 18410857659151579745
23403322 49 18411134771105987085
235170 7 16732977665158360911
23590187 138 9367348149890220443
23596394 208 16950551177777824994
351380 3 18410581686028150658
4283 87 18335411348865833202
559249 180 18264765472529601289
573450 72 18272652320685251865
58051976 100 18261956250090291629
633830 44 16732989699651780541
960060 61 17240486879711466630

>  <PUBCHEM_SHAPE_MULTIPOLES>  (1) 
266.41
11.5
2.34
1.1
0.02
0.67
0
7.85
0.01
0.02
0
-0.01
0.37
-1.2

>  <PUBCHEM_SHAPE_SELFOVERLAP>  (1) 
491.912

>  <PUBCHEM_SHAPE_VOLUME>  (1) 
167.3

>  <PUBCHEM_COORDINATE_TYPE>  (1) 
2
5
10

$$$$
