36174
     RDKit          3D

 18 20  0  0  1  0  0  0  0  0999 V2000
    0.7426   -0.8457    0.9539 N   0  0  0  0  0  0  0  0  0  0  0  0
   -0.9641   -0.6147   -0.5982 N   0  0  0  0  0  0  0  0  0  0  0  0
   -4.2437    0.6655    0.2550 N   0  0  0  0  0  0  0  0  0  0  0  0
    3.5344   -0.5770   -0.6769 C   0  0  0  0  0  0  0  0  0  0  0  0
    2.8382    1.5708    0.4108 C   0  0  0  0  0  0  0  0  0  0  0  0
    3.9897    0.8285   -0.2736 C   0  0  0  0  0  0  0  0  0  0  0  0
    1.2131    0.3777   -1.1610 C   0  0  0  0  0  0  0  0  0  0  0  0
    2.3725   -0.4818   -1.6710 C   0  0  0  0  0  0  0  0  0  0  0  0
    1.6611    1.7122   -0.5598 C   0  0  0  0  0  0  0  0  0  0  0  0
    2.1060   -0.6526    1.4454 C   0  0  0  0  0  0  0  0  0  0  0  0
    3.1346   -1.3729    0.5711 C   0  0  0  0  0  0  0  0  0  0  0  0
    2.4221    0.8255    1.6843 C   0  0  0  0  0  0  0  0  0  0  0  0
    0.3310   -0.4019   -0.1867 C   0  0  0  0  0  0  0  0  0  0  0  0
   -1.9365   -1.2976    0.2042 C   0  0  0  0  0  0  0  0  0  0  0  0
   -3.2701   -1.4776   -0.5185 C   0  0  0  0  0  0  0  0  0  0  0  0
   -3.9607   -0.1673   -0.9076 C   0  0  0  0  0  0  0  0  0  0  0  0
   -5.1350   -0.0316    1.1840 C   0  0  0  0  0  0  0  0  0  0  0  0
   -4.8351    1.9404   -0.1554 C   0  0  0  0  0  0  0  0  0  0  0  0
  1 10  1  0
  1 13  2  0
  2 13  1  0
  2 14  1  0
  3 16  1  0
  3 17  1  0
  3 18  1  0
  4  6  1  0
  4  8  1  0
  4 11  1  0
  5  6  1  0
  5  9  1  0
  5 12  1  0
  7  8  1  0
  7  9  1  0
  7 13  1  0
 10 11  1  0
 10 12  1  0
 14 15  1  0
 15 16  1  0
M  END
>  <PUBCHEM_COMPOUND_CID>  (1) 
36174

>  <PUBCHEM_CONFORMER_RMSD>  (1) 
0.8

>  <PUBCHEM_CONFORMER_DIVERSEORDER>  (1) 
6
80
46
84
74
90
53
20
87
75
1
89
71
15
18
63
49
4
69
52
67
93
92
58
78
43
24
36
42
17
56
88
12
51
9
82
45
34
57
83
76
2
73
66
19
86
38
37
77
64
47
61
14
16
41
40
72
59
70
79
91
11
68
50
26
54
65
39
62
81
27
25
55
33
28
48
60
44
29
32
8
7
31
21
35
22
85
3
10
5
30
23
13

>  <PUBCHEM_MMFF94_PARTIAL_CHARGES>  (1) 
11
1 -0.7
10 0.25
13 0.44
14 0.37
16 0.27
17 0.27
18 0.27
2 -0.82
3 -0.81
33 0.4
7 0.06

>  <PUBCHEM_EFFECTIVE_ROTOR_COUNT>  (1) 
6

>  <PUBCHEM_PHARMACOPHORE_FEATURES>  (1) 
7
1 2 donor
1 3 cation
3 1 2 13 cation
6 4 5 6 10 11 12 rings
6 4 5 6 7 8 9 rings
7 1 4 7 8 10 11 13 rings
7 1 5 7 9 10 12 13 rings

>  <PUBCHEM_HEAVY_ATOM_COUNT>  (1) 
18

>  <PUBCHEM_ATOM_DEF_STEREO_COUNT>  (1) 
0

>  <PUBCHEM_ATOM_UDEF_STEREO_COUNT>  (1) 
2

>  <PUBCHEM_BOND_DEF_STEREO_COUNT>  (1) 
0

>  <PUBCHEM_BOND_UDEF_STEREO_COUNT>  (1) 
0

>  <PUBCHEM_ISOTOPIC_ATOM_COUNT>  (1) 
0

>  <PUBCHEM_COMPONENT_COUNT>  (1) 
1

>  <PUBCHEM_CACTVS_TAUTO_COUNT>  (1) 
2

>  <PUBCHEM_CONFORMER_ID>  (1) 
00008D4E00000006

>  <PUBCHEM_MMFF94_ENERGY>  (1) 
41.02

>  <PUBCHEM_FEATURE_SELFOVERLAP>  (1) 
45.597

>  <PUBCHEM_SHAPE_FINGERPRINT>  (1) 
10366900 7 16008756835691526473
10498660 4 18202276992670863177
10646746 165 18272368685202581165
11961588 58 12606543572363275704
12500047 106 17846494880596831711
12596602 18 17458632250205331793
12670546 56 18409157831861244679
128620 24 10519983777363351747
13134695 92 16200154257613453512
13224815 77 17022899069066603127
13464513 79 14923950067508381534
13675066 3 17967532363720149479
14004511 7 18408318891615022575
14252887 29 15502370123725599366
15239154 128 18408039619898375917
15788980 27 17131835382480001287
1601671 61 18186801383409937580
16945 1 14996550838045143998
17349148 13 12679461980282958599
18186145 218 18410290328642804991
19078846 21 18187077330515928613
200 152 13039186992235378851
20645477 56 17988929989931940903
20645477 70 16558762199589676943
21503847 285 18261114083980426980
21864079 5 18409446994977341981
22646028 28 9367348132968736117
22892500 29 16702296867111555752
231179 274 17131548452968515184
23402655 69 16343707646491763181
23557571 272 17988361593627665735
23559900 14 17418101992283899582
5281201 14 17846505854554342175
633830 44 18333730247110298847
9882013 296 14490477508378739947

>  <PUBCHEM_SHAPE_MULTIPOLES>  (1) 
355.49
9.93
1.69
1.41
13.61
0.46
-0.17
2.23
-0.72
0.36
-0.01
-0.67
-0.07
-0.06

>  <PUBCHEM_SHAPE_SELFOVERLAP>  (1) 
734.81

>  <PUBCHEM_SHAPE_VOLUME>  (1) 
196.9

>  <PUBCHEM_COORDINATE_TYPE>  (1) 
2
5
10

$$$$
