36179
     RDKit          3D

 18 19  0  0  1  0  0  0  0  0999 V2000
   -1.4182   -0.8486   -0.5345 O   0  0  0  0  0  0  0  0  0  0  0  0
   -0.3414   -0.2862    1.4031 O   0  0  0  0  0  0  0  0  0  0  0  0
   -4.4355    0.5113    0.4363 N   0  0  0  0  0  0  0  0  0  0  0  0
    0.7767   -0.3896   -0.6509 N   0  0  0  0  0  0  0  0  0  0  0  0
   -2.6331   -0.9921    0.1879 C   0  0  0  0  0  0  0  0  0  0  0  0
   -3.7731   -1.3577   -0.7594 C   0  0  0  0  0  0  0  0  0  0  0  0
   -3.0243    0.3541    0.7952 C   0  0  0  0  0  0  0  0  0  0  0  0
   -4.5666   -0.0683   -0.8992 C   0  0  0  0  0  0  0  0  0  0  0  0
   -4.8736    1.8978    0.4886 C   0  0  0  0  0  0  0  0  0  0  0  0
   -0.3116   -0.4837    0.1946 C   0  0  0  0  0  0  0  0  0  0  0  0
    2.1072   -0.0438   -0.3220 C   0  0  0  0  0  0  0  0  0  0  0  0
    2.4962    1.2878   -0.3603 C   0  0  0  0  0  0  0  0  0  0  0  0
    3.0042   -1.0410    0.0342 C   0  0  0  0  0  0  0  0  0  0  0  0
    3.8092    1.6291   -0.0357 C   0  0  0  0  0  0  0  0  0  0  0  0
    4.3171   -0.6996    0.3587 C   0  0  0  0  0  0  0  0  0  0  0  0
    1.5442    2.3751   -0.7412 C   0  0  0  0  0  0  0  0  0  0  0  0
    2.6032   -2.4800    0.0807 C   0  0  0  0  0  0  0  0  0  0  0  0
    4.7196    0.6355    0.3239 C   0  0  0  0  0  0  0  0  0  0  0  0
  1  5  1  0
  1 10  1  0
  2 10  2  0
  3  7  1  0
  3  8  1  0
  3  9  1  0
  4 10  1  0
  4 11  1  0
  5  6  1  0
  5  7  1  0
  6  8  1  0
 11 12  2  0
 11 13  1  0
 12 14  1  0
 12 16  1  0
 13 15  2  0
 13 17  1  0
 14 18  2  0
 15 18  1  0
M  END
>  <PUBCHEM_COMPOUND_CID>  (1) 
36179

>  <PUBCHEM_CONFORMER_RMSD>  (1) 
0.6

>  <PUBCHEM_CONFORMER_DIVERSEORDER>  (1) 
5
3
27
29
6
32
20
24
8
18
22
15
4
25
28
7
10
33
23
9
13
12
11
34
14
16
21
2
30
1
19
17
26
31

>  <PUBCHEM_MMFF94_PARTIAL_CHARGES>  (1) 
21
1 -0.43
10 0.78
11 0.12
12 -0.14
13 -0.14
14 -0.15
15 -0.15
16 0.14
17 0.14
18 -0.15
2 -0.57
29 0.37
3 -0.81
30 0.15
31 0.15
38 0.15
4 -0.55
5 0.28
7 0.27
8 0.27
9 0.27

>  <PUBCHEM_EFFECTIVE_ROTOR_COUNT>  (1) 
5

>  <PUBCHEM_PHARMACOPHORE_FEATURES>  (1) 
5
1 2 acceptor
1 3 cation
1 4 donor
5 3 5 6 7 8 rings
6 11 12 13 14 15 18 rings

>  <PUBCHEM_HEAVY_ATOM_COUNT>  (1) 
18

>  <PUBCHEM_ATOM_DEF_STEREO_COUNT>  (1) 
0

>  <PUBCHEM_ATOM_UDEF_STEREO_COUNT>  (1) 
1

>  <PUBCHEM_BOND_DEF_STEREO_COUNT>  (1) 
0

>  <PUBCHEM_BOND_UDEF_STEREO_COUNT>  (1) 
0

>  <PUBCHEM_ISOTOPIC_ATOM_COUNT>  (1) 
0

>  <PUBCHEM_COMPONENT_COUNT>  (1) 
1

>  <PUBCHEM_CACTVS_TAUTO_COUNT>  (1) 
2

>  <PUBCHEM_CONFORMER_ID>  (1) 
00008D5300000005

>  <PUBCHEM_MMFF94_ENERGY>  (1) 
65.471

>  <PUBCHEM_FEATURE_SELFOVERLAP>  (1) 
25.371

>  <PUBCHEM_SHAPE_FINGERPRINT>  (1) 
10014705 185 18413107243468924601
10595046 47 18341890835792367735
10906281 52 18114196245825176324
11089746 13 17917985088391376392
11405975 8 18260268568260406003
11471102 20 18335136518677587902
12107183 9 17908706124980832627
12236239 1 18060416932897395150
12633257 1 17531797069621464208
12670546 56 18343013393739776773
128620 24 14692575428912366533
13167823 11 18343017813414592623
13675066 3 17821736022270420027
14004511 7 18408042918264421751
14790565 3 17901396911299130468
15442244 35 18267306430488813160
15788980 27 17917714603908798655
15848702 151 18408602543929129855
17492 89 18413111671232950319
17818456 19 17772196310152215401
18186145 218 17748826319421407275
200 152 18272649073341536883
20157964 124 18339641145007877071
20233049 118 17489587878808399784
20511986 3 18058995229427832089
20645477 70 18411982446915548806
20715895 44 18055919792959373513
21421861 104 17896311416526885842
23402539 116 18272083890084366453
23402655 69 18412545431296682500
23557571 272 14620524397795340771
23559900 14 17417257519993186694
300161 21 18202558462914483699
3268164 11 14908188521258771505
351380 180 18334293175926590949
3545911 37 18410578404920816019
4214541 1 18411699894117798295
474 4 18260548973637109824
5104073 3 18335983142098284667
543358 83 18411703140944405482
633830 44 18040155115103181795
77779 3 18411700997703016135
8272917 22 18411704249151742262
84936 182 17983015840918498264
9709674 26 18410018766176956383
9971528 1 18410293593086748004
9981440 41 17399794294515929369

>  <PUBCHEM_SHAPE_MULTIPOLES>  (1) 
348.73
10.99
2.12
0.92
6.25
0.31
-0.05
2.12
-0.43
-0.92
0.19
0.47
0.04
-0.87

>  <PUBCHEM_SHAPE_SELFOVERLAP>  (1) 
727.028

>  <PUBCHEM_SHAPE_VOLUME>  (1) 
200.9

>  <PUBCHEM_COORDINATE_TYPE>  (1) 
2
5
10

$$$$
