36181
     RDKit          3D

 10 10  0  0  0  0  0  0  0  0999 V2000
   -1.8912    1.5180    0.0055 O   0  0  0  0  0  0  0  0  0  0  0  0
    1.4052   -1.5020    0.0099 O   0  0  0  0  0  0  0  0  0  0  0  0
    2.1014    0.6979   -0.0113 N   0  0  0  0  0  0  0  0  0  0  0  0
   -0.4963    1.4605   -0.0001 N   0  0  0  0  0  0  0  0  0  0  0  0
   -2.4497    0.2384    0.0044 N   0  0  0  0  0  0  0  0  0  0  0  0
    3.4359    0.3369    0.0098 N   0  0  0  0  0  0  0  0  0  0  0  0
   -0.2552    0.1702   -0.0038 C   0  0  0  0  0  0  0  0  0  0  0  0
   -1.3997   -0.5810   -0.0010 C   0  0  0  0  0  0  0  0  0  0  0  0
    1.1383   -0.3006   -0.0096 C   0  0  0  0  0  0  0  0  0  0  0  0
   -1.5888   -2.0383   -0.0036 C   0  0  0  0  0  0  0  0  0  0  0  0
  1  4  1  0
  1  5  1  0
  2  9  2  0
  3  6  1  0
  3  9  1  0
  4  7  2  0
  5  8  2  0
  7  8  1  0
  7  9  1  0
  8 10  1  0
M  END
>  <PUBCHEM_COMPOUND_CID>  (1) 
36181

>  <PUBCHEM_CONFORMER_RMSD>  (1) 
0.4

>  <PUBCHEM_CONFORMER_DIVERSEORDER>  (1) 
1
3
5
4
2

>  <PUBCHEM_MMFF94_PARTIAL_CHARGES>  (1) 
13
1 0.24
10 0.18
14 0.37
15 0.36
16 0.36
2 -0.57
3 -0.42
4 -0.41
5 -0.41
6 -0.73
7 0.2
8 0.11
9 0.72

>  <PUBCHEM_EFFECTIVE_ROTOR_COUNT>  (1) 
2

>  <PUBCHEM_PHARMACOPHORE_FEATURES>  (1) 
6
1 2 acceptor
1 3 donor
1 4 acceptor
1 5 acceptor
1 6 donor
5 1 4 5 7 8 rings

>  <PUBCHEM_HEAVY_ATOM_COUNT>  (1) 
10

>  <PUBCHEM_ATOM_DEF_STEREO_COUNT>  (1) 
0

>  <PUBCHEM_ATOM_UDEF_STEREO_COUNT>  (1) 
0

>  <PUBCHEM_BOND_DEF_STEREO_COUNT>  (1) 
0

>  <PUBCHEM_BOND_UDEF_STEREO_COUNT>  (1) 
0

>  <PUBCHEM_ISOTOPIC_ATOM_COUNT>  (1) 
0

>  <PUBCHEM_COMPONENT_COUNT>  (1) 
1

>  <PUBCHEM_CACTVS_TAUTO_COUNT>  (1) 
2

>  <PUBCHEM_CONFORMER_ID>  (1) 
00008D5500000001

>  <PUBCHEM_MMFF94_ENERGY>  (1) 
10.681

>  <PUBCHEM_FEATURE_SELFOVERLAP>  (1) 
31.996

>  <PUBCHEM_SHAPE_FINGERPRINT>  (1) 
10857977 72 18197206160437607874
12897270 3 18411698824422924342
14390081 3 18343016679574569504
16945 1 18410575101932748813
18185500 45 18336547230381705327
20871998 184 18200880685411714087
21040471 1 18338517426300900805
23552423 10 18260833704426014102
2748010 2 18192998110447621877
29004967 10 18335427906022151379
369184 2 16153422857021923648
5084963 1 17842267073841179659

>  <PUBCHEM_SHAPE_MULTIPOLES>  (1) 
174.13
3.74
1.72
0.56
2.71
0.35
0
-0.17
-0.01
-0.91
0
-0.02
0.03
-0.01

>  <PUBCHEM_SHAPE_SELFOVERLAP>  (1) 
356.239

>  <PUBCHEM_SHAPE_VOLUME>  (1) 
102

>  <PUBCHEM_COORDINATE_TYPE>  (1) 
2
5
10

$$$$
