3619
     RDKit          3D

 31 32  0  0  1  0  0  0  0  0999 V2000
    1.7445   -0.5322   -1.3219 P   0  0  0  0  0  0  0  0  0  0  0  0
    1.2957    1.8344   -0.4984 O   0  0  0  0  0  0  0  0  0  0  0  0
    3.1805   -0.7850   -0.6196 O   0  0  0  0  0  0  0  0  0  0  0  0
    1.0082   -1.9662   -1.1881 O   0  0  0  0  0  0  0  0  0  0  0  0
    1.8078    0.0077   -2.7215 O   0  0  0  0  0  0  0  0  0  0  0  0
   -0.1480    3.2444    0.7935 O   0  0  0  0  0  0  0  0  0  0  0  0
    5.3881   -0.1602   -0.0335 O   0  0  0  0  0  0  0  0  0  0  0  0
    0.3053   -3.8781    0.0147 O   0  0  0  0  0  0  0  0  0  0  0  0
   -0.1796    4.2130   -1.3040 O   0  0  0  0  0  0  0  0  0  0  0  0
    4.4410    0.3229    2.0182 O   0  0  0  0  0  0  0  0  0  0  0  0
   -1.6728   -2.7953   -0.4931 O   0  0  0  0  0  0  0  0  0  0  0  0
    0.8579    0.5167   -0.1576 C   0  0  0  0  0  0  0  0  0  0  0  0
   -0.6495    0.4161   -0.2060 C   0  0  0  0  0  0  0  0  0  0  0  0
   -1.3600    0.0333    0.9320 C   0  0  0  0  0  0  0  0  0  0  0  0
   -2.7607   -0.0647    0.9032 C   0  0  0  0  0  0  0  0  0  0  0  0
   -1.3280    0.7061   -1.3860 C   0  0  0  0  0  0  0  0  0  0  0  0
   -3.4507    0.2303   -0.2968 C   0  0  0  0  0  0  0  0  0  0  0  0
   -2.7193    0.6143   -1.4326 C   0  0  0  0  0  0  0  0  0  0  0  0
   -3.4918   -0.4484    2.0392 C   0  0  0  0  0  0  0  0  0  0  0  0
   -4.8513    0.1323   -0.3255 C   0  0  0  0  0  0  0  0  0  0  0  0
    1.1901    2.7620    0.5799 C   0  0  0  0  0  0  0  0  0  0  0  0
   -4.8832   -0.5406    1.9928 C   0  0  0  0  0  0  0  0  0  0  0  0
   -5.5616   -0.2511    0.8126 C   0  0  0  0  0  0  0  0  0  0  0  0
    4.1780    0.2213   -0.7074 C   0  0  0  0  0  0  0  0  0  0  0  0
    0.9981   -2.6210    0.0713 C   0  0  0  0  0  0  0  0  0  0  0  0
   -0.7049    3.9518   -0.2303 C   0  0  0  0  0  0  0  0  0  0  0  0
    5.3753   -0.0583    1.3262 C   0  0  0  0  0  0  0  0  0  0  0  0
   -1.0255   -3.8113   -0.2779 C   0  0  0  0  0  0  0  0  0  0  0  0
   -2.0869    4.3840    0.1545 C   0  0  0  0  0  0  0  0  0  0  0  0
    6.7045   -0.4841    1.8719 C   0  0  0  0  0  0  0  0  0  0  0  0
   -1.6011   -5.1943   -0.3099 C   0  0  0  0  0  0  0  0  0  0  0  0
  1  3  1  0
  1  4  1  0
  1  5  2  0
  1 12  1  0
  2 12  1  0
  2 21  1  0
  3 24  1  0
  4 25  1  0
  6 21  1  0
  6 26  1  0
  7 24  1  0
  7 27  1  0
  8 25  1  0
  8 28  1  0
  9 26  2  0
 10 27  2  0
 11 28  2  0
 12 13  1  0
 13 14  2  0
 13 16  1  0
 14 15  1  0
 15 17  2  0
 15 19  1  0
 16 18  2  0
 17 18  1  0
 17 20  1  0
 19 22  2  0
 20 23  2  0
 22 23  1  0
 26 29  1  0
 27 30  1  0
 28 31  1  0
M  END
>  <PUBCHEM_COMPOUND_CID>  (1) 
3619

>  <PUBCHEM_CONFORMER_RMSD>  (1) 
1.2

>  <PUBCHEM_CONFORMER_DIVERSEORDER>  (1) 
3
65
159
47
135
111
125
43
68
142
129
114
128
54
150
92
185
120
171
146
73
164
44
165
67
160
62
106
188
155
186
162
82
154
137
118
148
184
179
116
149
190
124
183
11
66
130
109
156
144
98
176
178
76
174
101
88
86
167
28
104
131
141
77
151
40
48
117
170
55
60
119
36
38
145
122
25
163
132
173
42
105
147
133
15
180
143
115
140
71
79
138
100
45
169
108
6
187
83
134
10
123
168
35
89
99
158
177
8
84
37
17
107
136
75
69
93
9
110
51
166
121
46
58
87
29
103
161
153
20
23
56
74
189
80
13
18
81
157
112
113
94
126
2
152
70
4
61
52
97
39
12
181
33
22
64
78
1
85
53
95
139
96
32
49
175
7
26
72
172
91
182
57
127
5
27
59
102
21
41
31
34
24
63
14
90
19
50
30
16

>  <PUBCHEM_MMFF94_PARTIAL_CHARGES>  (1) 
36
1 1.24
10 -0.57
11 -0.57
12 0.42
13 -0.14
14 -0.15
16 -0.15
18 -0.15
19 -0.15
2 -0.56
20 -0.15
21 0.56
22 -0.15
23 -0.15
24 0.56
25 0.56
26 0.66
27 0.66
28 0.66
29 0.06
3 -0.55
30 0.06
31 0.06
33 0.15
34 0.15
35 0.15
36 0.15
37 0.15
4 -0.55
40 0.15
41 0.15
5 -0.7
6 -0.43
7 -0.43
8 -0.43
9 -0.57

>  <PUBCHEM_EFFECTIVE_ROTOR_COUNT>  (1) 
14

>  <PUBCHEM_PHARMACOPHORE_FEATURES>  (1) 
7
1 10 acceptor
1 11 acceptor
1 2 acceptor
1 5 acceptor
1 9 acceptor
6 13 14 15 16 17 18 rings
6 15 17 19 20 22 23 rings

>  <PUBCHEM_HEAVY_ATOM_COUNT>  (1) 
31

>  <PUBCHEM_ATOM_DEF_STEREO_COUNT>  (1) 
0

>  <PUBCHEM_ATOM_UDEF_STEREO_COUNT>  (1) 
1

>  <PUBCHEM_BOND_DEF_STEREO_COUNT>  (1) 
0

>  <PUBCHEM_BOND_UDEF_STEREO_COUNT>  (1) 
0

>  <PUBCHEM_ISOTOPIC_ATOM_COUNT>  (1) 
0

>  <PUBCHEM_COMPONENT_COUNT>  (1) 
1

>  <PUBCHEM_CACTVS_TAUTO_COUNT>  (1) 
1

>  <PUBCHEM_CONFORMER_ID>  (1) 
00000E2300000003

>  <PUBCHEM_MMFF94_ENERGY>  (1) 
56.6059

>  <PUBCHEM_FEATURE_SELFOVERLAP>  (1) 
35.554

>  <PUBCHEM_SHAPE_FINGERPRINT>  (1) 
10930396 42 18123437658152094800
1100329 8 18339927141894372010
11578080 2 17700691761926281273
12035758 1 18411983597723743051
12633257 1 18340209703555700958
12788726 201 18334588931981089536
12930653 34 18194120707577367900
13140716 1 18268985574118626980
13911987 19 18335149708089728957
14178342 30 18045229241080292796
14840074 17 18202282550153153524
16728300 4 17678719164680454570
20600515 1 18201452414162159360
21033648 29 18340484461615075852
3178227 256 18336844082085212603
350125 39 16972247042029030501
392239 28 18342166778840619186
4340502 62 18130799966352437155
5171179 24 17839466583677544414
6004065 56 18411978101019892735
9981440 41 18120921820411935640

>  <PUBCHEM_SHAPE_MULTIPOLES>  (1) 
583.12
10.32
5.38
1.81
10.82
0.92
-0.18
1.35
-6.84
-2.78
1.07
0.62
-0.05
0.3

>  <PUBCHEM_SHAPE_SELFOVERLAP>  (1) 
1195.035

>  <PUBCHEM_SHAPE_VOLUME>  (1) 
335.1

>  <PUBCHEM_COORDINATE_TYPE>  (1) 
2
5
10

$$$$
