36190
     RDKit          3D

 16 16  0  0  0  0  0  0  0  0999 V2000
   -0.1407   -0.9622   -0.7500 O   0  0  0  0  0  0  0  0  0  0  0  0
   -0.7667    1.7234   -0.3989 O   0  0  0  0  0  0  0  0  0  0  0  0
    2.4142   -0.1308    0.2042 N   0  0  0  0  0  0  0  0  0  0  0  0
    2.0883   -1.5306   -0.0663 C   0  0  0  0  0  0  0  0  0  0  0  0
    3.8374    0.1160   -0.0249 C   0  0  0  0  0  0  0  0  0  0  0  0
    2.0482    0.2236    1.5751 C   0  0  0  0  0  0  0  0  0  0  0  0
    0.6068   -1.8040    0.1185 C   0  0  0  0  0  0  0  0  0  0  0  0
    4.2421   -0.2436   -1.4395 C   0  0  0  0  0  0  0  0  0  0  0  0
    2.3199    1.6859    1.8615 C   0  0  0  0  0  0  0  0  0  0  0  0
   -1.3883   -0.5875   -0.3244 C   0  0  0  0  0  0  0  0  0  0  0  0
   -1.6951    0.7577   -0.1511 C   0  0  0  0  0  0  0  0  0  0  0  0
   -2.3400   -1.5691   -0.0688 C   0  0  0  0  0  0  0  0  0  0  0  0
   -2.9685    1.1261    0.2828 C   0  0  0  0  0  0  0  0  0  0  0  0
   -3.6136   -1.2007    0.3650 C   0  0  0  0  0  0  0  0  0  0  0  0
   -3.9278    0.1468    0.5407 C   0  0  0  0  0  0  0  0  0  0  0  0
   -0.7161    2.2491   -1.7238 C   0  0  0  0  0  0  0  0  0  0  0  0
  1  7  1  0
  1 10  1  0
  2 11  1  0
  2 16  1  0
  3  4  1  0
  3  5  1  0
  3  6  1  0
  4  7  1  0
  5  8  1  0
  6  9  1  0
 10 11  2  0
 10 12  1  0
 11 13  1  0
 12 14  2  0
 13 15  2  0
 14 15  1  0
M  END
>  <PUBCHEM_COMPOUND_CID>  (1) 
36190

>  <PUBCHEM_CONFORMER_RMSD>  (1) 
0.8

>  <PUBCHEM_CONFORMER_DIVERSEORDER>  (1) 
3
40
38
83
52
49
21
53
44
86
43
74
1
26
54
42
20
41
70
2
60
22
23
31
59
34
79
39
66
92
15
46
58
14
90
29
61
45
4
36
91
47
28
35
5
72
69
8
32
12
6
16
33
17
50
89
65
56
7
75
64
9
13
11
37
25
48
84
57
87
10
62
51
81
73
88
18
24
80
71
55
85
27
67
63
68
19
76
77
82
78
30

>  <PUBCHEM_MMFF94_PARTIAL_CHARGES>  (1) 
18
1 -0.36
10 0.08
11 0.08
12 -0.15
13 -0.15
14 -0.15
15 -0.15
16 0.28
2 -0.36
3 -0.81
31 0.15
32 0.15
33 0.15
34 0.15
4 0.27
5 0.27
6 0.27
7 0.28

>  <PUBCHEM_EFFECTIVE_ROTOR_COUNT>  (1) 
7

>  <PUBCHEM_PHARMACOPHORE_FEATURES>  (1) 
4
1 1 acceptor
1 2 acceptor
1 3 cation
6 10 11 12 13 14 15 rings

>  <PUBCHEM_HEAVY_ATOM_COUNT>  (1) 
16

>  <PUBCHEM_ATOM_DEF_STEREO_COUNT>  (1) 
0

>  <PUBCHEM_ATOM_UDEF_STEREO_COUNT>  (1) 
0

>  <PUBCHEM_BOND_DEF_STEREO_COUNT>  (1) 
0

>  <PUBCHEM_BOND_UDEF_STEREO_COUNT>  (1) 
0

>  <PUBCHEM_ISOTOPIC_ATOM_COUNT>  (1) 
0

>  <PUBCHEM_COMPONENT_COUNT>  (1) 
1

>  <PUBCHEM_CACTVS_TAUTO_COUNT>  (1) 
1

>  <PUBCHEM_CONFORMER_ID>  (1) 
00008D5E00000003

>  <PUBCHEM_MMFF94_ENERGY>  (1) 
50.7367

>  <PUBCHEM_FEATURE_SELFOVERLAP>  (1) 
20.301

>  <PUBCHEM_SHAPE_FINGERPRINT>  (1) 
10366900 7 18410857672284707131
10498660 4 18260264131564425028
11132069 177 18410005554888351507
12011746 2 18342739585654320549
12670545 47 18343291566124013721
13380536 127 17458897133343251408
14386348 128 18341324514031149656
15207287 21 8430313511450473904
15536298 74 18129943506438326712
15775835 57 18341333314345286098
16945 1 18271232889849383203
17804303 29 18272377485553569505
18186145 218 17632857533668282810
200 152 14273453686626388899
20233049 118 18272370850335473514
204376 136 14201696302824478958
20528008 55 18340761564420580603
21486144 27 17703216412469299186
22959321 45 18334860506366560183
23175994 123 17346332457554843396
23388829 49 18052807341702069687
23532345 42 18334571399533593057
23559900 14 18043241336641754919
3286 77 17846217790944792402
3524813 1 18343578538516529584
74978 22 12175322730462121866
81228 2 17896595086221614037
90316 7 17895461545304259621

>  <PUBCHEM_SHAPE_MULTIPOLES>  (1) 
312.55
7.18
2.08
1.4
1.64
0.43
0.12
-0.58
0.16
-0.47
-0.3
1.18
0.81
0.82

>  <PUBCHEM_SHAPE_SELFOVERLAP>  (1) 
621.842

>  <PUBCHEM_SHAPE_VOLUME>  (1) 
187.9

>  <PUBCHEM_COORDINATE_TYPE>  (1) 
2
5
10

$$$$
