36194
     RDKit          3D

 27 31  0  0  0  0  0  0  0  0999 V2000
    6.8858   -1.0289   -0.6925 O   0  0  0  0  0  0  0  0  0  0  0  0
    5.0770   -2.1356    0.1260 O   0  0  0  0  0  0  0  0  0  0  0  0
    2.7841   -0.6634   -0.4230 N   0  0  0  0  0  0  0  0  0  0  0  0
   -3.5718   -0.6303    0.4211 C   0  0  0  0  0  0  0  0  0  0  0  0
   -4.4237    0.4321   -1.7167 C   0  0  0  0  0  0  0  0  0  0  0  0
   -5.9845    0.1246    0.2378 C   0  0  0  0  0  0  0  0  0  0  0  0
   -4.1410    1.8389    0.3550 C   0  0  0  0  0  0  0  0  0  0  0  0
   -3.4774   -0.6261   -1.1231 C   0  0  0  0  0  0  0  0  0  0  0  0
   -5.0340   -0.9328    0.8260 C   0  0  0  0  0  0  0  0  0  0  0  0
   -3.1956    0.7767    0.9432 C   0  0  0  0  0  0  0  0  0  0  0  0
   -5.8678    0.1131   -1.2954 C   0  0  0  0  0  0  0  0  0  0  0  0
   -4.0335    1.8188   -1.1787 C   0  0  0  0  0  0  0  0  0  0  0  0
   -5.5865    1.5128    0.7660 C   0  0  0  0  0  0  0  0  0  0  0  0
   -2.6291   -1.6842    1.0081 C   0  0  0  0  0  0  0  0  0  0  0  0
   -1.1998   -1.4154    0.6307 C   0  0  0  0  0  0  0  0  0  0  0  0
   -0.6828   -1.9659   -0.5352 C   0  0  0  0  0  0  0  0  0  0  0  0
   -0.4116   -0.6183    1.4514 C   0  0  0  0  0  0  0  0  0  0  0  0
    0.6437   -1.7156   -0.8861 C   0  0  0  0  0  0  0  0  0  0  0  0
    0.9149   -0.3677    1.1006 C   0  0  0  0  0  0  0  0  0  0  0  0
    1.4427   -0.9164   -0.0683 C   0  0  0  0  0  0  0  0  0  0  0  0
    3.6426    0.4286   -0.1904 C   0  0  0  0  0  0  0  0  0  0  0  0
    5.0231    0.2480   -0.0738 C   0  0  0  0  0  0  0  0  0  0  0  0
    3.1006    1.7111   -0.0754 C   0  0  0  0  0  0  0  0  0  0  0  0
    5.8561    1.3429    0.1561 C   0  0  0  0  0  0  0  0  0  0  0  0
    3.9337    2.8061    0.1544 C   0  0  0  0  0  0  0  0  0  0  0  0
    5.6234   -1.0753   -0.1881 C   0  0  0  0  0  0  0  0  0  0  0  0
    5.3114    2.6220    0.2703 C   0  0  0  0  0  0  0  0  0  0  0  0
  1 26  1  0
  2 26  2  0
  3 20  1  0
  3 21  1  0
  4  8  1  0
  4  9  1  0
  4 10  1  0
  4 14  1  0
  5  8  1  0
  5 11  1  0
  5 12  1  0
  6  9  1  0
  6 11  1  0
  6 13  1  0
  7 10  1  0
  7 12  1  0
  7 13  1  0
 14 15  1  0
 15 16  2  0
 15 17  1  0
 16 18  1  0
 17 19  2  0
 18 20  2  0
 19 20  1  0
 21 22  2  0
 21 23  1  0
 22 24  1  0
 22 26  1  0
 23 25  2  0
 24 27  2  0
 25 27  1  0
M  END
>  <PUBCHEM_COMPOUND_CID>  (1) 
36194

>  <PUBCHEM_CONFORMER_RMSD>  (1) 
0.8

>  <PUBCHEM_CONFORMER_DIVERSEORDER>  (1) 
2
15
13
12
14
8
5
11
3
4
16
6
7
9
10
1

>  <PUBCHEM_MMFF94_PARTIAL_CHARGES>  (1) 
27
1 -0.65
14 0.14
15 -0.14
16 -0.15
17 -0.15
18 -0.15
19 -0.15
2 -0.57
20 0.1
21 0.1
22 0.09
23 -0.15
24 -0.15
25 -0.15
26 0.63
27 -0.15
3 -0.6
45 0.15
46 0.15
47 0.15
48 0.15
49 0.4
50 0.15
51 0.15
52 0.15
53 0.15
54 0.5

>  <PUBCHEM_EFFECTIVE_ROTOR_COUNT>  (1) 
6.2

>  <PUBCHEM_PHARMACOPHORE_FEATURES>  (1) 
11
1 1 acceptor
1 2 acceptor
1 3 cation
1 3 donor
3 1 2 26 anion
6 15 16 17 18 19 20 rings
6 21 22 23 24 25 27 rings
6 4 5 6 8 9 11 rings
6 4 5 7 8 10 12 rings
6 4 6 7 9 10 13 rings
6 5 6 7 11 12 13 rings

>  <PUBCHEM_HEAVY_ATOM_COUNT>  (1) 
27

>  <PUBCHEM_ATOM_DEF_STEREO_COUNT>  (1) 
0

>  <PUBCHEM_ATOM_UDEF_STEREO_COUNT>  (1) 
0

>  <PUBCHEM_BOND_DEF_STEREO_COUNT>  (1) 
0

>  <PUBCHEM_BOND_UDEF_STEREO_COUNT>  (1) 
0

>  <PUBCHEM_ISOTOPIC_ATOM_COUNT>  (1) 
0

>  <PUBCHEM_COMPONENT_COUNT>  (1) 
1

>  <PUBCHEM_CACTVS_TAUTO_COUNT>  (1) 
2

>  <PUBCHEM_CONFORMER_ID>  (1) 
00008D6200000002

>  <PUBCHEM_MMFF94_ENERGY>  (1) 
100.9836

>  <PUBCHEM_FEATURE_SELFOVERLAP>  (1) 
68.396

>  <PUBCHEM_SHAPE_FINGERPRINT>  (1) 
10319926 262 17313108587364848083
10670039 82 18334853870658477297
10763959 59 18113899355804905788
11089746 13 18409164407408922798
11991303 11 17775000245097381959
12128747 34 17749952146483000810
12166972 35 18335988639678047848
12403259 415 18040432187469349836
12596602 18 13334742331509146412
12616971 3 17775289373652207783
12633257 1 15719675458439570700
13103583 49 12612750186241634197
13402501 40 18408321103170219853
13544653 18 9655579625337249771
13583140 156 18261684752269959778
13785724 45 17980483361261846538
13911987 19 17488754491691108227
14739800 52 18041262335939084232
14856354 85 14273746156767012995
15183329 4 18410855443402038330
17349148 13 16988850484010294050
17780758 139 11818996271256391349
17844677 252 18337118959454144514
17857418 61 9079115557350683217
1813 80 13039189220880151691
19377110 9 11386361569872785158
19611394 137 18043546099890968531
20157964 124 18342178882127076354
20281389 69 18186238428760596080
20511986 3 17774993648854957666
20715895 44 18271812289469500056
21033648 144 18335134319142740148
21033648 29 17095514081045123549
21033650 10 15122415206493940546
21279426 13 18335981987142711844
21315764 268 18335137617667541501
22950370 63 7781518113785358838
23198884 109 18343864420662318723
23559900 14 18412265026099618930
23569914 2 17685443919187741292
2838139 119 18411699863747241021
3004659 81 18202566164355412930
3737641 26 8501836790035288736
4017518 198 17060064727572649950
4073 2 17968947512785068698
4098825 35 18342741793520763795
4144715 1 18115601468265502594
508706 21 17967523571806641669
5104073 3 18113900472126910626
57724786 102 18041848436446777844
59755656 520 18186238429204351123
6328613 192 18041292045098159196
9981440 41 17966973820677851603
9995097 60 18335703853756084826

>  <PUBCHEM_SHAPE_MULTIPOLES>  (1) 
538.93
17.5
2.5
1.23
10.25
0.93
-0.14
5.29
-1.95
2.28
0.06
-1.56
-0.06
0.78

>  <PUBCHEM_SHAPE_SELFOVERLAP>  (1) 
1195.151

>  <PUBCHEM_SHAPE_VOLUME>  (1) 
280.4

>  <PUBCHEM_COORDINATE_TYPE>  (1) 
2
5
10

$$$$
