36193
     RDKit          3D

 11 11  0  0  0  0  0  0  0  0999 V2000
   -0.4801   -2.1771    0.1507 F   0  0  0  0  0  0  0  0  0  0  0  0
    3.4001    0.0959    0.2691 N   0  0  0  0  0  0  0  0  0  0  0  0
    4.2870    0.2238   -0.8412 N   0  0  0  0  0  0  0  0  0  0  0  0
    1.0096    0.0997    0.9151 C   0  0  0  0  0  0  0  0  0  0  0  0
   -0.3948    0.1803    0.4192 C   0  0  0  0  0  0  0  0  0  0  0  0
    2.0317    0.2020   -0.2258 C   0  0  0  0  0  0  0  0  0  0  0  0
   -1.0777   -0.9809    0.0573 C   0  0  0  0  0  0  0  0  0  0  0  0
   -1.0252    1.4205    0.3172 C   0  0  0  0  0  0  0  0  0  0  0  0
   -2.3909   -0.9019   -0.4065 C   0  0  0  0  0  0  0  0  0  0  0  0
   -2.3384    1.4994   -0.1466 C   0  0  0  0  0  0  0  0  0  0  0  0
   -3.0213    0.3382   -0.5085 C   0  0  0  0  0  0  0  0  0  0  0  0
  1  7  1  0
  2  3  1  0
  2  6  1  0
  4  5  1  0
  4  6  1  0
  5  7  2  0
  5  8  1  0
  7  9  1  0
  8 10  2  0
  9 11  2  0
 10 11  1  0
M  END
>  <PUBCHEM_COMPOUND_CID>  (1) 
36193

>  <PUBCHEM_CONFORMER_RMSD>  (1) 
0.6

>  <PUBCHEM_CONFORMER_DIVERSEORDER>  (1) 
1
12
6
11
8
4
5
9
13
7
3
10
14
2

>  <PUBCHEM_MMFF94_PARTIAL_CHARGES>  (1) 
18
1 -0.19
10 -0.15
11 -0.15
16 0.15
17 0.36
18 0.15
19 0.15
2 -0.63
20 0.15
21 0.36
22 0.36
3 -0.72
4 0.14
5 -0.14
6 0.27
7 0.19
8 -0.15
9 -0.15

>  <PUBCHEM_EFFECTIVE_ROTOR_COUNT>  (1) 
3

>  <PUBCHEM_PHARMACOPHORE_FEATURES>  (1) 
3
1 2 donor
1 3 donor
6 5 7 8 9 10 11 rings

>  <PUBCHEM_HEAVY_ATOM_COUNT>  (1) 
11

>  <PUBCHEM_ATOM_DEF_STEREO_COUNT>  (1) 
0

>  <PUBCHEM_ATOM_UDEF_STEREO_COUNT>  (1) 
0

>  <PUBCHEM_BOND_DEF_STEREO_COUNT>  (1) 
0

>  <PUBCHEM_BOND_UDEF_STEREO_COUNT>  (1) 
0

>  <PUBCHEM_ISOTOPIC_ATOM_COUNT>  (1) 
0

>  <PUBCHEM_COMPONENT_COUNT>  (1) 
1

>  <PUBCHEM_CACTVS_TAUTO_COUNT>  (1) 
1

>  <PUBCHEM_CONFORMER_ID>  (1) 
00008D6100000001

>  <PUBCHEM_MMFF94_ENERGY>  (1) 
16.7079

>  <PUBCHEM_FEATURE_SELFOVERLAP>  (1) 
16.548

>  <PUBCHEM_SHAPE_FINGERPRINT>  (1) 
11206711 2 18339342124810375869
12716758 59 18340761632591295024
12897270 3 18341888597618501712
13024252 1 11891330967672588369
14325111 11 18337950095507289384
14993402 34 18186795885540653309
15775835 57 17967813808241945892
16945 1 18269536322112113017
20201158 50 17775288257287830158
20645476 183 17967809470319818955
20653085 51 18040442108970631284
21040471 1 18196635329614908641
23402539 116 18341320145796143844
23552423 10 18117549837213653409
23559900 14 18201715142492482488
2748010 2 17978770626802463179

>  <PUBCHEM_SHAPE_MULTIPOLES>  (1) 
209.14
5.55
1.51
0.81
6.37
0.37
-0.01
-0.83
1.76
-1.04
-0.06
0.23
-0.04
-0.08

>  <PUBCHEM_SHAPE_SELFOVERLAP>  (1) 
423.965

>  <PUBCHEM_SHAPE_VOLUME>  (1) 
122.8

>  <PUBCHEM_COORDINATE_TYPE>  (1) 
2
5
10

$$$$
