36192
     RDKit          3D

 15 16  0  0  0  0  0  0  0  0999 V2000
    0.7922    2.4686    0.3012 O   0  0  0  0  0  0  0  0  0  0  0  0
    2.5815   -1.9321    0.0038 O   0  0  0  0  0  0  0  0  0  0  0  0
    0.2785   -1.6787   -0.0999 N   0  0  0  0  0  0  0  0  0  0  0  0
   -0.8585   -0.8106   -0.0370 C   0  0  0  0  0  0  0  0  0  0  0  0
   -0.6644    0.5728    0.1314 C   0  0  0  0  0  0  0  0  0  0  0  0
    0.7110    1.0952    0.1980 C   0  0  0  0  0  0  0  0  0  0  0  0
    1.7715    0.2743    0.1646 C   0  0  0  0  0  0  0  0  0  0  0  0
    1.5858   -1.2049    0.0216 C   0  0  0  0  0  0  0  0  0  0  0  0
   -2.1710   -1.3142   -0.1207 C   0  0  0  0  0  0  0  0  0  0  0  0
   -1.7921    1.4074    0.2506 C   0  0  0  0  0  0  0  0  0  0  0  0
    0.0649   -3.1148   -0.2737 C   0  0  0  0  0  0  0  0  0  0  0  0
    3.2107    0.7101    0.2627 C   0  0  0  0  0  0  0  0  0  0  0  0
   -3.2748   -0.4683   -0.0209 C   0  0  0  0  0  0  0  0  0  0  0  0
   -3.0855    0.8916    0.1712 C   0  0  0  0  0  0  0  0  0  0  0  0
    0.8503    3.1036   -0.9531 C   0  0  0  0  0  0  0  0  0  0  0  0
  1  6  1  0
  1 15  1  0
  2  8  2  0
  3  4  1  0
  3  8  1  0
  3 11  1  0
  4  5  2  0
  4  9  1  0
  5  6  1  0
  5 10  1  0
  6  7  2  0
  7  8  1  0
  7 12  1  0
  9 13  2  0
 10 14  2  0
 13 14  1  0
M  END
>  <PUBCHEM_COMPOUND_CID>  (1) 
36192

>  <PUBCHEM_CONFORMER_RMSD>  (1) 
0.4

>  <PUBCHEM_CONFORMER_DIVERSEORDER>  (1) 
1
2

>  <PUBCHEM_MMFF94_PARTIAL_CHARGES>  (1) 
19
1 -0.36
10 -0.15
11 0.3
12 0.14
13 -0.15
14 -0.15
15 0.28
16 0.15
17 0.15
2 -0.57
24 0.15
25 0.15
3 -0.48
4 0.12
5 0.03
6 0.05
7 -0.12
8 0.62
9 -0.15

>  <PUBCHEM_EFFECTIVE_ROTOR_COUNT>  (1) 
1

>  <PUBCHEM_PHARMACOPHORE_FEATURES>  (1) 
4
1 1 acceptor
1 2 acceptor
6 3 4 5 6 7 8 rings
6 4 5 9 10 13 14 rings

>  <PUBCHEM_HEAVY_ATOM_COUNT>  (1) 
15

>  <PUBCHEM_ATOM_DEF_STEREO_COUNT>  (1) 
0

>  <PUBCHEM_ATOM_UDEF_STEREO_COUNT>  (1) 
0

>  <PUBCHEM_BOND_DEF_STEREO_COUNT>  (1) 
0

>  <PUBCHEM_BOND_UDEF_STEREO_COUNT>  (1) 
0

>  <PUBCHEM_ISOTOPIC_ATOM_COUNT>  (1) 
0

>  <PUBCHEM_COMPONENT_COUNT>  (1) 
1

>  <PUBCHEM_CACTVS_TAUTO_COUNT>  (1) 
1

>  <PUBCHEM_CONFORMER_ID>  (1) 
00008D6000000001

>  <PUBCHEM_MMFF94_ENERGY>  (1) 
50.7416

>  <PUBCHEM_FEATURE_SELFOVERLAP>  (1) 
20.32

>  <PUBCHEM_SHAPE_FINGERPRINT>  (1) 
10967382 1 18411418423072135979
11132069 177 18269546152938942778
11471102 20 18411413982650750557
12423570 1 9697926400826790761
12524768 44 18196093235748421915
12696612 119 18410862061725023817
13140716 1 18267302036747949194
15536298 74 18201718423336001386
16945 1 18266741466058631906
17990270 104 18409166627627238747
193761 8 17906733961665544866
19591789 44 16174549217183172971
20511035 2 17912357933793015420
20588541 1 18051976922269821667
21501502 16 18340767053093346875
2334 1 18411698772804383818
23402539 116 18343007900956822262
23419403 2 15302443536265983120
23463225 33 18337388240881350362
23526114 1 18410855421478789502
23552423 10 18338234998115802541
23559900 14 18127978504105542926
241688 4 18266178318547154392
2748010 2 18339641148696371118
2897 32 18339923821937250333
528886 8 18412257328879518083
53812653 166 18272364308646789648
63268167 104 18412827962698217569
7364860 26 18341614883669086280
81228 2 17760093912513794593
90316 7 18044344228946824664

>  <PUBCHEM_SHAPE_MULTIPOLES>  (1) 
291.97
4.25
3.23
0.69
1.02
0.17
-0.06
-0.26
0.3
-1.09
-0.66
-0.06
-0.2
-0.26

>  <PUBCHEM_SHAPE_SELFOVERLAP>  (1) 
625.823

>  <PUBCHEM_SHAPE_VOLUME>  (1) 
162.4

>  <PUBCHEM_COORDINATE_TYPE>  (1) 
2
5
10

$$$$
