36203
     RDKit          3D

 10  9  0  0  1  0  0  0  0  0999 V2000
    0.6698   -0.7097   -1.3146 S   0  0  0  0  0  0  0  0  0  0  0  0
   -0.5916   -2.2607    0.4861 O   0  0  0  0  0  0  0  0  0  0  0  0
   -1.8368    0.8949   -0.6900 O   0  0  0  0  0  0  0  0  0  0  0  0
   -1.7166    0.0002    1.4313 O   0  0  0  0  0  0  0  0  0  0  0  0
    3.7281    0.9528    0.7676 N   0  0  0  0  0  0  0  0  0  0  0  0
    1.6182   -0.0745    0.0920 C   0  0  0  0  0  0  0  0  0  0  0  0
    2.9730    0.4443   -0.3737 C   0  0  0  0  0  0  0  0  0  0  0  0
   -0.8501   -1.2398   -0.4624 C   0  0  0  0  0  0  0  0  0  0  0  0
   -1.5027   -0.0609    0.2269 C   0  0  0  0  0  0  0  0  0  0  0  0
   -2.4912    2.0534   -0.1631 C   0  0  0  0  0  0  0  0  0  0  0  0
  1  6  1  0
  1  8  1  0
  2  8  1  0
  3  9  1  0
  3 10  1  0
  4  9  2  0
  5  7  1  0
  6  7  1  0
  8  9  1  0
M  END
>  <PUBCHEM_COMPOUND_CID>  (1) 
36203

>  <PUBCHEM_CONFORMER_RMSD>  (1) 
0.6

>  <PUBCHEM_CONFORMER_DIVERSEORDER>  (1) 
1
13
42
12
37
26
38
47
9
36
10
5
45
22
52
50
48
40
24
49
34
15
4
27
23
2
18
32
46
51
39
11
21
44
14
43
35
29
41
28
16
25
6
20
31
7
30
33
17
3
19
8

>  <PUBCHEM_MMFF94_PARTIAL_CHARGES>  (1) 
13
1 -0.46
10 0.28
16 0.36
17 0.36
18 0.4
2 -0.68
3 -0.43
4 -0.57
5 -0.99
6 0.23
7 0.27
8 0.57
9 0.66

>  <PUBCHEM_EFFECTIVE_ROTOR_COUNT>  (1) 
5

>  <PUBCHEM_PHARMACOPHORE_FEATURES>  (1) 
5
1 2 acceptor
1 2 donor
1 4 acceptor
1 5 cation
1 5 donor

>  <PUBCHEM_HEAVY_ATOM_COUNT>  (1) 
10

>  <PUBCHEM_ATOM_DEF_STEREO_COUNT>  (1) 
0

>  <PUBCHEM_ATOM_UDEF_STEREO_COUNT>  (1) 
1

>  <PUBCHEM_BOND_DEF_STEREO_COUNT>  (1) 
0

>  <PUBCHEM_BOND_UDEF_STEREO_COUNT>  (1) 
0

>  <PUBCHEM_ISOTOPIC_ATOM_COUNT>  (1) 
0

>  <PUBCHEM_COMPONENT_COUNT>  (1) 
1

>  <PUBCHEM_CACTVS_TAUTO_COUNT>  (1) 
1

>  <PUBCHEM_CONFORMER_ID>  (1) 
00008D6B00000001

>  <PUBCHEM_MMFF94_ENERGY>  (1) 
6.6561

>  <PUBCHEM_FEATURE_SELFOVERLAP>  (1) 
25.378

>  <PUBCHEM_SHAPE_FINGERPRINT>  (1) 
10149128 76 18271523083356594604
11127187 94 10375872956889726833
12897270 3 15195272106313408925
14390081 3 18342457002196330292
15775835 57 18343297033401272572
20605781 55 18267580221627106701
20645464 45 18341902878685454462
20653085 51 17988364745685086509
20711983 138 12685079376636365164
21028194 46 18201723946431621262
23211744 41 18270130019314634247
5084963 1 18272937136782307470
528716 315 10519710024774782168
54338 74 18116428348275121231

>  <PUBCHEM_SHAPE_MULTIPOLES>  (1) 
187.06
4.6
1.85
1.12
3.83
0.2
0
-3.2
-0.66
-1.01
-0.05
-0.07
0.13
0.57

>  <PUBCHEM_SHAPE_SELFOVERLAP>  (1) 
332.426

>  <PUBCHEM_SHAPE_VOLUME>  (1) 
122.5

>  <PUBCHEM_COORDINATE_TYPE>  (1) 
2
5
10

$$$$
