36217
     RDKit          3D

 16 16  0  0  0  0  0  0  0  0999 V2000
   -0.0017   -0.0632    0.6309 N   0  0  0  0  0  0  0  0  0  0  0  0
    2.3283   -0.0393    0.6377 N   0  0  0  0  0  0  0  0  0  0  0  0
   -1.2220   -2.0033   -0.1133 N   0  0  0  0  0  0  0  0  0  0  0  0
   -2.3346   -0.0903    0.6239 N   0  0  0  0  0  0  0  0  0  0  0  0
    4.0364    1.4053   -0.1381 N   0  0  0  0  0  0  0  0  0  0  0  0
   -4.0832    1.3089   -0.1672 N   0  0  0  0  0  0  0  0  0  0  0  0
    2.3743    0.8557   -1.5919 N   0  0  0  0  0  0  0  0  0  0  0  0
   -2.3963    0.8000   -1.6075 N   0  0  0  0  0  0  0  0  0  0  0  0
    4.7894    1.1925    0.9987 N   0  0  0  0  0  0  0  0  0  0  0  0
   -4.6170    1.4317    1.0993 N   0  0  0  0  0  0  0  0  0  0  0  0
    1.1364   -0.7332    0.3710 C   0  0  0  0  0  0  0  0  0  0  0  0
   -1.1305   -0.7493    0.3692 C   0  0  0  0  0  0  0  0  0  0  0  0
    1.1848   -2.0170   -0.1228 C   0  0  0  0  0  0  0  0  0  0  0  0
   -0.0403   -2.6102   -0.3491 C   0  0  0  0  0  0  0  0  0  0  0  0
    2.8669    0.6862   -0.3121 C   0  0  0  0  0  0  0  0  0  0  0  0
   -2.8907    0.6255   -0.3289 C   0  0  0  0  0  0  0  0  0  0  0  0
  1 11  2  0
  1 12  1  0
  2 11  1  0
  2 15  2  0
  3 12  2  0
  3 14  1  0
  4 12  1  0
  4 16  2  0
  5  9  1  0
  5 15  1  0
  6 10  1  0
  6 16  1  0
  7 15  1  0
  8 16  1  0
 11 13  1  0
 13 14  2  0
M  END
>  <PUBCHEM_COMPOUND_CID>  (1) 
36217

>  <PUBCHEM_CONFORMER_RMSD>  (1) 
0.6

>  <PUBCHEM_CONFORMER_DIVERSEORDER>  (1) 
1
32
20
28
23
27
3
14
21
38
30
24
35
4
19
31
15
18
8
29
11
26
12
6
37
36
25
16
7
10
34
5
33
22
17
2
13
9

>  <PUBCHEM_MMFF94_PARTIAL_CHARGES>  (1) 
28
1 -0.62
10 -0.71
11 0.49
12 0.8
13 -0.15
14 0.16
15 0.55
16 0.55
17 0.15
18 0.15
19 0.4
2 -0.63
20 0.4
21 0.4
22 0.4
23 0.4
24 0.4
25 0.36
26 0.36
27 0.36
28 0.36
3 -0.62
4 -0.63
5 -0.46
6 -0.46
7 -0.85
8 -0.85
9 -0.71

>  <PUBCHEM_EFFECTIVE_ROTOR_COUNT>  (1) 
4

>  <PUBCHEM_PHARMACOPHORE_FEATURES>  (1) 
10
1 10 donor
1 5 donor
1 6 donor
1 7 donor
1 8 donor
1 9 donor
4 1 3 4 12 cation
4 2 5 7 15 cation
4 4 6 8 16 cation
6 1 3 11 12 13 14 rings

>  <PUBCHEM_HEAVY_ATOM_COUNT>  (1) 
16

>  <PUBCHEM_ATOM_DEF_STEREO_COUNT>  (1) 
0

>  <PUBCHEM_ATOM_UDEF_STEREO_COUNT>  (1) 
0

>  <PUBCHEM_BOND_DEF_STEREO_COUNT>  (1) 
0

>  <PUBCHEM_BOND_UDEF_STEREO_COUNT>  (1) 
1

>  <PUBCHEM_ISOTOPIC_ATOM_COUNT>  (1) 
0

>  <PUBCHEM_COMPONENT_COUNT>  (1) 
1

>  <PUBCHEM_CACTVS_TAUTO_COUNT>  (1) 
37

>  <PUBCHEM_CONFORMER_ID>  (1) 
00008D7900000001

>  <PUBCHEM_MMFF94_ENERGY>  (1) 
55.737

>  <PUBCHEM_FEATURE_SELFOVERLAP>  (1) 
53.926

>  <PUBCHEM_SHAPE_FINGERPRINT>  (1) 
11031198 65 18271527494620148003
11543360 7 15195282066601037792
12138202 97 17774725389076217030
14123255 52 18412826888808921169
14897335 6 18411132550233712466
15342168 16 18408892806672893005
15775835 57 18335138717326407396
1741750 31 18412826918979038018
17834072 32 18338239396289485876
1798214 55 18410576179927582460
18186145 218 18341052917220568710
18222031 100 11386373663867817737
19784866 34 18272651233831458473
19786989 88 18336260125014079999
200 152 11240003364568936524
20645477 56 18339927129341656208
20671657 1 18267307529974554487
20871998 22 8502366724432252102
20871999 31 16200140024276717557
21499 59 18341326725923417783
21501925 9 8286188423369720071
21524375 3 18261107512659358531
23402539 116 17988918994594220904
23557571 272 18129111197969418596
25 1 18272087175697255795

>  <PUBCHEM_SHAPE_MULTIPOLES>  (1) 
279.46
7.71
2.2
1.08
0.09
1.46
-0.29
-7.08
1.36
-0.06
-0.16
0.06
-0.38
-0.07

>  <PUBCHEM_SHAPE_SELFOVERLAP>  (1) 
573.703

>  <PUBCHEM_SHAPE_VOLUME>  (1) 
153.5

>  <PUBCHEM_COORDINATE_TYPE>  (1) 
2
5
10

$$$$
