36219
     RDKit          3D

 12 13  0  0  0  0  0  0  0  0999 V2000
   -3.4615    0.6935   -0.0130 O   0  0  0  0  0  0  0  0  0  0  0  0
   -2.9891   -1.4503   -0.0130 O   0  0  0  0  0  0  0  0  0  0  0  0
    2.8416    0.8048    0.0687 N   0  0  0  0  0  0  0  0  0  0  0  0
   -2.6320   -0.2477   -0.0106 N   0  0  0  0  0  0  0  0  0  0  0  0
    2.2284   -1.5311    0.0948 C   0  0  0  0  0  0  0  0  0  0  0  0
    1.0337   -0.6379    0.0183 C   0  0  0  0  0  0  0  0  0  0  0  0
    3.3767   -0.5314   -0.1626 C   0  0  0  0  0  0  0  0  0  0  0  0
    1.4538    0.6944    0.0006 C   0  0  0  0  0  0  0  0  0  0  0  0
   -0.3077   -0.9763    0.0135 C   0  0  0  0  0  0  0  0  0  0  0  0
    0.5301    1.7247    0.0115 C   0  0  0  0  0  0  0  0  0  0  0  0
   -1.2448    0.0580   -0.0053 C   0  0  0  0  0  0  0  0  0  0  0  0
   -0.8290    1.3991   -0.0029 C   0  0  0  0  0  0  0  0  0  0  0  0
  1  4  1  0
  2  4  2  0
  3  7  1  0
  3  8  1  0
  4 11  1  0
  5  6  1  0
  5  7  1  0
  6  8  2  0
  6  9  1  0
  8 10  1  0
  9 11  2  0
 10 12  2  0
 11 12  1  0
M  CHG  2   1  -1   4   1
M  END
>  <PUBCHEM_COMPOUND_CID>  (1) 
36219

>  <PUBCHEM_CONFORMER_RMSD>  (1) 
0.4

>  <PUBCHEM_CONFORMER_DIVERSEORDER>  (1) 
1

>  <PUBCHEM_MMFF94_PARTIAL_CHARGES>  (1) 
16
1 -0.52
10 -0.15
11 0.13
12 -0.15
17 0.4
18 0.15
19 0.15
2 -0.52
20 0.15
3 -0.87
4 0.91
5 0.14
6 -0.14
7 0.37
8 0.1
9 -0.15

>  <PUBCHEM_EFFECTIVE_ROTOR_COUNT>  (1) 
1.6

>  <PUBCHEM_PHARMACOPHORE_FEATURES>  (1) 
7
1 1 acceptor
1 1 anion
1 2 acceptor
1 3 cation
1 3 donor
5 3 5 6 7 8 rings
6 6 8 9 10 11 12 rings

>  <PUBCHEM_HEAVY_ATOM_COUNT>  (1) 
12

>  <PUBCHEM_ATOM_DEF_STEREO_COUNT>  (1) 
0

>  <PUBCHEM_ATOM_UDEF_STEREO_COUNT>  (1) 
0

>  <PUBCHEM_BOND_DEF_STEREO_COUNT>  (1) 
0

>  <PUBCHEM_BOND_UDEF_STEREO_COUNT>  (1) 
0

>  <PUBCHEM_ISOTOPIC_ATOM_COUNT>  (1) 
0

>  <PUBCHEM_COMPONENT_COUNT>  (1) 
1

>  <PUBCHEM_CACTVS_TAUTO_COUNT>  (1) 
1

>  <PUBCHEM_CONFORMER_ID>  (1) 
00008D7B00000001

>  <PUBCHEM_MMFF94_ENERGY>  (1) 
46.1534

>  <PUBCHEM_FEATURE_SELFOVERLAP>  (1) 
35.693

>  <PUBCHEM_SHAPE_FINGERPRINT>  (1) 
10219947 1 18201721747171099214
11132069 177 18412539899241635746
11471102 20 18410288107944200965
11769659 78 18410849962596682502
12032990 46 18411426115390361022
12897270 3 18410011009591795406
12932764 1 17385714777633340527
14128692 85 18411421730096642717
14325111 11 18410856581119913797
16945 1 18409728473774084264
17844478 74 17967538956357902717
193761 8 17401769021846394632
20201158 50 18408322172468928667
20645477 70 18411695457358994751
20871998 22 18199475372270627374
21501925 9 18339068393221849859
23402539 116 18411689985707543262
23402655 69 18268132194582960893
23463225 33 18409730621310447342
23552423 10 18260271802497178598
2748010 2 18338793390987688116
3312278 4 18410296904042361467
5084963 1 18343021056193470168
528886 8 18411695478448293451
63268167 104 18412267246069897809
8809292 202 18260554419729845235

>  <PUBCHEM_SHAPE_MULTIPOLES>  (1) 
225.25
4.99
1.66
0.59
1.32
0.15
0
-1.06
0.11
-0.04
-0.02
-0.07
0
0

>  <PUBCHEM_SHAPE_SELFOVERLAP>  (1) 
488.733

>  <PUBCHEM_SHAPE_VOLUME>  (1) 
126.3

>  <PUBCHEM_COORDINATE_TYPE>  (1) 
2
5
10

$$$$
