3622
     RDKit          3D

 21 23  0  0  1  0  0  0  0  0999 V2000
    0.0422    0.9786    0.9038 O   0  0  0  0  0  0  0  0  0  0  0  0
    0.7139    1.9307   -1.0866 O   0  0  0  0  0  0  0  0  0  0  0  0
    3.1068    2.5445    0.1798 O   0  0  0  0  0  0  0  0  0  0  0  0
   -3.3350   -1.1902   -0.0705 N   0  0  0  0  0  0  0  0  0  0  0  0
   -3.5764   -0.1038    0.9983 C   0  0  0  0  0  0  0  0  0  0  0  0
   -2.7909   -0.3165   -1.2200 C   0  0  0  0  0  0  0  0  0  0  0  0
   -4.2798    1.0073    0.2014 C   0  0  0  0  0  0  0  0  0  0  0  0
   -3.7696    0.8693   -1.2389 C   0  0  0  0  0  0  0  0  0  0  0  0
   -2.2252    0.3971    1.5391 C   0  0  0  0  0  0  0  0  0  0  0  0
   -1.3708    0.1656   -0.8737 C   0  0  0  0  0  0  0  0  0  0  0  0
   -1.3048    0.9540    0.4434 C   0  0  0  0  0  0  0  0  0  0  0  0
   -2.4098   -2.3245    0.3661 C   0  0  0  0  0  0  0  0  0  0  0  0
   -4.6529   -1.8831   -0.4706 C   0  0  0  0  0  0  0  0  0  0  0  0
    0.9613    1.4975    0.0318 C   0  0  0  0  0  0  0  0  0  0  0  0
    2.3499    1.4331    0.6369 C   0  0  0  0  0  0  0  0  0  0  0  0
    3.0847    0.1658    0.2746 C   0  0  0  0  0  0  0  0  0  0  0  0
    2.9637   -0.9475    1.0915 C   0  0  0  0  0  0  0  0  0  0  0  0
    3.8678    0.1372   -0.8687 C   0  0  0  0  0  0  0  0  0  0  0  0
    3.6430   -2.1188    0.7567 C   0  0  0  0  0  0  0  0  0  0  0  0
    4.5472   -1.0341   -1.2035 C   0  0  0  0  0  0  0  0  0  0  0  0
    4.4348   -2.1622   -0.3909 C   0  0  0  0  0  0  0  0  0  0  0  0
  1 11  1  0
  1 14  1  0
  2 14  2  0
  3 15  1  0
  4  5  1  0
  4  6  1  0
  4 12  1  0
  4 13  1  0
  5  7  1  0
  5  9  1  0
  6  8  1  0
  6 10  1  0
  7  8  1  0
  9 11  1  0
 10 11  1  0
 14 15  1  0
 15 16  1  0
 16 17  2  0
 16 18  1  0
 17 19  1  0
 18 20  2  0
 19 21  2  0
 20 21  1  0
M  CHG  1   4   1
M  END
>  <PUBCHEM_COMPOUND_CID>  (1) 
3622

>  <PUBCHEM_CONFORMER_RMSD>  (1) 
0.8

>  <PUBCHEM_CONFORMER_DIVERSEORDER>  (1) 
1
22
51
10
57
58
36
2
43
16
32
7
26
37
11
50
27
29
63
56
3
30
46
25
52
60
13
59
38
62
55
40
34
45
19
20
35
21
53
47
31
23
42
48
18
17
9
15
33
41
5
24
4
6
44
39
54
14
28
12
8
49
61

>  <PUBCHEM_MMFF94_PARTIAL_CHARGES>  (1) 
23
1 -0.43
11 0.28
12 0.5
13 0.5
14 0.66
15 0.48
16 -0.14
17 -0.15
18 -0.15
19 -0.15
2 -0.57
20 -0.15
21 -0.15
3 -0.68
4 -1.01
40 0.4
41 0.15
42 0.15
43 0.15
44 0.15
45 0.15
5 0.5
6 0.5

>  <PUBCHEM_EFFECTIVE_ROTOR_COUNT>  (1) 
5.2

>  <PUBCHEM_PHARMACOPHORE_FEATURES>  (1) 
6
1 2 acceptor
1 3 acceptor
1 3 donor
1 4 cation
6 16 17 18 19 20 21 rings
8 4 5 6 7 8 9 10 11 rings

>  <PUBCHEM_HEAVY_ATOM_COUNT>  (1) 
21

>  <PUBCHEM_ATOM_DEF_STEREO_COUNT>  (1) 
0

>  <PUBCHEM_ATOM_UDEF_STEREO_COUNT>  (1) 
3

>  <PUBCHEM_BOND_DEF_STEREO_COUNT>  (1) 
0

>  <PUBCHEM_BOND_UDEF_STEREO_COUNT>  (1) 
0

>  <PUBCHEM_ISOTOPIC_ATOM_COUNT>  (1) 
0

>  <PUBCHEM_COMPONENT_COUNT>  (1) 
1

>  <PUBCHEM_CACTVS_TAUTO_COUNT>  (1) 
1

>  <PUBCHEM_CONFORMER_ID>  (1) 
00000E2600000001

>  <PUBCHEM_MMFF94_ENERGY>  (1) 
70.2092

>  <PUBCHEM_FEATURE_SELFOVERLAP>  (1) 
30.45

>  <PUBCHEM_SHAPE_FINGERPRINT>  (1) 
10062212 137 17989201547517850799
10498660 4 13406794428009878446
11405975 8 18342458136342172089
11578080 2 18058428959840238552
12107183 9 18055363435337348057
12173636 292 14490462059259991927
12553582 1 18339083679474615114
12596599 1 18343869891976387770
12633257 1 18201166451012851819
128620 24 12468362353277798609
13167823 11 18343585174351648017
13224815 77 17632578274841689226
13533116 47 18200028581470173875
13583140 156 17916294125249265697
13631057 29 17696189583816579318
15188451 53 15912462650596384437
15239154 128 11746934278470409991
15239191 94 18413109446333434402
15537594 2 18262812778196013674
16752209 62 18193546775171239080
17349148 13 17561362881325923717
17492 89 18341331201253447175
17818456 19 18200604574955047633
1798214 20 18410572860228865134
1813 80 18270131110663602028
18186145 218 18334008402108918497
193927 3 18131077021549077478
20281475 54 18410293601312906384
20291156 8 18341614798075266784
20645477 70 18411696612646785124
21250096 35 18271523113553046040
21521239 73 18198314370249910759
221490 88 18337115669572324002
2215653 11 18336538344473931655
2255824 54 18340490062463640648
22646028 28 18131070445721824146
235170 7 16153714202076554374
23557571 272 14997153369742179152
23559900 14 18343013402609591944
2838139 119 9005691245392226587
3004659 81 18187082802784493442
314173 41 18411142411689308916
3323516 105 18186238437403408402
339767 52 18271516508088815866
351380 180 10952048935797477318
44062 13 18410569561894552639
46194498 28 17459193043562652317
463206 1 18188769414745692666
4921388 177 16298400071014939699
5104073 3 17989209265405238331
5161694 15 17894623725774937373
5281201 14 17894632560623165100
633830 44 16805323292709398917
7808743 9 9149728411002206802
7970288 3 18270401569039408910
960060 61 18040720255558450598
9709674 26 18336264664430560659

>  <PUBCHEM_SHAPE_MULTIPOLES>  (1) 
409.58
10.56
2.42
1.29
1.76
0.41
0.03
4.58
1.55
1.1
-0.07
-0.19
-0.02
-0.01

>  <PUBCHEM_SHAPE_SELFOVERLAP>  (1) 
865.613

>  <PUBCHEM_SHAPE_VOLUME>  (1) 
230.4

>  <PUBCHEM_COORDINATE_TYPE>  (1) 
2
5
10

$$$$
