36235
     RDKit          3D

 17 16  0  0  0  0  0  0  0  0999 V2000
    1.0766    1.9018    0.9647 Cl  0  0  0  0  0  0  0  0  0  0  0  0
    2.8799    0.6750   -1.8284 O   0  0  0  0  0  0  0  0  0  0  0  0
    2.4324   -1.6165    0.6903 O   0  0  0  0  0  0  0  0  0  0  0  0
    3.7316    0.9793    0.1707 O   0  0  0  0  0  0  0  0  0  0  0  0
    0.9075   -0.7414    2.0011 O   0  0  0  0  0  0  0  0  0  0  0  0
   -4.2015    1.2896   -0.2717 O   0  0  0  0  0  0  0  0  0  0  0  0
   -2.5692   -1.7081   -0.3027 O   0  0  0  0  0  0  0  0  0  0  0  0
   -0.4893   -2.3463   -0.6406 O   0  0  0  0  0  0  0  0  0  0  0  0
   -2.7349    0.8342    1.4029 O   0  0  0  0  0  0  0  0  0  0  0  0
   -0.9467   -0.1546   -0.4365 N   0  0  0  0  0  0  0  0  0  0  0  0
    2.7890    0.7268   -0.5921 N   0  0  0  0  0  0  0  0  0  0  0  0
    1.6000   -0.7435    0.9722 N   0  0  0  0  0  0  0  0  0  0  0  0
   -1.3645   -1.4880   -0.4763 N   0  0  0  0  0  0  0  0  0  0  0  0
    0.3643    0.1231   -1.0236 C   0  0  0  0  0  0  0  0  0  0  0  0
    1.4299    0.4398    0.0305 C   0  0  0  0  0  0  0  0  0  0  0  0
   -1.9367    0.8359   -0.8716 C   0  0  0  0  0  0  0  0  0  0  0  0
   -2.9683    0.9927    0.2112 C   0  0  0  0  0  0  0  0  0  0  0  0
  1 15  1  0
  2 11  1  0
  3 12  1  0
  4 11  2  0
  5 12  2  0
  6 17  1  0
  7 13  1  0
  8 13  2  0
  9 17  2  0
 10 13  1  0
 10 14  1  0
 10 16  1  0
 11 15  1  0
 12 15  1  0
 14 15  1  0
 16 17  1  0
M  CHG  6   2  -1   3  -1   7  -1  11   1  12   1  13   1
M  END
>  <PUBCHEM_COMPOUND_CID>  (1) 
36235

>  <PUBCHEM_CONFORMER_RMSD>  (1) 
0.8

>  <PUBCHEM_CONFORMER_DIVERSEORDER>  (1) 
1
41
57
46
39
15
29
40
49
56
47
31
33
55
50
23
4
38
8
5
11
44
32
42
7
43
53
54
2
10
48
52
22
13
18
17
27
26
21
19
30
20
12
51
16
35
3
36
34
25
24
45
6
37
14
9
28

>  <PUBCHEM_MMFF94_PARTIAL_CHARGES>  (1) 
18
1 -0.29
10 -0.53
11 0.8
12 0.8
13 1.03
14 0.27
15 0.77
16 0.33
17 0.66
2 -0.52
22 0.5
3 -0.52
4 -0.52
5 -0.52
6 -0.65
7 -0.52
8 -0.52
9 -0.57

>  <PUBCHEM_EFFECTIVE_ROTOR_COUNT>  (1) 
7

>  <PUBCHEM_PHARMACOPHORE_FEATURES>  (1) 
11
1 2 acceptor
1 2 anion
1 3 acceptor
1 3 anion
1 4 acceptor
1 5 acceptor
1 6 acceptor
1 7 acceptor
1 8 acceptor
1 9 acceptor
3 6 9 17 anion

>  <PUBCHEM_HEAVY_ATOM_COUNT>  (1) 
17

>  <PUBCHEM_ATOM_DEF_STEREO_COUNT>  (1) 
0

>  <PUBCHEM_ATOM_UDEF_STEREO_COUNT>  (1) 
0

>  <PUBCHEM_BOND_DEF_STEREO_COUNT>  (1) 
0

>  <PUBCHEM_BOND_UDEF_STEREO_COUNT>  (1) 
0

>  <PUBCHEM_ISOTOPIC_ATOM_COUNT>  (1) 
0

>  <PUBCHEM_COMPONENT_COUNT>  (1) 
1

>  <PUBCHEM_CACTVS_TAUTO_COUNT>  (1) 
1

>  <PUBCHEM_CONFORMER_ID>  (1) 
00008D8B00000001

>  <PUBCHEM_MMFF94_ENERGY>  (1) 
52.0358

>  <PUBCHEM_FEATURE_SELFOVERLAP>  (1) 
56.134

>  <PUBCHEM_SHAPE_FINGERPRINT>  (1) 
12202030 40 14129608896780129387
12491281 212 18411145748430531056
12932764 1 18335417980432143853
13380535 21 18334860523641543854
13538477 17 18411130338172346833
13764800 53 18202567302152292859
14648413 74 17702663409602541824
15279307 12 18333728030875687658
15775835 57 18335137592140057801
16945 1 18119530083520066286
19422 9 18187364350200563758
201361 129 18260267455974528792
20233049 118 18341894052348813108
20671657 1 18200032811570108831
21501502 16 18409440397290513815
22802520 49 17346055406025396892
23236772 104 18042120015391134723
23419403 2 16964988787737532642
23526113 38 16773809060416551324
23557571 272 16341984772317578231
23559900 14 18202006551976780484
276578 36 18260554398180895596
74978 22 18272926154677564465

>  <PUBCHEM_SHAPE_MULTIPOLES>  (1) 
284.84
5.57
1.94
1.38
1.58
0.74
0.2
-2.02
-0.44
0.42
0.18
-0.63
-0.08
-0.49

>  <PUBCHEM_SHAPE_SELFOVERLAP>  (1) 
557.388

>  <PUBCHEM_SHAPE_VOLUME>  (1) 
171.6

>  <PUBCHEM_COORDINATE_TYPE>  (1) 
2
5
10

$$$$
