3623
     RDKit          3D

 20 22  0  0  1  0  0  0  0  0999 V2000
   -0.0332    0.7201    0.8494 O   0  0  0  0  0  0  0  0  0  0  0  0
    0.2442    2.4066   -0.6991 O   0  0  0  0  0  0  0  0  0  0  0  0
    2.8714    2.5923   -0.1385 O   0  0  0  0  0  0  0  0  0  0  0  0
   -3.3860   -1.3496   -0.4656 N   0  0  0  0  0  0  0  0  0  0  0  0
   -3.4652   -0.8365    0.9070 C   0  0  0  0  0  0  0  0  0  0  0  0
   -3.0374   -0.1671   -1.2617 C   0  0  0  0  0  0  0  0  0  0  0  0
   -4.3994    0.3595    0.6798 C   0  0  0  0  0  0  0  0  0  0  0  0
   -4.1147    0.8049   -0.7620 C   0  0  0  0  0  0  0  0  0  0  0  0
   -2.0920   -0.3863    1.4427 C   0  0  0  0  0  0  0  0  0  0  0  0
   -1.6205    0.3516   -0.9481 C   0  0  0  0  0  0  0  0  0  0  0  0
   -1.4211    0.6583    0.5422 C   0  0  0  0  0  0  0  0  0  0  0  0
   -2.5423   -2.5143   -0.6589 C   0  0  0  0  0  0  0  0  0  0  0  0
    0.6931    1.6470    0.1500 C   0  0  0  0  0  0  0  0  0  0  0  0
    2.1529    1.5816    0.5541 C   0  0  0  0  0  0  0  0  0  0  0  0
    2.7824    0.2447    0.2480 C   0  0  0  0  0  0  0  0  0  0  0  0
    2.7456   -0.7588    1.2036 C   0  0  0  0  0  0  0  0  0  0  0  0
    3.3866    0.0437   -0.9832 C   0  0  0  0  0  0  0  0  0  0  0  0
    3.3278   -1.9944    0.9206 C   0  0  0  0  0  0  0  0  0  0  0  0
    3.9687   -1.1919   -1.2660 C   0  0  0  0  0  0  0  0  0  0  0  0
    3.9391   -2.2111   -0.3142 C   0  0  0  0  0  0  0  0  0  0  0  0
  1 11  1  0
  1 13  1  0
  2 13  2  0
  3 14  1  0
  4  5  1  0
  4  6  1  0
  4 12  1  0
  5  7  1  0
  5  9  1  0
  6  8  1  0
  6 10  1  0
  7  8  1  0
  9 11  1  0
 10 11  1  0
 13 14  1  0
 14 15  1  0
 15 16  2  0
 15 17  1  0
 16 18  1  0
 17 19  2  0
 18 20  2  0
 19 20  1  0
M  END
>  <PUBCHEM_COMPOUND_CID>  (1) 
3623

>  <PUBCHEM_CONFORMER_RMSD>  (1) 
0.8

>  <PUBCHEM_CONFORMER_DIVERSEORDER>  (1) 
1
54
67
39
74
48
28
25
70
66
73
71
43
60
30
46
61
72
27
57
4
69
24
44
13
10
63
32
58
62
29
49
31
52
11
64
15
40
9
17
65
59
20
55
23
5
51
8
68
35
37
45
42
47
33
7
3
53
12
14
16
41
50
56
22
26
34
21
18
38
2
19
36
6

>  <PUBCHEM_MMFF94_PARTIAL_CHARGES>  (1) 
22
1 -0.43
11 0.28
12 0.27
13 0.66
14 0.48
15 -0.14
16 -0.15
17 -0.15
18 -0.15
19 -0.15
2 -0.57
20 -0.15
3 -0.68
36 0.4
37 0.15
38 0.15
39 0.15
4 -0.81
40 0.15
41 0.15
5 0.27
6 0.27

>  <PUBCHEM_EFFECTIVE_ROTOR_COUNT>  (1) 
5.2

>  <PUBCHEM_PHARMACOPHORE_FEATURES>  (1) 
6
1 2 acceptor
1 3 acceptor
1 3 donor
1 4 cation
6 15 16 17 18 19 20 rings
8 4 5 6 7 8 9 10 11 rings

>  <PUBCHEM_HEAVY_ATOM_COUNT>  (1) 
20

>  <PUBCHEM_ATOM_DEF_STEREO_COUNT>  (1) 
0

>  <PUBCHEM_ATOM_UDEF_STEREO_COUNT>  (1) 
3

>  <PUBCHEM_BOND_DEF_STEREO_COUNT>  (1) 
0

>  <PUBCHEM_BOND_UDEF_STEREO_COUNT>  (1) 
0

>  <PUBCHEM_ISOTOPIC_ATOM_COUNT>  (1) 
0

>  <PUBCHEM_COMPONENT_COUNT>  (1) 
1

>  <PUBCHEM_CACTVS_TAUTO_COUNT>  (1) 
1

>  <PUBCHEM_CONFORMER_ID>  (1) 
00000E2700000001

>  <PUBCHEM_MMFF94_ENERGY>  (1) 
46.779

>  <PUBCHEM_FEATURE_SELFOVERLAP>  (1) 
30.453

>  <PUBCHEM_SHAPE_FINGERPRINT>  (1) 
10062212 137 17774999103189351087
10498660 4 14129054816087414919
10616163 171 18127128795305106255
11137873 295 18408323276560152587
11578080 2 17916848150187170560
116883 192 18337103454469510900
12173636 292 16009016264532457095
12363563 72 18338517426717768730
12553582 1 18339646637902082218
12596599 1 18130795559331012402
12633257 1 18272655619077690871
12707595 3 18410855434780351232
128620 24 13912327888644864603
13224815 77 17822006544679800699
13296908 3 18335415798509480193
13533116 47 18058725944270089831
13583140 156 17487888119900392385
13631057 29 17482546790769448071
15239191 94 18413672413271727890
15537594 2 18336559252095737846
16752209 62 18193265304626535289
17349148 13 17418375796654396837
17492 89 18269836578654573511
17818456 19 17987529121533977657
1798214 55 8574417738917775770
1813 80 18200606791305163628
18186145 218 18114177544951877321
19862831 5 17530966843462751098
20281475 54 18342737442143788809
20291156 8 18413110545860938306
20645477 70 18411979186892426548
20681651 13 17702387445369305883
21069387 34 17703213105655789413
21250096 35 18341331106716096290
21731516 1 18339928117305395096
21756936 100 13755494710613151050
2215653 11 18334008368371393223
2255824 54 18339646749787496620
22646028 28 18059856160001756478
235170 7 16081091471778130926
23559900 14 18131347523005659744
314173 41 18410579478683687190
3323516 105 18040719173031578219
339767 52 18271236149735127830
463206 1 18189330187024211226
4921388 177 16226060997752800043
5161694 15 17968087603880175023
5281201 14 17676210177560540037
633830 44 17530960302470457481
90316 7 15626227901076360969
960060 61 18260551121220926542
9709674 26 18262236754171986067

>  <PUBCHEM_SHAPE_MULTIPOLES>  (1) 
389
9.16
2.46
1.32
0.59
0.06
-0.03
-3.44
0.91
-1.62
0.26
0.11
-0.24
-0.05

>  <PUBCHEM_SHAPE_SELFOVERLAP>  (1) 
830.33

>  <PUBCHEM_SHAPE_VOLUME>  (1) 
216.2

>  <PUBCHEM_COORDINATE_TYPE>  (1) 
2
5
10

$$$$
