3624
     RDKit          3D

 24 27  0  0  0  0  0  0  0  0999 V2000
   -0.4220   -1.0596   -0.1067 N   0  0  0  0  0  0  0  0  0  0  0  0
   -5.0973   -2.1285   -0.1568 N   0  0  0  0  0  0  0  0  0  0  0  0
    2.5317    4.2200    0.1299 N   0  0  0  0  0  0  0  0  0  0  0  0
    0.6278   -0.2357   -0.0691 C   0  0  0  0  0  0  0  0  0  0  0  0
   -1.6971   -0.6365   -0.0890 C   0  0  0  0  0  0  0  0  0  0  0  0
    0.4516    1.1408   -0.0081 C   0  0  0  0  0  0  0  0  0  0  0  0
   -1.9682    0.7511   -0.0275 C   0  0  0  0  0  0  0  0  0  0  0  0
   -0.8620    1.6632    0.0141 C   0  0  0  0  0  0  0  0  0  0  0  0
   -0.1520   -2.5146   -0.1702 C   0  0  0  0  0  0  0  0  0  0  0  0
    1.9265   -0.8839   -0.0979 C   0  0  0  0  0  0  0  0  0  0  0  0
   -2.7311   -1.5840   -0.1320 C   0  0  0  0  0  0  0  0  0  0  0  0
    1.5673    1.9932    0.0308 C   0  0  0  0  0  0  0  0  0  0  0  0
   -3.3333    1.1280   -0.0119 C   0  0  0  0  0  0  0  0  0  0  0  0
   -0.9887    3.0726    0.0768 C   0  0  0  0  0  0  0  0  0  0  0  0
   -4.0598   -1.1747   -0.1149 C   0  0  0  0  0  0  0  0  0  0  0  0
    1.4049    3.3739    0.0921 C   0  0  0  0  0  0  0  0  0  0  0  0
   -0.0610   -3.0728    1.2359 C   0  0  0  0  0  0  0  0  0  0  0  0
   -4.3611    0.1801   -0.0550 C   0  0  0  0  0  0  0  0  0  0  0  0
    0.1268    3.9138    0.1153 C   0  0  0  0  0  0  0  0  0  0  0  0
    2.5462   -1.2467    1.0950 C   0  0  0  0  0  0  0  0  0  0  0  0
    2.5458   -1.1397   -1.3185 C   0  0  0  0  0  0  0  0  0  0  0  0
    3.7939   -1.8696    1.0673 C   0  0  0  0  0  0  0  0  0  0  0  0
    3.7934   -1.7627   -1.3463 C   0  0  0  0  0  0  0  0  0  0  0  0
    4.4176   -2.1277   -0.1533 C   0  0  0  0  0  0  0  0  0  0  0  0
  1  4  2  0
  1  5  1  0
  1  9  1  0
  2 15  1  0
  3 16  1  0
  4  6  1  0
  4 10  1  0
  5  7  2  0
  5 11  1  0
  6  8  2  0
  6 12  1  0
  7  8  1  0
  7 13  1  0
  8 14  1  0
  9 17  1  0
 10 20  2  0
 10 21  1  0
 11 15  2  0
 12 16  2  0
 13 18  2  0
 14 19  2  0
 15 18  1  0
 16 19  1  0
 20 22  1  0
 21 23  2  0
 22 24  2  0
 23 24  1  0
M  CHG  1   1   1
M  END
>  <PUBCHEM_COMPOUND_CID>  (1) 
3624

>  <PUBCHEM_CONFORMER_RMSD>  (1) 
0.6

>  <PUBCHEM_CONFORMER_DIVERSEORDER>  (1) 
1

>  <PUBCHEM_MMFF94_PARTIAL_CHARGES>  (1) 
34
1 -0.21
11 -0.15
12 -0.15
13 -0.15
14 -0.15
15 0.1
16 0.1
18 -0.15
19 -0.15
2 -0.9
20 -0.15
21 -0.15
22 -0.15
23 -0.15
24 -0.15
27 0.15
28 0.15
29 0.15
3 -0.9
30 0.15
34 0.15
35 0.15
36 0.15
37 0.15
38 0.15
39 0.15
4 0.36
40 0.4
41 0.4
42 0.4
43 0.4
44 0.15
5 0.36
9 0.49

>  <PUBCHEM_EFFECTIVE_ROTOR_COUNT>  (1) 
2

>  <PUBCHEM_PHARMACOPHORE_FEATURES>  (1) 
8
1 2 cation
1 2 donor
1 3 cation
1 3 donor
6 1 4 5 6 7 8 rings
6 10 20 21 22 23 24 rings
6 5 7 11 13 15 18 rings
6 6 8 12 14 16 19 rings

>  <PUBCHEM_HEAVY_ATOM_COUNT>  (1) 
24

>  <PUBCHEM_ATOM_DEF_STEREO_COUNT>  (1) 
0

>  <PUBCHEM_ATOM_UDEF_STEREO_COUNT>  (1) 
0

>  <PUBCHEM_BOND_DEF_STEREO_COUNT>  (1) 
0

>  <PUBCHEM_BOND_UDEF_STEREO_COUNT>  (1) 
0

>  <PUBCHEM_ISOTOPIC_ATOM_COUNT>  (1) 
0

>  <PUBCHEM_COMPONENT_COUNT>  (1) 
1

>  <PUBCHEM_CACTVS_TAUTO_COUNT>  (1) 
4

>  <PUBCHEM_CONFORMER_ID>  (1) 
00000E2800000001

>  <PUBCHEM_MMFF94_ENERGY>  (1) 
125.1013

>  <PUBCHEM_FEATURE_SELFOVERLAP>  (1) 
40.651

>  <PUBCHEM_SHAPE_FINGERPRINT>  (1) 
10006869 2 17474389076665653369
10050765 1 18339079423916333591
10319926 262 17836058106833245322
10369192 42 17202176669833634336
10411042 1 18411136913683329223
10498660 4 18050004394373015764
10967382 1 18194681703326197409
1100329 8 18339084774760282553
11578080 2 17459728407257954572
11680986 33 18119255201386863259
12173636 292 17186157566130976532
12236239 1 17677339277941113646
12403259 226 18334570265968201599
12553582 1 18265897956394221569
12788726 201 18191882132326962282
13009979 54 17681543741507015466
13140716 1 18411139121728867425
138480 1 18411136956585360468
14081887 123 17980469071224008322
14178342 30 17759514474824580034
14787075 74 18186521008124261154
14790565 3 17260475768802829672
14955137 171 18122372132326088403
15042514 8 17978509737224239618
15927050 60 17979358886518683679
16087824 20 17978513032245949197
16752209 62 18191592934766931918
16945 1 18194682562298336765
17357779 13 18056742265694054965
17492 89 18268992162799581887
1813 80 18272094872278942606
19591789 44 18410012135042064471
20028762 73 16541309982308991895
20510252 161 18053662478264599264
20600515 1 18198899219508707896
20905425 154 18196943389959153324
21133665 82 17906456877344001100
221490 88 18336834207543922459
2334 1 18338516455918048661
23366157 5 18188209930429536196
23402539 116 18341044099938124814
23419403 2 17773006740442852680
23557571 272 17841996590044397860
23559900 14 18412821399814076683
2748010 2 18410565215187208261
3091708 16 9211793634048750872
335352 9 18339361856275353117
352729 6 16896795762623377265
4409770 3 17756979017774144517
469060 322 18195539090393549288
5104073 3 18339088198334222467
59755656 215 18120654896863636189
6138700 20 18267311009816144124
6442390 28 17047406899545226744
7364860 26 18269276939909401604
81228 2 18055085263111047920
8863177 126 17969522566162214635
9709674 26 18265334096082216011
9981440 41 17619056678459282033

>  <PUBCHEM_SHAPE_MULTIPOLES>  (1) 
478.97
7.38
4.83
0.93
1.88
5.57
0.01
-6.17
0.7
-1.04
-0.61
-0.84
-0.51
-0.01

>  <PUBCHEM_SHAPE_SELFOVERLAP>  (1) 
1081.149

>  <PUBCHEM_SHAPE_VOLUME>  (1) 
250.9

>  <PUBCHEM_COORDINATE_TYPE>  (1) 
2
5
10

$$$$
