36248
     RDKit          3D

 10 10  0  0  0  0  0  0  0  0999 V2000
    1.0873    1.8683   -0.0540 S   0  0  0  0  0  0  0  0  0  0  0  0
   -3.3967    0.0408   -1.0373 O   0  0  0  0  0  0  0  0  0  0  0  0
    0.7986   -0.6878    0.2014 N   0  0  0  0  0  0  0  0  0  0  0  0
   -1.1641    0.5849    0.5449 N   0  0  0  0  0  0  0  0  0  0  0  0
   -2.0209   -0.4628    0.7814 N   0  0  0  0  0  0  0  0  0  0  0  0
    2.1220   -0.4458   -0.1123 C   0  0  0  0  0  0  0  0  0  0  0  0
    0.1591    0.4592    0.2586 C   0  0  0  0  0  0  0  0  0  0  0  0
    2.4674    0.8777   -0.2884 C   0  0  0  0  0  0  0  0  0  0  0  0
    3.0366   -1.5987   -0.2305 C   0  0  0  0  0  0  0  0  0  0  0  0
   -3.0893   -0.6357   -0.0637 C   0  0  0  0  0  0  0  0  0  0  0  0
  1  7  1  0
  1  8  1  0
  2 10  2  0
  3  6  1  0
  3  7  2  0
  4  5  1  0
  4  7  1  0
  5 10  1  0
  6  8  2  0
  6  9  1  0
M  END
>  <PUBCHEM_COMPOUND_CID>  (1) 
36248

>  <PUBCHEM_CONFORMER_RMSD>  (1) 
0.6

>  <PUBCHEM_CONFORMER_DIVERSEORDER>  (1) 
2
12
8
7
11
1
10
3
6
4
5
9

>  <PUBCHEM_MMFF94_PARTIAL_CHARGES>  (1) 
14
1 -0.08
10 0.57
11 0.15
15 0.4
16 0.37
17 0.06
2 -0.57
3 -0.57
4 -0.5
5 -0.41
6 0.05
7 0.46
8 -0.11
9 0.18

>  <PUBCHEM_EFFECTIVE_ROTOR_COUNT>  (1) 
3

>  <PUBCHEM_PHARMACOPHORE_FEATURES>  (1) 
5
1 2 acceptor
1 4 donor
1 5 donor
3 3 4 7 cation
5 1 3 6 7 8 rings

>  <PUBCHEM_HEAVY_ATOM_COUNT>  (1) 
10

>  <PUBCHEM_ATOM_DEF_STEREO_COUNT>  (1) 
0

>  <PUBCHEM_ATOM_UDEF_STEREO_COUNT>  (1) 
0

>  <PUBCHEM_BOND_DEF_STEREO_COUNT>  (1) 
0

>  <PUBCHEM_BOND_UDEF_STEREO_COUNT>  (1) 
0

>  <PUBCHEM_ISOTOPIC_ATOM_COUNT>  (1) 
0

>  <PUBCHEM_COMPONENT_COUNT>  (1) 
1

>  <PUBCHEM_CACTVS_TAUTO_COUNT>  (1) 
4

>  <PUBCHEM_CONFORMER_ID>  (1) 
00008D9800000002

>  <PUBCHEM_MMFF94_ENERGY>  (1) 
9.2294

>  <PUBCHEM_FEATURE_SELFOVERLAP>  (1) 
26.907

>  <PUBCHEM_SHAPE_FINGERPRINT>  (1) 
12897270 3 18335140929303201545
12932741 1 17749398108338233747
12932764 1 17561370612177424617
14128692 85 18270691882852066184
15477762 27 18411981403037561471
20201158 50 18334857220727290706
20645477 70 18411980265251387063
20671657 53 18337957787925611350
21501925 9 18411693258519952730
2748010 2 17689451794105609336
3248919 1 18409451409681275201

>  <PUBCHEM_SHAPE_MULTIPOLES>  (1) 
188.83
5.31
1.58
0.78
3.67
0.3
0.06
-1.88
1.11
-1.35
0.06
0.36
0.01
0.05

>  <PUBCHEM_SHAPE_SELFOVERLAP>  (1) 
367.915

>  <PUBCHEM_SHAPE_VOLUME>  (1) 
115.2

>  <PUBCHEM_COORDINATE_TYPE>  (1) 
2
5
10

$$$$
