36256
     RDKit          3D

 29 30  0  0  1  0  0  0  0  0999 V2000
    3.9443   -2.6438    1.4458 Cl  0  0  0  0  0  0  0  0  0  0  0  0
   -0.6348    2.1334   -1.7310 S   0  0  0  0  0  0  0  0  0  0  0  0
   -2.9540   -3.1970   -1.6013 O   0  0  0  0  0  0  0  0  0  0  0  0
   -3.8976    3.3438    0.9121 O   0  0  0  0  0  0  0  0  0  0  0  0
   -2.1897    3.7586   -0.4034 O   0  0  0  0  0  0  0  0  0  0  0  0
   -5.3568   -1.0700    1.7748 O   0  0  0  0  0  0  0  0  0  0  0  0
   -4.3494   -2.7996    0.8733 O   0  0  0  0  0  0  0  0  0  0  0  0
    4.5681    0.2319    0.5283 N   0  0  0  0  0  0  0  0  0  0  0  0
   -2.9723    2.9593    0.1603 N   0  0  0  0  0  0  0  0  0  0  0  0
   -4.4657   -1.5633    1.0441 N   0  0  0  0  0  0  0  0  0  0  0  0
   -1.5495   -3.3169    0.2076 N   0  0  0  0  0  0  0  0  0  0  0  0
    5.3112   -0.8401   -0.0926 C   0  0  0  0  0  0  0  0  0  0  0  0
    5.1076    0.8448    1.7427 C   0  0  0  0  0  0  0  0  0  0  0  0
    3.3492    0.6775   -0.0010 C   0  0  0  0  0  0  0  0  0  0  0  0
    4.4925   -2.1293   -0.1789 C   0  0  0  0  0  0  0  0  0  0  0  0
    2.3596    1.1943    0.8427 C   0  0  0  0  0  0  0  0  0  0  0  0
    3.1104    0.6102   -1.3782 C   0  0  0  0  0  0  0  0  0  0  0  0
    5.3588    2.3230    1.5145 C   0  0  0  0  0  0  0  0  0  0  0  0
    5.2428   -3.2733   -0.8511 C   0  0  0  0  0  0  0  0  0  0  0  0
    0.9152    1.5671   -1.0580 C   0  0  0  0  0  0  0  0  0  0  0  0
    1.1463    1.6377    0.3159 C   0  0  0  0  0  0  0  0  0  0  0  0
    1.8971    1.0534   -1.9050 C   0  0  0  0  0  0  0  0  0  0  0  0
   -1.7927    1.0651   -0.8879 C   0  0  0  0  0  0  0  0  0  0  0  0
   -2.8037    1.5623   -0.0613 C   0  0  0  0  0  0  0  0  0  0  0  0
   -1.6673   -0.3138   -1.0741 C   0  0  0  0  0  0  0  0  0  0  0  0
   -2.5472   -1.1899   -0.4382 C   0  0  0  0  0  0  0  0  0  0  0  0
   -3.5555   -0.6900    0.3860 C   0  0  0  0  0  0  0  0  0  0  0  0
   -3.6836    0.6862    0.5746 C   0  0  0  0  0  0  0  0  0  0  0  0
   -2.3833   -2.6218   -0.6607 C   0  0  0  0  0  0  0  0  0  0  0  0
  1 15  1  0
  2 20  1  0
  2 23  1  0
  3 29  2  0
  4  9  1  0
  5  9  2  0
  6 10  1  0
  7 10  2  0
  8 12  1  0
  8 13  1  0
  8 14  1  0
  9 24  1  0
 10 27  1  0
 11 29  1  0
 12 15  1  0
 13 18  1  0
 14 16  2  0
 14 17  1  0
 15 19  1  0
 16 21  1  0
 17 22  2  0
 20 21  2  0
 20 22  1  0
 23 24  2  0
 23 25  1  0
 24 28  1  0
 25 26  2  0
 26 27  1  0
 26 29  1  0
 27 28  2  0
M  CHG  4   4  -1   6  -1   9   1  10   1
M  END
>  <PUBCHEM_COMPOUND_CID>  (1) 
36256

>  <PUBCHEM_CONFORMER_RMSD>  (1) 
1

>  <PUBCHEM_CONFORMER_DIVERSEORDER>  (1) 
1
4
71
60
47
74
66
7
56
42
90
45
64
82
27
89
26
81
49
53
80
25
86
29
76
40
91
30
44
46
31
72
43
84
54
57
20
69
70
78
33
62
73
79
75
37
77
55
6
11
83
87
19
32
15
61
28
22
21
12
16
52
35
68
17
67
65
63
9
5
38
2
88
48
51
24
36
14
59
10
34
85
50
18
13
58
23
3
8
41
39

>  <PUBCHEM_MMFF94_PARTIAL_CHARGES>  (1) 
35
1 -0.29
10 0.91
11 -0.8
12 0.37
13 0.37
14 0.1
15 0.29
16 -0.15
17 -0.15
2 -0.2
20 0.1
21 -0.15
22 -0.15
23 0.1
24 0.13
25 -0.15
26 0.09
27 0.13
28 -0.15
29 0.54
3 -0.57
35 0.15
36 0.15
4 -0.52
43 0.15
44 0.15
45 0.15
46 0.15
47 0.37
48 0.37
5 -0.52
6 -0.52
7 -0.52
8 -0.84
9 0.91

>  <PUBCHEM_EFFECTIVE_ROTOR_COUNT>  (1) 
9

>  <PUBCHEM_PHARMACOPHORE_FEATURES>  (1) 
11
1 11 donor
1 3 acceptor
1 4 acceptor
1 4 anion
1 5 acceptor
1 6 acceptor
1 6 anion
1 7 acceptor
1 8 cation
6 14 16 17 20 21 22 rings
6 23 24 25 26 27 28 rings

>  <PUBCHEM_HEAVY_ATOM_COUNT>  (1) 
29

>  <PUBCHEM_ATOM_DEF_STEREO_COUNT>  (1) 
0

>  <PUBCHEM_ATOM_UDEF_STEREO_COUNT>  (1) 
1

>  <PUBCHEM_BOND_DEF_STEREO_COUNT>  (1) 
0

>  <PUBCHEM_BOND_UDEF_STEREO_COUNT>  (1) 
0

>  <PUBCHEM_ISOTOPIC_ATOM_COUNT>  (1) 
0

>  <PUBCHEM_COMPONENT_COUNT>  (1) 
1

>  <PUBCHEM_CACTVS_TAUTO_COUNT>  (1) 
2

>  <PUBCHEM_CONFORMER_ID>  (1) 
00008DA000000001

>  <PUBCHEM_MMFF94_ENERGY>  (1) 
117.4393

>  <PUBCHEM_FEATURE_SELFOVERLAP>  (1) 
55.987

>  <PUBCHEM_SHAPE_FINGERPRINT>  (1) 
10928967 22 18260825956611642930
11370993 144 18200024045900612148
11552529 35 18342446071779004964
11796584 16 18192716631740232006
12422481 6 18340502083818659091
12553582 1 18193001632368251805
12633257 1 17703518795425895521
12788726 201 18193015891865870117
12892183 10 18341609339267136484
12925494 130 18194403282350530105
13551218 46 18410018749360791747
13583140 156 17916851513483802360
14420673 8 18049730620267905366
14950920 106 17917715677893287824
15475509 35 16815761210696853651
1813 80 17240483602662034708
19377110 9 18116152349894123908
20775530 9 18334852801770828934
21315759 227 17532088470030790930
23559900 14 18058744490007699900
3472631 163 10303821951616201321
3737641 26 18409727357594563186
3886686 26 17975985263070305379
463206 1 18045218499130222018
5104073 3 18339355271889976552
56633871 153 18339368564708762199
6371380 46 17908135474288465684
7970288 3 18117003384567824107

>  <PUBCHEM_SHAPE_MULTIPOLES>  (1) 
553.26
12.69
4.5
1.66
7.28
1.44
0.08
4.79
-5.36
-1.95
0.01
0.5
-0.16
1.03

>  <PUBCHEM_SHAPE_SELFOVERLAP>  (1) 
1148.856

>  <PUBCHEM_SHAPE_VOLUME>  (1) 
318.3

>  <PUBCHEM_COORDINATE_TYPE>  (1) 
2
5
10

$$$$
