36251
     RDKit          3D

 12 12  0  0  0  0  0  0  0  0999 V2000
    4.1540   -1.7221    0.2073 Br  0  0  0  0  0  0  0  0  0  0  0  0
   -4.2841    0.7258    0.3742 O   0  0  0  0  0  0  0  0  0  0  0  0
   -3.6824   -1.3749   -0.2804 O   0  0  0  0  0  0  0  0  0  0  0  0
    0.3832    0.0114   -0.1066 C   0  0  0  0  0  0  0  0  0  0  0  0
    1.4225   -0.9125    0.0022 C   0  0  0  0  0  0  0  0  0  0  0  0
    0.6658    1.3765   -0.1551 C   0  0  0  0  0  0  0  0  0  0  0  0
   -0.9956   -0.4482   -0.1695 C   0  0  0  0  0  0  0  0  0  0  0  0
    2.7443   -0.4714    0.0624 C   0  0  0  0  0  0  0  0  0  0  0  0
    1.9876    1.8177   -0.0947 C   0  0  0  0  0  0  0  0  0  0  0  0
    3.0269    0.8937    0.0139 C   0  0  0  0  0  0  0  0  0  0  0  0
   -2.0307    0.3373    0.1118 C   0  0  0  0  0  0  0  0  0  0  0  0
   -3.3916   -0.2334    0.0345 C   0  0  0  0  0  0  0  0  0  0  0  0
  1  8  1  0
  2 12  1  0
  3 12  2  0
  4  5  2  0
  4  6  1  0
  4  7  1  0
  5  8  1  0
  6  9  2  0
  7 11  2  0
  8 10  2  0
  9 10  1  0
 11 12  1  0
M  END
>  <PUBCHEM_COMPOUND_CID>  (1) 
36251

>  <PUBCHEM_CONFORMER_RMSD>  (1) 
0.6

>  <PUBCHEM_CONFORMER_DIVERSEORDER>  (1) 
1
3
2

>  <PUBCHEM_MMFF94_PARTIAL_CHARGES>  (1) 
19
1 -0.11
10 -0.15
11 -0.14
12 0.71
13 0.15
14 0.15
15 0.15
16 0.15
17 0.15
18 0.15
19 0.5
2 -0.65
3 -0.57
4 0.03
5 -0.15
6 -0.15
7 -0.18
8 0.11
9 -0.15

>  <PUBCHEM_EFFECTIVE_ROTOR_COUNT>  (1) 
2

>  <PUBCHEM_PHARMACOPHORE_FEATURES>  (1) 
5
1 1 hydrophobe
1 2 acceptor
1 3 acceptor
3 2 3 12 anion
6 4 5 6 8 9 10 rings

>  <PUBCHEM_HEAVY_ATOM_COUNT>  (1) 
12

>  <PUBCHEM_ATOM_DEF_STEREO_COUNT>  (1) 
0

>  <PUBCHEM_ATOM_UDEF_STEREO_COUNT>  (1) 
0

>  <PUBCHEM_BOND_DEF_STEREO_COUNT>  (1) 
0

>  <PUBCHEM_BOND_UDEF_STEREO_COUNT>  (1) 
1

>  <PUBCHEM_ISOTOPIC_ATOM_COUNT>  (1) 
0

>  <PUBCHEM_COMPONENT_COUNT>  (1) 
1

>  <PUBCHEM_CACTVS_TAUTO_COUNT>  (1) 
1

>  <PUBCHEM_CONFORMER_ID>  (1) 
00008D9B00000001

>  <PUBCHEM_MMFF94_ENERGY>  (1) 
29.3439

>  <PUBCHEM_FEATURE_SELFOVERLAP>  (1) 
25.427

>  <PUBCHEM_SHAPE_FINGERPRINT>  (1) 
10130415 120 18410572864470955240
10219947 1 18341896285768152174
11471102 20 18408881841156915796
12032990 46 18337673014667315822
12346645 6 18342176691683043684
12932764 1 17385994075161930355
14144814 61 18413109485014520273
14251717 144 18409162233796813854
14252887 29 18200877271450861626
14325111 11 18411701032173335901
15375462 478 17988922236840731736
15442244 35 18411702041205976344
15477762 27 18336827588677345134
15501101 241 18260546740486374196
18186145 218 17822005415356505475
19422 9 18341614845219823119
200 152 18201991145348516263
20645477 70 18408881832604248791
20671657 1 18264776630517123892
20871998 22 18126851499938132110
21501925 9 18411410701148134370
221490 88 18262525925709264874
22485316 2 18409164402797307914
2255824 54 18261114101650692110
22959321 4 18410856607180134259
23402655 69 18411417323798041213
23463225 33 18412263934708030782
5104073 3 18413109480798785571
581208 293 18335416923928003284
7364860 26 18342174514293113880
8809292 202 18186526505170944091

>  <PUBCHEM_SHAPE_MULTIPOLES>  (1) 
241.16
7.78
1.71
0.64
4.77
0.22
-0.01
-2.83
-0.6
-1.36
0.03
-0.05
-0.02
-0.3

>  <PUBCHEM_SHAPE_SELFOVERLAP>  (1) 
487.986

>  <PUBCHEM_SHAPE_VOLUME>  (1) 
143.6

>  <PUBCHEM_COORDINATE_TYPE>  (1) 
2
5
10

$$$$
