36263
     RDKit          3D

 22 24  0  0  0  0  0  0  0  0999 V2000
    4.4951    0.5541   -2.1523 F   0  0  0  0  0  0  0  0  0  0  0  0
   -2.5618   -2.5122    0.6643 O   0  0  0  0  0  0  0  0  0  0  0  0
   -4.3984   -0.9078   -0.6633 O   0  0  0  0  0  0  0  0  0  0  0  0
   -0.1621    3.3799    0.0618 N   0  0  0  0  0  0  0  0  0  0  0  0
   -0.7442    0.6748    0.5818 C   0  0  0  0  0  0  0  0  0  0  0  0
    0.4725    1.2365    0.9858 C   0  0  0  0  0  0  0  0  0  0  0  0
    1.5259    0.4604    1.7043 C   0  0  0  0  0  0  0  0  0  0  0  0
   -1.6798    1.4859   -0.0930 C   0  0  0  0  0  0  0  0  0  0  0  0
   -1.0591   -0.6716    0.8283 C   0  0  0  0  0  0  0  0  0  0  0  0
    2.5247   -0.2136    0.7862 C   0  0  0  0  0  0  0  0  0  0  0  0
   -2.9064    0.9408   -0.5074 C   0  0  0  0  0  0  0  0  0  0  0  0
   -2.2813   -1.2027    0.4121 C   0  0  0  0  0  0  0  0  0  0  0  0
    0.7090    2.5735    0.7049 C   0  0  0  0  0  0  0  0  0  0  0  0
   -3.2027   -0.3983   -0.2544 C   0  0  0  0  0  0  0  0  0  0  0  0
   -1.3315    2.8187   -0.3203 C   0  0  0  0  0  0  0  0  0  0  0  0
    3.0530    0.4997   -0.2746 C   0  0  0  0  0  0  0  0  0  0  0  0
    2.8843   -1.5269    1.0298 C   0  0  0  0  0  0  0  0  0  0  0  0
    3.9721   -0.1211   -1.1204 C   0  0  0  0  0  0  0  0  0  0  0  0
    3.8035   -2.1477    0.1841 C   0  0  0  0  0  0  0  0  0  0  0  0
    4.3474   -1.4448   -0.8910 C   0  0  0  0  0  0  0  0  0  0  0  0
   -2.1750   -3.4603   -0.3281 C   0  0  0  0  0  0  0  0  0  0  0  0
   -5.2850   -0.0178   -1.3386 C   0  0  0  0  0  0  0  0  0  0  0  0
  1 18  1  0
  2 12  1  0
  2 21  1  0
  3 14  1  0
  3 22  1  0
  4 13  2  0
  4 15  1  0
  5  6  2  0
  5  8  1  0
  5  9  1  0
  6  7  1  0
  6 13  1  0
  7 10  1  0
  8 11  1  0
  8 15  2  0
  9 12  2  0
 10 16  2  0
 10 17  1  0
 11 14  2  0
 12 14  1  0
 16 18  1  0
 17 19  2  0
 18 20  2  0
 19 20  1  0
M  END
>  <PUBCHEM_COMPOUND_CID>  (1) 
36263

>  <PUBCHEM_CONFORMER_RMSD>  (1) 
0.6

>  <PUBCHEM_CONFORMER_DIVERSEORDER>  (1) 
14
48
11
33
47
18
36
19
46
50
10
37
53
49
54
16
38
34
9
35
30
20
17
15
29
13
12
28
51
27
52
44
23
22
42
24
45
21
40
43
26
5
6
25
41
1
39
2
31
32
8
7
4
3

>  <PUBCHEM_MMFF94_PARTIAL_CHARGES>  (1) 
28
1 -0.19
10 -0.14
11 -0.15
12 0.08
13 0.16
14 0.08
15 0.16
16 -0.15
17 -0.15
18 0.19
19 -0.15
2 -0.36
20 -0.15
21 0.28
22 0.28
25 0.15
26 0.15
27 0.15
28 0.15
29 0.15
3 -0.36
30 0.15
31 0.15
32 0.15
4 -0.62
6 -0.14
7 0.29
9 -0.15

>  <PUBCHEM_EFFECTIVE_ROTOR_COUNT>  (1) 
4

>  <PUBCHEM_PHARMACOPHORE_FEATURES>  (1) 
6
1 2 acceptor
1 3 acceptor
1 4 acceptor
6 10 16 17 18 19 20 rings
6 4 5 6 8 13 15 rings
6 5 8 9 11 12 14 rings

>  <PUBCHEM_HEAVY_ATOM_COUNT>  (1) 
22

>  <PUBCHEM_ATOM_DEF_STEREO_COUNT>  (1) 
0

>  <PUBCHEM_ATOM_UDEF_STEREO_COUNT>  (1) 
0

>  <PUBCHEM_BOND_DEF_STEREO_COUNT>  (1) 
0

>  <PUBCHEM_BOND_UDEF_STEREO_COUNT>  (1) 
0

>  <PUBCHEM_ISOTOPIC_ATOM_COUNT>  (1) 
0

>  <PUBCHEM_COMPONENT_COUNT>  (1) 
1

>  <PUBCHEM_CACTVS_TAUTO_COUNT>  (1) 
1

>  <PUBCHEM_CONFORMER_ID>  (1) 
00008DA70000000E

>  <PUBCHEM_MMFF94_ENERGY>  (1) 
85.7879

>  <PUBCHEM_FEATURE_SELFOVERLAP>  (1) 
30.478

>  <PUBCHEM_SHAPE_FINGERPRINT>  (1) 
10498660 4 18335706082701680150
10693767 8 17984953013477876639
12054548 360 18338802320298484410
12251169 10 11024103240095983608
12363563 72 17560797689383638824
12553582 1 18410860970613576451
12596602 18 13470398981117444854
12788726 201 18338517426253571129
12892183 10 12247684842287481558
13583140 156 13973676179187962251
14022347 108 18188755211335739241
14251757 5 18335424547605762693
14790565 3 18051134683864029441
14866123 147 18055072060877543377
15475509 8 18271813368007685061
16752209 62 18263913350595809249
19319366 153 17749381555593103403
19591789 44 18266449902905441161
20871999 31 18409450245660981997
21069387 34 17346032385427821703
21307412 95 18272937120119916887
22182313 1 18119522391502508921
23557571 272 18270668797672226928
23559900 14 18338790217181215552
26353 1 17967808400888962717
2748010 2 18047175630185768329
2838139 119 16226903314450076140
3004659 81 18115018611434166962
3027735 51 17985827030236460623
314173 41 18339081608862515387
4280585 95 18337946887715384456
4463277 69 17703498982689226093
7808743 9 8790012195269525850
960060 61 18410569600021568807
9709674 26 18196358441689780171

>  <PUBCHEM_SHAPE_MULTIPOLES>  (1) 
428.76
8.8
3.34
1.33
0.75
0.06
-0.23
-4.5
-4.69
-1.4
0.16
1.02
0.06
0.04

>  <PUBCHEM_SHAPE_SELFOVERLAP>  (1) 
941.701

>  <PUBCHEM_SHAPE_VOLUME>  (1) 
234.8

>  <PUBCHEM_COORDINATE_TYPE>  (1) 
2
5
10

$$$$
