3626
     RDKit          3D

 13 12  0  0  1  0  0  0  0  0999 V2000
    3.7229    0.9215    1.1019 O   0  0  0  0  0  0  0  0  0  0  0  0
    3.2092   -1.2784    1.3450 O   0  0  0  0  0  0  0  0  0  0  0  0
    2.4408   -1.4923   -1.2640 N   0  0  0  0  0  0  0  0  0  0  0  0
   -2.5205   -0.0523   -0.3259 N   0  0  0  0  0  0  0  0  0  0  0  0
   -4.2139   -1.6320   -0.2289 N   0  0  0  0  0  0  0  0  0  0  0  0
   -4.4637    0.2332    1.0572 N   0  0  0  0  0  0  0  0  0  0  0  0
    0.3972    0.5164   -0.2654 C   0  0  0  0  0  0  0  0  0  0  0  0
    1.7021    0.8588   -0.9985 C   0  0  0  0  0  0  0  0  0  0  0  0
   -0.6908    1.5536   -0.5656 C   0  0  0  0  0  0  0  0  0  0  0  0
    2.8319   -0.1623   -0.7995 C   0  0  0  0  0  0  0  0  0  0  0  0
   -2.0069    1.2379    0.1365 C   0  0  0  0  0  0  0  0  0  0  0  0
    3.2548   -0.2722    0.6518 C   0  0  0  0  0  0  0  0  0  0  0  0
   -3.6631   -0.4320    0.1554 C   0  0  0  0  0  0  0  0  0  0  0  0
  1 12  1  0
  2 12  2  0
  3 10  1  0
  4 11  1  0
  4 13  2  3
  5 13  1  0
  6 13  1  0
  7  8  1  0
  7  9  1  0
  8 10  1  0
  9 11  1  0
 10 12  1  0
M  END
>  <PUBCHEM_COMPOUND_CID>  (1) 
3626

>  <PUBCHEM_CONFORMER_RMSD>  (1) 
0.6

>  <PUBCHEM_CONFORMER_DIVERSEORDER>  (1) 
4
305
67
311
83
280
55
307
107
269
181
357
123
321
33
281
322
14
325
43
330
13
246
70
231
309
324
12
65
183
292
38
276
72
312
94
134
273
45
335
259
282
240
349
353
351
132
126
69
363
194
268
286
28
29
205
23
346
71
40
82
256
295
150
110
362
30
232
141
334
190
159
5
237
104
272
358
68
329
294
164
90
258
137
35
260
184
300
75
336
165
264
136
76
8
234
16
174
365
15
128
277
189
36
217
60
210
20
263
209
120
129
310
221
112
250
262
243
100
285
49
206
140
352
41
172
252
57
225
61
229
245
111
278
22
337
97
306
327
142
170
103
317
361
275
290
3
287
207
359
270
195
85
7
343
151
169
31
261
301
93
53
92
298
125
342
291
233
138
239
133
360
86
79
354
10
257
66
333
279
122
216
88
208
188
271
42
179
253
249
106
147
235
299
266
118
2
182
115
320
176
113
193
318
340
328
148
213
344
223
102
364
96
87
98
173
236
303
302
185
265
187
212
131
62
175
293
251
156
198
37
247
204
18
197
9
218
314
84
178
143
238
338
81
244
56
168
214
219
211
316
288
80
171
242
289
199
332
19
226
160
146
130
109
304
215
108
116
192
114
367
34
222
224
1
356
63
366
255
152
50
355
313
308
11
6
105
121
196
341
95
230
347
274
228
119
339
59
91
220
149
203
25
46
21
54
241
99
145
284
180
202
163
283
267
191
27
51
117
24
345
144
73
127
32
227
158
47
162
44
323
297
348
315
350
52
153
135
254
58
26
77
186
17
139
154
331
326
78
101
64
200
48
157
161
39
155
177
167
74
201
296
89
248
319
124
166

>  <PUBCHEM_MMFF94_PARTIAL_CHARGES>  (1) 
17
1 -0.65
10 0.33
11 0.25
12 0.66
13 0.55
2 -0.57
23 0.36
24 0.36
25 0.5
26 0.4
27 0.4
28 0.4
29 0.4
3 -0.99
4 -0.7
5 -0.85
6 -0.85

>  <PUBCHEM_EFFECTIVE_ROTOR_COUNT>  (1) 
6

>  <PUBCHEM_PHARMACOPHORE_FEATURES>  (1) 
8
1 1 acceptor
1 2 acceptor
1 3 cation
1 3 donor
1 5 donor
1 6 donor
3 1 2 12 anion
4 4 5 6 13 cation

>  <PUBCHEM_HEAVY_ATOM_COUNT>  (1) 
13

>  <PUBCHEM_ATOM_DEF_STEREO_COUNT>  (1) 
0

>  <PUBCHEM_ATOM_UDEF_STEREO_COUNT>  (1) 
1

>  <PUBCHEM_BOND_DEF_STEREO_COUNT>  (1) 
0

>  <PUBCHEM_BOND_UDEF_STEREO_COUNT>  (1) 
0

>  <PUBCHEM_ISOTOPIC_ATOM_COUNT>  (1) 
0

>  <PUBCHEM_COMPONENT_COUNT>  (1) 
1

>  <PUBCHEM_CACTVS_TAUTO_COUNT>  (1) 
2

>  <PUBCHEM_CONFORMER_ID>  (1) 
00000E2A00000004

>  <PUBCHEM_MMFF94_ENERGY>  (1) 
17.4342

>  <PUBCHEM_FEATURE_SELFOVERLAP>  (1) 
40.71

>  <PUBCHEM_SHAPE_FINGERPRINT>  (1) 
10149128 111 11527946763838005973
11543360 7 13335032645913297009
11987891 27 17821726143529128157
13705890 14 15574720217684124348
14123260 362 9799697025769643087
1420 369 18113336388370707419
14252887 29 18412833481757520914
15239191 94 18113903762382776507
17041 50 11458430115602622366
177051 138 18187080624834738536
18186145 218 12396300352804028349
19107657 162 18342740693476204199
20281407 28 18342465832965562965
20645477 70 15357702968012237352
20671657 53 15647049356687012564
20742870 56 12757143567971023168
212847 35 10159710074638442183
21501925 9 18261107495542812444
22485316 2 18333729130782746509
22646028 28 17822291249582544930
22959321 94 18408886248035973959
23380061 81 13183029509716865820
23402655 69 12179838403152793383
251288 83 18411976996775668560
4990 188 12035443943550357441
93112 12 12468647122510457392
9882013 296 17988637531927197792

>  <PUBCHEM_SHAPE_MULTIPOLES>  (1) 
235.87
8.84
1.51
1.16
5.58
0.12
0.07
3.2
2.28
0.2
-0.15
-0.96
0.17
-0.22

>  <PUBCHEM_SHAPE_SELFOVERLAP>  (1) 
445.567

>  <PUBCHEM_SHAPE_VOLUME>  (1) 
143.9

>  <PUBCHEM_COORDINATE_TYPE>  (1) 
2
5
10

$$$$
