36267
     RDKit          3D

 21 23  0  0  0  0  0  0  0  0999 V2000
   -2.4242    2.3111    0.6926 O   0  0  0  0  0  0  0  0  0  0  0  0
   -4.2182    0.7345   -0.7235 O   0  0  0  0  0  0  0  0  0  0  0  0
    0.1926   -3.4218   -0.3678 N   0  0  0  0  0  0  0  0  0  0  0  0
   -0.4853   -0.7861    0.3540 C   0  0  0  0  0  0  0  0  0  0  0  0
    0.7585   -1.3266    0.7003 C   0  0  0  0  0  0  0  0  0  0  0  0
    1.7919   -0.5633    1.4604 C   0  0  0  0  0  0  0  0  0  0  0  0
   -1.3997   -1.5835   -0.3650 C   0  0  0  0  0  0  0  0  0  0  0  0
   -0.8485    0.5251    0.7021 C   0  0  0  0  0  0  0  0  0  0  0  0
    2.7504    0.2139    0.5815 C   0  0  0  0  0  0  0  0  0  0  0  0
   -2.6535   -1.0598   -0.7213 C   0  0  0  0  0  0  0  0  0  0  0  0
   -2.0973    1.0353    0.3426 C   0  0  0  0  0  0  0  0  0  0  0  0
    1.0420   -2.6296    0.3203 C   0  0  0  0  0  0  0  0  0  0  0  0
   -2.9978    0.2446   -0.3674 C   0  0  0  0  0  0  0  0  0  0  0  0
   -1.0036   -2.8816   -0.6928 C   0  0  0  0  0  0  0  0  0  0  0  0
    2.4398    1.5158    0.2321 C   0  0  0  0  0  0  0  0  0  0  0  0
    3.9136   -0.3966    0.1484 C   0  0  0  0  0  0  0  0  0  0  0  0
    3.3221    2.2313   -0.5775 C   0  0  0  0  0  0  0  0  0  0  0  0
    4.7960    0.3188   -0.6610 C   0  0  0  0  0  0  0  0  0  0  0  0
    4.5002    1.6328   -1.0240 C   0  0  0  0  0  0  0  0  0  0  0  0
   -2.0910    3.3425   -0.2342 C   0  0  0  0  0  0  0  0  0  0  0  0
   -5.2879    0.5431    0.2001 C   0  0  0  0  0  0  0  0  0  0  0  0
  1 11  1  0
  1 20  1  0
  2 13  1  0
  2 21  1  0
  3 12  2  0
  3 14  1  0
  4  5  2  0
  4  7  1  0
  4  8  1  0
  5  6  1  0
  5 12  1  0
  6  9  1  0
  7 10  1  0
  7 14  2  0
  8 11  2  0
  9 15  2  0
  9 16  1  0
 10 13  2  0
 11 13  1  0
 15 17  1  0
 16 18  2  0
 17 19  2  0
 18 19  1  0
M  END
>  <PUBCHEM_COMPOUND_CID>  (1) 
36267

>  <PUBCHEM_CONFORMER_RMSD>  (1) 
0.6

>  <PUBCHEM_CONFORMER_DIVERSEORDER>  (1) 
1
23
6
24
7
11
18
8
12
13
5
17
16
15
14
19
10
9
21
22
4
20
3
2

>  <PUBCHEM_MMFF94_PARTIAL_CHARGES>  (1) 
28
1 -0.36
10 -0.15
11 0.08
12 0.16
13 0.08
14 0.16
15 -0.15
16 -0.15
17 -0.15
18 -0.15
19 -0.15
2 -0.36
20 0.28
21 0.28
24 0.15
25 0.15
26 0.15
27 0.15
28 0.15
29 0.15
3 -0.62
30 0.15
31 0.15
32 0.15
5 -0.14
6 0.29
8 -0.15
9 -0.14

>  <PUBCHEM_EFFECTIVE_ROTOR_COUNT>  (1) 
4

>  <PUBCHEM_PHARMACOPHORE_FEATURES>  (1) 
6
1 1 acceptor
1 2 acceptor
1 3 acceptor
6 3 4 5 7 12 14 rings
6 4 7 8 10 11 13 rings
6 9 15 16 17 18 19 rings

>  <PUBCHEM_HEAVY_ATOM_COUNT>  (1) 
21

>  <PUBCHEM_ATOM_DEF_STEREO_COUNT>  (1) 
0

>  <PUBCHEM_ATOM_UDEF_STEREO_COUNT>  (1) 
0

>  <PUBCHEM_BOND_DEF_STEREO_COUNT>  (1) 
0

>  <PUBCHEM_BOND_UDEF_STEREO_COUNT>  (1) 
0

>  <PUBCHEM_ISOTOPIC_ATOM_COUNT>  (1) 
0

>  <PUBCHEM_COMPONENT_COUNT>  (1) 
1

>  <PUBCHEM_CACTVS_TAUTO_COUNT>  (1) 
1

>  <PUBCHEM_CONFORMER_ID>  (1) 
00008DAB00000001

>  <PUBCHEM_MMFF94_ENERGY>  (1) 
85.8371

>  <PUBCHEM_FEATURE_SELFOVERLAP>  (1) 
30.478

>  <PUBCHEM_SHAPE_FINGERPRINT>  (1) 
10090160 65 18334566928852718711
10498660 4 18337946887098270893
10681291 71 18410298025065826827
11640471 11 17750790133377929702
11796584 16 13614518554591949197
12173636 292 18340477945780370868
12592029 89 18410295770171346379
13140716 1 18268131231971852619
13583140 156 17170094955711831363
14251751 93 18340205198383154916
14251757 17 17772492109213928812
14787075 74 18187643652651803835
14790565 3 18341620317388629257
15342168 16 17168151203652478868
15475509 35 11742683657334721629
15575132 122 18187367610344908517
16752209 62 18343291561565484377
17134986 127 18409163303512566006
19591789 44 18196087970477362667
20739085 24 15466094683904516953
20775438 99 17052418924431436647
20871999 31 18198621240387358870
21141583 151 18202003269751692176
21250096 35 9799691493350625188
21524375 3 18334293145814094018
21857420 4 15401832094462207166
22620623 9 17416117511113651511
23227448 37 18336547234544641743
23366157 5 17974852770193607939
23557571 272 17841982588398265666
23558518 356 18048876291480233969
23559900 14 17981027632085116219
26353 1 16978403160303568582
2637199 183 18335709325512453170
2748010 2 17766814480170967507
298252 57 18409450284800958954
3060560 45 18409164377354558382
350125 39 18268989778522455243
44154327 71 18410288103828425681
458136 41 18271814458607657483
474 4 18259984846910122338
7832392 63 18263078984874827044
81228 2 17836920470875972994

>  <PUBCHEM_SHAPE_MULTIPOLES>  (1) 
415.45
8.6
3.46
0.99
1.31
0.59
-0.08
-5.23
1.91
-0.86
0.53
0.33
0.04
-0.97

>  <PUBCHEM_SHAPE_SELFOVERLAP>  (1) 
909.33

>  <PUBCHEM_SHAPE_VOLUME>  (1) 
225.7

>  <PUBCHEM_COORDINATE_TYPE>  (1) 
2
5
10

$$$$
