36273
     RDKit          3D

 22 24  0  0  1  0  0  0  0  0999 V2000
   -1.2844   -1.8041   -0.5312 S   0  0  0  0  0  0  0  0  0  0  0  0
   -1.0455    2.4053    0.7480 O   0  0  0  0  0  0  0  0  0  0  0  0
   -5.0332    0.7555    1.3572 O   0  0  0  0  0  0  0  0  0  0  0  0
   -4.7268    1.2058   -0.8562 O   0  0  0  0  0  0  0  0  0  0  0  0
   -2.0654    0.6689   -0.4830 N   0  0  0  0  0  0  0  0  0  0  0  0
    0.9837    0.1313   -0.0906 N   0  0  0  0  0  0  0  0  0  0  0  0
    3.2088    0.4801    0.6719 N   0  0  0  0  0  0  0  0  0  0  0  0
   -1.1992   -0.1587   -1.3278 C   0  0  0  0  0  0  0  0  0  0  0  0
   -3.0296   -1.4825    0.0346 C   0  0  0  0  0  0  0  0  0  0  0  0
   -3.0281    0.0212    0.3847 C   0  0  0  0  0  0  0  0  0  0  0  0
   -0.0346    0.7508   -0.9127 C   0  0  0  0  0  0  0  0  0  0  0  0
   -1.0758    1.5129   -0.0689 C   0  0  0  0  0  0  0  0  0  0  0  0
   -3.9759   -1.8690   -1.1102 C   0  0  0  0  0  0  0  0  0  0  0  0
   -3.3193   -2.3417    1.2667 C   0  0  0  0  0  0  0  0  0  0  0  0
   -4.3350    0.7229    0.1959 C   0  0  0  0  0  0  0  0  0  0  0  0
    2.0892    0.8057   -0.0160 C   0  0  0  0  0  0  0  0  0  0  0  0
    4.3888    1.3358    0.6686 C   0  0  0  0  0  0  0  0  0  0  0  0
    3.3553   -0.8054    1.3467 C   0  0  0  0  0  0  0  0  0  0  0  0
    5.2147    1.1490   -0.6002 C   0  0  0  0  0  0  0  0  0  0  0  0
    4.0675   -1.8202    0.4570 C   0  0  0  0  0  0  0  0  0  0  0  0
    5.3926   -0.2873   -1.1035 C   0  0  0  0  0  0  0  0  0  0  0  0
    5.4521   -1.3764   -0.0308 C   0  0  0  0  0  0  0  0  0  0  0  0
  1  8  1  0
  1  9  1  0
  2 12  2  0
  3 15  1  0
  4 15  2  0
  5  8  1  0
  5 10  1  0
  5 12  1  0
  6 11  1  0
  6 16  2  0
  7 16  1  0
  7 17  1  0
  7 18  1  0
  8 11  1  0
  9 10  1  0
  9 13  1  0
  9 14  1  0
 10 15  1  0
 11 12  1  0
 17 19  1  0
 18 20  1  0
 19 21  1  0
 20 22  1  0
 21 22  1  0
M  END
>  <PUBCHEM_COMPOUND_CID>  (1) 
36273

>  <PUBCHEM_CONFORMER_RMSD>  (1) 
0.8

>  <PUBCHEM_CONFORMER_DIVERSEORDER>  (1) 
9
19
23
8
12
10
20
13
18
15
16
24
1
14
7
5
25
3
11
4
17
22
6
2
21

>  <PUBCHEM_MMFF94_PARTIAL_CHARGES>  (1) 
18
1 -0.45
10 0.36
11 0.34
12 0.58
15 0.66
16 0.44
17 0.37
18 0.37
2 -0.57
3 -0.65
32 0.06
4 -0.57
45 0.5
5 -0.59
6 -0.74
7 -0.79
8 0.44
9 0.23

>  <PUBCHEM_EFFECTIVE_ROTOR_COUNT>  (1) 
5.2

>  <PUBCHEM_PHARMACOPHORE_FEATURES>  (1) 
9
1 2 acceptor
1 3 acceptor
1 4 acceptor
3 3 4 15 anion
3 6 7 16 cation
3 9 13 14 hydrophobe
4 5 8 11 12 rings
7 1 5 8 9 10 11 12 rings
7 7 17 18 19 20 21 22 rings

>  <PUBCHEM_HEAVY_ATOM_COUNT>  (1) 
22

>  <PUBCHEM_ATOM_DEF_STEREO_COUNT>  (1) 
3

>  <PUBCHEM_ATOM_UDEF_STEREO_COUNT>  (1) 
0

>  <PUBCHEM_BOND_DEF_STEREO_COUNT>  (1) 
0

>  <PUBCHEM_BOND_UDEF_STEREO_COUNT>  (1) 
0

>  <PUBCHEM_ISOTOPIC_ATOM_COUNT>  (1) 
0

>  <PUBCHEM_COMPONENT_COUNT>  (1) 
1

>  <PUBCHEM_CACTVS_TAUTO_COUNT>  (1) 
1

>  <PUBCHEM_CONFORMER_ID>  (1) 
00008DB100000009

>  <PUBCHEM_MMFF94_ENERGY>  (1) 
54.9057

>  <PUBCHEM_FEATURE_SELFOVERLAP>  (1) 
49.46

>  <PUBCHEM_SHAPE_FINGERPRINT>  (1) 
10366900 7 17917988360707848816
11089746 13 11887681650178456358
11552529 35 16700046291353468574
12107183 9 17762900961831606352
12166972 35 14620786128559510811
12236239 1 18186525396990156340
12553582 1 17676199182581243136
12596602 18 16773791541551367290
12616971 3 17095516297517253808
12633257 1 18060142011497264690
12788726 201 18269835315701736200
128620 24 15285357310702350118
13167823 11 18409166619353782630
13224815 77 17894622665477281762
13533116 47 18340764828115801178
13914758 101 14261079718712127603
14004511 7 12895075124132079294
14251764 38 10447925079530151546
14341114 176 18410016516072509496
14420673 8 18197502814309595982
14617045 38 18335710403417843362
15196674 1 18410007754122967322
15537594 2 17822013099016309090
17349148 13 11455895780002815910
17834072 33 18261114063111966092
17844677 252 18130510833338150920
17857418 61 18409161083330978666
1813 80 17022904562002812150
19489759 90 16200148773035181641
19784866 170 18343590633160103431
22950370 63 18410295826300988660
23559900 14 18412257355103327248
2838139 119 12822753578605718843
300161 21 18260540139116313244
3004659 81 18334290942986539722
351380 180 10952050048336451258
4325135 7 11746941992337266210
5104073 3 18412821413057857426
90127 26 18131071584188942176

>  <PUBCHEM_SHAPE_MULTIPOLES>  (1) 
424.05
12.85
2.25
1.22
8.95
0.5
-0.03
1.31
-0.33
-0.92
-0.32
-0.28
0.18
-0.27

>  <PUBCHEM_SHAPE_SELFOVERLAP>  (1) 
866.982

>  <PUBCHEM_SHAPE_VOLUME>  (1) 
247.4

>  <PUBCHEM_COORDINATE_TYPE>  (1) 
2
5
10

$$$$
