3628
     RDKit          3D

 39 43  0  0  1  0  0  0  0  0999 V2000
   -0.6811   -0.2689   -0.3361 O   0  0  0  0  0  0  0  0  0  0  0  0
   -0.8903    2.0307   -2.1555 O   0  0  0  0  0  0  0  0  0  0  0  0
    4.1375   -3.2974    1.6350 O   0  0  0  0  0  0  0  0  0  0  0  0
    5.8746   -2.8451    0.0287 O   0  0  0  0  0  0  0  0  0  0  0  0
   -1.0787   -1.0603   -2.4623 O   0  0  0  0  0  0  0  0  0  0  0  0
   -3.5073   -1.9309   -1.6739 O   0  0  0  0  0  0  0  0  0  0  0  0
   -3.8456   -4.6268   -0.4615 O   0  0  0  0  0  0  0  0  0  0  0  0
   -3.7846    3.4193    0.4928 O   0  0  0  0  0  0  0  0  0  0  0  0
   -3.3854   -3.9266    1.6893 O   0  0  0  0  0  0  0  0  0  0  0  0
    3.1080    2.6614    0.3281 N   0  0  0  0  0  0  0  0  0  0  0  0
    1.7196    2.2101    0.4423 C   0  0  0  0  0  0  0  0  0  0  0  0
    1.4573    0.6659    0.3439 C   0  0  0  0  0  0  0  0  0  0  0  0
    1.4057    2.7103    1.8652 C   0  0  0  0  0  0  0  0  0  0  0  0
    0.4465    0.4545   -0.8124 C   0  0  0  0  0  0  0  0  0  0  0  0
    3.2078    4.0011    0.9114 C   0  0  0  0  0  0  0  0  0  0  0  0
    2.1290    4.0446    1.9834 C   0  0  0  0  0  0  0  0  0  0  0  0
    0.7418    2.7909   -0.5488 C   0  0  0  0  0  0  0  0  0  0  0  0
    2.6844   -0.2264    0.1959 C   0  0  0  0  0  0  0  0  0  0  0  0
    3.7723    2.5651   -0.9664 C   0  0  0  0  0  0  0  0  0  0  0  0
    0.0595    1.8405   -1.1934 C   0  0  0  0  0  0  0  0  0  0  0  0
    3.6318    1.2199   -1.6831 C   0  0  0  0  0  0  0  0  0  0  0  0
    3.7100    0.0305   -0.7584 C   0  0  0  0  0  0  0  0  0  0  0  0
    2.7868   -1.3568    1.0306 C   0  0  0  0  0  0  0  0  0  0  0  0
    4.8189   -0.8297   -0.8528 C   0  0  0  0  0  0  0  0  0  0  0  0
    3.8897   -2.1757    0.9054 C   0  0  0  0  0  0  0  0  0  0  0  0
    4.8787   -1.9185   -0.0098 C   0  0  0  0  0  0  0  0  0  0  0  0
   -1.3666   -0.9955   -1.2732 C   0  0  0  0  0  0  0  0  0  0  0  0
   -2.5520   -1.7210   -0.6359 C   0  0  0  0  0  0  0  0  0  0  0  0
   -1.0910    3.4114   -2.4161 C   0  0  0  0  0  0  0  0  0  0  0  0
   -3.1849   -0.9023    0.5090 C   0  0  0  0  0  0  0  0  0  0  0  0
    5.3991   -3.7156    1.0755 C   0  0  0  0  0  0  0  0  0  0  0  0
   -2.0700   -3.1045   -0.1669 C   0  0  0  0  0  0  0  0  0  0  0  0
   -3.7309    0.4718    0.0862 C   0  0  0  0  0  0  0  0  0  0  0  0
   -4.3667    1.1989    1.2804 C   0  0  0  0  0  0  0  0  0  0  0  0
   -4.8725    2.6224    0.9657 C   0  0  0  0  0  0  0  0  0  0  0  0
   -3.1599   -3.9253    0.4860 C   0  0  0  0  0  0  0  0  0  0  0  0
   -5.9525    2.6327   -0.1171 C   0  0  0  0  0  0  0  0  0  0  0  0
   -5.4148    3.2759    2.2410 C   0  0  0  0  0  0  0  0  0  0  0  0
   -4.9240   -5.4303    0.0278 C   0  0  0  0  0  0  0  0  0  0  0  0
  1 14  1  0
  1 27  1  0
  2 20  1  0
  2 29  1  0
  3 25  1  0
  3 31  1  0
  4 26  1  0
  4 31  1  0
  5 27  2  0
  6 28  1  0
  7 36  1  0
  7 39  1  0
  8 35  1  0
  9 36  2  0
 10 11  1  0
 10 15  1  0
 10 19  1  0
 11 12  1  0
 11 13  1  0
 11 17  1  0
 12 14  1  0
 12 18  1  0
 13 16  1  0
 14 20  1  0
 15 16  1  0
 17 20  2  0
 18 22  2  0
 18 23  1  0
 19 21  1  0
 21 22  1  0
 22 24  1  0
 23 25  2  0
 24 26  2  0
 25 26  1  0
 27 28  1  0
 28 30  1  0
 28 32  1  0
 30 33  1  0
 32 36  1  0
 33 34  1  0
 34 35  1  0
 35 37  1  0
 35 38  1  0
M  END
>  <PUBCHEM_COMPOUND_CID>  (1) 
3628

>  <PUBCHEM_CONFORMER_RMSD>  (1) 
1.2

>  <PUBCHEM_CONFORMER_DIVERSEORDER>  (1) 
3
360
270
376
95
146
144
58
373
111
380
114
239
460
378
96
344
386
354
200
257
273
210
265
204
195
79
149
282
31
459
128
129
434
308
27
283
86
362
211
228
174
347
159
117
345
207
272
429
191
320
381
118
275
329
483
166
295
230
189
259
479
349
467
15
240
408
357
190
103
439
405
269
88
177
164
109
455
113
152
335
289
466
399
260
250
28
218
24
356
94
339
46
98
307
248
33
178
253
306
68
430
243
397
340
484
350
418
481
73
409
121
208
252
458
150
395
85
62
370
422
412
213
229
478
51
324
110
298
105
361
235
119
101
290
414
482
156
6
413
245
387
187
138
141
116
176
133
11
148
280
194
87
188
461
431
353
286
193
91
54
262
13
80
331
162
137
476
420
143
377
186
400
337
102
238
480
43
404
355
472
369
179
45
75
165
227
147
305
336
84
4
206
450
30
59
416
435
83
170
180
89
406
49
81
328
321
7
358
342
343
131
201
41
55
139
441
391
225
107
470
398
302
64
261
363
25
77
203
153
215
301
323
32
237
316
443
21
317
428
379
440
464
232
277
92
140
424
300
338
309
254
90
473
437
319
279
212
367
181
449
136
198
224
276
447
393
40
70
296
122
382
69
383
168
274
20
374
124
249
368
469
22
14
294
255
313
453
234
410
5
142
326
284
183
421
220
314
299
292
442
135
48
332
318
468
448
438
433
36
93
205
303
334
278
291
172
268
134
264
471
216
47
123
154
266
297
106
214
346
477
53
108
327
236
288
365
244
202
182
222
8
23
419
256
366
160
175
392
242
217
67
312
37
219
78
9
44
325
199
10
246
475
26
304
415
185
63
474
364
60
427
462
485
263
221
34
407
104
247
371
293
452
100
417
39
402
120
384
76
125
403
451
423
1
19
285
352
351
241
74
173
184
12
57
65
71
388
454
375
287
446
56
18
192
394
456
151
158
463
169
231
267
432
444
359
372
72
61
209
465
163
226
390
333
2
35
97
17
330
385
42
436
145
29
411
112
132
348
445
457
311
99
281
161
425
396
322
341
82
223
38
251
389
126
310
197
315
258
426
50
167
115
271
233
127
66
155
157
130
196
52
401
16
171

>  <PUBCHEM_MMFF94_PARTIAL_CHARGES>  (1) 
37
1 -0.43
10 -0.81
11 0.41
12 0.14
14 0.42
15 0.27
17 -0.29
18 -0.14
19 0.27
2 -0.36
20 -0.06
21 0.14
22 -0.14
23 -0.15
24 -0.15
25 0.08
26 0.08
27 0.66
28 0.34
29 0.28
3 -0.36
31 0.56
32 0.06
35 0.28
36 0.66
39 0.28
4 -0.36
48 0.15
5 -0.57
53 0.15
54 0.15
6 -0.68
66 0.4
7 -0.43
75 0.4
8 -0.68
9 -0.57

>  <PUBCHEM_EFFECTIVE_ROTOR_COUNT>  (1) 
12.8

>  <PUBCHEM_PHARMACOPHORE_FEATURES>  (1) 
16
1 10 cation
1 2 acceptor
1 3 acceptor
1 4 acceptor
1 5 acceptor
1 6 acceptor
1 6 donor
1 8 acceptor
1 8 donor
1 9 acceptor
3 35 37 38 hydrophobe
5 10 11 13 15 16 rings
5 11 12 14 17 20 rings
5 3 4 25 26 31 rings
6 18 22 23 24 25 26 rings
7 10 11 12 18 19 21 22 rings

>  <PUBCHEM_HEAVY_ATOM_COUNT>  (1) 
39

>  <PUBCHEM_ATOM_DEF_STEREO_COUNT>  (1) 
0

>  <PUBCHEM_ATOM_UDEF_STEREO_COUNT>  (1) 
4

>  <PUBCHEM_BOND_DEF_STEREO_COUNT>  (1) 
0

>  <PUBCHEM_BOND_UDEF_STEREO_COUNT>  (1) 
0

>  <PUBCHEM_ISOTOPIC_ATOM_COUNT>  (1) 
0

>  <PUBCHEM_COMPONENT_COUNT>  (1) 
1

>  <PUBCHEM_CACTVS_TAUTO_COUNT>  (1) 
1

>  <PUBCHEM_CONFORMER_ID>  (1) 
00000E2C00000003

>  <PUBCHEM_MMFF94_ENERGY>  (1) 
106.1217

>  <PUBCHEM_FEATURE_SELFOVERLAP>  (1) 
81.606

>  <PUBCHEM_SHAPE_FINGERPRINT>  (1) 
10290309 65 17686616849091411054
1100329 8 18341331085099056080
11421498 54 17836087041130579897
11578080 2 17988627623923469576
11763715 3 17976559513362211967
12107183 9 18339084761537348483
12608794 3 18265885870461856229
12633046 712 18410568504873525783
12633257 1 18271807857000304245
12677640 9 18341330016459795131
12788726 201 18124046641649090904
13533116 47 18267297823712637815
13835254 42 18053385685171753267
14466204 15 18055636105821200489
14725015 67 17262448301163285118
14767858 380 8862068646381643841
14863182 85 17684081766651890702
14866123 147 18265890268382299311
15219462 58 17984401191151501205
15347590 135 17693653023312808217
15392192 29 18268431231528444574
15420108 30 17697590001728618077
15444296 121 18270688571316548522
15911013 46 18337666533208342323
16112460 7 18271236132286376353
17974551 9 18336837458696710675
19301679 30 18122630723986837715
19315092 285 17985264316379945874
20775438 99 17614507818466521006
21033648 29 16200150950167168066
21583282 1 17677923186976082116
21703447 108 18055628670900086019
22223350 30 18410852166088907553
3117164 225 18412544288645581785
3737641 26 18262241139750450078
3886686 26 18410015416677062719
463206 1 18335981957236560306
513202 73 17460039474527743957
57527295 17 18263660596624822682
5912855 24 18336272339457776495
6371380 46 18267860584544858825

>  <PUBCHEM_SHAPE_MULTIPOLES>  (1) 
744.8
12.57
7.4
1.95
3.04
4.9
-0.32
5.44
3.68
5.12
2.37
0.37
-1.27
-2

>  <PUBCHEM_SHAPE_SELFOVERLAP>  (1) 
1596.486

>  <PUBCHEM_SHAPE_VOLUME>  (1) 
414

>  <PUBCHEM_COORDINATE_TYPE>  (1) 
2
5
10

$$$$
