36281
     RDKit          3D

 16 18  0  0  1  0  0  0  0  0999 V2000
   -2.0363    1.3550    0.1173 N   0  0  0  0  0  0  0  0  0  0  0  0
   -0.6195   -0.4096   -0.6140 C   0  0  0  0  0  0  0  0  0  0  0  0
   -1.3344    0.1694    0.6426 C   0  0  0  0  0  0  0  0  0  0  0  0
   -1.3702    0.2005   -1.8084 C   0  0  0  0  0  0  0  0  0  0  0  0
   -0.2452    0.5211    1.6750 C   0  0  0  0  0  0  0  0  0  0  0  0
    0.7847    0.1195   -0.4491 C   0  0  0  0  0  0  0  0  0  0  0  0
   -2.5464    0.9457   -1.1918 C   0  0  0  0  0  0  0  0  0  0  0  0
   -0.6317   -1.9384   -0.6298 C   0  0  0  0  0  0  0  0  0  0  0  0
    0.9807    0.6531    0.8289 C   0  0  0  0  0  0  0  0  0  0  0  0
   -0.1052   -2.5073    0.6827 C   0  0  0  0  0  0  0  0  0  0  0  0
   -3.1090    1.8127    0.9924 C   0  0  0  0  0  0  0  0  0  0  0  0
    1.8183    0.1074   -1.3759 C   0  0  0  0  0  0  0  0  0  0  0  0
    2.2068    1.1783    1.2061 C   0  0  0  0  0  0  0  0  0  0  0  0
    3.0538    0.6437   -1.0079 C   0  0  0  0  0  0  0  0  0  0  0  0
   -0.0931   -4.0273    0.6571 C   0  0  0  0  0  0  0  0  0  0  0  0
    3.2467    1.1762    0.2749 C   0  0  0  0  0  0  0  0  0  0  0  0
  1  3  1  0
  1  7  1  0
  1 11  1  0
  2  3  1  0
  2  4  1  0
  2  6  1  0
  2  8  1  0
  3  5  1  0
  4  7  1  0
  5  9  1  0
  6  9  2  0
  6 12  1  0
  8 10  1  0
  9 13  1  0
 10 15  1  0
 12 14  2  0
 13 16  2  0
 14 16  1  0
M  END
>  <PUBCHEM_COMPOUND_CID>  (1) 
36281

>  <PUBCHEM_CONFORMER_RMSD>  (1) 
0.6

>  <PUBCHEM_CONFORMER_DIVERSEORDER>  (1) 
1
6
4
2
3
5

>  <PUBCHEM_MMFF94_PARTIAL_CHARGES>  (1) 
16
1 -0.81
11 0.27
12 -0.15
13 -0.15
14 -0.15
16 -0.15
2 0.14
3 0.27
31 0.15
32 0.15
33 0.15
37 0.15
5 0.14
6 -0.14
7 0.27
9 -0.14

>  <PUBCHEM_EFFECTIVE_ROTOR_COUNT>  (1) 
2.8

>  <PUBCHEM_PHARMACOPHORE_FEATURES>  (1) 
5
1 1 cation
1 15 hydrophobe
5 1 2 3 4 7 rings
5 2 3 5 6 9 rings
6 6 9 12 13 14 16 rings

>  <PUBCHEM_HEAVY_ATOM_COUNT>  (1) 
16

>  <PUBCHEM_ATOM_DEF_STEREO_COUNT>  (1) 
0

>  <PUBCHEM_ATOM_UDEF_STEREO_COUNT>  (1) 
2

>  <PUBCHEM_BOND_DEF_STEREO_COUNT>  (1) 
0

>  <PUBCHEM_BOND_UDEF_STEREO_COUNT>  (1) 
0

>  <PUBCHEM_ISOTOPIC_ATOM_COUNT>  (1) 
0

>  <PUBCHEM_COMPONENT_COUNT>  (1) 
1

>  <PUBCHEM_CACTVS_TAUTO_COUNT>  (1) 
1

>  <PUBCHEM_CONFORMER_ID>  (1) 
00008DB900000001

>  <PUBCHEM_MMFF94_ENERGY>  (1) 
49.1791

>  <PUBCHEM_FEATURE_SELFOVERLAP>  (1) 
25.836

>  <PUBCHEM_SHAPE_FINGERPRINT>  (1) 
1 1 18263645052368032166
12138202 97 18271236244102686596
12423570 1 14721942272098917723
12532896 13 18342458157484354712
13024252 1 14418400152668827461
13132413 78 17405420006019972200
13294875 104 17914318092273842648
13299463 15 15912754119746000308
14181834 199 17622134903095284231
14817 1 9558598181435541395
15309172 13 18260268538132324597
15852999 172 18340471357596042046
16945 1 17488161850681627581
18186145 218 18201159858164615284
18534176 82 18125993008636443828
19765921 60 18130227060210896265
20600515 1 17469857327310655599
20645476 183 18340222855009467988
20711985 344 18122343750865983794
21524375 3 18272089353335521141
21665056 4 18408323306788999490
23388829 49 17550666613030637682
23419403 2 15616452177453315487
23493267 7 18270962470461507472
23557571 272 17834952345336605428
25 1 17987811699884428236
298252 57 16593316581575270023
305870 269 18266451001736651629
3071541 236 18267008621772613874
394222 165 17771638853646536761
576247 118 17402334166380800942
5845 1 10106042705891517651
6442390 28 18338818774529205347
68419 9 17414400971788438925
81228 2 18050005785678922347
9981440 41 17344324874082356872

>  <PUBCHEM_SHAPE_MULTIPOLES>  (1) 
324.29
4
2.89
1.62
1.53
4.58
0.18
-3.29
0.31
-1.19
-1.09
-0.15
-0.32
-0.01

>  <PUBCHEM_SHAPE_SELFOVERLAP>  (1) 
697.635

>  <PUBCHEM_SHAPE_VOLUME>  (1) 
182.4

>  <PUBCHEM_COORDINATE_TYPE>  (1) 
2
5
10

$$$$
