36293
     RDKit          3D

 11 10  0  0  0  0  0  0  0  0999 V2000
    0.3353   -1.6947    0.3310 O   0  0  0  0  0  0  0  0  0  0  0  0
    2.9955   -0.9910    0.0206 O   0  0  0  0  0  0  0  0  0  0  0  0
   -2.5876    1.8525    0.0924 O   0  0  0  0  0  0  0  0  0  0  0  0
   -1.1803    0.0551    0.2192 N   0  0  0  0  0  0  0  0  0  0  0  0
    1.1462    0.4406   -0.0203 N   0  0  0  0  0  0  0  0  0  0  0  0
   -1.3987    1.5193    0.0414 N   0  0  0  0  0  0  0  0  0  0  0  0
    3.2783    1.2657   -0.3023 N   0  0  0  0  0  0  0  0  0  0  0  0
   -2.3426   -0.7994    0.4267 C   0  0  0  0  0  0  0  0  0  0  0  0
   -2.8722   -1.2934   -0.9059 C   0  0  0  0  0  0  0  0  0  0  0  0
    0.1156   -0.4880    0.1876 C   0  0  0  0  0  0  0  0  0  0  0  0
    2.5105    0.1333   -0.0902 C   0  0  0  0  0  0  0  0  0  0  0  0
  1 10  2  0
  2 11  2  0
  3  6  2  0
  4  6  1  0
  4  8  1  0
  4 10  1  0
  5 10  1  0
  5 11  1  0
  7 11  1  0
  8  9  1  0
M  END
>  <PUBCHEM_COMPOUND_CID>  (1) 
36293

>  <PUBCHEM_CONFORMER_RMSD>  (1) 
0.6

>  <PUBCHEM_CONFORMER_DIVERSEORDER>  (1) 
1
20
23
14
9
24
19
10
13
17
18
5
6
8
11
22
12
21
16
3
15
4
7
2

>  <PUBCHEM_MMFF94_PARTIAL_CHARGES>  (1) 
13
1 -0.57
10 0.69
11 0.69
17 0.37
18 0.37
19 0.37
2 -0.57
3 -0.16
4 -0.18
5 -0.49
6 -0.02
7 -0.8
8 0.3

>  <PUBCHEM_EFFECTIVE_ROTOR_COUNT>  (1) 
5

>  <PUBCHEM_PHARMACOPHORE_FEATURES>  (1) 
4
1 1 acceptor
1 2 acceptor
1 5 donor
1 7 donor

>  <PUBCHEM_HEAVY_ATOM_COUNT>  (1) 
11

>  <PUBCHEM_ATOM_DEF_STEREO_COUNT>  (1) 
0

>  <PUBCHEM_ATOM_UDEF_STEREO_COUNT>  (1) 
0

>  <PUBCHEM_BOND_DEF_STEREO_COUNT>  (1) 
0

>  <PUBCHEM_BOND_UDEF_STEREO_COUNT>  (1) 
0

>  <PUBCHEM_ISOTOPIC_ATOM_COUNT>  (1) 
0

>  <PUBCHEM_COMPONENT_COUNT>  (1) 
1

>  <PUBCHEM_CACTVS_TAUTO_COUNT>  (1) 
5

>  <PUBCHEM_CONFORMER_ID>  (1) 
00008DC500000001

>  <PUBCHEM_MMFF94_ENERGY>  (1) 
18.8277

>  <PUBCHEM_FEATURE_SELFOVERLAP>  (1) 
20.352

>  <PUBCHEM_SHAPE_FINGERPRINT>  (1) 
12897270 3 18411412947126055119
12932764 1 17846498162151922218
14325111 11 18409732854751431056
14390081 3 18409450271525575456
14897335 6 18265608784746582001
15310529 11 18202001053379197062
19973954 147 18409735053780162688
20653085 51 18338249158380319568
20711983 171 18412549794857056196
23552423 10 18335421214500358642
25610 137 18263085577349049923
3248919 1 17748830743401057530
5084963 1 18201440302375197786
8030462 33 18260554441457570806

>  <PUBCHEM_SHAPE_MULTIPOLES>  (1) 
188.84
5.25
1.73
0.69
2.12
0.47
-0.06
0.2
-0.81
-0.83
-0.01
-0.28
-0.13
-0.4

>  <PUBCHEM_SHAPE_SELFOVERLAP>  (1) 
356.656

>  <PUBCHEM_SHAPE_VOLUME>  (1) 
115.8

>  <PUBCHEM_COORDINATE_TYPE>  (1) 
2
5
10

$$$$
