36308
     RDKit          3D

 10  9  0  0  0  0  0  0  0  0999 V2000
   -3.3507    1.1465    0.3438 O   0  0  0  0  0  0  0  0  0  0  0  0
    3.1878   -0.0056    0.4752 C   0  0  0  0  0  0  0  0  0  0  0  0
    1.6925    0.2705    0.7323 C   0  0  0  0  0  0  0  0  0  0  0  0
    0.7790    0.1423   -0.4931 C   0  0  0  0  0  0  0  0  0  0  0  0
    3.7744    0.9164   -0.5947 C   0  0  0  0  0  0  0  0  0  0  0  0
    3.3782   -1.4663    0.0575 C   0  0  0  0  0  0  0  0  0  0  0  0
   -0.6534    0.4832   -0.1958 C   0  0  0  0  0  0  0  0  0  0  0  0
   -1.6522   -0.4062   -0.2719 C   0  0  0  0  0  0  0  0  0  0  0  0
   -3.0523   -0.0045    0.0342 C   0  0  0  0  0  0  0  0  0  0  0  0
   -4.1032   -1.0763   -0.0875 C   0  0  0  0  0  0  0  0  0  0  0  0
  1  9  2  0
  2  3  1  0
  2  5  1  0
  2  6  1  0
  3  4  1  0
  4  7  1  0
  7  8  2  0
  8  9  1  0
  9 10  1  0
M  END
>  <PUBCHEM_COMPOUND_CID>  (1) 
36308

>  <PUBCHEM_CONFORMER_RMSD>  (1) 
0.6

>  <PUBCHEM_CONFORMER_DIVERSEORDER>  (1) 
2
9
11
6
14
10
5
12
3
1
7
15
13
4
8
16

>  <PUBCHEM_MMFF94_PARTIAL_CHARGES>  (1) 
8
1 -0.57
10 0.06
22 0.15
23 0.15
4 0.14
7 -0.29
8 -0.14
9 0.49

>  <PUBCHEM_EFFECTIVE_ROTOR_COUNT>  (1) 
4

>  <PUBCHEM_PHARMACOPHORE_FEATURES>  (1) 
3
1 1 acceptor
3 2 5 6 hydrophobe
4 2 3 4 7 hydrophobe

>  <PUBCHEM_HEAVY_ATOM_COUNT>  (1) 
10

>  <PUBCHEM_ATOM_DEF_STEREO_COUNT>  (1) 
0

>  <PUBCHEM_ATOM_UDEF_STEREO_COUNT>  (1) 
0

>  <PUBCHEM_BOND_DEF_STEREO_COUNT>  (1) 
0

>  <PUBCHEM_BOND_UDEF_STEREO_COUNT>  (1) 
1

>  <PUBCHEM_ISOTOPIC_ATOM_COUNT>  (1) 
0

>  <PUBCHEM_COMPONENT_COUNT>  (1) 
1

>  <PUBCHEM_CACTVS_TAUTO_COUNT>  (1) 
5

>  <PUBCHEM_CONFORMER_ID>  (1) 
00008DD400000002

>  <PUBCHEM_MMFF94_ENERGY>  (1) 
9.5075

>  <PUBCHEM_FEATURE_SELFOVERLAP>  (1) 
15.291

>  <PUBCHEM_SHAPE_FINGERPRINT>  (1) 
11062470 55 10665224843401728355
124424 183 17846772967044480729
12932764 1 17560790052594208908
14144814 61 18201718444341151176
14325111 11 18411135827003323075
177051 138 18411135839967547647
17834072 33 18261956365811211383
18186145 218 17022903436758225272
190213 19 18113897169323140541
19422 9 18409167692705236050
20279233 1 15357694205972991713
20645477 56 9439136368291178459
20645477 70 18335415729837905054
20711985 327 17676211272909004685
20828058 21 17988647414599453804
22485316 2 18261106378940771735
42 15 18341895177687812203
581208 293 18186515510371034354

>  <PUBCHEM_SHAPE_MULTIPOLES>  (1) 
199.93
8.49
1.18
0.77
2.2
0.24
0.01
1.04
0
-0.27
-0.02
-0.27
-0.05
-0.36

>  <PUBCHEM_SHAPE_SELFOVERLAP>  (1) 
366.22

>  <PUBCHEM_SHAPE_VOLUME>  (1) 
127.5

>  <PUBCHEM_COORDINATE_TYPE>  (1) 
2
5
10

$$$$
