36303
     RDKit          3D

 25 28  0  0  1  0  0  0  0  0999 V2000
   -1.4444   -2.6984    0.2300 O   0  0  0  0  0  0  0  0  0  0  0  0
   -4.9826    2.0489   -0.3355 O   0  0  0  0  0  0  0  0  0  0  0  0
   -7.0908    0.1611    0.2146 O   0  0  0  0  0  0  0  0  0  0  0  0
    1.8163   -0.1209   -0.4872 N   0  0  0  0  0  0  0  0  0  0  0  0
    4.0367    0.5581   -0.5372 C   0  0  0  0  0  0  0  0  0  0  0  0
    3.1605   -0.6982   -0.5322 C   0  0  0  0  0  0  0  0  0  0  0  0
    3.2823    1.4939    0.4245 C   0  0  0  0  0  0  0  0  0  0  0  0
    1.8746    0.9131    0.5457 C   0  0  0  0  0  0  0  0  0  0  0  0
    0.7891   -1.1170   -0.2226 C   0  0  0  0  0  0  0  0  0  0  0  0
    5.5054    0.3815   -0.2169 C   0  0  0  0  0  0  0  0  0  0  0  0
   -0.6008   -0.4812   -0.1986 C   0  0  0  0  0  0  0  0  0  0  0  0
    6.1507   -0.8145   -0.5339 C   0  0  0  0  0  0  0  0  0  0  0  0
    6.2158    1.4142    0.3962 C   0  0  0  0  0  0  0  0  0  0  0  0
   -1.7317   -1.4966    0.0534 C   0  0  0  0  0  0  0  0  0  0  0  0
    7.5042   -0.9775   -0.2382 C   0  0  0  0  0  0  0  0  0  0  0  0
    7.5692    1.2514    0.6918 C   0  0  0  0  0  0  0  0  0  0  0  0
   -3.1154   -1.0506    0.0824 C   0  0  0  0  0  0  0  0  0  0  0  0
    8.2133    0.0555    0.3745 C   0  0  0  0  0  0  0  0  0  0  0  0
   -3.4180    0.2955   -0.1244 C   0  0  0  0  0  0  0  0  0  0  0  0
   -4.1390   -1.9710    0.3108 C   0  0  0  0  0  0  0  0  0  0  0  0
   -4.7472    0.7186   -0.1052 C   0  0  0  0  0  0  0  0  0  0  0  0
   -5.7699   -0.1983    0.1504 C   0  0  0  0  0  0  0  0  0  0  0  0
   -5.4674   -1.5464    0.3437 C   0  0  0  0  0  0  0  0  0  0  0  0
   -6.3579    2.3031   -0.6352 C   0  0  0  0  0  0  0  0  0  0  0  0
   -7.2529    1.5757    0.3492 C   0  0  0  0  0  0  0  0  0  0  0  0
  1 14  2  0
  2 21  1  0
  2 24  1  0
  3 22  1  0
  3 25  1  0
  4  6  1  0
  4  8  1  0
  4  9  1  0
  5  6  1  0
  5  7  1  0
  5 10  1  0
  7  8  1  0
  9 11  1  0
 10 12  2  0
 10 13  1  0
 11 14  1  0
 12 15  1  0
 13 16  2  0
 14 17  1  0
 15 18  2  0
 16 18  1  0
 17 19  2  0
 17 20  1  0
 19 21  1  0
 20 23  2  0
 21 22  2  0
 22 23  1  0
 24 25  1  0
M  END
>  <PUBCHEM_COMPOUND_CID>  (1) 
36303

>  <PUBCHEM_CONFORMER_RMSD>  (1) 
1

>  <PUBCHEM_CONFORMER_DIVERSEORDER>  (1) 
1
422
103
287
75
258
374
189
10
281
23
457
271
400
115
480
63
430
2
11
199
280
489
13
319
21
389
203
36
102
235
3
493
34
447
128
275
365
51
200
396
20
153
259
202
26
477
362
250
114
442
264
412
134
136
31
8
169
295
144
81
217
96
15
249
17
425
4
110
228
41
483
74
7
77
409
182
66
177
234
24
468
147
328
132
126
279
19
190
101
241
100
340
173
88
431
39
459
157
334
67
73
451
245
9
111
416
50
284
54
490
48
214
55
423
60
30
119
16
12
193
255
68
156
181
85
5
450
371

>  <PUBCHEM_MMFF94_PARTIAL_CHARGES>  (1) 
32
1 -0.57
10 -0.14
11 0.06
12 -0.15
13 -0.15
14 0.42
15 -0.15
16 -0.15
17 0.09
18 -0.15
19 -0.15
2 -0.36
20 -0.15
21 0.08
22 0.08
23 -0.15
24 0.28
25 0.28
3 -0.36
37 0.15
38 0.15
39 0.15
4 -0.81
40 0.15
41 0.15
42 0.15
43 0.15
44 0.15
5 0.14
6 0.27
8 0.27
9 0.27

>  <PUBCHEM_EFFECTIVE_ROTOR_COUNT>  (1) 
6.8

>  <PUBCHEM_PHARMACOPHORE_FEATURES>  (1) 
8
1 1 acceptor
1 2 acceptor
1 3 acceptor
1 4 cation
5 4 5 6 7 8 rings
6 10 12 13 15 16 18 rings
6 17 19 20 21 22 23 rings
6 2 3 21 22 24 25 rings

>  <PUBCHEM_HEAVY_ATOM_COUNT>  (1) 
25

>  <PUBCHEM_ATOM_DEF_STEREO_COUNT>  (1) 
0

>  <PUBCHEM_ATOM_UDEF_STEREO_COUNT>  (1) 
1

>  <PUBCHEM_BOND_DEF_STEREO_COUNT>  (1) 
0

>  <PUBCHEM_BOND_UDEF_STEREO_COUNT>  (1) 
0

>  <PUBCHEM_ISOTOPIC_ATOM_COUNT>  (1) 
0

>  <PUBCHEM_COMPONENT_COUNT>  (1) 
1

>  <PUBCHEM_CACTVS_TAUTO_COUNT>  (1) 
2

>  <PUBCHEM_CONFORMER_ID>  (1) 
00008DCF00000001

>  <PUBCHEM_MMFF94_ENERGY>  (1) 
73.2372

>  <PUBCHEM_FEATURE_SELFOVERLAP>  (1) 
40.639

>  <PUBCHEM_SHAPE_FINGERPRINT>  (1) 
10 15 18114184112637225169
100830 39 18409448059702262197
10299344 5 17603303756963132026
10411042 1 17905047311947927363
10666366 153 18201729423369609478
10670039 82 18335695027804130257
10674148 151 18113335315673018250
10730089 173 18409730656044836057
10835480 77 18201718483697834264
10951579 204 18194420900460087460
11315181 36 17632300090374228747
11719270 70 18060420201610542638
11963148 33 9367350306138870304
125118 31 18409731794427824068
13533116 47 13686035168030144172
13668630 136 11314300638634685800
13673619 4 11530483337121535950
13878862 14 16486679369152307392
13885169 127 18409166614578721898
13914758 101 18407760331065235666
14251752 14 18410012130710128560
14251764 18 18040995141897294266
14257110 125 18408040706899550767
14429380 56 15051724310099502786
14556957 393 15554179154433933289
14729087 3 18342174466425909953
14856354 85 15791736321064065083
14933364 13 18410012147979687868
15142383 8 18413387640720093324
15183329 4 18413110541766385978
15289351 153 18269267981087358442
15461852 350 17703505584190915719
1577012 14 18260821583980981779
15778101 99 18409450280764278531
16989713 51 17416398986428213231
17093844 174 18409448107231252147
17780758 139 11746933167034080655
18608769 82 18339365266505922179
19611394 137 17823996713299476635
19841028 212 18189050916383828610
20105231 36 13045942383329321440
20281389 69 18408323293692782724
21033648 29 18200301234162033344
21130935 74 18335137618437973858
21150785 3 13254795741995209632
21315763 28 18336547217401844927
21365058 27 15502377824507049264
21756936 100 18410006655107367839
21774942 28 17346046554040122352
21792934 111 17988915662390416936
21859007 373 18411979135669551260
23522609 53 17096389326871653260
23559900 14 18059287768335542161
246663 6 13262395549545211512
2838139 119 18343015614580942437
28498 318 18272655624169087366
3009799 131 17489869345479960562
335352 9 18411701002103335956
4073 2 18041565844646805234
4093350 32 17968372356524140514
4339292 15 16629951253495550799
44280117 145 18058728147709853311
444735 82 18337673148397566004
504843 32 17203324571661189726
5104073 3 18115032897096650883
5385378 56 17822006472230301474
54039377 194 11167929295933578605
5758199 1 17458345243231363074
58260988 114 15141258697454111875
5969126 39 14764352608730319259
59755656 520 17894628179994257251
6009941 240 18333734637141946858
636775 72 18341895165383958385
6441014 3 15942070527775830643

>  <PUBCHEM_SHAPE_MULTIPOLES>  (1) 
491.9
25.99
2.15
0.75
14.51
0.05
0
-8.46
-1.64
-2.93
-0.06
0.26
-0.07
1.36

>  <PUBCHEM_SHAPE_SELFOVERLAP>  (1) 
1064.367

>  <PUBCHEM_SHAPE_VOLUME>  (1) 
269.3

>  <PUBCHEM_COORDINATE_TYPE>  (1) 
2
5
10

$$$$
