36319
     RDKit          3D

 24 27  0  0  0  0  0  0  0  0999 V2000
    3.7101   -2.8518   -0.0212 O   0  0  0  0  0  0  0  0  0  0  0  0
   -0.2085   -0.3759    0.0985 N   0  0  0  0  0  0  0  0  0  0  0  0
   -3.0672   -0.0436   -0.0006 N   0  0  0  0  0  0  0  0  0  0  0  0
    1.8428    0.6383    0.3204 N   0  0  0  0  0  0  0  0  0  0  0  0
    1.7362   -1.6970    0.0350 N   0  0  0  0  0  0  0  0  0  0  0  0
   -1.0503   -1.2805   -0.6799 C   0  0  0  0  0  0  0  0  0  0  0  0
   -0.8717    0.7039    0.8244 C   0  0  0  0  0  0  0  0  0  0  0  0
   -2.3296   -0.5845   -1.1445 C   0  0  0  0  0  0  0  0  0  0  0  0
   -2.3051    0.3231    1.1952 C   0  0  0  0  0  0  0  0  0  0  0  0
    3.2151    0.6499    0.3945 C   0  0  0  0  0  0  0  0  0  0  0  0
    3.8800    1.9899    0.5852 C   0  0  0  0  0  0  0  0  0  0  0  0
    4.7968    2.3856   -0.5735 C   0  0  0  0  0  0  0  0  0  0  0  0
    6.1549    1.6854   -0.5591 C   0  0  0  0  0  0  0  0  0  0  0  0
    6.1063    0.1726   -0.7698 C   0  0  0  0  0  0  0  0  0  0  0  0
    3.9061   -0.5029    0.2925 C   0  0  0  0  0  0  0  0  0  0  0  0
    5.4078   -0.5904    0.3572 C   0  0  0  0  0  0  0  0  0  0  0  0
    1.1521   -0.5341    0.1456 C   0  0  0  0  0  0  0  0  0  0  0  0
   -4.4491    0.1177   -0.0486 C   0  0  0  0  0  0  0  0  0  0  0  0
    3.1184   -1.7810    0.0903 C   0  0  0  0  0  0  0  0  0  0  0  0
   -5.1168    0.3837   -1.2670 C   0  0  0  0  0  0  0  0  0  0  0  0
   -5.2426    0.0212    1.1183 C   0  0  0  0  0  0  0  0  0  0  0  0
   -6.5017    0.5446   -1.3156 C   0  0  0  0  0  0  0  0  0  0  0  0
   -6.6273    0.1820    1.0697 C   0  0  0  0  0  0  0  0  0  0  0  0
   -7.2568    0.4436   -0.1472 C   0  0  0  0  0  0  0  0  0  0  0  0
  1 19  2  0
  2  6  1  0
  2  7  1  0
  2 17  1  0
  3  8  1  0
  3  9  1  0
  3 18  1  0
  4 10  1  0
  4 17  1  0
  5 17  2  0
  5 19  1  0
  6  8  1  0
  7  9  1  0
 10 11  1  0
 10 15  2  0
 11 12  1  0
 12 13  1  0
 13 14  1  0
 14 16  1  0
 15 16  1  0
 15 19  1  0
 18 20  2  0
 18 21  1  0
 20 22  1  0
 21 23  2  0
 22 24  2  0
 23 24  1  0
M  END
>  <PUBCHEM_COMPOUND_CID>  (1) 
36319

>  <PUBCHEM_CONFORMER_RMSD>  (1) 
0.8

>  <PUBCHEM_CONFORMER_DIVERSEORDER>  (1) 
1
5
9
2
7
6
10
11
4
8
3
13
12

>  <PUBCHEM_MMFF94_PARTIAL_CHARGES>  (1) 
27
1 -0.57
10 -0.04
11 0.14
15 -0.12
16 0.14
17 0.55
18 0.1
19 0.77
2 -0.79
20 -0.15
21 -0.15
22 -0.15
23 -0.15
24 -0.15
3 -0.84
4 -0.55
43 0.4
44 0.15
45 0.15
46 0.15
47 0.15
48 0.15
5 -0.66
6 0.37
7 0.37
8 0.37
9 0.37

>  <PUBCHEM_EFFECTIVE_ROTOR_COUNT>  (1) 
4.2

>  <PUBCHEM_PHARMACOPHORE_FEATURES>  (1) 
8
1 1 acceptor
1 3 cation
1 4 donor
1 5 donor
6 18 20 21 22 23 24 rings
6 2 3 6 7 8 9 rings
6 4 5 10 15 17 19 rings
7 10 11 12 13 14 15 16 rings

>  <PUBCHEM_HEAVY_ATOM_COUNT>  (1) 
24

>  <PUBCHEM_ATOM_DEF_STEREO_COUNT>  (1) 
0

>  <PUBCHEM_ATOM_UDEF_STEREO_COUNT>  (1) 
0

>  <PUBCHEM_BOND_DEF_STEREO_COUNT>  (1) 
0

>  <PUBCHEM_BOND_UDEF_STEREO_COUNT>  (1) 
0

>  <PUBCHEM_ISOTOPIC_ATOM_COUNT>  (1) 
0

>  <PUBCHEM_COMPONENT_COUNT>  (1) 
1

>  <PUBCHEM_CACTVS_TAUTO_COUNT>  (1) 
3

>  <PUBCHEM_CONFORMER_ID>  (1) 
00008DDF00000001

>  <PUBCHEM_MMFF94_ENERGY>  (1) 
75.9936

>  <PUBCHEM_FEATURE_SELFOVERLAP>  (1) 
40.644

>  <PUBCHEM_SHAPE_FINGERPRINT>  (1) 
10 15 17530683242335031265
10299344 5 17989487425173487439
10411042 1 17977383838273140546
10638233 991 18202565090144434953
10670039 82 16343436024286282697
10673678 19 17823716328960038116
10693767 8 17916875600177513142
10835480 77 18259982648535836621
10906281 52 17846512417597010871
11796584 16 14333406766245070212
12236239 1 17775283858919546003
12516196 113 13984662551318456943
12730499 353 18187086148410965066
12788726 201 17275113790735922017
12838862 33 18340755036418976728
13533116 47 18272087150001753330
14170010 4 18411417298581904346
14251764 18 17917711310560315631
14294032 229 16342321072783932305
14528608 73 18201434809017151924
14840074 17 18272932734926386045
14856354 85 17132113576919284645
14933364 13 18259985976882328845
15183329 4 17632860836756602525
15475509 35 15864615182359288840
1577012 14 17704072872509568339
16079462 125 17603578630311182957
17844677 252 18336548205729652221
18335252 114 18413383246135580796
18335252 98 18335426807238933219
19427546 62 18334577992630652450
20157964 124 18408886226381828426
20612939 158 18411983551101406078
21033650 10 15482129209970376027
21049683 118 18043793481116467026
21150785 3 18201434805413041095
21267235 1 18272093747472264570
21344244 78 18194945376375610762
220451 1 17989485221644514983
221357 26 18343585127508454056
22224240 67 16950281828074059403
23035841 295 15769777962014424437
23081809 10 17846497007322645411
23424782 7 18187651353459678115
23522609 53 17631192864853951025
23559900 14 18341609368936139105
249057 3 18342459236465853070
25147074 1 17845383162655754144
255183 451 17842285770552141094
29717793 49 17275108331985702780
3004659 81 17561362876804024856
335352 9 18411986854516975398
34797466 226 17385735685845452015
3545911 37 18408324397372569419
397830 11 17677626413620923817
4073 2 18113904896270558683
4325135 7 18060700576637456989
4340502 62 17385723590911903554
445580 126 18339634638449500112
474 4 18336830883471077696
5104073 3 18338789134659598954
542803 24 17917992780640607353
59755656 215 18408324372024836948
59755656 520 18261106400648340439
6025842 7 18411982434357661942

>  <PUBCHEM_SHAPE_MULTIPOLES>  (1) 
468.12
19.32
1.86
1.11
14.91
0.31
-0.07
-6.01
-2.26
-4.02
-0.14
1.36
-0.15
-0.29

>  <PUBCHEM_SHAPE_SELFOVERLAP>  (1) 
1001.448

>  <PUBCHEM_SHAPE_VOLUME>  (1) 
255

>  <PUBCHEM_COORDINATE_TYPE>  (1) 
2
5
10

$$$$
