36311
     RDKit          3D

 28 29  0  0  1  0  0  0  0  0999 V2000
   -0.4082    2.8321   -0.5881 Cl  0  0  0  0  0  0  0  0  0  0  0  0
    6.2654    1.8054   -0.5999 S   0  0  0  0  0  0  0  0  0  0  0  0
    3.7174    1.0153   -0.2890 O   0  0  0  0  0  0  0  0  0  0  0  0
    1.9466   -1.9631    0.9226 O   0  0  0  0  0  0  0  0  0  0  0  0
    4.5383   -3.0267    0.0922 O   0  0  0  0  0  0  0  0  0  0  0  0
    5.2851   -0.9649   -1.5902 O   0  0  0  0  0  0  0  0  0  0  0  0
   -0.5113   -0.9856   -1.5161 O   0  0  0  0  0  0  0  0  0  0  0  0
   -2.3513   -2.3992   -0.3545 N   0  0  0  0  0  0  0  0  0  0  0  0
    0.2871   -0.0353    0.4531 N   0  0  0  0  0  0  0  0  0  0  0  0
   -3.8926   -0.9821    0.6979 C   0  0  0  0  0  0  0  0  0  0  0  0
   -2.5181   -0.6021    1.2424 C   0  0  0  0  0  0  0  0  0  0  0  0
   -1.5522   -1.5607    0.5509 C   0  0  0  0  0  0  0  0  0  0  0  0
    2.7051    0.2574    0.3804 C   0  0  0  0  0  0  0  0  0  0  0  0
    1.3535    0.7513   -0.1258 C   0  0  0  0  0  0  0  0  0  0  0  0
   -3.5680   -1.6270   -0.6391 C   0  0  0  0  0  0  0  0  0  0  0  0
    2.8874   -1.2460    0.1278 C   0  0  0  0  0  0  0  0  0  0  0  0
   -4.8461    0.1945    0.5814 C   0  0  0  0  0  0  0  0  0  0  0  0
    4.3092   -1.6800    0.4977 C   0  0  0  0  0  0  0  0  0  0  0  0
    5.3494   -0.7771   -0.1731 C   0  0  0  0  0  0  0  0  0  0  0  0
   -0.5543   -0.8375   -0.2977 C   0  0  0  0  0  0  0  0  0  0  0  0
    5.0376    0.6867    0.1548 C   0  0  0  0  0  0  0  0  0  0  0  0
    1.1480    2.2641    0.0967 C   0  0  0  0  0  0  0  0  0  0  0  0
   -6.2119   -0.2514    0.0694 C   0  0  0  0  0  0  0  0  0  0  0  0
   -7.1783    0.9310   -0.0165 C   0  0  0  0  0  0  0  0  0  0  0  0
    1.2133    2.6566    1.5704 C   0  0  0  0  0  0  0  0  0  0  0  0
   -8.5395    0.4984   -0.5607 C   0  0  0  0  0  0  0  0  0  0  0  0
    5.5809    3.3687   -0.0084 C   0  0  0  0  0  0  0  0  0  0  0  0
   -9.4924    1.6772   -0.6789 C   0  0  0  0  0  0  0  0  0  0  0  0
  1 22  1  0
  2 21  1  0
  2 27  1  0
  3 13  1  0
  3 21  1  0
  4 16  1  0
  5 18  1  0
  6 19  1  0
  7 20  2  0
  8 12  1  0
  8 15  1  0
  9 14  1  0
  9 20  1  0
 10 11  1  0
 10 15  1  0
 10 17  1  0
 11 12  1  0
 12 20  1  0
 13 14  1  0
 13 16  1  0
 14 22  1  0
 16 18  1  0
 17 23  1  0
 18 19  1  0
 19 21  1  0
 22 25  1  0
 23 24  1  0
 24 26  1  0
 26 28  1  0
M  END
>  <PUBCHEM_COMPOUND_CID>  (1) 
36311

>  <PUBCHEM_CONFORMER_RMSD>  (1) 
1.4

>  <PUBCHEM_CONFORMER_DIVERSEORDER>  (1) 
1
192
15
230
221
259
227
120
193
32
254
28
249
30
147
162
42
152
211
236
188
46
75
16
68
95
205
155
239
248
100
73
54
8
160
126
22
238
252
74
173
246
17
12
168
226
190
110
106
21
35
115
150
65
179
66
195
91
114
165
7
89
67
235
157
258
197
104
97
123
253
61
48
14
183
176
186
158
206
145
40
135
98
113
171
229
187
133
146
255
18
83
71
60
260
153
56
136
55
108
243
44
247
209
59
5
69
79
121
87
217
198
139
143
102
161
140
137
210
256
241
203
215
37
202
70
111
225
31
175
151
127
6
24
101
141
33
129
20
216
194
64
228
49
130
149
26
134
224
201
58
9
45
261
78
85
222
131
109
251
262
63
76
25
156
50
103
4
51
34
263
166
267
213
43
191
107
163
237
118
172
112
77
117
86
196
47
90
207
132
169
122
174
257
84
96
99
80
240
182
244
178
185
245
148
189
57
144
223
62
10
124
128
13
242
232
268
219
233
119
138
11
264
2
72
265
208
250
88
3
38
181
53
218
180
204
116
36
41
93
154
234
199
29
177
266
82
142
214
167
39
220
231
159
92
27
105
52
94
81
23
125
200
184
19
212
164
170

>  <PUBCHEM_MMFF94_PARTIAL_CHARGES>  (1) 
25
1 -0.29
12 0.33
13 0.28
14 0.3
15 0.27
16 0.28
18 0.28
19 0.28
2 -0.46
20 0.57
21 0.51
22 0.29
27 0.23
3 -0.56
4 -0.68
41 0.36
44 0.37
5 -0.68
53 0.4
54 0.4
55 0.4
6 -0.68
7 -0.57
8 -0.9
9 -0.73

>  <PUBCHEM_EFFECTIVE_ROTOR_COUNT>  (1) 
12.2

>  <PUBCHEM_PHARMACOPHORE_FEATURES>  (1) 
16
1 27 hydrophobe
1 28 hydrophobe
1 3 acceptor
1 4 acceptor
1 4 donor
1 5 acceptor
1 5 donor
1 6 acceptor
1 6 donor
1 7 acceptor
1 8 cation
1 8 donor
1 9 donor
4 17 23 24 26 hydrophobe
5 8 10 11 12 15 rings
6 3 13 16 18 19 21 rings

>  <PUBCHEM_HEAVY_ATOM_COUNT>  (1) 
28

>  <PUBCHEM_ATOM_DEF_STEREO_COUNT>  (1) 
4

>  <PUBCHEM_ATOM_UDEF_STEREO_COUNT>  (1) 
5

>  <PUBCHEM_BOND_DEF_STEREO_COUNT>  (1) 
0

>  <PUBCHEM_BOND_UDEF_STEREO_COUNT>  (1) 
0

>  <PUBCHEM_ISOTOPIC_ATOM_COUNT>  (1) 
0

>  <PUBCHEM_COMPONENT_COUNT>  (1) 
1

>  <PUBCHEM_CACTVS_TAUTO_COUNT>  (1) 
2

>  <PUBCHEM_CONFORMER_ID>  (1) 
00008DD700000001

>  <PUBCHEM_MMFF94_ENERGY>  (1) 
55.7506

>  <PUBCHEM_FEATURE_SELFOVERLAP>  (1) 
81.226

>  <PUBCHEM_SHAPE_FINGERPRINT>  (1) 
10066227 112 18407760356724542173
10411042 1 18048595916385448922
10625338 86 16515676712350229805
10763959 59 18186801392517226549
10835480 77 18336267932869134937
11135609 187 18122068873724489640
11186622 174 18411979131564435675
11421498 54 12613019583612001333
11578080 2 17344601937452772176
12166972 35 17775565356030405401
12236239 1 18130229349534141722
14117953 113 18130509635042607214
14294032 229 16486152591518532753
14347424 109 18334288743398860082
14790565 3 17905613551318393332
15142383 8 18113900454915210148
15183329 4 18272091578666429771
15276724 80 18335983086306414157
1577012 14 18413102888546374319
15840311 113 18259706683806747999
16087824 20 18336828602860131829
16120349 18 18409163342061971509
18335252 114 18339913841419776229
19377110 9 10953733383696214319
20511986 3 17845370115020056760
21033648 29 17822286925146511993
21298829 104 18343308037899120401
21792934 111 18410564068779002880
23559900 14 18059009604973431689
23576562 1 18269835484070338117
2838139 119 18413384329516748477
335352 9 18412263935151045143
34934 24 18340487876103585074
3633792 109 18342178851888128369
4073 2 18041001803471159963
57724786 102 17604714503459557277
58260988 393 14707196704378855078
6009941 240 17676494977131939153
6328613 192 18341055202296657649

>  <PUBCHEM_SHAPE_MULTIPOLES>  (1) 
542.64
20.92
3.21
1.06
40.89
1.14
-0.02
8.86
4.76
-3.7
-0.09
-0.08
0.05
0.46

>  <PUBCHEM_SHAPE_SELFOVERLAP>  (1) 
1064.013

>  <PUBCHEM_SHAPE_VOLUME>  (1) 
329

>  <PUBCHEM_COORDINATE_TYPE>  (1) 
2
5
10

$$$$
