36327
     RDKit          3D

 20 21  0  0  0  0  0  0  0  0999 V2000
   -0.7653    1.7415    1.8527 Cl  0  0  0  0  0  0  0  0  0  0  0  0
    0.7653    1.7438   -1.8505 Cl  0  0  0  0  0  0  0  0  0  0  0  0
   -0.3927   -2.1075   -1.9939 Cl  0  0  0  0  0  0  0  0  0  0  0  0
    0.3927   -2.1100    1.9913 Cl  0  0  0  0  0  0  0  0  0  0  0  0
   -3.9040    1.7213    1.4997 Cl  0  0  0  0  0  0  0  0  0  0  0  0
    3.9040    1.7232   -1.4976 Cl  0  0  0  0  0  0  0  0  0  0  0  0
   -5.2091   -0.2610   -0.6300 Cl  0  0  0  0  0  0  0  0  0  0  0  0
    5.2090   -0.2618    0.6297 Cl  0  0  0  0  0  0  0  0  0  0  0  0
   -0.7242   -0.1726   -0.0770 C   0  0  0  0  0  0  0  0  0  0  0  0
    0.7242   -0.1726    0.0768 C   0  0  0  0  0  0  0  0  0  0  0  0
   -1.5171    0.6750    0.6967 C   0  0  0  0  0  0  0  0  0  0  0  0
    1.5171    0.6759   -0.6959 C   0  0  0  0  0  0  0  0  0  0  0  0
   -1.3179   -1.0300   -1.0034 C   0  0  0  0  0  0  0  0  0  0  0  0
    1.3179   -1.0312    1.0021 C   0  0  0  0  0  0  0  0  0  0  0  0
   -2.9035    0.6653    0.5439 C   0  0  0  0  0  0  0  0  0  0  0  0
    2.9035    0.6661   -0.5432 C   0  0  0  0  0  0  0  0  0  0  0  0
   -2.7043   -1.0398   -1.1561 C   0  0  0  0  0  0  0  0  0  0  0  0
    2.7043   -1.0412    1.1548 C   0  0  0  0  0  0  0  0  0  0  0  0
   -3.4971   -0.1920   -0.3825 C   0  0  0  0  0  0  0  0  0  0  0  0
    3.4971   -0.1925    0.3822 C   0  0  0  0  0  0  0  0  0  0  0  0
  1 11  1  0
  2 12  1  0
  3 13  1  0
  4 14  1  0
  5 15  1  0
  6 16  1  0
  7 19  1  0
  8 20  1  0
  9 10  1  0
  9 11  2  0
  9 13  1  0
 10 12  2  0
 10 14  1  0
 11 15  1  0
 12 16  1  0
 13 17  2  0
 14 18  2  0
 15 19  2  0
 16 20  2  0
 17 19  1  0
 18 20  1  0
M  END
>  <PUBCHEM_COMPOUND_CID>  (1) 
36327

>  <PUBCHEM_CONFORMER_RMSD>  (1) 
0.6

>  <PUBCHEM_CONFORMER_DIVERSEORDER>  (1) 
1
2

>  <PUBCHEM_MMFF94_PARTIAL_CHARGES>  (1) 
20
1 -0.18
11 0.18
12 0.18
13 0.18
14 0.18
15 0.18
16 0.18
17 -0.15
18 -0.15
19 0.18
2 -0.18
20 0.18
21 0.15
22 0.15
3 -0.18
4 -0.18
5 -0.18
6 -0.18
7 -0.18
8 -0.18

>  <PUBCHEM_EFFECTIVE_ROTOR_COUNT>  (1) 
1

>  <PUBCHEM_PHARMACOPHORE_FEATURES>  (1) 
2
6 10 12 14 16 18 20 rings
6 9 11 13 15 17 19 rings

>  <PUBCHEM_HEAVY_ATOM_COUNT>  (1) 
20

>  <PUBCHEM_ATOM_DEF_STEREO_COUNT>  (1) 
0

>  <PUBCHEM_ATOM_UDEF_STEREO_COUNT>  (1) 
0

>  <PUBCHEM_BOND_DEF_STEREO_COUNT>  (1) 
0

>  <PUBCHEM_BOND_UDEF_STEREO_COUNT>  (1) 
0

>  <PUBCHEM_ISOTOPIC_ATOM_COUNT>  (1) 
0

>  <PUBCHEM_COMPONENT_COUNT>  (1) 
1

>  <PUBCHEM_CACTVS_TAUTO_COUNT>  (1) 
1

>  <PUBCHEM_CONFORMER_ID>  (1) 
00008DE700000001

>  <PUBCHEM_MMFF94_ENERGY>  (1) 
58.3405

>  <PUBCHEM_FEATURE_SELFOVERLAP>  (1) 
10.149

>  <PUBCHEM_SHAPE_FINGERPRINT>  (1) 
10498660 4 17632018542177813505
10863032 1 17895480344075083075
11370993 70 17530964704912189267
11578080 2 17834064854337211008
11640471 11 18338531788571773060
12236239 1 18410569587105017995
12592029 89 17385710388066254659
13140716 1 17531810289926303864
13538477 17 18341604984054221327
13583140 156 17895766226199981229
13965767 371 17909563761003929513
15219456 202 16225768535964824580
15309172 13 17458347446301659346
15342168 16 17168995654320824844
16752209 62 17917706903385747935
16945 1 18410856563934847814
1813 80 18045500816611443334
18175812 5 15719395044272562710
18186145 218 18040438806420095750
18219364 16 17240201045079290866
200 152 18041271110878613339
20510252 161 17203891838425293137
20645476 183 18264488554318162767
20645477 70 17385996252399340626
21756936 100 18118991271662942540
23175994 123 16805322163232960916
23184049 59 17603868914297550396
23366157 5 17983590606469310999
23402539 116 17275094024985442013
23419403 2 14813782399571649783
23493267 7 18271817808645075531
23557571 272 16917348142864325752
23559900 14 16988574463858275356
23569943 247 17975129847773161514
23598291 2 18336549309193362293
2748010 2 17416415260364335943
298252 57 18202006542189483414
350125 39 16982396144517821089
4340502 62 17894915144191977123
474 4 18115590490677422084
633830 44 18261972763917226100
77492 1 18410570690911574083
8272917 22 17968090868366816015

>  <PUBCHEM_SHAPE_MULTIPOLES>  (1) 
426.55
8.31
2.04
2
0
0.08
0
-1.59
0
0
0
0
0.07
-2.22

>  <PUBCHEM_SHAPE_SELFOVERLAP>  (1) 
855.172

>  <PUBCHEM_SHAPE_VOLUME>  (1) 
243

>  <PUBCHEM_COORDINATE_TYPE>  (1) 
2
5
10

$$$$
