36324
     RDKit          3D

 22 23  0  0  0  0  0  0  0  0999 V2000
    0.0001    2.1196   -0.0914 N   0  0  0  0  0  0  0  0  0  0  0  0
    1.4904    0.2314    0.1771 N   0  0  0  0  0  0  0  0  0  0  0  0
   -1.4908    0.2325    0.1767 N   0  0  0  0  0  0  0  0  0  0  0  0
    3.5334   -0.4786   -0.9309 C   0  0  0  0  0  0  0  0  0  0  0  0
   -3.5339   -0.4782   -0.9310 C   0  0  0  0  0  0  0  0  0  0  0  0
    2.8475   -0.1279    0.2291 C   0  0  0  0  0  0  0  0  0  0  0  0
   -2.8481   -0.1263    0.2287 C   0  0  0  0  0  0  0  0  0  0  0  0
    5.5382   -0.8333    0.3700 C   0  0  0  0  0  0  0  0  0  0  0  0
   -5.5382   -0.8337    0.3701 C   0  0  0  0  0  0  0  0  0  0  0  0
    4.8809   -0.8319   -0.8605 C   0  0  0  0  0  0  0  0  0  0  0  0
   -4.8811   -0.8323   -0.8604 C   0  0  0  0  0  0  0  0  0  0  0  0
    3.5003   -0.1283    1.4592 C   0  0  0  0  0  0  0  0  0  0  0  0
   -3.5009   -0.1264    1.4589 C   0  0  0  0  0  0  0  0  0  0  0  0
    4.8479   -0.4815    1.5297 C   0  0  0  0  0  0  0  0  0  0  0  0
   -4.8482   -0.4808    1.5297 C   0  0  0  0  0  0  0  0  0  0  0  0
    2.8510   -0.4845   -2.2597 C   0  0  0  0  0  0  0  0  0  0  0  0
   -2.8514   -0.4841   -2.2598 C   0  0  0  0  0  0  0  0  0  0  0  0
    6.9789   -1.2114    0.4459 C   0  0  0  0  0  0  0  0  0  0  0  0
   -6.9789   -1.2120    0.4462 C   0  0  0  0  0  0  0  0  0  0  0  0
    1.2418    1.4909   -0.0035 C   0  0  0  0  0  0  0  0  0  0  0  0
   -1.2418    1.4920   -0.0037 C   0  0  0  0  0  0  0  0  0  0  0  0
    0.0031    3.5848   -0.2202 C   0  0  0  0  0  0  0  0  0  0  0  0
  1 20  1  0
  1 21  1  0
  1 22  1  0
  2  6  1  0
  2 20  2  0
  3  7  1  0
  3 21  2  0
  4  6  2  0
  4 10  1  0
  4 16  1  0
  5  7  2  0
  5 11  1  0
  5 17  1  0
  6 12  1  0
  7 13  1  0
  8 10  2  0
  8 14  1  0
  8 18  1  0
  9 11  2  0
  9 15  1  0
  9 19  1  0
 12 14  2  0
 13 15  2  0
M  END
>  <PUBCHEM_COMPOUND_CID>  (1) 
36324

>  <PUBCHEM_CONFORMER_RMSD>  (1) 
0.6

>  <PUBCHEM_CONFORMER_DIVERSEORDER>  (1) 
2
26
19
1
4
43
35
7
3
37
33
24
21
41
18
8
16
10
17
38
34
42
9
25
30
40
14
32
11
5
28
23
22
29
39
6
13
27
20
12
31
15
36

>  <PUBCHEM_MMFF94_PARTIAL_CHARGES>  (1) 
30
1 -0.47
10 -0.15
11 -0.15
12 -0.15
13 -0.15
14 -0.15
15 -0.15
16 0.14
17 0.14
18 0.14
19 0.14
2 -0.63
20 0.44
21 0.44
22 0.37
23 0.15
24 0.15
25 0.15
26 0.15
27 0.15
28 0.15
3 -0.63
4 -0.14
41 0.06
42 0.06
5 -0.14
6 0.18
7 0.18
8 -0.14
9 -0.14

>  <PUBCHEM_EFFECTIVE_ROTOR_COUNT>  (1) 
4

>  <PUBCHEM_PHARMACOPHORE_FEATURES>  (1) 
4
3 1 2 20 cation
3 1 3 21 cation
6 4 6 8 10 12 14 rings
6 5 7 9 11 13 15 rings

>  <PUBCHEM_HEAVY_ATOM_COUNT>  (1) 
22

>  <PUBCHEM_ATOM_DEF_STEREO_COUNT>  (1) 
0

>  <PUBCHEM_ATOM_UDEF_STEREO_COUNT>  (1) 
0

>  <PUBCHEM_BOND_DEF_STEREO_COUNT>  (1) 
0

>  <PUBCHEM_BOND_UDEF_STEREO_COUNT>  (1) 
0

>  <PUBCHEM_ISOTOPIC_ATOM_COUNT>  (1) 
0

>  <PUBCHEM_COMPONENT_COUNT>  (1) 
1

>  <PUBCHEM_CACTVS_TAUTO_COUNT>  (1) 
1

>  <PUBCHEM_CONFORMER_ID>  (1) 
00008DE400000002

>  <PUBCHEM_MMFF94_ENERGY>  (1) 
60.5597

>  <PUBCHEM_FEATURE_SELFOVERLAP>  (1) 
20.665

>  <PUBCHEM_SHAPE_FINGERPRINT>  (1) 
10354089 29 14908180850631920282
10595046 47 15140679176577838538
10670039 82 8718560431927635698
11370993 144 16200157543078864356
12107183 9 15335215627025493507
12166972 35 17530685407499520452
12236239 1 17531248323393837802
12363563 72 18408606963250160040
12516196 113 18409728477984766200
12553582 1 18410292510190597246
12596602 18 14333407856718837646
12633257 1 18410858806287968159
12760667 363 18260268529763721889
12892183 10 16056609711450573913
13583140 156 15625933201584466465
13668630 136 17822011986852154050
13673619 4 17676489475801149701
13685833 64 18335422391621766531
14251752 14 17531240617990673341
14341114 176 15769783441986551378
14341114 328 15123508133514669666
14849402 71 16414337031661775448
15183329 4 15068618275393837938
15188451 53 17489298742132564935
15537594 2 18341890788142071910
17780758 139 17203604900255696483
1813 80 18342468040304712973
18222031 100 18411985775298535441
21756936 100 13613939133755445396
21859007 373 17559687135886211817
221357 26 14923941253924442726
22224240 67 16988835090947855310
23198884 109 13839982196743189595
23402539 116 18336543824773254932
23559900 14 15719678761549002999
2767999 5 9655577404770728946
3004659 81 17167860872379318162
312425 54 17060627680681404783
314173 85 18343023276433443489
351380 3 18409446985786014306
3737641 26 17916028958437451454
4325135 7 18342740741496583644
59682541 52 14562802244839832810
7970288 3 18408886239161937067
8863177 126 17823992336427498355
9663363 56 18408595968033402312

>  <PUBCHEM_SHAPE_MULTIPOLES>  (1) 
437.81
16.67
1.92
1.7
0.01
2.59
0.56
-11.32
-3.73
0
0.17
0
-0.46
0

>  <PUBCHEM_SHAPE_SELFOVERLAP>  (1) 
919.416

>  <PUBCHEM_SHAPE_VOLUME>  (1) 
247.1

>  <PUBCHEM_COORDINATE_TYPE>  (1) 
2
5
10

$$$$
