36335
     RDKit          3D

 12 12  0  0  0  0  0  0  0  0999 V2000
    0.0015    2.8860   -0.3483 Br  0  0  0  0  0  0  0  0  0  0  0  0
    0.0031   -2.8855   -0.3498 Br  0  0  0  0  0  0  0  0  0  0  0  0
    2.2384   -0.0024    1.4810 O   0  0  0  0  0  0  0  0  0  0  0  0
    1.1785    0.0006   -0.6234 N   0  0  0  0  0  0  0  0  0  0  0  0
   -0.1858    0.0003   -0.3048 C   0  0  0  0  0  0  0  0  0  0  0  0
   -0.8655    1.2080   -0.1460 C   0  0  0  0  0  0  0  0  0  0  0  0
   -0.8647   -1.2080   -0.1463 C   0  0  0  0  0  0  0  0  0  0  0  0
   -2.2239    1.2075    0.1711 C   0  0  0  0  0  0  0  0  0  0  0  0
   -2.2231   -1.2083    0.1709 C   0  0  0  0  0  0  0  0  0  0  0  0
   -2.9027   -0.0006    0.3296 C   0  0  0  0  0  0  0  0  0  0  0  0
    2.2659    0.0009    0.2545 C   0  0  0  0  0  0  0  0  0  0  0  0
    3.5784    0.0014   -0.4884 C   0  0  0  0  0  0  0  0  0  0  0  0
  1  6  1  0
  2  7  1  0
  3 11  2  0
  4  5  1  0
  4 11  1  0
  5  6  2  0
  5  7  1  0
  6  8  1  0
  7  9  2  0
  8 10  2  0
  9 10  1  0
 11 12  1  0
M  END
>  <PUBCHEM_COMPOUND_CID>  (1) 
36335

>  <PUBCHEM_CONFORMER_RMSD>  (1) 
0.6

>  <PUBCHEM_CONFORMER_DIVERSEORDER>  (1) 
1

>  <PUBCHEM_MMFF94_PARTIAL_CHARGES>  (1) 
16
1 -0.11
10 -0.15
11 0.57
12 0.06
13 0.37
14 0.15
15 0.15
16 0.15
2 -0.11
3 -0.57
4 -0.55
5 0.12
6 0.11
7 0.11
8 -0.15
9 -0.15

>  <PUBCHEM_EFFECTIVE_ROTOR_COUNT>  (1) 
2

>  <PUBCHEM_PHARMACOPHORE_FEATURES>  (1) 
5
1 1 hydrophobe
1 2 hydrophobe
1 3 acceptor
1 4 donor
6 5 6 7 8 9 10 rings

>  <PUBCHEM_HEAVY_ATOM_COUNT>  (1) 
12

>  <PUBCHEM_ATOM_DEF_STEREO_COUNT>  (1) 
0

>  <PUBCHEM_ATOM_UDEF_STEREO_COUNT>  (1) 
0

>  <PUBCHEM_BOND_DEF_STEREO_COUNT>  (1) 
0

>  <PUBCHEM_BOND_UDEF_STEREO_COUNT>  (1) 
0

>  <PUBCHEM_ISOTOPIC_ATOM_COUNT>  (1) 
0

>  <PUBCHEM_COMPONENT_COUNT>  (1) 
1

>  <PUBCHEM_CACTVS_TAUTO_COUNT>  (1) 
2

>  <PUBCHEM_CONFORMER_ID>  (1) 
00008DEF00000001

>  <PUBCHEM_MMFF94_ENERGY>  (1) 
49.4324

>  <PUBCHEM_FEATURE_SELFOVERLAP>  (1) 
25.371

>  <PUBCHEM_SHAPE_FINGERPRINT>  (1) 
10857977 72 18412541028807673433
12423570 1 11102010266290676445
14993402 34 18408885174109416959
15076042 46 18117267065283264162
15375462 175 18338803312478010832
161256 15 17980212880820216727
16945 1 18410859858670499661
193761 8 17689720757620722421
20510252 161 18271811198279054480
20645464 45 17917415558468774186
20871998 184 18341338902013647567
21501502 16 17908142083963000459
23402539 116 18343293777779074398
23419403 2 16115353504082333101
23463225 33 18262518083283449082
23552423 10 17614003314628658981
2748010 2 18049735022846136911
3250762 1 17689721857037346263
43471831 8 18335984168622530018
5084963 1 18060426836522189531
54338 74 18194945547351167415
589210 1 17690279313717052855
7364860 26 17981049935370548044
81228 2 18054489564011389030

>  <PUBCHEM_SHAPE_MULTIPOLES>  (1) 
247.99
4.14
2.89
0.85
2.28
0
0.17
0
0.47
-0.58
-0.55
0.37
0
0

>  <PUBCHEM_SHAPE_SELFOVERLAP>  (1) 
482.584

>  <PUBCHEM_SHAPE_VOLUME>  (1) 
154.6

>  <PUBCHEM_COORDINATE_TYPE>  (1) 
2
5
10

$$$$
