36332
     RDKit          3D

 12 12  0  0  0  0  0  0  0  0999 V2000
    2.7222    1.3326    0.2042 O   0  0  0  0  0  0  0  0  0  0  0  0
    1.2195   -0.4485   -0.1499 N   0  0  0  0  0  0  0  0  0  0  0  0
   -1.2027   -0.5840   -0.2605 C   0  0  0  0  0  0  0  0  0  0  0  0
   -1.1503   -2.0575   -0.5038 C   0  0  0  0  0  0  0  0  0  0  0  0
   -0.0359    0.1622   -0.0939 C   0  0  0  0  0  0  0  0  0  0  0  0
   -2.4467    0.0443   -0.2012 C   0  0  0  0  0  0  0  0  0  0  0  0
   -0.1133    1.5365    0.1320 C   0  0  0  0  0  0  0  0  0  0  0  0
   -1.1806   -2.8587    0.7938 C   0  0  0  0  0  0  0  0  0  0  0  0
   -2.5239    1.4187    0.0248 C   0  0  0  0  0  0  0  0  0  0  0  0
   -1.3572    2.1647    0.1915 C   0  0  0  0  0  0  0  0  0  0  0  0
    2.4773    0.1490   -0.0048 C   0  0  0  0  0  0  0  0  0  0  0  0
    3.5916   -0.8594   -0.1322 C   0  0  0  0  0  0  0  0  0  0  0  0
  1 11  2  0
  2  5  1  0
  2 11  1  0
  3  4  1  0
  3  5  2  0
  3  6  1  0
  4  8  1  0
  5  7  1  0
  6  9  2  0
  7 10  2  0
  9 10  1  0
 11 12  1  0
M  END
>  <PUBCHEM_COMPOUND_CID>  (1) 
36332

>  <PUBCHEM_CONFORMER_RMSD>  (1) 
0.6

>  <PUBCHEM_CONFORMER_DIVERSEORDER>  (1) 
1
5
3
6
2
4

>  <PUBCHEM_MMFF94_PARTIAL_CHARGES>  (1) 
16
1 -0.57
10 -0.15
11 0.57
12 0.06
15 0.15
16 0.15
2 -0.55
20 0.37
21 0.15
22 0.15
3 -0.14
4 0.14
5 0.12
6 -0.15
7 -0.15
9 -0.15

>  <PUBCHEM_EFFECTIVE_ROTOR_COUNT>  (1) 
3

>  <PUBCHEM_PHARMACOPHORE_FEATURES>  (1) 
4
1 1 acceptor
1 2 donor
1 8 hydrophobe
6 3 5 6 7 9 10 rings

>  <PUBCHEM_HEAVY_ATOM_COUNT>  (1) 
12

>  <PUBCHEM_ATOM_DEF_STEREO_COUNT>  (1) 
0

>  <PUBCHEM_ATOM_UDEF_STEREO_COUNT>  (1) 
0

>  <PUBCHEM_BOND_DEF_STEREO_COUNT>  (1) 
0

>  <PUBCHEM_BOND_UDEF_STEREO_COUNT>  (1) 
0

>  <PUBCHEM_ISOTOPIC_ATOM_COUNT>  (1) 
0

>  <PUBCHEM_COMPONENT_COUNT>  (1) 
1

>  <PUBCHEM_CACTVS_TAUTO_COUNT>  (1) 
2

>  <PUBCHEM_CONFORMER_ID>  (1) 
00008DEC00000001

>  <PUBCHEM_MMFF94_ENERGY>  (1) 
32.5754

>  <PUBCHEM_FEATURE_SELFOVERLAP>  (1) 
20.297

>  <PUBCHEM_SHAPE_FINGERPRINT>  (1) 
12423570 1 11045658083395578599
12716758 59 18411694387616219090
12932764 1 17458334235256485292
13024252 1 14056724526043788973
13380535 76 18270398278740337078
14325111 11 18340768130977391180
16945 1 18410293652667943141
193761 8 17906732862518082861
20510252 161 18272651212298911545
20645476 183 17969523566008184390
20871998 184 18200880689648535719
20871998 22 17906463473146995395
21524375 3 18197777700478796677
23402539 116 18271793606330036245
23552423 10 18189896594393877156
23559900 14 18271524196813375270
2748010 2 17836920470833644525
305870 269 17903357009132053009
43471831 8 18119247268561350459
528862 383 17829606154497861043
7364860 26 17548697383415409951
81228 2 18338508767741764849
8809292 202 18411421713333693226

>  <PUBCHEM_SHAPE_MULTIPOLES>  (1) 
236.1
4.42
2.69
0.7
4.33
1.38
-0.03
-0.61
0.12
-1.51
-0.5
-0.11
0.2
0.11

>  <PUBCHEM_SHAPE_SELFOVERLAP>  (1) 
481.135

>  <PUBCHEM_SHAPE_VOLUME>  (1) 
137

>  <PUBCHEM_COORDINATE_TYPE>  (1) 
2
5
10

$$$$
