36340
     RDKit          3D

 21 21  0  0  0  0  0  0  0  0999 V2000
    4.7264   -1.5154    1.3433 O   0  0  0  0  0  0  0  0  0  0  0  0
    3.5179   -1.3722   -0.6317 N   0  0  0  0  0  0  0  0  0  0  0  0
   -3.1931   -0.9607    0.2643 C   0  0  0  0  0  0  0  0  0  0  0  0
   -1.8350   -0.9522   -0.4435 C   0  0  0  0  0  0  0  0  0  0  0  0
   -4.2516   -0.1062   -0.4386 C   0  0  0  0  0  0  0  0  0  0  0  0
   -0.7988   -1.8639    0.2175 C   0  0  0  0  0  0  0  0  0  0  0  0
   -5.6040   -0.2105    0.2717 C   0  0  0  0  0  0  0  0  0  0  0  0
    0.5461   -1.7928   -0.5108 C   0  0  0  0  0  0  0  0  0  0  0  0
   -6.6990    0.6424   -0.3754 C   0  0  0  0  0  0  0  0  0  0  0  0
   -8.0308    0.5961    0.3769 C   0  0  0  0  0  0  0  0  0  0  0  0
    1.5923   -2.6819    0.1678 C   0  0  0  0  0  0  0  0  0  0  0  0
   -9.0636    1.5202   -0.2699 C   0  0  0  0  0  0  0  0  0  0  0  0
    2.9283   -2.6807   -0.5677 C   0  0  0  0  0  0  0  0  0  0  0  0
  -10.3779    1.5087    0.4943 C   0  0  0  0  0  0  0  0  0  0  0  0
    4.3823   -0.8890    0.3444 C   0  0  0  0  0  0  0  0  0  0  0  0
    4.8863    0.4942    0.1458 C   0  0  0  0  0  0  0  0  0  0  0  0
    5.2619    1.2645    1.2466 C   0  0  0  0  0  0  0  0  0  0  0  0
    4.9847    1.0229   -1.1413 C   0  0  0  0  0  0  0  0  0  0  0  0
    5.7354    2.5632    1.0603 C   0  0  0  0  0  0  0  0  0  0  0  0
    5.4584    2.3216   -1.3275 C   0  0  0  0  0  0  0  0  0  0  0  0
    5.8338    3.0917   -0.2266 C   0  0  0  0  0  0  0  0  0  0  0  0
  1 15  2  0
  2 13  1  0
  2 15  1  0
  3  4  1  0
  3  5  1  0
  4  6  1  0
  5  7  1  0
  6  8  1  0
  7  9  1  0
  8 11  1  0
  9 10  1  0
 10 12  1  0
 11 13  1  0
 12 14  1  0
 15 16  1  0
 16 17  2  0
 16 18  1  0
 17 19  1  0
 18 20  2  0
 19 21  2  0
 20 21  1  0
M  END
>  <PUBCHEM_COMPOUND_CID>  (1) 
36340

>  <PUBCHEM_CONFORMER_RMSD>  (1) 
1.4

>  <PUBCHEM_CONFORMER_DIVERSEORDER>  (1) 
1
36
29
51
16
30
38
47
33
54
26
41
44
2
17
6
24
25
19
20
11
45
4
23
53
21
37
7
3
13
55
28
42
27
18
10
43
32
49
34
8
12
22
50
35
14
52
57
5
48
39
40
31
15
9
56
46

>  <PUBCHEM_MMFF94_PARTIAL_CHARGES>  (1) 
16
1 -0.57
13 0.3
15 0.54
16 0.09
17 -0.15
18 -0.15
19 -0.15
2 -0.73
20 -0.15
21 -0.15
47 0.37
48 0.15
49 0.15
50 0.15
51 0.15
52 0.15

>  <PUBCHEM_EFFECTIVE_ROTOR_COUNT>  (1) 
13

>  <PUBCHEM_PHARMACOPHORE_FEATURES>  (1) 
4
1 1 acceptor
1 14 hydrophobe
1 2 donor
6 16 17 18 19 20 21 rings

>  <PUBCHEM_HEAVY_ATOM_COUNT>  (1) 
21

>  <PUBCHEM_ATOM_DEF_STEREO_COUNT>  (1) 
0

>  <PUBCHEM_ATOM_UDEF_STEREO_COUNT>  (1) 
0

>  <PUBCHEM_BOND_DEF_STEREO_COUNT>  (1) 
0

>  <PUBCHEM_BOND_UDEF_STEREO_COUNT>  (1) 
0

>  <PUBCHEM_ISOTOPIC_ATOM_COUNT>  (1) 
0

>  <PUBCHEM_COMPONENT_COUNT>  (1) 
1

>  <PUBCHEM_CACTVS_TAUTO_COUNT>  (1) 
2

>  <PUBCHEM_CONFORMER_ID>  (1) 
00008DF400000001

>  <PUBCHEM_MMFF94_ENERGY>  (1) 
19.0584

>  <PUBCHEM_FEATURE_SELFOVERLAP>  (1) 
20.297

>  <PUBCHEM_SHAPE_FINGERPRINT>  (1) 
10066227 49 9223226348356181829
10319688 67 16588027927162752283
11211813 74 18412545376143057309
11408170 132 14261081914020509011
11578821 258 18340205177879821037
125118 31 18408605829964258893
12539765 74 17988368075234840015
13944108 23 18340771533277707552
14142895 15 18341893022511009255
14251757 52 18408602561367507473
14537116 161 17060337418364961937
14565420 104 18186517692025095291
14598715 104 17531798058012744413
14617042 71 18412268316545863689
15152005 1 9005968356324027024
15183329 4 17775288270457841841
15475509 35 11386364876702281934
155225 6 18190185783332948532
15840311 113 18410578358024446463
1754908 1 17095251307195049785
17810953 82 18336263535618766958
19301679 30 11674866776175545359
20058555 10 18411136892836428605
20165401 70 7925625597059553961
20621476 38 8935000374197574559
20721686 146 17559380566022116248
20771845 171 17059781014216104287
21344244 181 11095879376400829053
270888 7 18268146638473099972
33532 11 8862936174700301497
3472631 163 18130508642999671942
34797466 226 18059296457624165503
406291 66 8430324532463558805
444735 82 18409451354469569213
445580 126 18341886399075255530
465052 167 7853579015296440010
54583773 228 18342734170687127719
57676310 1 17329714219459906829
59521506 201 17487600052402942248
59682541 35 17968101924382542113
59682541 52 16486984977090837366
60111433 81 17915171545458437576
6438161 24 10447928347735740287
6898599 12 17987794249902161135

>  <PUBCHEM_SHAPE_MULTIPOLES>  (1) 
421.32
29.51
3.37
1.06
78.95
0.18
-0.03
27.81
-2.59
-6.27
0.12
-1.64
0.32
-0.38

>  <PUBCHEM_SHAPE_SELFOVERLAP>  (1) 
817.406

>  <PUBCHEM_SHAPE_VOLUME>  (1) 
254.5

>  <PUBCHEM_COORDINATE_TYPE>  (1) 
2
5
10

$$$$
