36348
     RDKit          3D

 22 24  0  0  0  0  0  0  0  0999 V2000
    1.0996   -0.9035   -0.4851 O   0  0  0  0  0  0  0  0  0  0  0  0
    0.9762    1.3545   -0.4520 N   0  0  0  0  0  0  0  0  0  0  0  0
    3.9415    0.2031    0.4123 N   0  0  0  0  0  0  0  0  0  0  0  0
    6.0070    0.1942    1.4437 N   0  0  0  0  0  0  0  0  0  0  0  0
    5.9940    0.2583   -0.8346 N   0  0  0  0  0  0  0  0  0  0  0  0
   -0.1960   -0.5535   -0.2517 C   0  0  0  0  0  0  0  0  0  0  0  0
   -0.2609    0.8138   -0.2333 C   0  0  0  0  0  0  0  0  0  0  0  0
   -1.1181   -1.6404   -0.0926 C   0  0  0  0  0  0  0  0  0  0  0  0
   -1.4476    1.5936   -0.0176 C   0  0  0  0  0  0  0  0  0  0  0  0
    1.7383    0.2936   -0.5934 C   0  0  0  0  0  0  0  0  0  0  0  0
    3.1847    0.2316   -0.8529 C   0  0  0  0  0  0  0  0  0  0  0  0
   -2.4580   -1.4906   -0.4662 C   0  0  0  0  0  0  0  0  0  0  0  0
   -0.6853   -2.8600    0.4387 C   0  0  0  0  0  0  0  0  0  0  0  0
   -1.8116    1.9663    1.2764 C   0  0  0  0  0  0  0  0  0  0  0  0
   -2.2359    1.9785   -1.1019 C   0  0  0  0  0  0  0  0  0  0  0  0
   -3.3545   -2.5479   -0.3101 C   0  0  0  0  0  0  0  0  0  0  0  0
   -1.5817   -3.9174    0.5946 C   0  0  0  0  0  0  0  0  0  0  0  0
   -2.9640    2.7237    1.4860 C   0  0  0  0  0  0  0  0  0  0  0  0
   -3.3883    2.7361   -0.8924 C   0  0  0  0  0  0  0  0  0  0  0  0
   -2.9163   -3.7612    0.2203 C   0  0  0  0  0  0  0  0  0  0  0  0
   -3.7523    3.1087    0.4016 C   0  0  0  0  0  0  0  0  0  0  0  0
    5.2292    0.2186    0.3101 C   0  0  0  0  0  0  0  0  0  0  0  0
  1  6  1  0
  1 10  1  0
  2  7  1  0
  2 10  2  0
  3 11  1  0
  3 22  2  3
  4 22  1  0
  5 22  1  0
  6  7  2  0
  6  8  1  0
  7  9  1  0
  8 12  2  0
  8 13  1  0
  9 14  2  0
  9 15  1  0
 10 11  1  0
 12 16  1  0
 13 17  2  0
 14 18  1  0
 15 19  2  0
 16 20  2  0
 17 20  1  0
 18 21  2  0
 19 21  1  0
M  END
>  <PUBCHEM_COMPOUND_CID>  (1) 
36348

>  <PUBCHEM_CONFORMER_RMSD>  (1) 
0.6

>  <PUBCHEM_CONFORMER_DIVERSEORDER>  (1) 
1
55
43
7
49
34
53
51
19
24
3
48
32
41
47
27
45
56
15
54
46
42
40
11
4
25
8
21
31
35
38
16
29
30
33
2
23
20
18
52
37
5
10
44
12
17
6
50
14
22
9
39
13
36
28
26

>  <PUBCHEM_MMFF94_PARTIAL_CHARGES>  (1) 
36
1 -0.28
10 0.3
11 0.43
12 -0.15
13 -0.15
14 -0.15
15 -0.15
16 -0.15
17 -0.15
18 -0.15
19 -0.15
2 -0.57
20 -0.15
21 -0.15
22 0.55
25 0.15
26 0.15
27 0.15
28 0.15
29 0.15
3 -0.7
30 0.15
31 0.15
32 0.15
33 0.15
34 0.15
35 0.4
36 0.4
37 0.4
38 0.4
4 -0.85
5 -0.85
6 0.09
7 0.17
8 0.05
9 0.05

>  <PUBCHEM_EFFECTIVE_ROTOR_COUNT>  (1) 
4

>  <PUBCHEM_PHARMACOPHORE_FEATURES>  (1) 
6
1 4 donor
1 5 donor
4 3 4 5 22 cation
5 1 2 6 7 10 rings
6 8 12 13 16 17 20 rings
6 9 14 15 18 19 21 rings

>  <PUBCHEM_HEAVY_ATOM_COUNT>  (1) 
22

>  <PUBCHEM_ATOM_DEF_STEREO_COUNT>  (1) 
0

>  <PUBCHEM_ATOM_UDEF_STEREO_COUNT>  (1) 
0

>  <PUBCHEM_BOND_DEF_STEREO_COUNT>  (1) 
0

>  <PUBCHEM_BOND_UDEF_STEREO_COUNT>  (1) 
0

>  <PUBCHEM_ISOTOPIC_ATOM_COUNT>  (1) 
0

>  <PUBCHEM_COMPONENT_COUNT>  (1) 
1

>  <PUBCHEM_CACTVS_TAUTO_COUNT>  (1) 
2

>  <PUBCHEM_CONFORMER_ID>  (1) 
00008DFC00000001

>  <PUBCHEM_MMFF94_ENERGY>  (1) 
59.4244

>  <PUBCHEM_FEATURE_SELFOVERLAP>  (1) 
30.502

>  <PUBCHEM_SHAPE_FINGERPRINT>  (1) 
10319926 262 18341877607910054274
10411042 1 17977950407955480079
1100329 8 18339367469634221281
11036077 4 18263630806594508042
11056379 131 18339372967144705798
11443803 9 16230498557889467285
11582403 64 16445848849824553061
12107183 9 18118392948727929058
121448 382 18341605976313050997
12523318 42 18338499946364339922
12532896 13 18268155262155656879
12788726 201 18192161601327046918
13004483 165 18123191469993729747
13052359 8 18409167697169008325
13134695 92 17693093385317534287
13140716 1 18122351447558161075
13149001 5 17552959167652059895
13899415 180 17839449326351042007
13955234 65 17473556746331694201
14178000 22 18264203617123083509
14178342 30 18409730660413714902
14866123 147 18409731746455274843
15842332 3 17750532822056155316
15927050 60 18268150851246005431
17138139 8 17912044397492193581
19591789 44 18121515552749609591
204376 136 18265336101220078469
21033648 29 18193263110384420432
21236236 1 18412544318968705220
22182313 1 17774459225763191302
22224240 67 18270408179347200153
2255824 54 17476082328703358471
23419403 2 17345180298165336041
23557571 272 18201170909621545468
23558518 356 18189060965625657320
23559900 14 18192986248106756804
23929065 36 18198883950688629888
255183 451 8284184061149748409
283562 15 18337668727805086554
3091708 16 9055885071621421875
394222 165 16909199422221615073
4073 2 18341612599901558042
4409770 3 18335976550072817807
497634 4 18187365493342139524
5104073 3 18339910581639754488
53917941 68 18339067195184690765
58779409 54 18412256268328538271
59755656 520 18268434538035453708
633830 44 17627235554727488373
7226269 152 18337105778199649327
77188 2 17906174310616174695
81228 2 18266196074274408039
9981440 41 17560225934831851598

>  <PUBCHEM_SHAPE_MULTIPOLES>  (1) 
426.96
9.39
4.8
1.12
21.43
3.46
-0.22
-3.36
-1.23
-8.8
-0.91
0.03
-0.6
-0.26

>  <PUBCHEM_SHAPE_SELFOVERLAP>  (1) 
934.436

>  <PUBCHEM_SHAPE_VOLUME>  (1) 
231.6

>  <PUBCHEM_COORDINATE_TYPE>  (1) 
2
5
10

$$$$
