3635
     RDKit          3D

 26 28  0  0  0  0  0  0  0  0999 V2000
   -3.5845   -0.7212   -0.5518 S   0  0  0  0  0  0  0  0  0  0  0  0
   -0.1636    1.4050    1.2638 O   0  0  0  0  0  0  0  0  0  0  0  0
   -3.5460   -4.1969   -0.0022 O   0  0  0  0  0  0  0  0  0  0  0  0
    4.3833    0.6309   -0.4318 N   0  0  0  0  0  0  0  0  0  0  0  0
    1.4334   -0.5103    1.1119 N   0  0  0  0  0  0  0  0  0  0  0  0
    3.9503    1.0655    0.8907 C   0  0  0  0  0  0  0  0  0  0  0  0
    3.7218   -0.1181    1.8359 C   0  0  0  0  0  0  0  0  0  0  0  0
    2.6945   -1.1366    1.3432 C   0  0  0  0  0  0  0  0  0  0  0  0
    0.3179   -1.2074    0.5864 C   0  0  0  0  0  0  0  0  0  0  0  0
   -0.9247   -0.6004    0.3325 C   0  0  0  0  0  0  0  0  0  0  0  0
    5.6404   -0.1144   -0.3438 C   0  0  0  0  0  0  0  0  0  0  0  0
    4.5359    1.7789   -1.3276 C   0  0  0  0  0  0  0  0  0  0  0  0
   -1.9672   -1.3580   -0.2072 C   0  0  0  0  0  0  0  0  0  0  0  0
   -1.7472   -2.7179   -0.4857 C   0  0  0  0  0  0  0  0  0  0  0  0
   -1.0687    0.8385    0.6569 C   0  0  0  0  0  0  0  0  0  0  0  0
    0.5220   -2.5572    0.3034 C   0  0  0  0  0  0  0  0  0  0  0  0
   -2.2659    1.6177    0.2620 C   0  0  0  0  0  0  0  0  0  0  0  0
   -0.5115   -3.3134   -0.2335 C   0  0  0  0  0  0  0  0  0  0  0  0
   -3.4059    1.0210   -0.2826 C   0  0  0  0  0  0  0  0  0  0  0  0
    6.0694   -0.6304   -1.7068 C   0  0  0  0  0  0  0  0  0  0  0  0
    3.2420    2.5679   -1.4341 C   0  0  0  0  0  0  0  0  0  0  0  0
   -2.8108   -3.6044   -1.0622 C   0  0  0  0  0  0  0  0  0  0  0  0
   -2.2325    3.0105    0.4521 C   0  0  0  0  0  0  0  0  0  0  0  0
   -4.4994    1.8331   -0.6299 C   0  0  0  0  0  0  0  0  0  0  0  0
   -3.3242    3.8033    0.1012 C   0  0  0  0  0  0  0  0  0  0  0  0
   -4.4589    3.2143   -0.4407 C   0  0  0  0  0  0  0  0  0  0  0  0
  1 13  1  0
  1 19  1  0
  2 15  2  0
  3 22  1  0
  4  6  1  0
  4 11  1  0
  4 12  1  0
  5  8  1  0
  5  9  1  0
  6  7  1  0
  7  8  1  0
  9 10  1  0
  9 16  2  0
 10 13  2  0
 10 15  1  0
 11 20  1  0
 12 21  1  0
 13 14  1  0
 14 18  2  0
 14 22  1  0
 15 17  1  0
 16 18  1  0
 17 19  2  0
 17 23  1  0
 19 24  1  0
 23 25  2  0
 24 26  2  0
 25 26  1  0
M  END
>  <PUBCHEM_COMPOUND_CID>  (1) 
3635

>  <PUBCHEM_CONFORMER_RMSD>  (1) 
0.8

>  <PUBCHEM_CONFORMER_DIVERSEORDER>  (1) 
1
28
67
8
39
16
41
29
71
25
32
43
9
49
27
31
21
36
6
24
22
30
35
50
15
65
69
42
14
3
17
45
48
57
18
13
58
55
70
4
52
37
47
11
34
26
66
59
40
7
10
33
53
12
54
5
62
20
23
46
19
38
44
68
72
60
64
51
63
2
61
56

>  <PUBCHEM_MMFF94_PARTIAL_CHARGES>  (1) 
31
1 -0.2
10 0.09
11 0.27
12 0.27
13 0.1
14 -0.14
15 0.4
16 -0.15
17 0.09
18 -0.15
19 0.1
2 -0.57
22 0.42
23 -0.15
24 -0.15
25 -0.15
26 -0.15
3 -0.68
37 0.4
38 0.15
39 0.15
4 -0.81
48 0.15
49 0.15
5 -0.87
50 0.15
51 0.15
52 0.4
6 0.27
8 0.37
9 0.1

>  <PUBCHEM_EFFECTIVE_ROTOR_COUNT>  (1) 
8

>  <PUBCHEM_PHARMACOPHORE_FEATURES>  (1) 
9
1 2 acceptor
1 3 acceptor
1 3 donor
1 4 cation
1 5 cation
1 5 donor
6 1 10 13 15 17 19 rings
6 17 19 23 24 25 26 rings
6 9 10 13 14 16 18 rings

>  <PUBCHEM_HEAVY_ATOM_COUNT>  (1) 
26

>  <PUBCHEM_ATOM_DEF_STEREO_COUNT>  (1) 
0

>  <PUBCHEM_ATOM_UDEF_STEREO_COUNT>  (1) 
0

>  <PUBCHEM_BOND_DEF_STEREO_COUNT>  (1) 
0

>  <PUBCHEM_BOND_UDEF_STEREO_COUNT>  (1) 
0

>  <PUBCHEM_ISOTOPIC_ATOM_COUNT>  (1) 
0

>  <PUBCHEM_COMPONENT_COUNT>  (1) 
1

>  <PUBCHEM_CACTVS_TAUTO_COUNT>  (1) 
4

>  <PUBCHEM_CONFORMER_ID>  (1) 
00000E3300000001

>  <PUBCHEM_MMFF94_ENERGY>  (1) 
81.6667

>  <PUBCHEM_FEATURE_SELFOVERLAP>  (1) 
45.698

>  <PUBCHEM_SHAPE_FINGERPRINT>  (1) 
10411042 1 17906996719587119795
10670039 82 18409446964680352084
12173636 292 18340472422304630999
12390115 104 18201159837259276793
12788726 201 18191300696407154850
13140716 1 18195509610344950347
13583140 156 16952238825374190011
13617811 41 18053373589837667903
13785724 45 17835241525854520843
138480 1 16901857922958589355
14117953 113 17903625290233390684
14251757 5 18341894112625418159
14289585 56 17531527564776961724
14363568 33 17254565314393794971
1454969 45 18410573977685350609
14767858 380 18268688586126505213
14790565 3 18270397171082354305
14955137 171 17975989974865869483
15297060 5 18201158733078330400
15664445 248 17186435184100435304
15842332 3 17969201409433887034
16752209 62 18340761632855143090
20101258 96 18192715768325679499
21033650 10 18334863870122739722
21864079 5 18114466759939839768
22122407 14 15864067659047556622
22907989 373 18266165296475403399
23366157 5 17759799239582787251
23558518 356 18334285462118348850
23559900 14 17769359544330514954
312425 83 18267041586443228692
340366 18 18192989319093126874
38570 142 17750250136056844102
38695281 34 18265338300533582029
394222 165 17972872558541963155
4058900 60 18050291367061054265
474 4 17968939678084134616
6034566 193 18339656529312537753
6287921 2 17907012876973979933
7164475 11 18194967563764989996
7808743 9 18410289203261049304

>  <PUBCHEM_SHAPE_MULTIPOLES>  (1) 
517.22
11.24
5.01
1.35
13.77
1.93
-0.03
-5.99
4.05
-7.21
1.05
1.86
-0.15
-1.25

>  <PUBCHEM_SHAPE_SELFOVERLAP>  (1) 
1084.347

>  <PUBCHEM_SHAPE_VOLUME>  (1) 
293

>  <PUBCHEM_COORDINATE_TYPE>  (1) 
2
5
10

$$$$
