36356
     RDKit          3D

 26 28  0  0  1  0  0  0  0  0999 V2000
    0.3849    1.6273    1.0021 Si  0  0  0  0  0  4  0  0  0  0  0  0
    0.4247   -1.5296    1.1314 Si  0  0  0  0  0  4  0  0  0  0  0  0
    3.1478    1.6028   -0.5332 Si  0  0  0  0  0  4  0  0  0  0  0  0
    3.1828   -1.5615   -0.4129 Si  0  0  0  0  0  4  0  0  0  0  0  0
    0.4333    0.0717    1.6133 O   0  0  0  0  0  0  0  0  0  0  0  0
    1.5173    1.8105   -0.2110 O   0  0  0  0  0  0  0  0  0  0  0  0
    1.5587   -1.7820   -0.0676 O   0  0  0  0  0  0  0  0  0  0  0  0
    3.5982    0.0383   -0.1355 O   0  0  0  0  0  0  0  0  0  0  0  0
   -1.3145    1.8115    0.1992 C   0  0  0  0  0  0  0  0  0  0  0  0
   -1.2709   -1.8220    0.3531 C   0  0  0  0  0  0  0  0  0  0  0  0
    0.6023    2.9040    2.3449 C   0  0  0  0  0  0  0  0  0  0  0  0
    0.6784   -2.6857    2.5734 C   0  0  0  0  0  0  0  0  0  0  0  0
    3.4788    1.9347   -2.3550 C   0  0  0  0  0  0  0  0  0  0  0  0
    4.1703    2.8291    0.4613 C   0  0  0  0  0  0  0  0  0  0  0  0
    3.5149   -2.0212   -2.2065 C   0  0  0  0  0  0  0  0  0  0  0  0
    4.2369   -2.6862    0.6650 C   0  0  0  0  0  0  0  0  0  0  0  0
   -2.4271    2.2987    0.9273 C   0  0  0  0  0  0  0  0  0  0  0  0
   -2.4641   -1.6586    1.0979 C   0  0  0  0  0  0  0  0  0  0  0  0
   -1.5317    1.4687   -1.1574 C   0  0  0  0  0  0  0  0  0  0  0  0
   -1.4044   -2.2140   -1.0009 C   0  0  0  0  0  0  0  0  0  0  0  0
   -3.6822    2.4348    0.3341 C   0  0  0  0  0  0  0  0  0  0  0  0
   -3.7165   -1.8745    0.5228 C   0  0  0  0  0  0  0  0  0  0  0  0
   -2.7867    1.6048   -1.7507 C   0  0  0  0  0  0  0  0  0  0  0  0
   -2.6567   -2.4298   -1.5762 C   0  0  0  0  0  0  0  0  0  0  0  0
   -3.8619    2.0879   -1.0048 C   0  0  0  0  0  0  0  0  0  0  0  0
   -3.8128   -2.2600   -0.8142 C   0  0  0  0  0  0  0  0  0  0  0  0
  1  5  1  0
  1  6  1  0
  1  9  1  0
  1 11  1  0
  2  5  1  0
  2  7  1  0
  2 10  1  0
  2 12  1  0
  3  6  1  0
  3  8  1  0
  3 13  1  0
  3 14  1  0
  4  7  1  0
  4  8  1  0
  4 15  1  0
  4 16  1  0
  9 17  2  0
  9 19  1  0
 10 18  2  0
 10 20  1  0
 17 21  1  0
 18 22  1  0
 19 23  2  0
 20 24  2  0
 21 25  2  0
 22 26  2  0
 23 25  1  0
 24 26  1  0
M  END
>  <PUBCHEM_COMPOUND_CID>  (1) 
36356

>  <PUBCHEM_CONFORMER_RMSD>  (1) 
0.8

>  <PUBCHEM_CONFORMER_DIVERSEORDER>  (1) 
1
2
3
9
7
4
5
8
6

>  <PUBCHEM_MMFF94_PARTIAL_CHARGES>  (1) 
36
1 0.9
10 -0.22
11 -0.08
12 -0.08
13 -0.08
14 -0.08
15 -0.08
16 -0.08
17 -0.15
18 -0.15
19 -0.15
2 0.9
20 -0.15
21 -0.15
22 -0.15
23 -0.15
24 -0.15
25 -0.15
26 -0.15
3 0.76
4 0.76
45 0.15
46 0.15
47 0.15
48 0.15
49 0.15
5 -0.59
50 0.15
51 0.15
52 0.15
53 0.15
54 0.15
6 -0.59
7 -0.59
8 -0.59
9 -0.22

>  <PUBCHEM_EFFECTIVE_ROTOR_COUNT>  (1) 
3.6

>  <PUBCHEM_PHARMACOPHORE_FEATURES>  (1) 
2
6 10 18 20 22 24 26 rings
6 9 17 19 21 23 25 rings

>  <PUBCHEM_HEAVY_ATOM_COUNT>  (1) 
26

>  <PUBCHEM_ATOM_DEF_STEREO_COUNT>  (1) 
2

>  <PUBCHEM_ATOM_UDEF_STEREO_COUNT>  (1) 
0

>  <PUBCHEM_BOND_DEF_STEREO_COUNT>  (1) 
0

>  <PUBCHEM_BOND_UDEF_STEREO_COUNT>  (1) 
0

>  <PUBCHEM_ISOTOPIC_ATOM_COUNT>  (1) 
0

>  <PUBCHEM_COMPONENT_COUNT>  (1) 
1

>  <PUBCHEM_CACTVS_TAUTO_COUNT>  (1) 
1

>  <PUBCHEM_CONFORMER_ID>  (1) 
00008E0400000001

>  <PUBCHEM_MMFF94_ENERGY>  (1) 
27.0027

>  <PUBCHEM_FEATURE_SELFOVERLAP>  (1) 
10.149

>  <PUBCHEM_SHAPE_FINGERPRINT>  (1) 
10190108 129 17751104473798188339
104564 63 18263634242531330161
1100329 8 18265893553783718058
11578080 2 17632280307243388434
12107698 1 18410572894673539166
12156800 1 13517586923720724771
12422481 6 18121815822782276403
12788726 201 18119814856942353312
13140716 1 18336546023717311544
13149001 5 18268416958649739553
13583140 156 17387707002540297539
14117953 113 16895942550100233957
14251751 93 18334579018826811505
14251757 17 18341619183031141244
14790565 3 18055361241026356161
17357779 13 18122052367758047181
17492 54 18046619002555925957
20600515 1 17835768973290821114
20691752 17 17458062659994678276
20764821 26 18271517633048273239
20775438 99 17339228620471180519
20905425 154 18340480187605723134
21285901 2 18191313886177627399
22393880 68 18341061782787688844
22907989 373 17913798040611996774
23227448 37 18187933828535774359
23557571 272 18202275880063590458
23558518 356 18187931711021886802
23559900 14 18270960134057229538
23566358 2 18412263956135426972
2818148 4 18342181098245818307
3027735 51 18264214784143229856
460360 51 18334290963754410512
469060 322 16950286234699962039
508706 21 18042706029809403414
59755656 215 18196924689660899193
70251023 43 18340471370613604811

>  <PUBCHEM_SHAPE_MULTIPOLES>  (1) 
584.44
7.82
4.61
2.18
0.7
0.13
0.06
0.1
-3.1
-0.14
0.54
0.55
-0.1
-0.21

>  <PUBCHEM_SHAPE_SELFOVERLAP>  (1) 
1147.419

>  <PUBCHEM_SHAPE_VOLUME>  (1) 
348.9

>  <PUBCHEM_COORDINATE_TYPE>  (1) 
2
5
10

$$$$
