36379
     RDKit          3D

 18 19  0  0  1  0  0  0  0  0999 V2000
   -1.3837   -1.2604   -2.4333 Cl  0  0  0  0  0  0  0  0  0  0  0  0
    0.0100    2.2001   -0.1173 O   0  0  0  0  0  0  0  0  0  0  0  0
    1.9151   -0.3574   -1.1294 N   0  0  0  0  0  0  0  0  0  0  0  0
    1.1613   -0.0270    1.1545 N   0  0  0  0  0  0  0  0  0  0  0  0
    2.5352   -2.4912   -0.1118 C   0  0  0  0  0  0  0  0  0  0  0  0
    2.4124   -2.1626    1.3801 C   0  0  0  0  0  0  0  0  0  0  0  0
    2.9853   -1.3225   -0.9800 C   0  0  0  0  0  0  0  0  0  0  0  0
   -0.1163    0.8892   -0.6242 C   0  0  0  0  0  0  0  0  0  0  0  0
    1.0850    0.1072   -0.1256 C   0  0  0  0  0  0  0  0  0  0  0  0
    2.3312   -0.6817    1.7289 C   0  0  0  0  0  0  0  0  0  0  0  0
   -1.3907    0.2486   -0.1641 C   0  0  0  0  0  0  0  0  0  0  0  0
   -2.0275   -0.7308   -0.9221 C   0  0  0  0  0  0  0  0  0  0  0  0
   -1.9320    0.6589    1.0518 C   0  0  0  0  0  0  0  0  0  0  0  0
    1.2178    2.8223   -0.5467 C   0  0  0  0  0  0  0  0  0  0  0  0
   -3.2131   -1.3034   -0.4615 C   0  0  0  0  0  0  0  0  0  0  0  0
   -3.1176    0.0863    1.5125 C   0  0  0  0  0  0  0  0  0  0  0  0
   -3.7581   -0.8949    0.7558 C   0  0  0  0  0  0  0  0  0  0  0  0
    1.2858    4.2193    0.0324 C   0  0  0  0  0  0  0  0  0  0  0  0
  1 12  1  0
  2  8  1  0
  2 14  1  0
  3  7  1  0
  3  9  1  0
  4  9  2  0
  4 10  1  0
  5  6  1  0
  5  7  1  0
  6 10  1  0
  8  9  1  0
  8 11  1  0
 11 12  2  0
 11 13  1  0
 12 15  1  0
 13 16  2  0
 14 18  1  0
 15 17  2  0
 16 17  1  0
M  END
>  <PUBCHEM_COMPOUND_CID>  (1) 
36379

>  <PUBCHEM_CONFORMER_RMSD>  (1) 
0.6

>  <PUBCHEM_CONFORMER_DIVERSEORDER>  (1) 
1
73
72
11
8
75
70
5
43
71
47
48
6
44
37
7
53
41
38
49
29
42
12
67
19
74
26
58
36
66
62
63
18
51
25
31
40
28
65
39
33
23
34
32
17
2
16
27
10
55
77
9
61
54
50
30
68
24
64
15
69
56
59
76
52
57
3
60
35
45
20
4
14
21
13
46
22

>  <PUBCHEM_MMFF94_PARTIAL_CHARGES>  (1) 
20
1 -0.18
10 0.25
11 -0.14
12 0.18
13 -0.15
14 0.28
15 -0.15
16 -0.15
17 -0.15
2 -0.56
28 0.4
29 0.15
3 -0.82
32 0.15
33 0.15
34 0.15
4 -0.7
7 0.37
8 0.48
9 0.44

>  <PUBCHEM_EFFECTIVE_ROTOR_COUNT>  (1) 
5

>  <PUBCHEM_PHARMACOPHORE_FEATURES>  (1) 
5
1 2 acceptor
1 3 donor
3 3 4 9 cation
6 11 12 13 15 16 17 rings
7 3 4 5 6 7 9 10 rings

>  <PUBCHEM_HEAVY_ATOM_COUNT>  (1) 
18

>  <PUBCHEM_ATOM_DEF_STEREO_COUNT>  (1) 
0

>  <PUBCHEM_ATOM_UDEF_STEREO_COUNT>  (1) 
1

>  <PUBCHEM_BOND_DEF_STEREO_COUNT>  (1) 
0

>  <PUBCHEM_BOND_UDEF_STEREO_COUNT>  (1) 
0

>  <PUBCHEM_ISOTOPIC_ATOM_COUNT>  (1) 
0

>  <PUBCHEM_COMPONENT_COUNT>  (1) 
1

>  <PUBCHEM_CACTVS_TAUTO_COUNT>  (1) 
1

>  <PUBCHEM_CONFORMER_ID>  (1) 
00008E1B00000001

>  <PUBCHEM_MMFF94_ENERGY>  (1) 
46.6651

>  <PUBCHEM_FEATURE_SELFOVERLAP>  (1) 
25.371

>  <PUBCHEM_SHAPE_FINGERPRINT>  (1) 
11578080 2 17771027688622982473
12326174 3 18189047775522407636
12553582 1 18336834086799729907
12707595 3 18260545619420840363
12759256 9 18119785131531362544
12788726 201 17828490163011907608
13299463 15 15575008233859129571
13538477 17 17608940776615795740
14787075 74 18115888428479621148
14817 1 10706858439814303404
14863182 85 16670534390126039947
15279307 12 17842566428887985269
15906896 17 17543061282226500957
16945 1 18337397144311586141
1813 80 18413109433554144414
18186145 218 8646483050595177443
19765921 60 17765434640296576329
20361792 2 18409161082761279391
20645477 70 18263639748764059607
21524375 3 17617094050225397796
21731516 1 18261673675306333051
2255824 54 18266749154123905852
23419403 2 13779653106144853448
23557571 272 18047454652936391976
23598288 3 17829334583863207022
23598291 2 18271258204365604733
23728640 28 17110139543878319755
34934 24 18337401430736771220
4175511 71 18339376170784087353
4340502 62 17757556631283900011
474 4 18051416463382108016
59755656 520 17471855182830546844
7364860 26 18267312095408472616
81228 2 17831838180329873960
90316 7 18123759655564831145

>  <PUBCHEM_SHAPE_MULTIPOLES>  (1) 
356.47
5.26
3.4
1.76
2.66
4.36
0.24
-3.32
-1.26
-3.28
0.29
0.26
-0.83
-0.8

>  <PUBCHEM_SHAPE_SELFOVERLAP>  (1) 
728.365

>  <PUBCHEM_SHAPE_VOLUME>  (1) 
205.7

>  <PUBCHEM_COORDINATE_TYPE>  (1) 
2
5
10

$$$$
