36387
     RDKit          3D

 17 18  0  0  1  0  0  0  0  0999 V2000
    3.8845   -1.3144   -1.6433 Cl  0  0  0  0  0  0  0  0  0  0  0  0
    4.8658    0.2495    1.0138 Cl  0  0  0  0  0  0  0  0  0  0  0  0
   -1.4785    1.6489   -0.2876 O   0  0  0  0  0  0  0  0  0  0  0  0
   -2.3488   -1.5970   -0.8125 N   0  0  0  0  0  0  0  0  0  0  0  0
   -1.7546   -0.8278    1.2452 N   0  0  0  0  0  0  0  0  0  0  0  0
   -0.8955    0.4183   -0.6843 C   0  0  0  0  0  0  0  0  0  0  0  0
   -1.6851   -0.6814   -0.0537 C   0  0  0  0  0  0  0  0  0  0  0  0
   -2.9890   -2.5617    0.0296 C   0  0  0  0  0  0  0  0  0  0  0  0
   -2.6281   -2.0285    1.4243 C   0  0  0  0  0  0  0  0  0  0  0  0
    0.5530    0.3656   -0.2705 C   0  0  0  0  0  0  0  0  0  0  0  0
    1.4552   -0.3556   -1.0383 C   0  0  0  0  0  0  0  0  0  0  0  0
    0.9607    1.0400    0.8709 C   0  0  0  0  0  0  0  0  0  0  0  0
   -2.8473    1.7269   -0.6656 C   0  0  0  0  0  0  0  0  0  0  0  0
    2.7958   -0.4036   -0.6560 C   0  0  0  0  0  0  0  0  0  0  0  0
    2.3013    0.9918    1.2532 C   0  0  0  0  0  0  0  0  0  0  0  0
    3.2188    0.2700    0.4897 C   0  0  0  0  0  0  0  0  0  0  0  0
   -3.4082    3.0589   -0.2149 C   0  0  0  0  0  0  0  0  0  0  0  0
  1 14  1  0
  2 16  1  0
  3  6  1  0
  3 13  1  0
  4  7  1  0
  4  8  1  0
  5  7  2  0
  5  9  1  0
  6  7  1  0
  6 10  1  0
  8  9  1  0
 10 11  2  0
 10 12  1  0
 11 14  1  0
 12 15  2  0
 13 17  1  0
 14 16  2  0
 15 16  1  0
M  END
>  <PUBCHEM_COMPOUND_CID>  (1) 
36387

>  <PUBCHEM_CONFORMER_RMSD>  (1) 
0.6

>  <PUBCHEM_CONFORMER_DIVERSEORDER>  (1) 
2
20
30
32
19
23
9
4
18
24
26
29
31
14
3
27
21
15
25
16
22
10
17
28
12
13
1
11
7
6
8
5

>  <PUBCHEM_MMFF94_PARTIAL_CHARGES>  (1) 
20
1 -0.18
10 -0.14
11 -0.15
12 -0.15
13 0.28
14 0.18
15 -0.15
16 0.18
2 -0.18
23 0.4
24 0.15
25 0.15
28 0.15
3 -0.56
4 -0.82
5 -0.7
6 0.48
7 0.44
8 0.37
9 0.25

>  <PUBCHEM_EFFECTIVE_ROTOR_COUNT>  (1) 
4.6

>  <PUBCHEM_PHARMACOPHORE_FEATURES>  (1) 
5
1 3 acceptor
1 4 donor
3 4 5 7 cation
5 4 5 7 8 9 rings
6 10 11 12 14 15 16 rings

>  <PUBCHEM_HEAVY_ATOM_COUNT>  (1) 
17

>  <PUBCHEM_ATOM_DEF_STEREO_COUNT>  (1) 
0

>  <PUBCHEM_ATOM_UDEF_STEREO_COUNT>  (1) 
1

>  <PUBCHEM_BOND_DEF_STEREO_COUNT>  (1) 
0

>  <PUBCHEM_BOND_UDEF_STEREO_COUNT>  (1) 
0

>  <PUBCHEM_ISOTOPIC_ATOM_COUNT>  (1) 
0

>  <PUBCHEM_COMPONENT_COUNT>  (1) 
1

>  <PUBCHEM_CACTVS_TAUTO_COUNT>  (1) 
1

>  <PUBCHEM_CONFORMER_ID>  (1) 
00008E2300000002

>  <PUBCHEM_MMFF94_ENERGY>  (1) 
45.3597

>  <PUBCHEM_FEATURE_SELFOVERLAP>  (1) 
25.371

>  <PUBCHEM_SHAPE_FINGERPRINT>  (1) 
11405975 8 18337106770711212600
11471102 22 17845940744327478730
12251169 10 17202492271555322350
12346177 29 18261104162616275983
12363563 72 18044656648830664763
12403259 118 18266721641429201512
12500047 106 18336824178436434372
12532896 13 18264481785533911541
12714826 92 18338250322200425074
13296908 3 18202570566380308726
13760787 19 18260545581398812698
14115302 16 18193287303754902812
14178342 30 18187077334932156858
15219456 202 18131349700585525812
15375358 24 18059000701685808388
15653759 3 18412826897678209752
15885798 251 18190749828766325931
16752209 62 17822279224154417347
18186145 218 18055627318181047109
19049666 15 18271526399092316086
200 152 16343410795827467431
20279233 1 18130783447839151180
20361792 2 18046352095945110087
20524608 308 18410854331015954255
20645477 56 18411416176778288653
20645477 70 17131548328646670188
20671657 53 17168702084431378150
20711985 344 18261109703593508171
20715346 28 18131350817261192052
21524375 3 18048028576473596045
22112679 90 17240766181197576244
22943178 12 18273495663394005190
23402539 116 18338781391387016701
23526113 38 17917417684287746544
23557571 272 18411136948443877216
23559900 14 18269276764749347902
25 1 17912081642863404517
2748010 2 18059858350714594140
276578 36 17825951425171070505
6049 1 18201446895350547988
633830 44 16010187266096675494
7615 1 17240769509981736604
77492 1 16732984223810506076
81228 2 18261390087775359873
88987 49 18260268521084278916
9709674 26 18272363157532211764

>  <PUBCHEM_SHAPE_MULTIPOLES>  (1) 
337.76
7.68
2.59
1.39
5.33
0.31
0.08
-0.14
0.3
-4.33
-0.02
0.77
-0.37
1.84

>  <PUBCHEM_SHAPE_SELFOVERLAP>  (1) 
689.538

>  <PUBCHEM_SHAPE_VOLUME>  (1) 
199.3

>  <PUBCHEM_COORDINATE_TYPE>  (1) 
2
5
10

$$$$
