36380
     RDKit          3D

 11 11  0  0  0  0  0  0  0  0999 V2000
    1.4998    0.0372   -0.8590 O   0  0  0  0  0  0  0  0  0  0  0  0
    2.0654   -0.2634    1.3815 O   0  0  0  0  0  0  0  0  0  0  0  0
    3.6713   -0.4081   -0.2576 N   0  0  0  0  0  0  0  0  0  0  0  0
   -1.9924   -0.6403   -0.0040 C   0  0  0  0  0  0  0  0  0  0  0  0
   -0.6682   -0.8453   -0.3919 C   0  0  0  0  0  0  0  0  0  0  0  0
    0.2080    0.2366   -0.4801 C   0  0  0  0  0  0  0  0  0  0  0  0
   -2.4403    0.6463    0.2956 C   0  0  0  0  0  0  0  0  0  0  0  0
   -0.2401    1.5232   -0.1805 C   0  0  0  0  0  0  0  0  0  0  0  0
   -1.5642    1.7280    0.2074 C   0  0  0  0  0  0  0  0  0  0  0  0
   -2.9293   -1.7966    0.0895 C   0  0  0  0  0  0  0  0  0  0  0  0
    2.3898   -0.2175    0.1989 C   0  0  0  0  0  0  0  0  0  0  0  0
  1  6  1  0
  1 11  1  0
  2 11  2  0
  3 11  1  0
  4  5  2  0
  4  7  1  0
  4 10  1  0
  5  6  1  0
  6  8  2  0
  7  9  2  0
  8  9  1  0
M  END
>  <PUBCHEM_COMPOUND_CID>  (1) 
36380

>  <PUBCHEM_CONFORMER_RMSD>  (1) 
0.4

>  <PUBCHEM_CONFORMER_DIVERSEORDER>  (1) 
1
34
20
31
19
35
32
14
11
27
25
5
4
17
16
24
2
21
33
22
29
36
30
7
12
28
3
9
23
6
18
13
15
26
10
8

>  <PUBCHEM_MMFF94_PARTIAL_CHARGES>  (1) 
17
1 -0.23
10 0.14
11 0.78
12 0.15
13 0.15
14 0.15
15 0.15
19 0.37
2 -0.57
20 0.37
3 -0.8
4 -0.14
5 -0.15
6 0.08
7 -0.15
8 -0.15
9 -0.15

>  <PUBCHEM_EFFECTIVE_ROTOR_COUNT>  (1) 
2

>  <PUBCHEM_PHARMACOPHORE_FEATURES>  (1) 
3
1 2 acceptor
1 3 donor
6 4 5 6 7 8 9 rings

>  <PUBCHEM_HEAVY_ATOM_COUNT>  (1) 
11

>  <PUBCHEM_ATOM_DEF_STEREO_COUNT>  (1) 
0

>  <PUBCHEM_ATOM_UDEF_STEREO_COUNT>  (1) 
0

>  <PUBCHEM_BOND_DEF_STEREO_COUNT>  (1) 
0

>  <PUBCHEM_BOND_UDEF_STEREO_COUNT>  (1) 
0

>  <PUBCHEM_ISOTOPIC_ATOM_COUNT>  (1) 
0

>  <PUBCHEM_COMPONENT_COUNT>  (1) 
1

>  <PUBCHEM_CACTVS_TAUTO_COUNT>  (1) 
2

>  <PUBCHEM_CONFORMER_ID>  (1) 
00008E1C00000001

>  <PUBCHEM_MMFF94_ENERGY>  (1) 
31.5846

>  <PUBCHEM_FEATURE_SELFOVERLAP>  (1) 
15.223

>  <PUBCHEM_SHAPE_FINGERPRINT>  (1) 
10857977 72 18272365399457537321
12932764 1 17676486112314346804
13024252 1 15285646456295609157
14128692 85 18114465672685113021
16945 1 18339368470081805501
20645464 45 17632297830678131332
20653091 64 18117281569293071833
20871998 184 18201722859778742695
21040471 1 18124044420697649549
23402539 116 18271516508431636173
23552423 10 18043255849626119349
369184 2 18334289842778586209
5084963 1 17989211455485078618
75552 356 18410856551187031021

>  <PUBCHEM_SHAPE_MULTIPOLES>  (1) 
209.66
4.69
1.61
0.84
2.82
0.26
0.13
-1.73
0.46
-1.42
0.03
0.33
-0.03
-0.1

>  <PUBCHEM_SHAPE_SELFOVERLAP>  (1) 
434.724

>  <PUBCHEM_SHAPE_VOLUME>  (1) 
118.6

>  <PUBCHEM_COORDINATE_TYPE>  (1) 
2
5
10

$$$$
