36396
     RDKit          3D

 20 22  0  0  1  0  0  0  0  0999 V2000
    0.2365    2.4443    0.3509 O   0  0  0  0  0  0  0  0  0  0  0  0
    5.4880   -1.0633   -0.0993 O   0  0  0  0  0  0  0  0  0  0  0  0
   -3.2644    0.1477   -0.3169 N   0  0  0  0  0  0  0  0  0  0  0  0
   -0.8673    0.3031    0.1698 C   0  0  0  0  0  0  0  0  0  0  0  0
   -2.1090    1.0446   -0.3205 C   0  0  0  0  0  0  0  0  0  0  0  0
   -3.5293   -0.3438    1.0426 C   0  0  0  0  0  0  0  0  0  0  0  0
   -4.4427    0.8251   -0.8760 C   0  0  0  0  0  0  0  0  0  0  0  0
   -0.5912   -0.9113   -0.7155 C   0  0  0  0  0  0  0  0  0  0  0  0
   -4.7048   -1.3220    1.0562 C   0  0  0  0  0  0  0  0  0  0  0  0
   -5.6482   -0.1152   -0.9251 C   0  0  0  0  0  0  0  0  0  0  0  0
   -5.9555   -0.6948    0.4508 C   0  0  0  0  0  0  0  0  0  0  0  0
    0.6320   -1.6701   -0.2154 C   0  0  0  0  0  0  0  0  0  0  0  0
    0.3431    1.2306    0.1978 C   0  0  0  0  0  0  0  0  0  0  0  0
    1.8292   -0.7670   -0.1013 C   0  0  0  0  0  0  0  0  0  0  0  0
    1.6934    0.6148    0.1010 C   0  0  0  0  0  0  0  0  0  0  0  0
    3.1161   -1.3219   -0.1561 C   0  0  0  0  0  0  0  0  0  0  0  0
    2.8286    1.4270    0.2174 C   0  0  0  0  0  0  0  0  0  0  0  0
    4.2453   -0.5116   -0.0375 C   0  0  0  0  0  0  0  0  0  0  0  0
    4.1012    0.8612    0.1459 C   0  0  0  0  0  0  0  0  0  0  0  0
    6.5990   -0.1775    0.0314 C   0  0  0  0  0  0  0  0  0  0  0  0
  1 13  2  0
  2 18  1  0
  2 20  1  0
  3  5  1  0
  3  6  1  0
  3  7  1  0
  4  5  1  0
  4  8  1  0
  4 13  1  0
  6  9  1  0
  7 10  1  0
  8 12  1  0
  9 11  1  0
 10 11  1  0
 12 14  1  0
 13 15  1  0
 14 15  2  0
 14 16  1  0
 15 17  1  0
 16 18  2  0
 17 19  2  0
 18 19  1  0
M  END
>  <PUBCHEM_COMPOUND_CID>  (1) 
36396

>  <PUBCHEM_CONFORMER_RMSD>  (1) 
0.6

>  <PUBCHEM_CONFORMER_DIVERSEORDER>  (1) 
5
8
7
4
9
1
3
6
2

>  <PUBCHEM_MMFF94_PARTIAL_CHARGES>  (1) 
19
1 -0.57
12 0.14
13 0.42
14 -0.14
15 0.09
16 -0.15
17 -0.15
18 0.08
19 -0.15
2 -0.36
20 0.28
3 -0.81
38 0.15
39 0.15
4 0.06
40 0.15
5 0.27
6 0.27
7 0.27

>  <PUBCHEM_EFFECTIVE_ROTOR_COUNT>  (1) 
4.8

>  <PUBCHEM_PHARMACOPHORE_FEATURES>  (1) 
6
1 1 acceptor
1 2 acceptor
1 3 cation
6 14 15 16 17 18 19 rings
6 3 6 7 9 10 11 rings
6 4 8 12 13 14 15 rings

>  <PUBCHEM_HEAVY_ATOM_COUNT>  (1) 
20

>  <PUBCHEM_ATOM_DEF_STEREO_COUNT>  (1) 
0

>  <PUBCHEM_ATOM_UDEF_STEREO_COUNT>  (1) 
1

>  <PUBCHEM_BOND_DEF_STEREO_COUNT>  (1) 
0

>  <PUBCHEM_BOND_UDEF_STEREO_COUNT>  (1) 
0

>  <PUBCHEM_ISOTOPIC_ATOM_COUNT>  (1) 
0

>  <PUBCHEM_COMPONENT_COUNT>  (1) 
1

>  <PUBCHEM_CACTVS_TAUTO_COUNT>  (1) 
2

>  <PUBCHEM_CONFORMER_ID>  (1) 
00008E2C00000005

>  <PUBCHEM_MMFF94_ENERGY>  (1) 
45.2636

>  <PUBCHEM_FEATURE_SELFOVERLAP>  (1) 
30.469

>  <PUBCHEM_SHAPE_FINGERPRINT>  (1) 
10 15 18335411418550330032
11045977 3 18260831539841579427
11315181 36 17894916230676154389
11796584 16 17168144528994077123
11963148 33 18408599279807901602
12011746 2 18334293171631480671
12236239 1 17275385417410702757
12403259 415 18411971468931628256
12596602 18 16558744654864569627
12715332 25 18060135474488728182
13288520 33 18260268555860501485
13533116 47 15195294080241932094
13862211 1 18342453721242229694
1420 363 18409452483317694799
14252887 29 17846224327726859062
14341114 176 18334863848405095433
14386348 63 18260268555828976539
14573314 32 17821444647457467143
14849402 71 16557894767057746096
15196674 1 18340484577078019903
15788980 27 18408882949506326559
15961568 22 16661210385224690588
17844677 252 18260835903576208205
19489759 90 17168143429904032455
200 152 18130785655716137289
20028762 73 17917426574992129239
20261772 1 18202280324921815751
20645477 70 18341891861835987935
21033648 29 18338781378149180209
21236236 1 18341895139318430505
21267235 1 18341900675615079878
21521721 280 18059574732897278112
21623969 137 18342745125745712687
21641784 216 18261973855224951388
21682296 61 18129389198249749302
22224240 67 17346873460515902798
23402539 116 17918269835742783108
23536379 177 16370723712533320218
23557571 272 17531242816739531725
23559900 14 18040431114181323209
26918003 58 18335139791242252883
2871803 45 18334574611884319753
3004659 81 18040152920670338072
335352 9 18413387656892400870
34797466 226 16660655071701332967
4214541 1 18334857195617038781
4463277 17 18341894082587215724
465052 167 18411985758567156598
474229 33 18411139134213017798
5104073 3 18198901414584643184
5283173 99 17968369040682721861
542803 24 13767923520737382797
59755656 215 18408888404310633990
7495541 125 18113904891658625060

>  <PUBCHEM_SHAPE_MULTIPOLES>  (1) 
394.87
14.14
1.66
0.87
0.86
0.35
-0.02
-3.22
-0.09
-0.44
-0.1
0.96
-0.07
0.85

>  <PUBCHEM_SHAPE_SELFOVERLAP>  (1) 
834.704

>  <PUBCHEM_SHAPE_VOLUME>  (1) 
220.8

>  <PUBCHEM_COORDINATE_TYPE>  (1) 
2
5
10

$$$$
