36392
     RDKit          3D

 23 23  0  0  1  0  0  0  0  0999 V2000
   -2.8001    0.2721   -3.9155 Cl  0  0  0  0  0  0  0  0  0  0  0  0
    4.2318   -1.2455   -0.1373 F   0  0  0  0  0  0  0  0  0  0  0  0
    4.2120    0.6948   -1.1061 F   0  0  0  0  0  0  0  0  0  0  0  0
    4.2286    0.5667    1.0646 F   0  0  0  0  0  0  0  0  0  0  0  0
    0.0929   -3.5048   -0.1988 O   0  0  0  0  0  0  0  0  0  0  0  0
    0.0926    3.5040    0.2150 O   0  0  0  0  0  0  0  0  0  0  0  0
   -1.8354   -2.4511   -0.1035 O   0  0  0  0  0  0  0  0  0  0  0  0
   -1.8355    2.4463    0.1841 O   0  0  0  0  0  0  0  0  0  0  0  0
   -2.0127   -0.0026    0.0433 N   0  0  0  0  0  0  0  0  0  0  0  0
   -0.5831   -2.4531   -0.1254 N   0  0  0  0  0  0  0  0  0  0  0  0
   -0.5832    2.4509    0.1643 N   0  0  0  0  0  0  0  0  0  0  0  0
   -2.7412   -0.0774    1.3042 C   0  0  0  0  0  0  0  0  0  0  0  0
   -0.6186   -0.0012    0.0202 C   0  0  0  0  0  0  0  0  0  0  0  0
   -2.7839    0.0846   -1.1899 C   0  0  0  0  0  0  0  0  0  0  0  0
   -1.7660   -0.1820    2.4740 C   0  0  0  0  0  0  0  0  0  0  0  0
    0.1012   -1.2063   -0.0633 C   0  0  0  0  0  0  0  0  0  0  0  0
    0.1012    1.2055    0.0795 C   0  0  0  0  0  0  0  0  0  0  0  0
    2.1932    0.0016   -0.0269 C   0  0  0  0  0  0  0  0  0  0  0  0
    1.4959   -1.2049   -0.0866 C   0  0  0  0  0  0  0  0  0  0  0  0
    1.4959    1.2067    0.0563 C   0  0  0  0  0  0  0  0  0  0  0  0
   -1.8681    0.1755   -2.4004 C   0  0  0  0  0  0  0  0  0  0  0  0
   -2.5020   -0.2831    3.8012 C   0  0  0  0  0  0  0  0  0  0  0  0
    3.6844    0.0031   -0.0531 C   0  0  0  0  0  0  0  0  0  0  0  0
  1 21  1  0
  2 23  1  0
  3 23  1  0
  4 23  1  0
  5 10  1  0
  6 11  1  0
  7 10  2  0
  8 11  2  0
  9 12  1  0
  9 13  1  0
  9 14  1  0
 10 16  1  0
 11 17  1  0
 12 15  1  0
 13 16  2  0
 13 17  1  0
 14 21  1  0
 15 22  1  0
 16 19  1  0
 17 20  2  0
 18 19  2  0
 18 20  1  0
 18 23  1  0
M  CHG  4   5  -1   6  -1  10   1  11   1
M  END
>  <PUBCHEM_COMPOUND_CID>  (1) 
36392

>  <PUBCHEM_CONFORMER_RMSD>  (1) 
0.8

>  <PUBCHEM_CONFORMER_DIVERSEORDER>  (1) 
1
4
2
3

>  <PUBCHEM_MMFF94_PARTIAL_CHARGES>  (1) 
23
1 -0.29
10 0.91
11 0.91
12 0.37
13 0.1
14 0.37
16 0.13
17 0.13
18 -0.14
19 -0.15
2 -0.34
20 -0.15
21 0.29
23 1.16
3 -0.34
30 0.15
31 0.15
4 -0.34
5 -0.52
6 -0.52
7 -0.52
8 -0.52
9 -0.84

>  <PUBCHEM_EFFECTIVE_ROTOR_COUNT>  (1) 
8

>  <PUBCHEM_PHARMACOPHORE_FEATURES>  (1) 
9
1 22 hydrophobe
1 5 acceptor
1 5 anion
1 6 acceptor
1 6 anion
1 7 acceptor
1 8 acceptor
1 9 cation
6 13 16 17 18 19 20 rings

>  <PUBCHEM_HEAVY_ATOM_COUNT>  (1) 
23

>  <PUBCHEM_ATOM_DEF_STEREO_COUNT>  (1) 
0

>  <PUBCHEM_ATOM_UDEF_STEREO_COUNT>  (1) 
0

>  <PUBCHEM_BOND_DEF_STEREO_COUNT>  (1) 
0

>  <PUBCHEM_BOND_UDEF_STEREO_COUNT>  (1) 
0

>  <PUBCHEM_ISOTOPIC_ATOM_COUNT>  (1) 
0

>  <PUBCHEM_COMPONENT_COUNT>  (1) 
1

>  <PUBCHEM_CACTVS_TAUTO_COUNT>  (1) 
1

>  <PUBCHEM_CONFORMER_ID>  (1) 
00008E2800000001

>  <PUBCHEM_MMFF94_ENERGY>  (1) 
94.2526

>  <PUBCHEM_FEATURE_SELFOVERLAP>  (1) 
45.831

>  <PUBCHEM_SHAPE_FINGERPRINT>  (1) 
11578080 2 12616950578548089791
12403814 3 17531532099665936926
12553582 1 18340495547041743780
12633257 1 17683288889639710299
12714826 92 17676774270112249594
13140716 1 18195810889135904712
14142880 1 17846219925585970945
14787075 74 17172677970502190600
15163728 17 16156231933116082207
15309172 13 18339941349772814114
16945 1 18411983576691855280
229495 10 17769948874320500747
2334 1 17907295808144602504
23402539 116 18200296767633259852
23419403 2 17533797145792019121
23493267 7 17240759532567044232
23559900 14 18341042017748988776
2748010 2 18050020904127009756
394222 165 16883254323491867109
6992083 37 18198363911727154226
81228 2 18127413573507455826

>  <PUBCHEM_SHAPE_MULTIPOLES>  (1) 
414.96
5.66
2.95
2.69
7.22
0.01
-0.03
0.91
-0.09
-4.94
0.02
-0.19
-0.07
0.46

>  <PUBCHEM_SHAPE_SELFOVERLAP>  (1) 
858.142

>  <PUBCHEM_SHAPE_VOLUME>  (1) 
240.8

>  <PUBCHEM_COORDINATE_TYPE>  (1) 
2
5
10

$$$$
