36409
     RDKit          3D

 11 11  0  0  0  0  0  0  0  0999 V2000
    1.6353   -0.9215   -0.3302 O   0  0  0  0  0  0  0  0  0  0  0  0
   -2.6892    1.4583    0.1397 O   0  0  0  0  0  0  0  0  0  0  0  0
   -3.4235   -0.5557   -0.3657 O   0  0  0  0  0  0  0  0  0  0  0  0
   -2.5384    0.2467   -0.0507 N   0  0  0  0  0  0  0  0  0  0  0  0
    1.1896    0.3100   -0.0964 C   0  0  0  0  0  0  0  0  0  0  0  0
   -0.2474    0.6025   -0.1784 C   0  0  0  0  0  0  0  0  0  0  0  0
   -1.2174   -0.2748    0.1089 C   0  0  0  0  0  0  0  0  0  0  0  0
    2.1494    1.2003    0.2029 C   0  0  0  0  0  0  0  0  0  0  0  0
   -1.1892   -1.6815    0.5885 C   0  0  0  0  0  0  0  0  0  0  0  0
    3.3485    0.4501    0.1550 C   0  0  0  0  0  0  0  0  0  0  0  0
    2.9824   -0.8344   -0.1735 C   0  0  0  0  0  0  0  0  0  0  0  0
  1  5  1  0
  1 11  1  0
  2  4  1  0
  3  4  2  0
  4  7  1  0
  5  6  1  0
  5  8  2  0
  6  7  2  0
  7  9  1  0
  8 10  1  0
 10 11  2  0
M  CHG  2   2  -1   4   1
M  END
>  <PUBCHEM_COMPOUND_CID>  (1) 
36409

>  <PUBCHEM_CONFORMER_RMSD>  (1) 
0.4

>  <PUBCHEM_CONFORMER_DIVERSEORDER>  (1) 
1
4
2
3
5
6

>  <PUBCHEM_MMFF94_PARTIAL_CHARGES>  (1) 
15
1 -0.28
10 -0.15
11 -0.01
12 0.15
13 0.15
17 0.15
18 0.15
2 -0.52
3 -0.52
4 0.84
5 0.09
6 -0.11
7 0.07
8 -0.15
9 0.14

>  <PUBCHEM_EFFECTIVE_ROTOR_COUNT>  (1) 
2

>  <PUBCHEM_PHARMACOPHORE_FEATURES>  (1) 
5
1 1 acceptor
1 2 acceptor
1 2 anion
1 3 acceptor
5 1 5 8 10 11 rings

>  <PUBCHEM_HEAVY_ATOM_COUNT>  (1) 
11

>  <PUBCHEM_ATOM_DEF_STEREO_COUNT>  (1) 
0

>  <PUBCHEM_ATOM_UDEF_STEREO_COUNT>  (1) 
0

>  <PUBCHEM_BOND_DEF_STEREO_COUNT>  (1) 
0

>  <PUBCHEM_BOND_UDEF_STEREO_COUNT>  (1) 
1

>  <PUBCHEM_ISOTOPIC_ATOM_COUNT>  (1) 
0

>  <PUBCHEM_COMPONENT_COUNT>  (1) 
1

>  <PUBCHEM_CACTVS_TAUTO_COUNT>  (1) 
1

>  <PUBCHEM_CONFORMER_ID>  (1) 
00008E3900000001

>  <PUBCHEM_MMFF94_ENERGY>  (1) 
26.2526

>  <PUBCHEM_FEATURE_SELFOVERLAP>  (1) 
25.451

>  <PUBCHEM_SHAPE_FINGERPRINT>  (1) 
10608611 8 18411696612441401040
11062470 55 18131632287573696104
12162725 195 18412825797855559888
12932764 1 17275097357821904941
13380535 76 18410008853576663802
14144814 61 18408322172547887680
14325111 11 18411418397297031437
18186145 218 18338798909894062869
19973954 147 18337114586887247736
20201158 50 18412263939071764610
20645477 70 18270959046956029727
20871998 184 18198350739310753687
23402539 116 18339912797193960799
23402655 69 18342731901910472333
23552423 10 18041563662428423730
3248919 1 18259984911434838916
369184 2 18202566189507797691
57812782 119 18272083907311481015
69090 78 18343015623197387007

>  <PUBCHEM_SHAPE_MULTIPOLES>  (1) 
203.79
5.54
1.4
0.65
0.57
0.16
0.02
-0.31
-0.18
0.28
0.15
-0.02
0.06
0.2

>  <PUBCHEM_SHAPE_SELFOVERLAP>  (1) 
425.696

>  <PUBCHEM_SHAPE_VOLUME>  (1) 
117.4

>  <PUBCHEM_COORDINATE_TYPE>  (1) 
2
5
10

$$$$
