36437
     RDKit          3D

 32 35  0  0  1  0  0  0  0  0999 V2000
    6.6400   -1.4926   -1.6886 Cl  0  0  0  0  0  0  0  0  0  0  0  0
   -0.3853   -0.4572    1.9985 O   0  0  0  0  0  0  0  0  0  0  0  0
    0.1950   -0.6380   -0.2804 N   0  0  0  0  0  0  0  0  0  0  0  0
    1.5261   -0.9354   -0.1407 N   0  0  0  0  0  0  0  0  0  0  0  0
   -0.9565    4.7277    0.0188 N   0  0  0  0  0  0  0  0  0  0  0  0
   -2.0638   -0.1076    0.2105 C   0  0  0  0  0  0  0  0  0  0  0  0
   -2.5007    1.2971    0.6145 C   0  0  0  0  0  0  0  0  0  0  0  0
   -1.7968   -0.2183   -1.2834 C   0  0  0  0  0  0  0  0  0  0  0  0
   -0.6569   -0.4199    0.8069 C   0  0  0  0  0  0  0  0  0  0  0  0
   -0.4525   -0.5289   -1.5074 C   0  0  0  0  0  0  0  0  0  0  0  0
   -3.0483   -1.1293    0.6837 C   0  0  0  0  0  0  0  0  0  0  0  0
   -1.4821    2.3451    0.1650 C   0  0  0  0  0  0  0  0  0  0  0  0
   -2.6690   -0.0526   -2.3473 C   0  0  0  0  0  0  0  0  0  0  0  0
   -1.9219    3.7682    0.4981 C   0  0  0  0  0  0  0  0  0  0  0  0
    0.0612   -0.6861   -2.7825 C   0  0  0  0  0  0  0  0  0  0  0  0
   -4.2406   -0.7209    1.2766 C   0  0  0  0  0  0  0  0  0  0  0  0
   -2.7682   -2.4850    0.5301 C   0  0  0  0  0  0  0  0  0  0  0  0
   -2.1679   -0.2080   -3.6424 C   0  0  0  0  0  0  0  0  0  0  0  0
    2.2306    0.1723    0.5084 C   0  0  0  0  0  0  0  0  0  0  0  0
   -0.8148   -0.5221   -3.8577 C   0  0  0  0  0  0  0  0  0  0  0  0
    1.6952   -2.1695    0.6293 C   0  0  0  0  0  0  0  0  0  0  0  0
   -5.1584   -1.6741    1.7181 C   0  0  0  0  0  0  0  0  0  0  0  0
   -3.6860   -3.4380    0.9716 C   0  0  0  0  0  0  0  0  0  0  0  0
    3.7073   -0.0954    0.6281 C   0  0  0  0  0  0  0  0  0  0  0  0
   -4.8810   -3.0326    1.5656 C   0  0  0  0  0  0  0  0  0  0  0  0
    0.3448    4.5445    0.6759 C   0  0  0  0  0  0  0  0  0  0  0  0
   -1.4272    6.1038    0.2281 C   0  0  0  0  0  0  0  0  0  0  0  0
    4.3999   -0.6084   -0.4598 C   0  0  0  0  0  0  0  0  0  0  0  0
    4.3557    0.1754    1.8251 C   0  0  0  0  0  0  0  0  0  0  0  0
    5.7682   -0.8556   -0.3485 C   0  0  0  0  0  0  0  0  0  0  0  0
    5.7237   -0.0716    1.9365 C   0  0  0  0  0  0  0  0  0  0  0  0
    6.4301   -0.5869    0.8497 C   0  0  0  0  0  0  0  0  0  0  0  0
  1 30  1  0
  2  9  2  0
  3  4  1  0
  3  9  1  0
  3 10  1  0
  4 19  1  0
  4 21  1  0
  5 14  1  0
  5 26  1  0
  5 27  1  0
  6  7  1  0
  6  8  1  0
  6  9  1  0
  6 11  1  0
  7 12  1  0
  8 10  2  0
  8 13  1  0
 10 15  1  0
 11 16  2  0
 11 17  1  0
 12 14  1  0
 13 18  2  0
 15 20  2  0
 16 22  1  0
 17 23  2  0
 18 20  1  0
 19 24  1  0
 22 25  2  0
 23 25  1  0
 24 28  2  0
 24 29  1  0
 28 30  1  0
 29 31  2  0
 30 32  2  0
 31 32  1  0
M  END
>  <PUBCHEM_COMPOUND_CID>  (1) 
36437

>  <PUBCHEM_CONFORMER_RMSD>  (1) 
1

>  <PUBCHEM_CONFORMER_DIVERSEORDER>  (1) 
1
36
85
35
87
38
89
50
74
48
27
65
64
70
66
81
58
43
13
59
16
63
23
82
31
86
8
30
56
28
40
14
6
68
17
83
67
53
2
79
26
42
90
45
15
52
5
22
7
55
80
33
78
75
84
37
51
61
76
21
25
88
11
73
32
9
29
18
12
34
71
24
72
10
41
62
4
77
19
60
57
49
3
20
47
69
46
39
54
44

>  <PUBCHEM_MMFF94_PARTIAL_CHARGES>  (1) 
43
1 -0.18
10 0.12
11 -0.14
13 -0.15
14 0.27
15 -0.15
16 -0.15
17 -0.15
18 -0.15
19 0.41
2 -0.57
20 -0.15
21 0.27
22 -0.15
23 -0.15
24 -0.14
25 -0.15
26 0.27
27 0.27
28 -0.15
29 -0.15
3 -0.17
30 0.18
31 -0.15
32 -0.15
37 0.15
4 -0.55
40 0.15
41 0.15
42 0.15
45 0.15
46 0.15
5 -0.81
50 0.15
51 0.15
52 0.15
59 0.15
6 0.35
60 0.15
61 0.15
62 0.15
8 -0.14
9 0.57

>  <PUBCHEM_EFFECTIVE_ROTOR_COUNT>  (1) 
8.4

>  <PUBCHEM_PHARMACOPHORE_FEATURES>  (1) 
6
1 2 acceptor
1 5 cation
5 3 6 8 9 10 rings
6 11 16 17 22 23 25 rings
6 24 28 29 30 31 32 rings
6 8 10 13 15 18 20 rings

>  <PUBCHEM_HEAVY_ATOM_COUNT>  (1) 
32

>  <PUBCHEM_ATOM_DEF_STEREO_COUNT>  (1) 
0

>  <PUBCHEM_ATOM_UDEF_STEREO_COUNT>  (1) 
1

>  <PUBCHEM_BOND_DEF_STEREO_COUNT>  (1) 
0

>  <PUBCHEM_BOND_UDEF_STEREO_COUNT>  (1) 
0

>  <PUBCHEM_ISOTOPIC_ATOM_COUNT>  (1) 
0

>  <PUBCHEM_COMPONENT_COUNT>  (1) 
1

>  <PUBCHEM_CACTVS_TAUTO_COUNT>  (1) 
1

>  <PUBCHEM_CONFORMER_ID>  (1) 
00008E5500000001

>  <PUBCHEM_MMFF94_ENERGY>  (1) 
104.6779

>  <PUBCHEM_FEATURE_SELFOVERLAP>  (1) 
30.532

>  <PUBCHEM_SHAPE_FINGERPRINT>  (1) 
11445158 3 17981602976907920439
11582403 64 17121390877062631209
11763715 3 18117587169005982688
12082328 90 18338526245087760574
12422481 6 17703801339580379049
12633046 712 18116417173371785530
12788726 201 18187649067872003851
13009979 54 17605856913257809891
13583140 156 18131069282171218070
13782708 43 17822008701656139490
14068700 675 17822580507124664783
14856354 85 18338248119262536474
15131766 46 16986582320308031984
15219462 58 18267009579814448278
15684970 41 17905364975268827363
15876981 60 18261410930835183044
15878777 1 17683570343242090021
17980427 26 17475803520959614733
19315092 285 17677910100078575964
20600515 1 18198647522083248289
23419403 2 17827055601502212125
3552219 110 17677354803661955992
376196 1 17336457549836132013
469060 322 17987784328300516047
497634 4 17894918408203513830
508706 21 18270111315264927032
5171179 24 16951121918965251111
550186 7 18198630929780733685

>  <PUBCHEM_SHAPE_MULTIPOLES>  (1) 
639.6
11.93
5.08
2.9
21.81
12.07
-3.65
-9.76
4.88
-6.25
2.01
-1.19
-1.25
2.11

>  <PUBCHEM_SHAPE_SELFOVERLAP>  (1) 
1376.078

>  <PUBCHEM_SHAPE_VOLUME>  (1) 
357.3

>  <PUBCHEM_COORDINATE_TYPE>  (1) 
2
5
10

$$$$
