36432
     RDKit          3D

 17 19  0  0  1  0  0  0  0  0999 V2000
   -0.0311   -2.2822    0.8764 O   0  0  0  0  0  0  0  0  0  0  0  0
   -0.0676    2.3463    0.7619 O   0  0  0  0  0  0  0  0  0  0  0  0
    0.2814    0.0375    0.9407 N   0  0  0  0  0  0  0  0  0  0  0  0
   -1.8984   -0.7632    0.6724 C   0  0  0  0  0  0  0  0  0  0  0  0
   -1.9102    0.7894    0.6348 C   0  0  0  0  0  0  0  0  0  0  0  0
   -2.4758   -1.1444   -0.7093 C   0  0  0  0  0  0  0  0  0  0  0  0
   -2.4935    1.0943   -0.7635 C   0  0  0  0  0  0  0  0  0  0  0  0
   -1.9124   -0.0418   -1.6155 C   0  0  0  0  0  0  0  0  0  0  0  0
   -3.9247   -0.7076   -0.7175 C   0  0  0  0  0  0  0  0  0  0  0  0
   -3.9352    0.6349   -0.7498 C   0  0  0  0  0  0  0  0  0  0  0  0
   -0.4480   -1.1325    0.8485 C   0  0  0  0  0  0  0  0  0  0  0  0
   -0.4655    1.1898    0.7915 C   0  0  0  0  0  0  0  0  0  0  0  0
    1.7125    0.0542    1.1747 C   0  0  0  0  0  0  0  0  0  0  0  0
    2.4945   -0.0184   -0.1314 C   0  0  0  0  0  0  0  0  0  0  0  0
    4.0021    0.0070    0.1206 C   0  0  0  0  0  0  0  0  0  0  0  0
    4.7860   -0.0272   -1.1910 C   0  0  0  0  0  0  0  0  0  0  0  0
    6.2861   -0.0358   -0.9435 C   0  0  0  0  0  0  0  0  0  0  0  0
  1 11  2  0
  2 12  2  0
  3 11  1  0
  3 12  1  0
  3 13  1  0
  4  5  1  0
  4  6  1  0
  4 11  1  0
  5  7  1  0
  5 12  1  0
  6  8  1  0
  6  9  1  0
  7  8  1  0
  7 10  1  0
  9 10  2  0
 13 14  1  0
 14 15  1  0
 15 16  1  0
 16 17  1  0
M  END
>  <PUBCHEM_COMPOUND_CID>  (1) 
36432

>  <PUBCHEM_CONFORMER_RMSD>  (1) 
0.6

>  <PUBCHEM_CONFORMER_DIVERSEORDER>  (1) 
1
43
46
35
56
22
75
19
85
18
34
77
2
33
93
89
88
28
24
25
79
32
61
83
7
73
42
78
40
91
8
9
52
80
5
41
51
81
20
74
39
87
27
4
37
12
60
17
26
76
29
65
38
16
68
6
50
90
23
58
84
55
49
67
21
86
30
44
31
82
13
14
36
70
92
62
57
69
3
11
48
59
45
66
63
15
64
53
10
71
47
54
72

>  <PUBCHEM_MMFF94_PARTIAL_CHARGES>  (1) 
14
1 -0.57
10 -0.29
11 0.57
12 0.57
13 0.3
2 -0.57
24 0.15
25 0.15
3 -0.42
4 0.06
5 0.06
6 0.14
7 0.14
9 -0.29

>  <PUBCHEM_EFFECTIVE_ROTOR_COUNT>  (1) 
4.4

>  <PUBCHEM_PHARMACOPHORE_FEATURES>  (1) 
5
1 1 acceptor
1 17 hydrophobe
1 2 acceptor
5 3 4 5 11 12 rings
7 4 5 6 7 8 9 10 rings

>  <PUBCHEM_HEAVY_ATOM_COUNT>  (1) 
17

>  <PUBCHEM_ATOM_DEF_STEREO_COUNT>  (1) 
0

>  <PUBCHEM_ATOM_UDEF_STEREO_COUNT>  (1) 
4

>  <PUBCHEM_BOND_DEF_STEREO_COUNT>  (1) 
0

>  <PUBCHEM_BOND_UDEF_STEREO_COUNT>  (1) 
0

>  <PUBCHEM_ISOTOPIC_ATOM_COUNT>  (1) 
0

>  <PUBCHEM_COMPONENT_COUNT>  (1) 
1

>  <PUBCHEM_CACTVS_TAUTO_COUNT>  (1) 
1

>  <PUBCHEM_CONFORMER_ID>  (1) 
00008E5000000001

>  <PUBCHEM_MMFF94_ENERGY>  (1) 
39.6321

>  <PUBCHEM_FEATURE_SELFOVERLAP>  (1) 
25.469

>  <PUBCHEM_SHAPE_FINGERPRINT>  (1) 
10465860 71 18343012315676800193
11315181 36 18334867130308677300
12251169 10 8070021173368829986
13024252 1 11386368153767408209
13288520 33 16343989096015174796
14943859 89 16081085978646249976
15209294 21 12107783008475614084
15775835 57 17168141230506289038
16945 1 18194088946853214153
17870717 6 18201730539412227158
1813 80 13901916635102126016
18186145 218 18336814368631130832
187816 3 18410575089179592306
19489759 90 18341614794392144656
19784866 240 16200437987411201276
19862831 5 18333449846381664664
200 152 16415763016237765706
20300324 65 18272938202477561192
20325693 3 18409166610663569487
20374829 77 17917989473441975486
20645476 183 17748824150373544634
20645477 56 14273459180258656704
20671657 53 16200431407421109840
20871999 31 18410572898524744764
21637258 2 15697988643948949375
22713019 99 17989202668093001150
23198884 109 18186525397707328046
23227448 37 14996578329418798870
23379529 103 17556002933771241031
23402539 116 18341334414310594492
23403322 49 17418097594332054414
23419403 2 16372726018045648657
23559900 14 18341889732386719000
24859131 72 10807941474172549605
26918003 58 13973966497839912742
27216 239 14129350614880017916
2748010 2 17830432223243990275
2838139 119 16226037895139454950
4175511 318 17748830730548005494
474 4 14562533994267639478
5104073 3 10663239220593255975
56616090 284 18342740736615988778
69474 34 8502368919377123646
76465 3 12606818385561204581
90316 7 11527678495780781570

>  <PUBCHEM_SHAPE_MULTIPOLES>  (1) 
333.13
9.39
1.53
1.36
16.72
0.07
-0.17
-0.28
-5.34
-0.84
0.44
0.05
-0.04
0.04

>  <PUBCHEM_SHAPE_SELFOVERLAP>  (1) 
716.439

>  <PUBCHEM_SHAPE_VOLUME>  (1) 
190.7

>  <PUBCHEM_COORDINATE_TYPE>  (1) 
2
5
10

$$$$
