36435
     RDKit          3D

 44 49  0  0  0  0  0  0  0  0999 V2000
   -1.4329   -1.6638    0.3924 O   0  0  0  0  0  0  0  0  0  0  0  0
    2.8875    0.5021    0.5364 O   0  0  0  0  0  0  0  0  0  0  0  0
   -2.6378    0.6922    0.5395 O   0  0  0  0  0  0  0  0  0  0  0  0
    2.6409   -2.0325    0.3760 O   0  0  0  0  0  0  0  0  0  0  0  0
   -1.0653    5.5859    0.8514 O   0  0  0  0  0  0  0  0  0  0  0  0
   -2.0049   -6.3607    0.0883 O   0  0  0  0  0  0  0  0  0  0  0  0
   -2.4407    3.2536    0.7000 O   0  0  0  0  0  0  0  0  0  0  0  0
    2.8984    3.0499    0.6977 O   0  0  0  0  0  0  0  0  0  0  0  0
    2.8513    0.6383   -1.7904 O   0  0  0  0  0  0  0  0  0  0  0  0
   -2.5932    0.8510   -1.7857 O   0  0  0  0  0  0  0  0  0  0  0  0
    0.7675   -0.6081    0.4628 C   0  0  0  0  0  0  0  0  0  0  0  0
   -0.6251   -0.5552    0.4639 C   0  0  0  0  0  0  0  0  0  0  0  0
    0.8738    1.8015    0.6152 C   0  0  0  0  0  0  0  0  0  0  0  0
   -0.5219    1.8603    0.6167 C   0  0  0  0  0  0  0  0  0  0  0  0
    1.5247    0.5646    0.5382 C   0  0  0  0  0  0  0  0  0  0  0  0
    0.5421   -3.0967    0.3036 C   0  0  0  0  0  0  0  0  0  0  0  0
   -1.2724    0.6805    0.5410 C   0  0  0  0  0  0  0  0  0  0  0  0
    1.4242   -1.9224    0.3805 C   0  0  0  0  0  0  0  0  0  0  0  0
   -0.8381   -2.8988    0.3140 C   0  0  0  0  0  0  0  0  0  0  0  0
    1.0739   -4.3861    0.2209 C   0  0  0  0  0  0  0  0  0  0  0  0
   -1.2188    3.1599    0.6975 C   0  0  0  0  0  0  0  0  0  0  0  0
    1.6735    3.0389    0.6948 C   0  0  0  0  0  0  0  0  0  0  0  0
   -1.6945   -3.9992    0.2413 C   0  0  0  0  0  0  0  0  0  0  0  0
    0.2133   -5.4817    0.1483 C   0  0  0  0  0  0  0  0  0  0  0  0
   -0.3874    4.3857    0.7769 C   0  0  0  0  0  0  0  0  0  0  0  0
   -1.1683   -5.2889    0.1583 C   0  0  0  0  0  0  0  0  0  0  0  0
    0.9460    4.3220    0.7749 C   0  0  0  0  0  0  0  0  0  0  0  0
    2.5387   -4.6830    0.2041 C   0  0  0  0  0  0  0  0  0  0  0  0
    3.4609    0.5561   -0.7348 C   0  0  0  0  0  0  0  0  0  0  0  0
   -3.2064    0.7772   -0.7316 C   0  0  0  0  0  0  0  0  0  0  0  0
    4.9418    0.4830   -0.6548 C   0  0  0  0  0  0  0  0  0  0  0  0
   -4.6890    0.7848   -0.6513 C   0  0  0  0  0  0  0  0  0  0  0  0
   -1.3095    6.1048   -0.4412 C   0  0  0  0  0  0  0  0  0  0  0  0
   -3.4061   -6.0924    0.1032 C   0  0  0  0  0  0  0  0  0  0  0  0
    5.6747    0.5084   -1.8238 C   0  0  0  0  0  0  0  0  0  0  0  0
    5.5391    0.3925    0.5857 C   0  0  0  0  0  0  0  0  0  0  0  0
   -5.4053    1.4695   -1.6117 C   0  0  0  0  0  0  0  0  0  0  0  0
   -5.3046    0.1064    0.3807 C   0  0  0  0  0  0  0  0  0  0  0  0
    7.0658    0.4399   -1.7488 C   0  0  0  0  0  0  0  0  0  0  0  0
    6.9303    0.3243    0.6606 C   0  0  0  0  0  0  0  0  0  0  0  0
   -6.7981    1.4764   -1.5365 C   0  0  0  0  0  0  0  0  0  0  0  0
   -6.6974    0.1134    0.4556 C   0  0  0  0  0  0  0  0  0  0  0  0
    7.6936    0.3481   -0.5068 C   0  0  0  0  0  0  0  0  0  0  0  0
   -7.4441    0.7984   -0.5029 C   0  0  0  0  0  0  0  0  0  0  0  0
  1 12  1  0
  1 19  1  0
  2 15  1  0
  2 29  1  0
  3 17  1  0
  3 30  1  0
  4 18  2  0
  5 25  1  0
  5 33  1  0
  6 26  1  0
  6 34  1  0
  7 21  2  0
  8 22  2  0
  9 29  2  0
 10 30  2  0
 11 12  2  0
 11 15  1  0
 11 18  1  0
 12 17  1  0
 13 14  1  0
 13 15  2  0
 13 22  1  0
 14 17  2  0
 14 21  1  0
 16 18  1  0
 16 19  2  0
 16 20  1  0
 19 23  1  0
 20 24  2  0
 20 28  1  0
 21 25  1  0
 22 27  1  0
 23 26  2  0
 24 26  1  0
 25 27  2  0
 29 31  1  0
 30 32  1  0
 31 35  2  0
 31 36  1  0
 32 37  2  0
 32 38  1  0
 35 39  1  0
 36 40  2  0
 37 41  1  0
 38 42  2  0
 39 43  2  0
 40 43  1  0
 41 44  2  0
 42 44  1  0
M  END
>  <PUBCHEM_COMPOUND_CID>  (1) 
36435

>  <PUBCHEM_CONFORMER_RMSD>  (1) 
1

>  <PUBCHEM_CONFORMER_DIVERSEORDER>  (1) 
1
29
31
30
12
37
10
22
25
5
19
24
36
4
17
27
15
35
23
11
32
21
28
26
14
16
7
8
33
9
3
34
6
20
18
13
38
2

>  <PUBCHEM_MMFF94_PARTIAL_CHARGES>  (1) 
57
1 -0.17
10 -0.57
11 0.09
12 0.08
13 0.09
14 0.09
15 0.08
16 0.09
17 0.08
18 0.4
19 0.08
2 -0.23
20 -0.14
21 0.47
22 0.47
23 -0.15
24 -0.15
25 0.09
26 0.08
27 -0.14
28 0.14
29 0.63
3 -0.23
30 0.63
31 0.09
32 0.09
33 0.28
34 0.28
35 -0.15
36 -0.15
37 -0.15
38 -0.15
39 -0.15
4 -0.57
40 -0.15
41 -0.15
42 -0.15
43 -0.15
44 -0.15
45 0.15
46 0.15
47 0.15
5 -0.36
57 0.15
58 0.15
59 0.15
6 -0.36
60 0.15
61 0.15
62 0.15
63 0.15
64 0.15
65 0.15
66 0.15
7 -0.57
8 -0.57
9 -0.57

>  <PUBCHEM_EFFECTIVE_ROTOR_COUNT>  (1) 
8

>  <PUBCHEM_PHARMACOPHORE_FEATURES>  (1) 
14
1 1 acceptor
1 10 acceptor
1 4 acceptor
1 5 acceptor
1 6 acceptor
1 7 acceptor
1 8 acceptor
1 9 acceptor
6 1 11 12 16 18 19 rings
6 11 12 13 14 15 17 rings
6 13 14 21 22 25 27 rings
6 16 19 20 23 24 26 rings
6 31 35 36 39 40 43 rings
6 32 37 38 41 42 44 rings

>  <PUBCHEM_HEAVY_ATOM_COUNT>  (1) 
44

>  <PUBCHEM_ATOM_DEF_STEREO_COUNT>  (1) 
0

>  <PUBCHEM_ATOM_UDEF_STEREO_COUNT>  (1) 
0

>  <PUBCHEM_BOND_DEF_STEREO_COUNT>  (1) 
0

>  <PUBCHEM_BOND_UDEF_STEREO_COUNT>  (1) 
0

>  <PUBCHEM_ISOTOPIC_ATOM_COUNT>  (1) 
0

>  <PUBCHEM_COMPONENT_COUNT>  (1) 
1

>  <PUBCHEM_CACTVS_TAUTO_COUNT>  (1) 
1

>  <PUBCHEM_CONFORMER_ID>  (1) 
00008E5300000001

>  <PUBCHEM_MMFF94_ENERGY>  (1) 
176.7282

>  <PUBCHEM_FEATURE_SELFOVERLAP>  (1) 
71.143

>  <PUBCHEM_SHAPE_FINGERPRINT>  (1) 
10050765 1 18050286165739717912
10190108 129 18268448875201212985
10190206 1 18339657633303450300
102385 1 17763181745144852609
10411042 1 18052263088110773794
10930396 42 18267842009534237872
1100329 8 18339922739510643976
11135926 11 18337676322061178673
11136131 41 18116992183040097322
11445158 3 17464019869803280357
11991303 11 18114184176207919638
12202916 173 18131631184378914654
12440605 4 17909280087299284993
13540713 4 17983854764205988136
13540713 5 17909833136957254689
13617811 41 18409165493993885876
13636023 51 17168976795467827423
13911987 19 18408040689287314581
14725015 67 18342449327691730944
15320294 125 18042387098856116378
15320467 1 18266734874260071091
15351339 4 18267298742444827048
15484559 13 18342446024835136495
15538507 32 18337393850325793940
15775530 1 17763464319696455661
15890870 6 18407759222589406127
15927050 60 18411694417998566575
15950262 2 15936693691923162397
19304144 158 17822566102221281077
19311894 1 18340210803431598674
19319366 153 18339071601853006079
20775438 99 17408492475405216533
21781051 124 18114471157479871185
22122407 14 15647638704211361204
22223350 30 18194962078696445600
22311459 1 18411699877001479688
22440779 20 16449005852555747690
23576562 1 18042974374428045180
25223398 141 18042691778733869015
283562 15 18270967817042235072
3103668 31 18192713569155341271
3178227 256 18337965557843340121
3383291 50 18412265051293987592
4394409 98 18333734606792449900
484989 97 18264495147087479225
5171179 24 17908145725910774915
5265222 85 18189060948187104996
563151 97 18266744571600101004
9961470 85 18127121107720393992
9981440 41 18192725453650901552

>  <PUBCHEM_SHAPE_MULTIPOLES>  (1) 
846.81
14.54
9.24
1.23
4.1
9.08
0.58
-5.74
6.71
-5.78
-2.1
0.36
-0.75
0.57

>  <PUBCHEM_SHAPE_SELFOVERLAP>  (1) 
1921.506

>  <PUBCHEM_SHAPE_VOLUME>  (1) 
436

>  <PUBCHEM_COORDINATE_TYPE>  (1) 
2
5
10

$$$$
