36459
     RDKit          3D

 16 16  0  0  0  0  0  0  0  0999 V2000
    0.2294   -1.8941    0.0055 O   0  0  0  0  0  0  0  0  0  0  0  0
   -4.7434   -1.4805   -0.0157 O   0  0  0  0  0  0  0  0  0  0  0  0
   -5.2218    1.2570   -0.0095 O   0  0  0  0  0  0  0  0  0  0  0  0
    2.4441   -0.3878    0.0237 N   0  0  0  0  0  0  0  0  0  0  0  0
    4.8891   -0.2188   -0.0036 C   0  0  0  0  0  0  0  0  0  0  0  0
    3.5656    0.5440    0.0222 C   0  0  0  0  0  0  0  0  0  0  0  0
    6.0795    0.7408   -0.0273 C   0  0  0  0  0  0  0  0  0  0  0  0
    1.1754    0.3268    0.0149 C   0  0  0  0  0  0  0  0  0  0  0  0
    0.0392   -0.6796    0.0083 C   0  0  0  0  0  0  0  0  0  0  0  0
    7.4013   -0.0105   -0.0173 C   0  0  0  0  0  0  0  0  0  0  0  0
   -1.3635   -0.1672    0.0047 C   0  0  0  0  0  0  0  0  0  0  0  0
   -2.3966   -1.0759   -0.0029 C   0  0  0  0  0  0  0  0  0  0  0  0
   -1.5673    1.1934    0.0076 C   0  0  0  0  0  0  0  0  0  0  0  0
   -3.7067   -0.5970   -0.0080 C   0  0  0  0  0  0  0  0  0  0  0  0
   -2.8772    1.6723    0.0025 C   0  0  0  0  0  0  0  0  0  0  0  0
   -3.9470    0.7772   -0.0051 C   0  0  0  0  0  0  0  0  0  0  0  0
  1  9  2  0
  2 14  1  0
  3 16  1  0
  4  6  1  0
  4  8  1  0
  5  6  1  0
  5  7  1  0
  7 10  1  0
  8  9  1  0
  9 11  1  0
 11 12  2  0
 11 13  1  0
 12 14  1  0
 13 15  2  0
 14 16  2  0
 15 16  1  0
M  END
>  <PUBCHEM_COMPOUND_CID>  (1) 
36459

>  <PUBCHEM_CONFORMER_RMSD>  (1) 
0.8

>  <PUBCHEM_CONFORMER_DIVERSEORDER>  (1) 
1
26
102
47
61
44
69
37
84
79
60
48
65
54
33
55
92
42
90
62
4
27
77
5
97
6
76
78
94
51
81
53
80
38
31
50
56
71
73
10
11
95
25
101
21
91
22
59
8
68
46
15
83
82
3
45
52
75
70
34
67
14
64
41
93
2
89
28
35
12
66
87
99
13
96
63
74
24
7
98
85
72
18
19
103
9
17
39
40
86
29
43
30
20
16
58
32
36
23
88
57
49
100

>  <PUBCHEM_MMFF94_PARTIAL_CHARGES>  (1) 
19
1 -0.57
11 0.09
12 -0.15
13 -0.15
14 0.08
15 -0.15
16 0.08
2 -0.53
23 0.36
29 0.15
3 -0.53
30 0.15
31 0.15
32 0.45
33 0.45
4 -0.9
6 0.27
8 0.33
9 0.42

>  <PUBCHEM_EFFECTIVE_ROTOR_COUNT>  (1) 
6

>  <PUBCHEM_PHARMACOPHORE_FEATURES>  (1) 
7
1 1 acceptor
1 10 hydrophobe
1 2 donor
1 3 donor
1 4 cation
1 4 donor
6 11 12 13 14 15 16 rings

>  <PUBCHEM_HEAVY_ATOM_COUNT>  (1) 
16

>  <PUBCHEM_ATOM_DEF_STEREO_COUNT>  (1) 
0

>  <PUBCHEM_ATOM_UDEF_STEREO_COUNT>  (1) 
0

>  <PUBCHEM_BOND_DEF_STEREO_COUNT>  (1) 
0

>  <PUBCHEM_BOND_UDEF_STEREO_COUNT>  (1) 
0

>  <PUBCHEM_ISOTOPIC_ATOM_COUNT>  (1) 
0

>  <PUBCHEM_COMPONENT_COUNT>  (1) 
1

>  <PUBCHEM_CACTVS_TAUTO_COUNT>  (1) 
47

>  <PUBCHEM_CONFORMER_ID>  (1) 
00008E6B00000001

>  <PUBCHEM_MMFF94_ENERGY>  (1) 
25.5586

>  <PUBCHEM_FEATURE_SELFOVERLAP>  (1) 
35.524

>  <PUBCHEM_SHAPE_FINGERPRINT>  (1) 
10411042 1 17906172103257218347
11315181 36 17676772062467397818
12091667 2 18411982477016788170
12107183 9 17541370251139821880
12236239 1 18040152925086468696
13214271 11 18412824690444827927
13288520 33 18413108389913897839
13533116 47 17023455371138683776
13897977 58 18408885135407368177
14251718 22 18412826902342357642
14251764 18 18186798094256097608
15042514 8 18194403526890190523
15778101 99 18342179916961292617
17834072 33 18336547205170979884
19489759 90 18333449850375925664
20281389 69 18187080651317179580
20645477 56 18343018891540515332
20645477 70 17203058383506617966
21267235 1 18337394945773822155
2297311 6 18272658952114626716
23402539 116 18342171185218485244
23536379 177 18409166598232270274
23559900 14 18272645775366024512
2916195 48 18272363205257010408
3004659 81 18337113372593229342
351380 180 18412262848382141004
3545911 37 18412263917770852008
4214541 1 18410856572931029248
42788 4 18410856577563444260
5104073 3 18336552599143729547
542803 24 17603867814923033732
59755656 520 17603583045569764210

>  <PUBCHEM_SHAPE_MULTIPOLES>  (1) 
306.68
15.17
1.48
0.59
25.31
0.08
0
-2.13
0.14
-1.73
0
0.05
-0.02
-0.01

>  <PUBCHEM_SHAPE_SELFOVERLAP>  (1) 
621.551

>  <PUBCHEM_SHAPE_VOLUME>  (1) 
179.4

>  <PUBCHEM_COORDINATE_TYPE>  (1) 
2
5
10

$$$$
