36453
     RDKit          3D

 30 33  0  0  1  0  0  0  0  0999 V2000
   -0.1928   -0.1420   -2.4748 O   0  0  0  0  0  0  0  0  0  0  0  0
   -3.6137   -0.4204   -0.8687 O   0  0  0  0  0  0  0  0  0  0  0  0
   -0.6463    1.3297   -0.6884 N   0  0  0  0  0  0  0  0  0  0  0  0
   -1.4508    2.2246   -1.3455 N   0  0  0  0  0  0  0  0  0  0  0  0
    5.0297    0.2313   -0.1467 N   0  0  0  0  0  0  0  0  0  0  0  0
    0.7601   -0.5216   -0.2200 C   0  0  0  0  0  0  0  0  0  0  0  0
    2.2311   -0.5491   -0.6236 C   0  0  0  0  0  0  0  0  0  0  0  0
    0.5157    0.3548    0.9996 C   0  0  0  0  0  0  0  0  0  0  0  0
   -0.0778    0.2138   -1.3107 C   0  0  0  0  0  0  0  0  0  0  0  0
   -0.3150    1.4264    0.6598 C   0  0  0  0  0  0  0  0  0  0  0  0
    0.2326   -1.9085   -0.0314 C   0  0  0  0  0  0  0  0  0  0  0  0
    2.7697    0.8610   -0.8559 C   0  0  0  0  0  0  0  0  0  0  0  0
    0.9931    0.2152    2.2928 C   0  0  0  0  0  0  0  0  0  0  0  0
    4.2515    0.8270   -1.2262 C   0  0  0  0  0  0  0  0  0  0  0  0
   -0.6959    2.3813    1.5859 C   0  0  0  0  0  0  0  0  0  0  0  0
    0.8510   -2.9787   -0.6735 C   0  0  0  0  0  0  0  0  0  0  0  0
   -0.8751   -2.1238    0.7851 C   0  0  0  0  0  0  0  0  0  0  0  0
    0.6183    1.1698    3.2418 C   0  0  0  0  0  0  0  0  0  0  0  0
   -2.6569    1.5578   -1.8408 C   0  0  0  0  0  0  0  0  0  0  0  0
   -0.2189    2.2431    2.8911 C   0  0  0  0  0  0  0  0  0  0  0  0
   -0.7219    2.8495   -2.4513 C   0  0  0  0  0  0  0  0  0  0  0  0
    0.3586   -4.2720   -0.4978 C   0  0  0  0  0  0  0  0  0  0  0  0
   -1.3672   -3.4170    0.9608 C   0  0  0  0  0  0  0  0  0  0  0  0
   -0.7505   -4.4910    0.3194 C   0  0  0  0  0  0  0  0  0  0  0  0
   -3.4325    0.9030   -0.7289 C   0  0  0  0  0  0  0  0  0  0  0  0
    6.4478    0.1718   -0.5053 C   0  0  0  0  0  0  0  0  0  0  0  0
    4.8515    0.9865    1.0948 C   0  0  0  0  0  0  0  0  0  0  0  0
   -3.9893    1.3975    0.3982 C   0  0  0  0  0  0  0  0  0  0  0  0
   -4.5810    0.2807    1.0351 C   0  0  0  0  0  0  0  0  0  0  0  0
   -4.3248   -0.8010    0.2251 C   0  0  0  0  0  0  0  0  0  0  0  0
  1  9  2  0
  2 25  1  0
  2 30  1  0
  3  4  1  0
  3  9  1  0
  3 10  1  0
  4 19  1  0
  4 21  1  0
  5 14  1  0
  5 26  1  0
  5 27  1  0
  6  7  1  0
  6  8  1  0
  6  9  1  0
  6 11  1  0
  7 12  1  0
  8 10  2  0
  8 13  1  0
 10 15  1  0
 11 16  2  0
 11 17  1  0
 12 14  1  0
 13 18  2  0
 15 20  2  0
 16 22  1  0
 17 23  2  0
 18 20  1  0
 19 25  1  0
 22 24  2  0
 23 24  1  0
 25 28  2  0
 28 29  1  0
 29 30  2  0
M  END
>  <PUBCHEM_COMPOUND_CID>  (1) 
36453

>  <PUBCHEM_CONFORMER_RMSD>  (1) 
1

>  <PUBCHEM_CONFORMER_DIVERSEORDER>  (1) 
6
37
20
40
22
48
43
35
41
2
11
15
46
30
25
8
13
24
29
31
28
16
23
26
44
14
10
47
3
45
21
12
42
18
39
1
32
36
38
34
9
4
27
33
5
17
19
7

>  <PUBCHEM_MMFF94_PARTIAL_CHARGES>  (1) 
40
1 -0.57
10 0.12
11 -0.14
13 -0.15
14 0.27
15 -0.15
16 -0.15
17 -0.15
18 -0.15
19 0.45
2 -0.28
20 -0.15
21 0.27
22 -0.15
23 -0.15
24 -0.15
25 -0.04
26 0.27
27 0.27
28 -0.15
29 -0.15
3 -0.17
30 -0.01
35 0.15
38 0.15
39 0.15
4 -0.55
40 0.15
41 0.15
44 0.15
48 0.15
49 0.15
5 -0.81
50 0.15
57 0.15
58 0.15
59 0.15
6 0.35
8 -0.14
9 0.57

>  <PUBCHEM_EFFECTIVE_ROTOR_COUNT>  (1) 
8.4

>  <PUBCHEM_PHARMACOPHORE_FEATURES>  (1) 
7
1 1 acceptor
1 2 acceptor
1 5 cation
5 2 25 28 29 30 rings
5 3 6 8 9 10 rings
6 11 16 17 22 23 24 rings
6 8 10 13 15 18 20 rings

>  <PUBCHEM_HEAVY_ATOM_COUNT>  (1) 
30

>  <PUBCHEM_ATOM_DEF_STEREO_COUNT>  (1) 
0

>  <PUBCHEM_ATOM_UDEF_STEREO_COUNT>  (1) 
1

>  <PUBCHEM_BOND_DEF_STEREO_COUNT>  (1) 
0

>  <PUBCHEM_BOND_UDEF_STEREO_COUNT>  (1) 
0

>  <PUBCHEM_ISOTOPIC_ATOM_COUNT>  (1) 
0

>  <PUBCHEM_COMPONENT_COUNT>  (1) 
1

>  <PUBCHEM_CACTVS_TAUTO_COUNT>  (1) 
1

>  <PUBCHEM_CONFORMER_ID>  (1) 
00008E6500000006

>  <PUBCHEM_MMFF94_ENERGY>  (1) 
87.88

>  <PUBCHEM_FEATURE_SELFOVERLAP>  (1) 
35.607

>  <PUBCHEM_SHAPE_FINGERPRINT>  (1) 
10165383 225 18411706478492469809
11421498 54 18129382609785299681
11578080 2 17977388235554611181
12035758 1 18128817627974802690
12058002 1 17698486287497897268
12107698 1 16917072200643989579
121448 382 18272099261745893376
12788726 201 17917717859979202346
13149001 5 17986659566575648928
14787075 74 18131348617863441980
17492 54 17750246957411735197
17980427 23 16588320344777584837
19319366 153 18270959025681705095
20587220 17 17623048645315120825
20600515 1 18197516197047278140
21330990 113 18409165536599965944
23419403 2 17557710449452884024
23559900 14 17613700536577211039
3383291 50 18129941166636835510
35225 105 17403401672397506579
57527306 92 17022897986724419085
7226269 152 18131073740394276632

>  <PUBCHEM_SHAPE_MULTIPOLES>  (1) 
590.7
7.86
4.22
2.48
8.49
6
-1.02
-2.85
1.17
-1.67
-0.14
-0.14
-2.2
0.8

>  <PUBCHEM_SHAPE_SELFOVERLAP>  (1) 
1284.775

>  <PUBCHEM_SHAPE_VOLUME>  (1) 
325.8

>  <PUBCHEM_COORDINATE_TYPE>  (1) 
2
5
10

$$$$
