36460
     RDKit          3D

 15 16  0  0  1  0  0  0  0  0999 V2000
    0.8079   -0.3364    1.7380 O   0  0  0  0  0  0  0  0  0  0  0  0
    1.6137    2.0552    0.1528 O   0  0  0  0  0  0  0  0  0  0  0  0
    3.2958   -0.3255    0.8041 O   0  0  0  0  0  0  0  0  0  0  0  0
   -0.6892    1.8390   -0.2581 N   0  0  0  0  0  0  0  0  0  0  0  0
    0.4769   -0.1215    0.3801 C   0  0  0  0  0  0  0  0  0  0  0  0
   -0.9882   -0.3812    0.1617 C   0  0  0  0  0  0  0  0  0  0  0  0
    1.3787   -0.9364   -0.5351 C   0  0  0  0  0  0  0  0  0  0  0  0
   -1.6178    0.8051   -0.2108 C   0  0  0  0  0  0  0  0  0  0  0  0
    0.5921    1.3891    0.0817 C   0  0  0  0  0  0  0  0  0  0  0  0
   -1.7148   -1.5519    0.2803 C   0  0  0  0  0  0  0  0  0  0  0  0
   -2.9700    0.8782   -0.4783 C   0  0  0  0  0  0  0  0  0  0  0  0
    2.8506   -0.6669   -0.2905 C   0  0  0  0  0  0  0  0  0  0  0  0
   -3.0870   -1.5051    0.0144 C   0  0  0  0  0  0  0  0  0  0  0  0
   -3.7089   -0.3004   -0.3616 C   0  0  0  0  0  0  0  0  0  0  0  0
    3.7605   -0.8415   -1.4787 C   0  0  0  0  0  0  0  0  0  0  0  0
  1  5  1  0
  2  9  2  0
  3 12  2  0
  4  8  1  0
  4  9  1  0
  5  6  1  0
  5  7  1  0
  5  9  1  0
  6  8  2  0
  6 10  1  0
  7 12  1  0
  8 11  1  0
 10 13  2  0
 11 14  2  0
 12 15  1  0
 13 14  1  0
M  END
>  <PUBCHEM_COMPOUND_CID>  (1) 
36460

>  <PUBCHEM_CONFORMER_RMSD>  (1) 
0.6

>  <PUBCHEM_CONFORMER_DIVERSEORDER>  (1) 
3
10
6
8
2
1
5
12
11
9
4
7

>  <PUBCHEM_MMFF94_PARTIAL_CHARGES>  (1) 
21
1 -0.68
10 -0.15
11 -0.15
12 0.45
13 -0.15
14 -0.15
15 0.06
18 0.37
19 0.15
2 -0.57
20 0.15
21 0.4
22 0.15
23 0.15
3 -0.57
4 -0.55
5 0.48
6 -0.14
7 0.06
8 0.12
9 0.57

>  <PUBCHEM_EFFECTIVE_ROTOR_COUNT>  (1) 
2.4

>  <PUBCHEM_PHARMACOPHORE_FEATURES>  (1) 
7
1 1 acceptor
1 1 donor
1 2 acceptor
1 3 acceptor
1 4 donor
5 4 5 6 8 9 rings
6 6 8 10 11 13 14 rings

>  <PUBCHEM_HEAVY_ATOM_COUNT>  (1) 
15

>  <PUBCHEM_ATOM_DEF_STEREO_COUNT>  (1) 
0

>  <PUBCHEM_ATOM_UDEF_STEREO_COUNT>  (1) 
1

>  <PUBCHEM_BOND_DEF_STEREO_COUNT>  (1) 
0

>  <PUBCHEM_BOND_UDEF_STEREO_COUNT>  (1) 
0

>  <PUBCHEM_ISOTOPIC_ATOM_COUNT>  (1) 
0

>  <PUBCHEM_COMPONENT_COUNT>  (1) 
1

>  <PUBCHEM_CACTVS_TAUTO_COUNT>  (1) 
6

>  <PUBCHEM_CONFORMER_ID>  (1) 
00008E6C00000003

>  <PUBCHEM_MMFF94_ENERGY>  (1) 
38.4232

>  <PUBCHEM_FEATURE_SELFOVERLAP>  (1) 
35.621

>  <PUBCHEM_SHAPE_FINGERPRINT>  (1) 
10465860 71 18337402577545338798
11206711 2 18260823765961134925
11543360 7 15647059304036972059
12032990 46 18411985775541180487
12423570 1 16376611408168570961
12932764 1 17676756626755856085
13296908 3 18201721738834495710
14115302 16 17748829609144985295
14911166 2 18336542733893617229
15219456 202 18340764956917249801
15536298 74 18341048626527433040
15775835 57 17676484991406750407
16945 1 18337112267567802753
17990270 104 18266735964485009613
1813 80 15051470288443347892
18186145 218 16370733612517580526
20201158 50 18342175548794754367
20281407 28 18272654532255785998
20645476 183 17458070365071620283
20645477 70 18268985557018197799
20671657 53 18201169784092141900
20871999 31 18336837406803766103
21501502 16 18337956808678439981
22213442 358 18412828018411518486
22721475 48 18342179955378251047
22802520 49 18264215866649035699
228727 97 17894636911435227898
2334 1 18192429894938103033
23382010 3 17240778331754826446
23402539 116 18337659820290405854
23552423 10 18041557065527371205
23557571 272 18271520893498169760
23559900 14 18339921499109263446
2748010 2 18264200486434452157
7364860 26 18198902711032308761
77492 1 17313381188817779610
81228 2 18195819470190781880
84936 31 17274533343270709560
8809292 202 18334017224193504971

>  <PUBCHEM_SHAPE_MULTIPOLES>  (1) 
286.1
5.89
1.74
1.01
1.06
0.56
0.11
-1.94
-1.58
-0.3
-0.07
0.69
-0.17
0.52

>  <PUBCHEM_SHAPE_SELFOVERLAP>  (1) 
619.733

>  <PUBCHEM_SHAPE_VOLUME>  (1) 
157.8

>  <PUBCHEM_COORDINATE_TYPE>  (1) 
2
5
10

$$$$
