36463
     RDKit          3D

 13 14  0  0  0  0  0  0  0  0999 V2000
   -0.7332   -2.1096   -0.0003 O   0  0  0  0  0  0  0  0  0  0  0  0
   -1.3350   -0.9832    0.0035 N   0  0  0  0  0  0  0  0  0  0  0  0
    1.3837    0.1532   -1.1876 N   0  0  0  0  0  0  0  0  0  0  0  0
   -0.6409    0.2112    0.0197 C   0  0  0  0  0  0  0  0  0  0  0  0
    0.8048    0.1625    0.0326 C   0  0  0  0  0  0  0  0  0  0  0  0
   -1.3103    1.4305    0.0236 C   0  0  0  0  0  0  0  0  0  0  0  0
    1.5036    0.1287    1.2269 C   0  0  0  0  0  0  0  0  0  0  0  0
   -2.7161   -0.9547   -0.0086 C   0  0  0  0  0  0  0  0  0  0  0  0
   -2.7008    1.4476    0.0110 C   0  0  0  0  0  0  0  0  0  0  0  0
   -3.4093    0.2513   -0.0052 C   0  0  0  0  0  0  0  0  0  0  0  0
    2.8918    0.0827    1.1648 C   0  0  0  0  0  0  0  0  0  0  0  0
    3.5269    0.0718   -0.0722 C   0  0  0  0  0  0  0  0  0  0  0  0
    2.7347    0.1079   -1.2084 C   0  0  0  0  0  0  0  0  0  0  0  0
  1  2  1  0
  2  4  2  0
  2  8  1  0
  3  5  2  0
  3 13  1  0
  4  5  1  0
  4  6  1  0
  5  7  1  0
  6  9  2  0
  7 11  2  0
  8 10  2  0
  9 10  1  0
 11 12  1  0
 12 13  2  0
M  CHG  2   1  -1   2   1
M  END
>  <PUBCHEM_COMPOUND_CID>  (1) 
36463

>  <PUBCHEM_CONFORMER_RMSD>  (1) 
0.4

>  <PUBCHEM_CONFORMER_DIVERSEORDER>  (1) 
2
6
3
4
1
5

>  <PUBCHEM_MMFF94_PARTIAL_CHARGES>  (1) 
21
1 -0.75
10 -0.15
11 -0.15
12 -0.15
13 0.16
14 0.15
15 0.15
16 0.15
17 0.15
18 0.15
19 0.15
2 0.57
20 0.15
21 0.15
3 -0.62
4 0.09
5 0.31
6 -0.15
7 -0.15
8 -0.06
9 -0.15

>  <PUBCHEM_EFFECTIVE_ROTOR_COUNT>  (1) 
1

>  <PUBCHEM_PHARMACOPHORE_FEATURES>  (1) 
4
1 1 anion
1 3 acceptor
6 2 4 6 8 9 10 rings
6 3 5 7 11 12 13 rings

>  <PUBCHEM_HEAVY_ATOM_COUNT>  (1) 
13

>  <PUBCHEM_ATOM_DEF_STEREO_COUNT>  (1) 
0

>  <PUBCHEM_ATOM_UDEF_STEREO_COUNT>  (1) 
0

>  <PUBCHEM_BOND_DEF_STEREO_COUNT>  (1) 
0

>  <PUBCHEM_BOND_UDEF_STEREO_COUNT>  (1) 
0

>  <PUBCHEM_ISOTOPIC_ATOM_COUNT>  (1) 
0

>  <PUBCHEM_COMPONENT_COUNT>  (1) 
1

>  <PUBCHEM_CACTVS_TAUTO_COUNT>  (1) 
1

>  <PUBCHEM_CONFORMER_ID>  (1) 
00008E6F00000002

>  <PUBCHEM_MMFF94_ENERGY>  (1) 
39.6687

>  <PUBCHEM_FEATURE_SELFOVERLAP>  (1) 
20.297

>  <PUBCHEM_SHAPE_FINGERPRINT>  (1) 
10608611 8 17989481926866769368
11578080 2 12605699997056498730
124424 183 17846493699960437530
12716758 59 18343025458260719770
12932764 1 17775564238695472550
13538477 17 17968094273874877243
13581323 91 18409162220869369706
14144814 61 18113899355466892384
14325111 11 18410855421499953345
14993402 34 18040716965381393245
15219456 202 17560798848866644232
15279307 12 17894346687631754450
15669948 3 18336547226049827878
15775835 57 17967535648900911869
16945 1 18410574002642563195
17844478 74 17561369482400663081
18175812 5 17704068525232791340
18186145 218 17846503577915921385
19049666 15 17702674228561363152
19422 9 17676489445008411098
200 152 16153703249898880497
20201158 50 17489872626486905766
20279233 1 17703788119797636046
20510252 161 18272090487370586705
20645464 45 17989199356667649057
20645476 183 17821733865980962339
20645477 70 16128378103876370644
20871998 184 18200032979242605943
21639500 275 15410595030632392104
23402539 116 18271513239212431093
23463225 33 18115019693454520346
23559900 14 18201159863255712774
2748010 2 18194128404448847775
276578 36 18266184932997211305
369184 2 15482672385814763905
43471831 8 18334852780074504963
474 4 17024884898915462724
57812782 119 17632290168403766556
6333449 129 18201997733527674205
69090 78 17418367013351415583
7364860 26 17912081651258238151
77492 1 17676487250285351832

>  <PUBCHEM_SHAPE_MULTIPOLES>  (1) 
251.7
5.73
1.34
1.04
0.6
0.32
0
-0.54
0.04
-1.14
-0.01
0.95
-0.06
0

>  <PUBCHEM_SHAPE_SELFOVERLAP>  (1) 
546.205

>  <PUBCHEM_SHAPE_VOLUME>  (1) 
136

>  <PUBCHEM_COORDINATE_TYPE>  (1) 
2
5
10

$$$$
