36467
     RDKit          3D

 25 27  0  0  1  0  0  0  0  0999 V2000
   -0.9543    2.7107   -1.0468 Br  0  0  0  0  0  0  0  0  0  0  0  0
   -0.6499   -0.3230   -0.4415 O   0  0  0  0  0  0  0  0  0  0  0  0
    2.5779   -0.7348   -1.8626 O   0  0  0  0  0  0  0  0  0  0  0  0
   -2.2582   -1.0271   -1.9305 O   0  0  0  0  0  0  0  0  0  0  0  0
    0.0268   -3.9008    0.2686 N   0  0  0  0  0  0  0  0  0  0  0  0
    1.4474   -1.3443    0.1379 C   0  0  0  0  0  0  0  0  0  0  0  0
    0.0790   -1.5476   -0.5169 C   0  0  0  0  0  0  0  0  0  0  0  0
    2.1721   -2.6797    0.3007 C   0  0  0  0  0  0  0  0  0  0  0  0
   -0.7235   -2.6421    0.1959 C   0  0  0  0  0  0  0  0  0  0  0  0
    1.2899   -3.7168    0.9951 C   0  0  0  0  0  0  0  0  0  0  0  0
    2.2864   -0.4329   -0.7076 C   0  0  0  0  0  0  0  0  0  0  0  0
   -0.7809   -4.9422    0.9033 C   0  0  0  0  0  0  0  0  0  0  0  0
    2.7669    0.8537   -0.1292 C   0  0  0  0  0  0  0  0  0  0  0  0
   -1.8937   -0.3390   -0.9897 C   0  0  0  0  0  0  0  0  0  0  0  0
    2.9976    0.9238    1.2268 C   0  0  0  0  0  0  0  0  0  0  0  0
    2.9633    1.9253   -0.9716 C   0  0  0  0  0  0  0  0  0  0  0  0
   -2.7867    0.6143   -0.2839 C   0  0  0  0  0  0  0  0  0  0  0  0
    3.4477    2.1279    1.7684 C   0  0  0  0  0  0  0  0  0  0  0  0
    3.4135    3.1294   -0.4300 C   0  0  0  0  0  0  0  0  0  0  0  0
    3.6557    3.2306    0.9401 C   0  0  0  0  0  0  0  0  0  0  0  0
   -2.4966    1.9635   -0.2323 C   0  0  0  0  0  0  0  0  0  0  0  0
   -3.9152    0.0857    0.3150 C   0  0  0  0  0  0  0  0  0  0  0  0
   -3.3675    2.8182    0.4438 C   0  0  0  0  0  0  0  0  0  0  0  0
   -4.7858    0.9406    0.9912 C   0  0  0  0  0  0  0  0  0  0  0  0
   -4.5119    2.3066    1.0556 C   0  0  0  0  0  0  0  0  0  0  0  0
  1 21  1  0
  2  7  1  0
  2 14  1  0
  3 11  2  0
  4 14  2  0
  5  9  1  0
  5 10  1  0
  5 12  1  0
  6  7  1  0
  6  8  1  0
  6 11  1  0
  7  9  1  0
  8 10  1  0
 11 13  1  0
 13 15  2  0
 13 16  1  0
 14 17  1  0
 15 18  1  0
 16 19  2  0
 17 21  2  0
 17 22  1  0
 18 20  2  0
 19 20  1  0
 21 23  1  0
 22 24  2  0
 23 25  2  0
 24 25  1  0
M  END
>  <PUBCHEM_COMPOUND_CID>  (1) 
36467

>  <PUBCHEM_CONFORMER_RMSD>  (1) 
1

>  <PUBCHEM_CONFORMER_DIVERSEORDER>  (1) 
1
427
140
413
38
524
42
150
25
466
17
271
483
64
161
434
393
493
484
15
100
289
422
409
356
55
123
124
416
327
240
287
366
141
443
56
18
272
375
370
499
253
53
508
259
81
492
239
504
491
360
71
342
54
362
330
376
20
465
350
426
415
39
418
196
157
282
90
355
84
27
29
347
243
164
396
91
310
156
237
333
174
236
322
219
281
7
44
134
104
103
173
395
521
13
313
525
437
478
358
335
76
235
542
75
83
24
217
96
541
420
529
485
28
105
361
89
244
544
121
468
32
43
410
57
469
37
122
3
460
159
132
160
280
257
180
381
110
33
41
184
6
363
269
22
339
97
166
61
423
142
228
414
35
148
58
252
80
210
5
51
190
136
250
283
8
202
369
10
2
182
194
224
178
147
452
23
52
94
127
135
14

>  <PUBCHEM_MMFF94_PARTIAL_CHARGES>  (1) 
33
1 -0.11
10 0.27
11 0.42
12 0.27
13 0.09
14 0.63
15 -0.15
16 -0.15
17 0.09
18 -0.15
19 -0.15
2 -0.43
20 -0.15
21 0.11
22 -0.15
23 -0.15
24 -0.15
25 -0.15
3 -0.57
37 0.15
38 0.15
39 0.15
4 -0.57
40 0.15
41 0.15
42 0.15
43 0.15
44 0.15
45 0.15
5 -0.81
6 0.06
7 0.28
9 0.27

>  <PUBCHEM_EFFECTIVE_ROTOR_COUNT>  (1) 
6.2

>  <PUBCHEM_PHARMACOPHORE_FEATURES>  (1) 
7
1 1 hydrophobe
1 3 acceptor
1 4 acceptor
1 5 cation
6 13 15 16 18 19 20 rings
6 17 21 22 23 24 25 rings
6 5 6 7 8 9 10 rings

>  <PUBCHEM_HEAVY_ATOM_COUNT>  (1) 
25

>  <PUBCHEM_ATOM_DEF_STEREO_COUNT>  (1) 
0

>  <PUBCHEM_ATOM_UDEF_STEREO_COUNT>  (1) 
2

>  <PUBCHEM_BOND_DEF_STEREO_COUNT>  (1) 
0

>  <PUBCHEM_BOND_UDEF_STEREO_COUNT>  (1) 
0

>  <PUBCHEM_ISOTOPIC_ATOM_COUNT>  (1) 
0

>  <PUBCHEM_COMPONENT_COUNT>  (1) 
1

>  <PUBCHEM_CACTVS_TAUTO_COUNT>  (1) 
2

>  <PUBCHEM_CONFORMER_ID>  (1) 
00008E7300000001

>  <PUBCHEM_MMFF94_ENERGY>  (1) 
71.8809

>  <PUBCHEM_FEATURE_SELFOVERLAP>  (1) 
35.522

>  <PUBCHEM_SHAPE_FINGERPRINT>  (1) 
10165383 225 18189076247118913932
10366900 7 17971775280328640171
12156800 1 15682597856161527504
12160290 23 17752490029530907070
12293681 160 17763147604587422159
12633257 1 18337091454715793504
12788726 201 17396706857553942666
13140716 1 18411416168325016929
13533116 47 18118973478066576705
13583140 156 18047188549737343573
138480 1 17905327329784973056
13878862 14 17901938652883138765
13965767 371 18114731694633782420
14178342 30 18192712465073419566
14466204 15 18121495761513611234
14787075 74 18129662053579777323
14790565 3 18263652766941529940
14849402 71 18410016498987228856
14955137 171 18051132484576802314
17868525 174 17688592663044218121
20510252 161 17686048801386128178
20600515 1 16755810381778042538
21041028 32 17183902467587300230
23557571 272 17906462378362416806
23558518 356 18341043124843346710
23559900 14 17970917648463782845
23845131 108 18335422374600529723
392239 28 18338525239326707523
474 4 18410007741090281509
49207404 50 18334588923095398825
57527585 21 17625259002008580708
6287921 2 18336834108506402117
6442390 28 18337684090965771233
7097593 13 17832984945525411671
7808743 9 18121226634552747156
79837 15 18264761233080499530
9777508 108 18337963409821874987
9981440 41 17772456022993886706

>  <PUBCHEM_SHAPE_MULTIPOLES>  (1) 
497.84
7.82
5.87
1.42
4.88
5.95
-0.11
-8.32
2.38
-2.13
1.76
-0.39
-0.34
-0.04

>  <PUBCHEM_SHAPE_SELFOVERLAP>  (1) 
1055.766

>  <PUBCHEM_SHAPE_VOLUME>  (1) 
283.2

>  <PUBCHEM_COORDINATE_TYPE>  (1) 
2
5
10

$$$$
