36474
     RDKit          3D

 18 20  0  0  0  0  0  0  0  0999 V2000
   -2.3848    3.1413   -0.0012 Cl  0  0  0  0  0  0  0  0  0  0  0  0
    2.3845   -3.1412   -0.0006 Cl  0  0  0  0  0  0  0  0  0  0  0  0
   -5.0756   -1.5205    0.0001 Cl  0  0  0  0  0  0  0  0  0  0  0  0
    5.0763    1.5206    0.0000 Cl  0  0  0  0  0  0  0  0  0  0  0  0
    0.0102    1.4269    0.0001 O   0  0  0  0  0  0  0  0  0  0  0  0
   -0.0104   -1.4268   -0.0003 O   0  0  0  0  0  0  0  0  0  0  0  0
   -1.1567    0.7054    0.0001 C   0  0  0  0  0  0  0  0  0  0  0  0
    1.1565   -0.7055    0.0000 C   0  0  0  0  0  0  0  0  0  0  0  0
    1.1666    0.6887    0.0001 C   0  0  0  0  0  0  0  0  0  0  0  0
   -1.1667   -0.6886   -0.0001 C   0  0  0  0  0  0  0  0  0  0  0  0
   -2.3566    1.4154    0.0005 C   0  0  0  0  0  0  0  0  0  0  0  0
    2.3567   -1.4155    0.0001 C   0  0  0  0  0  0  0  0  0  0  0  0
    2.3768    1.3813    0.0002 C   0  0  0  0  0  0  0  0  0  0  0  0
   -2.3769   -1.3814   -0.0001 C   0  0  0  0  0  0  0  0  0  0  0  0
   -3.5683    0.7238    0.0004 C   0  0  0  0  0  0  0  0  0  0  0  0
    3.5683   -0.7238    0.0002 C   0  0  0  0  0  0  0  0  0  0  0  0
   -3.5783   -0.6722    0.0001 C   0  0  0  0  0  0  0  0  0  0  0  0
    3.5783    0.6722    0.0002 C   0  0  0  0  0  0  0  0  0  0  0  0
  1 11  1  0
  2 12  1  0
  3 17  1  0
  4 18  1  0
  5  7  1  0
  5  9  1  0
  6  8  1  0
  6 10  1  0
  7 10  2  0
  7 11  1  0
  8  9  2  0
  8 12  1  0
  9 13  1  0
 10 14  1  0
 11 15  2  0
 12 16  2  0
 13 18  2  0
 14 17  2  0
 15 17  1  0
 16 18  1  0
M  END
>  <PUBCHEM_COMPOUND_CID>  (1) 
36474

>  <PUBCHEM_CONFORMER_RMSD>  (1) 
0.6

>  <PUBCHEM_CONFORMER_DIVERSEORDER>  (1) 
1

>  <PUBCHEM_MMFF94_PARTIAL_CHARGES>  (1) 
22
1 -0.18
10 0.08
11 0.18
12 0.18
13 -0.15
14 -0.15
15 -0.15
16 -0.15
17 0.18
18 0.18
19 0.15
2 -0.18
20 0.15
21 0.15
22 0.15
3 -0.18
4 -0.18
5 -0.17
6 -0.17
7 0.08
8 0.08
9 0.08

>  <PUBCHEM_EFFECTIVE_ROTOR_COUNT>  (1) 
0.4

>  <PUBCHEM_PHARMACOPHORE_FEATURES>  (1) 
5
1 5 acceptor
1 6 acceptor
6 5 6 7 8 9 10 rings
6 7 10 11 14 15 17 rings
6 8 9 12 13 16 18 rings

>  <PUBCHEM_HEAVY_ATOM_COUNT>  (1) 
18

>  <PUBCHEM_ATOM_DEF_STEREO_COUNT>  (1) 
0

>  <PUBCHEM_ATOM_UDEF_STEREO_COUNT>  (1) 
0

>  <PUBCHEM_BOND_DEF_STEREO_COUNT>  (1) 
0

>  <PUBCHEM_BOND_UDEF_STEREO_COUNT>  (1) 
0

>  <PUBCHEM_ISOTOPIC_ATOM_COUNT>  (1) 
0

>  <PUBCHEM_COMPONENT_COUNT>  (1) 
1

>  <PUBCHEM_CACTVS_TAUTO_COUNT>  (1) 
1

>  <PUBCHEM_CONFORMER_ID>  (1) 
00008E7A00000001

>  <PUBCHEM_MMFF94_ENERGY>  (1) 
47.3622

>  <PUBCHEM_FEATURE_SELFOVERLAP>  (1) 
25.449

>  <PUBCHEM_SHAPE_FINGERPRINT>  (1) 
10366900 7 18339080496413160624
10608611 8 18339077090604626508
10616163 171 18412265021234802719
10670039 82 18261126183789874732
10967382 1 18338797926225096230
11471102 20 18410290332942988550
11578080 2 17169535316951082790
11806522 49 18336264625923398447
12553582 1 18269261525651564919
13140716 1 17978511158620979513
13380535 76 18334858359310472554
14144814 61 18410855430063390851
14178342 30 18265318535241213976
14223421 5 18410573942201784702
14289901 80 18410856525280051523
14576447 43 18056465369733081567
14790565 3 18194693789148436193
15196674 1 18410855442948292613
15375462 6 18410575084700060791
15442244 35 18122624955322791994
15536298 74 18341895165056039974
15927050 60 14306102125567006694
16945 1 18410856598294495238
17492 89 18338516327001172627
18186145 218 18129106615039022360
19591789 44 17906737260079004946
200 152 18272646883472569039
20286276 3 18267592299143513399
20510252 161 18342459222958212089
20645477 70 18343302544002861582
21267235 1 18410864260664292606
21501502 16 18338517426200641568
21618674 54 18337952294541185324
21652331 79 18411419539763606925
221490 88 18337961077870988738
2334 1 18410855417178488839
23366157 5 18041847190921988162
23402539 116 18342451599670609159
23402655 69 18341889680150753085
23463225 33 18338235968493607334
23557571 272 18272379688734791941
23558518 356 18261683554084340377
23559900 14 18053376609557865802
2748010 2 18338798896882385101
2871803 45 18408882953532495791
335352 9 17762336920513282493
33824 294 18409448107094524162
34934 24 18411694426471787503
350125 39 18411420643681446064
4214541 1 18338516335374238176
474 4 17531534303606944252
474229 33 18337390564627455986
5104073 3 18410855425768424370
58051976 378 18411138069313978956
7097593 13 17465933870196049035
7364860 26 18341050705961627758
77779 3 18411420574750375054
9709674 26 18409173185868694003

>  <PUBCHEM_SHAPE_MULTIPOLES>  (1) 
366.17
8.91
2.93
0.62
0
0
0
0
0
0
0
0
0
0

>  <PUBCHEM_SHAPE_SELFOVERLAP>  (1) 
780.584

>  <PUBCHEM_SHAPE_VOLUME>  (1) 
207

>  <PUBCHEM_COORDINATE_TYPE>  (1) 
2
5
10

$$$$
