36486
     RDKit          3D

 12 13  0  0  1  0  0  0  0  0999 V2000
   -3.9387    0.5329    0.0363 N   0  0  0  0  0  0  0  0  0  0  0  0
   -2.5760    0.1047    0.3489 C   0  0  0  0  0  0  0  0  0  0  0  0
   -2.2710   -1.2244   -0.3443 C   0  0  0  0  0  0  0  0  0  0  0  0
   -1.5649    1.1712   -0.0942 C   0  0  0  0  0  0  0  0  0  0  0  0
   -0.8896   -1.7339    0.0679 C   0  0  0  0  0  0  0  0  0  0  0  0
   -0.1343    0.6938   -0.0287 C   0  0  0  0  0  0  0  0  0  0  0  0
    0.1833   -0.6762    0.0057 C   0  0  0  0  0  0  0  0  0  0  0  0
    1.5297   -1.0702    0.0417 C   0  0  0  0  0  0  0  0  0  0  0  0
    0.9012    1.6402   -0.0635 C   0  0  0  0  0  0  0  0  0  0  0  0
    2.5493   -0.1193    0.0174 C   0  0  0  0  0  0  0  0  0  0  0  0
    2.2354    1.2352   -0.0377 C   0  0  0  0  0  0  0  0  0  0  0  0
    3.9757   -0.5540    0.0506 C   0  0  0  0  0  0  0  0  0  0  0  0
  1  2  1  0
  2  3  1  0
  2  4  1  0
  3  5  1  0
  4  6  1  0
  5  7  1  0
  6  7  2  0
  6  9  1  0
  7  8  1  0
  8 10  2  0
  9 11  2  0
 10 11  1  0
 10 12  1  0
M  END
>  <PUBCHEM_COMPOUND_CID>  (1) 
36486

>  <PUBCHEM_CONFORMER_RMSD>  (1) 
0.4

>  <PUBCHEM_CONFORMER_DIVERSEORDER>  (1) 
1
2
3

>  <PUBCHEM_MMFF94_PARTIAL_CHARGES>  (1) 
16
1 -0.99
10 -0.14
11 -0.15
12 0.14
2 0.27
20 0.15
21 0.15
22 0.36
23 0.36
24 0.15
4 0.14
5 0.14
6 -0.14
7 -0.14
8 -0.15
9 -0.15

>  <PUBCHEM_EFFECTIVE_ROTOR_COUNT>  (1) 
0.8

>  <PUBCHEM_PHARMACOPHORE_FEATURES>  (1) 
4
1 1 cation
1 1 donor
6 2 3 4 5 6 7 rings
6 6 7 8 9 10 11 rings

>  <PUBCHEM_HEAVY_ATOM_COUNT>  (1) 
12

>  <PUBCHEM_ATOM_DEF_STEREO_COUNT>  (1) 
0

>  <PUBCHEM_ATOM_UDEF_STEREO_COUNT>  (1) 
1

>  <PUBCHEM_BOND_DEF_STEREO_COUNT>  (1) 
0

>  <PUBCHEM_BOND_UDEF_STEREO_COUNT>  (1) 
0

>  <PUBCHEM_ISOTOPIC_ATOM_COUNT>  (1) 
0

>  <PUBCHEM_COMPONENT_COUNT>  (1) 
1

>  <PUBCHEM_CACTVS_TAUTO_COUNT>  (1) 
1

>  <PUBCHEM_CONFORMER_ID>  (1) 
00008E8600000001

>  <PUBCHEM_MMFF94_ENERGY>  (1) 
19.6506

>  <PUBCHEM_FEATURE_SELFOVERLAP>  (1) 
20.318

>  <PUBCHEM_SHAPE_FINGERPRINT>  (1) 
10130415 120 18335698347470484738
11132069 177 18412820291976258546
11471102 20 18409726261871214733
12032990 46 18410581656316690542
12932764 1 17095790101117975154
13221675 6 18408887321493013354
13380535 76 18412826871761141639
13690532 89 18410009909943134458
14144814 61 18410573989478112594
14325111 11 18410856611264020521
14911166 2 18410573967992694262
14993402 34 18410575067488497614
15536298 74 18271245027632767888
15775835 57 18335707151836995197
16945 1 18410007728136521974
17844478 74 17894355479650991101
18511873 20 18411702084086824107
193761 8 17906172102565108520
19973954 147 18193277618139348242
20201158 50 18413672391839121950
20511035 2 18196937896880500380
20588541 1 18411705348494259558
20645476 183 17823719627014756326
21501502 16 18267022941109072276
2334 1 18122344850255843942
23402539 116 18060128817785232973
23402655 69 18268978809872515245
23463225 33 18408040689303060578
23552423 10 18117277166956647396
23559900 14 18342458150033714492
2748010 2 18194120952158297606
5084963 1 18343581862678681376
528886 8 18411414012040463867
53812653 166 18413384332814462912
63268167 104 18411141367585118121
69090 78 18273208703543798879
7364860 26 18198343051583011776
8809292 202 18260834825206886698

>  <PUBCHEM_SHAPE_MULTIPOLES>  (1) 
241.97
5.48
1.69
0.63
0.19
0.01
0
0.17
-0.13
-0.08
0.05
-0.02
0.01
-0.11

>  <PUBCHEM_SHAPE_SELFOVERLAP>  (1) 
509.608

>  <PUBCHEM_SHAPE_VOLUME>  (1) 
136.4

>  <PUBCHEM_COORDINATE_TYPE>  (1) 
2
5
10

$$$$
