36481
     RDKit          3D

 12 13  0  0  1  0  0  0  0  0999 V2000
    0.6950   -1.1727   -0.0732 O   0  0  0  0  0  0  0  0  0  0  0  0
    4.1105    0.2844    0.0437 N   0  0  0  0  0  0  0  0  0  0  0  0
    1.7494   -0.2287   -0.3985 C   0  0  0  0  0  0  0  0  0  0  0  0
    1.2815    1.1854   -0.0211 C   0  0  0  0  0  0  0  0  0  0  0  0
   -0.1810    0.9597   -0.0310 C   0  0  0  0  0  0  0  0  0  0  0  0
   -0.4389   -0.4024   -0.0351 C   0  0  0  0  0  0  0  0  0  0  0  0
    3.0186   -0.6370    0.3312 C   0  0  0  0  0  0  0  0  0  0  0  0
   -1.7250   -0.9038    0.0166 C   0  0  0  0  0  0  0  0  0  0  0  0
   -1.2143    1.8772    0.0224 C   0  0  0  0  0  0  0  0  0  0  0  0
   -2.7782    0.0116    0.0608 C   0  0  0  0  0  0  0  0  0  0  0  0
   -2.5247    1.3935    0.0621 C   0  0  0  0  0  0  0  0  0  0  0  0
   -1.9928   -2.3673    0.0220 C   0  0  0  0  0  0  0  0  0  0  0  0
  1  3  1  0
  1  6  1  0
  2  7  1  0
  3  4  1  0
  3  7  1  0
  4  5  1  0
  5  6  2  0
  5  9  1  0
  6  8  1  0
  8 10  2  0
  8 12  1  0
  9 11  2  0
 10 11  1  0
M  END
>  <PUBCHEM_COMPOUND_CID>  (1) 
36481

>  <PUBCHEM_CONFORMER_RMSD>  (1) 
0.4

>  <PUBCHEM_CONFORMER_DIVERSEORDER>  (1) 
2
4
3
1
5

>  <PUBCHEM_MMFF94_PARTIAL_CHARGES>  (1) 
17
1 -0.36
10 -0.15
11 -0.15
12 0.14
18 0.15
19 0.15
2 -0.99
20 0.15
24 0.36
25 0.36
3 0.28
4 0.14
5 -0.14
6 0.08
7 0.27
8 -0.14
9 -0.15

>  <PUBCHEM_EFFECTIVE_ROTOR_COUNT>  (1) 
1.6

>  <PUBCHEM_PHARMACOPHORE_FEATURES>  (1) 
5
1 1 acceptor
1 2 cation
1 2 donor
5 1 3 4 5 6 rings
6 5 6 8 9 10 11 rings

>  <PUBCHEM_HEAVY_ATOM_COUNT>  (1) 
12

>  <PUBCHEM_ATOM_DEF_STEREO_COUNT>  (1) 
0

>  <PUBCHEM_ATOM_UDEF_STEREO_COUNT>  (1) 
1

>  <PUBCHEM_BOND_DEF_STEREO_COUNT>  (1) 
0

>  <PUBCHEM_BOND_UDEF_STEREO_COUNT>  (1) 
0

>  <PUBCHEM_ISOTOPIC_ATOM_COUNT>  (1) 
0

>  <PUBCHEM_COMPONENT_COUNT>  (1) 
1

>  <PUBCHEM_CACTVS_TAUTO_COUNT>  (1) 
1

>  <PUBCHEM_CONFORMER_ID>  (1) 
00008E8100000002

>  <PUBCHEM_MMFF94_ENERGY>  (1) 
28.8633

>  <PUBCHEM_FEATURE_SELFOVERLAP>  (1) 
25.474

>  <PUBCHEM_SHAPE_FINGERPRINT>  (1) 
11132069 177 18410569579011001152
12138202 97 18335411318932261935
12716758 59 18269001881650650526
12932764 1 17530959151519228132
13024252 1 14996286898924180109
13380535 76 18341328881912708431
14144814 61 18336546023574808650
14325111 11 18338797810630348292
15219456 202 17987805103252271446
15669948 3 18410851066682917414
16945 1 18411424981550455069
193761 8 18122907796246964629
20510252 161 18200595778703373553
20871998 184 18201441410566716895
21040471 1 18266745679664213893
21501502 16 18266182905567237284
2334 1 18122908899852800845
23402539 116 18343010095790358871
23402655 69 18124297321890462845
23463225 33 18262515884470995242
23552423 10 18116154552562779109
23559900 14 18342738473853772774
241688 4 15095922039888205001
2748010 2 18196087970060416869
3312278 4 18408323310793485274
369184 2 18409165476444095488
528886 8 18411132515646835025
53812653 166 18270677567362351320
6333449 129 18413105039554635253
75552 356 18410855460175660550

>  <PUBCHEM_SHAPE_MULTIPOLES>  (1) 
236.1
4.92
1.99
0.63
4.33
0.39
0
0.24
-0.29
-1.46
-0.03
0.02
0
-0.05

>  <PUBCHEM_SHAPE_SELFOVERLAP>  (1) 
504.2

>  <PUBCHEM_SHAPE_VOLUME>  (1) 
133.4

>  <PUBCHEM_COORDINATE_TYPE>  (1) 
2
5
10

$$$$
