36489
     RDKit          3D

 23 26  0  0  0  0  0  0  0  0999 V2000
    1.8383   -2.9814   -0.5487 O   0  0  0  0  0  0  0  0  0  0  0  0
   -1.1256    4.0033    0.2058 O   0  0  0  0  0  0  0  0  0  0  0  0
    1.8540   -0.6774   -0.5082 N   0  0  0  0  0  0  0  0  0  0  0  0
   -0.1572   -1.9671   -0.2565 N   0  0  0  0  0  0  0  0  0  0  0  0
    4.0243   -0.6454    0.6090 C   0  0  0  0  0  0  0  0  0  0  0  0
    5.5072   -0.5768    0.5984 C   0  0  0  0  0  0  0  0  0  0  0  0
    4.8098   -1.8582    0.9503 C   0  0  0  0  0  0  0  0  0  0  0  0
    3.2977   -0.6153   -0.7219 C   0  0  0  0  0  0  0  0  0  0  0  0
    1.1188    0.5326   -0.3533 C   0  0  0  0  0  0  0  0  0  0  0  0
    1.2086   -1.9268   -0.4409 C   0  0  0  0  0  0  0  0  0  0  0  0
   -0.2617    0.4610   -0.1474 C   0  0  0  0  0  0  0  0  0  0  0  0
   -0.8615   -0.8878   -0.1301 C   0  0  0  0  0  0  0  0  0  0  0  0
    1.7298    1.7959   -0.3857 C   0  0  0  0  0  0  0  0  0  0  0  0
   -1.0158    1.6251    0.0509 C   0  0  0  0  0  0  0  0  0  0  0  0
    0.9761    2.9572   -0.2031 C   0  0  0  0  0  0  0  0  0  0  0  0
   -0.3938    2.8714    0.0189 C   0  0  0  0  0  0  0  0  0  0  0  0
   -2.3180   -1.0618    0.0317 C   0  0  0  0  0  0  0  0  0  0  0  0
   -3.1363   -1.0967   -1.0921 C   0  0  0  0  0  0  0  0  0  0  0  0
   -2.8591   -1.1899    1.3062 C   0  0  0  0  0  0  0  0  0  0  0  0
   -4.5130   -1.2616   -0.9394 C   0  0  0  0  0  0  0  0  0  0  0  0
   -4.2357   -1.3548    1.4588 C   0  0  0  0  0  0  0  0  0  0  0  0
   -5.0627   -1.3906    0.3360 C   0  0  0  0  0  0  0  0  0  0  0  0
   -0.4240    5.2451    0.1615 C   0  0  0  0  0  0  0  0  0  0  0  0
  1 10  2  0
  2 16  1  0
  2 23  1  0
  3  8  1  0
  3  9  1  0
  3 10  1  0
  4 10  1  0
  4 12  2  0
  5  6  1  0
  5  7  1  0
  5  8  1  0
  6  7  1  0
  9 11  2  0
  9 13  1  0
 11 12  1  0
 11 14  1  0
 12 17  1  0
 13 15  2  0
 14 16  2  0
 15 16  1  0
 17 18  2  0
 17 19  1  0
 18 20  1  0
 19 21  2  0
 20 22  2  0
 21 22  1  0
M  END
>  <PUBCHEM_COMPOUND_CID>  (1) 
36489

>  <PUBCHEM_CONFORMER_RMSD>  (1) 
0.8

>  <PUBCHEM_CONFORMER_DIVERSEORDER>  (1) 
1
3
2

>  <PUBCHEM_MMFF94_PARTIAL_CHARGES>  (1) 
36
1 -0.57
10 0.84
11 0.09
12 0.28
13 -0.15
14 -0.15
15 -0.15
16 0.08
17 0.09
18 -0.15
19 -0.15
2 -0.36
20 -0.15
21 -0.15
22 -0.15
23 0.28
24 0.1
25 0.1
26 0.1
27 0.1
28 0.1
3 -0.48
31 0.15
32 0.15
33 0.15
34 0.15
35 0.15
36 0.15
37 0.15
38 0.15
4 -0.66
5 -0.19
6 -0.2
7 -0.2
8 0.4
9 0.12

>  <PUBCHEM_EFFECTIVE_ROTOR_COUNT>  (1) 
4.6

>  <PUBCHEM_PHARMACOPHORE_FEATURES>  (1) 
7
1 1 acceptor
1 2 acceptor
1 4 acceptor
1 4 donor
6 17 18 19 20 21 22 rings
6 3 4 9 10 11 12 rings
6 9 11 13 14 15 16 rings

>  <PUBCHEM_HEAVY_ATOM_COUNT>  (1) 
23

>  <PUBCHEM_ATOM_DEF_STEREO_COUNT>  (1) 
0

>  <PUBCHEM_ATOM_UDEF_STEREO_COUNT>  (1) 
0

>  <PUBCHEM_BOND_DEF_STEREO_COUNT>  (1) 
0

>  <PUBCHEM_BOND_UDEF_STEREO_COUNT>  (1) 
0

>  <PUBCHEM_ISOTOPIC_ATOM_COUNT>  (1) 
0

>  <PUBCHEM_COMPONENT_COUNT>  (1) 
1

>  <PUBCHEM_CACTVS_TAUTO_COUNT>  (1) 
1

>  <PUBCHEM_CONFORMER_ID>  (1) 
00008E8900000001

>  <PUBCHEM_MMFF94_ENERGY>  (1) 
89.5571

>  <PUBCHEM_FEATURE_SELFOVERLAP>  (1) 
35.608

>  <PUBCHEM_SHAPE_FINGERPRINT>  (1) 
10411042 1 18410854373633558150
10670039 82 18336840697930324574
10688039 33 18186237329275517821
10906281 52 18337127716686570158
1100329 8 18265894846643467402
11265709 11 18410012147874303268
11578080 2 17416945301993759129
11796584 16 16877657976383444731
12166972 35 18129373972890994963
12236239 1 17632581569804844047
12293681 4 18260559917651857907
12403259 226 18189048875572014871
12553582 1 18339940271630703062
12633257 1 18262818361906881923
12741549 16 17894624877369765221
12788726 201 18335996298216029750
13004483 165 18338503193101009386
13134695 92 18337107994291764261
13140716 1 18410295787261869376
13540713 4 17842274762524190966
13782708 43 17604435227569847419
138480 1 14807977527816709581
13862211 1 18410849980019690654
13911987 19 18335423508187144206
14028597 1 17749952137950589185
14178342 30 18192715532049359926
14790565 3 18195549162145261252
14840074 17 18201998867515442566
14955137 171 18338807826294103274
15042514 8 18265054617874946888
15230672 131 17181940381326755996
15420108 30 17556856142278017148
16087824 20 18195246616956061573
17980427 23 17203047499463071857
1813 80 18272101503697729390
18222031 100 18342742939881633294
18785283 64 18048890876941419947
19301679 30 18337676287079682443
19427546 62 17546166299069761420
204376 136 9799696999672687495
20600515 1 18272099339124045130
20739085 24 18339935920844591432
21033650 10 13047339746591950622
21041028 32 18409733971432618901
21304303 282 17539375779480166581
21641784 216 18114762459690103564
22182313 1 17985834735439484326
2255824 54 18054236693843326445
23175994 123 18334576858516491759
23402539 116 18342166761175823614
23419403 2 18043224994549442916
23558518 356 17974575693157633858
23559900 14 17095798940614753831
23845131 108 17404308399591114425
2748010 2 18054236427418626550
283562 15 18336260137825193954
3091708 16 8920757291264498664
314173 85 18341620312576190278
345986 75 17969480668149307890
3886686 26 17182188359678640250
474 4 17838061755946279153
7495541 125 18043258027291005219
79837 15 17763183544768123480
81228 2 18191314770877521645
9658208 31 17694513541928957452
9709674 26 17838612263168623094
9777508 108 17980198578552994248

>  <PUBCHEM_SHAPE_MULTIPOLES>  (1) 
451.63
8.93
4.7
1.02
1.22
8.88
0.16
-8.7
2.19
0.33
0.25
-0.55
-0.46
-0.22

>  <PUBCHEM_SHAPE_SELFOVERLAP>  (1) 
988.934

>  <PUBCHEM_SHAPE_VOLUME>  (1) 
244.2

>  <PUBCHEM_COORDINATE_TYPE>  (1) 
2
5
10

$$$$
