36496
     RDKit          3D

 33 36  0  0  1  0  0  0  0  0999 V2000
   -0.6452   -0.5285    2.1799 O   0  0  0  0  0  0  0  0  0  0  0  0
   -0.4153   -1.6293    0.1068 N   0  0  0  0  0  0  0  0  0  0  0  0
    0.4623   -2.6138    0.4823 N   0  0  0  0  0  0  0  0  0  0  0  0
    0.5753    3.1204   -0.4544 N   0  0  0  0  0  0  0  0  0  0  0  0
   -1.8483    0.2596    0.1628 C   0  0  0  0  0  0  0  0  0  0  0  0
   -1.3116    1.6879    0.1531 C   0  0  0  0  0  0  0  0  0  0  0  0
   -1.7824   -0.3882   -1.2124 C   0  0  0  0  0  0  0  0  0  0  0  0
   -0.8982   -0.6594    0.9908 C   0  0  0  0  0  0  0  0  0  0  0  0
   -0.9229   -1.4901   -1.1815 C   0  0  0  0  0  0  0  0  0  0  0  0
   -3.2259    0.2110    0.7433 C   0  0  0  0  0  0  0  0  0  0  0  0
    0.0767    1.7505   -0.4744 C   0  0  0  0  0  0  0  0  0  0  0  0
   -2.4243   -0.0274   -2.3862 C   0  0  0  0  0  0  0  0  0  0  0  0
   -0.6794   -2.2619   -2.3038 C   0  0  0  0  0  0  0  0  0  0  0  0
   -3.8900    1.3951    1.0641 C   0  0  0  0  0  0  0  0  0  0  0  0
   -3.8467   -1.0186    0.9645 C   0  0  0  0  0  0  0  0  0  0  0  0
    1.7284   -2.0262    0.9253 C   0  0  0  0  0  0  0  0  0  0  0  0
   -2.1906   -0.7956   -3.5297 C   0  0  0  0  0  0  0  0  0  0  0  0
    1.0529    3.4759    0.8831 C   0  0  0  0  0  0  0  0  0  0  0  0
    1.6455    3.2940   -1.4381 C   0  0  0  0  0  0  0  0  0  0  0  0
   -1.3260   -1.9030   -3.4885 C   0  0  0  0  0  0  0  0  0  0  0  0
   -0.1187   -3.4369    1.5451 C   0  0  0  0  0  0  0  0  0  0  0  0
    2.5985   -1.6349   -0.2696 C   0  0  0  0  0  0  0  0  0  0  0  0
   -5.1745    1.3495    1.6057 C   0  0  0  0  0  0  0  0  0  0  0  0
   -5.1313   -1.0640    1.5060 C   0  0  0  0  0  0  0  0  0  0  0  0
   -5.7951    0.1199    1.8267 C   0  0  0  0  0  0  0  0  0  0  0  0
    1.5143    4.9225    0.9348 C   0  0  0  0  0  0  0  0  0  0  0  0
    1.1713    2.9304   -2.8350 C   0  0  0  0  0  0  0  0  0  0  0  0
    3.9155   -1.0488    0.1733 C   0  0  0  0  0  0  0  0  0  0  0  0
    4.0324    0.3255    0.3814 C   0  0  0  0  0  0  0  0  0  0  0  0
    5.0167   -1.8809    0.3751 C   0  0  0  0  0  0  0  0  0  0  0  0
    5.2504    0.8678    0.7913 C   0  0  0  0  0  0  0  0  0  0  0  0
    6.2347   -1.3385    0.7850 C   0  0  0  0  0  0  0  0  0  0  0  0
    6.3515    0.0359    0.9931 C   0  0  0  0  0  0  0  0  0  0  0  0
  1  8  2  0
  2  3  1  0
  2  8  1  0
  2  9  1  0
  3 16  1  0
  3 21  1  0
  4 11  1  0
  4 18  1  0
  4 19  1  0
  5  6  1  0
  5  7  1  0
  5  8  1  0
  5 10  1  0
  6 11  1  0
  7  9  2  0
  7 12  1  0
  9 13  1  0
 10 14  2  0
 10 15  1  0
 12 17  2  0
 13 20  2  0
 14 23  1  0
 15 24  2  0
 16 22  1  0
 17 20  1  0
 18 26  1  0
 19 27  1  0
 22 28  1  0
 23 25  2  0
 24 25  1  0
 28 29  2  0
 28 30  1  0
 29 31  1  0
 30 32  2  0
 31 33  2  0
 32 33  1  0
M  END
>  <PUBCHEM_COMPOUND_CID>  (1) 
36496

>  <PUBCHEM_CONFORMER_RMSD>  (1) 
1

>  <PUBCHEM_CONFORMER_DIVERSEORDER>  (1) 
10
12
133
87
94
148
97
117
96
61
98
100
146
78
81
147
74
84
129
131
32
128
127
67
90
57
76
86
143
66
111
35
106
51
39
144
71
52
16
92
82
126
135
24
60
41
124
50
58
40
125
68
75
5
138
120
139
19
99
103
132
31
72
110
79
140
36
114
28
109
115
73
123
112
33
22
46
145
18
134
130
107
44
142
48
11
119
122
137
93
70
13
49
21
77
64
136
27
89
15
83
43
20
104
3
91
63
65
116
37
23
29
45
105
56
54
42
7
59
25
8
30
102
38
55
85
47
113
141
34
108
118
69
95
121
53
62
4
88
14
2
17
6
9
1
26
80
101

>  <PUBCHEM_MMFF94_PARTIAL_CHARGES>  (1) 
44
1 -0.57
10 -0.14
11 0.27
12 -0.15
13 -0.15
14 -0.15
15 -0.15
16 0.27
17 -0.15
18 0.27
19 0.27
2 -0.17
20 -0.15
21 0.27
22 0.14
23 -0.15
24 -0.15
25 -0.15
28 -0.14
29 -0.15
3 -0.55
30 -0.15
31 -0.15
32 -0.15
33 -0.15
38 0.15
39 0.15
4 -0.81
40 0.15
41 0.15
44 0.15
49 0.15
5 0.35
55 0.15
56 0.15
57 0.15
64 0.15
65 0.15
66 0.15
67 0.15
68 0.15
7 -0.14
8 0.57
9 0.12

>  <PUBCHEM_EFFECTIVE_ROTOR_COUNT>  (1) 
10.4

>  <PUBCHEM_PHARMACOPHORE_FEATURES>  (1) 
6
1 1 acceptor
1 4 cation
5 2 5 7 8 9 rings
6 10 14 15 23 24 25 rings
6 28 29 30 31 32 33 rings
6 7 9 12 13 17 20 rings

>  <PUBCHEM_HEAVY_ATOM_COUNT>  (1) 
33

>  <PUBCHEM_ATOM_DEF_STEREO_COUNT>  (1) 
0

>  <PUBCHEM_ATOM_UDEF_STEREO_COUNT>  (1) 
1

>  <PUBCHEM_BOND_DEF_STEREO_COUNT>  (1) 
0

>  <PUBCHEM_BOND_UDEF_STEREO_COUNT>  (1) 
0

>  <PUBCHEM_ISOTOPIC_ATOM_COUNT>  (1) 
0

>  <PUBCHEM_COMPONENT_COUNT>  (1) 
1

>  <PUBCHEM_CACTVS_TAUTO_COUNT>  (1) 
1

>  <PUBCHEM_CONFORMER_ID>  (1) 
00008E900000000A

>  <PUBCHEM_MMFF94_ENERGY>  (1) 
97.1803

>  <PUBCHEM_FEATURE_SELFOVERLAP>  (1) 
30.532

>  <PUBCHEM_SHAPE_FINGERPRINT>  (1) 
10006869 2 17978503131459316457
1100329 8 18263091053211001635
11135609 99 18189906503607012443
11445158 3 17895201059526588223
11578080 2 16590260893122857197
12058002 1 17555499142828866099
12156800 1 16486417736280490623
12166972 35 17022912224894452238
12422481 6 18270970028865261924
12597179 24 14620799288429132477
13782708 43 16588024597967395186
14840074 17 18343580724807818668
14955137 171 18412272722047744168
15219462 58 13698926013393888940
15328829 1 17916853717060066247
15840311 113 17058671559928545545
15849732 13 18131352994693611945
16090146 7 17703776060073341063
17349148 13 12252478691288579395
17980427 23 18201725007884804609
18365409 1 17060043866646648839
20642791 178 18187947078700234777
21756936 100 18272080591745240450
23419403 2 17676482874246512335
23559900 14 10882270680914683782
25019877 29 17060336292935512918
25265897 201 17059237945697664828
392239 28 18188782647080450058
469060 322 17751938934087863608
57527293 21 17986674754129075147

>  <PUBCHEM_SHAPE_MULTIPOLES>  (1) 
658.31
10.97
4.38
2.85
8.39
4.75
-3.23
-1.87
7.99
2.74
-0.2
-2.81
-0.74
-1.46

>  <PUBCHEM_SHAPE_SELFOVERLAP>  (1) 
1412.746

>  <PUBCHEM_SHAPE_VOLUME>  (1) 
366

>  <PUBCHEM_COORDINATE_TYPE>  (1) 
2
5
10

$$$$
