3650
     RDKit          3D

 10 10  0  0  1  0  0  0  0  0999 V2000
   -2.4208    0.4460   -0.3737 F   0  0  0  0  0  0  0  0  0  0  0  0
   -0.5277    1.6751    1.1478 O   0  0  0  0  0  0  0  0  0  0  0  0
   -1.4323   -1.9758    0.3488 O   0  0  0  0  0  0  0  0  0  0  0  0
    2.8833   -0.3814   -0.0577 O   0  0  0  0  0  0  0  0  0  0  0  0
    1.1364    1.0791   -0.3724 N   0  0  0  0  0  0  0  0  0  0  0  0
    0.7273   -1.1581    0.2090 N   0  0  0  0  0  0  0  0  0  0  0  0
   -0.2712    1.3720   -0.2182 C   0  0  0  0  0  0  0  0  0  0  0  0
   -1.1136    0.1875   -0.6461 C   0  0  0  0  0  0  0  0  0  0  0  0
   -0.6524   -1.0801    0.0334 C   0  0  0  0  0  0  0  0  0  0  0  0
    1.6709   -0.1642   -0.0710 C   0  0  0  0  0  0  0  0  0  0  0  0
  1  8  1  0
  2  7  1  0
  3  9  2  0
  4 10  2  0
  5  7  1  0
  5 10  1  0
  6  9  1  0
  6 10  1  0
  7  8  1  0
  8  9  1  0
M  END
>  <PUBCHEM_COMPOUND_CID>  (1) 
3650

>  <PUBCHEM_CONFORMER_RMSD>  (1) 
0.4

>  <PUBCHEM_CONFORMER_DIVERSEORDER>  (1) 
2
1
5
4
3
6

>  <PUBCHEM_MMFF94_PARTIAL_CHARGES>  (1) 
13
1 -0.34
10 0.69
13 0.37
14 0.37
15 0.4
2 -0.68
3 -0.57
4 -0.57
5 -0.73
6 -0.49
7 0.58
8 0.4
9 0.57

>  <PUBCHEM_EFFECTIVE_ROTOR_COUNT>  (1) 
0.8

>  <PUBCHEM_PHARMACOPHORE_FEATURES>  (1) 
7
1 2 acceptor
1 2 donor
1 3 acceptor
1 4 acceptor
1 5 donor
1 6 donor
6 5 6 7 8 9 10 rings

>  <PUBCHEM_HEAVY_ATOM_COUNT>  (1) 
10

>  <PUBCHEM_ATOM_DEF_STEREO_COUNT>  (1) 
0

>  <PUBCHEM_ATOM_UDEF_STEREO_COUNT>  (1) 
2

>  <PUBCHEM_BOND_DEF_STEREO_COUNT>  (1) 
0

>  <PUBCHEM_BOND_UDEF_STEREO_COUNT>  (1) 
0

>  <PUBCHEM_ISOTOPIC_ATOM_COUNT>  (1) 
0

>  <PUBCHEM_COMPONENT_COUNT>  (1) 
1

>  <PUBCHEM_CACTVS_TAUTO_COUNT>  (1) 
5

>  <PUBCHEM_CONFORMER_ID>  (1) 
00000E4200000002

>  <PUBCHEM_MMFF94_ENERGY>  (1) 
13.2563

>  <PUBCHEM_FEATURE_SELFOVERLAP>  (1) 
35.607

>  <PUBCHEM_SHAPE_FINGERPRINT>  (1) 
12423570 1 11104673063808450552
13024252 1 14418143880792246764
15310529 11 16371001858815372572
16945 1 18334005082019876044
18185500 45 18334572430204496126
21040471 1 18263357010401877404
23235685 24 18338229367086636436
23552423 10 17968939832955885270
241688 4 17617657657329277938
2748010 2 18265049330616822102
29004967 10 17917715750770509758
5084963 1 17981033120683866742

>  <PUBCHEM_SHAPE_MULTIPOLES>  (1) 
170.95
2.64
1.76
0.76
1.11
0.15
-0.09
0.4
0.25
-0.56
-0.34
-0.13
-0.21
0.01

>  <PUBCHEM_SHAPE_SELFOVERLAP>  (1) 
351.024

>  <PUBCHEM_SHAPE_VOLUME>  (1) 
96.9

>  <PUBCHEM_COORDINATE_TYPE>  (1) 
2
5
10

$$$$
