36549
     RDKit          3D

 22 23  0  0  1  0  0  0  0  0999 V2000
    0.6925    1.6051    0.6378 O   0  0  0  0  0  0  0  0  0  0  0  0
   -4.6570   -1.3446   -0.7384 O   0  0  0  0  0  0  0  0  0  0  0  0
    0.4407    1.0346   -1.5781 O   0  0  0  0  0  0  0  0  0  0  0  0
    1.4776   -2.7315    1.2464 O   0  0  0  0  0  0  0  0  0  0  0  0
    0.1629   -1.6081   -0.2288 O   0  0  0  0  0  0  0  0  0  0  0  0
   -0.5623    2.2938    0.6129 C   0  0  0  0  0  0  0  0  0  0  0  0
   -1.6582    1.3197    0.2511 C   0  0  0  0  0  0  0  0  0  0  0  0
   -0.8060    2.9539    1.9655 C   0  0  0  0  0  0  0  0  0  0  0  0
   -2.3746    1.5087   -0.9194 C   0  0  0  0  0  0  0  0  0  0  0  0
   -1.9264    0.2557    1.0970 C   0  0  0  0  0  0  0  0  0  0  0  0
    2.3779    0.3440   -0.3719 C   0  0  0  0  0  0  0  0  0  0  0  0
   -3.3869    0.6092   -1.2533 C   0  0  0  0  0  0  0  0  0  0  0  0
   -2.9387   -0.6439    0.7631 C   0  0  0  0  0  0  0  0  0  0  0  0
    1.0914    1.0103   -0.5269 C   0  0  0  0  0  0  0  0  0  0  0  0
   -3.6690   -0.4673   -0.4122 C   0  0  0  0  0  0  0  0  0  0  0  0
    2.4598   -0.9899    0.0280 C   0  0  0  0  0  0  0  0  0  0  0  0
    3.5424    1.0669   -0.6315 C   0  0  0  0  0  0  0  0  0  0  0  0
    3.7060   -1.6007    0.1682 C   0  0  0  0  0  0  0  0  0  0  0  0
    4.7885    0.4559   -0.4915 C   0  0  0  0  0  0  0  0  0  0  0  0
    4.8703   -0.8778   -0.0916 C   0  0  0  0  0  0  0  0  0  0  0  0
    1.2620   -1.7713    0.3073 C   0  0  0  0  0  0  0  0  0  0  0  0
   -4.8931   -2.4226    0.1661 C   0  0  0  0  0  0  0  0  0  0  0  0
  1  6  1  0
  1 14  1  0
  2 15  1  0
  2 22  1  0
  3 14  2  0
  4 21  1  0
  5 21  2  0
  6  7  1  0
  6  8  1  0
  7  9  2  0
  7 10  1  0
  9 12  1  0
 10 13  2  0
 11 14  1  0
 11 16  2  0
 11 17  1  0
 12 15  2  0
 13 15  1  0
 16 18  1  0
 16 21  1  0
 17 19  2  0
 18 20  2  0
 19 20  1  0
M  END
>  <PUBCHEM_COMPOUND_CID>  (1) 
36549

>  <PUBCHEM_CONFORMER_RMSD>  (1) 
0.8

>  <PUBCHEM_CONFORMER_DIVERSEORDER>  (1) 
7
43
22
72
1
18
66
55
64
5
59
67
50
60
37
48
16
45
28
46
70
69
40
29
27
4
61
24
51
56
3
58
23
6
73
31
38
41
39
17
30
19
47
65
11
74
62
42
63
36
21
52
49
12
33
32
57
10
71
44
26
13
34
8
20
2
35
54
53
14
25
9
68
15

>  <PUBCHEM_MMFF94_PARTIAL_CHARGES>  (1) 
30
1 -0.43
10 -0.15
11 0.09
12 -0.15
13 -0.15
14 0.63
15 0.08
16 0.09
17 -0.15
18 -0.15
19 -0.15
2 -0.36
20 -0.15
21 0.63
22 0.28
27 0.15
28 0.15
29 0.15
3 -0.57
30 0.15
31 0.15
32 0.15
33 0.15
34 0.15
38 0.5
4 -0.65
5 -0.57
6 0.42
7 -0.14
9 -0.15

>  <PUBCHEM_EFFECTIVE_ROTOR_COUNT>  (1) 
6

>  <PUBCHEM_PHARMACOPHORE_FEATURES>  (1) 
7
1 2 acceptor
1 3 acceptor
1 4 acceptor
1 5 acceptor
3 4 5 21 anion
6 11 16 17 18 19 20 rings
6 7 9 10 12 13 15 rings

>  <PUBCHEM_HEAVY_ATOM_COUNT>  (1) 
22

>  <PUBCHEM_ATOM_DEF_STEREO_COUNT>  (1) 
0

>  <PUBCHEM_ATOM_UDEF_STEREO_COUNT>  (1) 
1

>  <PUBCHEM_BOND_DEF_STEREO_COUNT>  (1) 
0

>  <PUBCHEM_BOND_UDEF_STEREO_COUNT>  (1) 
0

>  <PUBCHEM_ISOTOPIC_ATOM_COUNT>  (1) 
0

>  <PUBCHEM_COMPONENT_COUNT>  (1) 
1

>  <PUBCHEM_CACTVS_TAUTO_COUNT>  (1) 
1

>  <PUBCHEM_CONFORMER_ID>  (1) 
00008EC500000007

>  <PUBCHEM_MMFF94_ENERGY>  (1) 
80.3489

>  <PUBCHEM_FEATURE_SELFOVERLAP>  (1) 
35.581

>  <PUBCHEM_SHAPE_FINGERPRINT>  (1) 
10616163 171 18268993094158028023
108634 29 18262248814736175658
11370993 70 17894346683289047474
11806522 49 18409450293147916638
12553582 1 17988634225076615367
12596599 1 18053390903071669118
12788726 201 17700685165294416121
13032168 30 18410580543730042954
13103583 49 17773897435714839379
13224815 77 18339364067687339148
13544653 18 18408328795392849617
13583140 156 16198159662238230942
14787075 74 18341051934068865412
15196674 1 18407759226868438590
17349148 13 18186804647669381066
17492 89 18267304240014210126
19433438 38 17894625946552591343
200 152 18411698781410090853
20028762 73 18413386532229180414
20626108 58 17823114813867161032
22393880 68 18187922816434890830
23402539 116 18201721730307799580
23557571 272 17988363650653029195
23559900 14 18337380583055420912
2871803 45 18333447651189308663
392239 28 18272364296094223608
46194498 28 17096927078420818735
463206 1 18266177412784509799
7970288 3 17989484156134521415
9709674 26 18187370882851128274

>  <PUBCHEM_SHAPE_MULTIPOLES>  (1) 
423.4
9.13
2.83
1.25
0.8
0.05
0.16
-5.03
-1.83
-1.16
1.19
-0.57
0.59
-0.57

>  <PUBCHEM_SHAPE_SELFOVERLAP>  (1) 
911.706

>  <PUBCHEM_SHAPE_VOLUME>  (1) 
232.8

>  <PUBCHEM_COORDINATE_TYPE>  (1) 
2
5
10

$$$$
