36542
     RDKit          3D

 19 20  0  0  1  0  0  0  0  0999 V2000
    3.5279    1.8271   -1.9411 Cl  0  0  0  0  0  0  0  0  0  0  0  0
   -0.6303    1.3877    0.5212 O   0  0  0  0  0  0  0  0  0  0  0  0
    0.2563   -0.3786    1.6717 O   0  0  0  0  0  0  0  0  0  0  0  0
   -3.5927   -0.7567   -0.1284 N   0  0  0  0  0  0  0  0  0  0  0  0
    1.4710    0.7717    0.0341 N   0  0  0  0  0  0  0  0  0  0  0  0
   -1.9638    0.9188    0.6891 C   0  0  0  0  0  0  0  0  0  0  0  0
   -2.9240    2.0496    0.3333 C   0  0  0  0  0  0  0  0  0  0  0  0
   -2.1975   -0.3051   -0.2014 C   0  0  0  0  0  0  0  0  0  0  0  0
   -4.3626    1.5493    0.3354 C   0  0  0  0  0  0  0  0  0  0  0  0
   -4.5181    0.3069   -0.5435 C   0  0  0  0  0  0  0  0  0  0  0  0
   -3.7873   -1.9532   -0.9469 C   0  0  0  0  0  0  0  0  0  0  0  0
   -5.1944   -2.5038   -0.7886 C   0  0  0  0  0  0  0  0  0  0  0  0
    0.3717    0.4990    0.8249 C   0  0  0  0  0  0  0  0  0  0  0  0
    2.7174    0.1053    0.0165 C   0  0  0  0  0  0  0  0  0  0  0  0
    3.7268    0.5054   -0.8465 C   0  0  0  0  0  0  0  0  0  0  0  0
    2.8988   -0.9604    0.8865 C   0  0  0  0  0  0  0  0  0  0  0  0
    4.9447   -0.1748   -0.8396 C   0  0  0  0  0  0  0  0  0  0  0  0
    4.1167   -1.6404    0.8932 C   0  0  0  0  0  0  0  0  0  0  0  0
    5.1395   -1.2477    0.0302 C   0  0  0  0  0  0  0  0  0  0  0  0
  1 15  1  0
  2  6  1  0
  2 13  1  0
  3 13  2  0
  4  8  1  0
  4 10  1  0
  4 11  1  0
  5 13  1  0
  5 14  1  0
  6  7  1  0
  6  8  1  0
  7  9  1  0
  9 10  1  0
 11 12  1  0
 14 15  2  0
 14 16  1  0
 15 17  1  0
 16 18  2  0
 17 19  2  0
 18 19  1  0
M  END
>  <PUBCHEM_COMPOUND_CID>  (1) 
36542

>  <PUBCHEM_CONFORMER_RMSD>  (1) 
0.8

>  <PUBCHEM_CONFORMER_DIVERSEORDER>  (1) 
1
75
9
71
18
14
60
81
57
98
21
42
37
69
44
30
31
35
72
79
55
17
25
8
54
92
65
70
32
74
46
84
100
59
89
105
12
66
78
108
109
23
13
90
62
56
87
51
73
39
101
16
85
61
95
11
27
63
104
48
97
28
26
106
86
93
40
47
2
80
96
77
45
15
58
76
50
107
88
83
53
38
82
103
22
34
94
43
33
3
36
91
102
67
68
52
41
7
29
10
24
99
64
19
5
49
6
4
20

>  <PUBCHEM_MMFF94_PARTIAL_CHARGES>  (1) 
21
1 -0.18
10 0.27
11 0.27
13 0.78
14 0.12
15 0.18
16 -0.15
17 -0.15
18 -0.15
19 -0.15
2 -0.43
3 -0.57
34 0.37
35 0.15
36 0.15
37 0.15
38 0.15
4 -0.81
5 -0.55
6 0.28
8 0.27

>  <PUBCHEM_EFFECTIVE_ROTOR_COUNT>  (1) 
6.2

>  <PUBCHEM_PHARMACOPHORE_FEATURES>  (1) 
5
1 3 acceptor
1 4 cation
1 5 donor
6 14 15 16 17 18 19 rings
6 4 6 7 8 9 10 rings

>  <PUBCHEM_HEAVY_ATOM_COUNT>  (1) 
19

>  <PUBCHEM_ATOM_DEF_STEREO_COUNT>  (1) 
0

>  <PUBCHEM_ATOM_UDEF_STEREO_COUNT>  (1) 
1

>  <PUBCHEM_BOND_DEF_STEREO_COUNT>  (1) 
0

>  <PUBCHEM_BOND_UDEF_STEREO_COUNT>  (1) 
0

>  <PUBCHEM_ISOTOPIC_ATOM_COUNT>  (1) 
0

>  <PUBCHEM_COMPONENT_COUNT>  (1) 
1

>  <PUBCHEM_CACTVS_TAUTO_COUNT>  (1) 
2

>  <PUBCHEM_CONFORMER_ID>  (1) 
00008EBE00000001

>  <PUBCHEM_MMFF94_ENERGY>  (1) 
39.4788

>  <PUBCHEM_FEATURE_SELFOVERLAP>  (1) 
25.371

>  <PUBCHEM_SHAPE_FINGERPRINT>  (1) 
10062212 137 18409168775010588545
10595046 47 18409169939231861156
10616163 171 18343300345053491287
11046707 91 18202561791693434235
11128504 68 18040435524790749061
11796584 16 18059013878524283318
12236239 1 18334017155278712921
12616971 3 18260555493424020841
12670546 177 17967249814511238334
12969540 114 15791448244674855179
13167823 11 18408042888052003090
13675066 3 14548744997089114489
14123255 352 11314301746314521279
14251751 18 18131063840310374234
14251757 5 18265616657533113411
14252887 29 14764349314980967116
14386348 63 16415479333146822212
14576447 43 18408321103586496370
15250474 111 18336537257346974459
17834072 33 18334577944926699468
17870717 6 18060144206557953181
1813 80 14405193880164446512
18186145 218 16370731430563359496
18681886 176 18342457058948627386
18915474 69 18410011048293947862
193927 3 16917359146633769728
200 152 18333735693445263184
20281475 54 18411133641086652009
20432913 95 14476960073250105156
20626108 58 18412537717677921592
20645477 70 16733268933187832706
20871999 31 18412261748796445873
21054139 6 18408320004170171442
21709351 56 18040715827457659492
23175994 123 16343981412471728601
23402539 116 17967817111272204432
23402655 69 18114466652275552252
23557571 272 17274264911978178752
23559900 14 18130492102817124369
25122255 55 17631744759677518766
3004659 81 18408318882819437534
329604 57 18337393863051920359
338550 245 18341895152161271182
351380 3 18271805774078432807
4214541 1 18341892957189791689
495365 180 13912865549905019056
5104073 3 17846494850584360379
5352402 22 15195293052884605974
559249 180 18267580221990713835
573450 72 18341047428299921561
574716 61 18114181972973456669
58051976 100 18342734100917740869
59027123 10 18040716948222954421
602551 16 17703784834348491638
633830 44 17385447587522950729
67856867 119 18409164446317160872
7471813 234 18261112938005127740
7970288 3 18127118908992634751
90127 26 15123792842712381576
9971528 1 18113338575379394844

>  <PUBCHEM_SHAPE_MULTIPOLES>  (1) 
371.18
12.85
2.23
1.29
0.45
0.41
-0.21
4.61
-3.53
2.05
-0.46
-0.78
-0.14
-2.63

>  <PUBCHEM_SHAPE_SELFOVERLAP>  (1) 
757.256

>  <PUBCHEM_SHAPE_VOLUME>  (1) 
214.9

>  <PUBCHEM_COORDINATE_TYPE>  (1) 
2
5
10

$$$$
