36558
     RDKit          3D

 20 21  0  0  1  0  0  0  0  0999 V2000
   -1.3372    1.5991    0.1131 O   0  0  0  0  0  0  0  0  0  0  0  0
   -0.2300    0.2341    1.5764 O   0  0  0  0  0  0  0  0  0  0  0  0
   -4.0316   -0.9568    0.0506 N   0  0  0  0  0  0  0  0  0  0  0  0
    0.8154    1.1351   -0.3146 N   0  0  0  0  0  0  0  0  0  0  0  0
    7.1284   -1.3006    0.0431 N   0  0  0  0  0  0  0  0  0  0  0  0
   -2.6028    1.0291    0.4292 C   0  0  0  0  0  0  0  0  0  0  0  0
   -3.6959    1.9403   -0.1203 C   0  0  0  0  0  0  0  0  0  0  0  0
   -2.7014   -0.3762   -0.1715 C   0  0  0  0  0  0  0  0  0  0  0  0
   -5.0643    1.2924    0.0447 C   0  0  0  0  0  0  0  0  0  0  0  0
   -5.0830   -0.1196   -0.5439 C   0  0  0  0  0  0  0  0  0  0  0  0
   -4.0937   -2.3156   -0.4872 C   0  0  0  0  0  0  0  0  0  0  0  0
   -5.4227   -2.9752   -0.1603 C   0  0  0  0  0  0  0  0  0  0  0  0
   -0.2322    0.9161    0.5588 C   0  0  0  0  0  0  0  0  0  0  0  0
    2.1321    0.6262   -0.2396 C   0  0  0  0  0  0  0  0  0  0  0  0
    3.0478    0.9649   -1.2233 C   0  0  0  0  0  0  0  0  0  0  0  0
    2.4821   -0.2008    0.8160 C   0  0  0  0  0  0  0  0  0  0  0  0
    4.3473    0.4633   -1.1496 C   0  0  0  0  0  0  0  0  0  0  0  0
    3.7818   -0.7022    0.8896 C   0  0  0  0  0  0  0  0  0  0  0  0
    4.7143   -0.3702   -0.0933 C   0  0  0  0  0  0  0  0  0  0  0  0
    6.0458   -0.8833   -0.0180 C   0  0  0  0  0  0  0  0  0  0  0  0
  1  6  1  0
  1 13  1  0
  2 13  2  0
  3  8  1  0
  3 10  1  0
  3 11  1  0
  4 13  1  0
  4 14  1  0
  5 20  3  0
  6  7  1  0
  6  8  1  0
  7  9  1  0
  9 10  1  0
 11 12  1  0
 14 15  2  0
 14 16  1  0
 15 17  1  0
 16 18  2  0
 17 19  2  0
 18 19  1  0
 19 20  1  0
M  END
>  <PUBCHEM_COMPOUND_CID>  (1) 
36558

>  <PUBCHEM_CONFORMER_RMSD>  (1) 
0.8

>  <PUBCHEM_CONFORMER_DIVERSEORDER>  (1) 
1
46
21
8
29
25
56
15
42
14
57
40
54
12
27
18
19
6
20
30
23
16
10
28
45
2
53
31
17
59
58
44
13
36
38
51
7
52
34
9
3
47
49
4
41
5
50
37
24
33
48
11
26
43
55
39
60
22
35
32

>  <PUBCHEM_MMFF94_PARTIAL_CHARGES>  (1) 
22
1 -0.43
10 0.27
11 0.27
13 0.78
14 0.12
15 -0.15
16 -0.15
17 -0.15
18 -0.15
19 0.07
2 -0.57
20 0.48
3 -0.81
35 0.37
36 0.15
37 0.15
38 0.15
39 0.15
4 -0.55
5 -0.56
6 0.28
8 0.27

>  <PUBCHEM_EFFECTIVE_ROTOR_COUNT>  (1) 
6.2

>  <PUBCHEM_PHARMACOPHORE_FEATURES>  (1) 
6
1 2 acceptor
1 3 cation
1 4 donor
1 5 acceptor
6 14 15 16 17 18 19 rings
6 3 6 7 8 9 10 rings

>  <PUBCHEM_HEAVY_ATOM_COUNT>  (1) 
20

>  <PUBCHEM_ATOM_DEF_STEREO_COUNT>  (1) 
0

>  <PUBCHEM_ATOM_UDEF_STEREO_COUNT>  (1) 
1

>  <PUBCHEM_BOND_DEF_STEREO_COUNT>  (1) 
0

>  <PUBCHEM_BOND_UDEF_STEREO_COUNT>  (1) 
0

>  <PUBCHEM_ISOTOPIC_ATOM_COUNT>  (1) 
0

>  <PUBCHEM_COMPONENT_COUNT>  (1) 
1

>  <PUBCHEM_CACTVS_TAUTO_COUNT>  (1) 
2

>  <PUBCHEM_CONFORMER_ID>  (1) 
00008ECE00000001

>  <PUBCHEM_MMFF94_ENERGY>  (1) 
38.1081

>  <PUBCHEM_FEATURE_SELFOVERLAP>  (1) 
30.446

>  <PUBCHEM_SHAPE_FINGERPRINT>  (1) 
10595046 47 18334862761525519484
11046707 91 18342739645926248313
11315181 36 18201721738602569216
11524674 6 17203605982861821095
11545043 162 17989202650833764267
11796584 16 18343302522501365206
11809386 21 18335417985117553331
12236239 1 18334577941053725436
12616971 3 18114194024567643556
12760667 363 18270397313185260495
12969540 114 15068337938657294321
13167823 11 18334576853873111493
13288520 33 18413107247289261625
13785724 45 9364864323507671132
14211702 104 18272661116905297158
14251751 18 18272368702350847418
14251764 30 17900550274829820323
14386348 63 17060339612860881389
14576447 43 18187079572815872434
14848160 23 17989485212901398082
15183329 4 17894343367495225654
15880784 105 18343303686616798976
17834072 33 18333735719347085124
17844677 252 18273498987293173289
17857418 61 18334574625154356450
18186145 218 15864072095717513513
18681886 176 18409444813297180816
193927 3 17704081715056219293
19489759 90 17846777361023170185
200 152 18186524284899653184
20028762 73 18408319961579513066
20374829 77 18342175587707636885
20645477 70 15430312478391080088
21054139 6 18260545632733276706
21267235 1 18408044035536258531
21623969 137 16702304551003208078
21709351 56 17821446846196003452
220451 1 18335144146386622304
23035841 295 18411982429487168545
23402539 116 17894633625827808252
23402655 69 17677049044856043676
23557571 272 17774158985848179712
23559900 14 18270671078184160609
25122255 55 18130518439772835190
26918003 58 17489586740499855800
270888 7 8574174742801444639
29717793 49 18261117336019405740
3004659 81 18187359947906376282
314173 85 16128661838000565040
351380 3 18410574032728933519
397830 11 17916851535227131970
4214541 1 18410573972657322685
439807 62 18261675986706048707
5104073 3 17988647436322496561
559249 180 18410009914807755583
59755656 520 15647060356441117001
633830 44 16732704917761001809
67856867 119 18336266842396302236
7495541 125 17989486351210474936
7970288 3 18051970609307148663

>  <PUBCHEM_SHAPE_MULTIPOLES>  (1) 
384.91
16.1
2.17
0.98
9.7
1.24
-0.04
8.24
1.96
-4.09
0.2
0.61
-0.09
-0.94

>  <PUBCHEM_SHAPE_SELFOVERLAP>  (1) 
797.409

>  <PUBCHEM_SHAPE_VOLUME>  (1) 
217.2

>  <PUBCHEM_COORDINATE_TYPE>  (1) 
2
5
10

$$$$
