3656
     RDKit          3D

 19 19  0  0  0  0  0  0  0  0999 V2000
    0.5222    2.4670    0.2729 S   0  0  0  0  0  0  0  0  0  0  0  0
    0.4091    3.0972   -1.0283 O   0  0  0  0  0  0  0  0  0  0  0  0
    1.0252    3.2129    1.4102 O   0  0  0  0  0  0  0  0  0  0  0  0
   -1.7269    1.2017   -1.4555 O   0  0  0  0  0  0  0  0  0  0  0  0
    3.2483   -3.5746   -0.0410 O   0  0  0  0  0  0  0  0  0  0  0  0
   -3.0431    0.6878    0.3752 N   0  0  0  0  0  0  0  0  0  0  0  0
   -0.9733    1.7492    0.6864 N   0  0  0  0  0  0  0  0  0  0  0  0
   -3.9353   -1.4184   -0.5357 C   0  0  0  0  0  0  0  0  0  0  0  0
   -4.1283    0.0824   -0.3459 C   0  0  0  0  0  0  0  0  0  0  0  0
   -3.8587   -2.1741    0.7929 C   0  0  0  0  0  0  0  0  0  0  0  0
    1.5483    1.0378    0.1047 C   0  0  0  0  0  0  0  0  0  0  0  0
   -3.7268   -3.6729    0.5723 C   0  0  0  0  0  0  0  0  0  0  0  0
    3.1548   -1.2011   -0.1592 C   0  0  0  0  0  0  0  0  0  0  0  0
    2.2307    0.5613    1.2108 C   0  0  0  0  0  0  0  0  0  0  0  0
    1.6504    0.4209   -1.1302 C   0  0  0  0  0  0  0  0  0  0  0  0
   -1.9160    1.2051   -0.2428 C   0  0  0  0  0  0  0  0  0  0  0  0
    3.0403   -0.5669    1.0777 C   0  0  0  0  0  0  0  0  0  0  0  0
    2.4599   -0.7073   -1.2633 C   0  0  0  0  0  0  0  0  0  0  0  0
    4.0192   -2.4080   -0.3013 C   0  0  0  0  0  0  0  0  0  0  0  0
  1  2  2  0
  1  3  2  0
  1  7  1  0
  1 11  1  0
  4 16  2  0
  5 19  1  0
  6  9  1  0
  6 16  1  0
  7 16  1  0
  8  9  1  0
  8 10  1  0
 10 12  1  0
 11 14  2  0
 11 15  1  0
 13 17  2  0
 13 18  1  0
 13 19  1  0
 14 17  1  0
 15 18  2  0
M  END
>  <PUBCHEM_COMPOUND_CID>  (1) 
3656

>  <PUBCHEM_CONFORMER_RMSD>  (1) 
0.8

>  <PUBCHEM_CONFORMER_DIVERSEORDER>  (1) 
1
128
64
61
127
119
89
84
42
79
91
47
55
103
75
126
66
28
18
53
109
118
57
40
7
50
121
80
74
116
39
68
95
110
51
90
122
92
52
72
129
29
33
59
25
15
41
113
123
34
37
88
131
49
112
132
36
14
85
106
94
65
26
130
71
43
63
83
67
124
134
100
44
30
11
117
76
31
107
13
23
54
19
22
17
104
46
125
5
81
78
16
87
133
45
120
58
114
27
10
69
4
35
38
77
21
111
12
82
8
62
73
108
20
32
101
105
102
24
6
70
86
56
97
98
115
60
9
2
3
48
93
96
99

>  <PUBCHEM_MMFF94_PARTIAL_CHARGES>  (1) 
23
1 1.45
11 -0.01
13 -0.14
14 -0.15
15 -0.15
16 0.87
17 -0.15
18 -0.15
19 0.42
2 -0.65
26 0.37
27 0.42
28 0.15
29 0.15
3 -0.65
33 0.15
34 0.15
37 0.4
4 -0.57
5 -0.68
6 -0.73
7 -0.79
9 0.3

>  <PUBCHEM_EFFECTIVE_ROTOR_COUNT>  (1) 
8

>  <PUBCHEM_PHARMACOPHORE_FEATURES>  (1) 
9
1 12 hydrophobe
1 2 acceptor
1 3 acceptor
1 4 acceptor
1 5 acceptor
1 5 donor
1 6 donor
1 7 donor
6 11 13 14 15 17 18 rings

>  <PUBCHEM_HEAVY_ATOM_COUNT>  (1) 
19

>  <PUBCHEM_ATOM_DEF_STEREO_COUNT>  (1) 
0

>  <PUBCHEM_ATOM_UDEF_STEREO_COUNT>  (1) 
0

>  <PUBCHEM_BOND_DEF_STEREO_COUNT>  (1) 
0

>  <PUBCHEM_BOND_UDEF_STEREO_COUNT>  (1) 
0

>  <PUBCHEM_ISOTOPIC_ATOM_COUNT>  (1) 
0

>  <PUBCHEM_COMPONENT_COUNT>  (1) 
1

>  <PUBCHEM_CACTVS_TAUTO_COUNT>  (1) 
3

>  <PUBCHEM_CONFORMER_ID>  (1) 
00000E4800000001

>  <PUBCHEM_MMFF94_ENERGY>  (1) 
10.1745

>  <PUBCHEM_FEATURE_SELFOVERLAP>  (1) 
45.732

>  <PUBCHEM_SHAPE_FINGERPRINT>  (1) 
114674 6 18192148424204249235
117890 22 18339079427504627019
12363563 72 18341614776268114325
12506688 2 18412828014322383281
12633257 1 18271823280570476251
12969540 37 18337669840200959988
12990986 174 18336542712182066418
13122387 1 18050005798749116035
13257819 37 17178296565004566132
13533116 47 18198344147268923819
13965767 371 12247411050606362939
14251705 54 18411138073472114195
14251731 5 18410018740607248915
14863182 85 17687753048482517877
14866123 147 18052822451697691001
14916288 52 18410294718147204939
15352361 1 18411136913804616007
15422964 175 18412252948023769697
17134986 127 8142086472367363328
20291156 8 18410856512411058079
20645477 70 18195514008301407253
20775530 9 18408042888089621475
21315759 227 18115016545470936899
21864079 5 9439405705299946467
221490 88 18337675329274815339
23379529 103 18268441143954189566
23503958 25 10231477479548729711
23559900 14 18336540642276510645
463206 1 18334860459386379187
5486654 36 18337971025310165211
6433294 58 18193561292409028427
7987 15 17898024653217127475
9709674 26 18339353184619986775

>  <PUBCHEM_SHAPE_MULTIPOLES>  (1) 
361.42
8.3
4.31
1.24
6.81
1.55
-0.04
8.74
0.29
-0.42
0.6
-0.39
-0.36
1.16

>  <PUBCHEM_SHAPE_SELFOVERLAP>  (1) 
714.764

>  <PUBCHEM_SHAPE_VOLUME>  (1) 
214.3

>  <PUBCHEM_COORDINATE_TYPE>  (1) 
2
5
10

$$$$
