36568
     RDKit          3D

 14 14  0  0  0  0  0  0  0  0999 V2000
    0.6940   -0.4316    0.0685 C   0  0  0  0  0  0  0  0  0  0  0  0
   -0.6940   -0.4314   -0.0689 C   0  0  0  0  0  0  0  0  0  0  0  0
    1.3882    0.7763    0.1374 C   0  0  0  0  0  0  0  0  0  0  0  0
   -1.3879    0.7766   -0.1375 C   0  0  0  0  0  0  0  0  0  0  0  0
    1.4406   -1.7259    0.1428 C   0  0  0  0  0  0  0  0  0  0  0  0
   -1.4408   -1.7256   -0.1428 C   0  0  0  0  0  0  0  0  0  0  0  0
    2.8743    0.8044    0.2849 C   0  0  0  0  0  0  0  0  0  0  0  0
   -2.8741    0.8049   -0.2847 C   0  0  0  0  0  0  0  0  0  0  0  0
    0.6942    1.9844    0.0687 C   0  0  0  0  0  0  0  0  0  0  0  0
   -0.6938    1.9846   -0.0689 C   0  0  0  0  0  0  0  0  0  0  0  0
    1.5885   -2.2241    1.5762 C   0  0  0  0  0  0  0  0  0  0  0  0
   -1.5894   -2.2240   -1.5762 C   0  0  0  0  0  0  0  0  0  0  0  0
    3.5892    0.8155   -1.0628 C   0  0  0  0  0  0  0  0  0  0  0  0
   -3.5887    0.8159    1.0632 C   0  0  0  0  0  0  0  0  0  0  0  0
  1  2  2  0
  1  3  1  0
  1  5  1  0
  2  4  1  0
  2  6  1  0
  3  7  1  0
  3  9  2  0
  4  8  1  0
  4 10  2  0
  5 11  1  0
  6 12  1  0
  7 13  1  0
  8 14  1  0
  9 10  1  0
M  END
>  <PUBCHEM_COMPOUND_CID>  (1) 
36568

>  <PUBCHEM_CONFORMER_RMSD>  (1) 
0.6

>  <PUBCHEM_CONFORMER_DIVERSEORDER>  (1) 
2
1
3
4
7
8
5
6
9
10

>  <PUBCHEM_MMFF94_PARTIAL_CHARGES>  (1) 
12
1 -0.14
10 -0.15
2 -0.14
23 0.15
24 0.15
3 -0.14
4 -0.14
5 0.14
6 0.14
7 0.14
8 0.14
9 -0.15

>  <PUBCHEM_EFFECTIVE_ROTOR_COUNT>  (1) 
4

>  <PUBCHEM_PHARMACOPHORE_FEATURES>  (1) 
5
1 11 hydrophobe
1 12 hydrophobe
1 13 hydrophobe
1 14 hydrophobe
6 1 2 3 4 9 10 rings

>  <PUBCHEM_HEAVY_ATOM_COUNT>  (1) 
14

>  <PUBCHEM_ATOM_DEF_STEREO_COUNT>  (1) 
0

>  <PUBCHEM_ATOM_UDEF_STEREO_COUNT>  (1) 
0

>  <PUBCHEM_BOND_DEF_STEREO_COUNT>  (1) 
0

>  <PUBCHEM_BOND_UDEF_STEREO_COUNT>  (1) 
0

>  <PUBCHEM_ISOTOPIC_ATOM_COUNT>  (1) 
0

>  <PUBCHEM_COMPONENT_COUNT>  (1) 
1

>  <PUBCHEM_CACTVS_TAUTO_COUNT>  (1) 
1

>  <PUBCHEM_CONFORMER_ID>  (1) 
00008ED800000002

>  <PUBCHEM_MMFF94_ENERGY>  (1) 
33.3114

>  <PUBCHEM_FEATURE_SELFOVERLAP>  (1) 
25.374

>  <PUBCHEM_SHAPE_FINGERPRINT>  (1) 
10062212 137 18409721877221613594
10353120 184 18049721016462250398
10980938 120 18409167675562225217
11132069 177 18411694422277014520
11206711 2 18192422189560974742
12423570 1 10289556028679586570
12524768 44 18341892939899035871
13140716 1 18266175217644654928
13172582 1 18125711297436583931
13221675 6 18410576184185373140
13380535 21 18410582785539732966
14251711 518 18410565189058864162
14614273 12 18116128117044314868
14713566 1 17988651821220146688
14993402 34 18343863316666099149
15279307 12 18410855464428592238
15309172 13 18343026549615098625
15490181 7 18410563002931150956
15775835 57 18410862057198116832
16945 1 18410565193353837956
19873495 37 18335715960920550830
20511035 2 17830716674058335624
20645476 183 17678198163841028156
20645477 70 18264766550608408837
20871999 31 18194979662709118148
21501502 16 18410846668341091631
22112679 90 18269531936423333858
22344851 341 18198048382044482776
2334 1 17977942719705187020
23419403 2 14882946873837666104
23552423 10 18191859226648973540
23558518 356 17978228592865357544
2748010 2 17044846128231439015
34934 24 18410849962570211304
5255222 1 18410561894819000101
528862 383 18261673662389470889
528886 8 18410854390903085184
53812653 166 18413108385355498480
53812653 8 18341058401947020728
53812654 25 18198880574928776323
7364860 26 18267863883311610386
81228 2 17762051442680007121

>  <PUBCHEM_SHAPE_MULTIPOLES>  (1) 
288.11
4.71
2.61
1.15
0
0.98
0
-1.46
0
0
0
0
0.65
-1.17

>  <PUBCHEM_SHAPE_SELFOVERLAP>  (1) 
580.715

>  <PUBCHEM_SHAPE_VOLUME>  (1) 
167

>  <PUBCHEM_COORDINATE_TYPE>  (1) 
2
5
10

$$$$
