3657
     RDKit          3D

  5  4  0  0  0  0  0  0  0  0999 V2000
    1.8879   -0.0095   -0.0027 O   0  0  0  0  0  0  0  0  0  0  0  0
   -0.4855   -1.3044   -0.0003 O   0  0  0  0  0  0  0  0  0  0  0  0
    0.6761    0.6946    0.0026 N   0  0  0  0  0  0  0  0  0  0  0  0
   -1.6135    0.6939   -0.0029 N   0  0  0  0  0  0  0  0  0  0  0  0
   -0.4649   -0.0745    0.0033 C   0  0  0  0  0  0  0  0  0  0  0  0
  1  3  1  0
  2  5  2  0
  3  5  1  0
  4  5  1  0
M  END
>  <PUBCHEM_COMPOUND_CID>  (1) 
3657

>  <PUBCHEM_CONFORMER_RMSD>  (1) 
0.4

>  <PUBCHEM_CONFORMER_DIVERSEORDER>  (1) 
1

>  <PUBCHEM_MMFF94_PARTIAL_CHARGES>  (1) 
9
1 -0.44
2 -0.57
3 -0.39
4 -0.8
5 0.69
6 0.37
7 0.37
8 0.37
9 0.4

>  <PUBCHEM_EFFECTIVE_ROTOR_COUNT>  (1) 
1

>  <PUBCHEM_PHARMACOPHORE_FEATURES>  (1) 
3
1 2 acceptor
1 3 donor
1 4 donor

>  <PUBCHEM_HEAVY_ATOM_COUNT>  (1) 
5

>  <PUBCHEM_ATOM_DEF_STEREO_COUNT>  (1) 
0

>  <PUBCHEM_ATOM_UDEF_STEREO_COUNT>  (1) 
0

>  <PUBCHEM_BOND_DEF_STEREO_COUNT>  (1) 
0

>  <PUBCHEM_BOND_UDEF_STEREO_COUNT>  (1) 
0

>  <PUBCHEM_ISOTOPIC_ATOM_COUNT>  (1) 
0

>  <PUBCHEM_COMPONENT_COUNT>  (1) 
1

>  <PUBCHEM_CACTVS_TAUTO_COUNT>  (1) 
4

>  <PUBCHEM_CONFORMER_ID>  (1) 
00000E4900000001

>  <PUBCHEM_MMFF94_ENERGY>  (1) 
7.0139

>  <PUBCHEM_FEATURE_SELFOVERLAP>  (1) 
15.276

>  <PUBCHEM_SHAPE_FINGERPRINT>  (1) 
139733 1 9221305504771690690
20096714 4 18409166597393753376
21015797 1 9295290560020503315
5460574 1 9295288339443406912
5943 1 13084997456695270803

>  <PUBCHEM_SHAPE_MULTIPOLES>  (1) 
81.2
1.86
1.03
0.53
0.55
0.28
0
-0.34
0
-0.23
0
-0.02
0
0

>  <PUBCHEM_SHAPE_SELFOVERLAP>  (1) 
144.194

>  <PUBCHEM_SHAPE_VOLUME>  (1) 
53

>  <PUBCHEM_COORDINATE_TYPE>  (1) 
2
5
10

$$$$
