36576
     RDKit          3D

 14 14  0  0  1  0  0  0  0  0999 V2000
    1.1279   -1.0317   -0.2646 P   0  0  0  0  0  0  0  0  0  0  0  0
    1.6582    0.2710    0.5359 O   0  0  0  0  0  0  0  0  0  0  0  0
   -0.3286   -1.3052    0.3762 O   0  0  0  0  0  0  0  0  0  0  0  0
    1.1599   -0.9043   -1.7611 O   0  0  0  0  0  0  0  0  0  0  0  0
    3.0067    0.6925    0.4344 C   0  0  0  0  0  0  0  0  0  0  0  0
    3.3312    1.0153   -1.0151 C   0  0  0  0  0  0  0  0  0  0  0  0
    3.2105    1.9144    1.3188 C   0  0  0  0  0  0  0  0  0  0  0  0
    2.1149   -2.3922    0.3356 C   0  0  0  0  0  0  0  0  0  0  0  0
   -1.4300   -0.5132    0.1924 C   0  0  0  0  0  0  0  0  0  0  0  0
   -1.3357    0.6261   -0.5997 C   0  0  0  0  0  0  0  0  0  0  0  0
   -2.6336   -0.8549    0.8000 C   0  0  0  0  0  0  0  0  0  0  0  0
   -2.4578    1.4334   -0.7863 C   0  0  0  0  0  0  0  0  0  0  0  0
   -3.7558   -0.0476    0.6133 C   0  0  0  0  0  0  0  0  0  0  0  0
   -3.6678    1.0965   -0.1799 C   0  0  0  0  0  0  0  0  0  0  0  0
  1  2  1  0
  1  3  1  0
  1  4  2  0
  1  8  1  0
  2  5  1  0
  3  9  1  0
  5  6  1  0
  5  7  1  0
  9 10  2  0
  9 11  1  0
 10 12  1  0
 11 13  2  0
 12 14  2  0
 13 14  1  0
M  END
>  <PUBCHEM_COMPOUND_CID>  (1) 
36576

>  <PUBCHEM_CONFORMER_RMSD>  (1) 
0.6

>  <PUBCHEM_CONFORMER_DIVERSEORDER>  (1) 
1
15
26
8
24
22
14
7
27
28
6
3
25
16
23
11
29
13
21
12
2
17
19
18
9
10
20
5
4

>  <PUBCHEM_MMFF94_PARTIAL_CHARGES>  (1) 
16
1 1.24
10 -0.15
11 -0.15
12 -0.15
13 -0.15
14 -0.15
2 -0.55
25 0.15
26 0.15
27 0.15
28 0.15
29 0.15
3 -0.35
4 -0.7
5 0.28
9 0.08

>  <PUBCHEM_EFFECTIVE_ROTOR_COUNT>  (1) 
4

>  <PUBCHEM_PHARMACOPHORE_FEATURES>  (1) 
3
1 4 acceptor
3 5 6 7 hydrophobe
6 9 10 11 12 13 14 rings

>  <PUBCHEM_HEAVY_ATOM_COUNT>  (1) 
14

>  <PUBCHEM_ATOM_DEF_STEREO_COUNT>  (1) 
0

>  <PUBCHEM_ATOM_UDEF_STEREO_COUNT>  (1) 
1

>  <PUBCHEM_BOND_DEF_STEREO_COUNT>  (1) 
0

>  <PUBCHEM_BOND_UDEF_STEREO_COUNT>  (1) 
0

>  <PUBCHEM_ISOTOPIC_ATOM_COUNT>  (1) 
0

>  <PUBCHEM_COMPONENT_COUNT>  (1) 
1

>  <PUBCHEM_CACTVS_TAUTO_COUNT>  (1) 
1

>  <PUBCHEM_CONFORMER_ID>  (1) 
00008EE000000001

>  <PUBCHEM_MMFF94_ENERGY>  (1) 
27.3062

>  <PUBCHEM_FEATURE_SELFOVERLAP>  (1) 
15.223

>  <PUBCHEM_SHAPE_FINGERPRINT>  (1) 
10608611 8 18335135332997796605
107287 299 18343591736840182334
11031198 65 18131917052516435132
11132069 177 18261951950674754953
12932764 1 18412271605657109295
13134695 92 17985250882027672478
15219456 202 18336263453228599555
15775835 57 18201996676876119980
17804303 29 17825390669735109691
18186145 218 18272097054201164251
19786989 88 17917711279767739479
20671657 1 18342736278355513586
20871999 31 10375327663805036642
21524375 3 18057596767012913570
22096605 113 18272076197908488165
230 275 18334296444195918502
231179 274 18343866623732712672
23382010 3 14835836356830811562
23557571 272 18336562606707561807
23559900 14 18114182973611373247
25 1 17846223288698253128
2748010 2 18187367563089153103
3060560 45 17418376874422286492
3248919 1 16950293901063721163
449060 62 18410581677485493989
7364860 26 18266458715740820210
8030462 33 15123508069338145063
8050 44 18336818711106817597
81228 2 17404576066643217026
90316 7 16950550087025340005

>  <PUBCHEM_SHAPE_MULTIPOLES>  (1) 
274.35
6.89
2
1.18
1.43
0.48
-0.18
-2.91
0.99
-1.38
0.23
-0.62
-0.2
0.9

>  <PUBCHEM_SHAPE_SELFOVERLAP>  (1) 
535.512

>  <PUBCHEM_SHAPE_VOLUME>  (1) 
166.4

>  <PUBCHEM_COORDINATE_TYPE>  (1) 
2
5
10

$$$$
