36571
     RDKit          3D

 12 12  0  0  1  0  0  0  0  0999 V2000
    3.3859   -0.0410    0.2545 O   0  0  0  0  0  0  0  0  0  0  0  0
   -2.5956   -0.6477   -1.5528 O   0  0  0  0  0  0  0  0  0  0  0  0
   -3.5039    1.4045    0.9971 N   0  0  0  0  0  0  0  0  0  0  0  0
   -0.7341   -0.4356   -0.0598 C   0  0  0  0  0  0  0  0  0  0  0  0
   -2.2143   -0.5770   -0.1723 C   0  0  0  0  0  0  0  0  0  0  0  0
    0.0183   -1.4391    0.5503 C   0  0  0  0  0  0  0  0  0  0  0  0
   -0.1021    0.7010   -0.5643 C   0  0  0  0  0  0  0  0  0  0  0  0
    2.0348   -0.1695    0.1517 C   0  0  0  0  0  0  0  0  0  0  0  0
    1.4028   -1.3060    0.6562 C   0  0  0  0  0  0  0  0  0  0  0  0
    1.2824    0.8340   -0.4585 C   0  0  0  0  0  0  0  0  0  0  0  0
   -2.9420    0.5304    0.4803 C   0  0  0  0  0  0  0  0  0  0  0  0
    3.9679    1.1460   -0.2821 C   0  0  0  0  0  0  0  0  0  0  0  0
  1  8  1  0
  1 12  1  0
  2  5  1  0
  3 11  3  0
  4  5  1  0
  4  6  2  0
  4  7  1  0
  5 11  1  0
  6  9  1  0
  7 10  2  0
  8  9  2  0
  8 10  1  0
M  END
>  <PUBCHEM_COMPOUND_CID>  (1) 
36571

>  <PUBCHEM_CONFORMER_RMSD>  (1) 
0.6

>  <PUBCHEM_CONFORMER_DIVERSEORDER>  (1) 
1
3
2

>  <PUBCHEM_MMFF94_PARTIAL_CHARGES>  (1) 
17
1 -0.36
10 -0.15
11 0.36
12 0.28
14 0.15
15 0.15
16 0.15
17 0.15
18 0.4
2 -0.68
3 -0.56
4 -0.14
5 0.62
6 -0.15
7 -0.15
8 0.08
9 -0.15

>  <PUBCHEM_EFFECTIVE_ROTOR_COUNT>  (1) 
2

>  <PUBCHEM_PHARMACOPHORE_FEATURES>  (1) 
5
1 1 acceptor
1 2 acceptor
1 2 donor
1 3 acceptor
6 4 6 7 8 9 10 rings

>  <PUBCHEM_HEAVY_ATOM_COUNT>  (1) 
12

>  <PUBCHEM_ATOM_DEF_STEREO_COUNT>  (1) 
0

>  <PUBCHEM_ATOM_UDEF_STEREO_COUNT>  (1) 
1

>  <PUBCHEM_BOND_DEF_STEREO_COUNT>  (1) 
0

>  <PUBCHEM_BOND_UDEF_STEREO_COUNT>  (1) 
0

>  <PUBCHEM_ISOTOPIC_ATOM_COUNT>  (1) 
0

>  <PUBCHEM_COMPONENT_COUNT>  (1) 
1

>  <PUBCHEM_CACTVS_TAUTO_COUNT>  (1) 
1

>  <PUBCHEM_CONFORMER_ID>  (1) 
00008EDB00000001

>  <PUBCHEM_MMFF94_ENERGY>  (1) 
33.8039

>  <PUBCHEM_FEATURE_SELFOVERLAP>  (1) 
25.373

>  <PUBCHEM_SHAPE_FINGERPRINT>  (1) 
10219947 1 17749105595411597230
10857977 72 15574722378427123091
11543360 7 16987715865214358420
12138202 97 16200428048946523429
12346645 44 18410013230121581552
12491281 212 18342460356533938634
12932764 1 16988556926847578219
14325111 11 18334857238170754498
15775835 57 18343306933538299433
16945 1 17967526865882500710
17844478 74 16805325465946701853
18186145 218 18260831509987616540
18534176 82 15913329100298073183
19026448 4 16559029419849207394
19026448 5 17988920080988597902
200 152 18336258063757091903
201361 129 18339930298790072648
20279233 1 16370722621754090971
20645477 70 17605253130317082267
20711983 171 17847061064607508636
23235685 24 18259701220328778602
23402655 69 18042941256615389471
2748010 2 17679848328740946374
528886 8 18334009501567681922
63268167 104 18261099768949140971

>  <PUBCHEM_SHAPE_MULTIPOLES>  (1) 
230.23
5.95
1.4
0.96
1.21
0.16
0.17
-2.44
-0.6
0.17
-0.22
-0.77
-0.03
-0.74

>  <PUBCHEM_SHAPE_SELFOVERLAP>  (1) 
475.3

>  <PUBCHEM_SHAPE_VOLUME>  (1) 
130.8

>  <PUBCHEM_COORDINATE_TYPE>  (1) 
2
5
10

$$$$
