36584
     RDKit          3D

 16 16  0  0  0  0  0  0  0  0999 V2000
   -3.4934    1.0530    0.0011 O   0  0  0  0  0  0  0  0  0  0  0  0
    1.1109    1.7579    0.0006 N   0  0  0  0  0  0  0  0  0  0  0  0
    0.2801   -0.4351   -0.0030 N   0  0  0  0  0  0  0  0  0  0  0  0
   -1.2129    1.4433    0.0006 N   0  0  0  0  0  0  0  0  0  0  0  0
   -0.6095   -2.6049   -0.0060 N   0  0  0  0  0  0  0  0  0  0  0  0
   -2.0933   -0.7889   -0.0029 N   0  0  0  0  0  0  0  0  0  0  0  0
    2.4912    1.3069    0.0009 C   0  0  0  0  0  0  0  0  0  0  0  0
    3.4106    2.5315    0.0042 C   0  0  0  0  0  0  0  0  0  0  0  0
    2.7261    0.4633    1.2561 C   0  0  0  0  0  0  0  0  0  0  0  0
    2.7368    0.4685   -1.2567 C   0  0  0  0  0  0  0  0  0  0  0  0
    0.0297    0.8984   -0.0005 C   0  0  0  0  0  0  0  0  0  0  0  0
   -0.8176   -1.2084   -0.0040 C   0  0  0  0  0  0  0  0  0  0  0  0
    0.6926   -3.1946   -0.0069 C   0  0  0  0  0  0  0  0  0  0  0  0
   -2.2141    0.5485   -0.0005 C   0  0  0  0  0  0  0  0  0  0  0  0
    0.5809   -4.7070    0.0133 C   0  0  0  0  0  0  0  0  0  0  0  0
   -3.6183    2.4677    0.0037 C   0  0  0  0  0  0  0  0  0  0  0  0
  1 14  1  0
  1 16  1  0
  2  7  1  0
  2 11  1  0
  3 11  2  0
  3 12  1  0
  4 11  1  0
  4 14  2  0
  5 12  1  0
  5 13  1  0
  6 12  2  0
  6 14  1  0
  7  8  1  0
  7  9  1  0
  7 10  1  0
 13 15  1  0
M  END
>  <PUBCHEM_COMPOUND_CID>  (1) 
36584

>  <PUBCHEM_CONFORMER_RMSD>  (1) 
0.6

>  <PUBCHEM_CONFORMER_DIVERSEORDER>  (1) 
1
35
37
54
4
14
21
42
52
53
19
26
18
13
32
8
23
47
33
55
48
5
29
51
20
49
11
41
3
15
38
12
24
17
36
28
50
16
46
7
39
31
27
30
6
34
25
43
22
45
44
9
40
2
10

>  <PUBCHEM_MMFF94_PARTIAL_CHARGES>  (1) 
14
1 -0.36
11 0.72
12 0.72
13 0.37
14 0.7
16 0.28
2 -0.87
26 0.4
27 0.4
3 -0.62
4 -0.62
5 -0.87
6 -0.62
7 0.37

>  <PUBCHEM_EFFECTIVE_ROTOR_COUNT>  (1) 
5

>  <PUBCHEM_PHARMACOPHORE_FEATURES>  (1) 
6
1 2 donor
1 5 donor
4 2 3 4 11 cation
4 3 5 6 12 cation
4 7 8 9 10 hydrophobe
6 3 4 6 11 12 14 rings

>  <PUBCHEM_HEAVY_ATOM_COUNT>  (1) 
16

>  <PUBCHEM_ATOM_DEF_STEREO_COUNT>  (1) 
0

>  <PUBCHEM_ATOM_UDEF_STEREO_COUNT>  (1) 
0

>  <PUBCHEM_BOND_DEF_STEREO_COUNT>  (1) 
0

>  <PUBCHEM_BOND_UDEF_STEREO_COUNT>  (1) 
0

>  <PUBCHEM_ISOTOPIC_ATOM_COUNT>  (1) 
0

>  <PUBCHEM_COMPONENT_COUNT>  (1) 
1

>  <PUBCHEM_CACTVS_TAUTO_COUNT>  (1) 
9

>  <PUBCHEM_CONFORMER_ID>  (1) 
00008EE800000001

>  <PUBCHEM_MMFF94_ENERGY>  (1) 
53.5002

>  <PUBCHEM_FEATURE_SELFOVERLAP>  (1) 
30.488

>  <PUBCHEM_SHAPE_FINGERPRINT>  (1) 
1 1 18338234856086443909
10989021 7 17619065027997205995
12173636 292 18338233872692472773
12500047 106 18339920545267996360
12532896 13 18341050812702515317
12553582 1 17112417169662742626
12592029 89 18338805524486408553
13140716 1 18411703162134165208
13380537 58 18337961215246236196
15042514 8 17904766935263681730
15279307 12 18115579499866200128
15309172 13 18410585001938114793
15906896 17 18055344988310230734
16945 1 18122344854614225188
18186145 218 18201730521905888033
19591789 44 18411149051477230963
20510252 161 18199475535453050033
20645476 183 18115039617981756556
20671657 1 18124597483736413245
20871998 22 16610262559725335074
21029758 11 17328863197574350775
21524375 3 18273210898330226261
21650355 55 17546437238406363690
21665056 4 18337955696276739662
23402539 116 17983007049288754855
23419403 2 16527290745165861306
23557571 272 17839758289287206172
257057 1 17041472289665229127
2748010 2 18337403698373683647
305870 269 18410854313625289733
3071541 12 18123191199695561737
3071541 158 17541944183018747965
3071541 250 17690570688704378039
3071541 37 18264494979615474589
3091708 16 9263902780091942163
43471831 8 18410009931808445563
458136 41 18266198157354853577
54173680 148 17834113426401234758
633830 44 18201723920762823973
7364860 26 18123749747133288423
81228 2 17766280156047992803

>  <PUBCHEM_SHAPE_MULTIPOLES>  (1) 
298.5
5.17
4.72
0.8
0.71
7.56
0
-5.95
0
0.02
0.02
-0.61
-0.08
0

>  <PUBCHEM_SHAPE_SELFOVERLAP>  (1) 
595.227

>  <PUBCHEM_SHAPE_VOLUME>  (1) 
174.2

>  <PUBCHEM_COORDINATE_TYPE>  (1) 
2
5
10

$$$$
