36602
     RDKit          3D

 17 17  0  0  0  0  0  0  0  0999 V2000
   -0.0667   -2.5908   -0.8300 S   0  0  0  0  0  0  0  0  0  0  0  0
   -0.0681    2.5906    0.8311 S   0  0  0  0  0  0  0  0  0  0  0  0
   -0.0542   -0.0001   -0.0001 N   0  0  0  0  0  0  0  0  0  0  0  0
   -2.0125   -1.2715    0.5952 N   0  0  0  0  0  0  0  0  0  0  0  0
   -2.0127    1.2713   -0.5954 N   0  0  0  0  0  0  0  0  0  0  0  0
    1.4038   -0.0002    0.0001 C   0  0  0  0  0  0  0  0  0  0  0  0
   -0.7474   -1.2463   -0.0414 C   0  0  0  0  0  0  0  0  0  0  0  0
   -0.7478    1.2460    0.0415 C   0  0  0  0  0  0  0  0  0  0  0  0
    2.0385    0.0395   -1.2073 C   0  0  0  0  0  0  0  0  0  0  0  0
    2.0386   -0.0396    1.2075 C   0  0  0  0  0  0  0  0  0  0  0  0
   -3.1025   -2.1452    0.1557 C   0  0  0  0  0  0  0  0  0  0  0  0
   -2.2822   -0.5522    1.8405 C   0  0  0  0  0  0  0  0  0  0  0  0
   -3.1030    2.1445   -0.1557 C   0  0  0  0  0  0  0  0  0  0  0  0
   -2.2816    0.5528   -1.8413 C   0  0  0  0  0  0  0  0  0  0  0  0
    3.4334    0.0398   -1.2073 C   0  0  0  0  0  0  0  0  0  0  0  0
    3.4335   -0.0391    1.2072 C   0  0  0  0  0  0  0  0  0  0  0  0
    4.1309    0.0005   -0.0001 C   0  0  0  0  0  0  0  0  0  0  0  0
  1  7  2  0
  2  8  2  0
  3  6  1  0
  3  7  1  0
  3  8  1  0
  4  7  1  0
  4 11  1  0
  4 12  1  0
  5  8  1  0
  5 13  1  0
  5 14  1  0
  6  9  2  0
  6 10  1  0
  9 15  1  0
 10 16  2  0
 15 17  2  0
 16 17  1  0
M  END
>  <PUBCHEM_COMPOUND_CID>  (1) 
36602

>  <PUBCHEM_CONFORMER_RMSD>  (1) 
0.6

>  <PUBCHEM_CONFORMER_DIVERSEORDER>  (1) 
7
24
23
15
4
8
12
14
9
2
3
16
19
22
10
5
18
13
20
11
17
1
21
6

>  <PUBCHEM_MMFF94_PARTIAL_CHARGES>  (1) 
22
1 -0.38
10 -0.15
11 0.3
12 0.3
13 0.3
14 0.3
15 -0.15
16 -0.15
17 -0.15
18 0.15
19 0.15
2 -0.38
3 -0.24
32 0.15
33 0.15
34 0.15
4 -0.66
5 -0.66
6 0.12
7 0.5
8 0.5
9 -0.15

>  <PUBCHEM_EFFECTIVE_ROTOR_COUNT>  (1) 
5

>  <PUBCHEM_PHARMACOPHORE_FEATURES>  (1) 
3
1 1 acceptor
1 2 acceptor
6 6 9 10 15 16 17 rings

>  <PUBCHEM_HEAVY_ATOM_COUNT>  (1) 
17

>  <PUBCHEM_ATOM_DEF_STEREO_COUNT>  (1) 
0

>  <PUBCHEM_ATOM_UDEF_STEREO_COUNT>  (1) 
0

>  <PUBCHEM_BOND_DEF_STEREO_COUNT>  (1) 
0

>  <PUBCHEM_BOND_UDEF_STEREO_COUNT>  (1) 
0

>  <PUBCHEM_ISOTOPIC_ATOM_COUNT>  (1) 
0

>  <PUBCHEM_COMPONENT_COUNT>  (1) 
1

>  <PUBCHEM_CACTVS_TAUTO_COUNT>  (1) 
1

>  <PUBCHEM_CONFORMER_ID>  (1) 
00008EFA00000007

>  <PUBCHEM_MMFF94_ENERGY>  (1) 
112.2601

>  <PUBCHEM_FEATURE_SELFOVERLAP>  (1) 
15.223

>  <PUBCHEM_SHAPE_FINGERPRINT>  (1) 
11132069 177 18341625827498749891
11578080 2 17462247482939386076
11680986 33 18047758100354502259
12138202 97 18188767249975880807
12186901 62 18262537921842722270
12714826 92 18261401082268970235
12716301 132 18339911671511654746
13296908 3 18410853291681438832
13538477 17 18113614552259844512
13583140 156 16515972475549158981
13764800 53 18337962190029842889
15490181 8 17978228253546772634
15775835 57 17603876567860921268
15852999 172 18190452753771843047
16752209 62 18333728039470916474
16945 1 18186518795783391925
17357779 13 18269261525751629687
18186145 218 17774732991231432718
19422 9 17748827419297083914
19868273 325 18409452517698480160
200 152 16732978790634899602
20510252 161 18341336664514560248
21524375 3 17970337119008960421
22802520 49 17916318138500503836
23402539 116 18129645414771341516
23419403 2 17902200619590272637
23493267 7 18187374177264857962
23526113 38 17703497797246538992
23557571 272 18270687579722395780
23559900 14 18337936923570781456
23598291 2 17603590712112202564
23598294 1 18409160022088889498
2748010 2 18269260412854303497
4175511 318 17894627019967465293
4340502 62 17972042436285903697
77492 1 17675925400212686982
81228 2 18266452286042604011

>  <PUBCHEM_SHAPE_MULTIPOLES>  (1) 
342.61
5.89
2.5
1.5
3.61
0
0
0
0
-2.31
0
-0.16
0
0.64

>  <PUBCHEM_SHAPE_SELFOVERLAP>  (1) 
672.961

>  <PUBCHEM_SHAPE_VOLUME>  (1) 
209.3

>  <PUBCHEM_COORDINATE_TYPE>  (1) 
2
5
10

$$$$
