36619
     RDKit          3D

 10 11  0  0  1  0  0  0  0  0999 V2000
   -0.4864    0.7245    0.4304 C   0  0  0  0  0  0  0  0  0  0  0  0
   -1.8656    1.2050   -0.0446 C   0  0  0  0  0  0  0  0  0  0  0  0
   -2.7612   -0.0071    0.1590 C   0  0  0  0  0  0  0  0  0  0  0  0
   -1.9037   -1.1685   -0.3215 C   0  0  0  0  0  0  0  0  0  0  0  0
   -0.4982   -0.7293    0.0046 C   0  0  0  0  0  0  0  0  0  0  0  0
    0.6202    1.5714   -0.1325 C   0  0  0  0  0  0  0  0  0  0  0  0
    0.5529   -1.5546   -0.1101 C   0  0  0  0  0  0  0  0  0  0  0  0
    1.9047    1.2189   -0.2881 C   0  0  0  0  0  0  0  0  0  0  0  0
    1.9256   -1.2312    0.1931 C   0  0  0  0  0  0  0  0  0  0  0  0
    2.5117   -0.0290    0.1097 C   0  0  0  0  0  0  0  0  0  0  0  0
  1  2  1  0
  1  5  1  0
  1  6  1  0
  2  3  1  0
  3  4  1  0
  4  5  1  0
  5  7  2  0
  6  8  2  0
  7  9  1  0
  8 10  1  0
  9 10  2  0
M  END
>  <PUBCHEM_COMPOUND_CID>  (1) 
36619

>  <PUBCHEM_CONFORMER_RMSD>  (1) 
0.4

>  <PUBCHEM_CONFORMER_DIVERSEORDER>  (1) 
1

>  <PUBCHEM_MMFF94_PARTIAL_CHARGES>  (1) 
13
1 0.28
10 -0.15
18 0.15
19 0.15
20 0.15
21 0.15
22 0.15
4 0.14
5 -0.28
6 -0.29
7 -0.15
8 -0.15
9 -0.15

>  <PUBCHEM_EFFECTIVE_ROTOR_COUNT>  (1) 
0.6

>  <PUBCHEM_PHARMACOPHORE_FEATURES>  (1) 
2
5 1 2 3 4 5 rings
7 1 5 6 7 8 9 10 rings

>  <PUBCHEM_HEAVY_ATOM_COUNT>  (1) 
10

>  <PUBCHEM_ATOM_DEF_STEREO_COUNT>  (1) 
0

>  <PUBCHEM_ATOM_UDEF_STEREO_COUNT>  (1) 
1

>  <PUBCHEM_BOND_DEF_STEREO_COUNT>  (1) 
0

>  <PUBCHEM_BOND_UDEF_STEREO_COUNT>  (1) 
0

>  <PUBCHEM_ISOTOPIC_ATOM_COUNT>  (1) 
0

>  <PUBCHEM_COMPONENT_COUNT>  (1) 
1

>  <PUBCHEM_CACTVS_TAUTO_COUNT>  (1) 
1

>  <PUBCHEM_CONFORMER_ID>  (1) 
00008F0B00000001

>  <PUBCHEM_MMFF94_ENERGY>  (1) 
19.8256

>  <PUBCHEM_FEATURE_SELFOVERLAP>  (1) 
10.175

>  <PUBCHEM_SHAPE_FINGERPRINT>  (1) 
12423570 1 11460630306999659929
12524768 44 18125724478538331943
12897270 3 18410011073937138165
14128692 85 18343300391986427375
14325111 11 18410575114823068369
15775835 57 18340214084322265492
16945 1 18410291419284708823
18185500 45 18411698759919371474
19973954 147 18409732841666023599
21040471 1 18194965364425145176
23235685 24 18410008879367267712
23402655 69 18268132185929755261
23552423 10 18335138738685160375
241688 4 17833838166231645730
2748010 2 17257934793140190460
29004967 10 18261116252906918738
369184 2 18410008827737846515
5084963 1 18343303681936566514
528886 8 18410851070687409697
63268167 104 18410294687812947456
66348 1 17978229692292231932

>  <PUBCHEM_SHAPE_MULTIPOLES>  (1) 
205.8
3.57
1.79
0.66
0.44
0.02
0
-0.03
-0.03
-0.28
0.1
0.01
0.01
-0.19

>  <PUBCHEM_SHAPE_SELFOVERLAP>  (1) 
432.114

>  <PUBCHEM_SHAPE_VOLUME>  (1) 
110.4

>  <PUBCHEM_COORDINATE_TYPE>  (1) 
2
5
10

$$$$
