36621
     RDKit          3D

 30 33  0  0  0  0  0  0  0  0999 V2000
    6.3356    0.0063   -0.0076 O   0  0  0  0  0  0  0  0  0  0  0  0
   -3.2481    4.8771   -1.5154 O   0  0  0  0  0  0  0  0  0  0  0  0
   -3.3241   -4.9031   -1.2166 O   0  0  0  0  0  0  0  0  0  0  0  0
   -2.3681   -0.3417    2.3274 O   0  0  0  0  0  0  0  0  0  0  0  0
   -0.1950   -2.1141    2.3318 O   0  0  0  0  0  0  0  0  0  0  0  0
    3.5969    0.5799   -0.5291 N   0  0  0  0  0  0  0  0  0  0  0  0
   -1.8711    3.2238    0.3479 N   0  0  0  0  0  0  0  0  0  0  0  0
   -1.0928   -3.4105   -0.2707 N   0  0  0  0  0  0  0  0  0  0  0  0
    2.4645    1.4963   -0.6473 C   0  0  0  0  0  0  0  0  0  0  0  0
   -1.8293    2.3304    1.5038 C   0  0  0  0  0  0  0  0  0  0  0  0
    1.1986    0.8842   -0.1072 C   0  0  0  0  0  0  0  0  0  0  0  0
    0.2499   -2.8528   -0.4190 C   0  0  0  0  0  0  0  0  0  0  0  0
   -0.8832    1.1756    1.2718 C   0  0  0  0  0  0  0  0  0  0  0  0
    0.3330   -1.4533    0.1197 C   0  0  0  0  0  0  0  0  0  0  0  0
    4.1378    0.5923    0.8371 C   0  0  0  0  0  0  0  0  0  0  0  0
    4.6517    0.9272   -1.4914 C   0  0  0  0  0  0  0  0  0  0  0  0
   -2.6964    2.6510   -0.7246 C   0  0  0  0  0  0  0  0  0  0  0  0
   -2.3871    4.5459    0.7287 C   0  0  0  0  0  0  0  0  0  0  0  0
   -1.0595   -4.8778   -0.3460 C   0  0  0  0  0  0  0  0  0  0  0  0
   -1.9968   -2.8741   -1.2975 C   0  0  0  0  0  0  0  0  0  0  0  0
    0.3830    1.5919    0.6909 C   0  0  0  0  0  0  0  0  0  0  0  0
    0.9505   -0.4715   -0.5538 C   0  0  0  0  0  0  0  0  0  0  0  0
    5.3256   -0.3612    0.9328 C   0  0  0  0  0  0  0  0  0  0  0  0
    5.8265   -0.0350   -1.3412 C   0  0  0  0  0  0  0  0  0  0  0  0
   -2.7344    3.6058   -1.9143 C   0  0  0  0  0  0  0  0  0  0  0  0
   -2.4336    5.4562   -0.4953 C   0  0  0  0  0  0  0  0  0  0  0  0
   -1.1835   -0.0784    1.6583 C   0  0  0  0  0  0  0  0  0  0  0  0
   -2.4724   -5.4361   -0.2017 C   0  0  0  0  0  0  0  0  0  0  0  0
   -3.3877   -3.4792   -1.1297 C   0  0  0  0  0  0  0  0  0  0  0  0
   -0.2902   -1.2551    1.4584 C   0  0  0  0  0  0  0  0  0  0  0  0
  1 23  1  0
  1 24  1  0
  2 25  1  0
  2 26  1  0
  3 28  1  0
  3 29  1  0
  4 27  1  0
  5 30  2  0
  6  9  1  0
  6 15  1  0
  6 16  1  0
  7 10  1  0
  7 17  1  0
  7 18  1  0
  8 12  1  0
  8 19  1  0
  8 20  1  0
  9 11  1  0
 10 13  1  0
 11 21  2  0
 11 22  1  0
 12 14  1  0
 13 21  1  0
 13 27  2  0
 14 22  2  0
 14 30  1  0
 15 23  1  0
 16 24  1  0
 17 25  1  0
 18 26  1  0
 19 28  1  0
 20 29  1  0
 27 30  1  0
M  END
>  <PUBCHEM_COMPOUND_CID>  (1) 
36621

>  <PUBCHEM_CONFORMER_RMSD>  (1) 
1.2

>  <PUBCHEM_CONFORMER_DIVERSEORDER>  (1) 
1
14
23
27
25
43
18
22
33
5
28
17
38
26
44
9
30
11
32
6
37
41
8
10
24
31
3
45
29
39
13
46
19
42
12
4
40
34
7
2
15
35
36
21
16
20

>  <PUBCHEM_MMFF94_PARTIAL_CHARGES>  (1) 
33
1 -0.56
10 0.41
11 -0.14
12 0.41
13 -0.14
14 -0.12
15 0.27
16 0.27
17 0.27
18 0.27
19 0.27
2 -0.56
20 0.27
21 -0.15
22 -0.15
23 0.28
24 0.28
25 0.28
26 0.28
27 0.09
28 0.28
29 0.28
3 -0.56
30 0.54
4 -0.53
49 0.15
5 -0.57
50 0.15
6 -0.81
63 0.45
7 -0.81
8 -0.81
9 0.41

>  <PUBCHEM_EFFECTIVE_ROTOR_COUNT>  (1) 
9.6

>  <PUBCHEM_PHARMACOPHORE_FEATURES>  (1) 
12
1 1 acceptor
1 2 acceptor
1 3 acceptor
1 4 donor
1 5 acceptor
1 6 cation
1 7 cation
1 8 cation
6 1 6 15 16 23 24 rings
6 2 7 17 18 25 26 rings
6 3 8 19 20 28 29 rings
7 11 13 14 21 22 27 30 rings

>  <PUBCHEM_HEAVY_ATOM_COUNT>  (1) 
30

>  <PUBCHEM_ATOM_DEF_STEREO_COUNT>  (1) 
0

>  <PUBCHEM_ATOM_UDEF_STEREO_COUNT>  (1) 
0

>  <PUBCHEM_BOND_DEF_STEREO_COUNT>  (1) 
0

>  <PUBCHEM_BOND_UDEF_STEREO_COUNT>  (1) 
0

>  <PUBCHEM_ISOTOPIC_ATOM_COUNT>  (1) 
0

>  <PUBCHEM_COMPONENT_COUNT>  (1) 
1

>  <PUBCHEM_CACTVS_TAUTO_COUNT>  (1) 
3

>  <PUBCHEM_CONFORMER_ID>  (1) 
00008F0D00000001

>  <PUBCHEM_MMFF94_ENERGY>  (1) 
76.5536

>  <PUBCHEM_FEATURE_SELFOVERLAP>  (1) 
60.898

>  <PUBCHEM_SHAPE_FINGERPRINT>  (1) 
10319688 77 18050566545246203322
11045515 52 18050850219093474462
11720765 8 17764298840494884543
11763715 3 17974870654695209766
11991303 11 18337403642776401766
12160290 23 18194715680870310336
12422481 6 16984663629093908290
12788726 201 18262506100388224570
13004483 165 17842556529273749814
1361 2 17331953929124256730
140371 6 17260474089622448314
14114206 34 17899435339620367266
14508225 48 17981613976340179556
15420108 30 18048023087304665352
15439362 3 17472980601738001404
15664445 248 17328858206949265384
17899979 19 16895393387098568284
21033648 29 18199746960729002064
21304303 282 18196628762198586542
23419403 2 14204473428034326024
23559900 14 16902433555496891498
23929065 36 18267844225430841976
24771750 20 17687215013639357076
255183 313 18198648629757491201
3027735 51 18272653467526370862
376196 1 17755878419482277720
38695281 34 18050562937521316268
4017518 198 17980757144031102158
4409770 3 18410007736911150845
46194498 28 17252295415736040045
5080951 261 17846769724755804390
59444896 2 17680112262738963195
6677587 24 16886906875133843461
7399639 24 18050313404733286105
9862522 239 18263376823360651992
9981440 41 18194403286234495808

>  <PUBCHEM_SHAPE_MULTIPOLES>  (1) 
573.1
8.71
8.64
1.84
13.06
12.95
-0.46
-13.5
2.84
-10.77
3.6
-0.77
-0.18
-0.26

>  <PUBCHEM_SHAPE_SELFOVERLAP>  (1) 
1195.507

>  <PUBCHEM_SHAPE_VOLUME>  (1) 
321.3

>  <PUBCHEM_COORDINATE_TYPE>  (1) 
2
5
10

$$$$
