36627
     RDKit          3D

 13 12  0  0  0  0  0  0  0  0999 V2000
   -1.5979   -0.3146    0.0054 O   0  0  0  0  0  0  0  0  0  0  0  0
    4.4996    0.2064    0.0057 O   0  0  0  0  0  0  0  0  0  0  0  0
   -2.8817    1.6021   -0.0167 O   0  0  0  0  0  0  0  0  0  0  0  0
    0.8014   -0.4434    0.0182 C   0  0  0  0  0  0  0  0  0  0  0  0
    2.1090    0.3405    0.0339 C   0  0  0  0  0  0  0  0  0  0  0  0
   -0.4079    0.4806    0.0047 C   0  0  0  0  0  0  0  0  0  0  0  0
    3.3184   -0.5831    0.0042 C   0  0  0  0  0  0  0  0  0  0  0  0
   -3.9235   -0.5955   -0.0025 C   0  0  0  0  0  0  0  0  0  0  0  0
   -5.2760    0.1126    0.0112 C   0  0  0  0  0  0  0  0  0  0  0  0
   -2.7721    0.3838   -0.0061 C   0  0  0  0  0  0  0  0  0  0  0  0
    5.6683   -0.6022   -0.0214 C   0  0  0  0  0  0  0  0  0  0  0  0
   -6.4258   -0.8813   -0.0182 C   0  0  0  0  0  0  0  0  0  0  0  0
    6.8882    0.2940   -0.0184 C   0  0  0  0  0  0  0  0  0  0  0  0
  1  6  1  0
  1 10  1  0
  2  7  1  0
  2 11  1  0
  3 10  2  0
  4  5  1  0
  4  6  1  0
  5  7  1  0
  8  9  1  0
  8 10  1  0
  9 12  1  0
 11 13  1  0
M  END
>  <PUBCHEM_COMPOUND_CID>  (1) 
36627

>  <PUBCHEM_CONFORMER_RMSD>  (1) 
1

>  <PUBCHEM_CONFORMER_DIVERSEORDER>  (1) 
1
176
422
205
240
20
140
10
270
58
398
137
169
380
4
2
260
388
237
151
23
365
293
39
572
502
130
454
180
19
491
545
105
600
51
111
99
12
690
436
221
18
674
135
368
9
512
210
115
285
50
36
179
272
584
582
106
121
223
233
444
29
665
128
33
16
54
3
294
361
11
190
217
59
49
300
13
230
364

>  <PUBCHEM_MMFF94_PARTIAL_CHARGES>  (1) 
8
1 -0.43
10 0.66
11 0.28
2 -0.56
3 -0.57
6 0.28
7 0.28
8 0.06

>  <PUBCHEM_EFFECTIVE_ROTOR_COUNT>  (1) 
9

>  <PUBCHEM_PHARMACOPHORE_FEATURES>  (1) 
3
1 12 hydrophobe
1 2 acceptor
1 3 acceptor

>  <PUBCHEM_HEAVY_ATOM_COUNT>  (1) 
13

>  <PUBCHEM_ATOM_DEF_STEREO_COUNT>  (1) 
0

>  <PUBCHEM_ATOM_UDEF_STEREO_COUNT>  (1) 
0

>  <PUBCHEM_BOND_DEF_STEREO_COUNT>  (1) 
0

>  <PUBCHEM_BOND_UDEF_STEREO_COUNT>  (1) 
0

>  <PUBCHEM_ISOTOPIC_ATOM_COUNT>  (1) 
0

>  <PUBCHEM_COMPONENT_COUNT>  (1) 
1

>  <PUBCHEM_CACTVS_TAUTO_COUNT>  (1) 
1

>  <PUBCHEM_CONFORMER_ID>  (1) 
00008F1300000001

>  <PUBCHEM_MMFF94_ENERGY>  (1) 
6.3345

>  <PUBCHEM_FEATURE_SELFOVERLAP>  (1) 
15.223

>  <PUBCHEM_SHAPE_FINGERPRINT>  (1) 
10968037 39 18334576854395402855
12091667 2 17749108885905146065
12714333 28 13912321287142974087
12815109 37 8142085364117841366
13288520 33 18412262853067245127
13533116 47 16443333248998406752
14123238 8 18407760326722775658
1420 363 18342741818678631150
14251718 22 18334857212290154946
14251764 46 18413106164756977999
14729087 3 8430322320529138079
15242439 84 11746940888488362684
17834072 33 18335139817054332708
17834072 8 10881400932946376154
17834076 25 10809342243401598379
187816 3 15936411139062380129
20621476 38 18337389332515804114
20645477 56 9871751282702260995
20645477 70 18058735685335422126
20767249 213 18260268564329110334
22896161 15 18410855494735930446
23402539 116 18408600370965653071
23521765 1 18341895198977915394
300161 21 9295288318047737260
33684 2 18113335310296817122
42788 4 18410856559639802560
57583515 80 13984661447306068309
8209 1 18410573989451706198

>  <PUBCHEM_SHAPE_MULTIPOLES>  (1) 
249.93
17.91
0.97
0.59
8.76
0.16
0
-2.58
-0.15
-0.63
0
0
-0.01
0

>  <PUBCHEM_SHAPE_SELFOVERLAP>  (1) 
454.513

>  <PUBCHEM_SHAPE_VOLUME>  (1) 
160.1

>  <PUBCHEM_COORDINATE_TYPE>  (1) 
2
5
10

$$$$
