36636
     RDKit          3D

 21 25  0  0  0  0  0  0  0  0999 V2000
   -1.9914   -2.8840   -0.0002 O   0  0  0  0  0  0  0  0  0  0  0  0
    0.3903   -0.0822   -0.0001 C   0  0  0  0  0  0  0  0  0  0  0  0
    1.8016    0.1041   -0.0001 C   0  0  0  0  0  0  0  0  0  0  0  0
   -0.4943    1.0292   -0.0001 C   0  0  0  0  0  0  0  0  0  0  0  0
   -0.1228   -1.3973   -0.0001 C   0  0  0  0  0  0  0  0  0  0  0  0
   -1.9148    0.8039   -0.0001 C   0  0  0  0  0  0  0  0  0  0  0  0
    2.3461    1.4063   -0.0001 C   0  0  0  0  0  0  0  0  0  0  0  0
    2.6741   -1.0115    0.0001 C   0  0  0  0  0  0  0  0  0  0  0  0
   -2.4023   -0.5266   -0.0002 C   0  0  0  0  0  0  0  0  0  0  0  0
   -1.5056   -1.6000   -0.0002 C   0  0  0  0  0  0  0  0  0  0  0  0
    0.0964    2.3136   -0.0001 C   0  0  0  0  0  0  0  0  0  0  0  0
    0.7544   -2.4904    0.0003 C   0  0  0  0  0  0  0  0  0  0  0  0
    1.4812    2.5001   -0.0001 C   0  0  0  0  0  0  0  0  0  0  0  0
    2.1349   -2.3009    0.0002 C   0  0  0  0  0  0  0  0  0  0  0  0
    3.7382    1.5810    0.0000 C   0  0  0  0  0  0  0  0  0  0  0  0
    4.0620   -0.8092    0.0001 C   0  0  0  0  0  0  0  0  0  0  0  0
   -2.8866    1.8369    0.0001 C   0  0  0  0  0  0  0  0  0  0  0  0
   -3.7850   -0.7817   -0.0001 C   0  0  0  0  0  0  0  0  0  0  0  0
    4.5898    0.4795    0.0000 C   0  0  0  0  0  0  0  0  0  0  0  0
   -4.2583    1.5701    0.0003 C   0  0  0  0  0  0  0  0  0  0  0  0
   -4.7078    0.2593    0.0002 C   0  0  0  0  0  0  0  0  0  0  0  0
  1 10  1  0
  2  3  2  0
  2  4  1  0
  2  5  1  0
  3  7  1  0
  3  8  1  0
  4  6  1  0
  4 11  2  0
  5 10  2  0
  5 12  1  0
  6  9  2  0
  6 17  1  0
  7 13  2  0
  7 15  1  0
  8 14  1  0
  8 16  2  0
  9 10  1  0
  9 18  1  0
 11 13  1  0
 12 14  2  0
 15 19  2  0
 16 19  1  0
 17 20  2  0
 18 21  2  0
 20 21  1  0
M  END
>  <PUBCHEM_COMPOUND_CID>  (1) 
36636

>  <PUBCHEM_CONFORMER_RMSD>  (1) 
0.6

>  <PUBCHEM_CONFORMER_DIVERSEORDER>  (1) 
1

>  <PUBCHEM_MMFF94_PARTIAL_CHARGES>  (1) 
25
1 -0.53
10 0.08
11 -0.15
12 -0.15
13 -0.15
14 -0.15
15 -0.15
16 -0.15
17 -0.15
18 -0.15
19 -0.15
20 -0.15
21 -0.15
22 0.15
23 0.15
24 0.15
25 0.15
26 0.15
27 0.15
28 0.15
29 0.15
30 0.15
31 0.15
32 0.15
33 0.45

>  <PUBCHEM_EFFECTIVE_ROTOR_COUNT>  (1) 
0

>  <PUBCHEM_PHARMACOPHORE_FEATURES>  (1) 
6
1 1 donor
6 2 3 4 7 11 13 rings
6 2 3 5 8 12 14 rings
6 2 4 5 6 9 10 rings
6 3 7 8 15 16 19 rings
6 6 9 17 18 20 21 rings

>  <PUBCHEM_HEAVY_ATOM_COUNT>  (1) 
21

>  <PUBCHEM_ATOM_DEF_STEREO_COUNT>  (1) 
0

>  <PUBCHEM_ATOM_UDEF_STEREO_COUNT>  (1) 
0

>  <PUBCHEM_BOND_DEF_STEREO_COUNT>  (1) 
0

>  <PUBCHEM_BOND_UDEF_STEREO_COUNT>  (1) 
0

>  <PUBCHEM_ISOTOPIC_ATOM_COUNT>  (1) 
0

>  <PUBCHEM_COMPONENT_COUNT>  (1) 
1

>  <PUBCHEM_CACTVS_TAUTO_COUNT>  (1) 
3

>  <PUBCHEM_CONFORMER_ID>  (1) 
00008F1C00000001

>  <PUBCHEM_MMFF94_ENERGY>  (1) 
82.6372

>  <PUBCHEM_FEATURE_SELFOVERLAP>  (1) 
30.6

>  <PUBCHEM_SHAPE_FINGERPRINT>  (1) 
10411042 1 16825589186670591495
10616163 171 18339081608926059215
10863032 1 18412262847933540258
10967382 1 18410856521095866694
1100329 8 18410855499157576472
11112241 14 16556191674869890976
11132069 177 18410288129645851760
11471102 20 18410852148719017180
11578080 2 13698165030882655500
12011746 2 18410575058930250756
12236239 1 17775002363211901233
12403814 3 17676483934718403253
12838862 33 18338778066444519272
13132413 78 18412826875945118429
13140716 1 18338514269457766568
138480 1 17834114143524246754
13862211 1 18410569548777619794
14178342 30 18195228134792836968
14790565 3 18410302388763831172
15196674 1 18410855455838475748
15442244 35 18410854347758012442
15536298 74 18342739589664262644
1601671 61 18410294692340133588
16945 1 18410574023848393799
19591789 44 18338235955518943694
200 152 18131627890028448877
20739085 24 17905073385749557801
20905425 154 18196653986773455508
21267235 1 18411146813624910598
21279426 13 18267586793174522108
21421861 104 17825384081444571754
221490 88 18336553818750689779
23227448 37 18412824720093231487
2334 1 18122626312447866500
23402539 116 18343575235575740334
23463225 33 18408885118269697004
23558518 356 17899977436869107346
23559900 14 18343021082638474532
238 59 17612267967600122989
2748010 2 18339082695837361878
335352 9 18338797814972717342
34934 24 18411132537338118122
350125 39 18266184014132705027
3680242 22 18263079920855996730
474 4 18259705613853508049
495365 180 17417800786385394168
5104073 3 18410012126130292971
6138700 20 18338520717016457174
69090 78 18411697690593795103
7364860 26 18340768156572744846
7832392 63 18411978087449487342
9709674 26 18412268345571378743
9981440 41 17326611908799347680

>  <PUBCHEM_SHAPE_MULTIPOLES>  (1) 
426.3
7.98
2.95
0.61
1.75
0.58
0
-1.62
0
-0.25
0
-0.01
-0.01
0

>  <PUBCHEM_SHAPE_SELFOVERLAP>  (1) 
1006.558

>  <PUBCHEM_SHAPE_VOLUME>  (1) 
215.6

>  <PUBCHEM_COORDINATE_TYPE>  (1) 
2
5
10

$$$$
