36643
     RDKit          3D

 14 14  0  0  0  0  0  0  0  0999 V2000
   -1.3713    0.0000    0.2541 C   0  0  0  0  0  0  0  0  0  0  0  0
    1.3716    0.0000   -0.2551 C   0  0  0  0  0  0  0  0  0  0  0  0
   -0.6857    1.2080    0.1270 C   0  0  0  0  0  0  0  0  0  0  0  0
    0.6857    1.2080   -0.1277 C   0  0  0  0  0  0  0  0  0  0  0  0
   -0.6856   -1.2081    0.1267 C   0  0  0  0  0  0  0  0  0  0  0  0
    0.6859   -1.2081   -0.1279 C   0  0  0  0  0  0  0  0  0  0  0  0
   -2.8424   -0.0002    0.5277 C   0  0  0  0  0  0  0  0  0  0  0  0
    2.8433    0.0004   -0.5264 C   0  0  0  0  0  0  0  0  0  0  0  0
   -1.4214    2.5038    0.2641 C   0  0  0  0  0  0  0  0  0  0  0  0
    1.4212    2.5041   -0.2646 C   0  0  0  0  0  0  0  0  0  0  0  0
   -1.4219   -2.5038    0.2631 C   0  0  0  0  0  0  0  0  0  0  0  0
    1.4216   -2.5039   -0.2638 C   0  0  0  0  0  0  0  0  0  0  0  0
   -3.6665    0.0002   -0.7549 C   0  0  0  0  0  0  0  0  0  0  0  0
    3.6654   -0.0004    0.7576 C   0  0  0  0  0  0  0  0  0  0  0  0
  1  3  2  0
  1  5  1  0
  1  7  1  0
  2  4  2  0
  2  6  1  0
  2  8  1  0
  3  4  1  0
  3  9  1  0
  4 10  1  0
  5  6  2  0
  5 11  1  0
  6 12  1  0
  7 13  1  0
  8 14  1  0
M  END
>  <PUBCHEM_COMPOUND_CID>  (1) 
36643

>  <PUBCHEM_CONFORMER_RMSD>  (1) 
0.6

>  <PUBCHEM_CONFORMER_DIVERSEORDER>  (1) 
1
2

>  <PUBCHEM_MMFF94_PARTIAL_CHARGES>  (1) 
12
1 -0.14
10 0.14
11 0.14
12 0.14
2 -0.14
3 -0.14
4 -0.14
5 -0.14
6 -0.14
7 0.14
8 0.14
9 0.14

>  <PUBCHEM_EFFECTIVE_ROTOR_COUNT>  (1) 
2

>  <PUBCHEM_PHARMACOPHORE_FEATURES>  (1) 
3
1 13 hydrophobe
1 14 hydrophobe
6 1 2 3 4 5 6 rings

>  <PUBCHEM_HEAVY_ATOM_COUNT>  (1) 
14

>  <PUBCHEM_ATOM_DEF_STEREO_COUNT>  (1) 
0

>  <PUBCHEM_ATOM_UDEF_STEREO_COUNT>  (1) 
0

>  <PUBCHEM_BOND_DEF_STEREO_COUNT>  (1) 
0

>  <PUBCHEM_BOND_UDEF_STEREO_COUNT>  (1) 
0

>  <PUBCHEM_ISOTOPIC_ATOM_COUNT>  (1) 
0

>  <PUBCHEM_COMPONENT_COUNT>  (1) 
1

>  <PUBCHEM_CACTVS_TAUTO_COUNT>  (1) 
1

>  <PUBCHEM_CONFORMER_ID>  (1) 
00008F2300000001

>  <PUBCHEM_MMFF94_ENERGY>  (1) 
48.5482

>  <PUBCHEM_FEATURE_SELFOVERLAP>  (1) 
15.223

>  <PUBCHEM_SHAPE_FINGERPRINT>  (1) 
10967382 1 18410859871059574799
11132069 177 18411133658451105098
11206711 2 18337399240245376325
11680986 33 18267020755282234304
12382932 28 18411985783967669490
12423570 1 17702387252006015607
13140716 1 18266745868394693073
13380535 76 18410571790423715047
13897977 150 18266743665256058229
14614273 12 17971189227577634309
14911166 2 18410015446155823471
14993402 34 18408606967808637724
16945 1 18410867559051034630
193761 8 18410866455244439557
20201158 50 18409166606215699127
20510252 161 18272369724716880408
20511035 2 18120941869308463964
20588541 1 18410579482720334423
20645476 183 17605573243162089638
21501502 16 18123754145026727802
2334 1 17978797040234135559
23388829 49 18413101745256781429
23402539 116 18341316825786339486
23419403 2 15666391776401163793
23463225 33 18263927807387207448
23526114 1 18122347053621611141
23552423 10 17900828463317064340
23559900 14 18270131218544232180
241688 4 17905615401731061416
2748010 2 18051139377724174213
353137 74 18337104562760392593
528886 8 18411980299183539082
53812653 166 18342737412063089818

>  <PUBCHEM_SHAPE_MULTIPOLES>  (1) 
288.11
4.67
2.82
0.77
0
0
0
0
0
0
0
0
0
0

>  <PUBCHEM_SHAPE_SELFOVERLAP>  (1) 
590.274

>  <PUBCHEM_SHAPE_VOLUME>  (1) 
164.2

>  <PUBCHEM_COORDINATE_TYPE>  (1) 
2
5
10

$$$$
