36644
     RDKit          3D

 11 11  0  0  1  0  0  0  0  0999 V2000
    2.8713    0.3019   -1.2162 O   0  0  0  0  0  0  0  0  0  0  0  0
    0.9093   -0.3276    0.0034 C   0  0  0  0  0  0  0  0  0  0  0  0
    2.4002   -0.2938   -0.0018 C   0  0  0  0  0  0  0  0  0  0  0  0
   -1.2104    0.8316   -0.0127 C   0  0  0  0  0  0  0  0  0  0  0  0
   -1.8796   -0.3921    0.0122 C   0  0  0  0  0  0  0  0  0  0  0  0
    0.1842    0.8639   -0.0171 C   0  0  0  0  0  0  0  0  0  0  0  0
    0.2399   -1.5512    0.0283 C   0  0  0  0  0  0  0  0  0  0  0  0
   -1.1545   -1.5834    0.0328 C   0  0  0  0  0  0  0  0  0  0  0  0
    2.9778    0.4823    1.1859 C   0  0  0  0  0  0  0  0  0  0  0  0
   -1.9660    2.1198   -0.0330 C   0  0  0  0  0  0  0  0  0  0  0  0
   -3.3721   -0.4515    0.0181 C   0  0  0  0  0  0  0  0  0  0  0  0
  1  3  1  0
  2  3  1  0
  2  6  2  0
  2  7  1  0
  3  9  1  0
  4  5  2  0
  4  6  1  0
  4 10  1  0
  5  8  1  0
  5 11  1  0
  7  8  2  0
M  END
>  <PUBCHEM_COMPOUND_CID>  (1) 
36644

>  <PUBCHEM_CONFORMER_RMSD>  (1) 
0.4

>  <PUBCHEM_CONFORMER_DIVERSEORDER>  (1) 
1
6
4
5
3
2

>  <PUBCHEM_MMFF94_PARTIAL_CHARGES>  (1) 
14
1 -0.68
10 0.14
11 0.14
13 0.15
14 0.15
15 0.15
2 -0.14
25 0.4
3 0.42
4 -0.14
5 -0.14
6 -0.15
7 -0.15
8 -0.15

>  <PUBCHEM_EFFECTIVE_ROTOR_COUNT>  (1) 
1

>  <PUBCHEM_PHARMACOPHORE_FEATURES>  (1) 
3
1 1 acceptor
1 1 donor
6 2 4 5 6 7 8 rings

>  <PUBCHEM_HEAVY_ATOM_COUNT>  (1) 
11

>  <PUBCHEM_ATOM_DEF_STEREO_COUNT>  (1) 
0

>  <PUBCHEM_ATOM_UDEF_STEREO_COUNT>  (1) 
1

>  <PUBCHEM_BOND_DEF_STEREO_COUNT>  (1) 
0

>  <PUBCHEM_BOND_UDEF_STEREO_COUNT>  (1) 
0

>  <PUBCHEM_ISOTOPIC_ATOM_COUNT>  (1) 
0

>  <PUBCHEM_COMPONENT_COUNT>  (1) 
1

>  <PUBCHEM_CACTVS_TAUTO_COUNT>  (1) 
1

>  <PUBCHEM_CONFORMER_ID>  (1) 
00008F2400000001

>  <PUBCHEM_MMFF94_ENERGY>  (1) 
26.8172

>  <PUBCHEM_FEATURE_SELFOVERLAP>  (1) 
15.223

>  <PUBCHEM_SHAPE_FINGERPRINT>  (1) 
10857977 72 18411131480575554067
11206711 2 18410571769360017357
12032990 46 18338805631871620683
12716758 59 18341897346635662722
12897270 3 18412263930370891439
12932764 1 17989204832803880782
13380535 21 18125454011826317585
14325111 11 18410854313546051568
16945 1 18410293639888451803
17846911 113 18340194263243126633
193761 8 17906170655509523259
20645464 45 17988915691479209034
20871998 184 18201158879049247807
21028194 46 18341612568807989482
21040471 1 18338235938423444522
21501502 16 18194120711919905243
22802520 49 17773044055181614220
23402539 116 18269537455514130383
23402655 69 18195508330819236301
23552423 10 18116718404449120779
23559900 14 18129104412749785846
2748010 2 18194124010459992039
3248919 1 17821449045187499690
369184 2 18202556289492272370
5084963 1 18272941504858837018
53812653 166 18271799077997266337
53812653 8 18334022699986299701
6333449 129 18341887455331397705

>  <PUBCHEM_SHAPE_MULTIPOLES>  (1) 
220.51
4.62
1.7
0.83
1.04
0.27
-0.01
0.51
0.22
-1.02
0.02
0.65
0.09
0.13

>  <PUBCHEM_SHAPE_SELFOVERLAP>  (1) 
450.934

>  <PUBCHEM_SHAPE_VOLUME>  (1) 
129.8

>  <PUBCHEM_COORDINATE_TYPE>  (1) 
2
5
10

$$$$
