36664
     RDKit          3D

 12 12  0  0  0  0  0  0  0  0999 V2000
    4.3096   -0.3151   -1.1138 Cl  0  0  0  0  0  0  0  0  0  0  0  0
   -2.7697   -0.8855   -0.0718 O   0  0  0  0  0  0  0  0  0  0  0  0
   -2.7528    1.4131   -0.1948 O   0  0  0  0  0  0  0  0  0  0  0  0
    2.0542   -0.0374    0.3341 C   0  0  0  0  0  0  0  0  0  0  0  0
   -0.7114    0.2081    0.0618 C   0  0  0  0  0  0  0  0  0  0  0  0
    1.4747    1.2255    0.2104 C   0  0  0  0  0  0  0  0  0  0  0  0
    1.2507   -1.1776    0.3215 C   0  0  0  0  0  0  0  0  0  0  0  0
    0.0920    1.3482    0.0744 C   0  0  0  0  0  0  0  0  0  0  0  0
   -0.1321   -1.0548    0.1853 C   0  0  0  0  0  0  0  0  0  0  0  0
    3.5329   -0.1685    0.4788 C   0  0  0  0  0  0  0  0  0  0  0  0
   -2.1532    0.3359   -0.0799 C   0  0  0  0  0  0  0  0  0  0  0  0
   -4.1950   -0.8917   -0.2060 C   0  0  0  0  0  0  0  0  0  0  0  0
  1 10  1  0
  2 11  1  0
  2 12  1  0
  3 11  2  0
  4  6  2  0
  4  7  1  0
  4 10  1  0
  5  8  2  0
  5  9  1  0
  5 11  1  0
  6  8  1  0
  7  9  2  0
M  END
>  <PUBCHEM_COMPOUND_CID>  (1) 
36664

>  <PUBCHEM_CONFORMER_RMSD>  (1) 
0.6

>  <PUBCHEM_CONFORMER_DIVERSEORDER>  (1) 
1
4
2
3

>  <PUBCHEM_MMFF94_PARTIAL_CHARGES>  (1) 
16
1 -0.29
10 0.43
11 0.63
12 0.28
13 0.15
14 0.15
15 0.15
16 0.15
2 -0.43
3 -0.57
4 -0.14
5 0.09
6 -0.15
7 -0.15
8 -0.15
9 -0.15

>  <PUBCHEM_EFFECTIVE_ROTOR_COUNT>  (1) 
3

>  <PUBCHEM_PHARMACOPHORE_FEATURES>  (1) 
2
1 3 acceptor
6 4 5 6 7 8 9 rings

>  <PUBCHEM_HEAVY_ATOM_COUNT>  (1) 
12

>  <PUBCHEM_ATOM_DEF_STEREO_COUNT>  (1) 
0

>  <PUBCHEM_ATOM_UDEF_STEREO_COUNT>  (1) 
0

>  <PUBCHEM_BOND_DEF_STEREO_COUNT>  (1) 
0

>  <PUBCHEM_BOND_UDEF_STEREO_COUNT>  (1) 
0

>  <PUBCHEM_ISOTOPIC_ATOM_COUNT>  (1) 
0

>  <PUBCHEM_COMPONENT_COUNT>  (1) 
1

>  <PUBCHEM_CACTVS_TAUTO_COUNT>  (1) 
1

>  <PUBCHEM_CONFORMER_ID>  (1) 
00008F3800000001

>  <PUBCHEM_MMFF94_ENERGY>  (1) 
31.0081

>  <PUBCHEM_FEATURE_SELFOVERLAP>  (1) 
10.148

>  <PUBCHEM_SHAPE_FINGERPRINT>  (1) 
11062470 55 12829203373495004915
11543360 7 16008752449981369018
12032990 46 18343023293802950338
12932764 1 17417513770499925155
13690532 89 18409727357325316938
14325111 11 18410006637288870272
14911166 2 18335706065563768742
14993402 34 17749113309294264798
16945 1 18408317800250035866
18186145 218 18412824672911855472
19026448 4 17060334106992259328
19026448 5 16733260171116840560
193761 8 17688870160880562912
1986462 14 18341615888659414916
200 152 18131057260905390191
20201158 50 18335135401791263027
20645476 183 17749402489780323550
21293036 1 18335425677313867814
21501502 16 18116144468037544995
23402539 116 18343292669724913134
23402655 69 18266159653447896501
23552423 10 17899132715871393378
23559900 14 18342178844063013110
2748010 2 17975976780192929890
3312278 4 18340204090117984201
449060 50 17203036491720485384
4990 188 18272939293367502214
7364860 26 18127410270693461776
8809292 202 18114746057094097827

>  <PUBCHEM_SHAPE_MULTIPOLES>  (1) 
237.09
7.03
1.38
0.77
0.41
0.23
0.1
-1.6
1.66
0.45
-0.03
-0.59
-0.06
0.09

>  <PUBCHEM_SHAPE_SELFOVERLAP>  (1) 
479.946

>  <PUBCHEM_SHAPE_VOLUME>  (1) 
139.6

>  <PUBCHEM_COORDINATE_TYPE>  (1) 
2
5
10

$$$$
