36679
     RDKit          3D

 15 15  0  0  0  0  0  0  0  0999 V2000
   -2.3128    1.6482    0.0034 O   0  0  0  0  0  0  0  0  0  0  0  0
   -1.6544   -0.5833    0.0029 N   0  0  0  0  0  0  0  0  0  0  0  0
   -3.9377   -0.0006   -0.0031 N   0  0  0  0  0  0  0  0  0  0  0  0
    4.0023   -0.1100    0.0016 C   0  0  0  0  0  0  0  0  0  0  0  0
    2.5160   -0.2345    0.0019 C   0  0  0  0  0  0  0  0  0  0  0  0
    4.5332    0.6093    1.2559 C   0  0  0  0  0  0  0  0  0  0  0  0
    4.5345    0.5871   -1.2649 C   0  0  0  0  0  0  0  0  0  0  0  0
    1.9217   -1.4963    0.0125 C   0  0  0  0  0  0  0  0  0  0  0  0
    1.7204    0.9112   -0.0085 C   0  0  0  0  0  0  0  0  0  0  0  0
   -0.2423   -0.4650    0.0025 C   0  0  0  0  0  0  0  0  0  0  0  0
    0.5316   -1.6124    0.0128 C   0  0  0  0  0  0  0  0  0  0  0  0
    0.3303    0.7949   -0.0081 C   0  0  0  0  0  0  0  0  0  0  0  0
   -2.5966    0.4484   -0.0064 C   0  0  0  0  0  0  0  0  0  0  0  0
   -5.0643    0.9239    0.0120 C   0  0  0  0  0  0  0  0  0  0  0  0
   -4.2817   -1.4209   -0.0146 C   0  0  0  0  0  0  0  0  0  0  0  0
  1 13  2  0
  2 10  1  0
  2 13  1  0
  3 13  1  0
  3 14  1  0
  3 15  1  0
  4  5  1  0
  4  6  1  0
  4  7  1  0
  5  8  2  0
  5  9  1  0
  8 11  1  0
  9 12  2  0
 10 11  2  0
 10 12  1  0
M  END
>  <PUBCHEM_COMPOUND_CID>  (1) 
36679

>  <PUBCHEM_CONFORMER_RMSD>  (1) 
0.6

>  <PUBCHEM_CONFORMER_DIVERSEORDER>  (1) 
1
10
13
11
12
15
8
7
9
6
14
5
3
4
2

>  <PUBCHEM_MMFF94_PARTIAL_CHARGES>  (1) 
18
1 -0.57
10 0.12
11 -0.15
12 -0.15
13 0.69
14 0.3
15 0.3
2 -0.55
23 0.15
24 0.15
25 0.15
26 0.15
27 0.37
3 -0.66
4 0.14
5 -0.14
8 -0.15
9 -0.15

>  <PUBCHEM_EFFECTIVE_ROTOR_COUNT>  (1) 
4

>  <PUBCHEM_PHARMACOPHORE_FEATURES>  (1) 
4
1 1 acceptor
1 2 donor
3 4 6 7 hydrophobe
6 5 8 9 10 11 12 rings

>  <PUBCHEM_HEAVY_ATOM_COUNT>  (1) 
15

>  <PUBCHEM_ATOM_DEF_STEREO_COUNT>  (1) 
0

>  <PUBCHEM_ATOM_UDEF_STEREO_COUNT>  (1) 
0

>  <PUBCHEM_BOND_DEF_STEREO_COUNT>  (1) 
0

>  <PUBCHEM_BOND_UDEF_STEREO_COUNT>  (1) 
0

>  <PUBCHEM_ISOTOPIC_ATOM_COUNT>  (1) 
0

>  <PUBCHEM_COMPONENT_COUNT>  (1) 
1

>  <PUBCHEM_CACTVS_TAUTO_COUNT>  (1) 
2

>  <PUBCHEM_CONFORMER_ID>  (1) 
00008F4700000001

>  <PUBCHEM_MMFF94_ENERGY>  (1) 
44.5195

>  <PUBCHEM_FEATURE_SELFOVERLAP>  (1) 
20.297

>  <PUBCHEM_SHAPE_FINGERPRINT>  (1) 
10912923 1 17530683233729038681
10980938 120 18410293562753276226
11132069 177 18410008840475022819
11287383 113 16773794839811456526
11401426 45 18411695491665491585
11471102 20 18411135805539101174
11806522 49 18409448111251945119
12236239 1 17894347800602783236
13380535 76 18407479968116321938
14123238 8 18410574006631562373
14252887 29 17775576333481594670
14943859 89 17275383226550198527
15196674 1 18410575067647032355
15536298 74 18342739564005579494
17834072 33 18260269693399185149
18186145 218 17775852311264059384
18522853 276 18413106147814648217
200 152 18202278113656963495
20645477 56 17703219719826141192
20645477 70 18199186196407246063
21267235 1 18339088185106610287
22854114 59 18342736329757756920
23402539 116 18040990756951722535
23402655 69 18340202999554824757
23557571 272 18338807701676573317
23559900 14 18338515218851832194
265663 24 17530960293653552930
2916195 48 17917136308306326112
300161 21 18340198614540869397
3071541 37 18335989675282014078
3545911 37 18411984633353978429
4047638 21 17704352182595992970
4072396 5 18262785299074005042
4990 188 17917439709164773270
5104073 3 18339644443221352003
522135 26 13614521857632698300
542803 24 17676209065490979845
58051976 378 18341892974459156479
69090 78 17775280594939710062

>  <PUBCHEM_SHAPE_MULTIPOLES>  (1) 
292.86
10.34
1.48
0.82
4.35
0.29
0
-1.9
-0.01
0.64
0
-1.03
-0.12
-0.01

>  <PUBCHEM_SHAPE_SELFOVERLAP>  (1) 
592.194

>  <PUBCHEM_SHAPE_VOLUME>  (1) 
172.8

>  <PUBCHEM_COORDINATE_TYPE>  (1) 
2
5
10

$$$$
