36671
     RDKit          3D

  8  8  0  0  1  0  0  0  0  0999 V2000
    0.2096   -0.2413    0.4813 C   0  0  0  0  0  0  0  0  0  0  0  0
    0.7276    1.1226    0.0013 C   0  0  0  0  0  0  0  0  0  0  0  0
   -1.1329   -0.5999   -0.1381 C   0  0  0  0  0  0  0  0  0  0  0  0
    2.2450    0.9784   -0.1179 C   0  0  0  0  0  0  0  0  0  0  0  0
    1.3146   -1.1647    0.0697 C   0  0  0  0  0  0  0  0  0  0  0  0
   -2.2212    0.3877    0.2765 C   0  0  0  0  0  0  0  0  0  0  0  0
    2.4257   -0.4960   -0.2528 C   0  0  0  0  0  0  0  0  0  0  0  0
   -3.5684    0.0132   -0.3200 C   0  0  0  0  0  0  0  0  0  0  0  0
  1  2  1  0
  1  3  1  0
  1  5  1  0
  2  4  1  0
  3  6  1  0
  4  7  1  0
  5  7  2  0
  6  8  1  0
M  END
>  <PUBCHEM_COMPOUND_CID>  (1) 
36671

>  <PUBCHEM_CONFORMER_RMSD>  (1) 
0.4

>  <PUBCHEM_CONFORMER_DIVERSEORDER>  (1) 
1
4
5
3
2

>  <PUBCHEM_MMFF94_PARTIAL_CHARGES>  (1) 
6
1 0.14
16 0.15
19 0.15
4 0.14
5 -0.29
7 -0.29

>  <PUBCHEM_EFFECTIVE_ROTOR_COUNT>  (1) 
2.6

>  <PUBCHEM_PHARMACOPHORE_FEATURES>  (1) 
2
1 8 hydrophobe
5 1 2 4 5 7 rings

>  <PUBCHEM_HEAVY_ATOM_COUNT>  (1) 
8

>  <PUBCHEM_ATOM_DEF_STEREO_COUNT>  (1) 
0

>  <PUBCHEM_ATOM_UDEF_STEREO_COUNT>  (1) 
1

>  <PUBCHEM_BOND_DEF_STEREO_COUNT>  (1) 
0

>  <PUBCHEM_BOND_UDEF_STEREO_COUNT>  (1) 
0

>  <PUBCHEM_ISOTOPIC_ATOM_COUNT>  (1) 
0

>  <PUBCHEM_COMPONENT_COUNT>  (1) 
1

>  <PUBCHEM_CACTVS_TAUTO_COUNT>  (1) 
1

>  <PUBCHEM_CONFORMER_ID>  (1) 
00008F3F00000001

>  <PUBCHEM_MMFF94_ENERGY>  (1) 
5.3238

>  <PUBCHEM_FEATURE_SELFOVERLAP>  (1) 
10.148

>  <PUBCHEM_SHAPE_FINGERPRINT>  (1) 
10857977 72 16298393491356987753
11062470 55 13686295777259281403
12897270 3 18410575097822293933
12932741 1 17822019722013894435
12932764 1 17603299337262371387
14325111 11 18410856572988882635
14390081 3 18333730225962438157
21040471 1 18193560188775753112
23402655 69 18412537696393151893
23552333 60 18341894061064712002
23552423 10 18268999682659140831
29004967 10 18334020479693916594
3248919 1 18202282494186177211
5084963 1 18272650117292792633
5460574 1 8790884081834965267

>  <PUBCHEM_SHAPE_MULTIPOLES>  (1) 
164.64
4.64
1.16
0.68
3.7
0.06
-0.01
0.24
0.6
-0.59
0.01
0.04
-0.01
-0.05

>  <PUBCHEM_SHAPE_SELFOVERLAP>  (1) 
317.713

>  <PUBCHEM_SHAPE_VOLUME>  (1) 
100.9

>  <PUBCHEM_COORDINATE_TYPE>  (1) 
2
5
10

$$$$
