36678
     RDKit          3D

 18 19  0  0  1  0  0  0  0  0999 V2000
   -2.4053    0.0605    2.5542 Cl  0  0  0  0  0  0  0  0  0  0  0  0
    5.1660    1.4306   -0.2506 Cl  0  0  0  0  0  0  0  0  0  0  0  0
    0.2815   -3.1630    0.3791 O   0  0  0  0  0  0  0  0  0  0  0  0
   -1.3950   -2.5141   -1.0057 O   0  0  0  0  0  0  0  0  0  0  0  0
   -0.3445   -0.8440    0.4467 C   0  0  0  0  0  0  0  0  0  0  0  0
    1.0243   -0.2780    0.2731 C   0  0  0  0  0  0  0  0  0  0  0  0
   -1.4576    0.1131   -0.0018 C   0  0  0  0  0  0  0  0  0  0  0  0
    1.5454    0.5935    1.2295 C   0  0  0  0  0  0  0  0  0  0  0  0
    1.7840   -0.6209   -0.8454 C   0  0  0  0  0  0  0  0  0  0  0  0
   -2.4015    0.5466    0.8980 C   0  0  0  0  0  0  0  0  0  0  0  0
   -1.4523    0.4976   -1.3233 C   0  0  0  0  0  0  0  0  0  0  0  0
   -0.5508   -2.2359   -0.1658 C   0  0  0  0  0  0  0  0  0  0  0  0
    2.8259    1.1225    1.0673 C   0  0  0  0  0  0  0  0  0  0  0  0
    3.0646   -0.0921   -1.0075 C   0  0  0  0  0  0  0  0  0  0  0  0
   -3.3986    1.4146    0.4527 C   0  0  0  0  0  0  0  0  0  0  0  0
   -2.4492    1.3655   -1.7685 C   0  0  0  0  0  0  0  0  0  0  0  0
    3.5855    0.7797   -0.0513 C   0  0  0  0  0  0  0  0  0  0  0  0
   -3.4225    1.8239   -0.8806 C   0  0  0  0  0  0  0  0  0  0  0  0
  1 10  1  0
  2 17  1  0
  3 12  1  0
  4 12  2  0
  5  6  1  0
  5  7  1  0
  5 12  1  0
  6  8  2  0
  6  9  1  0
  7 10  2  0
  7 11  1  0
  8 13  1  0
  9 14  2  0
 10 15  1  0
 11 16  2  0
 13 17  2  0
 14 17  1  0
 15 18  2  0
 16 18  1  0
M  END
>  <PUBCHEM_COMPOUND_CID>  (1) 
36678

>  <PUBCHEM_CONFORMER_RMSD>  (1) 
0.6

>  <PUBCHEM_CONFORMER_DIVERSEORDER>  (1) 
1
10
7
8
15
4
12
5
13
9
2
3
6
14
11

>  <PUBCHEM_MMFF94_PARTIAL_CHARGES>  (1) 
27
1 -0.18
10 0.18
11 -0.15
12 0.66
13 -0.15
14 -0.15
15 -0.15
16 -0.15
17 0.18
18 -0.15
2 -0.18
20 0.15
21 0.15
22 0.15
23 0.15
24 0.15
25 0.15
26 0.15
27 0.15
28 0.5
3 -0.65
4 -0.57
5 0.35
6 -0.14
7 -0.14
8 -0.15
9 -0.15

>  <PUBCHEM_EFFECTIVE_ROTOR_COUNT>  (1) 
3

>  <PUBCHEM_PHARMACOPHORE_FEATURES>  (1) 
5
1 3 acceptor
1 4 acceptor
3 3 4 12 anion
6 6 8 9 13 14 17 rings
6 7 10 11 15 16 18 rings

>  <PUBCHEM_HEAVY_ATOM_COUNT>  (1) 
18

>  <PUBCHEM_ATOM_DEF_STEREO_COUNT>  (1) 
0

>  <PUBCHEM_ATOM_UDEF_STEREO_COUNT>  (1) 
1

>  <PUBCHEM_BOND_DEF_STEREO_COUNT>  (1) 
0

>  <PUBCHEM_BOND_UDEF_STEREO_COUNT>  (1) 
0

>  <PUBCHEM_ISOTOPIC_ATOM_COUNT>  (1) 
0

>  <PUBCHEM_COMPONENT_COUNT>  (1) 
1

>  <PUBCHEM_CACTVS_TAUTO_COUNT>  (1) 
1

>  <PUBCHEM_CONFORMER_ID>  (1) 
00008F4600000001

>  <PUBCHEM_MMFF94_ENERGY>  (1) 
50.4751

>  <PUBCHEM_FEATURE_SELFOVERLAP>  (1) 
25.43

>  <PUBCHEM_SHAPE_FINGERPRINT>  (1) 
10165383 225 18194151588133717600
12138202 97 18271520987628760622
12173636 292 18202013113594817913
12251169 10 15213021531137047952
12403814 3 18042979850389741697
12500047 106 18411414055728550030
12730499 353 18266463110035462121
13134695 92 17324343130837067927
13294875 104 18127107733228384170
13583140 156 17894347808945181880
13675066 3 17676206875527261224
13681431 1 17474665053440731047
13693222 15 11602820216003221576
13764800 53 18041003903694082961
15309172 13 18408609136614245233
15775835 57 18335696122324042788
17357779 13 17769073972397953503
18186145 218 18272379624568582852
18219364 16 18411707590309127737
19765921 60 17916280810950303249
200 152 11384114146172130356
20600515 1 17181622587314149330
20645477 56 18337117864506392404
20671657 53 13686291392176910704
21524375 3 18335130960589285475
21756936 100 17417830429875086128
22079108 93 18059864973775665353
22907989 373 18055065733910766028
23419403 2 17481478916119188095
23557571 272 18198068173781368188
23559900 14 16734965419246993955
25 1 18059579053143857908
27216 239 18113338634691564713
3082319 5 16128650834268017444
3729539 64 17977690623080534238
59755656 520 17988376909153891955
633830 44 17915756287689750241
6442390 28 18410303514335088307
7097593 13 15574706959384040384
81228 2 18049723215406663883
90316 7 15647057023546592717

>  <PUBCHEM_SHAPE_MULTIPOLES>  (1) 
362.43
7.05
2.31
1.71
6.61
2
-0.58
-5.38
0.19
-0.78
0.53
-1.31
-0.27
0.62

>  <PUBCHEM_SHAPE_SELFOVERLAP>  (1) 
764.985

>  <PUBCHEM_SHAPE_VOLUME>  (1) 
204.6

>  <PUBCHEM_COORDINATE_TYPE>  (1) 
2
5
10

$$$$
