36702
     RDKit          3D

  8  7  0  0  0  0  0  0  0  0999 V2000
    2.6049    1.3941   -0.1760 Cl  0  0  0  0  0  0  0  0  0  0  0  0
    1.3249   -1.2220   -1.4189 Cl  0  0  0  0  0  0  0  0  0  0  0  0
   -3.0600    0.8595   -0.1900 Cl  0  0  0  0  0  0  0  0  0  0  0  0
    1.2026    0.0137    0.1397 P   0  0  0  0  0  0  0  0  0  0  0  0
    1.3487   -0.6795    1.4486 O   0  0  0  0  0  0  0  0  0  0  0  0
   -1.4772   -1.2257    0.2332 O   0  0  0  0  0  0  0  0  0  0  0  0
   -0.3686    0.8798   -0.0644 C   0  0  0  0  0  0  0  0  0  0  0  0
   -1.5753   -0.0198    0.0278 C   0  0  0  0  0  0  0  0  0  0  0  0
  1  4  1  0
  2  4  1  0
  3  8  1  0
  4  5  2  0
  4  7  1  0
  6  8  2  0
  7  8  1  0
M  END
>  <PUBCHEM_COMPOUND_CID>  (1) 
36702

>  <PUBCHEM_CONFORMER_RMSD>  (1) 
0.4

>  <PUBCHEM_CONFORMER_DIVERSEORDER>  (1) 
1
6
8
11
12
14
9
10
13
15
5
2
7
3
4

>  <PUBCHEM_MMFF94_PARTIAL_CHARGES>  (1) 
8
1 -0.32
2 -0.32
3 -0.21
4 1.33
5 -0.7
6 -0.57
7 0.06
8 0.72

>  <PUBCHEM_EFFECTIVE_ROTOR_COUNT>  (1) 
2

>  <PUBCHEM_PHARMACOPHORE_FEATURES>  (1) 
1
1 5 acceptor

>  <PUBCHEM_HEAVY_ATOM_COUNT>  (1) 
8

>  <PUBCHEM_ATOM_DEF_STEREO_COUNT>  (1) 
0

>  <PUBCHEM_ATOM_UDEF_STEREO_COUNT>  (1) 
0

>  <PUBCHEM_BOND_DEF_STEREO_COUNT>  (1) 
0

>  <PUBCHEM_BOND_UDEF_STEREO_COUNT>  (1) 
0

>  <PUBCHEM_ISOTOPIC_ATOM_COUNT>  (1) 
0

>  <PUBCHEM_COMPONENT_COUNT>  (1) 
1

>  <PUBCHEM_CACTVS_TAUTO_COUNT>  (1) 
1

>  <PUBCHEM_CONFORMER_ID>  (1) 
00008F5E00000001

>  <PUBCHEM_MMFF94_ENERGY>  (1) 
8.2066

>  <PUBCHEM_FEATURE_SELFOVERLAP>  (1) 
5.074

>  <PUBCHEM_SHAPE_FINGERPRINT>  (1) 
12897270 3 18202013152365594284
12932764 1 17822579304865981805
14390081 3 18408602595310741437
18342897 55 17845641668179442684
21040471 1 18335700494969943795
23235685 24 18273492381643592389
23552423 10 18129386990598986023
24536 1 18201154364837743601
29004967 10 17988655107059850152
3248919 1 18201994392169835313
5084963 1 17772753771269268249

>  <PUBCHEM_SHAPE_MULTIPOLES>  (1) 
162.36
4.01
1.48
1.09
1.95
0.15
0.17
-1.4
-0.52
-0.62
-0.35
-0.51
0.33
0.26

>  <PUBCHEM_SHAPE_SELFOVERLAP>  (1) 
262.919

>  <PUBCHEM_SHAPE_VOLUME>  (1) 
115

>  <PUBCHEM_COORDINATE_TYPE>  (1) 
2
5
10

$$$$
