36715
     RDKit          3D

 22 23  0  0  1  0  0  0  0  0999 V2000
   -2.1781   -2.8503   -1.3916 O   0  0  0  0  0  0  0  0  0  0  0  0
   -1.7989   -3.2453    0.7425 O   0  0  0  0  0  0  0  0  0  0  0  0
    4.9866    1.6141    0.1234 O   0  0  0  0  0  0  0  0  0  0  0  0
   -4.2148    2.5902    0.0995 O   0  0  0  0  0  0  0  0  0  0  0  0
   -1.4715   -2.8331   -0.3768 N   0  0  0  0  0  0  0  0  0  0  0  0
    0.0463   -1.0900    0.4593 C   0  0  0  0  0  0  0  0  0  0  0  0
   -0.0950   -2.2877   -0.5175 C   0  0  0  0  0  0  0  0  0  0  0  0
    1.3859   -0.3571    0.3682 C   0  0  0  0  0  0  0  0  0  0  0  0
   -1.1069   -0.0937    0.3619 C   0  0  0  0  0  0  0  0  0  0  0  0
    0.8440   -3.4510   -0.2107 C   0  0  0  0  0  0  0  0  0  0  0  0
    1.9268    0.1721    1.5172 C   0  0  0  0  0  0  0  0  0  0  0  0
   -1.9336    0.0697    1.4510 C   0  0  0  0  0  0  0  0  0  0  0  0
    1.9987   -0.2548   -0.8597 C   0  0  0  0  0  0  0  0  0  0  0  0
   -1.2791    0.6059   -0.8119 C   0  0  0  0  0  0  0  0  0  0  0  0
    3.1482    0.8407    1.4341 C   0  0  0  0  0  0  0  0  0  0  0  0
   -2.9870    0.9795    1.3619 C   0  0  0  0  0  0  0  0  0  0  0  0
    3.2201    0.4137   -0.9429 C   0  0  0  0  0  0  0  0  0  0  0  0
   -2.3325    1.5159   -0.9011 C   0  0  0  0  0  0  0  0  0  0  0  0
    3.7950    0.9614    0.2040 C   0  0  0  0  0  0  0  0  0  0  0  0
   -3.1866    1.7028    0.1859 C   0  0  0  0  0  0  0  0  0  0  0  0
    5.5935    1.7010   -1.1649 C   0  0  0  0  0  0  0  0  0  0  0  0
   -4.3614    3.2963   -1.1317 C   0  0  0  0  0  0  0  0  0  0  0  0
  1  5  1  0
  2  5  2  0
  3 19  1  0
  3 21  1  0
  4 20  1  0
  4 22  1  0
  5  7  1  0
  6  7  1  0
  6  8  1  0
  6  9  1  0
  7 10  1  0
  8 11  2  0
  8 13  1  0
  9 12  2  0
  9 14  1  0
 11 15  1  0
 12 16  1  0
 13 17  2  0
 14 18  2  0
 15 19  2  0
 16 20  2  0
 17 19  1  0
 18 20  1  0
M  CHG  2   1  -1   5   1
M  END
>  <PUBCHEM_COMPOUND_CID>  (1) 
36715

>  <PUBCHEM_CONFORMER_RMSD>  (1) 
0.8

>  <PUBCHEM_CONFORMER_DIVERSEORDER>  (1) 
1
6
4
3
5
2

>  <PUBCHEM_MMFF94_PARTIAL_CHARGES>  (1) 
29
1 -0.52
11 -0.15
12 -0.15
13 -0.15
14 -0.15
15 -0.15
16 -0.15
17 -0.15
18 -0.15
19 0.08
2 -0.52
20 0.08
21 0.28
22 0.28
28 0.15
29 0.15
3 -0.36
30 0.15
31 0.15
32 0.15
33 0.15
34 0.15
35 0.15
4 -0.36
5 0.8
6 0.29
7 0.24
8 -0.14
9 -0.14

>  <PUBCHEM_EFFECTIVE_ROTOR_COUNT>  (1) 
6

>  <PUBCHEM_PHARMACOPHORE_FEATURES>  (1) 
7
1 1 acceptor
1 1 anion
1 2 acceptor
1 3 acceptor
1 4 acceptor
6 8 11 13 15 17 19 rings
6 9 12 14 16 18 20 rings

>  <PUBCHEM_HEAVY_ATOM_COUNT>  (1) 
22

>  <PUBCHEM_ATOM_DEF_STEREO_COUNT>  (1) 
0

>  <PUBCHEM_ATOM_UDEF_STEREO_COUNT>  (1) 
1

>  <PUBCHEM_BOND_DEF_STEREO_COUNT>  (1) 
0

>  <PUBCHEM_BOND_UDEF_STEREO_COUNT>  (1) 
0

>  <PUBCHEM_ISOTOPIC_ATOM_COUNT>  (1) 
0

>  <PUBCHEM_COMPONENT_COUNT>  (1) 
1

>  <PUBCHEM_CACTVS_TAUTO_COUNT>  (1) 
2

>  <PUBCHEM_CONFORMER_ID>  (1) 
00008F6B00000001

>  <PUBCHEM_MMFF94_ENERGY>  (1) 
82.5122

>  <PUBCHEM_FEATURE_SELFOVERLAP>  (1) 
35.602

>  <PUBCHEM_SHAPE_FINGERPRINT>  (1) 
10165383 225 18270983287461148633
10498660 4 18341611486292290280
105312 117 18411421709054680484
12173636 292 18340198699928519132
12730499 353 18267873770532125817
12788726 201 18192417778825292435
13134695 92 17326046257353304983
13583140 156 16950558917356644253
13681431 1 17261878745771012943
14142880 1 18260823847396714997
14341114 328 16081667628998652092
15163728 17 18267314131492444473
15342168 16 18336541599885679093
16752209 62 18197481025655419810
17134986 127 18339080372001637438
17357779 13 17628060502059969887
17980427 23 17603595123255073605
18785283 64 18047753698065511691
20600515 1 17326575577506739042
20645477 56 18270413792378254152
21756936 100 17386584582184978132
2255824 54 17838612254515313183
22907989 373 18056194910793200812
23419403 2 17126256421794760215
23557571 272 18200042879432152604
23558518 356 18260548965485713914
23559900 14 17757271475356354889
238 59 18054510197371421503
25 1 17774732973924852744
266924 87 18341322400744437663
283562 15 18195521717114316074
3057174 1 18200871756095480999
3729539 64 17836114207331997294
469060 322 18191879022892122219
474 4 18194114114987516113
495365 180 18050838928051734089
59755656 520 17988660578816634395
6049 1 17416124121384233456
6327066 14 18334010575389348580
633830 44 17630343934434319217
7808743 9 18335703875241847596
7970288 3 9295276249159058828
81228 2 18124877021319299051
84936 182 17912922790517153601

>  <PUBCHEM_SHAPE_MULTIPOLES>  (1) 
424.29
8.57
3.82
1.41
5.63
3.05
-0.22
-10.48
1.55
-3.11
1.24
0.01
-0.22
0.17

>  <PUBCHEM_SHAPE_SELFOVERLAP>  (1) 
901.296

>  <PUBCHEM_SHAPE_VOLUME>  (1) 
237.8

>  <PUBCHEM_COORDINATE_TYPE>  (1) 
2
5
10

$$$$
