36712
     RDKit          3D

 21 22  0  0  1  0  0  0  0  0999 V2000
   -1.0723   -2.4352   -1.8602 Cl  0  0  0  0  0  0  0  0  0  0  0  0
   -2.4979   -3.1503    0.5465 Cl  0  0  0  0  0  0  0  0  0  0  0  0
    0.3615   -3.5407    0.4261 Cl  0  0  0  0  0  0  0  0  0  0  0  0
    4.3454    1.3449    0.0973 O   0  0  0  0  0  0  0  0  0  0  0  0
   -0.7803   -0.9680    0.5558 C   0  0  0  0  0  0  0  0  0  0  0  0
   -1.8777   -0.0003    0.2670 C   0  0  0  0  0  0  0  0  0  0  0  0
    0.6275   -0.3326    0.4299 C   0  0  0  0  0  0  0  0  0  0  0  0
   -0.9582   -2.4144   -0.0708 C   0  0  0  0  0  0  0  0  0  0  0  0
   -2.7092    0.4392    1.2970 C   0  0  0  0  0  0  0  0  0  0  0  0
   -2.0727    0.4652   -1.0334 C   0  0  0  0  0  0  0  0  0  0  0  0
    1.1235    0.3412    1.5105 C   0  0  0  0  0  0  0  0  0  0  0  0
    1.2924   -0.4824   -0.7544 C   0  0  0  0  0  0  0  0  0  0  0  0
   -3.9304    1.8100   -0.2734 C   0  0  0  0  0  0  0  0  0  0  0  0
   -3.7356    1.3443    1.0268 C   0  0  0  0  0  0  0  0  0  0  0  0
   -3.0990    1.3704   -1.3036 C   0  0  0  0  0  0  0  0  0  0  0  0
    2.3906    0.9133    1.3969 C   0  0  0  0  0  0  0  0  0  0  0  0
    2.5595    0.0896   -0.8679 C   0  0  0  0  0  0  0  0  0  0  0  0
    3.1086    0.7875    0.2078 C   0  0  0  0  0  0  0  0  0  0  0  0
   -5.0279    2.7775   -0.5624 C   0  0  0  0  0  0  0  0  0  0  0  0
    5.2737    0.6985   -0.7723 C   0  0  0  0  0  0  0  0  0  0  0  0
    6.6782    0.9422   -0.2630 C   0  0  0  0  0  0  0  0  0  0  0  0
  1  8  1  0
  2  8  1  0
  3  8  1  0
  4 18  1  0
  4 20  1  0
  5  6  1  0
  5  7  1  0
  5  8  1  0
  6  9  2  0
  6 10  1  0
  7 11  2  0
  7 12  1  0
  9 14  1  0
 10 15  2  0
 11 16  1  0
 12 17  2  0
 13 14  2  0
 13 15  1  0
 13 19  1  0
 16 18  2  0
 17 18  1  0
 20 21  1  0
M  END
>  <PUBCHEM_COMPOUND_CID>  (1) 
36712

>  <PUBCHEM_CONFORMER_RMSD>  (1) 
0.8

>  <PUBCHEM_CONFORMER_DIVERSEORDER>  (1) 
1
8
9
4
3
6
5
7
2

>  <PUBCHEM_MMFF94_PARTIAL_CHARGES>  (1) 
28
1 -0.29
10 -0.15
11 -0.15
12 -0.15
13 -0.14
14 -0.15
15 -0.15
16 -0.15
17 -0.15
18 0.08
19 0.14
2 -0.29
20 0.28
23 0.15
24 0.15
25 0.15
26 0.15
27 0.15
28 0.15
29 0.15
3 -0.29
30 0.15
4 -0.36
5 0.29
6 -0.14
7 -0.14
8 0.87
9 -0.15

>  <PUBCHEM_EFFECTIVE_ROTOR_COUNT>  (1) 
5

>  <PUBCHEM_PHARMACOPHORE_FEATURES>  (1) 
3
1 4 acceptor
6 6 9 10 13 14 15 rings
6 7 11 12 16 17 18 rings

>  <PUBCHEM_HEAVY_ATOM_COUNT>  (1) 
21

>  <PUBCHEM_ATOM_DEF_STEREO_COUNT>  (1) 
0

>  <PUBCHEM_ATOM_UDEF_STEREO_COUNT>  (1) 
1

>  <PUBCHEM_BOND_DEF_STEREO_COUNT>  (1) 
0

>  <PUBCHEM_BOND_UDEF_STEREO_COUNT>  (1) 
0

>  <PUBCHEM_ISOTOPIC_ATOM_COUNT>  (1) 
0

>  <PUBCHEM_COMPONENT_COUNT>  (1) 
1

>  <PUBCHEM_CACTVS_TAUTO_COUNT>  (1) 
1

>  <PUBCHEM_CONFORMER_ID>  (1) 
00008F6800000001

>  <PUBCHEM_MMFF94_ENERGY>  (1) 
72.3811

>  <PUBCHEM_FEATURE_SELFOVERLAP>  (1) 
15.223

>  <PUBCHEM_SHAPE_FINGERPRINT>  (1) 
10165383 225 18339934744408615969
105312 117 18410014320948400908
107951 10 18409736170482683678
11823591 26 18337662027919628093
12293681 160 17917428670661499304
12363563 72 9799400148797732513
12500047 106 18412545448761537578
12633257 1 14851617578162438573
12730499 353 18266747879362780865
12788726 201 18192135204585088291
12892183 10 14924500819770889629
13134695 92 17471280765551607599
13681431 1 17405989553207112775
14251751 93 18338238266570421930
14341114 328 15864652599228725533
14713325 29 18262524813212657922
167882 2 18265895744270422850
17093844 174 18200871881609387424
17980427 23 17022630767118573869
200 152 13254799040467029780
20645477 56 18410581712008762760
20671657 53 10879696707155946643
20871999 31 18340203110997088534
21033648 29 18410568500753326720
21279426 13 18272102565472783270
21524375 3 18270673174038062115
21756936 100 17385725833264568488
2255824 54 17836921210217028163
22907989 373 18055349395088990813
23402539 116 18342455950441227484
23419403 2 14325887184758513683
23493267 7 18341895233849415594
23557571 272 18341338902213730780
23559900 14 18202573861221656934
25 1 17988648449823644169
283562 15 18192705863836104699
350125 39 18410858788944737475
3729539 64 17977968795127154374
3759504 43 18408887351505108426
4015057 19 16630242606374490640
495365 180 17975403630356896641
53917941 68 18343011225081888238
559249 180 18413108373351648806
59755656 520 18059585680452579667
6327066 14 18260544494282191365
633830 44 17772485503623064993
70251023 43 17626091315342089758
7226269 152 18202845444635575168
77188 2 17326903275249024051
7808743 9 18333449850197188236
7970288 3 9727340342731179069
81228 2 18052248798279806963

>  <PUBCHEM_SHAPE_MULTIPOLES>  (1) 
431.91
10.16
3.35
1.43
13.38
3.32
0.09
-10.18
1.67
-3.58
0.22
-0.41
0.09
0.42

>  <PUBCHEM_SHAPE_SELFOVERLAP>  (1) 
880.774

>  <PUBCHEM_SHAPE_VOLUME>  (1) 
250.1

>  <PUBCHEM_COORDINATE_TYPE>  (1) 
2
5
10

$$$$
