36714
     RDKit          3D

 21 22  0  0  1  0  0  0  0  0999 V2000
   -0.4973   -2.6047   -1.9203 Cl  0  0  0  0  0  0  0  0  0  0  0  0
   -1.6069   -3.5387    0.5761 Cl  0  0  0  0  0  0  0  0  0  0  0  0
    1.2439   -3.7075    0.1427 Cl  0  0  0  0  0  0  0  0  0  0  0  0
    5.1855    1.6750   -0.3836 S   0  0  0  0  0  0  0  0  0  0  0  0
   -4.5423    2.1511    0.0714 O   0  0  0  0  0  0  0  0  0  0  0  0
   -0.0540   -1.2367    0.5305 C   0  0  0  0  0  0  0  0  0  0  0  0
    1.2850   -0.4924    0.2969 C   0  0  0  0  0  0  0  0  0  0  0  0
   -1.2404   -0.3414    0.4093 C   0  0  0  0  0  0  0  0  0  0  0  0
   -0.1961   -2.6608   -0.1537 C   0  0  0  0  0  0  0  0  0  0  0  0
    1.8447    0.1641    1.3568 C   0  0  0  0  0  0  0  0  0  0  0  0
    1.8300   -0.5352   -0.9556 C   0  0  0  0  0  0  0  0  0  0  0  0
   -1.9867   -0.0151    1.5416 C   0  0  0  0  0  0  0  0  0  0  0  0
   -1.6038    0.1698   -0.8366 C   0  0  0  0  0  0  0  0  0  0  0  0
    3.0499    0.8340    1.1466 C   0  0  0  0  0  0  0  0  0  0  0  0
    3.0354    0.1346   -1.1659 C   0  0  0  0  0  0  0  0  0  0  0  0
   -3.0964    0.8223    1.4280 C   0  0  0  0  0  0  0  0  0  0  0  0
   -2.7136    1.0072   -0.9502 C   0  0  0  0  0  0  0  0  0  0  0  0
    3.6452    0.8192   -0.1147 C   0  0  0  0  0  0  0  0  0  0  0  0
   -3.4599    1.3334    0.1821 C   0  0  0  0  0  0  0  0  0  0  0  0
    4.7353    3.3838    0.0309 C   0  0  0  0  0  0  0  0  0  0  0  0
   -4.8576    2.6380   -1.2322 C   0  0  0  0  0  0  0  0  0  0  0  0
  1  9  1  0
  2  9  1  0
  3  9  1  0
  4 18  1  0
  4 20  1  0
  5 19  1  0
  5 21  1  0
  6  7  1  0
  6  8  1  0
  6  9  1  0
  7 10  2  0
  7 11  1  0
  8 12  2  0
  8 13  1  0
 10 14  1  0
 11 15  2  0
 12 16  1  0
 13 17  2  0
 14 18  2  0
 15 18  1  0
 16 19  2  0
 17 19  1  0
M  END
>  <PUBCHEM_COMPOUND_CID>  (1) 
36714

>  <PUBCHEM_CONFORMER_RMSD>  (1) 
0.8

>  <PUBCHEM_CONFORMER_DIVERSEORDER>  (1) 
2
4
3
6
5
1
7

>  <PUBCHEM_MMFF94_PARTIAL_CHARGES>  (1) 
29
1 -0.29
10 -0.15
11 -0.15
12 -0.15
13 -0.15
14 -0.15
15 -0.15
16 -0.15
17 -0.15
18 0.1
19 0.08
2 -0.29
20 0.23
21 0.28
23 0.15
24 0.15
25 0.15
26 0.15
27 0.15
28 0.15
29 0.15
3 -0.29
30 0.15
4 -0.33
5 -0.36
6 0.29
7 -0.14
8 -0.14
9 0.87

>  <PUBCHEM_EFFECTIVE_ROTOR_COUNT>  (1) 
5

>  <PUBCHEM_PHARMACOPHORE_FEATURES>  (1) 
4
1 20 hydrophobe
1 5 acceptor
6 7 10 11 14 15 18 rings
6 8 12 13 16 17 19 rings

>  <PUBCHEM_HEAVY_ATOM_COUNT>  (1) 
21

>  <PUBCHEM_ATOM_DEF_STEREO_COUNT>  (1) 
0

>  <PUBCHEM_ATOM_UDEF_STEREO_COUNT>  (1) 
1

>  <PUBCHEM_BOND_DEF_STEREO_COUNT>  (1) 
0

>  <PUBCHEM_BOND_UDEF_STEREO_COUNT>  (1) 
0

>  <PUBCHEM_ISOTOPIC_ATOM_COUNT>  (1) 
0

>  <PUBCHEM_COMPONENT_COUNT>  (1) 
1

>  <PUBCHEM_CACTVS_TAUTO_COUNT>  (1) 
1

>  <PUBCHEM_CONFORMER_ID>  (1) 
00008F6A00000002

>  <PUBCHEM_MMFF94_ENERGY>  (1) 
77.689

>  <PUBCHEM_FEATURE_SELFOVERLAP>  (1) 
20.297

>  <PUBCHEM_SHAPE_FINGERPRINT>  (1) 
10165383 225 18050325584516647570
10498660 4 18411983546311157753
12107183 9 18262504932874142304
12173636 292 18264772245424034462
12363563 72 9511458926860674456
12633257 1 14996288045501457348
12730499 353 18266469719926554569
12788726 201 18051677034673874303
13103583 49 11602820147199765069
13134695 92 17760362193388258862
13583140 156 16950838214732065025
13681431 1 17478336335608605063
13955234 65 18119253852946435195
13965767 371 17967524654201385340
14123255 52 18409450280136686924
14142880 1 18189046663130958255
14251764 30 11599432672450260901
14341114 328 15864365652548101620
14957384 54 18261105309805560888
15342168 16 18336261258774910365
17134986 127 18411419479802915366
17834072 32 18409730698768142824
17980427 23 17167871880739122863
18186145 218 18130519547546829754
18222031 100 11746947472641702785
18785283 64 18191586354539586978
20600515 1 17110403916384843706
20645477 56 18268446791961926672
20671657 53 9871455530885077695
21524375 3 18271804588266356827
21756936 100 16879937346419845316
2255824 54 17981603758935242167
22907989 373 17842556528856622516
23227448 37 18266745877175122540
23419403 2 17339335182319646591
23557571 272 17911536586170856676
23559900 14 17901104119040447979
238 59 18128540358124488927
25 1 17917442985982252706
27216 239 18115593775899992953
283562 15 18121776398539883858
314194 84 9006474122559765729
474 4 18341328903303285193
495365 180 18118681007514749675
53917941 68 18272078457304021876
59755656 520 18059309719797314451
6327066 14 18334572460227719212
633830 44 17773337654882812521
6442390 28 18339095851359645723
7471813 234 17481692071108571603
7808743 9 18335701710514981416
7970288 3 9511455636837488005
81228 2 17981606283869688275
84936 182 18126845989062360481

>  <PUBCHEM_SHAPE_MULTIPOLES>  (1) 
435.76
8.87
4.16
1.48
4.15
2.66
0.11
-12.24
1.02
-1.21
0.64
-0.56
0.14
0.69

>  <PUBCHEM_SHAPE_SELFOVERLAP>  (1) 
875.866

>  <PUBCHEM_SHAPE_VOLUME>  (1) 
259.7

>  <PUBCHEM_COORDINATE_TYPE>  (1) 
2
5
10

$$$$
