36723
     RDKit          3D

 14 13  0  0  1  0  0  0  0  0999 V2000
   -2.7424    2.1245    1.3074 Cl  0  0  0  0  0  0  0  0  0  0  0  0
   -0.0705    0.6970    0.0616 C   0  0  0  0  0  0  0  0  0  0  0  0
   -1.1465    1.3826   -0.7890 C   0  0  0  0  0  0  0  0  0  0  0  0
    1.3076    0.8149   -0.5958 C   0  0  0  0  0  0  0  0  0  0  0  0
   -2.5845    1.2630   -0.2565 C   0  0  0  0  0  0  0  0  0  0  0  0
    2.3789    0.0935    0.2240 C   0  0  0  0  0  0  0  0  0  0  0  0
   -3.0592   -0.1922   -0.1289 C   0  0  0  0  0  0  0  0  0  0  0  0
    3.7499    0.1832   -0.4504 C   0  0  0  0  0  0  0  0  0  0  0  0
   -4.5867   -0.3257   -0.0871 C   0  0  0  0  0  0  0  0  0  0  0  0
    4.8132   -0.5671    0.3550 C   0  0  0  0  0  0  0  0  0  0  0  0
   -5.0098   -1.7882    0.0586 C   0  0  0  0  0  0  0  0  0  0  0  0
    6.1993   -0.5345   -0.2923 C   0  0  0  0  0  0  0  0  0  0  0  0
   -6.5234   -1.9332    0.0548 C   0  0  0  0  0  0  0  0  0  0  0  0
    7.2742   -1.2178    0.5386 C   0  0  0  0  0  0  0  0  0  0  0  0
  1  5  1  0
  2  3  1  0
  2  4  1  0
  3  5  1  0
  4  6  1  0
  5  7  1  0
  6  8  1  0
  7  9  1  0
  8 10  1  0
  9 11  1  0
 10 12  1  0
 11 13  1  0
 12 14  1  0
M  END
>  <PUBCHEM_COMPOUND_CID>  (1) 
36723

>  <PUBCHEM_CONFORMER_RMSD>  (1) 
1

>  <PUBCHEM_CONFORMER_DIVERSEORDER>  (1) 
1
309
37
293
78
24
76
113
379
92
199
36
74
252
15
32
70
215
362
45
366
298
358
334
47
125
240
141
205
186
178
323
65
104
93
96
143
168
310
22
116
84
324
4
320
29
211
359
375
170
164
277
44
376
268
306
10
173
204
140
21
106
280
103
302
136
179
13
167
59
221
292
139
378
357
194
258
135
335
101
200
237
3
30
94
209
350
172
48
144
157
249
356
331
95
278
20
355
50
75
159
339
49
377
175
284
326
254
110
236
269
296
63
108
147
190
255
100
297
151
210
150
34
6
61
138
69
77
341
27
56
33
380
274
14
71
171
137
60
235
154
343
259
222
19
64
28
182
267
149
17
214
41
176
152
294
265
40
2
184
35
9
52
360
26
42
231
67
121
251
115
239
327
208
39
197
243
23
99
261
5
271
51
373
122
281
226
337
368
224
124
7
305
181
220
46
8
111
329
342
109
275
146
333
80
102
381
73
165
98
174
241
361
12
158
105
328
57
301
86
187
229
107
160
128
370
345
347
363
313
31
219
85
16
91
300
257
264
338
180
89
315
66
351
207
212
247
62
119
38
256
163
340
68
127
238
97
303
308
79
161
82
325
53
233
317
25
290
372
162
131
132
123
295
43
270
145
126
330
134
218
282
201
344
312
374
11
246
183
18
346
383
189
352
133
213
58
148
196
203
365
260
250
349
285
369
87
130
263
316
118
348
287
286
321
288
262
195
225
156
88
242
114
245
177
55
276
311
142
248
279
155
304
299
72
185
191
227
367
54
166
318
81
322
90
112
283
332
244
291
253
230
272
382
314
129
364
234
266
371
188
202
354
153
120
319
193
217
206
117
223
83
232
336
307
192
353
273
169
228
216
289
198

>  <PUBCHEM_MMFF94_PARTIAL_CHARGES>  (1) 
2
1 -0.29
5 0.29

>  <PUBCHEM_EFFECTIVE_ROTOR_COUNT>  (1) 
10

>  <PUBCHEM_PHARMACOPHORE_FEATURES>  (1) 
2
1 13 hydrophobe
1 14 hydrophobe

>  <PUBCHEM_HEAVY_ATOM_COUNT>  (1) 
14

>  <PUBCHEM_ATOM_DEF_STEREO_COUNT>  (1) 
0

>  <PUBCHEM_ATOM_UDEF_STEREO_COUNT>  (1) 
1

>  <PUBCHEM_BOND_DEF_STEREO_COUNT>  (1) 
0

>  <PUBCHEM_BOND_UDEF_STEREO_COUNT>  (1) 
0

>  <PUBCHEM_ISOTOPIC_ATOM_COUNT>  (1) 
0

>  <PUBCHEM_COMPONENT_COUNT>  (1) 
1

>  <PUBCHEM_CACTVS_TAUTO_COUNT>  (1) 
1

>  <PUBCHEM_CONFORMER_ID>  (1) 
00008F7300000001

>  <PUBCHEM_MMFF94_ENERGY>  (1) 
-0.4042

>  <PUBCHEM_FEATURE_SELFOVERLAP>  (1) 
10.149

>  <PUBCHEM_SHAPE_FINGERPRINT>  (1) 
100836 57 10447933879669441519
10912923 1 18334021562548323640
11315181 36 18410576171385218112
12091667 2 17168148884676347068
12596602 18 18343862191658870744
12916754 54 18335139808201284141
13288520 33 18335138678719337077
13862211 1 17967812718121872050
13964095 4 17676479541710443751
1420 363 18273496771569492038
14251732 16 18412261770667187640
14251752 14 17531235146402538565
15048467 5 10303815384574438094
15188451 53 18411415120136634382
15242439 84 13767931225872016084
15501527 16 9871752403398626943
15716309 27 18273493477229388174
17834072 8 13118002201643154942
18006028 8 18130786785461419133
18222031 100 17095520700022561484
19433438 28 17847054472418467064
19784866 240 18113903788326731877
20281389 69 11600012041688776314
20526848 3 10159705706778410967
21054139 6 18040433287514182418
21150785 3 18114471132511641222
21426921 1 18262515888560825709
22224240 67 15626223528857805631
22288116 15 11747225714299168321
22896161 15 18408040737038239908
23081809 10 17313110696953400012
23402539 116 17967531225569919932
23559900 14 18264483056786611617
293599 30 9655581807301786541
351380 3 18335699485821869527
49783359 22 18335702711357671872
5104073 3 17345202103582681722
5283384 27 12463305661628620859
559249 180 18335420162982119607
59682541 52 13479672236289255506

>  <PUBCHEM_SHAPE_MULTIPOLES>  (1) 
289.98
18.37
1.95
0.88
17.57
0.02
0.12
-14.47
2.12
-3.32
0.37
-0.08
0.33
-0.73

>  <PUBCHEM_SHAPE_SELFOVERLAP>  (1) 
508.862

>  <PUBCHEM_SHAPE_VOLUME>  (1) 
189.9

>  <PUBCHEM_COORDINATE_TYPE>  (1) 
2
5
10

$$$$
