36730
     RDKit          3D

 17 20  0  0  0  0  0  0  0  0999 V2000
   -4.0300   -1.6312    0.0001 Cl  0  0  0  0  0  0  0  0  0  0  0  0
   -0.4386    0.2609    0.0000 C   0  0  0  0  0  0  0  0  0  0  0  0
    0.9423   -0.0570    0.0000 C   0  0  0  0  0  0  0  0  0  0  0  0
   -1.4022   -0.7745    0.0000 C   0  0  0  0  0  0  0  0  0  0  0  0
   -0.8528    1.6132    0.0000 C   0  0  0  0  0  0  0  0  0  0  0  0
    1.3565   -1.4093    0.0000 C   0  0  0  0  0  0  0  0  0  0  0  0
    1.9059    0.9784    0.0000 C   0  0  0  0  0  0  0  0  0  0  0  0
   -0.9731   -2.1086   -0.0001 C   0  0  0  0  0  0  0  0  0  0  0  0
    0.1162    2.6256    0.0000 C   0  0  0  0  0  0  0  0  0  0  0  0
    0.3876   -2.4217    0.0000 C   0  0  0  0  0  0  0  0  0  0  0  0
    1.4769    2.3125    0.0000 C   0  0  0  0  0  0  0  0  0  0  0  0
   -2.7652   -0.4437   -0.0001 C   0  0  0  0  0  0  0  0  0  0  0  0
   -2.2232    1.9114    0.0000 C   0  0  0  0  0  0  0  0  0  0  0  0
    2.7270   -1.7075    0.0000 C   0  0  0  0  0  0  0  0  0  0  0  0
    3.2688    0.6477    0.0000 C   0  0  0  0  0  0  0  0  0  0  0  0
   -3.1713    0.8896    0.0000 C   0  0  0  0  0  0  0  0  0  0  0  0
    3.6750   -0.6857    0.0000 C   0  0  0  0  0  0  0  0  0  0  0  0
  1 12  1  0
  2  3  2  0
  2  4  1  0
  2  5  1  0
  3  6  1  0
  3  7  1  0
  4  8  2  0
  4 12  1  0
  5  9  1  0
  5 13  2  0
  6 10  2  0
  6 14  1  0
  7 11  1  0
  7 15  2  0
  8 10  1  0
  9 11  2  0
 12 16  2  0
 13 16  1  0
 14 17  2  0
 15 17  1  0
M  END
>  <PUBCHEM_COMPOUND_CID>  (1) 
36730

>  <PUBCHEM_CONFORMER_RMSD>  (1) 
0.4

>  <PUBCHEM_CONFORMER_DIVERSEORDER>  (1) 
1

>  <PUBCHEM_MMFF94_PARTIAL_CHARGES>  (1) 
20
1 -0.18
10 -0.15
11 -0.15
12 0.18
13 -0.15
14 -0.15
15 -0.15
16 -0.15
17 -0.15
18 0.15
19 0.15
20 0.15
21 0.15
22 0.15
23 0.15
24 0.15
25 0.15
26 0.15
8 -0.15
9 -0.15

>  <PUBCHEM_EFFECTIVE_ROTOR_COUNT>  (1) 
0

>  <PUBCHEM_PHARMACOPHORE_FEATURES>  (1) 
4
6 2 3 4 6 8 10 rings
6 2 3 5 7 9 11 rings
6 2 4 5 12 13 16 rings
6 3 6 7 14 15 17 rings

>  <PUBCHEM_HEAVY_ATOM_COUNT>  (1) 
17

>  <PUBCHEM_ATOM_DEF_STEREO_COUNT>  (1) 
0

>  <PUBCHEM_ATOM_UDEF_STEREO_COUNT>  (1) 
0

>  <PUBCHEM_BOND_DEF_STEREO_COUNT>  (1) 
0

>  <PUBCHEM_BOND_UDEF_STEREO_COUNT>  (1) 
0

>  <PUBCHEM_ISOTOPIC_ATOM_COUNT>  (1) 
0

>  <PUBCHEM_COMPONENT_COUNT>  (1) 
1

>  <PUBCHEM_CACTVS_TAUTO_COUNT>  (1) 
1

>  <PUBCHEM_CONFORMER_ID>  (1) 
00008F7A00000001

>  <PUBCHEM_MMFF94_ENERGY>  (1) 
58.849

>  <PUBCHEM_FEATURE_SELFOVERLAP>  (1) 
20.429

>  <PUBCHEM_SHAPE_FINGERPRINT>  (1) 
10411042 1 18410856525301962215
10967382 1 18266740379473980582
1100329 8 16680909935547660121
11132069 177 18339355249971846024
11471102 20 18338230565767588479
11578080 2 17273386544290427601
11680986 33 18048319134905074699
12382932 28 18268146465856828248
13140716 1 18267300941404493224
13221675 6 18410855477308245374
14178342 30 18268421352369901712
14790565 3 18266198264407854125
15196674 1 18410575080405041380
15442244 35 18411700980280242026
15536298 74 18343582962438222336
16945 1 18266741470395712740
193761 8 17906453577584069158
19591789 44 18411140212329008310
200 152 18130497613776590327
20510252 161 18344146986028206912
20905425 154 18124877859011819662
21267235 1 18410865364402322390
21501502 16 18409732828696751673
221490 88 18263930010932666915
22721475 48 18409735070685588880
2334 1 18410855447248547652
23402539 116 18341884174045033558
23419403 2 16184306034133223512
23463225 33 18336547127391979048
23559900 14 18343022148033106630
2748010 2 18410854317698555156
335352 9 18050285864643250783
34934 24 18265606581291209105
350125 39 18410298046636011585
5104073 3 18411136922288556312
528886 8 18339073787874710528
7364860 26 18197779006075177016
7832392 63 18268711602244073625
8809292 202 18261680276660420203
9709674 26 18411423916377960382

>  <PUBCHEM_SHAPE_MULTIPOLES>  (1) 
351.72
5.56
2.97
0.62
1.02
0.44
0
-1.45
0
0.13
0
0.01
0
0

>  <PUBCHEM_SHAPE_SELFOVERLAP>  (1) 
811.135

>  <PUBCHEM_SHAPE_VOLUME>  (1) 
171.7

>  <PUBCHEM_COORDINATE_TYPE>  (1) 
2
5
10

$$$$
