3673
     RDKit          3D

 22 23  0  0  1  0  0  0  0  0999 V2000
   -2.1127   -0.0895   -0.0128 O   0  0  0  0  0  0  0  0  0  0  0  0
   -0.2495    1.0792    0.6711 O   0  0  0  0  0  0  0  0  0  0  0  0
   -4.8798    1.0091   -1.0175 N   0  0  0  0  0  0  0  0  0  0  0  0
    6.1852    1.0370    0.0700 C   0  0  0  0  0  0  0  0  0  0  0  0
    5.7298   -0.4355    0.0545 C   0  0  0  0  0  0  0  0  0  0  0  0
    4.2353   -0.6107   -0.0619 C   0  0  0  0  0  0  0  0  0  0  0  0
    0.0139   -1.1039   -0.3908 C   0  0  0  0  0  0  0  0  0  0  0  0
    1.4905   -0.9311   -0.2758 C   0  0  0  0  0  0  0  0  0  0  0  0
    5.6982    1.8014   -1.1635 C   0  0  0  0  0  0  0  0  0  0  0  0
    5.6725    1.7244    1.3379 C   0  0  0  0  0  0  0  0  0  0  0  0
    3.4668   -0.6721    1.0897 C   0  0  0  0  0  0  0  0  0  0  0  0
    3.6583   -0.7064   -1.3185 C   0  0  0  0  0  0  0  0  0  0  0  0
    2.0854   -0.8334    0.9821 C   0  0  0  0  0  0  0  0  0  0  0  0
    2.2769   -0.8676   -1.4259 C   0  0  0  0  0  0  0  0  0  0  0  0
   -0.4992   -2.4040    0.2616 C   0  0  0  0  0  0  0  0  0  0  0  0
   -0.7691    0.0928    0.1651 C   0  0  0  0  0  0  0  0  0  0  0  0
   -2.9473    0.9808    0.4415 C   0  0  0  0  0  0  0  0  0  0  0  0
   -4.3819    0.6294    0.1767 C   0  0  0  0  0  0  0  0  0  0  0  0
   -5.0970   -0.0471    1.1463 C   0  0  0  0  0  0  0  0  0  0  0  0
   -6.4239   -0.3576    0.8699 C   0  0  0  0  0  0  0  0  0  0  0  0
   -6.1728    0.6900   -1.2506 C   0  0  0  0  0  0  0  0  0  0  0  0
   -6.9796    0.0145   -0.3492 C   0  0  0  0  0  0  0  0  0  0  0  0
  1 16  1  0
  1 17  1  0
  2 16  2  0
  3 18  2  0
  3 21  1  0
  4  5  1  0
  4  9  1  0
  4 10  1  0
  5  6  1  0
  6 11  2  0
  6 12  1  0
  7  8  1  0
  7 15  1  0
  7 16  1  0
  8 13  2  0
  8 14  1  0
 11 13  1  0
 12 14  2  0
 17 18  1  0
 18 19  1  0
 19 20  2  0
 20 22  1  0
 21 22  2  0
M  END
>  <PUBCHEM_COMPOUND_CID>  (1) 
3673

>  <PUBCHEM_CONFORMER_RMSD>  (1) 
0.8

>  <PUBCHEM_CONFORMER_DIVERSEORDER>  (1) 
1
175
231
254
165
206
309
261
91
307
311
303
310
149
64
185
20
89
285
113
105
298
201
238
53
257
230
292
326
265
170
228
132
269
17
215
137
4
16
236
337
267
118
18
129
330
188
194
35
187
207
176
25
104
84
5
251
329
229
136
182
255
247
203
241
81
34
171
69
234
242
2
76
88
38
65
102
320
174
68
315
78
324
259
282
283
11
36
42
219
209
130
120
46
12
211
334
111
227
22
339
106
327
306
66
164
299
33
86
202
163
200
93
179
212
67
338
273
218
80
7
333
82
49
79
108
95
155
249
92
3
24
318
287
57
13
37
63
240
152
141
232
6
195
214
204
143
314
54
220
83
151
284
28
115
178
157
77
58
123
235
191
10
56
47
177
41
169
192
70
159
239
286
19
100
180
168
224
9
134
98
258
44
312
323
302
173
332
60
39
27
167
260
335
156
40
146
61
21
196
154
340
74
278
199
190
189
109
172
158
97
226
29
213
300
313
112
116
142
85
133
127
186
162
131
276
331
72
52
71
274
14
237
208
161
48
289
94
223
75
140
328
15
160
31
210
321
124
246
197
198
293
8
122
73
264
325
336
135
117
301
103
205
128
139
99
62
245
55
126
304
145
270
43
110
266
121
277
166
150
291
308
319
51
322
114
262
288
216
275
147
184
144
96
271
119
268
153
280
244
45
341
250
248
23
32
316
243
87
281
295
101
221
90
297
296
253
305
59
272
279
233
256
317
30
183
181
225
263
217
50
125
148
252
193
290
138
26
222
294
107

>  <PUBCHEM_MMFF94_PARTIAL_CHARGES>  (1) 
26
1 -0.43
11 -0.15
12 -0.15
13 -0.15
14 -0.15
16 0.66
17 0.42
18 0.17
19 -0.15
2 -0.57
20 -0.15
21 0.16
22 -0.15
3 -0.62
33 0.15
34 0.15
35 0.15
36 0.15
42 0.15
43 0.15
44 0.15
45 0.15
5 0.14
6 -0.14
7 0.2
8 -0.14

>  <PUBCHEM_EFFECTIVE_ROTOR_COUNT>  (1) 
7

>  <PUBCHEM_PHARMACOPHORE_FEATURES>  (1) 
6
1 15 hydrophobe
1 2 acceptor
1 3 acceptor
3 4 9 10 hydrophobe
6 3 18 19 20 21 22 rings
6 6 8 11 12 13 14 rings

>  <PUBCHEM_HEAVY_ATOM_COUNT>  (1) 
22

>  <PUBCHEM_ATOM_DEF_STEREO_COUNT>  (1) 
0

>  <PUBCHEM_ATOM_UDEF_STEREO_COUNT>  (1) 
1

>  <PUBCHEM_BOND_DEF_STEREO_COUNT>  (1) 
0

>  <PUBCHEM_BOND_UDEF_STEREO_COUNT>  (1) 
0

>  <PUBCHEM_ISOTOPIC_ATOM_COUNT>  (1) 
0

>  <PUBCHEM_COMPONENT_COUNT>  (1) 
1

>  <PUBCHEM_CACTVS_TAUTO_COUNT>  (1) 
1

>  <PUBCHEM_CONFORMER_ID>  (1) 
00000E5900000001

>  <PUBCHEM_MMFF94_ENERGY>  (1) 
51.9202

>  <PUBCHEM_FEATURE_SELFOVERLAP>  (1) 
30.446

>  <PUBCHEM_SHAPE_FINGERPRINT>  (1) 
10 15 17603587460737751428
10299344 5 15841551869024936351
10638233 991 17203890785889735233
11089746 13 14273459180364112829
11719270 70 16370723720986307026
11796584 16 9367338241675410404
12236239 1 17603586313686220850
125118 31 18187083927512355821
12516196 113 17530684303635026277
12596602 18 17385722495600180600
12730499 353 17632863018758342054
13533116 47 17823132342167130178
13899415 154 17418378012409414904
13914758 101 13045934699648301943
14123256 10 17775283863256769709
14251758 9 8790884064671147653
14251764 30 11959723880786355837
14347424 109 13551190013790356732
14461889 52 17968099758521903594
14528608 73 17060336331811776688
14856354 85 15051730920001838989
15183329 4 12103853357986037090
15475509 35 8430047404616381052
17844677 252 14261345865108990139
19489759 90 16298390145894040333
19784866 140 11887676156488192358
20157964 124 18410857642715593734
20511986 3 16733254703966494475
20567600 234 17676770963246219532
21150785 3 17775562065953528901
21267235 1 10159702408480430258
21344244 181 13326581769820916804
21521721 280 18131917074191978795
21774942 28 15503199100201960431
220451 1 15913329074707741207
22079108 93 17894630379111925626
22224240 67 18333452045616306779
2297311 6 13686299076305822523
23035841 295 14836122148233811167
23081809 10 17632017451250565915
23522609 53 16127833940188633937
23536379 177 16298106458834994963
249057 3 18413673509569985702
2838139 119 18060131033993690696
28498 318 8502382126453617865
300161 21 17530682100353746171
33382 64 9295297140490831668
3472631 163 18335707186893046716
34797466 226 18342465828401427685
4072396 5 15140680276448032746
4325135 7 17918273147220636157
4340502 62 17167863058486302930
46194498 28 14261351358546196288
5207 217 18272088309742766567
53794403 172 18198338666363887432
5385378 56 8141816023352611589
59682541 35 18409736196974765051
59755656 215 10015592696092699232

>  <PUBCHEM_SHAPE_MULTIPOLES>  (1) 
436.03
19.24
1.63
1.29
13.92
0.11
-0.12
-7.56
-0.58
-1.66
0.02
-0.36
-0.13
0.67

>  <PUBCHEM_SHAPE_SELFOVERLAP>  (1) 
910.075

>  <PUBCHEM_SHAPE_VOLUME>  (1) 
246.2

>  <PUBCHEM_COORDINATE_TYPE>  (1) 
2
5
10

$$$$
