36741
     RDKit          3D

 18 19  0  0  0  0  0  0  0  0999 V2000
    0.4159   -0.8909    0.6523 O   0  0  0  0  0  0  0  0  0  0  0  0
    3.7994    0.2102   -0.2786 N   0  0  0  0  0  0  0  0  0  0  0  0
   -0.9009   -0.7193    0.1043 C   0  0  0  0  0  0  0  0  0  0  0  0
   -0.9018   -1.3753   -1.2959 C   0  0  0  0  0  0  0  0  0  0  0  0
   -1.8674   -1.4652    1.0489 C   0  0  0  0  0  0  0  0  0  0  0  0
   -0.6235   -2.8792   -1.2329 C   0  0  0  0  0  0  0  0  0  0  0  0
   -1.5934   -2.9708    1.0964 C   0  0  0  0  0  0  0  0  0  0  0  0
   -1.5972   -3.5893   -0.2978 C   0  0  0  0  0  0  0  0  0  0  0  0
   -1.2617    0.7664    0.0423 C   0  0  0  0  0  0  0  0  0  0  0  0
    1.3962   -0.2332   -0.1371 C   0  0  0  0  0  0  0  0  0  0  0  0
   -1.5420    1.3640   -1.1859 C   0  0  0  0  0  0  0  0  0  0  0  0
   -1.3104    1.5207    1.2139 C   0  0  0  0  0  0  0  0  0  0  0  0
    2.7582   -0.4341    0.5079 C   0  0  0  0  0  0  0  0  0  0  0  0
   -1.8712    2.7183   -1.2426 C   0  0  0  0  0  0  0  0  0  0  0  0
   -1.6397    2.8749    1.1571 C   0  0  0  0  0  0  0  0  0  0  0  0
   -1.9201    3.4737   -0.0712 C   0  0  0  0  0  0  0  0  0  0  0  0
    5.1171   -0.0183    0.3195 C   0  0  0  0  0  0  0  0  0  0  0  0
    3.5423    1.6473   -0.4008 C   0  0  0  0  0  0  0  0  0  0  0  0
  1  3  1  0
  1 10  1  0
  2 13  1  0
  2 17  1  0
  2 18  1  0
  3  4  1  0
  3  5  1  0
  3  9  1  0
  4  6  1  0
  5  7  1  0
  6  8  1  0
  7  8  1  0
  9 11  2  0
  9 12  1  0
 10 13  1  0
 11 14  1  0
 12 15  2  0
 14 16  2  0
 15 16  1  0
M  END
>  <PUBCHEM_COMPOUND_CID>  (1) 
36741

>  <PUBCHEM_CONFORMER_RMSD>  (1) 
0.8

>  <PUBCHEM_CONFORMER_DIVERSEORDER>  (1) 
1
9
8
10
6
2
7
4
3
5

>  <PUBCHEM_MMFF94_PARTIAL_CHARGES>  (1) 
18
1 -0.56
10 0.28
11 -0.15
12 -0.15
13 0.27
14 -0.15
15 -0.15
16 -0.15
17 0.27
18 0.27
2 -0.81
3 0.42
31 0.15
32 0.15
35 0.15
36 0.15
37 0.15
9 -0.14

>  <PUBCHEM_EFFECTIVE_ROTOR_COUNT>  (1) 
6.2

>  <PUBCHEM_PHARMACOPHORE_FEATURES>  (1) 
4
1 1 acceptor
1 2 cation
6 3 4 5 6 7 8 rings
6 9 11 12 14 15 16 rings

>  <PUBCHEM_HEAVY_ATOM_COUNT>  (1) 
18

>  <PUBCHEM_ATOM_DEF_STEREO_COUNT>  (1) 
0

>  <PUBCHEM_ATOM_UDEF_STEREO_COUNT>  (1) 
0

>  <PUBCHEM_BOND_DEF_STEREO_COUNT>  (1) 
0

>  <PUBCHEM_BOND_UDEF_STEREO_COUNT>  (1) 
0

>  <PUBCHEM_ISOTOPIC_ATOM_COUNT>  (1) 
0

>  <PUBCHEM_COMPONENT_COUNT>  (1) 
1

>  <PUBCHEM_CACTVS_TAUTO_COUNT>  (1) 
1

>  <PUBCHEM_CONFORMER_ID>  (1) 
00008F8500000001

>  <PUBCHEM_MMFF94_ENERGY>  (1) 
53.3272

>  <PUBCHEM_FEATURE_SELFOVERLAP>  (1) 
20.297

>  <PUBCHEM_SHAPE_FINGERPRINT>  (1) 
10670039 82 17902241332451318252
11045515 52 17902786693457581326
11101153 10 17974855283567335692
11357001 24 18408889567924563122
11725454 13 16011546111791687165
12173636 292 18270966726204632176
12643181 29 18124040032259893182
12788726 201 18336808866773048883
13004483 165 18266737076660409130
13681431 1 17473250454374238963
15490181 8 18051406267219067371
1741750 31 18340201869957359392
1813 80 17766014065496774934
18785283 64 17690016543264952722
19765921 60 17910944751982257721
20510252 161 18411699863710116553
20600515 1 18056219083138258675
20645476 183 18265040358683452128
21304303 282 17687973814027694132
21339142 126 18339642351445761866
21524375 3 18123179113304091480
21731228 192 18192156988278957040
2255824 54 17188966822898057725
22907989 373 18411140272611161636
23419403 2 17200210836714981011
23557571 272 18268998759710346108
23558518 356 18265614290657766031
3091708 16 9200843593510440440
31174 14 17112148339264936945
474 4 17764020268531301265
7364860 26 17259619249386131989
81228 2 18337401533636430411
90316 7 18268440215955806202

>  <PUBCHEM_SHAPE_MULTIPOLES>  (1) 
359.58
5.5
4.65
1.31
12.32
0.57
0.08
-1.84
-0.34
-5.06
0.25
-0.76
0.01
0.05

>  <PUBCHEM_SHAPE_SELFOVERLAP>  (1) 
735.779

>  <PUBCHEM_SHAPE_VOLUME>  (1) 
207.4

>  <PUBCHEM_COORDINATE_TYPE>  (1) 
2
5
10

$$$$
