36742
     RDKit          3D

 38 43  0  0  1  0  0  0  0  0999 V2000
   -4.2874    3.0760    0.7746 O   0  0  0  0  0  0  0  0  0  0  0  0
    3.9844    0.9006   -0.4940 O   0  0  0  0  0  0  0  0  0  0  0  0
   -6.1632   -3.6912    0.4787 O   0  0  0  0  0  0  0  0  0  0  0  0
    4.9689   -1.2022   -0.8412 O   0  0  0  0  0  0  0  0  0  0  0  0
   -8.4343   -3.4596    0.1873 O   0  0  0  0  0  0  0  0  0  0  0  0
    6.7620    1.0562   -0.8155 O   0  0  0  0  0  0  0  0  0  0  0  0
    8.4477   -0.0871    1.1380 O   0  0  0  0  0  0  0  0  0  0  0  0
    7.8425   -1.4903   -1.2046 O   0  0  0  0  0  0  0  0  0  0  0  0
   -4.0759    1.9197   -0.0503 C   0  0  0  0  0  0  0  0  0  0  0  0
   -2.5629    2.0013   -0.4552 C   0  0  0  0  0  0  0  0  0  0  0  0
   -1.6388    1.6019    0.7385 C   0  0  0  0  0  0  0  0  0  0  0  0
   -4.5254    0.6306    0.7065 C   0  0  0  0  0  0  0  0  0  0  0  0
   -0.1078    1.7879    0.3945 C   0  0  0  0  0  0  0  0  0  0  0  0
    0.2353    1.0434   -0.9271 C   0  0  0  0  0  0  0  0  0  0  0  0
   -2.0252    0.1910    1.2260 C   0  0  0  0  0  0  0  0  0  0  0  0
   -3.4709    0.1389    1.7141 C   0  0  0  0  0  0  0  0  0  0  0  0
   -4.7757   -0.3636   -0.4626 C   0  0  0  0  0  0  0  0  0  0  0  0
   -2.1382    1.2886   -1.7569 C   0  0  0  0  0  0  0  0  0  0  0  0
   -5.0402    1.9626   -1.2479 C   0  0  0  0  0  0  0  0  0  0  0  0
   -0.6585    1.4869   -2.0875 C   0  0  0  0  0  0  0  0  0  0  0  0
   -5.3456    0.5027   -1.6031 C   0  0  0  0  0  0  0  0  0  0  0  0
    0.8180    1.2250    1.5123 C   0  0  0  0  0  0  0  0  0  0  0  0
    1.7217    1.1566   -1.2979 C   0  0  0  0  0  0  0  0  0  0  0  0
   -5.8379    0.8537    1.5134 C   0  0  0  0  0  0  0  0  0  0  0  0
    0.1692    3.3170    0.2865 C   0  0  0  0  0  0  0  0  0  0  0  0
    2.3079    1.3085    1.1699 C   0  0  0  0  0  0  0  0  0  0  0  0
    2.6211    0.6478   -0.1705 C   0  0  0  0  0  0  0  0  0  0  0  0
   -5.6229   -1.5594   -0.1573 C   0  0  0  0  0  0  0  0  0  0  0  0
   -5.0321   -2.8305    0.3086 C   0  0  0  0  0  0  0  0  0  0  0  0
   -6.9465   -1.6510   -0.2540 C   0  0  0  0  0  0  0  0  0  0  0  0
    4.8437   -0.0946    0.0558 C   0  0  0  0  0  0  0  0  0  0  0  0
   -7.3009   -3.0122    0.1508 C   0  0  0  0  0  0  0  0  0  0  0  0
    6.2133    0.5052    0.3832 C   0  0  0  0  0  0  0  0  0  0  0  0
    7.1320   -0.5869    0.9356 C   0  0  0  0  0  0  0  0  0  0  0  0
    5.7453   -2.2792   -0.2954 C   0  0  0  0  0  0  0  0  0  0  0  0
    7.1751   -1.8115    0.0156 C   0  0  0  0  0  0  0  0  0  0  0  0
    5.7130   -3.4201   -1.3055 C   0  0  0  0  0  0  0  0  0  0  0  0
    9.2892   -1.0629    1.7365 C   0  0  0  0  0  0  0  0  0  0  0  0
  1  9  1  0
  2 27  1  0
  2 31  1  0
  3 29  1  0
  3 32  1  0
  4 31  1  0
  4 35  1  0
  5 32  2  0
  6 33  1  0
  7 34  1  0
  7 38  1  0
  8 36  1  0
  9 10  1  0
  9 12  1  0
  9 19  1  0
 10 11  1  0
 10 18  1  0
 11 13  1  0
 11 15  1  0
 12 16  1  0
 12 17  1  0
 12 24  1  0
 13 14  1  0
 13 22  1  0
 13 25  1  0
 14 20  1  0
 14 23  1  0
 15 16  1  0
 17 21  1  0
 17 28  1  0
 18 20  1  0
 19 21  1  0
 22 26  1  0
 23 27  1  0
 26 27  1  0
 28 29  1  0
 28 30  2  0
 30 32  1  0
 31 33  1  0
 33 34  1  0
 34 36  1  0
 35 36  1  0
 35 37  1  0
M  END
>  <PUBCHEM_COMPOUND_CID>  (1) 
36742

>  <PUBCHEM_CONFORMER_RMSD>  (1) 
1

>  <PUBCHEM_CONFORMER_DIVERSEORDER>  (1) 
5
53
66
100
161
39
98
170
9
142
160
60
85
104
92
148
124
145
47
87
174
169
70
76
45
127
177
37
129
67
68
35
175
42
176
109
27
125
21
43
101
159
141
91
81
14
17
182
22
74
143
144
51
86
128
50
149
38
10
72
135
119
150
56
24
137
163
136
118
48
131
1
181
180
146
157
15
69
75
139
113
32
183
114
165
18
134
162
20
46
89
126
3
123
108
62
103
156
121
138
154
26
151
64
57
88
73
120
52
155
13
168
116
96
166
25
112
12
65
41
106
102
33
111
164
152
28
82
110
158
153
49
19
94
30
179
178
147
58
90
7
173
105
29
8
6
172
61
44
84
36
93
2
40
83
167
115
117
34
59
171
99
122
77
63
4
107
78
130
16
95
54
133
97
80
11
132
23
140
71
31
55
79

>  <PUBCHEM_MMFF94_PARTIAL_CHARGES>  (1) 
25
1 -0.68
17 0.14
2 -0.56
27 0.28
28 -0.28
29 0.42
3 -0.43
30 -0.14
31 0.56
32 0.71
33 0.28
34 0.28
35 0.28
36 0.28
38 0.28
4 -0.56
5 -0.57
6 -0.68
68 0.4
7 -0.56
71 0.15
77 0.4
8 -0.68
81 0.4
9 0.28

>  <PUBCHEM_EFFECTIVE_ROTOR_COUNT>  (1) 
7.8

>  <PUBCHEM_PHARMACOPHORE_FEATURES>  (1) 
16
1 1 acceptor
1 1 donor
1 2 acceptor
1 4 acceptor
1 5 acceptor
1 6 acceptor
1 6 donor
1 7 acceptor
1 8 acceptor
1 8 donor
5 3 28 29 30 32 rings
5 9 12 17 19 21 rings
6 10 11 13 14 18 20 rings
6 13 14 22 23 26 27 rings
6 4 31 33 34 35 36 rings
6 9 10 11 12 15 16 rings

>  <PUBCHEM_HEAVY_ATOM_COUNT>  (1) 
38

>  <PUBCHEM_ATOM_DEF_STEREO_COUNT>  (1) 
8

>  <PUBCHEM_ATOM_UDEF_STEREO_COUNT>  (1) 
5

>  <PUBCHEM_BOND_DEF_STEREO_COUNT>  (1) 
0

>  <PUBCHEM_BOND_UDEF_STEREO_COUNT>  (1) 
0

>  <PUBCHEM_ISOTOPIC_ATOM_COUNT>  (1) 
0

>  <PUBCHEM_COMPONENT_COUNT>  (1) 
1

>  <PUBCHEM_CACTVS_TAUTO_COUNT>  (1) 
1

>  <PUBCHEM_CONFORMER_ID>  (1) 
00008F8600000005

>  <PUBCHEM_MMFF94_ENERGY>  (1) 
138.663

>  <PUBCHEM_FEATURE_SELFOVERLAP>  (1) 
81.455

>  <PUBCHEM_SHAPE_FINGERPRINT>  (1) 
10 15 15841547462336022408
10190206 1 12180112151457368215
10369192 42 9439402436909131233
10391435 84 18411409597035603542
10677351 14 18186805794415489852
11135609 201 10807668766299990067
117089 54 18412550915875545647
11991303 11 13912621467108857808
12013929 94 18340771533419294474
12120059 9 18265034882764089286
12522641 68 17100562888275084213
12895837 130 9439403536805373947
12988421 55 13542467536281333293
1361 4 18338517435455922486
13690498 29 18040428906995654741
13782708 43 18335420145354000292
13811026 1 18411978070122120079
14068700 675 18259703414873100373
14211702 104 18271533021958566102
14359421 15 17749380516944494371
14556957 393 15068624833714337742
14849402 71 13254217441987240826
14856354 85 18342459210210856669
15183329 4 15430038742908317816
15347591 1 18411419557535274741
15352257 5 18411982447084054778
15439362 3 17905605507150330541
15510800 12 18409167753236224555
15776043 110 16558749023173150034
16994733 274 9511463307748188550
19302320 297 11527952300231011051
19303781 99 18263919020338619319
19438510 23 10807943665096312645
19958102 18 17022624144068091178
20105231 36 17604153723050254427
2026 5 18260264114596215202
208703 8 18335416932956190603
21130935 74 18270963441234840634
21136928 126 16538200571931959447
21756936 100 10807939276136010717
23559900 14 18410287025813630009
23569943 247 17761495795311180426
23576562 1 12396883154070073803
2747138 104 17989490693643716680
3383291 50 18410011074080589739
392239 28 15339114658856117409
397830 11 18341602763820185464
4149490 64 18271237233064048834
439807 62 18410858802267079711
44802255 64 11458422432471068017
44880568 143 18040431066847721228
4516262 110 11671517655884544289
474113 269 18201430446575721727
5080951 261 17989204829368860565
5104073 3 15410314689263361413
54039377 194 17967817206563526875
5718773 13 18411138078088620547
58083652 198 16200136721241373097
59682541 35 18060126658091650432
6009941 240 18270678667417674813
6376802 90 18123190100353149069
6691757 9 14692560027112658253
999808 66 18131631179509011727

>  <PUBCHEM_SHAPE_MULTIPOLES>  (1) 
735.07
26.26
3.76
1.6
34.49
2.8
0.13
24.51
-3.63
-5.58
0.24
0.29
-0.41
1.27

>  <PUBCHEM_SHAPE_SELFOVERLAP>  (1) 
1573.488

>  <PUBCHEM_SHAPE_VOLUME>  (1) 
404.7

>  <PUBCHEM_COORDINATE_TYPE>  (1) 
2
5
10

$$$$
