36754
     RDKit          3D

 27 29  0  0  1  0  0  0  0  0999 V2000
   -5.0283   -1.1701    2.8594 Cl  0  0  0  0  0  0  0  0  0  0  0  0
    2.1168   -0.9732   -0.6765 O   0  0  0  0  0  0  0  0  0  0  0  0
    0.8189   -2.1618   -2.6260 O   0  0  0  0  0  0  0  0  0  0  0  0
    2.3066    0.3578    1.1973 O   0  0  0  0  0  0  0  0  0  0  0  0
    7.4118    0.8910    1.5495 O   0  0  0  0  0  0  0  0  0  0  0  0
    7.0452   -0.3204   -0.3373 O   0  0  0  0  0  0  0  0  0  0  0  0
   -1.1342   -2.3506   -1.4579 N   0  0  0  0  0  0  0  0  0  0  0  0
    0.0461    0.2837   -0.5943 N   0  0  0  0  0  0  0  0  0  0  0  0
   -2.0528   -0.7399    0.2017 C   0  0  0  0  0  0  0  0  0  0  0  0
   -1.1912    0.3930   -0.2500 C   0  0  0  0  0  0  0  0  0  0  0  0
   -2.0530   -1.9810   -0.4544 C   0  0  0  0  0  0  0  0  0  0  0  0
    0.7007   -1.0100   -0.5129 C   0  0  0  0  0  0  0  0  0  0  0  0
   -1.7932    1.7537   -0.3514 C   0  0  0  0  0  0  0  0  0  0  0  0
    0.1418   -1.8591   -1.6416 C   0  0  0  0  0  0  0  0  0  0  0  0
   -2.9660   -0.5051    1.2428 C   0  0  0  0  0  0  0  0  0  0  0  0
   -3.0374   -2.9258   -0.1282 C   0  0  0  0  0  0  0  0  0  0  0  0
   -3.9072   -1.4736    1.5895 C   0  0  0  0  0  0  0  0  0  0  0  0
   -3.9544   -2.6763    0.8928 C   0  0  0  0  0  0  0  0  0  0  0  0
   -3.1436    1.8856   -0.6494 C   0  0  0  0  0  0  0  0  0  0  0  0
   -0.9968    2.8732   -0.1462 C   0  0  0  0  0  0  0  0  0  0  0  0
    4.2836   -0.3075   -0.0607 C   0  0  0  0  0  0  0  0  0  0  0  0
    2.8052   -0.2461    0.2579 C   0  0  0  0  0  0  0  0  0  0  0  0
    5.1486    0.4023    0.9739 C   0  0  0  0  0  0  0  0  0  0  0  0
   -3.7069    3.1582   -0.7440 C   0  0  0  0  0  0  0  0  0  0  0  0
   -1.5602    4.1457   -0.2408 C   0  0  0  0  0  0  0  0  0  0  0  0
   -2.9153    4.2882   -0.5396 C   0  0  0  0  0  0  0  0  0  0  0  0
    6.6152    0.2681    0.6463 C   0  0  0  0  0  0  0  0  0  0  0  0
  1 17  1  0
  2 12  1  0
  2 22  1  0
  3 14  2  0
  4 22  2  0
  5 27  1  0
  6 27  2  0
  7 11  1  0
  7 14  1  0
  8 10  2  0
  8 12  1  0
  9 10  1  0
  9 11  2  0
  9 15  1  0
 10 13  1  0
 11 16  1  0
 12 14  1  0
 13 19  2  0
 13 20  1  0
 15 17  2  0
 16 18  2  0
 17 18  1  0
 19 24  1  0
 20 25  2  0
 21 22  1  0
 21 23  1  0
 23 27  1  0
 24 26  2  0
 25 26  1  0
M  END
>  <PUBCHEM_COMPOUND_CID>  (1) 
36754

>  <PUBCHEM_CONFORMER_RMSD>  (1) 
0.8

>  <PUBCHEM_CONFORMER_DIVERSEORDER>  (1) 
1
10
46
29
49
15
74
67
131
40
63
68
119
105
34
142
35
38
98
121
99
33
81
144
52
117
69
140
141
20
55
122
24
19
48
25
16
4
83
124
28
65
95
77
94
42
3
79
120
76
9
110
78
22
87
44
27
72
127
57
133
113
37
96
125
13
85
111
71
54
109
36
2
135
17
92
12
132
39
26
80
43
88
86
106
51
73
93
60
89
115
129
100
101
123
7
59
82
107
62
8
108
91
112
53
18
104
116
97
114
45
84
41
64
50
61
6
136
143
21
58
137
5
70
30
102
128
14
118
138
23
11
103
66
47
139
56
134
31
75
90
32
130
126

>  <PUBCHEM_MMFF94_PARTIAL_CHARGES>  (1) 
37
1 -0.18
10 0.28
11 0.12
12 0.59
13 0.09
14 0.57
15 -0.15
16 -0.15
17 0.18
18 -0.15
19 -0.15
2 -0.43
20 -0.15
21 0.06
22 0.66
23 0.06
24 -0.15
25 -0.15
26 -0.15
27 0.66
29 0.37
3 -0.57
30 0.15
31 0.15
32 0.15
33 0.15
34 0.15
39 0.15
4 -0.57
40 0.15
41 0.15
42 0.5
5 -0.65
6 -0.57
7 -0.55
8 -0.7
9 0.09

>  <PUBCHEM_EFFECTIVE_ROTOR_COUNT>  (1) 
6.4

>  <PUBCHEM_PHARMACOPHORE_FEATURES>  (1) 
10
1 3 acceptor
1 4 acceptor
1 5 acceptor
1 6 acceptor
1 7 donor
1 8 acceptor
3 5 6 27 anion
6 13 19 20 24 25 26 rings
6 9 11 15 16 17 18 rings
7 7 8 9 10 11 12 14 rings

>  <PUBCHEM_HEAVY_ATOM_COUNT>  (1) 
27

>  <PUBCHEM_ATOM_DEF_STEREO_COUNT>  (1) 
0

>  <PUBCHEM_ATOM_UDEF_STEREO_COUNT>  (1) 
1

>  <PUBCHEM_BOND_DEF_STEREO_COUNT>  (1) 
0

>  <PUBCHEM_BOND_UDEF_STEREO_COUNT>  (1) 
0

>  <PUBCHEM_ISOTOPIC_ATOM_COUNT>  (1) 
0

>  <PUBCHEM_COMPONENT_COUNT>  (1) 
1

>  <PUBCHEM_CACTVS_TAUTO_COUNT>  (1) 
3

>  <PUBCHEM_CONFORMER_ID>  (1) 
00008F9200000001

>  <PUBCHEM_MMFF94_ENERGY>  (1) 
82.9509

>  <PUBCHEM_FEATURE_SELFOVERLAP>  (1) 
50.819

>  <PUBCHEM_SHAPE_FINGERPRINT>  (1) 
10290309 65 18200880582870887550
10411042 1 18193552505090453335
11578080 2 17916034447647729387
12035758 1 18264509346866597185
12107698 1 18187928425831127264
12422481 6 18270972356732424521
12788726 201 17970090965721680227
12930653 34 18261674770644566298
13073987 5 18261663828090841122
13540713 4 18196949768012383983
14844126 61 18260546736375783203
14856354 85 18264494069373149358
15439362 3 10373945517263948387
15685185 35 16885845160173450516
15775530 1 17913503341183438879
17844677 252 18408602587601528152
17980427 23 17773893063554189347
20101258 96 18335982068404446057
21304303 282 17678721364193969645
21401589 2 18195808475243608169
22182313 1 18199204896499342975
22956985 138 17105667241973144715
24771293 8 18272100370944734281
2748010 2 18125181350470801215
3380486 145 18271815622796599283
376196 1 17691112743689754205
4409770 3 18333724711662078917
5104073 3 18115577159599771130
84936 182 16895965635855515349
90316 7 18337961181314005835
9981440 41 18125424337770656091

>  <PUBCHEM_SHAPE_MULTIPOLES>  (1) 
518.21
12.67
4.51
1.77
32.91
5.13
0.29
-0.49
8.1
-7.98
-1.23
-0.92
-1.33
2.53

>  <PUBCHEM_SHAPE_SELFOVERLAP>  (1) 
1112.272

>  <PUBCHEM_SHAPE_VOLUME>  (1) 
282.7

>  <PUBCHEM_COORDINATE_TYPE>  (1) 
2
5
10

$$$$
