36763
     RDKit          3D

 14 15  0  0  1  0  0  0  0  0999 V2000
   -0.2046   -1.2144   -0.1471 O   0  0  0  0  0  0  0  0  0  0  0  0
    3.2597    0.0677   -0.2193 N   0  0  0  0  0  0  0  0  0  0  0  0
    0.8703   -0.3145   -0.5260 C   0  0  0  0  0  0  0  0  0  0  0  0
    0.4813    1.1174   -0.1263 C   0  0  0  0  0  0  0  0  0  0  0  0
   -0.9880    0.9527   -0.0628 C   0  0  0  0  0  0  0  0  0  0  0  0
    2.1569   -0.7762    0.1384 C   0  0  0  0  0  0  0  0  0  0  0  0
   -1.3022   -0.3976   -0.0530 C   0  0  0  0  0  0  0  0  0  0  0  0
   -2.6038   -0.8448    0.0639 C   0  0  0  0  0  0  0  0  0  0  0  0
   -1.9780    1.9125    0.0416 C   0  0  0  0  0  0  0  0  0  0  0  0
   -3.6144    0.1135    0.1602 C   0  0  0  0  0  0  0  0  0  0  0  0
    4.5037   -0.3621    0.4237 C   0  0  0  0  0  0  0  0  0  0  0  0
   -3.3038    1.4836    0.1474 C   0  0  0  0  0  0  0  0  0  0  0  0
   -2.9322   -2.2962    0.0840 C   0  0  0  0  0  0  0  0  0  0  0  0
    5.6552    0.5583    0.0753 C   0  0  0  0  0  0  0  0  0  0  0  0
  1  3  1  0
  1  7  1  0
  2  6  1  0
  2 11  1  0
  3  4  1  0
  3  6  1  0
  4  5  1  0
  5  7  2  0
  5  9  1  0
  7  8  1  0
  8 10  2  0
  8 13  1  0
  9 12  2  0
 10 12  1  0
 11 14  1  0
M  END
>  <PUBCHEM_COMPOUND_CID>  (1) 
36763

>  <PUBCHEM_CONFORMER_RMSD>  (1) 
0.6

>  <PUBCHEM_CONFORMER_DIVERSEORDER>  (1) 
1
6
12
7
13
8
10
11
4
9
3
5
2

>  <PUBCHEM_MMFF94_PARTIAL_CHARGES>  (1) 
17
1 -0.36
10 -0.15
11 0.27
12 -0.15
13 0.14
2 -0.9
20 0.15
21 0.36
22 0.15
25 0.15
3 0.28
4 0.14
5 -0.14
6 0.27
7 0.08
8 -0.14
9 -0.15

>  <PUBCHEM_EFFECTIVE_ROTOR_COUNT>  (1) 
3.6

>  <PUBCHEM_PHARMACOPHORE_FEATURES>  (1) 
5
1 1 acceptor
1 2 cation
1 2 donor
5 1 3 4 5 7 rings
6 5 7 8 9 10 12 rings

>  <PUBCHEM_HEAVY_ATOM_COUNT>  (1) 
14

>  <PUBCHEM_ATOM_DEF_STEREO_COUNT>  (1) 
0

>  <PUBCHEM_ATOM_UDEF_STEREO_COUNT>  (1) 
1

>  <PUBCHEM_BOND_DEF_STEREO_COUNT>  (1) 
0

>  <PUBCHEM_BOND_UDEF_STEREO_COUNT>  (1) 
0

>  <PUBCHEM_ISOTOPIC_ATOM_COUNT>  (1) 
0

>  <PUBCHEM_COMPONENT_COUNT>  (1) 
1

>  <PUBCHEM_CACTVS_TAUTO_COUNT>  (1) 
1

>  <PUBCHEM_CONFORMER_ID>  (1) 
00008F9B00000001

>  <PUBCHEM_MMFF94_ENERGY>  (1) 
26.2993

>  <PUBCHEM_FEATURE_SELFOVERLAP>  (1) 
25.474

>  <PUBCHEM_SHAPE_FINGERPRINT>  (1) 
10014705 185 18187361000057572877
11132069 177 18410015403364496772
12251169 10 18408043996074535117
12390115 104 17986127213975051833
13024252 1 14707214297166239869
13214271 11 18272086101944849982
13380535 76 18341050701513484975
13897977 58 18409732872174081772
15219456 202 17988086578049679590
15536298 74 18268148665408039542
16945 1 18339373976456530933
17804303 29 18341896324301687992
20510252 161 18128257792241994113
20645477 56 18339365162819915373
20645477 70 16773240570361565614
20871998 184 18201442493257158671
21267235 1 18336837475592093499
21501502 16 18265060295879682565
21637258 2 15864649378783482161
2297311 6 18272384074460734660
23175994 123 16988849384414199056
23402539 116 18410848880264826847
23557571 272 18202013122390240764
23559900 14 18340479058377724320
2748010 2 18268147754990569213
34934 24 18335133151207060299
4214541 1 18410573964278033856
5104073 3 18411416190327446426
573450 72 18260819380994795498
6333449 129 18341611491013797789
77779 3 18411419497468003234

>  <PUBCHEM_SHAPE_MULTIPOLES>  (1) 
277.26
8.91
1.82
0.65
14.08
0.21
0
-0.37
-0.99
-2.09
-0.05
0.06
0
-0.07

>  <PUBCHEM_SHAPE_SELFOVERLAP>  (1) 
578.997

>  <PUBCHEM_SHAPE_VOLUME>  (1) 
159.9

>  <PUBCHEM_COORDINATE_TYPE>  (1) 
2
5
10

$$$$
