36761
     RDKit          3D

 15 16  0  0  1  0  0  0  0  0999 V2000
   -0.4940   -1.1849   -0.2858 O   0  0  0  0  0  0  0  0  0  0  0  0
    2.9423    0.1573   -0.4877 N   0  0  0  0  0  0  0  0  0  0  0  0
    0.5457   -0.2522   -0.6831 C   0  0  0  0  0  0  0  0  0  0  0  0
    0.1578    1.1552   -0.2037 C   0  0  0  0  0  0  0  0  0  0  0  0
    1.8728   -0.7191   -0.1078 C   0  0  0  0  0  0  0  0  0  0  0  0
   -1.3034    0.9633   -0.0695 C   0  0  0  0  0  0  0  0  0  0  0  0
   -1.5968   -0.3914   -0.0996 C   0  0  0  0  0  0  0  0  0  0  0  0
    4.2294   -0.2890    0.0509 C   0  0  0  0  0  0  0  0  0  0  0  0
   -2.8836   -0.8649    0.0673 C   0  0  0  0  0  0  0  0  0  0  0  0
   -2.3004    1.9011    0.1273 C   0  0  0  0  0  0  0  0  0  0  0  0
   -3.9015    0.0715    0.2570 C   0  0  0  0  0  0  0  0  0  0  0  0
   -3.6121    1.4460    0.2852 C   0  0  0  0  0  0  0  0  0  0  0  0
    4.1932   -0.2890    1.5765 C   0  0  0  0  0  0  0  0  0  0  0  0
    5.3398    0.6174   -0.4710 C   0  0  0  0  0  0  0  0  0  0  0  0
   -3.1890   -2.3213    0.0439 C   0  0  0  0  0  0  0  0  0  0  0  0
  1  3  1  0
  1  7  1  0
  2  5  1  0
  2  8  1  0
  3  4  1  0
  3  5  1  0
  4  6  1  0
  6  7  2  0
  6 10  1  0
  7  9  1  0
  8 13  1  0
  8 14  1  0
  9 11  2  0
  9 15  1  0
 10 12  2  0
 11 12  1  0
M  END
>  <PUBCHEM_COMPOUND_CID>  (1) 
36761

>  <PUBCHEM_CONFORMER_RMSD>  (1) 
0.6

>  <PUBCHEM_CONFORMER_DIVERSEORDER>  (1) 
1
8
12
10
9
6
13
3
5
11
7
2
4

>  <PUBCHEM_MMFF94_PARTIAL_CHARGES>  (1) 
17
1 -0.36
10 -0.15
11 -0.15
12 -0.15
15 0.14
2 -0.9
21 0.36
23 0.15
24 0.15
25 0.15
3 0.28
4 0.14
5 0.27
6 -0.14
7 0.08
8 0.27
9 -0.14

>  <PUBCHEM_EFFECTIVE_ROTOR_COUNT>  (1) 
3.6

>  <PUBCHEM_PHARMACOPHORE_FEATURES>  (1) 
6
1 1 acceptor
1 2 cation
1 2 donor
3 8 13 14 hydrophobe
5 1 3 4 6 7 rings
6 6 7 9 10 11 12 rings

>  <PUBCHEM_HEAVY_ATOM_COUNT>  (1) 
15

>  <PUBCHEM_ATOM_DEF_STEREO_COUNT>  (1) 
0

>  <PUBCHEM_ATOM_UDEF_STEREO_COUNT>  (1) 
1

>  <PUBCHEM_BOND_DEF_STEREO_COUNT>  (1) 
0

>  <PUBCHEM_BOND_UDEF_STEREO_COUNT>  (1) 
0

>  <PUBCHEM_ISOTOPIC_ATOM_COUNT>  (1) 
0

>  <PUBCHEM_COMPONENT_COUNT>  (1) 
1

>  <PUBCHEM_CACTVS_TAUTO_COUNT>  (1) 
1

>  <PUBCHEM_CONFORMER_ID>  (1) 
00008F9900000001

>  <PUBCHEM_MMFF94_ENERGY>  (1) 
29.7999

>  <PUBCHEM_FEATURE_SELFOVERLAP>  (1) 
30.548

>  <PUBCHEM_SHAPE_FINGERPRINT>  (1) 
10014705 185 18187643574820198461
10062212 137 18260831526877426119
10680689 15 17561362898220858710
10912923 1 18040433309115112584
11132069 177 18411421678625593989
12107183 9 17613147478286738256
12236239 1 17821730528775126882
12251169 10 18408325466766834525
12390115 104 17914916244080389521
12403814 3 17821729399483961285
13167823 11 18113616759989137890
13214271 11 18273213101400224221
13675066 3 17989204854595078918
13760787 19 18260830380289989194
13897977 58 18409453600357370988
14420673 8 17977381638854376282
15099037 37 18342459274424044431
15219456 202 17916875612075464230
15536298 74 18268712714656836870
16945 1 18339939129838964421
17804303 29 18342740753495151745
17834072 33 18187651340542861324
19050596 39 18260827090418802610
200 152 16008743615465470382
20281475 54 18260822696683297314
20432913 95 15574716876542342736
20510252 161 18129104420601105697
20645477 56 18341336595969422953
20645477 70 14634858726918730330
21267235 1 18337684104135834487
21637258 2 16009326421669886889
2297311 6 18200890533998213324
23175994 123 16845578625341883376
23366157 5 17825670216261169516
23402539 116 18410006658710985503
23557571 272 18059586788142568509
23559900 14 18271532975220178606
2748010 2 17905061248625023333
300161 21 17894907434561922780
34934 24 18335698300352516295
4214541 1 18410857638114515308
474 4 17241899894320226836
5104073 3 18411417298323461714
573450 72 18260821584033391402
77779 3 18411421700675417398
90316 7 18041554733207753116

>  <PUBCHEM_SHAPE_MULTIPOLES>  (1) 
297.84
9.64
1.74
0.86
11.14
0.22
-0.23
-0.22
-1.26
-2.25
-0.03
0.8
0.03
-0.38

>  <PUBCHEM_SHAPE_SELFOVERLAP>  (1) 
620.517

>  <PUBCHEM_SHAPE_VOLUME>  (1) 
172.4

>  <PUBCHEM_COORDINATE_TYPE>  (1) 
2
5
10

$$$$
