36775
     RDKit          3D

 15 16  0  0  1  0  0  0  0  0999 V2000
   -1.4843    2.9603   -0.0265 Cl  0  0  0  0  0  0  0  0  0  0  0  0
   -1.4664   -3.3082    0.0848 Cl  0  0  0  0  0  0  0  0  0  0  0  0
   -4.2466    1.2933    0.1734 Cl  0  0  0  0  0  0  0  0  0  0  0  0
    0.9389   -1.3972   -0.1357 O   0  0  0  0  0  0  0  0  0  0  0  0
    4.0120    0.6531   -0.1731 N   0  0  0  0  0  0  0  0  0  0  0  0
    1.7826   -0.2767   -0.5116 C   0  0  0  0  0  0  0  0  0  0  0  0
    1.0651    1.0303   -0.1398 C   0  0  0  0  0  0  0  0  0  0  0  0
   -0.3267    0.5298   -0.0928 C   0  0  0  0  0  0  0  0  0  0  0  0
    3.1284   -0.4197    0.1801 C   0  0  0  0  0  0  0  0  0  0  0  0
   -0.3194   -0.8563   -0.0677 C   0  0  0  0  0  0  0  0  0  0  0  0
   -1.5138    1.2346   -0.0149 C   0  0  0  0  0  0  0  0  0  0  0  0
   -1.4836   -1.5921    0.0388 C   0  0  0  0  0  0  0  0  0  0  0  0
   -2.7055    0.5110    0.0804 C   0  0  0  0  0  0  0  0  0  0  0  0
   -2.6902   -0.8935    0.1086 C   0  0  0  0  0  0  0  0  0  0  0  0
    5.3095    0.5313    0.4960 C   0  0  0  0  0  0  0  0  0  0  0  0
  1 11  1  0
  2 12  1  0
  3 13  1  0
  4  6  1  0
  4 10  1  0
  5  9  1  0
  5 15  1  0
  6  7  1  0
  6  9  1  0
  7  8  1  0
  8 10  2  0
  8 11  1  0
 10 12  1  0
 11 13  2  0
 12 14  2  0
 13 14  1  0
M  END
>  <PUBCHEM_COMPOUND_CID>  (1) 
36775

>  <PUBCHEM_CONFORMER_RMSD>  (1) 
0.6

>  <PUBCHEM_CONFORMER_DIVERSEORDER>  (1) 
1
4
5
3
2

>  <PUBCHEM_MMFF94_PARTIAL_CHARGES>  (1) 
17
1 -0.18
10 0.08
11 0.18
12 0.18
13 0.18
14 -0.15
15 0.27
2 -0.18
21 0.36
22 0.15
3 -0.18
4 -0.36
5 -0.9
6 0.28
7 0.14
8 -0.14
9 0.27

>  <PUBCHEM_EFFECTIVE_ROTOR_COUNT>  (1) 
2.6

>  <PUBCHEM_PHARMACOPHORE_FEATURES>  (1) 
5
1 4 acceptor
1 5 cation
1 5 donor
5 4 6 7 8 10 rings
6 8 10 11 12 13 14 rings

>  <PUBCHEM_HEAVY_ATOM_COUNT>  (1) 
15

>  <PUBCHEM_ATOM_DEF_STEREO_COUNT>  (1) 
0

>  <PUBCHEM_ATOM_UDEF_STEREO_COUNT>  (1) 
1

>  <PUBCHEM_BOND_DEF_STEREO_COUNT>  (1) 
0

>  <PUBCHEM_BOND_UDEF_STEREO_COUNT>  (1) 
0

>  <PUBCHEM_ISOTOPIC_ATOM_COUNT>  (1) 
0

>  <PUBCHEM_COMPONENT_COUNT>  (1) 
1

>  <PUBCHEM_CACTVS_TAUTO_COUNT>  (1) 
1

>  <PUBCHEM_CONFORMER_ID>  (1) 
00008FA700000001

>  <PUBCHEM_MMFF94_ENERGY>  (1) 
32.5572

>  <PUBCHEM_FEATURE_SELFOVERLAP>  (1) 
25.474

>  <PUBCHEM_SHAPE_FINGERPRINT>  (1) 
10319926 262 18269817832018158154
10411042 1 17834396000679486078
10493431 412 18341622473414251881
10608611 8 18342175519067450348
10967382 1 18338519621292894239
11132069 177 18411985762687862132
12173636 292 18338516322457662284
12251169 10 18334012787708364508
12390115 104 18128552465453206392
12403814 3 17531243963437751261
12500047 106 18412258450034878226
13140716 1 18266465497245819281
13214271 11 18343581875589963638
13380535 76 18341614789227161759
14614273 12 18044093450027525341
15042514 8 18336270136308917259
15219456 202 18131078104144606326
15669948 3 18410005572332393426
16945 1 18410586075632154079
17804303 29 18412547647631909776
17846911 113 18411981330149828329
193761 8 17906456880936178725
20510252 161 18271246002073613601
20645477 56 18411140221108483180
20645477 70 16701748138417071646
20871998 184 18200600314162555215
21339142 51 18337386149110977421
21501502 16 18119817056023319356
21524375 3 18200028413565405767
21650355 55 18337950220013855234
2334 1 17978515556751925445
23402539 116 18342730845432725151
23419403 2 17542753839940511077
23557571 272 18200608002412010222
23559900 14 18343024376867906238
257057 1 17764023971115136607
2748010 2 18125158487847993029
3071541 12 17547010724025247279
34934 24 18408598149919025531
366044 4 18409729534921091835
43471831 8 18191026690599987955
5104073 3 18410294683592022346
53812653 166 18342455919806432521
54173680 148 18265617769549425731
6333449 129 18412543227809719455
69090 78 18412542081069340663
7364860 26 17763463911753683783
9709674 26 18342744018187521502

>  <PUBCHEM_SHAPE_MULTIPOLES>  (1) 
303.45
7.3
2.83
0.66
9.15
1.06
-0.01
-2.68
-1.08
-2.6
-0.05
0.08
-0.01
0.06

>  <PUBCHEM_SHAPE_SELFOVERLAP>  (1) 
617.215

>  <PUBCHEM_SHAPE_VOLUME>  (1) 
181.1

>  <PUBCHEM_COORDINATE_TYPE>  (1) 
2
5
10

$$$$
