36771
     RDKit          3D

 13 14  0  0  1  0  0  0  0  0999 V2000
    0.6931   -1.4231   -0.0882 O   0  0  0  0  0  0  0  0  0  0  0  0
    3.7664    0.6246   -0.1947 N   0  0  0  0  0  0  0  0  0  0  0  0
    1.5361   -0.3147   -0.4999 C   0  0  0  0  0  0  0  0  0  0  0  0
    0.8195    1.0032   -0.1669 C   0  0  0  0  0  0  0  0  0  0  0  0
   -0.5722    0.5046   -0.1018 C   0  0  0  0  0  0  0  0  0  0  0  0
    2.8834   -0.4367    0.1931 C   0  0  0  0  0  0  0  0  0  0  0  0
   -0.5650   -0.8801   -0.0343 C   0  0  0  0  0  0  0  0  0  0  0  0
   -1.7591    1.2117   -0.0431 C   0  0  0  0  0  0  0  0  0  0  0  0
   -1.7291   -1.6121    0.0972 C   0  0  0  0  0  0  0  0  0  0  0  0
   -2.9507    0.4915    0.0767 C   0  0  0  0  0  0  0  0  0  0  0  0
   -2.9354   -0.9115    0.1479 C   0  0  0  0  0  0  0  0  0  0  0  0
   -4.2520    1.2194    0.1387 C   0  0  0  0  0  0  0  0  0  0  0  0
    5.0651    0.5231    0.4753 C   0  0  0  0  0  0  0  0  0  0  0  0
  1  3  1  0
  1  7  1  0
  2  6  1  0
  2 13  1  0
  3  4  1  0
  3  6  1  0
  4  5  1  0
  5  7  2  0
  5  8  1  0
  7  9  1  0
  8 10  2  0
  9 11  2  0
 10 11  1  0
 10 12  1  0
M  END
>  <PUBCHEM_COMPOUND_CID>  (1) 
36771

>  <PUBCHEM_CONFORMER_RMSD>  (1) 
0.6

>  <PUBCHEM_CONFORMER_DIVERSEORDER>  (1) 
1
5
3
2
4

>  <PUBCHEM_MMFF94_PARTIAL_CHARGES>  (1) 
17
1 -0.36
10 -0.14
11 -0.15
12 0.14
13 0.27
19 0.15
2 -0.9
20 0.15
21 0.36
22 0.15
3 0.28
4 0.14
5 -0.14
6 0.27
7 0.08
8 -0.15
9 -0.15

>  <PUBCHEM_EFFECTIVE_ROTOR_COUNT>  (1) 
2.6

>  <PUBCHEM_PHARMACOPHORE_FEATURES>  (1) 
5
1 1 acceptor
1 2 cation
1 2 donor
5 1 3 4 5 7 rings
6 5 7 8 9 10 11 rings

>  <PUBCHEM_HEAVY_ATOM_COUNT>  (1) 
13

>  <PUBCHEM_ATOM_DEF_STEREO_COUNT>  (1) 
0

>  <PUBCHEM_ATOM_UDEF_STEREO_COUNT>  (1) 
1

>  <PUBCHEM_BOND_DEF_STEREO_COUNT>  (1) 
0

>  <PUBCHEM_BOND_UDEF_STEREO_COUNT>  (1) 
0

>  <PUBCHEM_ISOTOPIC_ATOM_COUNT>  (1) 
0

>  <PUBCHEM_COMPONENT_COUNT>  (1) 
1

>  <PUBCHEM_CACTVS_TAUTO_COUNT>  (1) 
1

>  <PUBCHEM_CONFORMER_ID>  (1) 
00008FA300000001

>  <PUBCHEM_MMFF94_ENERGY>  (1) 
30.8228

>  <PUBCHEM_FEATURE_SELFOVERLAP>  (1) 
25.474

>  <PUBCHEM_SHAPE_FINGERPRINT>  (1) 
10014705 185 18408600374875823157
10608611 8 18341611538000287024
11062470 55 18272652337511400604
11132069 177 18410014333959844524
11401426 45 18411414012267291165
11543360 7 15769763671983198853
12119455 92 17346596370357539886
12251169 10 18260267451637389452
13024252 1 13840261494588186391
13214271 11 18343017817524436935
13380535 76 18411139117254564823
14325111 11 18410294692076175174
14897335 6 18410855430264019799
15219456 202 18202291273078374430
15536298 74 18340769239479938646
15775835 57 18334859394059655969
16945 1 18337965510456060167
17846911 113 18413106143303299080
200 152 17632852045079490333
20279233 1 18060145336002483206
20510252 161 18271528572430541065
20528008 55 18342453737973582488
20645464 45 18201725063102077559
20645477 56 18410858750089155725
20645477 70 17059783204633198006
20871998 184 18200600310147175767
21501502 16 18192155008230435957
23402539 116 18342448249158404805
23402655 69 18270952429065450325
23463225 33 18261110760034176078
23559900 14 18343305838875403422
2748010 2 18267025149112665517
366044 4 18411136922557743115
5104073 3 18409167692663110354
528886 8 18410853240057389747
53812653 166 18341892982732605856
6333449 129 18413669127885380151
69090 78 18342453729689655143
7364860 26 18196935470382928678

>  <PUBCHEM_SHAPE_MULTIPOLES>  (1) 
256.68
7.83
1.48
0.65
6.63
0.25
0
-2.55
-1.15
-0.9
-0.02
0.1
-0.01
0.06

>  <PUBCHEM_SHAPE_SELFOVERLAP>  (1) 
540.666

>  <PUBCHEM_SHAPE_VOLUME>  (1) 
147.2

>  <PUBCHEM_COORDINATE_TYPE>  (1) 
2
5
10

$$$$
