36773
     RDKit          3D

 16 17  0  0  1  0  0  0  0  0999 V2000
   -1.5959    3.0186   -0.0386 Cl  0  0  0  0  0  0  0  0  0  0  0  0
   -2.1697   -3.2232    0.1012 Cl  0  0  0  0  0  0  0  0  0  0  0  0
   -4.5016    1.6212    0.1840 Cl  0  0  0  0  0  0  0  0  0  0  0  0
    0.4049   -1.5486   -0.1363 O   0  0  0  0  0  0  0  0  0  0  0  0
    3.6577    0.2021   -0.2080 N   0  0  0  0  0  0  0  0  0  0  0  0
    1.3477   -0.5145   -0.5245 C   0  0  0  0  0  0  0  0  0  0  0  0
    0.7594    0.8560   -0.1548 C   0  0  0  0  0  0  0  0  0  0  0  0
    2.6796   -0.7806    0.1576 C   0  0  0  0  0  0  0  0  0  0  0  0
   -0.6732    0.4894   -0.0987 C   0  0  0  0  0  0  0  0  0  0  0  0
   -0.7965   -0.8912   -0.0655 C   0  0  0  0  0  0  0  0  0  0  0  0
   -1.7882    1.3035   -0.0196 C   0  0  0  0  0  0  0  0  0  0  0  0
   -2.0243   -1.5133    0.0506 C   0  0  0  0  0  0  0  0  0  0  0  0
    4.9431   -0.0387    0.4519 C   0  0  0  0  0  0  0  0  0  0  0  0
   -3.0423    0.6960    0.0849 C   0  0  0  0  0  0  0  0  0  0  0  0
   -3.1593   -0.7035    0.1215 C   0  0  0  0  0  0  0  0  0  0  0  0
    5.9586    1.0268    0.0943 C   0  0  0  0  0  0  0  0  0  0  0  0
  1 11  1  0
  2 12  1  0
  3 14  1  0
  4  6  1  0
  4 10  1  0
  5  8  1  0
  5 13  1  0
  6  7  1  0
  6  8  1  0
  7  9  1  0
  9 10  2  0
  9 11  1  0
 10 12  1  0
 11 14  2  0
 12 15  2  0
 13 16  1  0
 14 15  1  0
M  END
>  <PUBCHEM_COMPOUND_CID>  (1) 
36773

>  <PUBCHEM_CONFORMER_RMSD>  (1) 
0.6

>  <PUBCHEM_CONFORMER_DIVERSEORDER>  (1) 
1
7
12
4
3
6
9
2
8
5
10
11

>  <PUBCHEM_MMFF94_PARTIAL_CHARGES>  (1) 
17
1 -0.18
10 0.08
11 0.18
12 0.18
13 0.27
14 0.18
15 -0.15
2 -0.18
22 0.36
25 0.15
3 -0.18
4 -0.36
5 -0.9
6 0.28
7 0.14
8 0.27
9 -0.14

>  <PUBCHEM_EFFECTIVE_ROTOR_COUNT>  (1) 
3.6

>  <PUBCHEM_PHARMACOPHORE_FEATURES>  (1) 
5
1 4 acceptor
1 5 cation
1 5 donor
5 4 6 7 9 10 rings
6 9 10 11 12 14 15 rings

>  <PUBCHEM_HEAVY_ATOM_COUNT>  (1) 
16

>  <PUBCHEM_ATOM_DEF_STEREO_COUNT>  (1) 
0

>  <PUBCHEM_ATOM_UDEF_STEREO_COUNT>  (1) 
1

>  <PUBCHEM_BOND_DEF_STEREO_COUNT>  (1) 
0

>  <PUBCHEM_BOND_UDEF_STEREO_COUNT>  (1) 
0

>  <PUBCHEM_ISOTOPIC_ATOM_COUNT>  (1) 
0

>  <PUBCHEM_COMPONENT_COUNT>  (1) 
1

>  <PUBCHEM_CACTVS_TAUTO_COUNT>  (1) 
1

>  <PUBCHEM_CONFORMER_ID>  (1) 
00008FA500000001

>  <PUBCHEM_MMFF94_ENERGY>  (1) 
28.0592

>  <PUBCHEM_FEATURE_SELFOVERLAP>  (1) 
25.474

>  <PUBCHEM_SHAPE_FINGERPRINT>  (1) 
10014705 185 18408601457080844740
10319926 262 18341314649298341018
10411042 1 17906453582054071199
10493431 412 18340776936150841745
10967382 1 18266181630526063015
11132069 177 18410862044455522980
12107183 9 17757822330982441242
12173636 292 18266178331537778829
12236239 1 17822010917673718304
12251169 10 18333732399200078788
12390115 104 18056775238105777960
12403814 3 17603584114857981973
12500047 106 18412258432739029427
13140716 1 18266466575541157825
13214271 11 18343581875663953118
13380535 76 18341333293055215463
13897977 58 18408324397752559412
14508225 48 18124299756835570223
14790565 3 18268156348973189665
15042514 8 18336271218883275451
15196674 1 18411138000293983950
16945 1 18338246976853476719
193761 8 18050573142922657157
20510252 161 18198906916042564657
20645477 56 18411140203738657972
20645477 70 16701747030262911182
21267235 1 18336836397597578155
21339142 51 18409725201114525893
21637258 2 15358274791774307009
21650355 55 18337953505790528099
22224240 67 18341060623473482177
2297311 6 18342189894507437716
2334 1 18122630719369155421
23402539 116 18341886399096231039
23557571 272 18200883966803320086
23559900 14 18343024355324705886
2748010 2 18197216060648422351
3071541 12 17331120495104358959
34934 24 18408599240919969899
3545911 37 18411984629217273268
4214541 1 18410573985874183136
5104073 3 18337113367158780034
573450 72 18261099790988532210
9709674 26 18342462521614707022

>  <PUBCHEM_SHAPE_MULTIPOLES>  (1) 
324.03
9.33
2.81
0.66
15.58
0.56
0
-3.36
-1.13
-3.27
-0.06
0.05
0
0

>  <PUBCHEM_SHAPE_SELFOVERLAP>  (1) 
654.792

>  <PUBCHEM_SHAPE_VOLUME>  (1) 
193.9

>  <PUBCHEM_COORDINATE_TYPE>  (1) 
2
5
10

$$$$
