36808
     RDKit          3D

 17 18  0  0  1  0  0  0  0  0999 V2000
   -1.8925    3.0173   -0.0380 Cl  0  0  0  0  0  0  0  0  0  0  0  0
   -2.4431   -3.2265    0.1083 Cl  0  0  0  0  0  0  0  0  0  0  0  0
   -4.7800    1.6114    0.3243 Cl  0  0  0  0  0  0  0  0  0  0  0  0
    0.1123   -1.5442   -0.2513 O   0  0  0  0  0  0  0  0  0  0  0  0
    3.3531    0.2154   -0.4790 N   0  0  0  0  0  0  0  0  0  0  0  0
    1.0320   -0.5064   -0.6825 C   0  0  0  0  0  0  0  0  0  0  0  0
    0.4595    0.8614   -0.2791 C   0  0  0  0  0  0  0  0  0  0  0  0
    2.3969   -0.7712   -0.0685 C   0  0  0  0  0  0  0  0  0  0  0  0
   -0.9677    0.4907   -0.1529 C   0  0  0  0  0  0  0  0  0  0  0  0
   -1.0857   -0.8903   -0.1185 C   0  0  0  0  0  0  0  0  0  0  0  0
    4.6764   -0.0360    0.0966 C   0  0  0  0  0  0  0  0  0  0  0  0
   -2.0793    1.3016   -0.0154 C   0  0  0  0  0  0  0  0  0  0  0  0
   -2.3046   -1.5160    0.0565 C   0  0  0  0  0  0  0  0  0  0  0  0
    4.6125    0.0329    1.6199 C   0  0  0  0  0  0  0  0  0  0  0  0
    5.6719    0.9787   -0.4565 C   0  0  0  0  0  0  0  0  0  0  0  0
   -3.3251    0.6905    0.1493 C   0  0  0  0  0  0  0  0  0  0  0  0
   -3.4367   -0.7095    0.1868 C   0  0  0  0  0  0  0  0  0  0  0  0
  1 12  1  0
  2 13  1  0
  3 16  1  0
  4  6  1  0
  4 10  1  0
  5  8  1  0
  5 11  1  0
  6  7  1  0
  6  8  1  0
  7  9  1  0
  9 10  2  0
  9 12  1  0
 10 13  1  0
 11 14  1  0
 11 15  1  0
 12 16  2  0
 13 17  2  0
 16 17  1  0
M  END
>  <PUBCHEM_COMPOUND_CID>  (1) 
36808

>  <PUBCHEM_CONFORMER_RMSD>  (1) 
0.6

>  <PUBCHEM_CONFORMER_DIVERSEORDER>  (1) 
1
6
13
10
14
8
9
7
3
12
4
5
2
11

>  <PUBCHEM_MMFF94_PARTIAL_CHARGES>  (1) 
17
1 -0.18
10 0.08
11 0.27
12 0.18
13 0.18
16 0.18
17 -0.15
2 -0.18
23 0.36
3 -0.18
31 0.15
4 -0.36
5 -0.9
6 0.28
7 0.14
8 0.27
9 -0.14

>  <PUBCHEM_EFFECTIVE_ROTOR_COUNT>  (1) 
3.6

>  <PUBCHEM_PHARMACOPHORE_FEATURES>  (1) 
6
1 4 acceptor
1 5 cation
1 5 donor
3 11 14 15 hydrophobe
5 4 6 7 9 10 rings
6 9 10 12 13 16 17 rings

>  <PUBCHEM_HEAVY_ATOM_COUNT>  (1) 
17

>  <PUBCHEM_ATOM_DEF_STEREO_COUNT>  (1) 
0

>  <PUBCHEM_ATOM_UDEF_STEREO_COUNT>  (1) 
1

>  <PUBCHEM_BOND_DEF_STEREO_COUNT>  (1) 
0

>  <PUBCHEM_BOND_UDEF_STEREO_COUNT>  (1) 
0

>  <PUBCHEM_ISOTOPIC_ATOM_COUNT>  (1) 
0

>  <PUBCHEM_COMPONENT_COUNT>  (1) 
1

>  <PUBCHEM_CACTVS_TAUTO_COUNT>  (1) 
1

>  <PUBCHEM_CONFORMER_ID>  (1) 
00008FC800000001

>  <PUBCHEM_MMFF94_ENERGY>  (1) 
31.5536

>  <PUBCHEM_FEATURE_SELFOVERLAP>  (1) 
30.548

>  <PUBCHEM_SHAPE_FINGERPRINT>  (1) 
10062212 137 18187366579225118087
10319926 262 18341598310302765354
10366900 7 18060410318093722088
10411042 1 17906737256212286551
10493431 412 18341060605966603929
10912923 1 17895469332527950978
11132069 177 18412548695150035029
11265709 11 18123187068137996351
12107183 9 17684921415710245520
12173636 292 18266740182148325413
12236239 1 17822013116649527196
12251169 10 18334013874071268436
12390115 104 18057057808525956913
12403814 3 17676204654638772933
12596602 18 17385447626489029440
13140716 1 18338804545165520353
13214271 11 18272369797430384127
13897977 58 18335706056973931588
14420673 8 18047748197020254842
15042514 8 18336272322795359027
15099037 37 18341051920867732006
15375358 24 18201441354557841279
16945 1 18338250279799352479
17804303 29 18341050804207701520
1813 80 16515972467365322334
19050596 39 18259702311540602674
19784866 170 18412551989400669446
20510252 161 18199189490662771849
20645477 56 18412267203083281861
20645477 70 16629972010607807190
21065198 48 18187641427805853818
21339142 51 18409727400301292317
21637258 2 15430613860873354585
21650355 55 18337952402131639075
22224240 67 18341906143699356929
2297311 6 18270413775303769692
23366157 5 17753612647982430924
23402539 116 18341606023736617255
23557571 272 18201731677188254830
23559900 14 18343028748970767862
25147074 1 18044109057848534061
2748010 2 18197500834302428207
34934 24 18408601435869804239
3545911 37 18341335505105427388
4214541 1 18410294709794127572
5104073 3 18410292502012483930
53917941 68 18339061719612643181
573450 72 18260820519108504698
90316 7 17822284631370777716
9709674 26 18342745091670928182

>  <PUBCHEM_SHAPE_MULTIPOLES>  (1) 
344.61
10.21
2.67
0.84
13.67
0.55
-0.23
-3.12
-1.61
-3.71
-0.02
0.79
-0.02
-0.21

>  <PUBCHEM_SHAPE_SELFOVERLAP>  (1) 
696.312

>  <PUBCHEM_SHAPE_VOLUME>  (1) 
206.4

>  <PUBCHEM_COORDINATE_TYPE>  (1) 
2
5
10

$$$$
