36804
     RDKit          3D

 14 15  0  0  1  0  0  0  0  0999 V2000
   -1.7571   -3.0015    0.0939 Cl  0  0  0  0  0  0  0  0  0  0  0  0
   -4.2159    1.8113    0.1635 Cl  0  0  0  0  0  0  0  0  0  0  0  0
    0.7582   -1.2376   -0.1305 O   0  0  0  0  0  0  0  0  0  0  0  0
    3.9477    0.6267   -0.1769 N   0  0  0  0  0  0  0  0  0  0  0  0
    1.6669   -0.1711   -0.5119 C   0  0  0  0  0  0  0  0  0  0  0  0
    1.0280    1.1781   -0.1476 C   0  0  0  0  0  0  0  0  0  0  0  0
   -0.3910    0.7612   -0.0989 C   0  0  0  0  0  0  0  0  0  0  0  0
    3.0017   -0.3899    0.1814 C   0  0  0  0  0  0  0  0  0  0  0  0
   -0.4659   -0.6227   -0.0663 C   0  0  0  0  0  0  0  0  0  0  0  0
   -1.5343    1.5355   -0.0255 C   0  0  0  0  0  0  0  0  0  0  0  0
   -1.6717   -1.2877    0.0435 C   0  0  0  0  0  0  0  0  0  0  0  0
   -2.7668    0.8844    0.0729 C   0  0  0  0  0  0  0  0  0  0  0  0
   -2.8347   -0.5184    0.1087 C   0  0  0  0  0  0  0  0  0  0  0  0
    5.2352    0.4316    0.4938 C   0  0  0  0  0  0  0  0  0  0  0  0
  1 11  1  0
  2 12  1  0
  3  5  1  0
  3  9  1  0
  4  8  1  0
  4 14  1  0
  5  6  1  0
  5  8  1  0
  6  7  1  0
  7  9  2  0
  7 10  1  0
  9 11  1  0
 10 12  2  0
 11 13  2  0
 12 13  1  0
M  END
>  <PUBCHEM_COMPOUND_CID>  (1) 
36804

>  <PUBCHEM_CONFORMER_RMSD>  (1) 
0.6

>  <PUBCHEM_CONFORMER_DIVERSEORDER>  (1) 
1
5
3
2
4

>  <PUBCHEM_MMFF94_PARTIAL_CHARGES>  (1) 
17
1 -0.18
10 -0.15
11 0.18
12 0.18
13 -0.15
14 0.27
2 -0.18
20 0.15
21 0.36
22 0.15
3 -0.36
4 -0.9
5 0.28
6 0.14
7 -0.14
8 0.27
9 0.08

>  <PUBCHEM_EFFECTIVE_ROTOR_COUNT>  (1) 
2.6

>  <PUBCHEM_PHARMACOPHORE_FEATURES>  (1) 
5
1 3 acceptor
1 4 cation
1 4 donor
5 3 5 6 7 9 rings
6 7 9 10 11 12 13 rings

>  <PUBCHEM_HEAVY_ATOM_COUNT>  (1) 
14

>  <PUBCHEM_ATOM_DEF_STEREO_COUNT>  (1) 
0

>  <PUBCHEM_ATOM_UDEF_STEREO_COUNT>  (1) 
1

>  <PUBCHEM_BOND_DEF_STEREO_COUNT>  (1) 
0

>  <PUBCHEM_BOND_UDEF_STEREO_COUNT>  (1) 
0

>  <PUBCHEM_ISOTOPIC_ATOM_COUNT>  (1) 
0

>  <PUBCHEM_COMPONENT_COUNT>  (1) 
1

>  <PUBCHEM_CACTVS_TAUTO_COUNT>  (1) 
1

>  <PUBCHEM_CONFORMER_ID>  (1) 
00008FC400000001

>  <PUBCHEM_MMFF94_ENERGY>  (1) 
29.9459

>  <PUBCHEM_FEATURE_SELFOVERLAP>  (1) 
25.474

>  <PUBCHEM_SHAPE_FINGERPRINT>  (1) 
11132069 177 18410294705314647860
11543360 7 15769478881349920373
12251169 10 18334858324797649292
12500047 106 18412539912026336776
13024252 1 14634866453274783831
13140716 1 18194690482207422945
13214271 11 18272366507812294508
13380535 76 18341332206270117103
14897335 6 18410855421499862511
15042514 8 18335708286125495667
15219456 202 18130796624793755126
15375358 24 18201721734555157820
15669948 3 18410287047224688554
15775835 57 18334578997188483745
16945 1 18410867572241943743
193761 8 18050290568186554813
20510252 161 18272374114062596105
20645477 56 18410577266606977964
20645477 70 16773242786611994214
20871998 184 18200881789192000423
21501502 16 18191311682917498252
23402539 116 18341604958590281927
23402655 69 18198894817821500309
23557571 272 18201170939485752398
23559900 14 18343025454878434310
257057 1 17693091181857087607
2748010 2 18051975019799665799
293599 30 18339364054792387929
3071541 12 17547575877497390437
366044 4 18409730621621612273
5104073 3 18410293579843358594
53812653 166 18341892961284292537
53917941 68 18266719369021658693
54173680 148 18193277614071656531
573450 72 18261661649988507914
6333449 129 18412261744337941797
69090 78 18410853231356633375
7364860 26 18124877846084972886
9709674 26 18343025493042925870

>  <PUBCHEM_SHAPE_MULTIPOLES>  (1) 
281
7.66
2.26
0.66
8.54
1.57
-0.01
-3.23
-1.14
-2.5
-0.08
0.08
-0.01
0

>  <PUBCHEM_SHAPE_SELFOVERLAP>  (1) 
577.134

>  <PUBCHEM_SHAPE_VOLUME>  (1) 
165.8

>  <PUBCHEM_COORDINATE_TYPE>  (1) 
2
5
10

$$$$
