36828
     RDKit          3D

 12 11  0  0  0  0  0  0  0  0999 V2000
    4.3019    1.7730   -0.1627 O   0  0  0  0  0  0  0  0  0  0  0  0
    3.5968   -0.2143   -0.2090 N   0  0  0  0  0  0  0  0  0  0  0  0
    3.7100    0.9027    0.4870 N   0  0  0  0  0  0  0  0  0  0  0  0
   -1.3646    0.1687   -0.1162 C   0  0  0  0  0  0  0  0  0  0  0  0
   -0.1631   -0.7639    0.0524 C   0  0  0  0  0  0  0  0  0  0  0  0
   -2.7118   -0.5313    0.0903 C   0  0  0  0  0  0  0  0  0  0  0  0
    1.1536   -0.0202   -0.1872 C   0  0  0  0  0  0  0  0  0  0  0  0
   -3.9111    0.4094   -0.0532 C   0  0  0  0  0  0  0  0  0  0  0  0
    2.3540   -0.9433    0.0152 C   0  0  0  0  0  0  0  0  0  0  0  0
   -5.2575   -0.3044    0.0931 C   0  0  0  0  0  0  0  0  0  0  0  0
   -6.4534    0.6283   -0.0221 C   0  0  0  0  0  0  0  0  0  0  0  0
    4.7451   -1.1047    0.0124 C   0  0  0  0  0  0  0  0  0  0  0  0
  1  3  2  0
  2  3  1  0
  2  9  1  0
  2 12  1  0
  4  5  1  0
  4  6  1  0
  5  7  1  0
  6  8  1  0
  7  9  1  0
  8 10  1  0
 10 11  1  0
M  END
>  <PUBCHEM_COMPOUND_CID>  (1) 
36828

>  <PUBCHEM_CONFORMER_RMSD>  (1) 
0.8

>  <PUBCHEM_CONFORMER_DIVERSEORDER>  (1) 
1
256
6
65
189
202
213
215
282
4
124
13
89
260
11
281
290
147
67
92
249
194
287
245
33
103
255
205
227
119
25
5
66
211
69
286
98
75
151
27
272
72
32
104
252
141
265
214
20
10
236
273
62
175
139
122
275
159
278
57
7
43
279
128
242
196
82
59
116
210
70
172
9
63
264
155
225
106
149
283
123
64
203
127
78
101
148
17
229
204
267
24
131
23
51
18
241
91
150
84
30
54
96
179
154
80
16
105
162
168
74
112
77
222
87
183
34
192
250
209
246
2
39
212
83
8
118
93
186
259
178
263
15
234
38
60
254
71
199
220
19
200
291
113
187
173
231
73
3
126
100
108
86
266
46
216
26
52
166
41
137
114
182
40
56
121
158
115
253
270
110
76
12
219
271
193
61
248
191
31
21
79
277
257
125
235
262
143
36
184
285
268
85
221
233
239
223
53
224
130
35
195
280
133
144
55
218
132
94
97
240
274
165
45
161
176
163
152
198
50
251
232
157
88
49
48
37
90
109
146
135
237
228
177
107
22
14
185
140
102
244
230
289
169
190
138
99
269
47
145
117
217
42
28
206
58
167
238
197
226
170
120
164
181
68
207
156
95
258
111
276
292
29
44
293
180
288
160
174
201
208
129
188
261
153
247
243
171
136
142
81
134
284

>  <PUBCHEM_MMFF94_PARTIAL_CHARGES>  (1) 
5
1 -0.16
12 0.27
2 -0.36
3 -0.01
9 0.27

>  <PUBCHEM_EFFECTIVE_ROTOR_COUNT>  (1) 
8

>  <PUBCHEM_PHARMACOPHORE_FEATURES>  (1) 
3
1 11 hydrophobe
3 4 5 7 hydrophobe
3 6 8 10 hydrophobe

>  <PUBCHEM_HEAVY_ATOM_COUNT>  (1) 
12

>  <PUBCHEM_ATOM_DEF_STEREO_COUNT>  (1) 
0

>  <PUBCHEM_ATOM_UDEF_STEREO_COUNT>  (1) 
0

>  <PUBCHEM_BOND_DEF_STEREO_COUNT>  (1) 
0

>  <PUBCHEM_BOND_UDEF_STEREO_COUNT>  (1) 
0

>  <PUBCHEM_ISOTOPIC_ATOM_COUNT>  (1) 
0

>  <PUBCHEM_COMPONENT_COUNT>  (1) 
1

>  <PUBCHEM_CACTVS_TAUTO_COUNT>  (1) 
1

>  <PUBCHEM_CONFORMER_ID>  (1) 
00008FDC00000001

>  <PUBCHEM_MMFF94_ENERGY>  (1) 
9.0463

>  <PUBCHEM_FEATURE_SELFOVERLAP>  (1) 
15.235

>  <PUBCHEM_SHAPE_FINGERPRINT>  (1) 
11287383 113 18410294735426911259
13081056 2 18334856104019943604
13533116 47 17313658248536553186
14123238 8 18334576841515691279
1420 363 18186809071612517315
14251718 22 18343018917859101199
14251732 16 18337111284785280539
17834072 33 17988921206407127567
17834076 25 16660365865688634507
20621476 66 17773324440239556241
20645477 70 18200878370482545806
20719005 15 18410856547013512943
20767249 213 18411699894450036181
212847 35 18202281416149353648
220451 1 12107793995181344489
23402539 116 18343295964708582303
23532345 1 18411422808291988418
23557571 272 16951127262084265759
42788 4 18411419501689072015
449060 50 18408885135713362471
522135 26 18343584032206949342
5374978 207 18187077352101476584

>  <PUBCHEM_SHAPE_MULTIPOLES>  (1) 
231.12
14.48
1.17
0.62
11.03
0.31
0
2.27
-0.23
-1.49
-0.01
0.01
0
0.09

>  <PUBCHEM_SHAPE_SELFOVERLAP>  (1) 
414.999

>  <PUBCHEM_SHAPE_VOLUME>  (1) 
150.8

>  <PUBCHEM_COORDINATE_TYPE>  (1) 
2
5
10

$$$$
