36820
     RDKit          3D

 17 18  0  0  0  0  0  0  0  0999 V2000
   -0.6112   -1.0425    2.1043 O   0  0  0  0  0  0  0  0  0  0  0  0
   -0.4649   -0.0327   -2.4792 O   0  0  0  0  0  0  0  0  0  0  0  0
   -3.0197    2.4699    0.3959 O   0  0  0  0  0  0  0  0  0  0  0  0
   -1.7355    0.7723    1.2644 N   0  0  0  0  0  0  0  0  0  0  0  0
   -1.6628    1.2763   -1.0253 N   0  0  0  0  0  0  0  0  0  0  0  0
    1.2287    0.5918    0.1176 C   0  0  0  0  0  0  0  0  0  0  0  0
    0.0036   -0.2759   -0.1124 C   0  0  0  0  0  0  0  0  0  0  0  0
    2.1347    0.0707    1.2289 C   0  0  0  0  0  0  0  0  0  0  0  0
    2.1723    0.6298   -1.0803 C   0  0  0  0  0  0  0  0  0  0  0  0
    3.4648    0.7770    0.9851 C   0  0  0  0  0  0  0  0  0  0  0  0
    3.4838    1.1474   -0.4989 C   0  0  0  0  0  0  0  0  0  0  0  0
    0.4498   -1.7137   -0.4150 C   0  0  0  0  0  0  0  0  0  0  0  0
   -0.8075   -0.2548    1.1792 C   0  0  0  0  0  0  0  0  0  0  0  0
   -0.7278    0.2962   -1.3227 C   0  0  0  0  0  0  0  0  0  0  0  0
   -0.7299   -2.6001   -0.6473 C   0  0  0  0  0  0  0  0  0  0  0  0
   -2.1846    1.5799    0.2265 C   0  0  0  0  0  0  0  0  0  0  0  0
   -0.9936   -3.6917    0.0793 C   0  0  0  0  0  0  0  0  0  0  0  0
  1 13  2  0
  2 14  2  0
  3 16  2  0
  4 13  1  0
  4 16  1  0
  5 14  1  0
  5 16  1  0
  6  7  1  0
  6  8  1  0
  6  9  1  0
  7 12  1  0
  7 13  1  0
  7 14  1  0
  8 10  1  0
  9 11  1  0
 10 11  1  0
 12 15  1  0
 15 17  2  0
M  END
>  <PUBCHEM_COMPOUND_CID>  (1) 
36820

>  <PUBCHEM_CONFORMER_RMSD>  (1) 
0.6

>  <PUBCHEM_CONFORMER_DIVERSEORDER>  (1) 
1
10
5
11
6
9
4
3
8
2
7

>  <PUBCHEM_MMFF94_PARTIAL_CHARGES>  (1) 
17
1 -0.57
12 0.14
13 0.57
14 0.57
15 -0.29
16 0.69
17 -0.3
2 -0.57
29 0.37
3 -0.57
30 0.37
31 0.15
32 0.15
33 0.15
4 -0.49
5 -0.49
7 0.12

>  <PUBCHEM_EFFECTIVE_ROTOR_COUNT>  (1) 
4.6

>  <PUBCHEM_PHARMACOPHORE_FEATURES>  (1) 
8
1 1 acceptor
1 17 hydrophobe
1 2 acceptor
1 3 acceptor
1 4 donor
1 5 donor
5 6 8 9 10 11 rings
6 4 5 7 13 14 16 rings

>  <PUBCHEM_HEAVY_ATOM_COUNT>  (1) 
17

>  <PUBCHEM_ATOM_DEF_STEREO_COUNT>  (1) 
0

>  <PUBCHEM_ATOM_UDEF_STEREO_COUNT>  (1) 
0

>  <PUBCHEM_BOND_DEF_STEREO_COUNT>  (1) 
0

>  <PUBCHEM_BOND_UDEF_STEREO_COUNT>  (1) 
0

>  <PUBCHEM_ISOTOPIC_ATOM_COUNT>  (1) 
0

>  <PUBCHEM_COMPONENT_COUNT>  (1) 
1

>  <PUBCHEM_CACTVS_TAUTO_COUNT>  (1) 
5

>  <PUBCHEM_CONFORMER_ID>  (1) 
00008FD400000001

>  <PUBCHEM_MMFF94_ENERGY>  (1) 
50.2481

>  <PUBCHEM_FEATURE_SELFOVERLAP>  (1) 
40.636

>  <PUBCHEM_SHAPE_FINGERPRINT>  (1) 
1 1 18123469380126310390
12326174 3 17612012790417923603
12423570 1 13746736133080142363
13024252 1 14924485525175544654
13132413 78 17333382692939136643
13134695 92 16972790720363643213
14617773 55 17824256231670048820
14817 1 15760411208855106582
15309172 13 18261668182143284316
15775835 57 17845645946088259984
15852999 172 18043832912884052633
15906896 17 18187932827734619523
16945 1 18339924947234584083
18410436 195 17474100385473868311
19765921 60 17845641552283650673
19837323 101 18200576099110046668
20473742 2 17977103461673167543
20645476 183 18413952780463400236
21296965 67 17618500325586572526
21524375 3 18260544485401904672
23419403 2 17253203719297507570
23557571 272 17907282605531426088
2748010 2 18194429743148343659
298252 57 16845001312780512132
305870 269 18125430926081845400
430814 3 18268983207111845941
576247 118 17479158113228659934
5845 1 9438841771498165344
7364860 26 17764308345141595841
74978 22 18341045307250897360
81228 2 18126287681794635947

>  <PUBCHEM_SHAPE_MULTIPOLES>  (1) 
322.28
4.05
2.83
1.7
4.26
1.83
0.18
-1.86
-0.53
-3.43
-0.05
-0.14
-0.04
-0.23

>  <PUBCHEM_SHAPE_SELFOVERLAP>  (1) 
681.101

>  <PUBCHEM_SHAPE_VOLUME>  (1) 
178.2

>  <PUBCHEM_COORDINATE_TYPE>  (1) 
2
5
10

$$$$
