36827
     RDKit          3D

 12 13  0  0  0  0  0  0  0  0999 V2000
    1.6431    1.7535   -0.0439 S   0  0  0  0  0  0  0  0  0  0  0  0
    1.6444   -1.7526    0.0396 S   0  0  0  0  0  0  0  0  0  0  0  0
   -3.1772   -0.0005    0.0139 O   0  0  0  0  0  0  0  0  0  0  0  0
   -1.4387    2.2970   -0.0125 O   0  0  0  0  0  0  0  0  0  0  0  0
   -1.4372   -2.2949    0.1146 O   0  0  0  0  0  0  0  0  0  0  0  0
   -1.8006   -0.0024   -0.0706 N   0  0  0  0  0  0  0  0  0  0  0  0
    0.3346    0.6675   -0.0279 C   0  0  0  0  0  0  0  0  0  0  0  0
    0.3350   -0.6683   -0.0032 C   0  0  0  0  0  0  0  0  0  0  0  0
    3.0130    0.6459    0.4151 C   0  0  0  0  0  0  0  0  0  0  0  0
    3.0206   -0.6438   -0.3972 C   0  0  0  0  0  0  0  0  0  0  0  0
   -1.0689    1.1370   -0.0445 C   0  0  0  0  0  0  0  0  0  0  0  0
   -1.0682   -1.1384    0.0165 C   0  0  0  0  0  0  0  0  0  0  0  0
  1  7  1  0
  1  9  1  0
  2  8  1  0
  2 10  1  0
  3  6  1  0
  4 11  2  0
  5 12  2  0
  6 11  1  0
  6 12  1  0
  7  8  2  0
  7 11  1  0
  8 12  1  0
  9 10  1  0
M  END
>  <PUBCHEM_COMPOUND_CID>  (1) 
36827

>  <PUBCHEM_CONFORMER_RMSD>  (1) 
0.4

>  <PUBCHEM_CONFORMER_DIVERSEORDER>  (1) 
1

>  <PUBCHEM_MMFF94_PARTIAL_CHARGES>  (1) 
13
1 -0.33
10 0.23
11 0.62
12 0.62
17 0.4
2 -0.33
3 -0.44
4 -0.57
5 -0.57
6 -0.08
7 0.12
8 0.12
9 0.23

>  <PUBCHEM_EFFECTIVE_ROTOR_COUNT>  (1) 
1

>  <PUBCHEM_PHARMACOPHORE_FEATURES>  (1) 
4
1 4 acceptor
1 5 acceptor
5 6 7 8 11 12 rings
6 1 2 7 8 9 10 rings

>  <PUBCHEM_HEAVY_ATOM_COUNT>  (1) 
12

>  <PUBCHEM_ATOM_DEF_STEREO_COUNT>  (1) 
0

>  <PUBCHEM_ATOM_UDEF_STEREO_COUNT>  (1) 
0

>  <PUBCHEM_BOND_DEF_STEREO_COUNT>  (1) 
0

>  <PUBCHEM_BOND_UDEF_STEREO_COUNT>  (1) 
0

>  <PUBCHEM_ISOTOPIC_ATOM_COUNT>  (1) 
0

>  <PUBCHEM_COMPONENT_COUNT>  (1) 
1

>  <PUBCHEM_CACTVS_TAUTO_COUNT>  (1) 
1

>  <PUBCHEM_CONFORMER_ID>  (1) 
00008FDB00000001

>  <PUBCHEM_MMFF94_ENERGY>  (1) 
23.5444

>  <PUBCHEM_FEATURE_SELFOVERLAP>  (1) 
20.344

>  <PUBCHEM_SHAPE_FINGERPRINT>  (1) 
10967382 1 18410855485919064580
11206711 2 18337390426861500813
12423570 1 7960583989190554933
12524768 44 18411700988975899070
12897270 3 18411138073619450046
13380535 76 18411412925482543454
13897977 150 18268144438690474980
14325111 11 18339079276800995940
16945 1 18410011039651239694
193761 8 18410575088994969484
19973954 147 18411139164641395932
20201158 50 18412824694407602510
20588541 1 18412265055515081904
20871998 184 18200597019780077911
21040471 1 18265615386079570012
21501502 16 18267021665651478288
2334 1 17977948217294428750
23463225 33 18263641938738106704
23552423 10 18189335843447672710
23559900 14 18126853699642038798
2748010 2 18122624126304251166
369184 2 18344143691846033360
5084963 1 18130223765944450432
528886 8 18339636849513170738
53812653 166 18268989782912465520
66348 1 18338797814909374430

>  <PUBCHEM_SHAPE_MULTIPOLES>  (1) 
232.06
4.07
2.3
0.63
0.49
0
0
0
0.02
-0.22
0.03
0.17
0
0.15

>  <PUBCHEM_SHAPE_SELFOVERLAP>  (1) 
474.19

>  <PUBCHEM_SHAPE_VOLUME>  (1) 
136.1

>  <PUBCHEM_COORDINATE_TYPE>  (1) 
2
5
10

$$$$
