36825
     RDKit          3D

 14 15  0  0  0  0  0  0  0  0999 V2000
    2.1138   -1.8571   -0.0014 S   0  0  0  0  0  0  0  0  0  0  0  0
    2.3888    1.6252    0.2774 S   0  0  0  0  0  0  0  0  0  0  0  0
   -0.9364   -2.1243   -0.5642 O   0  0  0  0  0  0  0  0  0  0  0  0
   -0.5765    2.4508   -0.1773 O   0  0  0  0  0  0  0  0  0  0  0  0
   -1.1692    0.1999   -0.4248 N   0  0  0  0  0  0  0  0  0  0  0  0
    0.9122   -0.6594   -0.1249 C   0  0  0  0  0  0  0  0  0  0  0  0
    1.0179    0.6651   -0.0257 C   0  0  0  0  0  0  0  0  0  0  0  0
   -0.4985   -0.9980   -0.3989 C   0  0  0  0  0  0  0  0  0  0  0  0
   -0.3219    1.2583   -0.2106 C   0  0  0  0  0  0  0  0  0  0  0  0
    3.4804   -0.8990    0.7246 C   0  0  0  0  0  0  0  0  0  0  0  0
    3.7220    0.4183   -0.0029 C   0  0  0  0  0  0  0  0  0  0  0  0
   -2.5934    0.3229   -0.6658 C   0  0  0  0  0  0  0  0  0  0  0  0
   -3.3118    0.2617    0.6438 C   0  0  0  0  0  0  0  0  0  0  0  0
   -4.2272   -0.6645    0.9508 C   0  0  0  0  0  0  0  0  0  0  0  0
  1  6  1  0
  1 10  1  0
  2  7  1  0
  2 11  1  0
  3  8  2  0
  4  9  2  0
  5  8  1  0
  5  9  1  0
  5 12  1  0
  6  7  2  0
  6  8  1  0
  7  9  1  0
 10 11  1  0
 12 13  1  0
 13 14  2  0
M  END
>  <PUBCHEM_COMPOUND_CID>  (1) 
36825

>  <PUBCHEM_CONFORMER_RMSD>  (1) 
0.6

>  <PUBCHEM_CONFORMER_DIVERSEORDER>  (1) 
1
3
2

>  <PUBCHEM_MMFF94_PARTIAL_CHARGES>  (1) 
17
1 -0.33
10 0.23
11 0.23
12 0.44
13 -0.29
14 -0.3
2 -0.33
21 0.15
22 0.15
23 0.15
3 -0.57
4 -0.57
5 -0.42
6 0.12
7 0.12
8 0.62
9 0.62

>  <PUBCHEM_EFFECTIVE_ROTOR_COUNT>  (1) 
3

>  <PUBCHEM_PHARMACOPHORE_FEATURES>  (1) 
5
1 14 hydrophobe
1 3 acceptor
1 4 acceptor
5 5 6 7 8 9 rings
6 1 2 6 7 10 11 rings

>  <PUBCHEM_HEAVY_ATOM_COUNT>  (1) 
14

>  <PUBCHEM_ATOM_DEF_STEREO_COUNT>  (1) 
0

>  <PUBCHEM_ATOM_UDEF_STEREO_COUNT>  (1) 
0

>  <PUBCHEM_BOND_DEF_STEREO_COUNT>  (1) 
0

>  <PUBCHEM_BOND_UDEF_STEREO_COUNT>  (1) 
0

>  <PUBCHEM_ISOTOPIC_ATOM_COUNT>  (1) 
0

>  <PUBCHEM_COMPONENT_COUNT>  (1) 
1

>  <PUBCHEM_CACTVS_TAUTO_COUNT>  (1) 
1

>  <PUBCHEM_CONFORMER_ID>  (1) 
00008FD900000001

>  <PUBCHEM_MMFF94_ENERGY>  (1) 
16.7644

>  <PUBCHEM_FEATURE_SELFOVERLAP>  (1) 
25.417

>  <PUBCHEM_SHAPE_FINGERPRINT>  (1) 
10219947 1 18411703188273272753
10967382 1 18411414029578918662
10980938 120 18410576222876891658
11132069 177 18130211705808229850
11471102 20 18410848854552941236
11471102 22 18337404776631943323
12032990 46 18335143067975342899
12251169 10 18343020003641769403
12382932 28 18341047501314449962
13140716 1 18268141140514073794
13221675 6 18411415103368345286
13380535 21 18339646753755403430
14144814 61 18412822456655677928
14252887 29 18340499893074082219
14943859 89 15051735287286980251
15219456 202 18261671489384055813
15309172 13 18343299245383341503
15375462 189 18261385655005198386
15775835 57 18341613767499503912
16945 1 18340756079520341012
17844478 74 18113053822524908029
193761 8 17762334021494759932
20645477 70 18339067199653692455
20871998 22 18268157469557960663
21256008 23 18410016558605217329
21501502 16 18197209454751630118
23184049 59 18413674608131716091
2334 1 18051120699317546886
23463225 33 18409164437230808444
23493267 7 17604978239714945429
23552423 10 18190451856608955348
25610 137 18334297552302989276
2748010 2 17908976617757529878
528886 8 18341040913187909298
53812653 166 18270961357632181624

>  <PUBCHEM_SHAPE_MULTIPOLES>  (1) 
279.09
6.33
2.07
0.83
2.47
0.15
-0.08
-0.78
-1.99
-0.73
0.14
0.32
-0.09
0.09

>  <PUBCHEM_SHAPE_SELFOVERLAP>  (1) 
564.638

>  <PUBCHEM_SHAPE_VOLUME>  (1) 
164.8

>  <PUBCHEM_COORDINATE_TYPE>  (1) 
2
5
10

$$$$
