36831
     RDKit          3D

 31 34  0  0  1  0  0  0  0  0999 V2000
    0.8318    0.2162    1.3520 S   0  0  0  0  0  0  0  0  0  0  0  0
   -3.6304    0.9342   -0.2773 S   0  0  0  0  0  0  0  0  0  0  0  0
    0.7253   -3.5768   -1.3341 O   0  0  0  0  0  0  0  0  0  0  0  0
   -2.7947   -3.4745    0.0008 O   0  0  0  0  0  0  0  0  0  0  0  0
    4.7254   -1.5133    1.0631 O   0  0  0  0  0  0  0  0  0  0  0  0
   -2.3847   -2.1793   -1.8388 O   0  0  0  0  0  0  0  0  0  0  0  0
    6.2764   -0.4824   -0.9692 O   0  0  0  0  0  0  0  0  0  0  0  0
   -0.0465   -2.0545    0.2931 N   0  0  0  0  0  0  0  0  0  0  0  0
    2.8736   -1.3413   -0.3266 N   0  0  0  0  0  0  0  0  0  0  0  0
   -6.0581    2.0766   -0.7339 N   0  0  0  0  0  0  0  0  0  0  0  0
   -6.0547    0.7110    0.9507 N   0  0  0  0  0  0  0  0  0  0  0  0
   -7.3131    2.0938   -0.2636 N   0  0  0  0  0  0  0  0  0  0  0  0
   -7.3051    1.2564    0.7663 N   0  0  0  0  0  0  0  0  0  0  0  0
    0.8833   -1.5898    1.3062 C   0  0  0  0  0  0  0  0  0  0  0  0
    1.9940   -2.2231    0.4400 C   0  0  0  0  0  0  0  0  0  0  0  0
    0.8269   -2.8186   -0.3981 C   0  0  0  0  0  0  0  0  0  0  0  0
   -1.3557   -1.6967    0.2490 C   0  0  0  0  0  0  0  0  0  0  0  0
   -1.8281   -0.6524    0.9704 C   0  0  0  0  0  0  0  0  0  0  0  0
   -0.9358    0.2654    1.8032 C   0  0  0  0  0  0  0  0  0  0  0  0
   -3.2802   -0.2442    1.0380 C   0  0  0  0  0  0  0  0  0  0  0  0
    4.1840   -1.0584    0.0576 C   0  0  0  0  0  0  0  0  0  0  0  0
   -2.2234   -2.4527   -0.6665 C   0  0  0  0  0  0  0  0  0  0  0  0
    4.9012   -0.1329   -0.9152 C   0  0  0  0  0  0  0  0  0  0  0  0
    4.7815    1.3144   -0.4993 C   0  0  0  0  0  0  0  0  0  0  0  0
   -5.3471    1.2404    0.0198 C   0  0  0  0  0  0  0  0  0  0  0  0
    3.7139    2.0669   -0.9614 C   0  0  0  0  0  0  0  0  0  0  0  0
    5.7411    1.8616    0.3369 C   0  0  0  0  0  0  0  0  0  0  0  0
    3.6031    3.4032   -0.5773 C   0  0  0  0  0  0  0  0  0  0  0  0
    5.6301    3.1980    0.7211 C   0  0  0  0  0  0  0  0  0  0  0  0
    4.5611    3.9687    0.2640 C   0  0  0  0  0  0  0  0  0  0  0  0
   -5.6953    2.8840   -1.8711 C   0  0  0  0  0  0  0  0  0  0  0  0
  1 14  1  0
  1 19  1  0
  2 20  1  0
  2 25  1  0
  3 16  2  0
  4 22  1  0
  5 21  2  0
  6 22  2  0
  7 23  1  0
  8 14  1  0
  8 16  1  0
  8 17  1  0
  9 15  1  0
  9 21  1  0
 10 12  1  0
 10 25  1  0
 10 31  1  0
 11 13  1  0
 11 25  2  0
 12 13  2  0
 14 15  1  0
 15 16  1  0
 17 18  2  0
 17 22  1  0
 18 19  1  0
 18 20  1  0
 21 23  1  0
 23 24  1  0
 24 26  2  0
 24 27  1  0
 26 28  1  0
 27 29  2  0
 28 30  2  0
 29 30  1  0
M  END
>  <PUBCHEM_COMPOUND_CID>  (1) 
36831

>  <PUBCHEM_CONFORMER_RMSD>  (1) 
1

>  <PUBCHEM_CONFORMER_DIVERSEORDER>  (1) 
1
109
193
156
197
181
227
218
91
214
145
222
198
19
124
120
168
185
206
103
80
150
44
210
180
99
34
226
184
232
74
130
205
204
221
141
119
8
159
131
228
65
169
42
233
225
128
200
142
26
186
85
114
84
217
173
53
129
199
202
215
132
46
189
50
39
116
220
72
164
105
203
139
73
165
111
211
59
152
157
179
69
55
25
174
183
161
90
96
32
66
113
231
219
58
190
13
178
209
136
30
121
3
47
167
146
163
104
100
191
20
112
122
162
175
22
235
101
60
106
98
27
102
138
177
158
31
117
196
135
51
79
17
56
166
23
110
37
207
154
14
108
57
230
149
213
21
208
48
144
107
35
61
212
82
182
24
134
153
151
54
83
147
176
187
76
67
68
70
172
125
16
2
143
194
133
201
88
115
188
140
7
229
137
93
45
170
52
10
40
171
49
43
86
36
89
118
41
6
94
87
127
216
18
12
192
29
9
75
224
64
123
28
77
95
195
223
11
92
38
15
126
155
234
78
71
4
5
62
81
148
160
97
63
33

>  <PUBCHEM_MMFF94_PARTIAL_CHARGES>  (1) 
38
1 -0.45
10 0.31
11 -0.34
12 -0.42
14 0.44
15 0.28
16 0.58
17 0.12
18 -0.28
19 0.37
2 -0.29
20 0.37
21 0.57
22 0.71
23 0.48
24 -0.14
25 0.24
26 -0.15
27 -0.15
28 -0.15
29 -0.15
3 -0.57
30 -0.15
31 0.26
36 0.37
4 -0.65
40 0.5
41 0.4
42 0.15
43 0.15
44 0.15
45 0.15
46 0.15
5 -0.57
6 -0.57
7 -0.68
8 -0.39
9 -0.65

>  <PUBCHEM_EFFECTIVE_ROTOR_COUNT>  (1) 
8.6

>  <PUBCHEM_PHARMACOPHORE_FEATURES>  (1) 
13
1 3 acceptor
1 4 acceptor
1 5 acceptor
1 6 acceptor
1 7 acceptor
1 7 donor
1 9 donor
3 10 11 25 cation
3 4 6 22 anion
4 8 14 15 16 rings
5 10 11 12 13 25 rings
6 1 8 14 17 18 19 rings
6 24 26 27 28 29 30 rings

>  <PUBCHEM_HEAVY_ATOM_COUNT>  (1) 
31

>  <PUBCHEM_ATOM_DEF_STEREO_COUNT>  (1) 
2

>  <PUBCHEM_ATOM_UDEF_STEREO_COUNT>  (1) 
1

>  <PUBCHEM_BOND_DEF_STEREO_COUNT>  (1) 
0

>  <PUBCHEM_BOND_UDEF_STEREO_COUNT>  (1) 
0

>  <PUBCHEM_ISOTOPIC_ATOM_COUNT>  (1) 
0

>  <PUBCHEM_COMPONENT_COUNT>  (1) 
1

>  <PUBCHEM_CACTVS_TAUTO_COUNT>  (1) 
2

>  <PUBCHEM_CONFORMER_ID>  (1) 
00008FDF00000001

>  <PUBCHEM_MMFF94_ENERGY>  (1) 
74.5688

>  <PUBCHEM_FEATURE_SELFOVERLAP>  (1) 
66.292

>  <PUBCHEM_SHAPE_FINGERPRINT>  (1) 
10673678 19 18413111645525462483
11070050 100 16153704306434735208
11315621 136 10231765496303827880
11456790 92 17822284644677166416
11621639 179 18260829251167622540
12422481 6 17748829630756998277
12633257 1 15213306373367852422
12925494 130 18335420217962106848
14117953 113 18342460284300294510
14739800 52 17604704457330422801
15082195 135 18124589782939790305
15347590 135 11531060620108818422
15510800 12 10735881664480571772
18335252 114 18338234856535012302
20511986 3 18129940199983434832
20715895 44 18412545423055024584
21033648 29 17822296833694170384
21298829 104 18337670931729944764
21716022 299 14834454060193294238
22122407 14 18262526896429682193
23559900 14 17774454841108438174
23569914 2 17244659539240558613
249057 3 18341616975993399254
25122255 55 12175614093018063501
2838139 119 18334286540212330567
3388396 114 16539888322374567316
3472631 163 18342742922474787454
552612 73 18339366387317943259
6898599 12 18129660936450898495

>  <PUBCHEM_SHAPE_MULTIPOLES>  (1) 
586.43
17.37
4.77
1.41
13.64
0.73
0.06
19.09
1.98
-1.72
1.32
0.67
-0.03
0.97

>  <PUBCHEM_SHAPE_SELFOVERLAP>  (1) 
1235.056

>  <PUBCHEM_SHAPE_VOLUME>  (1) 
331.7

>  <PUBCHEM_COORDINATE_TYPE>  (1) 
2
5
10

$$$$
