36859
     RDKit          3D

  5  4  0  0  0  0  0  0  0  0999 V2000
    1.2718    1.4135    0.0006 Cl  0  0  0  0  0  0  0  0  0  0  0  0
    1.2826   -1.3247    0.0008 C   0  0  0  0  0  0  0  0  0  0  0  0
    0.4455   -0.0957   -0.0017 C   0  0  0  0  0  0  0  0  0  0  0  0
   -0.8516   -0.0317   -0.0005 C   0  0  0  0  0  0  0  0  0  0  0  0
   -2.1483    0.0386    0.0007 C   0  0  0  0  0  0  0  0  0  0  0  0
  1  3  1  0
  2  3  1  0
  3  4  2  0
  4  5  2  0
M  END
>  <PUBCHEM_COMPOUND_CID>  (1) 
36859

>  <PUBCHEM_CONFORMER_RMSD>  (1) 
0.4

>  <PUBCHEM_CONFORMER_DIVERSEORDER>  (1) 
1

>  <PUBCHEM_MMFF94_PARTIAL_CHARGES>  (1) 
7
1 -0.14
10 0.15
2 0.14
3 0.07
4 -0.13
5 -0.24
9 0.15

>  <PUBCHEM_EFFECTIVE_ROTOR_COUNT>  (1) 
0

>  <PUBCHEM_PHARMACOPHORE_FEATURES>  (1) 
1
1 5 hydrophobe

>  <PUBCHEM_HEAVY_ATOM_COUNT>  (1) 
5

>  <PUBCHEM_ATOM_DEF_STEREO_COUNT>  (1) 
0

>  <PUBCHEM_ATOM_UDEF_STEREO_COUNT>  (1) 
0

>  <PUBCHEM_BOND_DEF_STEREO_COUNT>  (1) 
0

>  <PUBCHEM_BOND_UDEF_STEREO_COUNT>  (1) 
0

>  <PUBCHEM_ISOTOPIC_ATOM_COUNT>  (1) 
0

>  <PUBCHEM_COMPONENT_COUNT>  (1) 
1

>  <PUBCHEM_CACTVS_TAUTO_COUNT>  (1) 
1

>  <PUBCHEM_CONFORMER_ID>  (1) 
00008FFB00000001

>  <PUBCHEM_MMFF94_ENERGY>  (1) 
1.457

>  <PUBCHEM_FEATURE_SELFOVERLAP>  (1) 
5.074

>  <PUBCHEM_SHAPE_FINGERPRINT>  (1) 
139733 1 9294415327152982466
20096714 4 18268712886128208144
21040471 1 18050286161180856932
23552449 11 18189038854817149435
24536 1 18410281519675228977
29004967 10 18337392612989363130
5943 1 17270271592887461910

>  <PUBCHEM_SHAPE_MULTIPOLES>  (1) 
104.77
2.38
1.4
0.62
1.28
0.03
0
0.16
0
-0.97
0
-0.01
0.01
0

>  <PUBCHEM_SHAPE_SELFOVERLAP>  (1) 
179.713

>  <PUBCHEM_SHAPE_VOLUME>  (1) 
70

>  <PUBCHEM_COORDINATE_TYPE>  (1) 
2
5
10

$$$$
