36850
     RDKit          3D

 20 21  0  0  0  0  0  0  0  0999 V2000
    6.7771    0.8672    0.0254 Cl  0  0  0  0  0  0  0  0  0  0  0  0
   -5.2170    1.3607    0.0074 F   0  0  0  0  0  0  0  0  0  0  0  0
   -3.7023    1.9534    1.4422 F   0  0  0  0  0  0  0  0  0  0  0  0
   -3.4291    2.3976   -0.6689 F   0  0  0  0  0  0  0  0  0  0  0  0
    0.8758   -2.3162    0.4162 O   0  0  0  0  0  0  0  0  0  0  0  0
    1.0102   -0.0596   -0.1292 N   0  0  0  0  0  0  0  0  0  0  0  0
    2.9116    1.1136   -0.9045 N   0  0  0  0  0  0  0  0  0  0  0  0
   -1.1289   -1.1694   -0.0418 C   0  0  0  0  0  0  0  0  0  0  0  0
   -3.1663    0.1286   -0.0083 C   0  0  0  0  0  0  0  0  0  0  0  0
   -1.7823    0.0488    0.1452 C   0  0  0  0  0  0  0  0  0  0  0  0
   -1.8598   -2.3077   -0.3822 C   0  0  0  0  0  0  0  0  0  0  0  0
   -3.8971   -1.0097   -0.3487 C   0  0  0  0  0  0  0  0  0  0  0  0
    0.3141   -1.2530    0.1179 C   0  0  0  0  0  0  0  0  0  0  0  0
   -3.2438   -2.2279   -0.5355 C   0  0  0  0  0  0  0  0  0  0  0  0
   -3.8652    1.4313    0.1907 C   0  0  0  0  0  0  0  0  0  0  0  0
    2.4090    0.1687   -0.0927 C   0  0  0  0  0  0  0  0  0  0  0  0
    3.1420   -0.6058    0.7791 C   0  0  0  0  0  0  0  0  0  0  0  0
    4.5151   -0.3907    0.8214 C   0  0  0  0  0  0  0  0  0  0  0  0
    5.0874    0.5758    0.0019 C   0  0  0  0  0  0  0  0  0  0  0  0
    4.2496    1.2944   -0.8358 C   0  0  0  0  0  0  0  0  0  0  0  0
  1 19  1  0
  2 15  1  0
  3 15  1  0
  4 15  1  0
  5 13  2  0
  6 13  1  0
  6 16  1  0
  7 16  2  0
  7 20  1  0
  8 10  1  0
  8 11  2  0
  8 13  1  0
  9 10  2  0
  9 12  1  0
  9 15  1  0
 11 14  1  0
 12 14  2  0
 16 17  1  0
 17 18  2  0
 18 19  1  0
 19 20  2  0
M  END
>  <PUBCHEM_COMPOUND_CID>  (1) 
36850

>  <PUBCHEM_CONFORMER_RMSD>  (1) 
0.6

>  <PUBCHEM_CONFORMER_DIVERSEORDER>  (1) 
4
1
5
3
6
2

>  <PUBCHEM_MMFF94_PARTIAL_CHARGES>  (1) 
28
1 -0.18
10 -0.15
11 -0.15
12 -0.15
13 0.54
14 -0.15
15 1.16
16 0.43
17 -0.15
18 -0.15
19 0.18
2 -0.34
20 0.16
21 0.15
22 0.15
23 0.15
24 0.15
25 0.37
26 0.15
27 0.15
28 0.15
3 -0.34
4 -0.34
5 -0.57
6 -0.55
7 -0.62
8 0.09
9 -0.14

>  <PUBCHEM_EFFECTIVE_ROTOR_COUNT>  (1) 
4

>  <PUBCHEM_PHARMACOPHORE_FEATURES>  (1) 
4
1 5 acceptor
1 6 donor
6 7 16 17 18 19 20 rings
6 8 9 10 11 12 14 rings

>  <PUBCHEM_HEAVY_ATOM_COUNT>  (1) 
20

>  <PUBCHEM_ATOM_DEF_STEREO_COUNT>  (1) 
0

>  <PUBCHEM_ATOM_UDEF_STEREO_COUNT>  (1) 
0

>  <PUBCHEM_BOND_DEF_STEREO_COUNT>  (1) 
0

>  <PUBCHEM_BOND_UDEF_STEREO_COUNT>  (1) 
0

>  <PUBCHEM_ISOTOPIC_ATOM_COUNT>  (1) 
0

>  <PUBCHEM_COMPONENT_COUNT>  (1) 
1

>  <PUBCHEM_CACTVS_TAUTO_COUNT>  (1) 
3

>  <PUBCHEM_CONFORMER_ID>  (1) 
00008FF200000004

>  <PUBCHEM_MMFF94_ENERGY>  (1) 
54.4509

>  <PUBCHEM_FEATURE_SELFOVERLAP>  (1) 
20.297

>  <PUBCHEM_SHAPE_FINGERPRINT>  (1) 
10411042 1 17835518606984852727
10595046 47 18264767839077673998
10646746 165 18273210924131386338
10906281 52 17749681792057015740
10912923 1 18041270054607023562
10937287 8 17411919275303376329
11315181 36 18188206623837097862
11552529 35 16879084128921596946
12107183 9 18046616803369465282
12236239 1 18333447669096957306
12390115 104 18130521747108136379
12403259 415 17774717671035576602
12596602 18 17167865278789294081
12916748 109 18337397144406817470
13073987 5 18335979857134410218
13167823 11 18335416906970069978
13177829 73 18409448085883015968
13583140 156 17275099570215638726
14251764 75 17554623794303619009
14466204 15 18410005538252178224
14739800 52 18052245495967291576
14767858 380 18199166470423802501
15042514 8 18124034800140510615
15183329 4 18410295783868527398
15196674 1 18410009923176403842
15209294 21 18335137583312584087
15475509 8 18187097127059101884
15778101 99 18341898480385612241
15880784 105 13335034818855934765
1741750 31 18272373036252527883
17844677 252 18270123551542084264
19489759 90 18272931660983874022
20645477 56 18344148090108965283
21033648 29 17489010661374522266
21065198 48 18333442158227064458
21426921 1 18270961366285919959
23402539 116 18341890822986496268
23402655 69 18409447012209776766
23557571 272 17988368155894537070
23559900 14 18059581235520429854
25147074 1 18337936923138634747
2838139 119 17460293488042623525
2916195 48 18129654335613477424
3268164 11 17988353866854802711
3545911 37 18343867710074588950
38570 142 16952565556991102468
4214541 1 18411699915360519684
441001 317 18272932747589501088
474 4 18040715865812015946
5104073 3 18187076304604048288
54446538 1 18335137648116908164
573450 72 18337662096617934402
6327066 14 18264200327890538461
6328613 192 18261681488859731740
633830 44 18186521008003428814
7062679 6 18335143107210492412
7808743 9 18411698764299027361
9981440 41 18408605880987493547

>  <PUBCHEM_SHAPE_MULTIPOLES>  (1) 
375.81
13.19
2.3
0.86
12.81
0.06
-0.08
-5.97
-0.04
-3.23
0.06
0.13
-0.17
-1.22

>  <PUBCHEM_SHAPE_SELFOVERLAP>  (1) 
804.326

>  <PUBCHEM_SHAPE_VOLUME>  (1) 
210.2

>  <PUBCHEM_COORDINATE_TYPE>  (1) 
2
5
10

$$$$
