36868
     RDKit          3D

 16 17  0  0  1  0  0  0  0  0999 V2000
    2.5876    0.9950    1.3262 O   0  0  0  0  0  0  0  0  0  0  0  0
    3.7080   -0.2345   -0.4175 O   0  0  0  0  0  0  0  0  0  0  0  0
   -2.3967    0.5890    0.4089 O   0  0  0  0  0  0  0  0  0  0  0  0
   -1.5384    1.6240   -1.4695 O   0  0  0  0  0  0  0  0  0  0  0  0
   -0.3751   -0.5743   -0.1647 C   0  0  0  0  0  0  0  0  0  0  0  0
   -1.8587   -0.6662   -0.0335 C   0  0  0  0  0  0  0  0  0  0  0  0
    1.7210    0.2756    0.5621 C   0  0  0  0  0  0  0  0  0  0  0  0
    0.3516    0.2223    0.7233 C   0  0  0  0  0  0  0  0  0  0  0  0
    2.3608   -0.4263   -0.4337 C   0  0  0  0  0  0  0  0  0  0  0  0
    0.2787   -1.2915   -1.1822 C   0  0  0  0  0  0  0  0  0  0  0  0
    1.6667   -1.2202   -1.3233 C   0  0  0  0  0  0  0  0  0  0  0  0
    3.8447    0.6665    0.7001 C   0  0  0  0  0  0  0  0  0  0  0  0
   -2.2992   -1.7412    0.9333 C   0  0  0  0  0  0  0  0  0  0  0  0
   -2.1563    1.6470   -0.4137 C   0  0  0  0  0  0  0  0  0  0  0  0
   -3.1218   -2.7467    0.6132 C   0  0  0  0  0  0  0  0  0  0  0  0
   -2.7730    2.8814    0.1711 C   0  0  0  0  0  0  0  0  0  0  0  0
  1  7  1  0
  1 12  1  0
  2  9  1  0
  2 12  1  0
  3  6  1  0
  3 14  1  0
  4 14  2  0
  5  6  1  0
  5  8  1  0
  5 10  2  0
  6 13  1  0
  7  8  2  0
  7  9  1  0
  9 11  2  0
 10 11  1  0
 13 15  2  0
 14 16  1  0
M  END
>  <PUBCHEM_COMPOUND_CID>  (1) 
36868

>  <PUBCHEM_CONFORMER_RMSD>  (1) 
0.6

>  <PUBCHEM_CONFORMER_DIVERSEORDER>  (1) 
1
13
32
39
20
24
23
35
14
19
12
21
31
4
8
17
28
29
6
9
11
22
16
33
7
2
10
37
15
26
40
25
30
36
27
34
18
5
38
3

>  <PUBCHEM_MMFF94_PARTIAL_CHARGES>  (1) 
22
1 -0.36
10 -0.15
11 -0.15
12 0.56
13 -0.29
14 0.66
15 -0.3
16 0.06
18 0.15
19 0.15
2 -0.36
20 0.15
23 0.15
24 0.15
25 0.15
3 -0.43
4 -0.57
5 -0.14
6 0.56
7 0.08
8 -0.15
9 0.08

>  <PUBCHEM_EFFECTIVE_ROTOR_COUNT>  (1) 
4.6

>  <PUBCHEM_PHARMACOPHORE_FEATURES>  (1) 
6
1 1 acceptor
1 15 hydrophobe
1 2 acceptor
1 4 acceptor
5 1 2 7 9 12 rings
6 5 7 8 9 10 11 rings

>  <PUBCHEM_HEAVY_ATOM_COUNT>  (1) 
16

>  <PUBCHEM_ATOM_DEF_STEREO_COUNT>  (1) 
0

>  <PUBCHEM_ATOM_UDEF_STEREO_COUNT>  (1) 
1

>  <PUBCHEM_BOND_DEF_STEREO_COUNT>  (1) 
0

>  <PUBCHEM_BOND_UDEF_STEREO_COUNT>  (1) 
0

>  <PUBCHEM_ISOTOPIC_ATOM_COUNT>  (1) 
0

>  <PUBCHEM_COMPONENT_COUNT>  (1) 
1

>  <PUBCHEM_CACTVS_TAUTO_COUNT>  (1) 
1

>  <PUBCHEM_CONFORMER_ID>  (1) 
0000900400000001

>  <PUBCHEM_MMFF94_ENERGY>  (1) 
34.9959

>  <PUBCHEM_FEATURE_SELFOVERLAP>  (1) 
30.601

>  <PUBCHEM_SHAPE_FINGERPRINT>  (1) 
10608611 8 18271805700847353504
12138202 97 18336543811661493463
12500047 106 18263082111173298534
12532896 13 18193274096893926053
13294875 104 17617365195915908019
13296909 8 17749379377853961020
13464514 151 17840873971192142044
13583140 156 18121183654956727048
13764800 53 18410858724535746801
13839132 238 18337953359693003445
14289901 80 18186806915396386650
15219456 202 18201443545091382294
15279308 16 18342736308303986800
15309172 13 17346325954547563518
15653759 3 18410859875655424034
16945 1 18334296478439703031
17357779 13 18197483220689319231
17844478 74 18270686488030484954
18219364 16 17703785963829613754
18380122 1 18200885074725807103
18534176 82 18409441484212223021
19026448 5 17749111097765954146
19049666 15 18270408169897090670
20715346 28 18202002148780473658
21524375 3 17979626845586423453
21947302 44 17984414144535027989
22112679 90 17313402122498787407
23402539 116 18336536201428045783
23419403 2 17612562911794662061
23493267 7 18338796719761266666
23557571 272 18336835276737487319
23559900 14 18408604743073977478
25 1 17841714006581476861
2748010 2 18060424594849922030
5902787 121 17609222603891153595
6049 1 18130242496507863838
6442390 28 18122078502987822217
77492 1 16660649569853579102
81228 2 18260843600426225155
88987 49 18187657859601570847

>  <PUBCHEM_SHAPE_MULTIPOLES>  (1) 
305.8
5.82
2.55
1.21
3.04
0.56
-0.18
0.4
1.22
-3.71
0.06
0.27
-0.08
1.35

>  <PUBCHEM_SHAPE_SELFOVERLAP>  (1) 
653.539

>  <PUBCHEM_SHAPE_VOLUME>  (1) 
169.2

>  <PUBCHEM_COORDINATE_TYPE>  (1) 
2
5
10

$$$$
