36865
     RDKit          3D

 19 21  0  0  0  0  0  0  0  0999 V2000
    2.8438   -0.0940   -2.6831 Cl  0  0  0  0  0  0  0  0  0  0  0  0
    0.2323   -0.5611    0.7897 N   0  0  0  0  0  0  0  0  0  0  0  0
   -3.9611    2.1802   -0.2108 N   0  0  0  0  0  0  0  0  0  0  0  0
   -2.0358    0.1724    0.2246 C   0  0  0  0  0  0  0  0  0  0  0  0
   -3.3564   -0.1740   -0.1284 C   0  0  0  0  0  0  0  0  0  0  0  0
   -1.0948   -0.8484    0.4358 C   0  0  0  0  0  0  0  0  0  0  0  0
   -3.7116   -1.5263   -0.2635 C   0  0  0  0  0  0  0  0  0  0  0  0
   -1.4586   -2.1892    0.2989 C   0  0  0  0  0  0  0  0  0  0  0  0
   -1.7020    1.5255    0.3539 C   0  0  0  0  0  0  0  0  0  0  0  0
   -2.7642   -2.5273   -0.0499 C   0  0  0  0  0  0  0  0  0  0  0  0
   -4.2638    0.8679   -0.3304 C   0  0  0  0  0  0  0  0  0  0  0  0
    2.4870   -0.1033    0.0222 C   0  0  0  0  0  0  0  0  0  0  0  0
   -2.6878    2.4741    0.1283 C   0  0  0  0  0  0  0  0  0  0  0  0
    1.0627   -0.4090   -0.1936 C   0  0  0  0  0  0  0  0  0  0  0  0
    3.3620    0.0565   -1.0424 C   0  0  0  0  0  0  0  0  0  0  0  0
    2.9248    0.0215    1.3334 C   0  0  0  0  0  0  0  0  0  0  0  0
    4.7029    0.3473   -0.7912 C   0  0  0  0  0  0  0  0  0  0  0  0
    4.2657    0.3122    1.5844 C   0  0  0  0  0  0  0  0  0  0  0  0
    5.1548    0.4750    0.5222 C   0  0  0  0  0  0  0  0  0  0  0  0
  1 15  1  0
  2  6  1  0
  2 14  2  0
  3 11  2  0
  3 13  1  0
  4  5  2  0
  4  6  1  0
  4  9  1  0
  5  7  1  0
  5 11  1  0
  6  8  2  0
  7 10  2  0
  8 10  1  0
  9 13  2  0
 12 14  1  0
 12 15  2  0
 12 16  1  0
 15 17  1  0
 16 18  2  0
 17 19  2  0
 18 19  1  0
M  END
>  <PUBCHEM_COMPOUND_CID>  (1) 
36865

>  <PUBCHEM_CONFORMER_RMSD>  (1) 
0.6

>  <PUBCHEM_CONFORMER_DIVERSEORDER>  (1) 
1
8
9
5
3
4
6
7
2

>  <PUBCHEM_MMFF94_PARTIAL_CHARGES>  (1) 
28
1 -0.18
10 -0.15
11 0.16
12 0.09
13 0.16
14 0.3
15 0.18
16 -0.15
17 -0.15
18 -0.15
19 -0.15
2 -0.63
20 0.15
21 0.15
22 0.15
23 0.15
24 0.15
25 0.06
26 0.15
27 0.15
28 0.15
29 0.15
3 -0.62
30 0.15
6 0.18
7 -0.15
8 -0.15
9 -0.15

>  <PUBCHEM_EFFECTIVE_ROTOR_COUNT>  (1) 
2

>  <PUBCHEM_PHARMACOPHORE_FEATURES>  (1) 
5
1 2 acceptor
1 3 acceptor
6 12 15 16 17 18 19 rings
6 3 4 5 9 11 13 rings
6 4 5 6 7 8 10 rings

>  <PUBCHEM_HEAVY_ATOM_COUNT>  (1) 
19

>  <PUBCHEM_ATOM_DEF_STEREO_COUNT>  (1) 
0

>  <PUBCHEM_ATOM_UDEF_STEREO_COUNT>  (1) 
0

>  <PUBCHEM_BOND_DEF_STEREO_COUNT>  (1) 
0

>  <PUBCHEM_BOND_UDEF_STEREO_COUNT>  (1) 
0

>  <PUBCHEM_ISOTOPIC_ATOM_COUNT>  (1) 
0

>  <PUBCHEM_COMPONENT_COUNT>  (1) 
1

>  <PUBCHEM_CACTVS_TAUTO_COUNT>  (1) 
1

>  <PUBCHEM_CONFORMER_ID>  (1) 
0000900100000001

>  <PUBCHEM_MMFF94_ENERGY>  (1) 
59.5385

>  <PUBCHEM_FEATURE_SELFOVERLAP>  (1) 
25.399

>  <PUBCHEM_SHAPE_FINGERPRINT>  (1) 
10319926 262 18269814520366465866
10498660 4 18411981329991787176
10646746 165 18413668007078238048
10937287 8 17765719014482239801
11315181 36 17968090975930577818
11640471 11 17749399147583149708
11796584 16 18341901745526829518
12107183 9 17829595176951693874
12173636 292 18339074866280838573
12236239 1 17675921010302611882
12390115 104 18129390298278231433
12403259 415 17846779646087748440
12788726 201 17461741767435594082
13583140 156 17989479732639504278
13911987 19 16486687104034907752
14386348 63 17704078412352884774
14739800 52 18118959446388263616
15375358 24 17989203746266676222
15961568 22 18194676206174974680
16752209 62 18336262431053101291
16988056 13 15596370297531428677
1741750 31 18340205185471573979
17818456 19 18119798128381891218
18186145 218 17917720071291416338
19489759 90 18412539925159262482
20511986 3 17749656476623390284
20645477 56 18412827967188389569
20645477 70 16558756685294572430
20693207 138 17416993727465158918
21033648 29 17489012834490862912
21033650 10 18264231161323073276
21065201 7 18413389847843010970
21864079 5 17896339032866087396
22122407 14 16081659876740952277
2297311 6 18341622567360161111
23402539 116 18411408535994091271
235170 7 17489593350533645916
23557571 272 18201444700295036684
23559900 14 18272374131695924846
23596394 208 17418101979599152342
2838139 119 16154530005977142583
3268164 11 18341603837202689629
341906 21 18410007750081103784
3472631 163 18408042905105778868
38570 142 16372733650402293166
4028521 119 18272930488347123457
4214541 1 18410290302967719450
469060 322 18263103126986238507
474 4 17168145628642581642
5281201 14 17846788420669270348
573450 72 18260536836386728794
5895379 119 18337969917267235828
7615 1 17676490596302213534
77492 1 17675924317548820434
9709674 26 18202847655783934078
9971528 1 17458622312062153590
9981440 41 18334856100100075403

>  <PUBCHEM_SHAPE_MULTIPOLES>  (1) 
382.92
10.46
2.11
1.43
6.46
0.04
-0.78
2.23
-0.3
-3.87
0.09
2.37
-0.03
0.3

>  <PUBCHEM_SHAPE_SELFOVERLAP>  (1) 
838.914

>  <PUBCHEM_SHAPE_VOLUME>  (1) 
205.7

>  <PUBCHEM_COORDINATE_TYPE>  (1) 
2
5
10

$$$$
