36874
     RDKit          3D

 20 21  0  0  0  0  0  0  0  0999 V2000
   -7.8419   -1.1780   -0.5305 Cl  0  0  0  0  0  0  0  0  0  0  0  0
    7.2914    0.0511    0.1486 O   0  0  0  0  0  0  0  0  0  0  0  0
    0.8997   -0.2285    0.2602 O   0  0  0  0  0  0  0  0  0  0  0  0
   -2.4639    0.9526    0.4769 O   0  0  0  0  0  0  0  0  0  0  0  0
   -0.0375    1.8075   -0.2918 O   0  0  0  0  0  0  0  0  0  0  0  0
    4.5295   -0.4325   -0.3410 N   0  0  0  0  0  0  0  0  0  0  0  0
    5.4953   -1.5348   -0.2331 C   0  0  0  0  0  0  0  0  0  0  0  0
    4.9785    0.7109    0.4653 C   0  0  0  0  0  0  0  0  0  0  0  0
    3.1971   -0.8676    0.0723 C   0  0  0  0  0  0  0  0  0  0  0  0
    6.8800   -1.0538   -0.6573 C   0  0  0  0  0  0  0  0  0  0  0  0
    6.3750    1.1392    0.0237 C   0  0  0  0  0  0  0  0  0  0  0  0
    2.1804    0.2431   -0.1377 C   0  0  0  0  0  0  0  0  0  0  0  0
   -0.1319    0.6630    0.1305 C   0  0  0  0  0  0  0  0  0  0  0  0
   -1.4113    0.0158    0.5913 C   0  0  0  0  0  0  0  0  0  0  0  0
   -3.7224    0.4541    0.2413 C   0  0  0  0  0  0  0  0  0  0  0  0
   -4.0615   -0.8032    0.7222 C   0  0  0  0  0  0  0  0  0  0  0  0
   -4.6370    1.2150   -0.4747 C   0  0  0  0  0  0  0  0  0  0  0  0
   -5.3391   -1.3095    0.4829 C   0  0  0  0  0  0  0  0  0  0  0  0
   -5.9147    0.7088   -0.7139 C   0  0  0  0  0  0  0  0  0  0  0  0
   -6.2657   -0.5534   -0.2351 C   0  0  0  0  0  0  0  0  0  0  0  0
  1 20  1  0
  2 10  1  0
  2 11  1  0
  3 12  1  0
  3 13  1  0
  4 14  1  0
  4 15  1  0
  5 13  2  0
  6  7  1  0
  6  8  1  0
  6  9  1  0
  7 10  1  0
  8 11  1  0
  9 12  1  0
 13 14  1  0
 15 16  2  0
 15 17  1  0
 16 18  1  0
 17 19  2  0
 18 20  2  0
 19 20  1  0
M  END
>  <PUBCHEM_COMPOUND_CID>  (1) 
36874

>  <PUBCHEM_CONFORMER_RMSD>  (1) 
0.8

>  <PUBCHEM_CONFORMER_DIVERSEORDER>  (1) 
1
132
58
165
350
272
120
36
368
21
306
180
183
43
56
348
55
124
216
376
238
3
204
345
246
296
54
85
163
297
258
22
73
40
378
161
179
147
291
80
388
46
352
308
2
347
228
52
192
252
90
363
230
50
75
31
294
114
116
26
134
247
15
137
97
118
313
93
283
386
151
278
84
221
141
364
181
68
282
182
374
6
101
198
322
106
240
144
129
381
273
250
375
117
176
244
214
74
196
207
177
38
210
329
24
39
253
326
262
300
150
377
92
281
383
146
8
51
185
335
81
89
34
200
255
343
312
310
324
369
334
271
189
323
311
139
223
391
5
88
98
220
71
42
233
187
186
218
316
222
35
4
7
60
10
263
121
357
13
119
302
164
236
99
169
140
18
201
65
82
111
11
295
265
191
307
342
292
205
94
354
103
270
126
143
289
109
304
194
160
178
142
249
256
156
70
157
171
333
110
30
387
340
133
25
277
360
299
130
274
337
148
127
355
217
29
359
351
382
188
17
95
241
213
353
104
211
108
293
20
327
173
325
226
336
309
330
341
206
266
107
33
234
288
318
66
358
53
166
231
237
168
49
317
152
174
44
362
136
175
385
367
79
162
339
361
260
41
195
72
280
245
61
83
112
366
373
372
123
153
257
170
242
77
47
384
212
100
344
232
149
379
389
193
23
298
239
301
279
154
131
332
16
392
349
91
248
261
9
102
203
305
346
28
48
59
86
57
314
208
264
320
159
64
225
338
285
390
276
67
199
286
202
78
184
122
224
380
284
37
319
219
371
62
128
45
63
331
356
12
27
172
190
158
243
76
254
125
315
287
96
235
105
209
197
328
269
268
32
303
259
155
215
113
19
115
370
321
69
251
87
227
275
14
145
167
135
229
267
365
290
138

>  <PUBCHEM_MMFF94_PARTIAL_CHARGES>  (1) 
24
1 -0.18
10 0.28
11 0.28
12 0.28
13 0.66
14 0.34
15 0.08
16 -0.15
17 -0.15
18 -0.15
19 -0.15
2 -0.56
20 0.18
3 -0.43
35 0.15
36 0.15
37 0.15
38 0.15
4 -0.36
5 -0.57
6 -0.81
7 0.27
8 0.27
9 0.27

>  <PUBCHEM_EFFECTIVE_ROTOR_COUNT>  (1) 
8.2

>  <PUBCHEM_PHARMACOPHORE_FEATURES>  (1) 
6
1 2 acceptor
1 4 acceptor
1 5 acceptor
1 6 cation
6 15 16 17 18 19 20 rings
6 2 6 7 8 10 11 rings

>  <PUBCHEM_HEAVY_ATOM_COUNT>  (1) 
20

>  <PUBCHEM_ATOM_DEF_STEREO_COUNT>  (1) 
0

>  <PUBCHEM_ATOM_UDEF_STEREO_COUNT>  (1) 
0

>  <PUBCHEM_BOND_DEF_STEREO_COUNT>  (1) 
0

>  <PUBCHEM_BOND_UDEF_STEREO_COUNT>  (1) 
0

>  <PUBCHEM_ISOTOPIC_ATOM_COUNT>  (1) 
0

>  <PUBCHEM_COMPONENT_COUNT>  (1) 
1

>  <PUBCHEM_CACTVS_TAUTO_COUNT>  (1) 
1

>  <PUBCHEM_CONFORMER_ID>  (1) 
0000900A00000001

>  <PUBCHEM_MMFF94_ENERGY>  (1) 
42.8092

>  <PUBCHEM_FEATURE_SELFOVERLAP>  (1) 
30.454

>  <PUBCHEM_SHAPE_FINGERPRINT>  (1) 
10066227 49 18271810056361540534
10299344 5 17275387611812105895
10354089 29 13039188100189144250
10638233 991 16056878074356380424
10968037 39 18409448085925103539
11315181 36 18273216396426357577
11524674 6 15913325810469377935
11719270 70 18412259515656850578
12091667 2 17603308142029776305
12516196 113 18343300370522419864
13288520 33 18410575089870682253
13533116 47 13110694809237829796
13668630 136 18272654527918575518
13685833 64 18272090508971685563
13885169 127 18342176636228640601
13968360 50 15936401226172393098
14123256 10 18333168366582602466
14178184 131 17702379757901073471
1420 363 18202005421440032170
14251718 22 18409729555952790753
14251732 16 18412263956483605992
14251764 18 17418373614515715367
14251764 46 18410855468728658890
14729087 3 11386365950407312263
14848160 23 18411138030326807688
14849402 71 13541881569471748218
15183329 4 15936127464983052439
15348495 7 10159397834942807254
15690457 1 17775280591167151215
15716309 27 17489869336705513359
15849732 13 18410291428069939815
18006028 8 18202282506870684113
18681886 176 18336540603479211529
19489759 90 17603305938273794369
20281389 69 9439405717915946319
20621476 66 9295283949949848680
21095086 128 16343989104752789910
21150785 3 18334010609990971451
21267235 1 18260832627317364915
21315763 28 18411418393371329268
21623969 137 17917997156970001294
22224240 67 16917345944104963662
22896161 15 18342738533112889776
23035841 295 15626221325407557613
23081809 10 17703796885978933272
23559900 14 18337386153891534017
246663 6 16773802489433041086
3004659 81 18040152928738104625
3009799 131 17167861971590440717
4073 2 17895199956258121658
4325135 7 18412263956451814788
59682541 35 17060335257727386122
59755656 215 18259987046255663898
8209 1 18410292518764675083

>  <PUBCHEM_SHAPE_MULTIPOLES>  (1) 
385
24.09
1.45
0.78
7.41
0.01
-0.01
-6.3
-3.69
-0.02
-0.1
-0.36
-0.04
0.71

>  <PUBCHEM_SHAPE_SELFOVERLAP>  (1) 
780.633

>  <PUBCHEM_SHAPE_VOLUME>  (1) 
224.2

>  <PUBCHEM_COORDINATE_TYPE>  (1) 
2
5
10

$$$$
