36885
     RDKit          3D

 15 16  0  0  1  0  0  0  0  0999 V2000
   -1.9225   -0.1195    0.1171 O   0  0  0  0  0  0  0  0  0  0  0  0
    0.2424   -0.9115   -0.2645 N   0  0  0  0  0  0  0  0  0  0  0  0
    1.8796   -1.8546    0.7899 N   0  0  0  0  0  0  0  0  0  0  0  0
   -3.2254    0.1064   -0.4029 C   0  0  0  0  0  0  0  0  0  0  0  0
    1.2829   -0.0056   -0.2833 C   0  0  0  0  0  0  0  0  0  0  0  0
   -1.0674   -0.7125   -0.8540 C   0  0  0  0  0  0  0  0  0  0  0  0
   -4.0845    0.7783    0.6702 C   0  0  0  0  0  0  0  0  0  0  0  0
    2.3399   -0.6145    0.3975 C   0  0  0  0  0  0  0  0  0  0  0  0
    0.6163   -2.0189    0.3848 C   0  0  0  0  0  0  0  0  0  0  0  0
   -3.8221   -1.2275   -0.8313 C   0  0  0  0  0  0  0  0  0  0  0  0
    1.3811    1.2689   -0.8291 C   0  0  0  0  0  0  0  0  0  0  0  0
    3.5688    0.0086    0.5799 C   0  0  0  0  0  0  0  0  0  0  0  0
   -3.4882    2.0969    1.1447 C   0  0  0  0  0  0  0  0  0  0  0  0
    2.6156    1.9104   -0.6534 C   0  0  0  0  0  0  0  0  0  0  0  0
    3.6834    1.2953    0.0345 C   0  0  0  0  0  0  0  0  0  0  0  0
  1  4  1  0
  1  6  1  0
  2  5  1  0
  2  6  1  0
  2  9  2  0
  3  8  1  0
  3  9  1  0
  4  7  1  0
  4 10  1  0
  5  8  2  0
  5 11  1  0
  7 13  1  0
  8 12  1  0
 11 14  2  0
 12 15  2  0
 14 15  1  0
M  CHG  1   2   1
M  END
>  <PUBCHEM_COMPOUND_CID>  (1) 
36885

>  <PUBCHEM_CONFORMER_RMSD>  (1) 
0.6

>  <PUBCHEM_CONFORMER_DIVERSEORDER>  (1) 
2
33
16
34
24
14
31
9
28
26
25
10
21
32
36
17
23
11
15
30
12
29
35
5
7
6
18
13
8
1
3
27
4
22
20
19

>  <PUBCHEM_MMFF94_PARTIAL_CHARGES>  (1) 
18
1 -0.56
11 -0.11
12 -0.11
14 -0.15
15 -0.15
2 -0.76
21 0.15
22 0.45
26 0.15
27 0.15
3 -0.7
31 0.15
32 0.15
4 0.28
5 0.31
6 0.79
8 0.31
9 0.65

>  <PUBCHEM_EFFECTIVE_ROTOR_COUNT>  (1) 
4

>  <PUBCHEM_PHARMACOPHORE_FEATURES>  (1) 
6
1 1 acceptor
1 13 hydrophobe
1 3 donor
3 2 3 9 cation
5 2 3 5 8 9 rings
6 5 8 11 12 14 15 rings

>  <PUBCHEM_HEAVY_ATOM_COUNT>  (1) 
15

>  <PUBCHEM_ATOM_DEF_STEREO_COUNT>  (1) 
0

>  <PUBCHEM_ATOM_UDEF_STEREO_COUNT>  (1) 
1

>  <PUBCHEM_BOND_DEF_STEREO_COUNT>  (1) 
0

>  <PUBCHEM_BOND_UDEF_STEREO_COUNT>  (1) 
0

>  <PUBCHEM_ISOTOPIC_ATOM_COUNT>  (1) 
0

>  <PUBCHEM_COMPONENT_COUNT>  (1) 
1

>  <PUBCHEM_CACTVS_TAUTO_COUNT>  (1) 
2

>  <PUBCHEM_CONFORMER_ID>  (1) 
0000901500000002

>  <PUBCHEM_MMFF94_ENERGY>  (1) 
26.9122

>  <PUBCHEM_FEATURE_SELFOVERLAP>  (1) 
30.554

>  <PUBCHEM_SHAPE_FINGERPRINT>  (1) 
10382601 240 18114463379621041408
10465860 228 18339647737149718978
10498660 4 17131836422104979185
10646746 165 17775565338365563896
10980938 120 18260823800252366230
11471102 20 18187354454906897078
11471102 22 17748826293466837676
12251169 10 18334860489666693431
12346645 44 18412263956177546967
12390115 104 17609515065705476364
12644460 14 17603578647865806456
15442244 35 18194962941826284939
15475509 8 18268167396293064004
15501101 241 17822286860279053422
15775835 57 18272092694883393817
16945 1 18042103471615045006
18186145 218 18409167696936964966
19050596 39 18410294722647342035
200 152 18338785828099062263
201361 129 18410858720040085594
20157964 124 18191863432524762949
20233049 118 17703785899305046568
20279233 1 16370721526679939635
20539926 19 18341623615384974305
20715895 44 17548419203275728145
21503847 285 18338244743116963944
21524375 3 18337105790894355054
22485316 2 8358263635184018255
22854114 111 18334294279358464269
23402539 116 17418370303164586108
23557571 272 15913321421128708441
2838139 119 16341992490685403856
474 4 18260832630589244505
6333272 397 18261955279126670835
633830 44 18410864277891199892
7615 1 18270105843365555631

>  <PUBCHEM_SHAPE_MULTIPOLES>  (1) 
292.86
7.83
2.12
1
4.9
0.18
-0.01
2.87
-0.95
-0.03
-0.31
0.33
0.13
-1.59

>  <PUBCHEM_SHAPE_SELFOVERLAP>  (1) 
612.677

>  <PUBCHEM_SHAPE_VOLUME>  (1) 
170

>  <PUBCHEM_COORDINATE_TYPE>  (1) 
2
5
10

$$$$
