36904
     RDKit          3D

 13 13  0  0  0  0  0  0  0  0999 V2000
    0.5017    2.3594   -0.1200 Cl  0  0  0  0  0  0  0  0  0  0  0  0
    2.8156    0.4872    1.6789 Cl  0  0  0  0  0  0  0  0  0  0  0  0
   -2.6434    2.0364    0.0228 Cl  0  0  0  0  0  0  0  0  0  0  0  0
   -3.8864   -0.9012    0.1109 Cl  0  0  0  0  0  0  0  0  0  0  0  0
    2.3429   -0.2422   -0.1724 S   0  0  0  0  0  0  0  0  0  0  0  0
    2.7073    0.7895   -1.1216 O   0  0  0  0  0  0  0  0  0  0  0  0
    2.9137   -1.5730   -0.2141 O   0  0  0  0  0  0  0  0  0  0  0  0
    0.5939   -0.3468   -0.0938 C   0  0  0  0  0  0  0  0  0  0  0  0
   -0.2259    0.7815   -0.0701 C   0  0  0  0  0  0  0  0  0  0  0  0
    0.0278   -1.6211   -0.0544 C   0  0  0  0  0  0  0  0  0  0  0  0
   -1.6116    0.6357   -0.0071 C   0  0  0  0  0  0  0  0  0  0  0  0
   -1.3580   -1.7670    0.0087 C   0  0  0  0  0  0  0  0  0  0  0  0
   -2.1776   -0.6385    0.0322 C   0  0  0  0  0  0  0  0  0  0  0  0
  1  9  1  0
  2  5  1  0
  3 11  1  0
  4 13  1  0
  5  6  2  0
  5  7  2  0
  5  8  1  0
  8  9  2  0
  8 10  1  0
  9 11  1  0
 10 12  2  0
 11 13  2  0
 12 13  1  0
M  END
>  <PUBCHEM_COMPOUND_CID>  (1) 
36904

>  <PUBCHEM_CONFORMER_RMSD>  (1) 
0.4

>  <PUBCHEM_CONFORMER_DIVERSEORDER>  (1) 
1
3
4
2

>  <PUBCHEM_MMFF94_PARTIAL_CHARGES>  (1) 
15
1 -0.18
10 -0.15
11 0.18
12 -0.15
13 0.18
14 0.15
15 0.15
2 -0.19
3 -0.18
4 -0.18
5 1.49
6 -0.65
7 -0.65
8 -0.01
9 0.18

>  <PUBCHEM_EFFECTIVE_ROTOR_COUNT>  (1) 
1

>  <PUBCHEM_PHARMACOPHORE_FEATURES>  (1) 
1
6 8 9 10 11 12 13 rings

>  <PUBCHEM_HEAVY_ATOM_COUNT>  (1) 
13

>  <PUBCHEM_ATOM_DEF_STEREO_COUNT>  (1) 
0

>  <PUBCHEM_ATOM_UDEF_STEREO_COUNT>  (1) 
0

>  <PUBCHEM_BOND_DEF_STEREO_COUNT>  (1) 
0

>  <PUBCHEM_BOND_UDEF_STEREO_COUNT>  (1) 
0

>  <PUBCHEM_ISOTOPIC_ATOM_COUNT>  (1) 
0

>  <PUBCHEM_COMPONENT_COUNT>  (1) 
1

>  <PUBCHEM_CACTVS_TAUTO_COUNT>  (1) 
1

>  <PUBCHEM_CONFORMER_ID>  (1) 
0000902800000001

>  <PUBCHEM_MMFF94_ENERGY>  (1) 
24.3089

>  <PUBCHEM_FEATURE_SELFOVERLAP>  (1) 
5.074

>  <PUBCHEM_SHAPE_FINGERPRINT>  (1) 
10130415 120 18186797014985170219
10857977 72 18411130359531047976
10967382 1 18266463294185981085
11132069 177 18337104571308317649
11206711 2 18409730664571376597
12032990 46 18410581664806619255
12382932 28 18338787927699746880
12423570 1 8966373640904349595
12524768 44 18049722116015835529
12716758 59 18340202990453154683
12932764 1 17775002405481040414
13140716 1 18122341285744465411
13380535 76 18194399979520646759
14144814 61 18409171034247801601
14325111 11 18410015398927020189
15219456 202 18059563677319148610
16945 1 18339359789731237223
17804303 29 18196931081142461130
18186145 218 17703794699640093393
193761 8 17546168962043709415
20510252 161 18343582932315669801
20559304 39 18335139838370835428
21501502 16 18337399253077134101
22802520 49 17986679168626890262
2334 1 18338800013895843159
23402539 116 18342446037382278607
23463225 33 18335423409091373366
23552423 10 18260270715833828278
23559900 14 18199750242331454774
2748010 2 18267869389211595239
369184 2 17704066308945238026
5084963 1 18202008745670859875
528886 8 18265895752727975457
53812653 166 18270678649936664017
7364860 26 18197501942008877680
81228 2 18409726292131086777

>  <PUBCHEM_SHAPE_MULTIPOLES>  (1) 
267.12
5.27
2.26
0.93
0.79
0.73
-0.25
-0.64
-0.57
0.65
0.13
-0.84
0.15
0.16

>  <PUBCHEM_SHAPE_SELFOVERLAP>  (1) 
510.796

>  <PUBCHEM_SHAPE_VOLUME>  (1) 
167.3

>  <PUBCHEM_COORDINATE_TYPE>  (1) 
2
5
10

$$$$
