36908
     RDKit          3D

 10  9  0  0  0  0  0  0  0  0999 V2000
    4.2560   -1.8015    0.1821 Cl  0  0  0  0  0  0  0  0  0  0  0  0
   -4.6284   -1.1999    0.2369 Cl  0  0  0  0  0  0  0  0  0  0  0  0
   -0.0082    1.1195    0.2988 N   0  0  0  0  0  0  0  0  0  0  0  0
    1.3838    1.1063   -0.1491 C   0  0  0  0  0  0  0  0  0  0  0  0
   -0.7540    0.0230   -0.3180 C   0  0  0  0  0  0  0  0  0  0  0  0
    2.0429   -0.2264    0.2034 C   0  0  0  0  0  0  0  0  0  0  0  0
   -2.1842   -0.0145    0.2185 C   0  0  0  0  0  0  0  0  0  0  0  0
   -0.6341    2.4034   -0.0151 C   0  0  0  0  0  0  0  0  0  0  0  0
    3.4976   -0.2513   -0.2490 C   0  0  0  0  0  0  0  0  0  0  0  0
   -2.9713   -1.1586   -0.4085 C   0  0  0  0  0  0  0  0  0  0  0  0
  1  9  1  0
  2 10  1  0
  3  4  1  0
  3  5  1  0
  3  8  1  0
  4  6  1  0
  5  7  1  0
  6  9  1  0
  7 10  1  0
M  END
>  <PUBCHEM_COMPOUND_CID>  (1) 
36908

>  <PUBCHEM_CONFORMER_RMSD>  (1) 
0.6

>  <PUBCHEM_CONFORMER_DIVERSEORDER>  (1) 
2
13
63
62
77
99
134
24
88
30
81
5
112
25
136
3
73
124
82
32
57
130
102
96
135
101
79
11
74
109
86
28
120
85
100
8
90
126
91
78
72
71
132
118
21
94
113
34
92
80
121
76
1
133
95
19
128
29
20
69
129
64
18
137
48
68
61
105
127
93
89
37
104
41
87
59
122
131
58
125
44
6
123
31
83
53
75
114
98
84
10
26
50
115
27
23
106
12
103
97
52
56
107
49
45
4
60
17
51
38
9
54
55
14
7
46
111
22
39
47
119
33
16
15
66
116
42
40
110
70
117
67
65
35
36
43
108

>  <PUBCHEM_MMFF94_PARTIAL_CHARGES>  (1) 
8
1 -0.29
10 0.29
2 -0.29
3 -0.81
4 0.27
5 0.27
8 0.27
9 0.29

>  <PUBCHEM_EFFECTIVE_ROTOR_COUNT>  (1) 
6

>  <PUBCHEM_PHARMACOPHORE_FEATURES>  (1) 
1
1 3 cation

>  <PUBCHEM_HEAVY_ATOM_COUNT>  (1) 
10

>  <PUBCHEM_ATOM_DEF_STEREO_COUNT>  (1) 
0

>  <PUBCHEM_ATOM_UDEF_STEREO_COUNT>  (1) 
0

>  <PUBCHEM_BOND_DEF_STEREO_COUNT>  (1) 
0

>  <PUBCHEM_BOND_UDEF_STEREO_COUNT>  (1) 
0

>  <PUBCHEM_ISOTOPIC_ATOM_COUNT>  (1) 
0

>  <PUBCHEM_COMPONENT_COUNT>  (1) 
1

>  <PUBCHEM_CACTVS_TAUTO_COUNT>  (1) 
1

>  <PUBCHEM_CONFORMER_ID>  (1) 
0000902C00000002

>  <PUBCHEM_MMFF94_ENERGY>  (1) 
11.2188

>  <PUBCHEM_FEATURE_SELFOVERLAP>  (1) 
5.074

>  <PUBCHEM_SHAPE_FINGERPRINT>  (1) 
12032990 46 18409449206489672043
14251710 61 18340207384695783062
14252887 29 18338512057639280088
177051 138 18411136914126161526
18342897 55 9078845047836825705
18342897 69 18339077082320387298
20281407 28 18342175557542639104
20645477 70 18263075673223206071
20671657 53 18334860527846905500
20871998 184 18059289851521060116
20871998 22 18411695521477379984
22485316 2 18412822512226573566
22959321 94 18410282597881338666
328317 168 8934999257152740747
58734987 33 17988361576221106161

>  <PUBCHEM_SHAPE_MULTIPOLES>  (1) 
204.55
8.26
2.07
0.68
0.61
0.83
0.01
-7.14
-0.35
-0.17
-0.06
0.05
-0.04
-0.16

>  <PUBCHEM_SHAPE_SELFOVERLAP>  (1) 
349.438

>  <PUBCHEM_SHAPE_VOLUME>  (1) 
137.9

>  <PUBCHEM_COORDINATE_TYPE>  (1) 
2
5
10

$$$$
