3691
     RDKit          3D

 26 28  0  0  1  0  0  0  0  0999 V2000
   -0.8110    2.3705   -0.7959 O   0  0  0  0  0  0  0  0  0  0  0  0
   -1.9761   -2.2089   -0.3157 O   0  0  0  0  0  0  0  0  0  0  0  0
   -4.6843   -1.6654   -0.1956 O   0  0  0  0  0  0  0  0  0  0  0  0
   -3.5242    2.8714   -0.6701 O   0  0  0  0  0  0  0  0  0  0  0  0
    2.2434   -0.8522    0.8224 C   0  0  0  0  0  0  0  0  0  0  0  0
    0.7208   -0.4029    0.8048 C   0  0  0  0  0  0  0  0  0  0  0  0
    3.2912    0.2209    0.3247 C   0  0  0  0  0  0  0  0  0  0  0  0
    0.5561    1.0191    1.4464 C   0  0  0  0  0  0  0  0  0  0  0  0
    2.9564    1.6217    0.9134 C   0  0  0  0  0  0  0  0  0  0  0  0
    1.4968    2.0341    0.7872 C   0  0  0  0  0  0  0  0  0  0  0  0
    2.5102   -2.2423    0.1804 C   0  0  0  0  0  0  0  0  0  0  0  0
    3.4220    0.1739   -1.2097 C   0  0  0  0  0  0  0  0  0  0  0  0
    0.1010   -0.3635   -0.6111 C   0  0  0  0  0  0  0  0  0  0  0  0
   -0.1368   -1.4186    1.6081 C   0  0  0  0  0  0  0  0  0  0  0  0
    2.7130   -2.2389   -1.3333 C   0  0  0  0  0  0  0  0  0  0  0  0
    4.6967   -0.1212    0.9067 C   0  0  0  0  0  0  0  0  0  0  0  0
    3.7095   -1.1892   -1.8015 C   0  0  0  0  0  0  0  0  0  0  0  0
    0.7227    1.0498    2.9763 C   0  0  0  0  0  0  0  0  0  0  0  0
   -1.3165    0.0618   -0.5595 C   0  0  0  0  0  0  0  0  0  0  0  0
    3.3274    1.2287   -2.0381 C   0  0  0  0  0  0  0  0  0  0  0  0
   -1.7180    1.3391   -0.6477 C   0  0  0  0  0  0  0  0  0  0  0  0
   -2.3178   -1.0324   -0.3990 C   0  0  0  0  0  0  0  0  0  0  0  0
   -3.7514   -0.6596   -0.3435 C   0  0  0  0  0  0  0  0  0  0  0  0
   -3.1550    1.7041   -0.5898 C   0  0  0  0  0  0  0  0  0  0  0  0
   -4.1349    0.6144   -0.4325 C   0  0  0  0  0  0  0  0  0  0  0  0
   -4.9412   -1.9145    1.1727 C   0  0  0  0  0  0  0  0  0  0  0  0
  1 21  1  0
  2 22  2  0
  3 23  1  0
  3 26  1  0
  4 24  2  0
  5  6  1  0
  5  7  1  0
  5 11  1  0
  6  8  1  0
  6 13  1  0
  6 14  1  0
  7  9  1  0
  7 12  1  0
  7 16  1  0
  8 10  1  0
  8 18  1  0
  9 10  1  0
 11 15  1  0
 12 17  1  0
 12 20  2  0
 13 19  1  0
 15 17  1  0
 19 21  2  0
 19 22  1  0
 21 24  1  0
 22 23  1  0
 23 25  2  0
 24 25  1  0
M  END
>  <PUBCHEM_COMPOUND_CID>  (1) 
3691

>  <PUBCHEM_CONFORMER_RMSD>  (1) 
0.8

>  <PUBCHEM_CONFORMER_DIVERSEORDER>  (1) 
10
22
26
20
9
16
12
29
34
3
35
11
30
2
36
21
32
17
24
4
13
19
6
7
18
27
14
33
8
25
28
31
23
1
15
5

>  <PUBCHEM_MMFF94_PARTIAL_CHARGES>  (1) 
20
1 -0.53
12 -0.28
13 0.14
17 0.14
19 -0.12
2 -0.57
20 -0.3
21 0.09
22 0.54
23 0.09
24 0.54
25 -0.14
26 0.28
3 -0.36
4 -0.57
50 0.15
51 0.15
52 0.15
53 0.45
7 0.14

>  <PUBCHEM_EFFECTIVE_ROTOR_COUNT>  (1) 
4.4

>  <PUBCHEM_PHARMACOPHORE_FEATURES>  (1) 
7
1 1 donor
1 2 acceptor
1 3 acceptor
1 4 acceptor
6 19 21 22 23 24 25 rings
6 5 6 7 8 9 10 rings
6 5 7 11 12 15 17 rings

>  <PUBCHEM_HEAVY_ATOM_COUNT>  (1) 
26

>  <PUBCHEM_ATOM_DEF_STEREO_COUNT>  (1) 
0

>  <PUBCHEM_ATOM_UDEF_STEREO_COUNT>  (1) 
4

>  <PUBCHEM_BOND_DEF_STEREO_COUNT>  (1) 
0

>  <PUBCHEM_BOND_UDEF_STEREO_COUNT>  (1) 
0

>  <PUBCHEM_ISOTOPIC_ATOM_COUNT>  (1) 
0

>  <PUBCHEM_COMPONENT_COUNT>  (1) 
1

>  <PUBCHEM_CACTVS_TAUTO_COUNT>  (1) 
10

>  <PUBCHEM_CONFORMER_ID>  (1) 
00000E6B0000000A

>  <PUBCHEM_MMFF94_ENERGY>  (1) 
103.5047

>  <PUBCHEM_FEATURE_SELFOVERLAP>  (1) 
35.56

>  <PUBCHEM_SHAPE_FINGERPRINT>  (1) 
10369192 42 17485354901208874400
10498660 4 18114452384478552397
10863032 1 18337388227769614533
11552529 35 16557052597017430223
12173636 292 18336818681221005407
12236239 1 17023177236570362214
12553582 1 18191585461734892175
12623949 98 17773611592551271535
12714826 92 18343867714596338119
12778500 126 17631195085731467803
12788726 201 18187940520126489365
13134695 92 16702006544354646056
13140716 1 14948154020729026705
13224815 77 17531241747281897575
14251757 17 18201153261036546968
14787075 74 17314518221786294819
14790565 3 17692535516221486993
15664445 248 18189053251616682269
16945 1 18271808986703063392
17349148 13 16298382465764573475
17980427 23 18114729526271312572
18981168 100 17824517726205918820
20691752 17 16878227472014133116
21033650 10 18189354385138195700
23175994 123 17203609259478632073
23557571 272 18411696591219356448
23559900 14 18196092140616456942
238 59 18115608065788793740
3323516 105 18342461451845674414
460360 51 18268154166801801043
46194498 28 18270120239542109052
474 4 16733273451303569316
5104073 3 18338508647298136370
5281201 14 18272373070126794318
6049 1 18272926133540247257
6287921 2 18053096508664871249
633830 44 15864927399757290005
7495541 125 18336826493302422754
9709674 26 18413102870596508287
9981440 41 16956487665086252756

>  <PUBCHEM_SHAPE_MULTIPOLES>  (1) 
511.59
8.79
2.64
1.89
5.42
0.2
-0.66
-2.07
1.56
1
0.23
-1.35
0.37
1.41

>  <PUBCHEM_SHAPE_SELFOVERLAP>  (1) 
1085.717

>  <PUBCHEM_SHAPE_VOLUME>  (1) 
281.9

>  <PUBCHEM_COORDINATE_TYPE>  (1) 
2
5
10

$$$$
