36910
     RDKit          3D

 28 30  0  0  1  0  0  0  0  0999 V2000
   -4.4685    1.8934    1.1397 O   0  0  0  0  0  0  0  0  0  0  0  0
    4.4865    1.4692    0.9358 O   0  0  0  0  0  0  0  0  0  0  0  0
   -4.1511    0.9482   -1.5244 O   0  0  0  0  0  0  0  0  0  0  0  0
   -0.9848    1.3480   -0.0492 N   0  0  0  0  0  0  0  0  0  0  0  0
    1.8763    0.9510   -0.1725 N   0  0  0  0  0  0  0  0  0  0  0  0
   -0.1303    2.2126   -0.8722 C   0  0  0  0  0  0  0  0  0  0  0  0
   -0.2357    0.8371    1.1053 C   0  0  0  0  0  0  0  0  0  0  0  0
    1.1274    1.4638   -1.3264 C   0  0  0  0  0  0  0  0  0  0  0  0
    1.0213    0.0872    0.6510 C   0  0  0  0  0  0  0  0  0  0  0  0
   -2.1828    2.0637    0.3848 C   0  0  0  0  0  0  0  0  0  0  0  0
    3.0732    0.2338   -0.6075 C   0  0  0  0  0  0  0  0  0  0  0  0
   -3.3333    1.1128    0.7463 C   0  0  0  0  0  0  0  0  0  0  0  0
    4.1049    0.1571    0.5246 C   0  0  0  0  0  0  0  0  0  0  0  0
   -3.7838    0.1656   -0.3823 C   0  0  0  0  0  0  0  0  0  0  0  0
    5.3507   -0.5831    0.0899 C   0  0  0  0  0  0  0  0  0  0  0  0
   -4.9695   -0.7007   -0.0296 C   0  0  0  0  0  0  0  0  0  0  0  0
    5.4371   -1.9646    0.2629 C   0  0  0  0  0  0  0  0  0  0  0  0
    6.4127    0.1156   -0.4845 C   0  0  0  0  0  0  0  0  0  0  0  0
   -4.7698   -1.9532    0.5511 C   0  0  0  0  0  0  0  0  0  0  0  0
   -6.2643   -0.2484   -0.2840 C   0  0  0  0  0  0  0  0  0  0  0  0
    5.0126    1.4644    2.2538 C   0  0  0  0  0  0  0  0  0  0  0  0
   -4.0392    0.1928   -2.7182 C   0  0  0  0  0  0  0  0  0  0  0  0
    6.5856   -2.6473   -0.1381 C   0  0  0  0  0  0  0  0  0  0  0  0
    7.5610   -0.5672   -0.8856 C   0  0  0  0  0  0  0  0  0  0  0  0
   -5.8648   -2.7535    0.8770 C   0  0  0  0  0  0  0  0  0  0  0  0
   -7.3592   -1.0486    0.0421 C   0  0  0  0  0  0  0  0  0  0  0  0
    7.6473   -1.9486   -0.7123 C   0  0  0  0  0  0  0  0  0  0  0  0
   -7.1594   -2.3012    0.6227 C   0  0  0  0  0  0  0  0  0  0  0  0
  1 12  1  0
  2 13  1  0
  2 21  1  0
  3 14  1  0
  3 22  1  0
  4  6  1  0
  4  7  1  0
  4 10  1  0
  5  8  1  0
  5  9  1  0
  5 11  1  0
  6  8  1  0
  7  9  1  0
 10 12  1  0
 11 13  1  0
 12 14  1  0
 13 15  1  0
 14 16  1  0
 15 17  2  0
 15 18  1  0
 16 19  2  0
 16 20  1  0
 17 23  1  0
 18 24  2  0
 19 25  1  0
 20 26  2  0
 23 27  2  0
 24 27  1  0
 25 28  2  0
 26 28  1  0
M  END
>  <PUBCHEM_COMPOUND_CID>  (1) 
36910

>  <PUBCHEM_CONFORMER_RMSD>  (1) 
1.2

>  <PUBCHEM_CONFORMER_DIVERSEORDER>  (1) 
1
155
83
119
137
26
175
62
32
60
57
162
14
8
109
42
80
160
118
58
122
74
156
9
113
4
178
169
71
150
66
96
133
24
123
165
143
27
176
6
126
70
93
132
158
111
46
161
105
146
97
82
78
75
63
22
16
174
85
45
31
152
139
33
72
89
107
54
163
129
167
56
173
29
116
138
73
144
20
50
157
37
48
15
101
120
154
149
171
168
164
145
115
88
23
99
128
100
64
69
134
52
77
95
170
135
86
67
12
179
140
148
92
81
91
49
136
35
79
43
21
68
61
53
30
131
108
90
17
121
76
127
18
147
34
125
117
47
10
51
55
151
142
19
87
38
110
153
40
13
114
130
7
36
141
59
102
166
11
2
84
177
106
172
41
124
98
28
94
65
3
25
104
39
103
5
44
159
112

>  <PUBCHEM_MMFF94_PARTIAL_CHARGES>  (1) 
39
1 -0.68
10 0.27
11 0.27
12 0.28
13 0.42
14 0.42
15 -0.14
16 -0.14
17 -0.15
18 -0.15
19 -0.15
2 -0.56
20 -0.15
21 0.28
22 0.28
23 -0.15
24 -0.15
25 -0.15
26 -0.15
27 -0.15
28 -0.15
3 -0.56
4 -0.81
44 0.4
45 0.15
46 0.15
47 0.15
48 0.15
5 -0.81
55 0.15
56 0.15
57 0.15
58 0.15
59 0.15
6 0.27
60 0.15
7 0.27
8 0.27
9 0.27

>  <PUBCHEM_EFFECTIVE_ROTOR_COUNT>  (1) 
10.2

>  <PUBCHEM_PHARMACOPHORE_FEATURES>  (1) 
9
1 1 acceptor
1 1 donor
1 2 acceptor
1 3 acceptor
1 4 cation
1 5 cation
6 15 17 18 23 24 27 rings
6 16 19 20 25 26 28 rings
6 4 5 6 7 8 9 rings

>  <PUBCHEM_HEAVY_ATOM_COUNT>  (1) 
28

>  <PUBCHEM_ATOM_DEF_STEREO_COUNT>  (1) 
0

>  <PUBCHEM_ATOM_UDEF_STEREO_COUNT>  (1) 
3

>  <PUBCHEM_BOND_DEF_STEREO_COUNT>  (1) 
0

>  <PUBCHEM_BOND_UDEF_STEREO_COUNT>  (1) 
0

>  <PUBCHEM_ISOTOPIC_ATOM_COUNT>  (1) 
0

>  <PUBCHEM_COMPONENT_COUNT>  (1) 
1

>  <PUBCHEM_CACTVS_TAUTO_COUNT>  (1) 
1

>  <PUBCHEM_CONFORMER_ID>  (1) 
0000902E00000001

>  <PUBCHEM_MMFF94_ENERGY>  (1) 
79.1917

>  <PUBCHEM_FEATURE_SELFOVERLAP>  (1) 
45.676

>  <PUBCHEM_SHAPE_FINGERPRINT>  (1) 
10 15 16559033817711381865
10066227 112 10953457440173137322
10391435 84 18262513805517037250
11524674 6 16702299048976165431
117089 54 17842285766352314198
11991303 11 13045945737572296481
12166972 35 18334861640375680500
125118 31 10375866381959629690
12616971 3 16415469455202511296
12633257 1 15913046573397493737
13167372 99 9799687087553020950
13668630 136 18259704505757298423
13673619 4 18060419110066207928
13690498 29 17675919902881369695
13782708 43 18271522005931512046
14178184 131 18201720721207783295
14211702 104 18341341006595192918
14556957 393 15575007113068014278
14931854 50 17748818640542589571
15183329 4 16008745814214516824
15352257 5 18409731755119023170
15419008 145 11815350247823729918
15419008 91 18190720059752580477
15510800 12 18200887192282172542
1577012 14 14923935718017358301
16992779 147 16843870083632003480
17627616 140 17531801347225035547
17913733 40 14476962255436494068
18222031 100 17821727230662801868
18335252 98 18412263969790579152
18643901 69 17967534584719642007
2026 5 18410291398243558423
20281389 69 10159705702514585521
21033648 29 15481854345760411769
21033650 10 16805600309921701813
21150785 3 17312824892222127148
21267235 1 18334862736076962179
21424621 283 10735876166705797668
21781055 127 12823026352679852392
22224240 67 12967128302859588485
23389318 12 18041288733794067766
23522609 53 18050602627932225300
23569943 247 18046345228530236338
23576562 1 15647915857896985863
25122255 55 18408892836257616067
3004659 81 17749107828583698469
3178227 256 17131834266400401294
392239 28 16415474965133446377
439807 62 18342178855771677995
44880568 143 17385719184286228916
465052 167 17988926640047113836
5104073 3 17846499222908936680
5385378 56 13110971890489623724
54039377 194 18261120707558703147
5718773 13 18410012113683577946
58083652 198 16630232671656446001
6009941 240 18200596887306251417
6328613 192 8070027765732426199
636775 72 9367047944735887478
9896288 288 17773325539017616425
999808 66 18413393146393724887

>  <PUBCHEM_SHAPE_MULTIPOLES>  (1) 
548.66
24.21
2.7
1.52
9
1.08
0.36
18.63
0.69
-0.75
-0.45
-0.27
-0.61
2.07

>  <PUBCHEM_SHAPE_SELFOVERLAP>  (1) 
1139.937

>  <PUBCHEM_SHAPE_VOLUME>  (1) 
312.3

>  <PUBCHEM_COORDINATE_TYPE>  (1) 
2
5
10

$$$$
