36912
     RDKit          3D

 17 19  0  0  1  0  0  0  0  0999 V2000
    1.3088   -2.5673   -1.1280 O   0  0  0  0  0  0  0  0  0  0  0  0
   -1.7506    0.1201    0.0050 N   0  0  0  0  0  0  0  0  0  0  0  0
    1.7570    1.5488   -0.0710 N   0  0  0  0  0  0  0  0  0  0  0  0
    0.4247   -0.3003   -1.1288 C   0  0  0  0  0  0  0  0  0  0  0  0
   -0.5227   -0.6598    0.0501 C   0  0  0  0  0  0  0  0  0  0  0  0
    2.4345   -0.8547    0.1919 C   0  0  0  0  0  0  0  0  0  0  0  0
    0.1303   -0.7163    1.4611 C   0  0  0  0  0  0  0  0  0  0  0  0
    1.6708   -1.1928   -1.0883 C   0  0  0  0  0  0  0  0  0  0  0  0
    1.5979   -1.2045    1.4396 C   0  0  0  0  0  0  0  0  0  0  0  0
    0.8932    1.1702   -1.1927 C   0  0  0  0  0  0  0  0  0  0  0  0
    2.8729    0.6214    0.1351 C   0  0  0  0  0  0  0  0  0  0  0  0
   -2.4216    0.0310   -1.2915 C   0  0  0  0  0  0  0  0  0  0  0  0
   -2.7409   -0.3411    0.9776 C   0  0  0  0  0  0  0  0  0  0  0  0
   -0.0472    0.5316    2.3402 C   0  0  0  0  0  0  0  0  0  0  0  0
   -3.8145    0.5656   -0.9925 C   0  0  0  0  0  0  0  0  0  0  0  0
   -4.0229    0.3244    0.4994 C   0  0  0  0  0  0  0  0  0  0  0  0
    2.2303    2.9238   -0.2070 C   0  0  0  0  0  0  0  0  0  0  0  0
  1  8  1  0
  2  5  1  0
  2 12  1  0
  2 13  1  0
  3 10  1  0
  3 11  1  0
  3 17  1  0
  4  5  1  0
  4  8  1  0
  4 10  1  0
  5  7  1  0
  6  8  1  0
  6  9  1  0
  6 11  1  0
  7  9  1  0
  7 14  1  0
 12 15  1  0
 13 16  1  0
 15 16  1  0
M  END
>  <PUBCHEM_COMPOUND_CID>  (1) 
36912

>  <PUBCHEM_CONFORMER_RMSD>  (1) 
0.6

>  <PUBCHEM_CONFORMER_DIVERSEORDER>  (1) 
1
25
18
24
5
20
11
8
26
22
15
3
19
10
27
17
14
2
23
12
7
9
16
13
4
21
6

>  <PUBCHEM_MMFF94_PARTIAL_CHARGES>  (1) 
11
1 -0.68
10 0.27
11 0.27
12 0.27
13 0.27
17 0.27
2 -0.81
3 -0.81
40 0.4
5 0.27
8 0.28

>  <PUBCHEM_EFFECTIVE_ROTOR_COUNT>  (1) 
3.4

>  <PUBCHEM_PHARMACOPHORE_FEATURES>  (1) 
7
1 1 acceptor
1 1 donor
1 2 cation
1 3 cation
5 2 12 13 15 16 rings
6 3 4 6 8 10 11 rings
6 4 5 6 7 8 9 rings

>  <PUBCHEM_HEAVY_ATOM_COUNT>  (1) 
17

>  <PUBCHEM_ATOM_DEF_STEREO_COUNT>  (1) 
0

>  <PUBCHEM_ATOM_UDEF_STEREO_COUNT>  (1) 
5

>  <PUBCHEM_BOND_DEF_STEREO_COUNT>  (1) 
0

>  <PUBCHEM_BOND_UDEF_STEREO_COUNT>  (1) 
0

>  <PUBCHEM_ISOTOPIC_ATOM_COUNT>  (1) 
0

>  <PUBCHEM_COMPONENT_COUNT>  (1) 
1

>  <PUBCHEM_CACTVS_TAUTO_COUNT>  (1) 
1

>  <PUBCHEM_CONFORMER_ID>  (1) 
0000903000000001

>  <PUBCHEM_MMFF94_ENERGY>  (1) 
48.3273

>  <PUBCHEM_FEATURE_SELFOVERLAP>  (1) 
36.959

>  <PUBCHEM_SHAPE_FINGERPRINT>  (1) 
10863032 1 18265614471182899322
10948715 1 18119530083625710656
12326174 3 18335420136579501354
12491281 212 18122621914533399812
12654215 9 17749379322093317140
12932764 1 17821732715356787071
13134695 92 18261943060298037884
13571099 52 18042969959196174944
14115302 16 17418095416493562919
14178342 30 16443057314392305177
14817 1 16302061612302299112
15775835 57 18266463293959517580
16945 1 18413389821745854278
1813 80 17557163721913219678
18186145 218 18260275114133137809
19049666 15 17387114400180254069
19765921 60 17631181968083680529
19786989 88 18339928207315078983
20511035 2 17752779192883445860
20671657 53 17984718722220302926
20820808 20 18059861721873622240
21524375 3 17975412735054801884
21947302 44 18187935009572730729
22892500 29 18040980839587477733
230 275 17458063780949559005
23419403 2 17612081201078942270
23526113 38 17533247226421330862
2748010 2 17531256096804686543
3060560 45 18343584036254088422
3286 77 17821444638556322299
4175511 335 17632567228185843087
474 4 18338236088853392601
495365 180 17387664207913323965
5337951 7 17749395875124012144
53812653 166 17313381214592708681
5845 1 15464993643447444988
7364860 26 18411422803880625892
81228 2 17544473051156925628

>  <PUBCHEM_SHAPE_MULTIPOLES>  (1) 
334.02
5.27
1.99
1.73
5.55
0.9
-0.45
1.33
0.24
-2.05
0.17
0.02
-0.45
0.53

>  <PUBCHEM_SHAPE_SELFOVERLAP>  (1) 
691.542

>  <PUBCHEM_SHAPE_VOLUME>  (1) 
189.7

>  <PUBCHEM_COORDINATE_TYPE>  (1) 
2
5
10

$$$$
