36911
     RDKit          3D

 12 12  0  0  0  0  0  0  0  0999 V2000
    2.6115    1.0997    0.0003 O   0  0  0  0  0  0  0  0  0  0  0  0
    2.6116   -1.0998    0.0005 O   0  0  0  0  0  0  0  0  0  0  0  0
    2.0134    0.0000    0.0000 N   0  0  0  0  0  0  0  0  0  0  0  0
   -3.6117    0.0001    0.0009 N   0  0  0  0  0  0  0  0  0  0  0  0
   -0.1086    1.2079   -0.0001 C   0  0  0  0  0  0  0  0  0  0  0  0
   -0.1088   -1.2080   -0.0005 C   0  0  0  0  0  0  0  0  0  0  0  0
    0.5887   -0.0001   -0.0003 C   0  0  0  0  0  0  0  0  0  0  0  0
   -1.5036    1.2081    0.0000 C   0  0  0  0  0  0  0  0  0  0  0  0
   -1.5037   -1.2079   -0.0005 C   0  0  0  0  0  0  0  0  0  0  0  0
   -2.2011    0.0002   -0.0003 C   0  0  0  0  0  0  0  0  0  0  0  0
    0.6064    2.5210   -0.0002 C   0  0  0  0  0  0  0  0  0  0  0  0
    0.6059   -2.5212    0.0002 C   0  0  0  0  0  0  0  0  0  0  0  0
  1  3  1  0
  2  3  2  0
  3  7  1  0
  4 10  1  0
  5  7  2  0
  5  8  1  0
  5 11  1  0
  6  7  1  0
  6  9  2  0
  6 12  1  0
  8 10  2  0
  9 10  1  0
M  CHG  2   1  -1   3   1
M  END
>  <PUBCHEM_COMPOUND_CID>  (1) 
36911

>  <PUBCHEM_CONFORMER_RMSD>  (1) 
0.4

>  <PUBCHEM_CONFORMER_DIVERSEORDER>  (1) 
1

>  <PUBCHEM_MMFF94_PARTIAL_CHARGES>  (1) 
16
1 -0.52
10 0.1
11 0.14
12 0.14
13 0.15
14 0.15
2 -0.52
21 0.4
22 0.4
3 0.91
4 -0.9
5 -0.14
6 -0.14
7 0.13
8 -0.15
9 -0.15

>  <PUBCHEM_EFFECTIVE_ROTOR_COUNT>  (1) 
1

>  <PUBCHEM_PHARMACOPHORE_FEATURES>  (1) 
6
1 1 acceptor
1 1 anion
1 2 acceptor
1 4 cation
1 4 donor
6 5 6 7 8 9 10 rings

>  <PUBCHEM_HEAVY_ATOM_COUNT>  (1) 
12

>  <PUBCHEM_ATOM_DEF_STEREO_COUNT>  (1) 
0

>  <PUBCHEM_ATOM_UDEF_STEREO_COUNT>  (1) 
0

>  <PUBCHEM_BOND_DEF_STEREO_COUNT>  (1) 
0

>  <PUBCHEM_BOND_UDEF_STEREO_COUNT>  (1) 
0

>  <PUBCHEM_ISOTOPIC_ATOM_COUNT>  (1) 
0

>  <PUBCHEM_COMPONENT_COUNT>  (1) 
1

>  <PUBCHEM_CACTVS_TAUTO_COUNT>  (1) 
1

>  <PUBCHEM_CONFORMER_ID>  (1) 
0000902F00000001

>  <PUBCHEM_MMFF94_ENERGY>  (1) 
61.8328

>  <PUBCHEM_FEATURE_SELFOVERLAP>  (1) 
30.526

>  <PUBCHEM_SHAPE_FINGERPRINT>  (1) 
10219947 1 18410577284034468179
10967382 1 18410574010942373415
11471102 20 18410288108487480925
12032990 46 18410582747043360803
12423570 1 11750536356189141097
12524768 44 18413393124480804766
13380535 76 17979627158733901000
14325111 11 18410855477561303521
161256 15 18125165939416025454
16945 1 18410575089237608069
193761 8 17690280408875742949
20588541 1 18335144176430404595
20645476 183 17751095788878391070
21040471 1 17978510072237158245
2334 1 18338799038695667298
23402655 69 18195790909565716157
23463225 33 18335980870266429554
23552423 10 18118973494202246206
23559900 14 18053681436873723852
241688 4 17905894677821660123
2748010 2 18410575106238148814
5084963 1 18202282472357763546
528886 8 18411414050753100835
53812653 166 18270396230019824944
63268167 104 18412266159548647385
66348 1 18410576162742081290

>  <PUBCHEM_SHAPE_MULTIPOLES>  (1) 
225.25
3.61
2.44
0.59
1.09
0
0
0
0
-0.84
0
0.03
0
0

>  <PUBCHEM_SHAPE_SELFOVERLAP>  (1) 
475.398

>  <PUBCHEM_SHAPE_VOLUME>  (1) 
128.5

>  <PUBCHEM_COORDINATE_TYPE>  (1) 
2
5
10

$$$$
