36951
     RDKit          3D

 17 16  0  0  1  0  0  0  0  0999 V2000
    2.3584   -1.6676   -1.2661 F   0  0  0  0  0  0  0  0  0  0  0  0
    3.0160    0.4085   -1.1623 F   0  0  0  0  0  0  0  0  0  0  0  0
    3.0069   -0.8204    0.6352 F   0  0  0  0  0  0  0  0  0  0  0  0
    1.5069    1.0882    1.7611 F   0  0  0  0  0  0  0  0  0  0  0  0
   -0.3587    1.6423    0.8005 F   0  0  0  0  0  0  0  0  0  0  0  0
    1.5403    2.1787   -0.1254 F   0  0  0  0  0  0  0  0  0  0  0  0
    0.2634    0.1383   -1.4697 O   0  0  0  0  0  0  0  0  0  0  0  0
   -1.7746   -2.1726    1.6330 O   0  0  0  0  0  0  0  0  0  0  0  0
    0.8935   -0.1083   -0.2129 C   0  0  0  0  0  0  0  0  0  0  0  0
    0.1542   -1.2418    0.5399 C   0  0  0  0  0  0  0  0  0  0  0  0
   -1.3176   -1.0078    0.9354 C   0  0  0  0  0  0  0  0  0  0  0  0
    2.3295   -0.5523   -0.5033 C   0  0  0  0  0  0  0  0  0  0  0  0
    0.8997    1.2068    0.5618 C   0  0  0  0  0  0  0  0  0  0  0  0
   -2.2322   -0.8330   -0.2442 C   0  0  0  0  0  0  0  0  0  0  0  0
   -3.0784    0.1826   -0.5019 C   0  0  0  0  0  0  0  0  0  0  0  0
   -3.8977    0.1856   -1.7657 C   0  0  0  0  0  0  0  0  0  0  0  0
   -3.3097    1.3728    0.3846 C   0  0  0  0  0  0  0  0  0  0  0  0
  1 12  1  0
  2 12  1  0
  3 12  1  0
  4 13  1  0
  5 13  1  0
  6 13  1  0
  7  9  1  0
  8 11  1  0
  9 10  1  0
  9 12  1  0
  9 13  1  0
 10 11  1  0
 11 14  1  0
 14 15  2  3
 15 16  1  0
 15 17  1  0
M  END
>  <PUBCHEM_COMPOUND_CID>  (1) 
36951

>  <PUBCHEM_CONFORMER_RMSD>  (1) 
0.6

>  <PUBCHEM_CONFORMER_DIVERSEORDER>  (1) 
1
11
6
16
12
22
9
19
8
18
21
20
15
2
4
10
7
14
13
17
5
3

>  <PUBCHEM_MMFF94_PARTIAL_CHARGES>  (1) 
19
1 -0.34
11 0.42
12 1.02
13 1.02
14 -0.29
15 -0.28
16 0.14
17 0.14
2 -0.34
21 0.15
22 0.4
23 0.4
3 -0.34
4 -0.34
5 -0.34
6 -0.34
7 -0.68
8 -0.68
9 0.28

>  <PUBCHEM_EFFECTIVE_ROTOR_COUNT>  (1) 
5

>  <PUBCHEM_PHARMACOPHORE_FEATURES>  (1) 
5
1 7 acceptor
1 7 donor
1 8 acceptor
1 8 donor
3 15 16 17 hydrophobe

>  <PUBCHEM_HEAVY_ATOM_COUNT>  (1) 
17

>  <PUBCHEM_ATOM_DEF_STEREO_COUNT>  (1) 
0

>  <PUBCHEM_ATOM_UDEF_STEREO_COUNT>  (1) 
1

>  <PUBCHEM_BOND_DEF_STEREO_COUNT>  (1) 
0

>  <PUBCHEM_BOND_UDEF_STEREO_COUNT>  (1) 
0

>  <PUBCHEM_ISOTOPIC_ATOM_COUNT>  (1) 
0

>  <PUBCHEM_COMPONENT_COUNT>  (1) 
1

>  <PUBCHEM_CACTVS_TAUTO_COUNT>  (1) 
1

>  <PUBCHEM_CONFORMER_ID>  (1) 
0000905700000001

>  <PUBCHEM_MMFF94_ENERGY>  (1) 
28.1382

>  <PUBCHEM_FEATURE_SELFOVERLAP>  (1) 
25.371

>  <PUBCHEM_SHAPE_FINGERPRINT>  (1) 
10130415 120 18261954050966471418
12423570 1 9117536874407442066
124424 183 18409162203795261834
12491281 212 16660942070037602278
12808571 1 14418145010247521139
13693222 15 10952048927265402623
14250199 8 18343293804124085781
14648413 74 18262805210157520421
15309172 13 17313387782188573895
15775835 57 16660355987648709429
16945 1 18261119512824149450
18186145 218 18114468863977760807
20201158 50 18342175552973514671
20233049 118 17604416410484023661
21947302 44 18340194301961194113
22802520 49 18337400434383154977
22926399 65 17967252000649325806
230 275 18337374024745296561
23402539 116 18198615541224044454
23526113 38 18408891719502938999
23557571 272 17610063734602104723
23559900 14 18334862702165954342
25 1 18261676961320129371
2748010 2 18266181823345936827
528886 8 17313106345217897878
5337951 7 18411134748977087796
549884 4 18409722942114566069
74978 22 18186517743584969859
7832392 63 17916301628920901329
81228 2 18054805983110707952

>  <PUBCHEM_SHAPE_MULTIPOLES>  (1) 
294.47
5.41
1.84
1.49
2.47
0.02
-0.11
-0.46
-1.96
-0.04
0.67
0.2
0.13
0.57

>  <PUBCHEM_SHAPE_SELFOVERLAP>  (1) 
591.198

>  <PUBCHEM_SHAPE_VOLUME>  (1) 
173.7

>  <PUBCHEM_COORDINATE_TYPE>  (1) 
2
5
10

$$$$
