36957
     RDKit          3D

 20 20  0  0  1  0  0  0  0  0999 V2000
   -2.2786   -2.8687   -0.0738 Cl  0  0  0  0  0  0  0  0  0  0  0  0
   -3.7364    1.7565   -0.4401 Cl  0  0  0  0  0  0  0  0  0  0  0  0
   -3.9226   -0.9048   -0.1091 F   0  0  0  0  0  0  0  0  0  0  0  0
   -2.7155   -1.0470    1.6622 F   0  0  0  0  0  0  0  0  0  0  0  0
   -1.2615    2.1989   -0.6430 F   0  0  0  0  0  0  0  0  0  0  0  0
   -1.8982    1.5896    1.3354 F   0  0  0  0  0  0  0  0  0  0  0  0
   -1.7186   -0.3273   -1.7153 O   0  0  0  0  0  0  0  0  0  0  0  0
    0.8074    0.2542   -1.9862 O   0  0  0  0  0  0  0  0  0  0  0  0
   -0.1547   -0.4130    0.1627 C   0  0  0  0  0  0  0  0  0  0  0  0
   -1.6543   -0.1439   -0.2946 C   0  0  0  0  0  0  0  0  0  0  0  0
    0.9452    0.4366   -0.5681 C   0  0  0  0  0  0  0  0  0  0  0  0
    0.0444   -0.3438    1.6916 C   0  0  0  0  0  0  0  0  0  0  0  0
   -2.6572   -1.1758    0.3098 C   0  0  0  0  0  0  0  0  0  0  0  0
   -2.0677    1.3284    0.0126 C   0  0  0  0  0  0  0  0  0  0  0  0
    2.3957    0.1779   -0.2128 C   0  0  0  0  0  0  0  0  0  0  0  0
    2.9753    0.8969    0.8166 C   0  0  0  0  0  0  0  0  0  0  0  0
    3.1048   -0.7708   -0.9266 C   0  0  0  0  0  0  0  0  0  0  0  0
    4.3104    0.6589    1.1433 C   0  0  0  0  0  0  0  0  0  0  0  0
    4.4398   -1.0087   -0.5998 C   0  0  0  0  0  0  0  0  0  0  0  0
    5.0426   -0.2940    0.4351 C   0  0  0  0  0  0  0  0  0  0  0  0
  1 13  1  0
  2 14  1  0
  3 13  1  0
  4 13  1  0
  5 14  1  0
  6 14  1  0
  7 10  1  0
  8 11  1  0
  9 10  1  0
  9 11  1  0
  9 12  1  0
 10 13  1  0
 10 14  1  0
 11 15  1  0
 15 16  2  0
 15 17  1  0
 16 18  1  0
 17 19  2  0
 18 20  2  0
 19 20  1  0
M  END
>  <PUBCHEM_COMPOUND_CID>  (1) 
36957

>  <PUBCHEM_CONFORMER_RMSD>  (1) 
0.8

>  <PUBCHEM_CONFORMER_DIVERSEORDER>  (1) 
1
25
39
45
11
14
36
46
13
37
30
34
4
24
28
5
19
40
10
16
9
33
43
3
27
42
41
17
35
21
44
7
2
22
29
15
38
26
31
32
18
23
8
12
20
6

>  <PUBCHEM_MMFF94_PARTIAL_CHARGES>  (1) 
25
1 -0.29
10 0.28
11 0.42
13 0.97
14 0.97
15 -0.14
16 -0.15
17 -0.15
18 -0.15
19 -0.15
2 -0.29
20 -0.15
26 0.4
27 0.4
28 0.15
29 0.15
3 -0.34
30 0.15
31 0.15
32 0.15
4 -0.34
5 -0.34
6 -0.34
7 -0.68
8 -0.68

>  <PUBCHEM_EFFECTIVE_ROTOR_COUNT>  (1) 
5

>  <PUBCHEM_PHARMACOPHORE_FEATURES>  (1) 
6
1 12 hydrophobe
1 7 acceptor
1 7 donor
1 8 acceptor
1 8 donor
6 15 16 17 18 19 20 rings

>  <PUBCHEM_HEAVY_ATOM_COUNT>  (1) 
20

>  <PUBCHEM_ATOM_DEF_STEREO_COUNT>  (1) 
0

>  <PUBCHEM_ATOM_UDEF_STEREO_COUNT>  (1) 
2

>  <PUBCHEM_BOND_DEF_STEREO_COUNT>  (1) 
0

>  <PUBCHEM_BOND_UDEF_STEREO_COUNT>  (1) 
0

>  <PUBCHEM_ISOTOPIC_ATOM_COUNT>  (1) 
0

>  <PUBCHEM_COMPONENT_COUNT>  (1) 
1

>  <PUBCHEM_CACTVS_TAUTO_COUNT>  (1) 
1

>  <PUBCHEM_CONFORMER_ID>  (1) 
0000905D00000001

>  <PUBCHEM_MMFF94_ENERGY>  (1) 
61.1089

>  <PUBCHEM_FEATURE_SELFOVERLAP>  (1) 
30.468

>  <PUBCHEM_SHAPE_FINGERPRINT>  (1) 
10062212 137 17676203584801655786
10366900 7 18130790117965839058
11315181 36 17894346701128124240
11370993 70 18343016671032445558
11405975 8 18342737378162255000
12173636 292 18264200318914871133
12236239 1 17385443211077642509
12346177 29 18114175337222610206
12403814 3 17632292414893137039
12500047 106 18337951190818869486
12507557 5 17703500048273619392
12507560 40 18202561783246067220
12633257 1 17988095485606103866
13296908 3 18201722838641249552
13296909 8 18335137596187105413
13583140 156 18059850671444911366
13675066 3 18131628993898165526
13693222 15 18131073770226990786
13760787 5 15502377807733373774
14178342 30 18187363207908081202
14289901 80 18339361967659354106
15219456 202 18060418002117340044
15309172 13 16008753489468716152
15653759 3 18343022190186233440
16945 1 18333452057836160967
18186145 218 16343985823592993108
19026448 4 18272087193330695040
19141452 34 18272374230295932899
19862831 5 16877938373438933786
200 152 17531243997649789739
20279233 1 18201720639359622294
20600515 1 18341626957433851421
20645477 56 18410857620570870017
20645477 70 17346033356153780286
20681677 76 18131060580503978200
22646028 28 17676486168354539410
2306618 200 16702300135454983241
23402539 116 18342448258106905695
23419403 2 17394976161553274077
23557571 272 18342458166105833784
23559900 14 18341894052975950014
23598288 3 18041858301838709751
26918003 58 18060136561669426338
312423 11 17531262698164094148
5104073 3 18273209782050017818
633830 44 16588033372785825850
69090 78 18342171120519753508
74978 22 16443639003087390352
9709674 26 18201722842762689654

>  <PUBCHEM_SHAPE_MULTIPOLES>  (1) 
374.5
8.5
1.97
1.42
7.24
0.52
-0.02
0.41
-0.67
-2.36
-0.02
0.03
-0.02
0.8

>  <PUBCHEM_SHAPE_SELFOVERLAP>  (1) 
760.817

>  <PUBCHEM_SHAPE_VOLUME>  (1) 
219.7

>  <PUBCHEM_COORDINATE_TYPE>  (1) 
2
5
10

$$$$
