36959
     RDKit          3D

 21 20  0  0  1  0  0  0  0  0999 V2000
    1.5960   -2.1368   -0.8072 F   0  0  0  0  0  0  0  0  0  0  0  0
    3.7530   -2.1214   -0.5561 F   0  0  0  0  0  0  0  0  0  0  0  0
    2.4495   -1.9984    1.1905 F   0  0  0  0  0  0  0  0  0  0  0  0
    3.8971    0.3182    1.7704 F   0  0  0  0  0  0  0  0  0  0  0  0
    3.9904    1.8359    0.2079 F   0  0  0  0  0  0  0  0  0  0  0  0
    4.9643   -0.0806   -0.0825 F   0  0  0  0  0  0  0  0  0  0  0  0
    2.6469    0.2441   -1.5982 O   0  0  0  0  0  0  0  0  0  0  0  0
    1.2274    2.5830   -1.0741 O   0  0  0  0  0  0  0  0  0  0  0  0
    1.2422    0.5550    0.3444 C   0  0  0  0  0  0  0  0  0  0  0  0
    2.5879   -0.0581   -0.1926 C   0  0  0  0  0  0  0  0  0  0  0  0
   -0.0396   -0.0716   -0.2556 C   0  0  0  0  0  0  0  0  0  0  0  0
   -1.3685    0.4419    0.3210 C   0  0  0  0  0  0  0  0  0  0  0  0
   -2.6003   -0.1521   -0.3659 C   0  0  0  0  0  0  0  0  0  0  0  0
    1.2399    2.1005    0.2618 C   0  0  0  0  0  0  0  0  0  0  0  0
    2.6040   -1.5890   -0.0882 C   0  0  0  0  0  0  0  0  0  0  0  0
    3.8617    0.5116    0.4351 C   0  0  0  0  0  0  0  0  0  0  0  0
   -3.8906    0.3090    0.3158 C   0  0  0  0  0  0  0  0  0  0  0  0
   -5.1225   -0.3147   -0.3443 C   0  0  0  0  0  0  0  0  0  0  0  0
   -6.4090    0.1225    0.3596 C   0  0  0  0  0  0  0  0  0  0  0  0
   -7.6751   -0.4548   -0.2770 C   0  0  0  0  0  0  0  0  0  0  0  0
   -8.9547   -0.0441    0.4350 C   0  0  0  0  0  0  0  0  0  0  0  0
  1 15  1  0
  2 15  1  0
  3 15  1  0
  4 16  1  0
  5 16  1  0
  6 16  1  0
  7 10  1  0
  8 14  1  0
  9 10  1  0
  9 11  1  0
  9 14  1  0
 10 15  1  0
 10 16  1  0
 11 12  1  0
 12 13  1  0
 13 17  1  0
 17 18  1  0
 18 19  1  0
 19 20  1  0
 20 21  1  0
M  END
>  <PUBCHEM_COMPOUND_CID>  (1) 
36959

>  <PUBCHEM_CONFORMER_RMSD>  (1) 
1

>  <PUBCHEM_CONFORMER_DIVERSEORDER>  (1) 
1
124
89
154
121
29
115
107
139
156
96
88
10
159
122
2
67
17
83
175
81
110
32
62
3
167
174
38
47
27
12
74
113
172
37
39
42
4
66
170
161
108
14
153
23
168
148
34
149
16
28
120
111
144
166
26
60
143
176
87
54
13
59
5
22
61
65
64
162
8
43
101
94
46
103
164
173
51
171
134
119
142
21
146
163
35
105
93
52
24
114
118
45
75
125
57
68
90
7
104
55
6
178
58
133
49
86
169
98
138
19
9
70
79
84
97
18
33
177
126
63
78
160
109
157
20
100
99
130
56
128
50
151
123
36
44
150
11
147
132
77
158
25
131
76
92
102
48
53
117
140
155
145
15
106
152
95
71
112
31
127
135
73
82
116
30
40
141
85
165
80
91
72
137
69
41
136
129

>  <PUBCHEM_MMFF94_PARTIAL_CHARGES>  (1) 
14
1 -0.34
10 0.28
14 0.28
15 1.02
16 1.02
2 -0.34
3 -0.34
35 0.4
38 0.4
4 -0.34
5 -0.34
6 -0.34
7 -0.68
8 -0.68

>  <PUBCHEM_EFFECTIVE_ROTOR_COUNT>  (1) 
11

>  <PUBCHEM_PHARMACOPHORE_FEATURES>  (1) 
5
1 21 hydrophobe
1 7 acceptor
1 7 donor
1 8 acceptor
1 8 donor

>  <PUBCHEM_HEAVY_ATOM_COUNT>  (1) 
21

>  <PUBCHEM_ATOM_DEF_STEREO_COUNT>  (1) 
0

>  <PUBCHEM_ATOM_UDEF_STEREO_COUNT>  (1) 
1

>  <PUBCHEM_BOND_DEF_STEREO_COUNT>  (1) 
0

>  <PUBCHEM_BOND_UDEF_STEREO_COUNT>  (1) 
0

>  <PUBCHEM_ISOTOPIC_ATOM_COUNT>  (1) 
0

>  <PUBCHEM_COMPONENT_COUNT>  (1) 
1

>  <PUBCHEM_CACTVS_TAUTO_COUNT>  (1) 
1

>  <PUBCHEM_CONFORMER_ID>  (1) 
0000905F00000001

>  <PUBCHEM_MMFF94_ENERGY>  (1) 
32.661

>  <PUBCHEM_FEATURE_SELFOVERLAP>  (1) 
25.38

>  <PUBCHEM_SHAPE_FINGERPRINT>  (1) 
10354089 29 18343582954085710029
10411042 1 18124598583660036942
10688039 33 18113335280754903157
11724838 91 18202278143811639575
12236239 1 17918276450820308001
13073987 5 18270679771392711185
13167372 99 18130795513030449137
13533116 47 17989207010806266299
13836976 161 18341618143728287623
14170010 4 18410855473540805265
14251764 18 17846779629519789191
14251764 46 18272652359281668696
14341114 176 18412266125769047173
15183329 4 18343021074249240529
16945 1 18338497679011828238
17844677 252 18335425634849946277
20157964 124 18410857685659855385
20645477 70 18412545370914270567
21267235 1 18343305821147005406
220451 1 17775282781853393815
22224240 67 18271234023968650040
23081809 10 17989489650420292421
23559900 14 18336543924032178833
3545911 37 18342175579260081581
4073 2 18188213225487045635
42630746 31 18410855469018919731
4340502 62 18260544541500197707
5104073 3 18199744752772206009
70251023 43 18196096538800390442

>  <PUBCHEM_SHAPE_MULTIPOLES>  (1) 
376.79
17.76
1.86
0.99
49.47
0.04
-0.04
-1.96
-1.92
-3.05
0.24
-0.82
0.02
-0.07

>  <PUBCHEM_SHAPE_SELFOVERLAP>  (1) 
733.311

>  <PUBCHEM_SHAPE_VOLUME>  (1) 
227.3

>  <PUBCHEM_COORDINATE_TYPE>  (1) 
2
5
10

$$$$
