36965
     RDKit          3D

 22 22  0  0  1  0  0  0  0  0999 V2000
   -2.1372   -2.2242    0.2219 F   0  0  0  0  0  0  0  0  0  0  0  0
   -2.7074   -1.2016   -1.6138 F   0  0  0  0  0  0  0  0  0  0  0  0
   -4.0993   -1.3077    0.0646 F   0  0  0  0  0  0  0  0  0  0  0  0
   -3.0791    1.5166   -1.4711 F   0  0  0  0  0  0  0  0  0  0  0  0
   -2.7203    2.4882    0.4415 F   0  0  0  0  0  0  0  0  0  0  0  0
   -4.4032    1.1252    0.2029 F   0  0  0  0  0  0  0  0  0  0  0  0
   -2.3176    0.0583    1.7111 O   0  0  0  0  0  0  0  0  0  0  0  0
    0.0730   -0.6980    1.9976 O   0  0  0  0  0  0  0  0  0  0  0  0
    5.7342    0.1367   -0.4711 O   0  0  0  0  0  0  0  0  0  0  0  0
   -0.6940    0.3381   -0.0978 C   0  0  0  0  0  0  0  0  0  0  0  0
   -2.2134    0.1586    0.2820 C   0  0  0  0  0  0  0  0  0  0  0  0
    0.2552   -0.7023    0.5811 C   0  0  0  0  0  0  0  0  0  0  0  0
   -0.4353    0.3681   -1.6139 C   0  0  0  0  0  0  0  0  0  0  0  0
   -2.8002   -1.1494   -0.2664 C   0  0  0  0  0  0  0  0  0  0  0  0
   -3.1110    1.3288   -0.1300 C   0  0  0  0  0  0  0  0  0  0  0  0
    1.7295   -0.4764    0.2979 C   0  0  0  0  0  0  0  0  0  0  0  0
    2.4583   -1.4834   -0.3046 C   0  0  0  0  0  0  0  0  0  0  0  0
    2.3025    0.7303    0.6503 C   0  0  0  0  0  0  0  0  0  0  0  0
    3.8128   -1.2760   -0.5646 C   0  0  0  0  0  0  0  0  0  0  0  0
    3.6571    0.9380    0.3903 C   0  0  0  0  0  0  0  0  0  0  0  0
    4.4123   -0.0652   -0.2174 C   0  0  0  0  0  0  0  0  0  0  0  0
    6.2833    1.3973   -0.0904 C   0  0  0  0  0  0  0  0  0  0  0  0
  1 14  1  0
  2 14  1  0
  3 14  1  0
  4 15  1  0
  5 15  1  0
  6 15  1  0
  7 11  1  0
  8 12  1  0
  9 21  1  0
  9 22  1  0
 10 11  1  0
 10 12  1  0
 10 13  1  0
 11 14  1  0
 11 15  1  0
 12 16  1  0
 16 17  2  0
 16 18  1  0
 17 19  1  0
 18 20  2  0
 19 21  2  0
 20 21  1  0
M  END
>  <PUBCHEM_COMPOUND_CID>  (1) 
36965

>  <PUBCHEM_CONFORMER_RMSD>  (1) 
0.8

>  <PUBCHEM_CONFORMER_DIVERSEORDER>  (1) 
1
9
3
8
4
7
6
2
5

>  <PUBCHEM_MMFF94_PARTIAL_CHARGES>  (1) 
26
1 -0.34
11 0.28
12 0.42
14 1.02
15 1.02
16 -0.14
17 -0.15
18 -0.15
19 -0.15
2 -0.34
20 -0.15
21 0.08
22 0.28
28 0.4
29 0.4
3 -0.34
30 0.15
31 0.15
32 0.15
33 0.15
4 -0.34
5 -0.34
6 -0.34
7 -0.68
8 -0.68
9 -0.36

>  <PUBCHEM_EFFECTIVE_ROTOR_COUNT>  (1) 
6

>  <PUBCHEM_PHARMACOPHORE_FEATURES>  (1) 
7
1 13 hydrophobe
1 7 acceptor
1 7 donor
1 8 acceptor
1 8 donor
1 9 acceptor
6 16 17 18 19 20 21 rings

>  <PUBCHEM_HEAVY_ATOM_COUNT>  (1) 
22

>  <PUBCHEM_ATOM_DEF_STEREO_COUNT>  (1) 
0

>  <PUBCHEM_ATOM_UDEF_STEREO_COUNT>  (1) 
2

>  <PUBCHEM_BOND_DEF_STEREO_COUNT>  (1) 
0

>  <PUBCHEM_BOND_UDEF_STEREO_COUNT>  (1) 
0

>  <PUBCHEM_ISOTOPIC_ATOM_COUNT>  (1) 
0

>  <PUBCHEM_COMPONENT_COUNT>  (1) 
1

>  <PUBCHEM_CACTVS_TAUTO_COUNT>  (1) 
1

>  <PUBCHEM_CONFORMER_ID>  (1) 
0000906500000001

>  <PUBCHEM_MMFF94_ENERGY>  (1) 
69.9238

>  <PUBCHEM_FEATURE_SELFOVERLAP>  (1) 
35.555

>  <PUBCHEM_SHAPE_FINGERPRINT>  (1) 
10014705 185 18186799145452609389
10498660 4 17895464839301401028
10680689 15 18409737274325519842
11046707 91 12679459777112428384
11132069 177 17095530560755464718
11405975 8 18337953364410210794
121448 382 16950279658609426290
12173636 292 18339636738033853749
12403259 415 18130503145610279704
12553582 1 15195285318049659578
12788726 201 16772678685053638112
13214271 11 17386011654410195547
13224815 77 17530961376038136770
13583140 156 17917990598707576348
13760787 19 18060418006291144134
13760787 5 14979955900003518888
14142880 1 17385719163111552325
14289901 80 18410575093590714778
15196674 1 18412265021820183174
15239154 128 18412547596150298556
15309172 13 15430040941451486851
15788980 27 17775847904780626918
18186145 218 18260264110305716474
19862831 5 16774072960561101336
200 152 17561084717790135986
20600515 1 16950578683323181012
20645477 56 18409449167872013201
20645477 70 18130230337914820262
20871999 31 18343576348320591791
21709351 56 18341330072235860596
23402539 116 18113896061917936500
23402655 69 18272090470475261368
23557571 272 18341900709436715556
23559900 14 18271235127205708169
2916195 48 18270955865086811800
296302 2 18187646890566313350
34934 24 17895186645938089109
3545911 37 18413390925536722376
4028521 119 18188767245501890165
4214541 1 18412826876134794884
474 4 17968100836975347612
5104073 3 18335983091149624746
542803 24 17676491657559958196
59755656 520 17240486896828305658
633830 44 17967535636554002178
77779 3 18341614798075351198

>  <PUBCHEM_SHAPE_MULTIPOLES>  (1) 
391.5
10.66
1.79
1.23
11.23
0.13
0.04
2.94
-1.31
-1
-0.1
-0.71
-0.04
0.22

>  <PUBCHEM_SHAPE_SELFOVERLAP>  (1) 
824.212

>  <PUBCHEM_SHAPE_VOLUME>  (1) 
221.4

>  <PUBCHEM_COORDINATE_TYPE>  (1) 
2
5
10

$$$$
