36967
     RDKit          3D

 18 18  0  0  1  0  0  0  0  0999 V2000
    1.9857    2.8582   -0.2108 Cl  0  0  0  0  0  0  0  0  0  0  0  0
    1.6422   -1.6029    1.8891 Cl  0  0  0  0  0  0  0  0  0  0  0  0
    3.6013    0.8785   -0.0988 F   0  0  0  0  0  0  0  0  0  0  0  0
    2.3406    1.1279    1.6408 F   0  0  0  0  0  0  0  0  0  0  0  0
    0.9671   -2.2051   -0.4962 F   0  0  0  0  0  0  0  0  0  0  0  0
    3.0280   -1.5556   -0.2587 F   0  0  0  0  0  0  0  0  0  0  0  0
    1.4627    0.1965   -1.7089 O   0  0  0  0  0  0  0  0  0  0  0  0
   -1.1675   -0.6422   -1.8397 O   0  0  0  0  0  0  0  0  0  0  0  0
   -2.9795    1.0103   -0.3808 O   0  0  0  0  0  0  0  0  0  0  0  0
    1.3433    0.1388   -0.2787 C   0  0  0  0  0  0  0  0  0  0  0  0
   -0.1433    0.4079    0.1049 C   0  0  0  0  0  0  0  0  0  0  0  0
   -1.1908   -0.5940   -0.4159 C   0  0  0  0  0  0  0  0  0  0  0  0
    2.3329    1.1877    0.2813 C   0  0  0  0  0  0  0  0  0  0  0  0
    1.7553   -1.2965    0.1372 C   0  0  0  0  0  0  0  0  0  0  0  0
   -2.5924   -0.2086    0.0149 C   0  0  0  0  0  0  0  0  0  0  0  0
   -3.5225   -0.8694    0.7251 C   0  0  0  0  0  0  0  0  0  0  0  0
   -4.6216    0.0199    0.7916 C   0  0  0  0  0  0  0  0  0  0  0  0
   -4.2415    1.1488    0.1037 C   0  0  0  0  0  0  0  0  0  0  0  0
  1 13  1  0
  2 14  1  0
  3 13  1  0
  4 13  1  0
  5 14  1  0
  6 14  1  0
  7 10  1  0
  8 12  1  0
  9 15  1  0
  9 18  1  0
 10 11  1  0
 10 13  1  0
 10 14  1  0
 11 12  1  0
 12 15  1  0
 15 16  2  0
 16 17  1  0
 17 18  2  0
M  END
>  <PUBCHEM_COMPOUND_CID>  (1) 
36967

>  <PUBCHEM_CONFORMER_RMSD>  (1) 
0.6

>  <PUBCHEM_CONFORMER_DIVERSEORDER>  (1) 
7
70
37
56
60
92
104
77
3
74
89
96
36
118
44
57
15
99
26
82
30
75
2
101
58
59
29
114
22
46
76
120
94
47
72
80
112
102
110
103
23
69
81
52
33
12
122
121
35
8
62
38
34
113
86
115
78
67
5
43
105
73
111
17
100
24
11
119
61
109
64
87
9
45
106
68
51
53
85
49
10
107
50
79
54
88
83
63
55
13
42
66
19
25
21
116
84
27
40
91
93
65
71
108
117
1
97
90
18
20
48
14
41
95
39
28
6
4
16
31
98
32

>  <PUBCHEM_MMFF94_PARTIAL_CHARGES>  (1) 
22
1 -0.29
10 0.28
12 0.46
13 0.97
14 0.97
15 -0.04
16 -0.15
17 -0.15
18 -0.01
2 -0.29
22 0.4
23 0.4
24 0.15
25 0.15
26 0.15
3 -0.34
4 -0.34
5 -0.34
6 -0.34
7 -0.68
8 -0.68
9 -0.28

>  <PUBCHEM_EFFECTIVE_ROTOR_COUNT>  (1) 
5

>  <PUBCHEM_PHARMACOPHORE_FEATURES>  (1) 
6
1 7 acceptor
1 7 donor
1 8 acceptor
1 8 donor
1 9 acceptor
5 9 15 16 17 18 rings

>  <PUBCHEM_HEAVY_ATOM_COUNT>  (1) 
18

>  <PUBCHEM_ATOM_DEF_STEREO_COUNT>  (1) 
0

>  <PUBCHEM_ATOM_UDEF_STEREO_COUNT>  (1) 
1

>  <PUBCHEM_BOND_DEF_STEREO_COUNT>  (1) 
0

>  <PUBCHEM_BOND_UDEF_STEREO_COUNT>  (1) 
0

>  <PUBCHEM_ISOTOPIC_ATOM_COUNT>  (1) 
0

>  <PUBCHEM_COMPONENT_COUNT>  (1) 
1

>  <PUBCHEM_CACTVS_TAUTO_COUNT>  (1) 
1

>  <PUBCHEM_CONFORMER_ID>  (1) 
0000906700000007

>  <PUBCHEM_MMFF94_ENERGY>  (1) 
29.5947

>  <PUBCHEM_FEATURE_SELFOVERLAP>  (1) 
30.459

>  <PUBCHEM_SHAPE_FINGERPRINT>  (1) 
10366900 7 18114183090023811737
10465860 228 18413111675221325720
10608611 8 18335702715689900253
10980938 120 18342455958730137361
12507560 40 18335141969091423677
12633257 1 17822559603487154753
12932764 1 18413675712297026951
13296908 3 18335422348714245875
13538477 17 17489298715792860391
13583140 156 18333726940702762525
14252887 29 16298392344379264761
14289901 80 18337113466433234899
15775835 57 18059857298305136021
16945 1 18264188370553145878
18186145 218 18130518474126824061
201361 129 18409167739902526968
20279233 1 16950273014801193527
20539784 86 18260823813073957984
20559304 39 18271811159671386099
20645477 70 18410852123482249295
20681677 76 18333723616371857741
21041028 32 18264763260473672864
21524375 3 18120369028135342380
21730867 7 18335140899058965617
21864079 5 16558765524305703913
2255824 54 18408044009096626010
22854114 111 18413109463497485717
231179 274 18131072644708403284
23402539 116 11599741540611976268
23558518 356 17758955218500445322
23559900 14 18409450250383028803
25 1 18337956808863166764
276578 36 18341615953221061186
3060560 45 18201725037390406966
31174 14 18040989627127449211
474 4 18193836165767680625
495365 180 18267004108210222649
5104073 3 18335426742808694937
6049 1 17676477303346842685
7364860 26 18411422795375067718
7615 1 17844786226921602959
81228 2 17112665122503525960
9709674 26 18335146414340831979
9999458 23 18188212112721159676

>  <PUBCHEM_SHAPE_MULTIPOLES>  (1) 
327.47
7.14
2.13
1.32
7.45
0.55
0.02
1.38
-1.59
-1.96
-0.32
-0.47
-0.34
0.08

>  <PUBCHEM_SHAPE_SELFOVERLAP>  (1) 
666.325

>  <PUBCHEM_SHAPE_VOLUME>  (1) 
193.6

>  <PUBCHEM_COORDINATE_TYPE>  (1) 
2
5
10

$$$$
