36960
     RDKit          3D

 21 21  0  0  1  0  0  0  0  0999 V2000
    6.3399    0.7159   -0.4225 Cl  0  0  0  0  0  0  0  0  0  0  0  0
   -1.7270   -2.2646   -0.2130 F   0  0  0  0  0  0  0  0  0  0  0  0
   -2.3589   -0.9436   -1.8242 F   0  0  0  0  0  0  0  0  0  0  0  0
   -3.7389   -1.4478   -0.2097 F   0  0  0  0  0  0  0  0  0  0  0  0
   -2.8859    1.6715   -1.1676 F   0  0  0  0  0  0  0  0  0  0  0  0
   -2.5795    2.2777    0.8985 F   0  0  0  0  0  0  0  0  0  0  0  0
   -4.1818    0.8923    0.3886 F   0  0  0  0  0  0  0  0  0  0  0  0
   -2.0351   -0.3234    1.6836 O   0  0  0  0  0  0  0  0  0  0  0  0
    0.3955   -0.9836    1.8415 O   0  0  0  0  0  0  0  0  0  0  0  0
   -0.4341    0.3894   -0.0238 C   0  0  0  0  0  0  0  0  0  0  0  0
   -1.9399    0.0544    0.3009 C   0  0  0  0  0  0  0  0  0  0  0  0
    0.5747   -0.7062    0.4521 C   0  0  0  0  0  0  0  0  0  0  0  0
   -0.1808    0.7236   -1.5038 C   0  0  0  0  0  0  0  0  0  0  0  0
   -2.4517   -1.1556   -0.4926 C   0  0  0  0  0  0  0  0  0  0  0  0
   -2.9042    1.2289    0.1124 C   0  0  0  0  0  0  0  0  0  0  0  0
    2.0330   -0.3468    0.2304 C   0  0  0  0  0  0  0  0  0  0  0  0
    2.9463   -1.3583    0.0031 C   0  0  0  0  0  0  0  0  0  0  0  0
    2.4080    0.9826    0.2617 C   0  0  0  0  0  0  0  0  0  0  0  0
    4.2861   -1.0277   -0.2006 C   0  0  0  0  0  0  0  0  0  0  0  0
    3.7477    1.3133    0.0581 C   0  0  0  0  0  0  0  0  0  0  0  0
    4.6867    0.3081   -0.1730 C   0  0  0  0  0  0  0  0  0  0  0  0
  1 21  1  0
  2 14  1  0
  3 14  1  0
  4 14  1  0
  5 15  1  0
  6 15  1  0
  7 15  1  0
  8 11  1  0
  9 12  1  0
 10 11  1  0
 10 12  1  0
 10 13  1  0
 11 14  1  0
 11 15  1  0
 12 16  1  0
 16 17  2  0
 16 18  1  0
 17 19  1  0
 18 20  2  0
 19 21  2  0
 20 21  1  0
M  END
>  <PUBCHEM_COMPOUND_CID>  (1) 
36960

>  <PUBCHEM_CONFORMER_RMSD>  (1) 
0.8

>  <PUBCHEM_CONFORMER_DIVERSEORDER>  (1) 
1
4
3
5
2

>  <PUBCHEM_MMFF94_PARTIAL_CHARGES>  (1) 
25
1 -0.18
11 0.28
12 0.42
14 1.02
15 1.02
16 -0.14
17 -0.15
18 -0.15
19 -0.15
2 -0.34
20 -0.15
21 0.18
27 0.4
28 0.4
29 0.15
3 -0.34
30 0.15
31 0.15
32 0.15
4 -0.34
5 -0.34
6 -0.34
7 -0.34
8 -0.68
9 -0.68

>  <PUBCHEM_EFFECTIVE_ROTOR_COUNT>  (1) 
5

>  <PUBCHEM_PHARMACOPHORE_FEATURES>  (1) 
6
1 13 hydrophobe
1 8 acceptor
1 8 donor
1 9 acceptor
1 9 donor
6 16 17 18 19 20 21 rings

>  <PUBCHEM_HEAVY_ATOM_COUNT>  (1) 
21

>  <PUBCHEM_ATOM_DEF_STEREO_COUNT>  (1) 
0

>  <PUBCHEM_ATOM_UDEF_STEREO_COUNT>  (1) 
2

>  <PUBCHEM_BOND_DEF_STEREO_COUNT>  (1) 
0

>  <PUBCHEM_BOND_UDEF_STEREO_COUNT>  (1) 
0

>  <PUBCHEM_ISOTOPIC_ATOM_COUNT>  (1) 
0

>  <PUBCHEM_COMPONENT_COUNT>  (1) 
1

>  <PUBCHEM_CACTVS_TAUTO_COUNT>  (1) 
1

>  <PUBCHEM_CONFORMER_ID>  (1) 
0000906000000001

>  <PUBCHEM_MMFF94_ENERGY>  (1) 
59.833

>  <PUBCHEM_FEATURE_SELFOVERLAP>  (1) 
30.48

>  <PUBCHEM_SHAPE_FINGERPRINT>  (1) 
10014705 185 18187079525080823213
10616163 171 18271807960153502566
10680689 15 18341338863717144298
11132069 177 17894911815354848236
12107183 9 17764312739104006818
121448 382 16878219869948718138
12173636 292 18271517615936936917
12236239 1 18333449824806490953
12507557 5 18060135466500219304
12707595 3 16128370497884674682
12788726 201 17059220220103935976
13214271 11 17676493843023143593
13224815 77 17821725044323533442
13288520 33 18202005455958136718
13583140 156 17346588686745456130
13760787 19 18059856156023358942
14289901 80 18413388765436977218
15196674 1 18410575076795999774
15239154 128 18342177765388197608
15309172 13 16008751307588452010
15788980 27 14405191655782537864
16945 1 18196643218926505883
18186145 218 17894628137212843346
200 152 18273495697880454442
20325693 3 17917993875583006933
20645477 56 18411983546226372089
20645477 70 18271248201793220814
20871999 31 18273207612600967599
21267235 1 18339931518497805614
21709351 56 18412825811610945740
23402539 116 18187361035213610244
23402655 69 18413110533424500760
23493267 7 16773806870030839242
23557571 272 18202571700009042668
23559900 14 18200866374543650096
296302 2 18260268538501394758
300161 21 18341607110363427156
34934 24 18041555836803020069
3545911 37 18413672404993042648
4028521 119 18187640258920848941
4175511 318 17561362868135105357
4214541 1 18413108359812268420
474 4 18040721393909620948
5104073 3 18408884027891291218
58051976 100 18272651268164751438
59755656 520 17385445418997009314
633830 44 18040719139173051362
69090 78 18411135810118885483
77779 3 18413672405066661822
9709674 26 18341900696921709086

>  <PUBCHEM_SHAPE_MULTIPOLES>  (1) 
378.66
9.89
1.78
1.19
10.55
0.02
-0.02
1.92
-1.04
-1.03
-0.02
-0.8
-0.06
-0.35

>  <PUBCHEM_SHAPE_SELFOVERLAP>  (1) 
791.343

>  <PUBCHEM_SHAPE_VOLUME>  (1) 
217.2

>  <PUBCHEM_COORDINATE_TYPE>  (1) 
2
5
10

$$$$
