36986
     RDKit          3D

 20 21  0  0  0  0  0  0  0  0999 V2000
    1.5739    2.0261    0.6476 S   0  0  0  0  0  0  0  0  0  0  0  0
   -1.4186    2.1426    0.6278 S   0  0  0  0  0  0  0  0  0  0  0  0
   -0.1320   -3.1337    1.6719 O   0  0  0  0  0  0  0  0  0  0  0  0
   -0.1574   -4.1615   -0.5077 O   0  0  0  0  0  0  0  0  0  0  0  0
    5.1149    1.8409   -0.9488 O   0  0  0  0  0  0  0  0  0  0  0  0
   -5.0630    1.2120   -0.3587 O   0  0  0  0  0  0  0  0  0  0  0  0
    4.4646    1.8888    1.2285 O   0  0  0  0  0  0  0  0  0  0  0  0
   -4.2182    3.0778    0.6262 O   0  0  0  0  0  0  0  0  0  0  0  0
    0.0003   -0.0632   -0.3325 C   0  0  0  0  0  0  0  0  0  0  0  0
    0.0576    1.4235   -0.2185 C   0  0  0  0  0  0  0  0  0  0  0  0
   -0.0908   -2.2164    0.6673 C   0  0  0  0  0  0  0  0  0  0  0  0
   -0.0384   -0.8466    0.8235 C   0  0  0  0  0  0  0  0  0  0  0  0
   -0.1051   -2.8034   -0.5773 C   0  0  0  0  0  0  0  0  0  0  0  0
   -0.0144   -0.6630   -1.6041 C   0  0  0  0  0  0  0  0  0  0  0  0
   -0.0679   -2.0528   -1.7344 C   0  0  0  0  0  0  0  0  0  0  0  0
   -0.1747   -4.3637    0.9200 C   0  0  0  0  0  0  0  0  0  0  0  0
    2.8347    1.3540   -0.4647 C   0  0  0  0  0  0  0  0  0  0  0  0
   -2.7131    1.5702   -0.5014 C   0  0  0  0  0  0  0  0  0  0  0  0
    4.1980    1.7235    0.0449 C   0  0  0  0  0  0  0  0  0  0  0  0
   -4.0502    2.0450   -0.0095 C   0  0  0  0  0  0  0  0  0  0  0  0
  1 10  1  0
  1 17  1  0
  2 10  1  0
  2 18  1  0
  3 11  1  0
  3 16  1  0
  4 13  1  0
  4 16  1  0
  5 19  1  0
  6 20  1  0
  7 19  2  0
  8 20  2  0
  9 10  1  0
  9 12  1  0
  9 14  2  0
 11 12  2  0
 11 13  1  0
 13 15  2  0
 14 15  1  0
 17 19  1  0
 18 20  1  0
M  END
>  <PUBCHEM_COMPOUND_CID>  (1) 
36986

>  <PUBCHEM_CONFORMER_RMSD>  (1) 
0.8

>  <PUBCHEM_CONFORMER_DIVERSEORDER>  (1) 
1
30
40
47
38
24
45
31
41
44
26
34
58
39
35
25
28
55
51
46
54
48
53
7
33
49
12
16
14
22
11
52
32
21
43
20
9
42
23
6
50
27
36
10
57
15
8
5
56
18
37
2
17
29
59
4
3
13
19

>  <PUBCHEM_MMFF94_PARTIAL_CHARGES>  (1) 
25
1 -0.46
10 0.6
11 0.08
12 -0.15
13 0.08
14 -0.15
15 -0.15
16 0.56
17 0.29
18 0.29
19 0.66
2 -0.46
20 0.66
22 0.15
23 0.15
24 0.15
3 -0.36
31 0.5
32 0.5
4 -0.36
5 -0.65
6 -0.65
7 -0.57
8 -0.57
9 -0.14

>  <PUBCHEM_EFFECTIVE_ROTOR_COUNT>  (1) 
7.6

>  <PUBCHEM_PHARMACOPHORE_FEATURES>  (1) 
11
1 3 acceptor
1 4 acceptor
1 5 acceptor
1 6 acceptor
1 7 acceptor
1 8 acceptor
3 5 7 19 anion
3 6 8 20 anion
5 1 2 10 17 18 hydrophobe
5 3 4 11 13 16 rings
6 9 11 12 13 14 15 rings

>  <PUBCHEM_HEAVY_ATOM_COUNT>  (1) 
20

>  <PUBCHEM_ATOM_DEF_STEREO_COUNT>  (1) 
0

>  <PUBCHEM_ATOM_UDEF_STEREO_COUNT>  (1) 
0

>  <PUBCHEM_BOND_DEF_STEREO_COUNT>  (1) 
0

>  <PUBCHEM_BOND_UDEF_STEREO_COUNT>  (1) 
0

>  <PUBCHEM_ISOTOPIC_ATOM_COUNT>  (1) 
0

>  <PUBCHEM_COMPONENT_COUNT>  (1) 
1

>  <PUBCHEM_CACTVS_TAUTO_COUNT>  (1) 
1

>  <PUBCHEM_CONFORMER_ID>  (1) 
0000907A00000001

>  <PUBCHEM_MMFF94_ENERGY>  (1) 
40.7874

>  <PUBCHEM_FEATURE_SELFOVERLAP>  (1) 
56.094

>  <PUBCHEM_SHAPE_FINGERPRINT>  (1) 
107951 10 18335994133600180606
12293681 4 17979068620055219679
12532896 13 18412541033208265780
12788726 201 18048872189311868298
13052359 8 18337670948344960769
13083527 12 17975679598658149713
13257819 37 18263945347912624340
13968360 50 18263348236216565733
14787075 74 17685230373613646134
14866123 147 18337945809372956586
15906896 17 18267301121924988188
20197701 30 18412819175021530636
20567600 347 18410015407875891237
20602899 9 15769783472125436036
21421861 104 17908714925453607969
21524375 3 18341890766609089484
22956985 138 17900814959892770691
23366157 5 17903930954344878469
23419403 2 17695957354966624087
23598288 3 17826254053041152852
3091708 16 9121756817278077585
3759504 43 18336549407993739876
394222 165 18127690435578007617
59025328 239 16334393941296601446
59755656 520 18409725175550788548
6138700 20 18053390903493610622
6786 2 18409457968006833998
77188 2 17112698644311918443
81228 2 17763437896962867473
81539 233 18337951169333977293
9841814 1 17619356407521929233

>  <PUBCHEM_SHAPE_MULTIPOLES>  (1) 
384.07
6.96
5.59
1.33
1.4
6.96
0.14
-11.59
0.15
-1.38
-1.36
0.31
0.79
-0.08

>  <PUBCHEM_SHAPE_SELFOVERLAP>  (1) 
779.232

>  <PUBCHEM_SHAPE_VOLUME>  (1) 
226.5

>  <PUBCHEM_COORDINATE_TYPE>  (1) 
2
5
10

$$$$
