3698
     RDKit          3D

 14 15  0  0  0  0  0  0  0  0999 V2000
   -4.1581    0.6365   -0.1109 O   0  0  0  0  0  0  0  0  0  0  0  0
   -2.0379    1.5130   -0.2621 N   0  0  0  0  0  0  0  0  0  0  0  0
   -3.2109   -1.9107    0.3403 N   0  0  0  0  0  0  0  0  0  0  0  0
    4.1438   -0.1678    0.0154 N   0  0  0  0  0  0  0  0  0  0  0  0
   -0.1146    0.1559   -0.0186 C   0  0  0  0  0  0  0  0  0  0  0  0
    1.3570    0.0439   -0.0064 C   0  0  0  0  0  0  0  0  0  0  0  0
   -0.9978   -0.9820    0.1793 C   0  0  0  0  0  0  0  0  0  0  0  0
   -0.6758    1.3575   -0.2333 C   0  0  0  0  0  0  0  0  0  0  0  0
   -2.3379   -0.8794    0.1591 C   0  0  0  0  0  0  0  0  0  0  0  0
   -2.9390    0.4783   -0.0809 C   0  0  0  0  0  0  0  0  0  0  0  0
    1.9703   -1.1336   -0.4185 C   0  0  0  0  0  0  0  0  0  0  0  0
    2.1348    1.1158    0.4167 C   0  0  0  0  0  0  0  0  0  0  0  0
    3.3546   -1.1882   -0.3891 C   0  0  0  0  0  0  0  0  0  0  0  0
    3.5115    0.9607    0.4089 C   0  0  0  0  0  0  0  0  0  0  0  0
  1 10  2  0
  2  8  1  0
  2 10  1  0
  3  9  1  0
  4 13  2  0
  4 14  1  0
  5  6  1  0
  5  7  1  0
  5  8  2  0
  6 11  2  0
  6 12  1  0
  7  9  2  0
  9 10  1  0
 11 13  1  0
 12 14  2  0
M  END
>  <PUBCHEM_COMPOUND_CID>  (1) 
3698

>  <PUBCHEM_CONFORMER_RMSD>  (1) 
0.4

>  <PUBCHEM_CONFORMER_DIVERSEORDER>  (1) 
1
2

>  <PUBCHEM_MMFF94_PARTIAL_CHARGES>  (1) 
23
1 -0.57
10 0.62
11 -0.15
12 -0.15
13 0.16
14 0.16
15 0.15
16 0.15
17 0.37
18 0.15
19 0.15
2 -0.54
20 0.15
21 0.15
22 0.4
23 0.4
3 -0.9
4 -0.62
5 -0.03
6 0.03
7 -0.15
8 -0.04
9 0.11

>  <PUBCHEM_EFFECTIVE_ROTOR_COUNT>  (1) 
1

>  <PUBCHEM_PHARMACOPHORE_FEATURES>  (1) 
7
1 1 acceptor
1 2 donor
1 3 cation
1 3 donor
1 4 acceptor
6 2 5 7 8 9 10 rings
6 4 6 11 12 13 14 rings

>  <PUBCHEM_HEAVY_ATOM_COUNT>  (1) 
14

>  <PUBCHEM_ATOM_DEF_STEREO_COUNT>  (1) 
0

>  <PUBCHEM_ATOM_UDEF_STEREO_COUNT>  (1) 
0

>  <PUBCHEM_BOND_DEF_STEREO_COUNT>  (1) 
0

>  <PUBCHEM_BOND_UDEF_STEREO_COUNT>  (1) 
0

>  <PUBCHEM_ISOTOPIC_ATOM_COUNT>  (1) 
0

>  <PUBCHEM_COMPONENT_COUNT>  (1) 
1

>  <PUBCHEM_CACTVS_TAUTO_COUNT>  (1) 
6

>  <PUBCHEM_CONFORMER_ID>  (1) 
00000E7200000001

>  <PUBCHEM_MMFF94_ENERGY>  (1) 
45.3796

>  <PUBCHEM_FEATURE_SELFOVERLAP>  (1) 
35.52

>  <PUBCHEM_SHAPE_FINGERPRINT>  (1) 
10608611 8 18412258432918624272
11132069 177 18408036329547420769
11471102 20 18272649035093019644
12032990 46 18410579508505904010
12932764 1 17385713682253266684
13214271 11 18340481265652882109
13296908 3 18410294739263001002
14144814 61 18411982438319728722
14325111 11 18411699893864590640
15196674 1 18410855485903253314
15219456 202 18342457062483855008
15309172 13 17132119051900202654
16945 1 18264765467590867353
17834074 16 18412827975588582310
18175812 5 18413388747898457372
18186145 218 17894624863999254014
200 152 17561075904290228837
20201158 50 18343021060367293406
20279233 1 18412827975472459846
20281407 28 18410299111745306802
20510252 161 18269836424214839257
20528008 55 18413384332719608077
20645477 70 18060417967494124486
20871998 184 18343586273984926759
23402539 116 18187918504371932966
23402655 69 18201151053407805413
23559900 14 18411134702392005914
2748010 2 18411418427272034463
3312278 4 18411140233697875707
474 4 16155132701399950996
5104073 3 18411699902554727010
57812782 119 18413668002535292300
6333449 129 18410571790723888767
69090 78 18343014480672555439
7364860 26 18266455395868373962
8809292 202 18335707139015656826
9709674 26 18411985779709950062

>  <PUBCHEM_SHAPE_MULTIPOLES>  (1) 
267.3
7.18
1.63
0.66
0.4
0.17
0
0.47
-0.15
-0.44
-0.01
0.1
0.01
0.63

>  <PUBCHEM_SHAPE_SELFOVERLAP>  (1) 
581.243

>  <PUBCHEM_SHAPE_VOLUME>  (1) 
144.2

>  <PUBCHEM_COORDINATE_TYPE>  (1) 
2
5
10

$$$$
