36983
     RDKit          3D

 19 21  0  0  1  0  0  0  0  0999 V2000
   -2.3545   -3.6175    0.7064 F   0  0  0  0  0  0  0  0  0  0  0  0
    0.4430    1.7683    0.0202 O   0  0  0  0  0  0  0  0  0  0  0  0
   -0.6037    3.8825   -0.2916 N   0  0  0  0  0  0  0  0  0  0  0  0
    0.3791    0.4658    0.6283 C   0  0  0  0  0  0  0  0  0  0  0  0
   -0.7760    2.5015    0.1501 C   0  0  0  0  0  0  0  0  0  0  0  0
   -1.8347    1.8181   -0.7161 C   0  0  0  0  0  0  0  0  0  0  0  0
   -0.8955   -0.2956    0.2924 C   0  0  0  0  0  0  0  0  0  0  0  0
   -1.9662    0.3663   -0.3357 C   0  0  0  0  0  0  0  0  0  0  0  0
    1.6479   -0.2513    0.2109 C   0  0  0  0  0  0  0  0  0  0  0  0
   -1.0490   -1.6426    0.6577 C   0  0  0  0  0  0  0  0  0  0  0  0
   -3.1393   -0.3354   -0.6433 C   0  0  0  0  0  0  0  0  0  0  0  0
   -2.2259   -2.3302    0.3592 C   0  0  0  0  0  0  0  0  0  0  0  0
   -3.2673   -1.6792   -0.2964 C   0  0  0  0  0  0  0  0  0  0  0  0
    1.6656   -1.0087   -0.9592 C   0  0  0  0  0  0  0  0  0  0  0  0
    2.7943   -0.1514    0.9974 C   0  0  0  0  0  0  0  0  0  0  0  0
    0.4068    4.5583    0.5079 C   0  0  0  0  0  0  0  0  0  0  0  0
    2.8329   -1.6685   -1.3435 C   0  0  0  0  0  0  0  0  0  0  0  0
    3.9616   -0.8110    0.6129 C   0  0  0  0  0  0  0  0  0  0  0  0
    3.9809   -1.5695   -0.5576 C   0  0  0  0  0  0  0  0  0  0  0  0
  1 12  1  0
  2  4  1  0
  2  5  1  0
  3  5  1  0
  3 16  1  0
  4  7  1  0
  4  9  1  0
  5  6  1  0
  6  8  1  0
  7  8  2  0
  7 10  1  0
  8 11  1  0
  9 14  2  0
  9 15  1  0
 10 12  2  0
 11 13  2  0
 12 13  1  0
 14 17  1  0
 15 18  2  0
 17 19  2  0
 18 19  1  0
M  END
>  <PUBCHEM_COMPOUND_CID>  (1) 
36983

>  <PUBCHEM_CONFORMER_RMSD>  (1) 
0.6

>  <PUBCHEM_CONFORMER_DIVERSEORDER>  (1) 
1
4
2
3

>  <PUBCHEM_MMFF94_PARTIAL_CHARGES>  (1) 
28
1 -0.19
10 -0.15
11 -0.15
12 0.19
13 -0.15
14 -0.15
15 -0.15
16 0.27
17 -0.15
18 -0.15
19 -0.15
2 -0.56
24 0.15
25 0.15
26 0.36
27 0.15
28 0.15
29 0.15
3 -0.9
33 0.15
34 0.15
35 0.15
4 0.57
5 0.55
6 0.14
7 -0.14
8 -0.14
9 -0.14

>  <PUBCHEM_EFFECTIVE_ROTOR_COUNT>  (1) 
2.8

>  <PUBCHEM_PHARMACOPHORE_FEATURES>  (1) 
6
1 2 acceptor
1 3 cation
1 3 donor
6 2 4 5 6 7 8 rings
6 7 8 10 11 12 13 rings
6 9 14 15 17 18 19 rings

>  <PUBCHEM_HEAVY_ATOM_COUNT>  (1) 
19

>  <PUBCHEM_ATOM_DEF_STEREO_COUNT>  (1) 
2

>  <PUBCHEM_ATOM_UDEF_STEREO_COUNT>  (1) 
0

>  <PUBCHEM_BOND_DEF_STEREO_COUNT>  (1) 
0

>  <PUBCHEM_BOND_UDEF_STEREO_COUNT>  (1) 
0

>  <PUBCHEM_ISOTOPIC_ATOM_COUNT>  (1) 
0

>  <PUBCHEM_COMPONENT_COUNT>  (1) 
1

>  <PUBCHEM_CACTVS_TAUTO_COUNT>  (1) 
1

>  <PUBCHEM_CONFORMER_ID>  (1) 
0000907700000001

>  <PUBCHEM_MMFF94_ENERGY>  (1) 
46.548

>  <PUBCHEM_FEATURE_SELFOVERLAP>  (1) 
30.468

>  <PUBCHEM_SHAPE_FINGERPRINT>  (1) 
1100329 8 18410857638479077457
11578080 2 16591916937801602604
11582403 64 16113662150488329264
116883 192 18412826858744039748
11725454 13 16764447737003088514
12173636 292 17833831573388696980
12363563 72 18338519741257294039
12532896 13 17764308340704430972
12553582 1 18338812181285134615
12730499 353 16898783688031421305
12788726 201 18264489494541070608
13083527 12 17618482720447125994
13140716 1 18409733971200205346
13149001 5 18117534384343283605
13681431 1 18198063783665317609
14022347 108 18335990783124873419
14790565 3 18123195597669187769
14863182 85 16602952989497465599
15490181 7 17548420302142880785
16752209 62 18115858616695011323
16945 1 18336828567776875266
17134986 127 17112414412214565564
19049666 15 17984140357919425646
19591789 44 17475803052475772137
20510252 161 18197212538353714376
20645477 70 17689425410322450863
20693207 138 17629495103199999430
20905425 154 18119251902751811868
21524375 3 17252311907903462704
21665056 4 17833277415164609030
23402539 116 18339908325621426135
23419403 2 17773003506543442833
23557571 272 18412261714616114076
23559900 14 18339917101099805426
2748010 2 18340756152139152563
3084891 72 18265324007029860415
3091708 16 9208146541025866409
314173 41 18337112387969825171
350125 39 17400927392945442049
46194498 28 17547522353873801871
5902787 121 18262511627683950290
6442390 28 17621333337744714433
7364860 26 17906733957460345865
81228 2 18341338785980601737
84936 31 17699282479897581544
8809292 202 18269837510730483254
9709674 26 18198904717341315806

>  <PUBCHEM_SHAPE_MULTIPOLES>  (1) 
372.89
5.72
4.5
1
5.22
4.76
-0.1
-3.83
-0.78
-3.57
0.67
0.45
-0.24
0.89

>  <PUBCHEM_SHAPE_SELFOVERLAP>  (1) 
808.78

>  <PUBCHEM_SHAPE_VOLUME>  (1) 
204.9

>  <PUBCHEM_COORDINATE_TYPE>  (1) 
2
5
10

$$$$
