36982
     RDKit          3D

 14 15  0  0  0  0  0  0  0  0999 V2000
   -1.0930    2.5325    0.0012 Cl  0  0  0  0  0  0  0  0  0  0  0  0
    4.9144   -0.0448   -0.0004 Cl  0  0  0  0  0  0  0  0  0  0  0  0
    0.4054   -0.1646    0.0002 C   0  0  0  0  0  0  0  0  0  0  0  0
   -1.0410   -0.2043    0.0002 C   0  0  0  0  0  0  0  0  0  0  0  0
    1.1023   -0.1445   -1.2079 C   0  0  0  0  0  0  0  0  0  0  0  0
    1.1028   -0.1470    1.2081 C   0  0  0  0  0  0  0  0  0  0  0  0
   -1.8130    0.9598    0.0005 C   0  0  0  0  0  0  0  0  0  0  0  0
   -1.6691   -1.4518   -0.0005 C   0  0  0  0  0  0  0  0  0  0  0  0
    2.4967   -0.1072   -1.2081 C   0  0  0  0  0  0  0  0  0  0  0  0
    2.4972   -0.1096    1.2078 C   0  0  0  0  0  0  0  0  0  0  0  0
   -3.2053    0.8768    0.0002 C   0  0  0  0  0  0  0  0  0  0  0  0
   -3.0615   -1.5349   -0.0008 C   0  0  0  0  0  0  0  0  0  0  0  0
    3.1941   -0.0897   -0.0002 C   0  0  0  0  0  0  0  0  0  0  0  0
   -3.8297   -0.3707   -0.0004 C   0  0  0  0  0  0  0  0  0  0  0  0
  1  7  1  0
  2 13  1  0
  3  4  1  0
  3  5  2  0
  3  6  1  0
  4  7  2  0
  4  8  1  0
  5  9  1  0
  6 10  2  0
  7 11  1  0
  8 12  2  0
  9 13  2  0
 10 13  1  0
 11 14  2  0
 12 14  1  0
M  END
>  <PUBCHEM_COMPOUND_CID>  (1) 
36982

>  <PUBCHEM_CONFORMER_RMSD>  (1) 
0.4

>  <PUBCHEM_CONFORMER_DIVERSEORDER>  (1) 
1
2
3

>  <PUBCHEM_MMFF94_PARTIAL_CHARGES>  (1) 
20
1 -0.18
10 -0.15
11 -0.15
12 -0.15
13 0.18
14 -0.15
15 0.15
16 0.15
17 0.15
18 0.15
19 0.15
2 -0.18
20 0.15
21 0.15
22 0.15
5 -0.15
6 -0.15
7 0.18
8 -0.15
9 -0.15

>  <PUBCHEM_EFFECTIVE_ROTOR_COUNT>  (1) 
1

>  <PUBCHEM_PHARMACOPHORE_FEATURES>  (1) 
2
6 3 5 6 9 10 13 rings
6 4 7 8 11 12 14 rings

>  <PUBCHEM_HEAVY_ATOM_COUNT>  (1) 
14

>  <PUBCHEM_ATOM_DEF_STEREO_COUNT>  (1) 
0

>  <PUBCHEM_ATOM_UDEF_STEREO_COUNT>  (1) 
0

>  <PUBCHEM_BOND_DEF_STEREO_COUNT>  (1) 
0

>  <PUBCHEM_BOND_UDEF_STEREO_COUNT>  (1) 
0

>  <PUBCHEM_ISOTOPIC_ATOM_COUNT>  (1) 
0

>  <PUBCHEM_COMPONENT_COUNT>  (1) 
1

>  <PUBCHEM_CACTVS_TAUTO_COUNT>  (1) 
1

>  <PUBCHEM_CONFORMER_ID>  (1) 
0000907600000001

>  <PUBCHEM_MMFF94_ENERGY>  (1) 
41.1113

>  <PUBCHEM_FEATURE_SELFOVERLAP>  (1) 
10.149

>  <PUBCHEM_SHAPE_FINGERPRINT>  (1) 
10465860 250 18131627864269129930
11471102 20 16056880230377013154
12236239 1 17676487245985103283
124424 183 17846494812183075762
13538477 17 18113896052752995467
13581323 91 18409163303327852178
14993402 34 17240481420576197434
15219456 202 17704076161689782038
15653759 3 18202842158405104234
15775835 57 17894912893048754433
16945 1 18410855434790978629
17844478 74 17704075087905818449
18175812 5 17775281702845943909
18186145 218 16950282944301312886
19049666 15 17701828673959906414
19868273 325 18409449206600532845
200 152 16660360402669484659
20201158 50 17489873725798274870
20279233 1 17703794721051873199
20344682 1 17846780710685918861
20510252 161 18342177704968635289
20645477 70 16271370682142962756
21061003 4 16988842804065307185
22094290 60 18412829075210810948
22802520 49 17843976840055090213
2297311 6 18341907285427258828
23175994 123 16917075455643845328
23402539 116 18412537708686995703
23557571 272 18272657826754197332
23559900 14 18271528585763556438
2748010 2 18268135647351382025
474 4 17169560825052302716
7364860 26 17911238635288343361
77492 1 17676206866225020611
81228 2 18340502062306905801

>  <PUBCHEM_SHAPE_MULTIPOLES>  (1) 
291.85
7.28
1.57
1.03
4.14
0.84
0
-0.95
0
-1.64
0
0.74
-0.05
0

>  <PUBCHEM_SHAPE_SELFOVERLAP>  (1) 
615.56

>  <PUBCHEM_SHAPE_VOLUME>  (1) 
157.3

>  <PUBCHEM_COORDINATE_TYPE>  (1) 
2
5
10

$$$$
