36991
     RDKit          3D

 22 23  0  0  1  0  0  0  0  0999 V2000
   -4.2586   -1.8518    0.5222 S   0  0  0  0  0  0  0  0  0  0  0  0
    2.3778   -2.4823   -0.5495 O   0  0  0  0  0  0  0  0  0  0  0  0
    6.5864    1.8947    0.7388 O   0  0  0  0  0  0  0  0  0  0  0  0
   -0.3283   -1.5746   -0.5170 N   0  0  0  0  0  0  0  0  0  0  0  0
    0.7735   -0.7057   -0.0845 C   0  0  0  0  0  0  0  0  0  0  0  0
    2.0724   -1.1109   -0.8172 C   0  0  0  0  0  0  0  0  0  0  0  0
   -1.5413   -1.2634    0.2188 C   0  0  0  0  0  0  0  0  0  0  0  0
    0.3695    0.7433   -0.3633 C   0  0  0  0  0  0  0  0  0  0  0  0
    3.2833   -0.3041   -0.3997 C   0  0  0  0  0  0  0  0  0  0  0  0
   -2.6761   -2.1377   -0.3293 C   0  0  0  0  0  0  0  0  0  0  0  0
   -1.2708   -1.4904    1.7064 C   0  0  0  0  0  0  0  0  0  0  0  0
    3.9999    0.3848   -1.3621 C   0  0  0  0  0  0  0  0  0  0  0  0
    3.6466   -0.2747    0.9352 C   0  0  0  0  0  0  0  0  0  0  0  0
    5.1162    1.1273   -0.9771 C   0  0  0  0  0  0  0  0  0  0  0  0
    4.7628    0.4680    1.3201 C   0  0  0  0  0  0  0  0  0  0  0  0
    5.4977    1.1690    0.3639 C   0  0  0  0  0  0  0  0  0  0  0  0
   -4.5266   -0.1148    0.1901 C   0  0  0  0  0  0  0  0  0  0  0  0
   -4.6285    0.3301   -1.1246 C   0  0  0  0  0  0  0  0  0  0  0  0
   -4.6320    0.7827    1.2486 C   0  0  0  0  0  0  0  0  0  0  0  0
   -4.8379    1.6848   -1.3834 C   0  0  0  0  0  0  0  0  0  0  0  0
   -4.8415    2.1373    0.9899 C   0  0  0  0  0  0  0  0  0  0  0  0
   -4.9444    2.5883   -0.3261 C   0  0  0  0  0  0  0  0  0  0  0  0
  1 10  1  0
  1 17  1  0
  2  6  1  0
  3 16  1  0
  4  5  1  0
  4  7  1  0
  5  6  1  0
  5  8  1  0
  6  9  1  0
  7 10  1  0
  7 11  1  0
  9 12  2  0
  9 13  1  0
 12 14  1  0
 13 15  2  0
 14 16  2  0
 15 16  1  0
 17 18  2  0
 17 19  1  0
 18 20  1  0
 19 21  2  0
 20 22  2  0
 21 22  1  0
M  END
>  <PUBCHEM_COMPOUND_CID>  (1) 
36991

>  <PUBCHEM_CONFORMER_RMSD>  (1) 
0.8

>  <PUBCHEM_CONFORMER_DIVERSEORDER>  (1) 
3
89
64
9
208
7
129
156
25
177
168
130
135
204
4
172
47
14
52
212
235
203
160
58
126
163
118
10
206
74
11
55
63
211
87
219
142
183
121
185
207
131
107
109
29
122
34
141
44
102
66
150
178
196
233
50
197
33
83
213
147
239
82
22
133
76
201
231
188
132
115
85
192
2
18
101
202
225
123
72
116
146
23
42
88
95
119
144
140
184
137
77
81
78
165
27
205
226
190
38
56
20
120
223
210
117
224
49
229
191
218
158
166
104
113
69
6
92
53
238
200
195
222
124
157
189
108
40
79
138
154
90
96
125
221
24
227
240
57
209
198
93
31
67
68
149
164
161
12
179
215
73
173
153
111
54
151
220
230
214
193
84
61
169
194
32
37
36
139
181
41
162
103
30
112
152
174
199
98
128
75
236
171
143
105
1
60
155
228
26
182
176
45
97
241
167
216
51
59
145
17
19
134
16
110
186
148
13
114
86
94
28
99
180
39
80
65
15
71
217
70
8
21
106
91
48
159
237
100
35
62
175
136
5
234
43
242
46
127
170
187
232

>  <PUBCHEM_MMFF94_PARTIAL_CHARGES>  (1) 
32
1 -0.33
10 0.23
12 -0.15
13 -0.15
14 -0.15
15 -0.15
16 0.08
17 0.1
18 -0.15
19 -0.15
2 -0.68
20 -0.15
21 -0.15
22 -0.15
26 0.36
3 -0.53
35 0.15
36 0.15
37 0.4
38 0.15
39 0.15
4 -0.9
40 0.15
41 0.15
42 0.15
43 0.15
44 0.45
45 0.15
5 0.27
6 0.42
7 0.27
9 -0.14

>  <PUBCHEM_EFFECTIVE_ROTOR_COUNT>  (1) 
7

>  <PUBCHEM_PHARMACOPHORE_FEATURES>  (1) 
7
1 2 acceptor
1 2 donor
1 3 donor
1 4 cation
1 4 donor
6 17 18 19 20 21 22 rings
6 9 12 13 14 15 16 rings

>  <PUBCHEM_HEAVY_ATOM_COUNT>  (1) 
22

>  <PUBCHEM_ATOM_DEF_STEREO_COUNT>  (1) 
0

>  <PUBCHEM_ATOM_UDEF_STEREO_COUNT>  (1) 
3

>  <PUBCHEM_BOND_DEF_STEREO_COUNT>  (1) 
0

>  <PUBCHEM_BOND_UDEF_STEREO_COUNT>  (1) 
0

>  <PUBCHEM_ISOTOPIC_ATOM_COUNT>  (1) 
0

>  <PUBCHEM_COMPONENT_COUNT>  (1) 
1

>  <PUBCHEM_CACTVS_TAUTO_COUNT>  (1) 
2

>  <PUBCHEM_CONFORMER_ID>  (1) 
0000907F00000003

>  <PUBCHEM_MMFF94_ENERGY>  (1) 
54.0936

>  <PUBCHEM_FEATURE_SELFOVERLAP>  (1) 
35.524

>  <PUBCHEM_SHAPE_FINGERPRINT>  (1) 
10 15 18041287612496600601
10087517 78 18261669363349117605
105312 117 18131634491229821983
10763959 59 18342747351430224660
11089746 13 17632855305012603690
11393246 34 10953457444953564201
12422481 6 17313656045297444446
12596602 18 16370730361274868913
12633257 1 17023182781742543134
12969540 114 17132114653853749966
13073987 5 18259985980998273243
13544653 18 9727333724776587927
14251758 9 17604145909175361786
14251764 30 9078822000874062297
14251764 38 18339080518120820001
14466204 15 18334855043347722176
14528608 73 17346595270492620324
14790565 3 18265338489781123036
15348495 7 13262399985560697927
15463212 79 18408037404081074851
1601671 61 18410294718199601884
16079462 125 17917989516592154216
17780758 139 12829487030916255367
20281389 69 18408322189653916784
20691028 202 18269285569174393945
21033648 29 17846211193780217250
21054139 6 11959733763769978460
21401589 2 18335148557750532883
21421861 104 17677320598969945610
21682296 61 12179831797561839640
22956985 138 16892591823439814411
23559900 14 18338806589612638630
25122255 55 10881669192324833920
2838139 119 18272928297829387008
2916195 48 18408322181417371073
341906 21 18410007741053157147
5104073 3 18260551095504377243
5283173 99 18342178847250503505
7226269 152 18334010579615444937
7918774 8 11242245226023426064
8863177 126 7781510413141079724

>  <PUBCHEM_SHAPE_MULTIPOLES>  (1) 
439.88
15.87
2.56
1.38
7.9
0.05
0.16
10.66
1.35
-2.65
-0.01
-0.03
0.17
0.71

>  <PUBCHEM_SHAPE_SELFOVERLAP>  (1) 
900.598

>  <PUBCHEM_SHAPE_VOLUME>  (1) 
255.9

>  <PUBCHEM_COORDINATE_TYPE>  (1) 
2
5
10

$$$$
