37
     RDKit          3D

 12 11  0  0  1  0  0  0  0  0999 V2000
    1.0011   -0.7730   -1.2426 O   0  0  0  0  0  0  0  0  0  0  0  0
    2.0774    1.7698   -0.6745 O   0  0  0  0  0  0  0  0  0  0  0  0
    3.5949   -1.1257    0.9276 O   0  0  0  0  0  0  0  0  0  0  0  0
   -1.5436   -1.5631   -0.2173 O   0  0  0  0  0  0  0  0  0  0  0  0
   -3.8803   -0.6257   -0.0445 O   0  0  0  0  0  0  0  0  0  0  0  0
   -3.0428    1.4644    0.3965 O   0  0  0  0  0  0  0  0  0  0  0  0
    0.9631   -0.2321    0.0778 C   0  0  0  0  0  0  0  0  0  0  0  0
    2.1757    0.6935    0.2583 C   0  0  0  0  0  0  0  0  0  0  0  0
   -0.3622    0.5193    0.2687 C   0  0  0  0  0  0  0  0  0  0  0  0
    3.5001   -0.0324    0.0197 C   0  0  0  0  0  0  0  0  0  0  0  0
   -1.5670   -0.3718    0.0530 C   0  0  0  0  0  0  0  0  0  0  0  0
   -2.9163    0.2767    0.1772 C   0  0  0  0  0  0  0  0  0  0  0  0
  1  7  1  0
  2  8  1  0
  3 10  1  0
  4 11  2  0
  5 12  1  0
  6 12  2  0
  7  8  1  0
  7  9  1  0
  8 10  1  0
  9 11  1  0
 11 12  1  0
M  END
>  <PUBCHEM_COMPOUND_CID>  (1) 
37

>  <PUBCHEM_CONFORMER_RMSD>  (1) 
0.6

>  <PUBCHEM_CONFORMER_DIVERSEORDER>  (1) 
1
159
115
2
153
84
60
130
50
152
34
11
160
163
80
72
138
5
139
31
158
40
105
122
53
75
128
150
24
151
42
109
23
12
94
107
33
97
76
59
140
13
14
132
111
6
149
101
135
162
95
116
7
156
26
77
51
25
100
123
61
71
120
30
133
28
108
70
124
66
21
114
48
55
106
104
137
49
68
19
18
41
43
119
79
92
157
102
10
81
83
17
118
47
89
93
16
154
142
3
144
110
38
113
117
35
78
103
125
56
64
155
87
143
44
9
45
39
82
99
65
22
27
54
148
136
161
46
112
4
20
37
32
147
8
52
15
146
98
127
63
29
62
85
57
90
96
145
141
126
131
91
36
129
69
88
74
134
121
86
58
73
67

>  <PUBCHEM_MMFF94_PARTIAL_CHARGES>  (1) 
16
1 -0.68
10 0.28
11 0.51
12 0.72
19 0.4
2 -0.68
20 0.4
21 0.4
22 0.5
3 -0.68
4 -0.57
5 -0.65
6 -0.57
7 0.28
8 0.28
9 0.06

>  <PUBCHEM_EFFECTIVE_ROTOR_COUNT>  (1) 
5

>  <PUBCHEM_PHARMACOPHORE_FEATURES>  (1) 
10
1 1 acceptor
1 1 donor
1 2 acceptor
1 2 donor
1 3 acceptor
1 3 donor
1 4 acceptor
1 5 acceptor
1 6 acceptor
3 5 6 12 anion

>  <PUBCHEM_HEAVY_ATOM_COUNT>  (1) 
12

>  <PUBCHEM_ATOM_DEF_STEREO_COUNT>  (1) 
0

>  <PUBCHEM_ATOM_UDEF_STEREO_COUNT>  (1) 
2

>  <PUBCHEM_BOND_DEF_STEREO_COUNT>  (1) 
0

>  <PUBCHEM_BOND_UDEF_STEREO_COUNT>  (1) 
0

>  <PUBCHEM_ISOTOPIC_ATOM_COUNT>  (1) 
0

>  <PUBCHEM_COMPONENT_COUNT>  (1) 
1

>  <PUBCHEM_CACTVS_TAUTO_COUNT>  (1) 
2

>  <PUBCHEM_CONFORMER_ID>  (1) 
0000002500000001

>  <PUBCHEM_MMFF94_ENERGY>  (1) 
20.8852

>  <PUBCHEM_FEATURE_SELFOVERLAP>  (1) 
50.829

>  <PUBCHEM_SHAPE_FINGERPRINT>  (1) 
10130415 120 18412824685722703200
10219947 1 16298387959180732106
11062470 55 12751239207445737899
12162725 195 18411703201005375733
12251169 10 18409727391516035802
124424 183 18261386715587612168
12932764 1 16660630891008991442
13380535 76 18273215296287242135
14144814 61 18409448072459972592
14325111 11 18412263951750821305
18511873 20 18335980896078282114
190213 19 17530964695905269457
20201158 50 17988647384692938135
20281407 28 11241971481797969853
20339313 130 16081379526907840326
20645464 45 18272938202371936223
21028194 46 18131634499550438361
23402539 116 18272358777082190821
23463225 33 18410292510375200546
3248919 1 17917440825502809441
9939556 21 18336265738198524342

>  <PUBCHEM_SHAPE_MULTIPOLES>  (1) 
211.74
6.5
1.36
0.79
0.72
0.2
0.08
-0.22
-0.9
-0.01
0.09
-0.37
-0.07
-0.51

>  <PUBCHEM_SHAPE_SELFOVERLAP>  (1) 
409.74

>  <PUBCHEM_SHAPE_VOLUME>  (1) 
126.9

>  <PUBCHEM_COORDINATE_TYPE>  (1) 
2
5
10

$$$$
