37013
     RDKit          3D

 10 10  0  0  0  0  0  0  0  0999 V2000
    1.0383   -0.0004   -1.2618 S   0  0  0  0  0  0  0  0  0  0  0  0
    4.4226    0.0001    0.9801 N   0  0  0  0  0  0  0  0  0  0  0  0
    2.1068    0.0002    0.2055 C   0  0  0  0  0  0  0  0  0  0  0  0
    3.5734    0.0001   -0.2072 C   0  0  0  0  0  0  0  0  0  0  0  0
   -0.5858   -0.0002   -0.5274 C   0  0  0  0  0  0  0  0  0  0  0  0
   -1.2213    1.2079   -0.2403 C   0  0  0  0  0  0  0  0  0  0  0  0
   -1.2214   -1.2082   -0.2398 C   0  0  0  0  0  0  0  0  0  0  0  0
   -2.4923    1.2082    0.3343 C   0  0  0  0  0  0  0  0  0  0  0  0
   -2.4925   -1.2079    0.3347 C   0  0  0  0  0  0  0  0  0  0  0  0
   -3.1278    0.0003    0.6218 C   0  0  0  0  0  0  0  0  0  0  0  0
  1  3  1  0
  1  5  1  0
  2  4  1  0
  3  4  1  0
  5  6  2  0
  5  7  1  0
  6  8  1  0
  7  9  2  0
  8 10  2  0
  9 10  1  0
M  END
>  <PUBCHEM_COMPOUND_CID>  (1) 
37013

>  <PUBCHEM_CONFORMER_RMSD>  (1) 
0.6

>  <PUBCHEM_CONFORMER_DIVERSEORDER>  (1) 
1
13
3
10
2
4
7
9
11
6
5
12
8

>  <PUBCHEM_MMFF94_PARTIAL_CHARGES>  (1) 
17
1 -0.33
10 -0.15
15 0.15
16 0.15
17 0.15
18 0.15
19 0.15
2 -0.99
20 0.36
21 0.36
3 0.23
4 0.27
5 0.1
6 -0.15
7 -0.15
8 -0.15
9 -0.15

>  <PUBCHEM_EFFECTIVE_ROTOR_COUNT>  (1) 
3

>  <PUBCHEM_PHARMACOPHORE_FEATURES>  (1) 
3
1 2 cation
1 2 donor
6 5 6 7 8 9 10 rings

>  <PUBCHEM_HEAVY_ATOM_COUNT>  (1) 
10

>  <PUBCHEM_ATOM_DEF_STEREO_COUNT>  (1) 
0

>  <PUBCHEM_ATOM_UDEF_STEREO_COUNT>  (1) 
0

>  <PUBCHEM_BOND_DEF_STEREO_COUNT>  (1) 
0

>  <PUBCHEM_BOND_UDEF_STEREO_COUNT>  (1) 
0

>  <PUBCHEM_ISOTOPIC_ATOM_COUNT>  (1) 
0

>  <PUBCHEM_COMPONENT_COUNT>  (1) 
1

>  <PUBCHEM_CACTVS_TAUTO_COUNT>  (1) 
1

>  <PUBCHEM_CONFORMER_ID>  (1) 
0000909500000001

>  <PUBCHEM_MMFF94_ENERGY>  (1) 
17.1933

>  <PUBCHEM_FEATURE_SELFOVERLAP>  (1) 
15.223

>  <PUBCHEM_SHAPE_FINGERPRINT>  (1) 
10857977 72 18271257091947755277
11127187 94 11169916091062414705
12251169 10 18410857676616233676
12932764 1 17603303756709879260
13024252 1 14562529570530419709
15219456 202 17846227600634434966
18186145 218 15051737503975388756
20645464 45 17917718989091403047
20671657 53 13117998869202259414
20711985 344 13696405773791780662
20871998 184 18201165454786641903
21119208 17 10447929468832941656
22485316 2 15574712512850217032
23402539 116 18343293774254116925
23403322 49 12973872690167975704
23552423 10 17610924647948511893
3086196 2 18341611589603224023
369184 2 18343587321924966919
75552 356 18408889550580910071

>  <PUBCHEM_SHAPE_MULTIPOLES>  (1) 
204.66
6.53
1.2
0.98
6.99
0
0.13
0
-2.46
-1.06
-0.01
0.45
0
0

>  <PUBCHEM_SHAPE_SELFOVERLAP>  (1) 
394.609

>  <PUBCHEM_SHAPE_VOLUME>  (1) 
125.2

>  <PUBCHEM_COORDINATE_TYPE>  (1) 
2
5
10

$$$$
