37021
     RDKit          3D

 20 21  0  0  1  0  0  0  0  0999 V2000
    5.2630   -0.6488    0.5587 Cl  0  0  0  0  0  0  0  0  0  0  0  0
   -1.4384   -0.9491    0.6952 O   0  0  0  0  0  0  0  0  0  0  0  0
   -1.6486    0.9703   -1.9523 O   0  0  0  0  0  0  0  0  0  0  0  0
   -3.3866   -2.0635    1.1639 O   0  0  0  0  0  0  0  0  0  0  0  0
   -0.8988    1.7809    0.0931 N   0  0  0  0  0  0  0  0  0  0  0  0
   -0.6814   -0.6114   -0.4806 C   0  0  0  0  0  0  0  0  0  0  0  0
   -1.1365   -1.6397   -1.5085 C   0  0  0  0  0  0  0  0  0  0  0  0
   -2.5648   -1.9361   -1.1081 C   0  0  0  0  0  0  0  0  0  0  0  0
   -1.1218    0.7797   -0.8529 C   0  0  0  0  0  0  0  0  0  0  0  0
    0.8128   -0.6199   -0.2191 C   0  0  0  0  0  0  0  0  0  0  0  0
   -2.5390   -1.6909    0.3679 C   0  0  0  0  0  0  0  0  0  0  0  0
   -0.6551    3.1678   -0.2825 C   0  0  0  0  0  0  0  0  0  0  0  0
   -0.8932    1.5120    1.5289 C   0  0  0  0  0  0  0  0  0  0  0  0
    1.7067   -0.2471   -1.2277 C   0  0  0  0  0  0  0  0  0  0  0  0
    1.3068   -1.0015    1.0322 C   0  0  0  0  0  0  0  0  0  0  0  0
    0.8283    3.4311   -0.4779 C   0  0  0  0  0  0  0  0  0  0  0  0
   -2.2828    1.6701    2.1224 C   0  0  0  0  0  0  0  0  0  0  0  0
    3.0806   -0.2561   -0.9877 C   0  0  0  0  0  0  0  0  0  0  0  0
    2.6809   -1.0103    1.2726 C   0  0  0  0  0  0  0  0  0  0  0  0
    3.5679   -0.6375    0.2625 C   0  0  0  0  0  0  0  0  0  0  0  0
  1 20  1  0
  2  6  1  0
  2 11  1  0
  3  9  2  0
  4 11  2  0
  5  9  1  0
  5 12  1  0
  5 13  1  0
  6  7  1  0
  6  9  1  0
  6 10  1  0
  7  8  1  0
  8 11  1  0
 10 14  2  0
 10 15  1  0
 12 16  1  0
 13 17  1  0
 14 18  1  0
 15 19  2  0
 18 20  2  0
 19 20  1  0
M  END
>  <PUBCHEM_COMPOUND_CID>  (1) 
37021

>  <PUBCHEM_CONFORMER_RMSD>  (1) 
0.8

>  <PUBCHEM_CONFORMER_DIVERSEORDER>  (1) 
1
10
6
9
12
5
4
11
14
13
15
3
7
8
2

>  <PUBCHEM_MMFF94_PARTIAL_CHARGES>  (1) 
21
1 -0.18
10 -0.14
11 0.66
12 0.3
13 0.3
14 -0.15
15 -0.15
18 -0.15
19 -0.15
2 -0.43
20 0.18
29 0.15
3 -0.57
30 0.15
37 0.15
38 0.15
4 -0.57
5 -0.66
6 0.48
8 0.06
9 0.57

>  <PUBCHEM_EFFECTIVE_ROTOR_COUNT>  (1) 
5.8

>  <PUBCHEM_PHARMACOPHORE_FEATURES>  (1) 
4
1 3 acceptor
1 4 acceptor
5 2 6 7 8 11 rings
6 10 14 15 18 19 20 rings

>  <PUBCHEM_HEAVY_ATOM_COUNT>  (1) 
20

>  <PUBCHEM_ATOM_DEF_STEREO_COUNT>  (1) 
0

>  <PUBCHEM_ATOM_UDEF_STEREO_COUNT>  (1) 
1

>  <PUBCHEM_BOND_DEF_STEREO_COUNT>  (1) 
0

>  <PUBCHEM_BOND_UDEF_STEREO_COUNT>  (1) 
0

>  <PUBCHEM_ISOTOPIC_ATOM_COUNT>  (1) 
0

>  <PUBCHEM_COMPONENT_COUNT>  (1) 
1

>  <PUBCHEM_CACTVS_TAUTO_COUNT>  (1) 
2

>  <PUBCHEM_CONFORMER_ID>  (1) 
0000909D00000001

>  <PUBCHEM_MMFF94_ENERGY>  (1) 
53.2091

>  <PUBCHEM_FEATURE_SELFOVERLAP>  (1) 
20.297

>  <PUBCHEM_SHAPE_FINGERPRINT>  (1) 
10165383 225 17195207753765909512
10989021 7 18338239391746182948
11578080 2 17896310497251222229
12403814 3 17774996938372917790
13140716 1 18411142441353725064
133893 2 17691098845164508527
13681431 1 18053928834587123773
13764800 53 17917151580840622346
14142880 1 18271807861147351305
14787075 74 17753045287787965234
14817 1 14547615944713200117
15295992 7 16915383182710678658
15906896 17 18192705644733944847
16945 1 18118986709895613877
17357779 13 17773852316365827261
1813 80 18270971261674110430
19868273 325 18412256250964143526
200 152 17676201403238136434
20510252 161 18410004434276784466
20600515 1 18200599201792009511
21339142 36 18337939168994502630
21524375 3 17549246043748984285
21731228 192 17690842259444397056
22112679 90 18338254720436950780
22344851 341 17255415232112091126
2306618 200 18201144461001822914
23402539 116 18201138988886628950
23419403 2 17912894409483985641
23557571 272 18202275927344725022
2748010 2 18124284302978918140
312423 11 18335433374227753718
427121 178 17197174801827375865
81228 2 18343022155615569883
90316 7 18336557009974934512

>  <PUBCHEM_SHAPE_MULTIPOLES>  (1) 
390.87
5.87
3.09
1.72
7.8
2.83
0.21
-3.04
1.61
-2.38
-0.25
-0.81
0.16
-0.61

>  <PUBCHEM_SHAPE_SELFOVERLAP>  (1) 
815.142

>  <PUBCHEM_SHAPE_VOLUME>  (1) 
225.2

>  <PUBCHEM_COORDINATE_TYPE>  (1) 
2
5
10

$$$$
