37031
     RDKit          3D

 15 16  0  0  1  0  0  0  0  0999 V2000
   -3.4261   -1.1850   -0.7271 O   0  0  0  0  0  0  0  0  0  0  0  0
   -1.5767   -0.3689    0.4281 N   0  0  0  0  0  0  0  0  0  0  0  0
   -0.6884   -0.2154   -0.7005 C   0  0  0  0  0  0  0  0  0  0  0  0
   -0.9262    1.0936   -1.4683 C   0  0  0  0  0  0  0  0  0  0  0  0
   -0.9004    2.3774   -0.6396 C   0  0  0  0  0  0  0  0  0  0  0  0
    0.4503    2.7046   -0.0112 C   0  0  0  0  0  0  0  0  0  0  0  0
    0.7589   -0.4415   -0.3147 C   0  0  0  0  0  0  0  0  0  0  0  0
    0.8831    1.7107    1.0630 C   0  0  0  0  0  0  0  0  0  0  0  0
    1.4870    0.4481    0.4993 C   0  0  0  0  0  0  0  0  0  0  0  0
    1.3958   -1.6073   -0.7844 C   0  0  0  0  0  0  0  0  0  0  0  0
    2.8252    0.1485    0.8169 C   0  0  0  0  0  0  0  0  0  0  0  0
    2.7233   -1.8871   -0.4627 C   0  0  0  0  0  0  0  0  0  0  0  0
    3.4390   -1.0079    0.3384 C   0  0  0  0  0  0  0  0  0  0  0  0
   -2.8743   -0.8427    0.3154 C   0  0  0  0  0  0  0  0  0  0  0  0
   -3.5705   -0.9273    1.6473 C   0  0  0  0  0  0  0  0  0  0  0  0
  1 14  2  0
  2  3  1  0
  2 14  1  0
  3  4  1  0
  3  7  1  0
  4  5  1  0
  5  6  1  0
  6  8  1  0
  7  9  2  0
  7 10  1  0
  8  9  1  0
  9 11  1  0
 10 12  2  0
 11 13  2  0
 12 13  1  0
 14 15  1  0
M  END
>  <PUBCHEM_COMPOUND_CID>  (1) 
37031

>  <PUBCHEM_CONFORMER_RMSD>  (1) 
0.6

>  <PUBCHEM_CONFORMER_DIVERSEORDER>  (1) 
1
11
7
6
12
2
4
13
5
8
10
3
9

>  <PUBCHEM_MMFF94_PARTIAL_CHARGES>  (1) 
17
1 -0.57
10 -0.15
11 -0.15
12 -0.15
13 -0.15
14 0.57
15 0.06
2 -0.73
25 0.37
26 0.15
27 0.15
28 0.15
29 0.15
3 0.44
7 -0.14
8 0.14
9 -0.14

>  <PUBCHEM_EFFECTIVE_ROTOR_COUNT>  (1) 
3

>  <PUBCHEM_PHARMACOPHORE_FEATURES>  (1) 
4
1 1 acceptor
1 2 donor
6 7 9 10 11 12 13 rings
7 3 4 5 6 7 8 9 rings

>  <PUBCHEM_HEAVY_ATOM_COUNT>  (1) 
15

>  <PUBCHEM_ATOM_DEF_STEREO_COUNT>  (1) 
0

>  <PUBCHEM_ATOM_UDEF_STEREO_COUNT>  (1) 
1

>  <PUBCHEM_BOND_DEF_STEREO_COUNT>  (1) 
0

>  <PUBCHEM_BOND_UDEF_STEREO_COUNT>  (1) 
0

>  <PUBCHEM_ISOTOPIC_ATOM_COUNT>  (1) 
0

>  <PUBCHEM_COMPONENT_COUNT>  (1) 
1

>  <PUBCHEM_CACTVS_TAUTO_COUNT>  (1) 
2

>  <PUBCHEM_CONFORMER_ID>  (1) 
000090A700000001

>  <PUBCHEM_MMFF94_ENERGY>  (1) 
31.7158

>  <PUBCHEM_FEATURE_SELFOVERLAP>  (1) 
20.305

>  <PUBCHEM_SHAPE_FINGERPRINT>  (1) 
10219947 1 18341047518473194058
11086676 242 18341910583577163321
11471102 22 18341047501287972378
12138202 97 17829322493382738356
12251169 10 18059862783126410459
12824470 246 17241318058836175986
14817 1 12934039737008429389
15375462 478 17275105028965740243
15501101 241 18341333387190723625
16945 1 18270120239531416341
17357779 13 18337091415886690133
17844478 74 18411698747203242198
18534176 82 18118111473060108660
20645477 70 18118952827473849655
20671657 53 16660366978196038238
20711985 344 17896589605605785501
20871998 22 18410015433255129482
21061003 4 18272086084844121314
22802520 49 18055342549143216156
23419403 2 17897979525520929748
23557571 272 18262519178758273908
23559900 14 17478603513673584454
2748010 2 18127673973184678708
576247 118 18334305261663550185
6786 2 13669875855589593701
6992083 37 18131634508446626935
81228 2 18117000979190530405
8809292 202 17907856206760947030

>  <PUBCHEM_SHAPE_MULTIPOLES>  (1) 
297.84
5.19
2.49
1.26
1.7
1.63
-0.1
-3.81
-1.49
-0.1
0.25
0.6
0.03
0.9

>  <PUBCHEM_SHAPE_SELFOVERLAP>  (1) 
618.537

>  <PUBCHEM_SHAPE_VOLUME>  (1) 
168.1

>  <PUBCHEM_COORDINATE_TYPE>  (1) 
2
5
10

$$$$
