3703
     RDKit          3D

 19 21  0  0  1  0  0  0  0  0999 V2000
   -3.3424    0.1086   -2.6095 Cl  0  0  0  0  0  0  0  0  0  0  0  0
   -5.5275   -0.0686   -0.2289 Cl  0  0  0  0  0  0  0  0  0  0  0  0
    3.1790    2.0558   -0.6968 N   0  0  0  0  0  0  0  0  0  0  0  0
    0.3579    0.3206    1.0273 C   0  0  0  0  0  0  0  0  0  0  0  0
    2.5356    1.2508    0.3300 C   0  0  0  0  0  0  0  0  0  0  0  0
    1.0338    1.5856    0.4444 C   0  0  0  0  0  0  0  0  0  0  0  0
    1.2447   -0.7601    0.4572 C   0  0  0  0  0  0  0  0  0  0  0  0
    2.4791   -0.2265    0.0525 C   0  0  0  0  0  0  0  0  0  0  0  0
   -1.1127    0.2243    0.6964 C   0  0  0  0  0  0  0  0  0  0  0  0
    0.9964   -2.1229    0.3712 C   0  0  0  0  0  0  0  0  0  0  0  0
    3.4771   -1.0487   -0.4501 C   0  0  0  0  0  0  0  0  0  0  0  0
   -1.5312    0.2101   -0.6356 C   0  0  0  0  0  0  0  0  0  0  0  0
   -2.0572    0.1486    1.7217 C   0  0  0  0  0  0  0  0  0  0  0  0
    1.9912   -2.9505   -0.1525 C   0  0  0  0  0  0  0  0  0  0  0  0
    3.2220   -2.4171   -0.5613 C   0  0  0  0  0  0  0  0  0  0  0  0
    3.1903    3.4652   -0.3263 C   0  0  0  0  0  0  0  0  0  0  0  0
   -2.8893    0.1204   -0.9410 C   0  0  0  0  0  0  0  0  0  0  0  0
   -3.4154    0.0592    1.4162 C   0  0  0  0  0  0  0  0  0  0  0  0
   -3.8314    0.0450    0.0849 C   0  0  0  0  0  0  0  0  0  0  0  0
  1 17  1  0
  2 19  1  0
  3  5  1  0
  3 16  1  0
  4  6  1  0
  4  7  1  0
  4  9  1  0
  5  6  1  0
  5  8  1  0
  7  8  2  0
  7 10  1  0
  8 11  1  0
  9 12  2  0
  9 13  1  0
 10 14  2  0
 11 15  2  0
 12 17  1  0
 13 18  2  0
 14 15  1  0
 17 19  2  0
 18 19  1  0
M  END
>  <PUBCHEM_COMPOUND_CID>  (1) 
3703

>  <PUBCHEM_CONFORMER_RMSD>  (1) 
0.6

>  <PUBCHEM_CONFORMER_DIVERSEORDER>  (1) 
7
16
18
39
38
30
26
36
3
15
29
12
25
41
28
11
17
24
6
13
19
8
40
37
35
5
20
33
34
21
10
14
22
31
1
32
9
23
2
4
27

>  <PUBCHEM_MMFF94_PARTIAL_CHARGES>  (1) 
26
1 -0.18
10 -0.15
11 -0.15
12 -0.15
13 -0.15
14 -0.15
15 -0.15
16 0.27
17 0.18
18 -0.15
19 0.18
2 -0.18
24 0.36
25 0.15
26 0.15
27 0.15
28 0.15
29 0.15
3 -0.9
30 0.15
34 0.15
4 0.29
5 0.41
7 -0.14
8 -0.14
9 -0.14

>  <PUBCHEM_EFFECTIVE_ROTOR_COUNT>  (1) 
2.6

>  <PUBCHEM_PHARMACOPHORE_FEATURES>  (1) 
5
1 3 cation
1 3 donor
5 4 5 6 7 8 rings
6 7 8 10 11 14 15 rings
6 9 12 13 17 18 19 rings

>  <PUBCHEM_HEAVY_ATOM_COUNT>  (1) 
19

>  <PUBCHEM_ATOM_DEF_STEREO_COUNT>  (1) 
0

>  <PUBCHEM_ATOM_UDEF_STEREO_COUNT>  (1) 
2

>  <PUBCHEM_BOND_DEF_STEREO_COUNT>  (1) 
0

>  <PUBCHEM_BOND_UDEF_STEREO_COUNT>  (1) 
0

>  <PUBCHEM_ISOTOPIC_ATOM_COUNT>  (1) 
0

>  <PUBCHEM_COMPONENT_COUNT>  (1) 
1

>  <PUBCHEM_CACTVS_TAUTO_COUNT>  (1) 
1

>  <PUBCHEM_CONFORMER_ID>  (1) 
00000E7700000007

>  <PUBCHEM_MMFF94_ENERGY>  (1) 
52.1088

>  <PUBCHEM_FEATURE_SELFOVERLAP>  (1) 
25.451

>  <PUBCHEM_SHAPE_FINGERPRINT>  (1) 
11471102 20 18410299094628708786
11582403 64 17247191834340124720
11725454 13 17533191279945224484
11759241 127 17823412880661193231
12236239 1 17704354346821744771
12553582 1 18124882257095624074
12730499 353 18264216961844584393
13009979 54 17488471771316631586
13134695 92 18262514767885123422
13140716 1 18339082717639395898
13533116 47 18272371988697141803
13911987 19 18045249114416633462
14250199 8 18411421682846688664
15502722 9 18410014351118601620
15961568 22 16660935507190795101
16752209 62 16487255427139706241
16945 1 18410299073375554810
17134986 127 18120104024801479660
17818456 19 17271457798583602257
1813 80 17914630358214126254
18186145 218 17749387019022968465
19422 9 17989212516690232067
19784866 34 18198906009778357744
19786989 88 18334853965147257689
200 152 18201153257147729107
20361792 2 18127405653191804586
20645477 70 18408319986430678459
20671657 53 18195247715580803338
21499 59 18267025144612268720
21639500 275 18410293631451400600
22112679 90 17274826817926895385
2255824 54 18342182154739233538
23114952 82 18186806859287622140
232386 152 16486680394847377067
23402539 116 18052822451534615066
23526113 38 17896042035629753235
23557571 272 17022903437032577805
23559900 14 18409167701258423147
23598291 2 17916886628724691601
238 59 18263061301856289783
2748010 2 18121520182855924762
3060560 45 18410018771088446404
312423 11 18059869328703769777
46194498 28 18333447629909450277
465052 167 17704071811769145687
474 4 18340488971135687896
5281201 14 18261671480873353269
6025842 7 18411982494059351533
6049 1 17676778586660013357
6327066 14 17901668490433671172
633830 44 18057625319771342220
7471813 234 18130782305188258344
77492 1 17704075079463414625
81228 2 17473257674710162120
8272917 22 18412269428097880709
9981440 41 15763280088623261520

>  <PUBCHEM_SHAPE_MULTIPOLES>  (1) 
389.77
8.46
2.74
1.51
7.89
0.53
0.54
0.37
1.99
-5.43
0.45
1.89
0.1
-0.08

>  <PUBCHEM_SHAPE_SELFOVERLAP>  (1) 
828.992

>  <PUBCHEM_SHAPE_VOLUME>  (1) 
219.6

>  <PUBCHEM_COORDINATE_TYPE>  (1) 
2
5
10

$$$$
