37038
     RDKit          3D

 50 55  0  0  1  0  0  0  0  0999 V2000
    5.6591   -2.9723   -0.8341 O   0  0  0  0  0  0  0  0  0  0  0  0
   -1.8762    0.4959    0.2373 O   0  0  0  0  0  0  0  0  0  0  0  0
    8.8780    3.0129    1.0837 O   0  0  0  0  0  0  0  0  0  0  0  0
   -3.5083    0.7059   -1.4689 O   0  0  0  0  0  0  0  0  0  0  0  0
   10.8835    2.8253   -0.0292 O   0  0  0  0  0  0  0  0  0  0  0  0
   -4.2237   -2.0788   -0.8027 O   0  0  0  0  0  0  0  0  0  0  0  0
   -4.2268    0.1883    2.0470 O   0  0  0  0  0  0  0  0  0  0  0  0
   -6.2955   -0.0301   -0.9223 O   0  0  0  0  0  0  0  0  0  0  0  0
   -5.9543    3.3259   -0.9924 O   0  0  0  0  0  0  0  0  0  0  0  0
   -4.2455   -3.7052    0.8378 O   0  0  0  0  0  0  0  0  0  0  0  0
   -6.2335   -0.1366    3.1443 O   0  0  0  0  0  0  0  0  0  0  0  0
   -8.0252   -0.0191    0.6091 O   0  0  0  0  0  0  0  0  0  0  0  0
   -7.7328    2.5835   -2.2664 O   0  0  0  0  0  0  0  0  0  0  0  0
    5.5680   -1.5543   -0.9583 C   0  0  0  0  0  0  0  0  0  0  0  0
    4.0687   -1.1500   -0.7376 C   0  0  0  0  0  0  0  0  0  0  0  0
    3.6440   -1.2398    0.7547 C   0  0  0  0  0  0  0  0  0  0  0  0
    6.5642   -0.8467    0.0108 C   0  0  0  0  0  0  0  0  0  0  0  0
    2.1186   -0.8902    1.0077 C   0  0  0  0  0  0  0  0  0  0  0  0
    1.2096   -1.7011    0.0262 C   0  0  0  0  0  0  0  0  0  0  0  0
    4.6053   -0.3994    1.6177 C   0  0  0  0  0  0  0  0  0  0  0  0
    6.0538   -0.8437    1.4617 C   0  0  0  0  0  0  0  0  0  0  0  0
    6.6501    0.5688   -0.6285 C   0  0  0  0  0  0  0  0  0  0  0  0
    3.1245   -2.0191   -1.5906 C   0  0  0  0  0  0  0  0  0  0  0  0
    6.0696   -1.0934   -2.3458 C   0  0  0  0  0  0  0  0  0  0  0  0
    1.6763   -1.5896   -1.4329 C   0  0  0  0  0  0  0  0  0  0  0  0
    6.6827    0.2981   -2.1422 C   0  0  0  0  0  0  0  0  0  0  0  0
    1.8354    0.6306    0.8469 C   0  0  0  0  0  0  0  0  0  0  0  0
   -0.2767   -1.3049    0.1202 C   0  0  0  0  0  0  0  0  0  0  0  0
    7.9574   -1.5348    0.0304 C   0  0  0  0  0  0  0  0  0  0  0  0
    1.7664   -1.3095    2.4633 C   0  0  0  0  0  0  0  0  0  0  0  0
    0.3541    0.9968    0.9451 C   0  0  0  0  0  0  0  0  0  0  0  0
   -0.5074    0.1979   -0.0240 C   0  0  0  0  0  0  0  0  0  0  0  0
    7.7679    1.4436   -0.1597 C   0  0  0  0  0  0  0  0  0  0  0  0
    7.5965    2.3862    0.9645 C   0  0  0  0  0  0  0  0  0  0  0  0
    9.0025    1.5014   -0.6520 C   0  0  0  0  0  0  0  0  0  0  0  0
   -2.7388   -0.1910   -0.6638 C   0  0  0  0  0  0  0  0  0  0  0  0
    9.7197    2.5036    0.1377 C   0  0  0  0  0  0  0  0  0  0  0  0
   -3.6451   -1.1509    0.1140 C   0  0  0  0  0  0  0  0  0  0  0  0
   -4.7611   -0.4231    0.8750 C   0  0  0  0  0  0  0  0  0  0  0  0
   -4.4244    1.5157   -0.7238 C   0  0  0  0  0  0  0  0  0  0  0  0
   -5.4506    0.6398    0.0118 C   0  0  0  0  0  0  0  0  0  0  0  0
   -5.0703    2.4849   -1.7083 C   0  0  0  0  0  0  0  0  0  0  0  0
   -4.4716   -3.3246   -0.3029 C   0  0  0  0  0  0  0  0  0  0  0  0
   -5.0781    0.2647    3.1104 C   0  0  0  0  0  0  0  0  0  0  0  0
   -7.5636   -0.2989   -0.4891 C   0  0  0  0  0  0  0  0  0  0  0  0
   -5.0755   -4.1856   -1.3706 C   0  0  0  0  0  0  0  0  0  0  0  0
   -4.3849    0.9255    4.2631 C   0  0  0  0  0  0  0  0  0  0  0  0
   -7.2702    3.2803   -1.3733 C   0  0  0  0  0  0  0  0  0  0  0  0
   -8.3316   -0.9995   -1.5685 C   0  0  0  0  0  0  0  0  0  0  0  0
   -8.0840    4.2166   -0.5324 C   0  0  0  0  0  0  0  0  0  0  0  0
  1 14  1  0
  2 32  1  0
  2 36  1  0
  3 34  1  0
  3 37  1  0
  4 36  1  0
  4 40  1  0
  5 37  2  0
  6 38  1  0
  6 43  1  0
  7 39  1  0
  7 44  1  0
  8 41  1  0
  8 45  1  0
  9 42  1  0
  9 48  1  0
 10 43  2  0
 11 44  2  0
 12 45  2  0
 13 48  2  0
 14 15  1  0
 14 17  1  0
 14 24  1  0
 15 16  1  0
 15 23  1  0
 16 18  1  0
 16 20  1  0
 17 21  1  0
 17 22  1  0
 17 29  1  0
 18 19  1  0
 18 27  1  0
 18 30  1  0
 19 25  1  0
 19 28  1  0
 20 21  1  0
 22 26  1  0
 22 33  1  0
 23 25  1  0
 24 26  1  0
 27 31  1  0
 28 32  1  0
 31 32  1  0
 33 34  1  0
 33 35  2  0
 35 37  1  0
 36 38  1  0
 38 39  1  0
 39 41  1  0
 40 41  1  0
 40 42  1  0
 43 46  1  0
 44 47  1  0
 45 49  1  0
 48 50  1  0
M  END
>  <PUBCHEM_COMPOUND_CID>  (1) 
37038

>  <PUBCHEM_CONFORMER_RMSD>  (1) 
1.4

>  <PUBCHEM_CONFORMER_DIVERSEORDER>  (1) 
23
111
189
115
144
73
30
177
112
74
184
159
124
55
170
166
188
107
194
100
181
116
79
145
51
190
97
192
29
161
169
180
163
101
56
102
164
172
89
15
85
39
2
117
178
160
92
26
143
176
109
138
126
106
18
6
99
185
182
90
12
83
130
71
157
193
121
11
152
179
175
40
67
147
168
82
43
146
135
24
69
61
162
151
120
42
153
95
108
22
59
28
35
142
37
165
113
32
4
64
38
21
104
105
96
76
49
136
119
93
123
57
118
132
154
7
48
127
50
45
88
94
122
173
150
70
91
36
19
156
129
44
137
3
131
54
72
187
186
16
167
86
41
10
63
80
125
1
84
191
5
134
31
81
98
68
13
128
174
140
14
141
58
155
65
139
60
25
103
133
8
78
20
34
77
46
171
66
33
52
149
114
87
27
183
47
62
75
9
53
148
158
17
110

>  <PUBCHEM_MMFF94_PARTIAL_CHARGES>  (1) 
36
1 -0.68
10 -0.57
11 -0.57
12 -0.57
13 -0.57
14 0.28
2 -0.56
22 0.14
3 -0.43
32 0.28
33 -0.28
34 0.42
35 -0.14
36 0.56
37 0.71
38 0.28
39 0.28
4 -0.56
40 0.28
41 0.28
42 0.28
43 0.66
44 0.66
45 0.66
46 0.06
47 0.06
48 0.66
49 0.06
5 -0.57
50 0.06
6 -0.43
7 -0.43
8 -0.43
80 0.4
83 0.15
9 -0.43

>  <PUBCHEM_EFFECTIVE_ROTOR_COUNT>  (1) 
15.8

>  <PUBCHEM_PHARMACOPHORE_FEATURES>  (1) 
15
1 1 acceptor
1 1 donor
1 10 acceptor
1 11 acceptor
1 12 acceptor
1 13 acceptor
1 2 acceptor
1 4 acceptor
1 5 acceptor
5 14 17 22 24 26 rings
5 3 33 34 35 37 rings
6 14 15 16 17 20 21 rings
6 15 16 18 19 23 25 rings
6 18 19 27 28 31 32 rings
6 4 36 38 39 40 41 rings

>  <PUBCHEM_HEAVY_ATOM_COUNT>  (1) 
50

>  <PUBCHEM_ATOM_DEF_STEREO_COUNT>  (1) 
8

>  <PUBCHEM_ATOM_UDEF_STEREO_COUNT>  (1) 
5

>  <PUBCHEM_BOND_DEF_STEREO_COUNT>  (1) 
0

>  <PUBCHEM_BOND_UDEF_STEREO_COUNT>  (1) 
0

>  <PUBCHEM_ISOTOPIC_ATOM_COUNT>  (1) 
0

>  <PUBCHEM_COMPONENT_COUNT>  (1) 
1

>  <PUBCHEM_CACTVS_TAUTO_COUNT>  (1) 
1

>  <PUBCHEM_CONFORMER_ID>  (1) 
000090AE00000017

>  <PUBCHEM_MMFF94_ENERGY>  (1) 
143.6499

>  <PUBCHEM_FEATURE_SELFOVERLAP>  (1) 
76.387

>  <PUBCHEM_SHAPE_FINGERPRINT>  (1) 
10677351 14 18411982456011677910
11007060 377 18187927343357074250
11456790 92 13118281460759619924
13811026 1 18335139774326270996
150020 25 18272375278678799750
15183329 4 18060422408938447818
15276724 80 18131078091423455504
15361156 5 18059848463626240253
16994733 274 18259983769453767968
17686467 74 18187081793688393933
20105231 36 15410895188854088287
24771293 8 18040431131920362316
335507 130 18114185284604354932
3918712 181 18338230475631934140
4073 2 17988937668727545090
4169191 19 18131637785649053352
4616759 239 17022912254727686833
4625314 4 18411981339467951878
504579 68 16056585518401078805
5265222 85 18408038503428814887
5937810 71 18272937077159921225

>  <PUBCHEM_SHAPE_MULTIPOLES>  (1) 
952.68
33.14
3.97
2.55
28.17
0.75
2.25
23.7
-6.79
-4.02
-1.61
-3.77
0.42
2.56

>  <PUBCHEM_SHAPE_SELFOVERLAP>  (1) 
2022.524

>  <PUBCHEM_SHAPE_VOLUME>  (1) 
526.2

>  <PUBCHEM_COORDINATE_TYPE>  (1) 
2
5
10

$$$$
