37030
     RDKit          3D

 18 19  0  0  1  0  0  0  0  0999 V2000
   -0.2080    0.9567   -2.3006 O   0  0  0  0  0  0  0  0  0  0  0  0
    4.1234   -0.1646    0.1119 N   0  0  0  0  0  0  0  0  0  0  0  0
   -0.6043    1.0231   -0.9118 C   0  0  0  0  0  0  0  0  0  0  0  0
   -1.6973    2.1124   -0.8894 C   0  0  0  0  0  0  0  0  0  0  0  0
    0.6665    1.4157   -0.1460 C   0  0  0  0  0  0  0  0  0  0  0  0
   -1.1072   -0.3577   -0.4759 C   0  0  0  0  0  0  0  0  0  0  0  0
   -2.1453    2.6373    0.4677 C   0  0  0  0  0  0  0  0  0  0  0  0
   -2.9052    1.6186    1.3024 C   0  0  0  0  0  0  0  0  0  0  0  0
   -1.7697   -0.5943    0.7510 C   0  0  0  0  0  0  0  0  0  0  0  0
   -2.0327    0.4709    1.7891 C   0  0  0  0  0  0  0  0  0  0  0  0
    1.7732    0.3903   -0.3677 C   0  0  0  0  0  0  0  0  0  0  0  0
   -0.8808   -1.4706   -1.3207 C   0  0  0  0  0  0  0  0  0  0  0  0
    3.0674    0.7832    0.3368 C   0  0  0  0  0  0  0  0  0  0  0  0
   -2.1894   -1.9048    1.0717 C   0  0  0  0  0  0  0  0  0  0  0  0
   -1.3065   -2.7573   -0.9866 C   0  0  0  0  0  0  0  0  0  0  0  0
   -1.9658   -2.9746    0.2107 C   0  0  0  0  0  0  0  0  0  0  0  0
    3.7870   -1.4850    0.6680 C   0  0  0  0  0  0  0  0  0  0  0  0
    5.3946    0.3005    0.6895 C   0  0  0  0  0  0  0  0  0  0  0  0
  1  3  1  0
  2 13  1  0
  2 17  1  0
  2 18  1  0
  3  4  1  0
  3  5  1  0
  3  6  1  0
  4  7  1  0
  5 11  1  0
  6  9  2  0
  6 12  1  0
  7  8  1  0
  8 10  1  0
  9 10  1  0
  9 14  1  0
 11 13  1  0
 12 15  2  0
 14 16  2  0
 15 16  1  0
M  END
>  <PUBCHEM_COMPOUND_CID>  (1) 
37030

>  <PUBCHEM_CONFORMER_RMSD>  (1) 
0.6

>  <PUBCHEM_CONFORMER_DIVERSEORDER>  (1) 
9
26
48
8
38
15
63
19
33
32
65
22
64
35
4
66
60
5
39
51
77
12
17
3
24
57
6
67
74
40
25
2
37
13
56
45
1
79
7
61
34
42
70
47
59
53
16
49
78
69
44
23
76
58
75
30
18
27
46
20
43
54
50
72
31
14
36
52
28
62
73
21
41
55
11
68
29
71
10

>  <PUBCHEM_MMFF94_PARTIAL_CHARGES>  (1) 
18
1 -0.68
10 0.14
12 -0.15
13 0.27
14 -0.15
15 -0.15
16 -0.15
17 0.27
18 0.27
2 -0.81
3 0.42
33 0.15
34 0.4
35 0.15
36 0.15
37 0.15
6 -0.14
9 -0.14

>  <PUBCHEM_EFFECTIVE_ROTOR_COUNT>  (1) 
5

>  <PUBCHEM_PHARMACOPHORE_FEATURES>  (1) 
5
1 1 acceptor
1 1 donor
1 2 cation
6 6 9 12 14 15 16 rings
7 3 4 6 7 8 9 10 rings

>  <PUBCHEM_HEAVY_ATOM_COUNT>  (1) 
18

>  <PUBCHEM_ATOM_DEF_STEREO_COUNT>  (1) 
0

>  <PUBCHEM_ATOM_UDEF_STEREO_COUNT>  (1) 
1

>  <PUBCHEM_BOND_DEF_STEREO_COUNT>  (1) 
0

>  <PUBCHEM_BOND_UDEF_STEREO_COUNT>  (1) 
0

>  <PUBCHEM_ISOTOPIC_ATOM_COUNT>  (1) 
0

>  <PUBCHEM_COMPONENT_COUNT>  (1) 
1

>  <PUBCHEM_CACTVS_TAUTO_COUNT>  (1) 
1

>  <PUBCHEM_CONFORMER_ID>  (1) 
000090A600000009

>  <PUBCHEM_MMFF94_ENERGY>  (1) 
52.4419

>  <PUBCHEM_FEATURE_SELFOVERLAP>  (1) 
25.378

>  <PUBCHEM_SHAPE_FINGERPRINT>  (1) 
11357001 24 18339645636968798627
11552529 35 18130504236437053010
11578080 2 17973149914566513053
12553582 1 18120942969042053590
12633257 1 17702686469144278571
12716301 132 17982772702697909397
13004483 165 18125713732667261883
13994607 96 16845579733464843656
14817 1 9459780544884059221
15534591 1 9871209235795493573
16945 1 18262257550614642629
17780758 139 18272362054516888378
18927931 339 16732975385416638224
20871999 31 7853578950876913131
21095088 737 10230883709216363706
21731228 192 18268999674105973729
23402539 116 18201717388607390943
23598288 3 17458634371702788220
23728640 28 18337945706029724498
257057 1 17908984649319999323
2748010 2 17690051878773364507
484985 159 18114165437561012762
5104073 3 18340190957073143512
5706482 22 18342742871277804793
576247 118 8141501455198899185
58807428 26 18194987161705848465
7097593 13 18409174328830985752
81228 2 18263910180773034765
90316 7 18056495069230836593

>  <PUBCHEM_SHAPE_MULTIPOLES>  (1) 
359.58
6.63
3.11
1.54
13.68
1.25
0.27
-0.08
-3.01
-3.16
0.18
-0.86
-0.16
-0.39

>  <PUBCHEM_SHAPE_SELFOVERLAP>  (1) 
735.884

>  <PUBCHEM_SHAPE_VOLUME>  (1) 
207.3

>  <PUBCHEM_COORDINATE_TYPE>  (1) 
2
5
10

$$$$
