37041
     RDKit          3D

 24 25  0  0  0  0  0  0  0  0999 V2000
    6.0468   -1.7402    1.0865 O   0  0  0  0  0  0  0  0  0  0  0  0
   -6.0457   -1.7406   -1.0865 O   0  0  0  0  0  0  0  0  0  0  0  0
    5.8252    0.2459   -0.1690 N   0  0  0  0  0  0  0  0  0  0  0  0
   -5.8247    0.2458    0.1685 N   0  0  0  0  0  0  0  0  0  0  0  0
    0.2560    0.2433   -0.5715 N   0  0  0  0  0  0  0  0  0  0  0  0
   -0.2557    0.2435    0.5728 N   0  0  0  0  0  0  0  0  0  0  0  0
    4.4337    0.2449   -0.2704 C   0  0  0  0  0  0  0  0  0  0  0  0
   -4.4331    0.2449    0.2703 C   0  0  0  0  0  0  0  0  0  0  0  0
    3.7384   -0.9634   -0.3208 C   0  0  0  0  0  0  0  0  0  0  0  0
   -3.7379   -0.9634    0.3213 C   0  0  0  0  0  0  0  0  0  0  0  0
    3.7374    1.4526   -0.3204 C   0  0  0  0  0  0  0  0  0  0  0  0
   -3.7369    1.4527    0.3203 C   0  0  0  0  0  0  0  0  0  0  0  0
    1.6511    0.2435   -0.4716 C   0  0  0  0  0  0  0  0  0  0  0  0
   -1.6574    0.2436    0.4720 C   0  0  0  0  0  0  0  0  0  0  0  0
    2.3472   -0.9641   -0.4215 C   0  0  0  0  0  0  0  0  0  0  0  0
   -2.3467   -0.9640    0.4226 C   0  0  0  0  0  0  0  0  0  0  0  0
    2.3461    1.4519   -0.4210 C   0  0  0  0  0  0  0  0  0  0  0  0
   -2.3457    1.4520    0.4214 C   0  0  0  0  0  0  0  0  0  0  0  0
    6.5885    1.3328   -0.8572 C   0  0  0  0  0  0  0  0  0  0  0  0
   -6.5882    1.3330    0.8560 C   0  0  0  0  0  0  0  0  0  0  0  0
    6.5675   -0.7953    0.4884 C   0  0  0  0  0  0  0  0  0  0  0  0
   -6.5668   -0.7955   -0.4890 C   0  0  0  0  0  0  0  0  0  0  0  0
    8.0767   -0.7519    0.4142 C   0  0  0  0  0  0  0  0  0  0  0  0
   -8.0759   -0.7521   -0.4152 C   0  0  0  0  0  0  0  0  0  0  0  0
  1 21  2  0
  2 22  2  0
  3  7  1  0
  3 19  1  0
  3 21  1  0
  4  8  1  0
  4 20  1  0
  4 22  1  0
  5  6  2  0
  5 13  1  0
  6 14  1  0
  7  9  2  0
  7 11  1  0
  8 10  2  0
  8 12  1  0
  9 15  1  0
 10 16  1  0
 11 17  2  0
 12 18  2  0
 13 15  2  0
 13 17  1  0
 14 16  2  0
 14 18  1  0
 21 23  1  0
 22 24  1  0
M  END
>  <PUBCHEM_COMPOUND_CID>  (1) 
37041

>  <PUBCHEM_CONFORMER_RMSD>  (1) 
0.8

>  <PUBCHEM_CONFORMER_DIVERSEORDER>  (1) 
1
11
7
5
16
3
10
12
13
17
20
19
15
4
14
2
8
18
6
9

>  <PUBCHEM_MMFF94_PARTIAL_CHARGES>  (1) 
32
1 -0.57
10 -0.15
11 -0.15
12 -0.15
13 0.18
14 0.18
15 -0.15
16 -0.15
17 -0.15
18 -0.15
19 0.3
2 -0.57
20 0.3
21 0.57
22 0.57
23 0.06
24 0.06
25 0.15
26 0.15
27 0.15
28 0.15
29 0.15
3 -0.48
30 0.15
31 0.15
32 0.15
4 -0.48
5 -0.18
6 -0.18
7 0.12
8 0.12
9 -0.15

>  <PUBCHEM_EFFECTIVE_ROTOR_COUNT>  (1) 
6

>  <PUBCHEM_PHARMACOPHORE_FEATURES>  (1) 
4
1 1 acceptor
1 2 acceptor
6 7 9 11 13 15 17 rings
6 8 10 12 14 16 18 rings

>  <PUBCHEM_HEAVY_ATOM_COUNT>  (1) 
24

>  <PUBCHEM_ATOM_DEF_STEREO_COUNT>  (1) 
0

>  <PUBCHEM_ATOM_UDEF_STEREO_COUNT>  (1) 
0

>  <PUBCHEM_BOND_DEF_STEREO_COUNT>  (1) 
0

>  <PUBCHEM_BOND_UDEF_STEREO_COUNT>  (1) 
0

>  <PUBCHEM_ISOTOPIC_ATOM_COUNT>  (1) 
0

>  <PUBCHEM_COMPONENT_COUNT>  (1) 
1

>  <PUBCHEM_CACTVS_TAUTO_COUNT>  (1) 
1

>  <PUBCHEM_CONFORMER_ID>  (1) 
000090B100000001

>  <PUBCHEM_MMFF94_ENERGY>  (1) 
100.8322

>  <PUBCHEM_FEATURE_SELFOVERLAP>  (1) 
20.297

>  <PUBCHEM_SHAPE_FINGERPRINT>  (1) 
10 15 17203322339015977682
10299344 5 18410576188469712962
10595046 47 18342179947094427465
106641 1 15985098639248009314
10670039 82 16081360822531196413
11315181 36 18334862749136080297
11524674 6 15697999661246861527
11646440 116 15626504999608036338
11719270 70 18201720635350076526
12091667 2 18186804669513716393
12166972 35 18410576210103701600
12236239 1 18410575084663091909
12516196 113 17489871535380771881
12730499 353 14045748114844475724
13073987 5 15769507425607312163
13288520 33 17988925596512478957
13533116 47 18187078425996385762
13914758 101 17822004281712155109
14251764 18 18409169913451332292
14251764 46 18410575088958072195
15183329 4 17749385962038864907
15198563 99 15357971201927081078
15690457 1 18411695487550275130
16120349 18 18040718108840168020
17857418 61 18410013238521553442
21130935 74 17917152684906323174
21315763 28 18410575088958260581
21521721 280 11959727183900751212
22224240 67 18273491278612619690
23081809 10 18408892836183750036
23402539 116 18341895191184682973
23522609 53 18194431989369741068
23559900 14 18189616214602483921
3004659 81 18334856134127068649
335352 9 18261115184335943782
34797466 226 16702307875735487336
3545911 37 18410859862475200796
397830 11 15553584352903018071
4073 2 17749680704844838410
4325135 7 18272370880331640495
4339292 15 16844998118680481855
4340502 62 15123511402665329548
5104073 3 18339652233964888320
5283156 175 18411698781758211323
59682541 35 17346590898827895178
5969126 39 17968088703745796549
59755656 215 16225759697038245858
59755656 520 17676483982317004027
67856867 119 18339927129062613980
7495541 125 17703789262491305505

>  <PUBCHEM_SHAPE_MULTIPOLES>  (1) 
462.25
24.19
1.61
0.87
0.02
0.11
0
-5.18
-0.01
0
0
0
-0.07
-2.03

>  <PUBCHEM_SHAPE_SELFOVERLAP>  (1) 
973.665

>  <PUBCHEM_SHAPE_VOLUME>  (1) 
261.3

>  <PUBCHEM_COORDINATE_TYPE>  (1) 
2
5
10

$$$$
