3704
     RDKit          3D

 17 19  0  0  1  0  0  0  0  0999 V2000
    3.6069    1.1331    0.0528 O   0  0  0  0  0  0  0  0  0  0  0  0
    0.1742    0.3399    0.9127 O   0  0  0  0  0  0  0  0  0  0  0  0
    3.6683   -1.6773   -0.3845 N   0  0  0  0  0  0  0  0  0  0  0  0
    2.5287    0.3076    0.5099 C   0  0  0  0  0  0  0  0  0  0  0  0
    2.4087   -0.9295   -0.3842 C   0  0  0  0  0  0  0  0  0  0  0  0
    1.2551    1.1404    0.4673 C   0  0  0  0  0  0  0  0  0  0  0  0
    4.7691   -0.8116   -0.8100 C   0  0  0  0  0  0  0  0  0  0  0  0
    4.8452    0.4212    0.0819 C   0  0  0  0  0  0  0  0  0  0  0  0
   -2.0071   -0.3693    0.2430 C   0  0  0  0  0  0  0  0  0  0  0  0
   -1.0643    0.6204    0.3918 C   0  0  0  0  0  0  0  0  0  0  0  0
   -1.9225   -1.8270    0.5730 C   0  0  0  0  0  0  0  0  0  0  0  0
   -3.2723   -0.0805   -0.2878 C   0  0  0  0  0  0  0  0  0  0  0  0
   -3.2963   -2.2951    0.1563 C   0  0  0  0  0  0  0  0  0  0  0  0
   -4.0573   -1.3024   -0.3306 C   0  0  0  0  0  0  0  0  0  0  0  0
   -1.3802    1.9173    0.0085 C   0  0  0  0  0  0  0  0  0  0  0  0
   -3.6082    1.2044   -0.6761 C   0  0  0  0  0  0  0  0  0  0  0  0
   -2.6481    2.2084   -0.5239 C   0  0  0  0  0  0  0  0  0  0  0  0
  1  4  1  0
  1  8  1  0
  2  6  1  0
  2 10  1  0
  3  5  1  0
  3  7  1  0
  4  5  1  0
  4  6  1  0
  7  8  1  0
  9 10  2  0
  9 11  1  0
  9 12  1  0
 10 15  1  0
 11 13  1  0
 12 14  1  0
 12 16  2  0
 13 14  2  0
 15 17  2  0
 16 17  1  0
M  END
>  <PUBCHEM_COMPOUND_CID>  (1) 
3704

>  <PUBCHEM_CONFORMER_RMSD>  (1) 
0.6

>  <PUBCHEM_CONFORMER_DIVERSEORDER>  (1) 
1
92
19
107
113
97
23
33
24
82
108
6
44
116
8
89
37
94
91
118
11
50
111
32
86
96
109
88
57
70
105
71
30
84
3
62
83
75
117
72
53
31
119
58
52
112
106
114
17
93
65
22
100
15
5
87
41
21
61
101
73
95
9
27
59
46
103
29
67
55
18
47
7
63
43
76
16
42
66
90
39
54
69
25
77
48
56
26
12
98
34
38
64
14
20
2
104
68
79
36
60
81
110
74
10
45
40
115
35
78
99
51
4
13
85
28
80
49
102

>  <PUBCHEM_MMFF94_PARTIAL_CHARGES>  (1) 
23
1 -0.56
10 0.08
11 0.28
12 0.03
13 -0.29
14 -0.18
15 -0.15
16 -0.15
17 -0.15
2 -0.36
27 0.36
3 -0.9
30 0.15
31 0.15
32 0.15
33 0.15
34 0.15
4 0.28
5 0.27
6 0.28
7 0.27
8 0.28
9 -0.14

>  <PUBCHEM_EFFECTIVE_ROTOR_COUNT>  (1) 
4.4

>  <PUBCHEM_PHARMACOPHORE_FEATURES>  (1) 
7
1 1 acceptor
1 2 acceptor
1 3 cation
1 3 donor
5 9 11 12 13 14 rings
6 1 3 4 5 7 8 rings
6 9 10 12 15 16 17 rings

>  <PUBCHEM_HEAVY_ATOM_COUNT>  (1) 
17

>  <PUBCHEM_ATOM_DEF_STEREO_COUNT>  (1) 
0

>  <PUBCHEM_ATOM_UDEF_STEREO_COUNT>  (1) 
1

>  <PUBCHEM_BOND_DEF_STEREO_COUNT>  (1) 
0

>  <PUBCHEM_BOND_UDEF_STEREO_COUNT>  (1) 
0

>  <PUBCHEM_ISOTOPIC_ATOM_COUNT>  (1) 
0

>  <PUBCHEM_COMPONENT_COUNT>  (1) 
1

>  <PUBCHEM_CACTVS_TAUTO_COUNT>  (1) 
1

>  <PUBCHEM_CONFORMER_ID>  (1) 
00000E7800000001

>  <PUBCHEM_MMFF94_ENERGY>  (1) 
45.9958

>  <PUBCHEM_FEATURE_SELFOVERLAP>  (1) 
35.607

>  <PUBCHEM_SHAPE_FINGERPRINT>  (1) 
10616163 171 18411419505398944710
10680689 15 18261399935570873968
11543360 7 18261118499697320212
12173636 292 18190171300570863821
12186901 62 18260824878574026581
12670546 177 18186805807242310732
12707595 3 17346876758665534464
13296908 3 18272369767581741152
14386348 63 18273497887791633358
14790565 3 17836369246632227457
15163728 17 16662872637016485167
15196674 1 18412826880556577142
15961568 22 17823695464046487092
17834074 16 18412825789539717550
17870717 6 18341060626766096950
19141452 34 18201442540749906743
19433438 38 18410854365222867618
1986462 14 18409167696989777268
200 152 17418370289963062577
20281475 54 18271813453083929409
20325693 3 18260833674514029021
20374829 77 18411131472228595707
20645477 56 18334293132950784509
20645477 70 17775286037074555454
20871999 31 18335419062705678701
21065201 7 18335132077612942744
21079973 296 18411696625547420440
21637258 2 15912746402623050383
22094290 60 18335420179507938929
221490 88 18340491157526995656
22393880 68 18337675205280199462
23402539 116 18113892771804293020
23403322 49 18343021090252768390
23557571 272 18411422816728883796
23559900 14 18341041978371895624
2748010 2 17974547390045612401
2871803 45 18410008862155983914
3268164 11 17603297150686200757
4028521 119 18114456777966202517
4214541 1 18410575059109786844
4921388 177 17386016091001000259
5104073 3 18342737403868775272
559249 180 18189609441697495058
573450 72 18114166511391812952
58051976 100 18410013221341807869
633830 44 16371019447096859224
77779 3 18411419497109404588
8809292 202 18411139125722952771
93112 12 18408885109780119116
9709674 26 18411140251088949142

>  <PUBCHEM_SHAPE_MULTIPOLES>  (1) 
333.13
9.75
2.27
0.82
9.56
0.16
0.01
2.27
2.03
-2.04
0.11
0.07
0
0.88

>  <PUBCHEM_SHAPE_SELFOVERLAP>  (1) 
715.516

>  <PUBCHEM_SHAPE_VOLUME>  (1) 
184.3

>  <PUBCHEM_COORDINATE_TYPE>  (1) 
2
5
10

$$$$
