37055
     RDKit          3D

 12 12  0  0  0  0  0  0  0  0999 V2000
    0.2858   -2.5996    0.3117 Cl  0  0  0  0  0  0  0  0  0  0  0  0
   -4.1712    0.4117    0.1756 Cl  0  0  0  0  0  0  0  0  0  0  0  0
    2.3746    0.8295    0.6434 O   0  0  0  0  0  0  0  0  0  0  0  0
    2.3722   -0.6529   -1.1177 O   0  0  0  0  0  0  0  0  0  0  0  0
    0.3148    0.0858   -0.1658 C   0  0  0  0  0  0  0  0  0  0  0  0
   -0.4486   -1.0504    0.1029 C   0  0  0  0  0  0  0  0  0  0  0  0
   -0.3088    1.3229   -0.3280 C   0  0  0  0  0  0  0  0  0  0  0  0
   -1.8359   -0.9494    0.2092 C   0  0  0  0  0  0  0  0  0  0  0  0
   -1.6959    1.4238   -0.2218 C   0  0  0  0  0  0  0  0  0  0  0  0
   -2.4595    0.2877    0.0468 C   0  0  0  0  0  0  0  0  0  0  0  0
    1.7668    0.0300   -0.2838 C   0  0  0  0  0  0  0  0  0  0  0  0
    3.8058    0.8608    0.6276 C   0  0  0  0  0  0  0  0  0  0  0  0
  1  6  1  0
  2 10  1  0
  3 11  1  0
  3 12  1  0
  4 11  2  0
  5  6  2  0
  5  7  1  0
  5 11  1  0
  6  8  1  0
  7  9  2  0
  8 10  2  0
  9 10  1  0
M  END
>  <PUBCHEM_COMPOUND_CID>  (1) 
37055

>  <PUBCHEM_CONFORMER_RMSD>  (1) 
0.6

>  <PUBCHEM_CONFORMER_DIVERSEORDER>  (1) 
1
2

>  <PUBCHEM_MMFF94_PARTIAL_CHARGES>  (1) 
15
1 -0.18
10 0.18
11 0.63
12 0.28
13 0.15
14 0.15
15 0.15
2 -0.18
3 -0.43
4 -0.57
5 0.09
6 0.18
7 -0.15
8 -0.15
9 -0.15

>  <PUBCHEM_EFFECTIVE_ROTOR_COUNT>  (1) 
2

>  <PUBCHEM_PHARMACOPHORE_FEATURES>  (1) 
2
1 4 acceptor
6 5 6 7 8 9 10 rings

>  <PUBCHEM_HEAVY_ATOM_COUNT>  (1) 
12

>  <PUBCHEM_ATOM_DEF_STEREO_COUNT>  (1) 
0

>  <PUBCHEM_ATOM_UDEF_STEREO_COUNT>  (1) 
0

>  <PUBCHEM_BOND_DEF_STEREO_COUNT>  (1) 
0

>  <PUBCHEM_BOND_UDEF_STEREO_COUNT>  (1) 
0

>  <PUBCHEM_ISOTOPIC_ATOM_COUNT>  (1) 
0

>  <PUBCHEM_COMPONENT_COUNT>  (1) 
1

>  <PUBCHEM_CACTVS_TAUTO_COUNT>  (1) 
1

>  <PUBCHEM_CONFORMER_ID>  (1) 
000090BF00000001

>  <PUBCHEM_MMFF94_ENERGY>  (1) 
32.2008

>  <PUBCHEM_FEATURE_SELFOVERLAP>  (1) 
10.148

>  <PUBCHEM_SHAPE_FINGERPRINT>  (1) 
11132069 177 18335423482564486969
12119455 92 17704066304934958076
13380535 76 18342736351480655998
14325111 11 18411136913746281909
14614273 12 18115016408041948397
15219456 202 18130792265385865334
15775835 57 18410852165946372274
161256 15 18193280689225743791
16945 1 18260836981665220661
17846911 113 18410849975555424609
18186145 218 18272377421071213205
19026448 5 16272212955605747485
193761 8 17759802546549024437
20201158 50 18202846573610430848
20645464 45 18343582966738451392
20645476 183 17241627163158231142
20645477 70 18129657479344798519
20871998 184 18126007315088396662
21040471 1 18335145284252372726
21501502 16 17975981960218770865
23235685 24 18334853918229658445
23402539 116 18341035415228818012
23402655 69 18193258730076396285
23552423 10 17754463361118775535
23559900 14 18340499923919198726
2748010 2 17972602078718173437
366044 4 18409163333255518843
369184 2 18413384341214577616
5084963 1 18341345395898294804
528886 8 18409445899454479587
53812653 166 18412823594779852497
6333449 129 18341607174191857199
69090 78 18060133254185743511
7364860 26 18196931063429841898

>  <PUBCHEM_SHAPE_MULTIPOLES>  (1) 
238.96
5.53
1.9
0.78
0.21
1.25
-0.05
-2.08
0.86
-0.14
0.13
-0.35
0
0.38

>  <PUBCHEM_SHAPE_SELFOVERLAP>  (1) 
479.92

>  <PUBCHEM_SHAPE_VOLUME>  (1) 
142.9

>  <PUBCHEM_COORDINATE_TYPE>  (1) 
2
5
10

$$$$
