37059
     RDKit          3D

 13 14  0  0  1  0  0  0  0  0999 V2000
   -4.4043    1.7638    0.4525 Br  0  0  0  0  0  0  0  0  0  0  0  0
   -1.3061    0.5915    0.9175 S   0  0  0  0  0  0  0  0  0  0  0  0
   -0.8544   -1.3731   -1.2991 S   0  0  0  0  0  0  0  0  0  0  0  0
   -2.7017   -0.5074    0.5240 C   0  0  0  0  0  0  0  0  0  0  0  0
   -0.2874    0.1875   -0.5413 C   0  0  0  0  0  0  0  0  0  0  0  0
   -2.1038   -1.7863   -0.0495 C   0  0  0  0  0  0  0  0  0  0  0  0
    1.1909    0.1714   -0.2243 C   0  0  0  0  0  0  0  0  0  0  0  0
   -3.6857    0.1859   -0.4156 C   0  0  0  0  0  0  0  0  0  0  0  0
    2.0517    1.0743   -0.8517 C   0  0  0  0  0  0  0  0  0  0  0  0
    1.6999   -0.7466    0.6966 C   0  0  0  0  0  0  0  0  0  0  0  0
    3.4156    1.0591   -0.5594 C   0  0  0  0  0  0  0  0  0  0  0  0
    3.0637   -0.7616    0.9892 C   0  0  0  0  0  0  0  0  0  0  0  0
    3.9216    0.1414    0.3612 C   0  0  0  0  0  0  0  0  0  0  0  0
  1  8  1  0
  2  4  1  0
  2  5  1  0
  3  5  1  0
  3  6  1  0
  4  6  1  0
  4  8  1  0
  5  7  1  0
  7  9  2  0
  7 10  1  0
  9 11  1  0
 10 12  2  0
 11 13  2  0
 12 13  1  0
M  END
>  <PUBCHEM_COMPOUND_CID>  (1) 
37059

>  <PUBCHEM_CONFORMER_RMSD>  (1) 
0.6

>  <PUBCHEM_CONFORMER_DIVERSEORDER>  (1) 
1
27
26
16
11
6
21
18
5
22
25
9
4
13
15
23
8
12
7
10
24
20
3
17
14
2
19

>  <PUBCHEM_MMFF94_PARTIAL_CHARGES>  (1) 
18
1 -0.23
10 -0.15
11 -0.15
12 -0.15
13 -0.15
2 -0.46
20 0.15
21 0.15
22 0.15
23 0.15
24 0.15
3 -0.46
4 0.23
5 0.6
6 0.23
7 -0.14
8 0.23
9 -0.15

>  <PUBCHEM_EFFECTIVE_ROTOR_COUNT>  (1) 
3

>  <PUBCHEM_PHARMACOPHORE_FEATURES>  (1) 
3
1 1 hydrophobe
5 2 3 4 5 6 rings
6 7 9 10 11 12 13 rings

>  <PUBCHEM_HEAVY_ATOM_COUNT>  (1) 
13

>  <PUBCHEM_ATOM_DEF_STEREO_COUNT>  (1) 
0

>  <PUBCHEM_ATOM_UDEF_STEREO_COUNT>  (1) 
2

>  <PUBCHEM_BOND_DEF_STEREO_COUNT>  (1) 
0

>  <PUBCHEM_BOND_UDEF_STEREO_COUNT>  (1) 
0

>  <PUBCHEM_ISOTOPIC_ATOM_COUNT>  (1) 
0

>  <PUBCHEM_COMPONENT_COUNT>  (1) 
1

>  <PUBCHEM_CACTVS_TAUTO_COUNT>  (1) 
1

>  <PUBCHEM_CONFORMER_ID>  (1) 
000090C300000001

>  <PUBCHEM_MMFF94_ENERGY>  (1) 
28.8606

>  <PUBCHEM_FEATURE_SELFOVERLAP>  (1) 
15.223

>  <PUBCHEM_SHAPE_FINGERPRINT>  (1) 
11543360 7 12823286884636378945
12251169 10 18259985959443788901
124424 183 16128660751911753078
12500047 106 18202277013528384551
12932764 1 18340208616828715824
13296908 3 14201396113999824911
13538477 17 18342173414211650470
14144814 61 18410013251406429328
14252887 29 14996288002393243168
14445660 50 18186241748844123413
15375358 24 16917062265540783816
15669948 3 18272087261623157463
15775835 57 18408325505352844904
15852999 172 17132121242333517407
16945 1 17417820577109422987
17844478 74 15430029950704087775
17846911 113 17775283842098379617
18186145 218 17240196642663959346
18511873 20 18260545606620094259
19026448 5 18259703427910372155
19422 9 18260829353471259830
20201158 50 16515396391690825994
20233049 118 18130786750326500408
20279233 1 16343705451985060126
20645476 183 18340207487453082567
20645477 70 17241026743841677866
20711983 171 18411983567764265271
21061003 4 14490474209748956903
23402539 116 17346589755707321428
23402655 69 18334017211519365732
23559900 14 17418381281406742020
23598291 2 18189900987965859110
4028521 119 16486972869509658929
4175511 318 18341893000371404501
5104073 3 18113616819818130160
57812782 119 14333408951903420527
633830 44 18041570247077356812
77492 1 18337106864688861478
8272917 22 18189056399943364747

>  <PUBCHEM_SHAPE_MULTIPOLES>  (1) 
281.18
7.82
1.64
1.13
1.34
0.18
-0.04
-3.22
0.9
1.29
-0.17
-0.27
0.11
-0.78

>  <PUBCHEM_SHAPE_SELFOVERLAP>  (1) 
540.204

>  <PUBCHEM_SHAPE_VOLUME>  (1) 
171.2

>  <PUBCHEM_COORDINATE_TYPE>  (1) 
2
5
10

$$$$
