37050
     RDKit          3D

 13 13  0  0  0  0  0  0  0  0999 V2000
    3.6027    0.7849   -0.3750 O   0  0  0  0  0  0  0  0  0  0  0  0
   -3.2261    1.3007    0.3196 O   0  0  0  0  0  0  0  0  0  0  0  0
   -2.4762   -0.8666   -0.0786 N   0  0  0  0  0  0  0  0  0  0  0  0
   -0.2016   -0.5062    0.6688 C   0  0  0  0  0  0  0  0  0  0  0  0
   -1.5684   -0.9699    1.0434 C   0  0  0  0  0  0  0  0  0  0  0  0
    0.1491    0.8341    0.8308 C   0  0  0  0  0  0  0  0  0  0  0  0
    0.7260   -1.4128    0.1557 C   0  0  0  0  0  0  0  0  0  0  0  0
    2.3551    0.3611   -0.0335 C   0  0  0  0  0  0  0  0  0  0  0  0
    1.4275    1.2677    0.4795 C   0  0  0  0  0  0  0  0  0  0  0  0
    2.0044   -0.9791   -0.1954 C   0  0  0  0  0  0  0  0  0  0  0  0
   -3.2272    0.2651   -0.3409 C   0  0  0  0  0  0  0  0  0  0  0  0
   -4.0671    0.1151   -1.5810 C   0  0  0  0  0  0  0  0  0  0  0  0
    4.5018   -0.1940   -0.8936 C   0  0  0  0  0  0  0  0  0  0  0  0
  1  8  1  0
  1 13  1  0
  2 11  2  0
  3  5  1  0
  3 11  1  0
  4  5  1  0
  4  6  2  0
  4  7  1  0
  6  9  1  0
  7 10  2  0
  8  9  2  0
  8 10  1  0
 11 12  1  0
M  END
>  <PUBCHEM_COMPOUND_CID>  (1) 
37050

>  <PUBCHEM_CONFORMER_RMSD>  (1) 
0.6

>  <PUBCHEM_CONFORMER_DIVERSEORDER>  (1) 
2
9
7
1
6
10
4
3
11
5
8

>  <PUBCHEM_MMFF94_PARTIAL_CHARGES>  (1) 
18
1 -0.36
10 -0.15
11 0.57
12 0.06
13 0.28
16 0.15
17 0.15
18 0.37
19 0.15
2 -0.57
20 0.15
3 -0.73
4 -0.14
5 0.44
6 -0.15
7 -0.15
8 0.08
9 -0.15

>  <PUBCHEM_EFFECTIVE_ROTOR_COUNT>  (1) 
4

>  <PUBCHEM_PHARMACOPHORE_FEATURES>  (1) 
4
1 1 acceptor
1 2 acceptor
1 3 donor
6 4 6 7 8 9 10 rings

>  <PUBCHEM_HEAVY_ATOM_COUNT>  (1) 
13

>  <PUBCHEM_ATOM_DEF_STEREO_COUNT>  (1) 
0

>  <PUBCHEM_ATOM_UDEF_STEREO_COUNT>  (1) 
0

>  <PUBCHEM_BOND_DEF_STEREO_COUNT>  (1) 
0

>  <PUBCHEM_BOND_UDEF_STEREO_COUNT>  (1) 
0

>  <PUBCHEM_ISOTOPIC_ATOM_COUNT>  (1) 
0

>  <PUBCHEM_COMPONENT_COUNT>  (1) 
1

>  <PUBCHEM_CACTVS_TAUTO_COUNT>  (1) 
2

>  <PUBCHEM_CONFORMER_ID>  (1) 
000090BA00000002

>  <PUBCHEM_MMFF94_ENERGY>  (1) 
34.1744

>  <PUBCHEM_FEATURE_SELFOVERLAP>  (1) 
20.297

>  <PUBCHEM_SHAPE_FINGERPRINT>  (1) 
10498660 4 17532355497122393181
11401426 45 18272367581775677418
11543360 7 16487254413037008792
11769659 78 14836139710339273326
12138202 97 18041279954063756539
12251169 10 8070027791966076647
124424 183 18260828202715203034
13549 16 18412267229079770014
13705890 14 16415474982429230196
14252887 29 8862671221882711788
14576447 43 17846768629011636503
14911166 2 18341898506450821550
14943859 89 16877944949128621080
14993402 34 17704071802387686438
15775835 57 16226037895160520645
16945 1 18272661168307085394
18186145 218 18334016094442668856
200 152 17632300055872078158
201361 129 15213287617493785568
20201158 50 18412265025445075043
20645477 70 18340778057079647430
20671657 53 16415761942000167424
21119208 17 17846777408119701685
21256008 61 17275098461749851824
22485316 2 13326863197019651374
22926399 65 17749106694712377957
231179 274 17385434414836940404
23402539 116 17775008955859963732
23402655 69 18270112414729081925
23557571 272 17822303413236135479
23559900 14 18412270567097650952
25 1 18334577910582889419
2748010 2 17910963757438941098
305870 269 16370996374173927459
4028521 119 18113609071939610469

>  <PUBCHEM_SHAPE_MULTIPOLES>  (1) 
250.81
7.42
1.33
1.1
0.16
0.03
-0.2
-1.19
-3.83
-0.04
0.22
0.6
0
0.23

>  <PUBCHEM_SHAPE_SELFOVERLAP>  (1) 
510.434

>  <PUBCHEM_SHAPE_VOLUME>  (1) 
146.6

>  <PUBCHEM_COORDINATE_TYPE>  (1) 
2
5
10

$$$$
