37053
     RDKit          3D

 13 13  0  0  1  0  0  0  0  0999 V2000
   -1.5020   -2.0086   -0.8678 O   0  0  0  0  0  0  0  0  0  0  0  0
   -3.5950   -0.5595    0.3336 N   0  0  0  0  0  0  0  0  0  0  0  0
   -2.2034   -0.1820    0.6149 C   0  0  0  0  0  0  0  0  0  0  0  0
   -1.3043   -0.6280   -0.5659 C   0  0  0  0  0  0  0  0  0  0  0  0
   -2.1307    1.3311    0.9028 C   0  0  0  0  0  0  0  0  0  0  0  0
    0.1660   -0.3485   -0.3138 C   0  0  0  0  0  0  0  0  0  0  0  0
   -2.5293    2.1894   -0.2931 C   0  0  0  0  0  0  0  0  0  0  0  0
    0.8516    0.4751   -1.1862 C   0  0  0  0  0  0  0  0  0  0  0  0
    0.7807   -0.9254    0.7811 C   0  0  0  0  0  0  0  0  0  0  0  0
    2.8433    0.1596    0.1446 C   0  0  0  0  0  0  0  0  0  0  0  0
    2.2031    0.7316   -0.9549 C   0  0  0  0  0  0  0  0  0  0  0  0
    2.1320   -0.6688    1.0126 C   0  0  0  0  0  0  0  0  0  0  0  0
    4.2881    0.4341    0.3920 C   0  0  0  0  0  0  0  0  0  0  0  0
  1  4  1  0
  2  3  1  0
  3  4  1  0
  3  5  1  0
  4  6  1  0
  5  7  1  0
  6  8  2  0
  6  9  1  0
  8 11  1  0
  9 12  2  0
 10 11  2  0
 10 12  1  0
 10 13  1  0
M  END
>  <PUBCHEM_COMPOUND_CID>  (1) 
37053

>  <PUBCHEM_CONFORMER_RMSD>  (1) 
0.6

>  <PUBCHEM_CONFORMER_DIVERSEORDER>  (1) 
1
12
8
7
9
15
14
4
11
13
6
10
5
16
3
2

>  <PUBCHEM_MMFF94_PARTIAL_CHARGES>  (1) 
18
1 -0.68
10 -0.14
11 -0.15
12 -0.15
13 0.14
2 -0.99
21 0.36
22 0.36
23 0.15
24 0.15
25 0.4
26 0.15
27 0.15
3 0.27
4 0.42
6 -0.14
8 -0.15
9 -0.15

>  <PUBCHEM_EFFECTIVE_ROTOR_COUNT>  (1) 
3

>  <PUBCHEM_PHARMACOPHORE_FEATURES>  (1) 
6
1 1 acceptor
1 1 donor
1 2 cation
1 2 donor
1 7 hydrophobe
6 6 8 9 10 11 12 rings

>  <PUBCHEM_HEAVY_ATOM_COUNT>  (1) 
13

>  <PUBCHEM_ATOM_DEF_STEREO_COUNT>  (1) 
0

>  <PUBCHEM_ATOM_UDEF_STEREO_COUNT>  (1) 
2

>  <PUBCHEM_BOND_DEF_STEREO_COUNT>  (1) 
0

>  <PUBCHEM_BOND_UDEF_STEREO_COUNT>  (1) 
0

>  <PUBCHEM_ISOTOPIC_ATOM_COUNT>  (1) 
0

>  <PUBCHEM_COMPONENT_COUNT>  (1) 
1

>  <PUBCHEM_CACTVS_TAUTO_COUNT>  (1) 
1

>  <PUBCHEM_CONFORMER_ID>  (1) 
000090BD00000001

>  <PUBCHEM_MMFF94_ENERGY>  (1) 
25.0914

>  <PUBCHEM_FEATURE_SELFOVERLAP>  (1) 
30.449

>  <PUBCHEM_SHAPE_FINGERPRINT>  (1) 
10219947 1 16877664582469692062
11031198 65 14979967977034920904
11471102 22 16443347567981378024
12138202 97 17275096224008483542
12251169 10 17676214549942729297
124424 183 16917063326962156098
12932764 1 17917704712688845250
13296909 8 18409440388726881508
13581323 91 18272651259548527302
13764800 53 17987813895129610313
13839132 238 17774449265196077677
14144814 61 18260829276198427544
15219456 202 17417821595259174628
15309172 13 17022907856395708722
15375462 478 18187086165326758645
15775835 57 18338240370872275593
16945 1 18341054102626339022
18186145 218 17273995570093531756
18534176 82 17274819177121988090
200 152 17895186757781370395
20645477 56 18060139868656769336
20871999 31 9439400190804330457
21061003 4 15719396113993544380
22445834 79 18113613469648472258
22802520 49 16628300717846172940
23236772 104 18186236229869216153
23402539 116 18059565919323719303
23557571 272 17704076226061647753
25 1 14979686463377059375
2748010 2 18126021372747978055
305870 269 18338238141789464994
77492 1 18261111906405419694
81228 2 17630033000319383271

>  <PUBCHEM_SHAPE_MULTIPOLES>  (1) 
256.68
5.9
1.6
1.12
2.1
0.3
-0.07
1.31
1.19
-1.35
-0.17
0.09
-0.03
-0.53

>  <PUBCHEM_SHAPE_SELFOVERLAP>  (1) 
518.426

>  <PUBCHEM_SHAPE_VOLUME>  (1) 
151.7

>  <PUBCHEM_COORDINATE_TYPE>  (1) 
2
5
10

$$$$
