37068
     RDKit          3D

 18 18  0  0  0  0  0  0  0  0999 V2000
    2.0387    0.6227   -0.1291 O   0  0  0  0  0  0  0  0  0  0  0  0
   -1.4062    0.2672   -1.0021 O   0  0  0  0  0  0  0  0  0  0  0  0
   -2.8478   -1.9764   -0.2170 O   0  0  0  0  0  0  0  0  0  0  0  0
    0.9518   -0.9424   -1.4322 O   0  0  0  0  0  0  0  0  0  0  0  0
    5.6775    0.0999    0.1386 N   0  0  0  0  0  0  0  0  0  0  0  0
    4.3789    0.7382    0.3517 C   0  0  0  0  0  0  0  0  0  0  0  0
    3.2817   -0.0208   -0.3773 C   0  0  0  0  0  0  0  0  0  0  0  0
    5.6464   -1.2879    0.5988 C   0  0  0  0  0  0  0  0  0  0  0  0
    6.7317    0.8434    0.8275 C   0  0  0  0  0  0  0  0  0  0  0  0
   -0.2860    0.8480   -0.3647 C   0  0  0  0  0  0  0  0  0  0  0  0
   -2.6219    0.4018   -0.3759 C   0  0  0  0  0  0  0  0  0  0  0  0
    0.9428    0.0539   -0.7219 C   0  0  0  0  0  0  0  0  0  0  0  0
   -3.3346   -0.7251    0.0130 C   0  0  0  0  0  0  0  0  0  0  0  0
   -3.1214    1.6765   -0.1409 C   0  0  0  0  0  0  0  0  0  0  0  0
   -4.5677   -0.5749    0.6476 C   0  0  0  0  0  0  0  0  0  0  0  0
   -4.3544    1.8268    0.4939 C   0  0  0  0  0  0  0  0  0  0  0  0
   -5.0774    0.7010    0.8880 C   0  0  0  0  0  0  0  0  0  0  0  0
   -2.0321   -2.5519    0.8018 C   0  0  0  0  0  0  0  0  0  0  0  0
  1  7  1  0
  1 12  1  0
  2 10  1  0
  2 11  1  0
  3 13  1  0
  3 18  1  0
  4 12  2  0
  5  6  1  0
  5  8  1  0
  5  9  1  0
  6  7  1  0
 10 12  1  0
 11 13  2  0
 11 14  1  0
 13 15  1  0
 14 16  2  0
 15 17  2  0
 16 17  1  0
M  END
>  <PUBCHEM_COMPOUND_CID>  (1) 
37068

>  <PUBCHEM_CONFORMER_RMSD>  (1) 
0.8

>  <PUBCHEM_CONFORMER_DIVERSEORDER>  (1) 
1
59
150
392
162
97
287
372
365
11
145
87
204
381
85
275
86
90
128
291
105
221
163
254
283
91
260
330
53
122
49
206
98
362
169
183
248
16
45
44
263
35
216
76
152
186
29
198
56
363
299
240
134
170
178
136
246
69
68
36
95
333
353
332
94
368
367
67
101
12
74
394
313
364
148
225
161
110
96
13
395
156
138
158
400
165
290
173
318
82
2
236
34
286
119
37
249
103
271
65
166
325
140
121
43
205
374
255
22
256
319
107
175
58
188
345
197
227
370
3
153
64
386
157
19
50
199
125
160
241
5
259
230
133
84
292
323
312
257
120
176
39
398
403
220
322
116
78
57
62
277
243
237
336
114
396
71
278
172
382
190
31
211
388
131
376
196
191
342
268
126
187
401
375
335
397
203
79
231
151
297
194
293
47
63
274
212
99
369
378
288
209
42
314
174
108
238
347
267
218
215
202
73
355
92
195
55
192
391
334
6
234
344
10
52
127
210
308
33
384
111
124
83
377
70
20
14
343
300
390
387
135
182
346
93
304
171
141
18
106
337
357
104
72
21
315
130
60
26
193
143
137
179
32
168
356
404
167
402
51
89
324
146
305
144
296
129
233
282
269
38
326
17
132
235
123
25
289
201
229
28
159
115
251
142
30
285
226
81
327
270
281
242
339
331
217
284
185
208
298
177
321
295
100
328
252
207
77
310
359
40
66
341
46
379
272
184
360
7
4
317
219
54
27
349
8
311
80
239
154
24
261
102
147
113
222
41
253
351
302
224
189
303
112
348
266
264
88
405
181
354
306
232
48
245
279
280
247
75
320
200
393
262
118
9
307
399
117
23
164
15
338
358
350
316
352
250
223
301
373
61
371
139
180
366
228
294
309
214
213
276
109
149
273
361
380
258
340
385
244
329
389
265
383
155

>  <PUBCHEM_MMFF94_PARTIAL_CHARGES>  (1) 
22
1 -0.43
10 0.34
11 0.08
12 0.66
13 0.08
14 -0.15
15 -0.15
16 -0.15
17 -0.15
18 0.28
2 -0.36
3 -0.36
31 0.15
32 0.15
33 0.15
34 0.15
4 -0.57
5 -0.81
6 0.27
7 0.28
8 0.27
9 0.27

>  <PUBCHEM_EFFECTIVE_ROTOR_COUNT>  (1) 
8

>  <PUBCHEM_PHARMACOPHORE_FEATURES>  (1) 
5
1 2 acceptor
1 3 acceptor
1 4 acceptor
1 5 cation
6 11 13 14 15 16 17 rings

>  <PUBCHEM_HEAVY_ATOM_COUNT>  (1) 
18

>  <PUBCHEM_ATOM_DEF_STEREO_COUNT>  (1) 
0

>  <PUBCHEM_ATOM_UDEF_STEREO_COUNT>  (1) 
0

>  <PUBCHEM_BOND_DEF_STEREO_COUNT>  (1) 
0

>  <PUBCHEM_BOND_UDEF_STEREO_COUNT>  (1) 
0

>  <PUBCHEM_ISOTOPIC_ATOM_COUNT>  (1) 
0

>  <PUBCHEM_COMPONENT_COUNT>  (1) 
1

>  <PUBCHEM_CACTVS_TAUTO_COUNT>  (1) 
1

>  <PUBCHEM_CONFORMER_ID>  (1) 
000090CC00000001

>  <PUBCHEM_MMFF94_ENERGY>  (1) 
57.0104

>  <PUBCHEM_FEATURE_SELFOVERLAP>  (1) 
25.384

>  <PUBCHEM_SHAPE_FINGERPRINT>  (1) 
11089746 13 12463569578593908214
11315181 36 18259984907045120981
11405975 8 18410012182344980496
12507557 5 16128654184474013665
12596602 18 18410572877672531136
12616971 3 17095526218870595838
13167823 11 18040996241730461146
13288520 33 16805323297067474965
13551218 46 17968094175096294299
13668630 136 13767924603306804600
1420 363 15357699678220425040
14251718 22 8862936178425699480
14341114 176 18410858737847864504
14350574 20 12540703625758528629
14528608 73 10519980474823690496
14844126 61 18265053716275213251
15348495 7 18271800272583457928
15375358 24 18059582368895508087
15716309 27 17603301553639666936
17780758 139 18260266373621651857
17844677 252 18408608059047387604
1813 80 16443351931890028750
19489759 90 18272931626645163289
200 152 14129060326656952125
220451 1 18113901555344625298
23198884 109 12031790270938385480
23402539 116 18410288121256344957
23559900 14 18196957512244484222
2767999 5 15339113525058526432
351380 3 16805601469425247256
4214541 1 18409448089676998716
5104073 3 18337394958221004640
531348 171 9295025560670787088
5364581 5 18125711542572025984
5924683 9 18200589319336453807

>  <PUBCHEM_SHAPE_MULTIPOLES>  (1) 
341.97
15.08
1.89
0.98
22.34
0.92
0.07
-2.26
-5.66
-1.9
-0.36
0.01
0.08
0.1

>  <PUBCHEM_SHAPE_SELFOVERLAP>  (1) 
686.362

>  <PUBCHEM_SHAPE_VOLUME>  (1) 
202.8

>  <PUBCHEM_COORDINATE_TYPE>  (1) 
2
5
10

$$$$
