37078
     RDKit          3D

 21 22  0  0  1  0  0  0  0  0999 V2000
    4.9934    0.9873   -0.5099 O   0  0  0  0  0  0  0  0  0  0  0  0
    1.2799   -0.6419    0.3978 O   0  0  0  0  0  0  0  0  0  0  0  0
   -2.1775   -0.0536    1.0760 O   0  0  0  0  0  0  0  0  0  0  0  0
    0.1998    1.1645    1.3459 O   0  0  0  0  0  0  0  0  0  0  0  0
   -6.4714    1.5018   -0.3128 O   0  0  0  0  0  0  0  0  0  0  0  0
    7.3993   -0.5181   -0.3127 N   0  0  0  0  0  0  0  0  0  0  0  0
    5.0046   -0.2688    0.1792 C   0  0  0  0  0  0  0  0  0  0  0  0
    6.0921   -1.1723   -0.4085 C   0  0  0  0  0  0  0  0  0  0  0  0
    3.6267   -0.8971    0.0234 C   0  0  0  0  0  0  0  0  0  0  0  0
    7.3626    0.7833   -0.9812 C   0  0  0  0  0  0  0  0  0  0  0  0
    6.2548    1.6475   -0.3923 C   0  0  0  0  0  0  0  0  0  0  0  0
    2.5320    0.0098    0.5599 C   0  0  0  0  0  0  0  0  0  0  0  0
    0.1833    0.0521    0.8367 C   0  0  0  0  0  0  0  0  0  0  0  0
   -1.0562   -0.7687    0.5964 C   0  0  0  0  0  0  0  0  0  0  0  0
   -3.3785   -0.2783    0.4476 C   0  0  0  0  0  0  0  0  0  0  0  0
   -4.3214    0.7392    0.3892 C   0  0  0  0  0  0  0  0  0  0  0  0
   -3.6318   -1.5193   -0.1209 C   0  0  0  0  0  0  0  0  0  0  0  0
   -5.5403    0.5112   -0.2494 C   0  0  0  0  0  0  0  0  0  0  0  0
   -4.8508   -1.7473   -0.7595 C   0  0  0  0  0  0  0  0  0  0  0  0
   -5.8051   -0.7320   -0.8239 C   0  0  0  0  0  0  0  0  0  0  0  0
   -7.6955    1.2008   -0.9811 C   0  0  0  0  0  0  0  0  0  0  0  0
  1  7  1  0
  1 11  1  0
  2 12  1  0
  2 13  1  0
  3 14  1  0
  3 15  1  0
  4 13  2  0
  5 18  1  0
  5 21  1  0
  6  8  1  0
  6 10  1  0
  7  8  1  0
  7  9  1  0
  9 12  1  0
 10 11  1  0
 13 14  1  0
 15 16  2  0
 15 17  1  0
 16 18  1  0
 17 19  2  0
 18 20  2  0
 19 20  1  0
M  END
>  <PUBCHEM_COMPOUND_CID>  (1) 
37078

>  <PUBCHEM_CONFORMER_RMSD>  (1) 
1.2

>  <PUBCHEM_CONFORMER_DIVERSEORDER>  (1) 
1
160
125
114
5
94
78
134
57
38
151
35
39
10
51
109
154
74
155
71
149
90
93
121
128
29
144
4
91
133
75
105
85
84
52
119
140
103
25
33
2
130
161
116
56
120
98
22
62
127
67
83
148
79
100
124
72
32
164
13
88
55
37
117
63
157
87
60
8
58
81
11
158
113
23
110
9
64
129
131
34
53
70
136
31
99
95
102
108
30
21
150
44
73
20
28
89
92
104
65
17
50
41
123
138
47
15
166
143
137
3
16
69
27
19
40
42
68
159
45
86
43
152
139
26
82
76
122
153
101
163
97
96
36
132
145
66
115
165
14
18
135
107
106
147
156
162
48
118
49
46
112
77
12
24
146
54
142
59
6
167
141
61
7
80
111
126

>  <PUBCHEM_MMFF94_PARTIAL_CHARGES>  (1) 
25
1 -0.56
10 0.27
11 0.28
12 0.28
13 0.66
14 0.34
15 0.08
16 -0.15
17 -0.15
18 0.08
19 -0.15
2 -0.43
20 -0.15
21 0.28
3 -0.36
31 0.36
36 0.15
37 0.15
38 0.15
39 0.15
4 -0.57
5 -0.36
6 -0.9
7 0.28
8 0.27

>  <PUBCHEM_EFFECTIVE_ROTOR_COUNT>  (1) 
9.2

>  <PUBCHEM_PHARMACOPHORE_FEATURES>  (1) 
8
1 1 acceptor
1 3 acceptor
1 4 acceptor
1 5 acceptor
1 6 cation
1 6 donor
6 1 6 7 8 10 11 rings
6 15 16 17 18 19 20 rings

>  <PUBCHEM_HEAVY_ATOM_COUNT>  (1) 
21

>  <PUBCHEM_ATOM_DEF_STEREO_COUNT>  (1) 
0

>  <PUBCHEM_ATOM_UDEF_STEREO_COUNT>  (1) 
1

>  <PUBCHEM_BOND_DEF_STEREO_COUNT>  (1) 
0

>  <PUBCHEM_BOND_UDEF_STEREO_COUNT>  (1) 
0

>  <PUBCHEM_ISOTOPIC_ATOM_COUNT>  (1) 
0

>  <PUBCHEM_COMPONENT_COUNT>  (1) 
1

>  <PUBCHEM_CACTVS_TAUTO_COUNT>  (1) 
1

>  <PUBCHEM_CONFORMER_ID>  (1) 
000090D600000001

>  <PUBCHEM_MMFF94_ENERGY>  (1) 
53.4459

>  <PUBCHEM_FEATURE_SELFOVERLAP>  (1) 
40.604

>  <PUBCHEM_SHAPE_FINGERPRINT>  (1) 
10 15 11674883285881618523
106641 1 9295279543598291686
10883706 142 16515402971280049721
11315181 36 17632579370585851331
11524674 6 14908180867431884629
11646440 116 14851606574651041982
11719270 70 17846215523735661622
12091667 2 18334580152882917643
13073987 5 11170179943777753697
13177829 20 9439396934665283759
13288520 33 17632858642360422435
13533116 47 16660914497086008298
13668630 136 14764341648416897237
13685833 64 12103847852339026098
13964095 4 18342174449688989963
1420 363 15123513618514980162
14251752 14 18343018882834627118
14251764 18 8934997070966648032
14528608 73 18411702114821605786
14556957 393 17417826053225258393
14849402 71 8862642617649239398
14933364 13 18260831505170403084
15048467 5 17967532367677467633
15183329 4 18412825767811719185
15348495 7 12324253796937539548
15690457 1 11815887956053502941
15716309 27 10519983764204097875
17834072 8 17988921167710184875
17844677 252 13830138290978856842
18006028 8 16056879126232814970
18222031 100 16272207492307107738
20281389 69 16298381349167950484
20735858 18 10665230345476575753
21150785 3 18342175591622925943
21267235 1 18200874076343164723
21424621 283 17095803226759876905
22224240 67 12468643828645198625
23198884 109 18187082854107589475
23559900 14 17774709970285815769
29717793 49 18342744001313262886
300161 21 18113335310244245314
3004659 81 18343295976802161026
328310 630 18187096077911350620
33532 11 12319460974386809244
335352 9 18202276993171918957
3663271 9 9079123258342998998
4073 2 17967537912660264570
4325135 7 18411138026517319260
5385378 56 15285350683330572920
59682541 35 12540706920420626285
9953998 17 13912331170960325505

>  <PUBCHEM_SHAPE_MULTIPOLES>  (1) 
397.84
24.41
1.53
1
12.13
0.04
0.04
5.91
-9.82
-0.73
-0.27
-0.29
0.1
-0.32

>  <PUBCHEM_SHAPE_SELFOVERLAP>  (1) 
814.618

>  <PUBCHEM_SHAPE_VOLUME>  (1) 
228.6

>  <PUBCHEM_COORDINATE_TYPE>  (1) 
2
5
10

$$$$
