3707
     RDKit          3D

 21 24  0  0  0  0  0  0  0  0999 V2000
   -1.0719    2.9567    0.7832 O   0  0  0  0  0  0  0  0  0  0  0  0
    1.8319    0.5990   -2.8836 O   0  0  0  0  0  0  0  0  0  0  0  0
    1.0985   -0.1217    1.3714 N   0  0  0  0  0  0  0  0  0  0  0  0
   -2.9874    1.6556    0.4825 N   0  0  0  0  0  0  0  0  0  0  0  0
    0.8578    0.6501   -2.1664 N   0  0  0  0  0  0  0  0  0  0  0  0
   -1.0793    0.5363    0.3009 C   0  0  0  0  0  0  0  0  0  0  0  0
    0.3638    0.2509    0.2765 C   0  0  0  0  0  0  0  0  0  0  0  0
   -2.1516   -0.3761    0.0948 C   0  0  0  0  0  0  0  0  0  0  0  0
    2.5160   -0.0562   -0.3501 C   0  0  0  0  0  0  0  0  0  0  0  0
    1.2155    0.2999   -0.8047 C   0  0  0  0  0  0  0  0  0  0  0  0
    2.4150   -0.3158    1.0184 C   0  0  0  0  0  0  0  0  0  0  0  0
   -3.3376    0.3515    0.2140 C   0  0  0  0  0  0  0  0  0  0  0  0
   -1.6249    1.7772    0.5368 C   0  0  0  0  0  0  0  0  0  0  0  0
   -2.2272   -1.7556   -0.1826 C   0  0  0  0  0  0  0  0  0  0  0  0
   -4.6005   -0.2336    0.0692 C   0  0  0  0  0  0  0  0  0  0  0  0
    3.7733   -0.1829   -0.9734 C   0  0  0  0  0  0  0  0  0  0  0  0
    3.5129   -0.6974    1.7977 C   0  0  0  0  0  0  0  0  0  0  0  0
   -3.4837   -2.3544   -0.3302 C   0  0  0  0  0  0  0  0  0  0  0  0
   -4.6508   -1.6032   -0.2057 C   0  0  0  0  0  0  0  0  0  0  0  0
    4.8804   -0.5638   -0.2064 C   0  0  0  0  0  0  0  0  0  0  0  0
    4.7498   -0.8165    1.1577 C   0  0  0  0  0  0  0  0  0  0  0  0
  1 13  1  0
  2  5  2  0
  3  7  1  0
  3 11  1  0
  4 12  1  0
  4 13  1  0
  5 10  1  0
  6  7  1  0
  6  8  1  0
  6 13  2  0
  7 10  2  0
  8 12  2  0
  8 14  1  0
  9 10  1  0
  9 11  2  0
  9 16  1  0
 11 17  1  0
 12 15  1  0
 14 18  2  0
 15 19  2  0
 16 20  2  0
 17 21  2  0
 18 19  1  0
 20 21  1  0
M  END
>  <PUBCHEM_COMPOUND_CID>  (1) 
3707

>  <PUBCHEM_CONFORMER_RMSD>  (1) 
0.6

>  <PUBCHEM_CONFORMER_DIVERSEORDER>  (1) 
2
4
6
3
1
5

>  <PUBCHEM_MMFF94_PARTIAL_CHARGES>  (1) 
29
1 -0.51
10 0.25
11 -0.15
12 -0.15
13 -0.09
14 -0.15
15 -0.15
16 -0.15
17 -0.15
18 -0.15
19 -0.15
2 -0.16
20 -0.15
21 -0.15
22 0.27
23 0.27
24 0.15
25 0.15
26 0.15
27 0.15
28 0.15
29 0.15
3 0.03
30 0.15
31 0.15
32 0.45
4 0.03
5 -0.09
7 -0.15

>  <PUBCHEM_EFFECTIVE_ROTOR_COUNT>  (1) 
2

>  <PUBCHEM_PHARMACOPHORE_FEATURES>  (1) 
9
1 1 donor
1 3 cation
1 3 donor
1 4 cation
1 4 donor
5 3 7 9 10 11 rings
5 4 6 8 12 13 rings
6 8 12 14 15 18 19 rings
6 9 11 16 17 20 21 rings

>  <PUBCHEM_HEAVY_ATOM_COUNT>  (1) 
21

>  <PUBCHEM_ATOM_DEF_STEREO_COUNT>  (1) 
0

>  <PUBCHEM_ATOM_UDEF_STEREO_COUNT>  (1) 
0

>  <PUBCHEM_BOND_DEF_STEREO_COUNT>  (1) 
0

>  <PUBCHEM_BOND_UDEF_STEREO_COUNT>  (1) 
0

>  <PUBCHEM_ISOTOPIC_ATOM_COUNT>  (1) 
0

>  <PUBCHEM_COMPONENT_COUNT>  (1) 
1

>  <PUBCHEM_CACTVS_TAUTO_COUNT>  (1) 
14

>  <PUBCHEM_CONFORMER_ID>  (1) 
00000E7B00000002

>  <PUBCHEM_MMFF94_ENERGY>  (1) 
44.4419

>  <PUBCHEM_FEATURE_SELFOVERLAP>  (1) 
45.899

>  <PUBCHEM_SHAPE_FINGERPRINT>  (1) 
11046707 91 18409725175402737979
11370993 144 16415211039572591827
11578080 2 17896854694934778548
11582403 64 16260893311219878824
12236239 1 18040436581310544835
12363563 72 18200314445797991931
12553582 1 18411980304043164851
13009979 54 18187092745000391250
13134695 92 16370725937516342710
13583140 156 17701796844564008930
13911987 19 15430333399382675474
14115302 16 18114463465457252451
14294032 229 18192147093708970877
14386348 63 17418381293806548535
15099037 37 18060699485541625433
15375358 24 17132115723622151831
16752209 62 18409157806334124891
17349148 13 17967535666238965442
17804303 29 18273210928558320027
1813 80 17531250487757103630
18186145 218 13840260403650662541
19049666 15 16986891037887487197
19862831 5 17676203593502327675
200 152 17385441011991077001
20600515 1 18130796685002554809
20645477 70 15502651560369559930
20739085 24 15267072466781975114
21033648 29 16343124841252751434
21065201 7 18200876163053484578
21069387 34 17530966890559925611
22112679 90 18188507803654764557
22854114 59 15482671294597834075
2297311 6 18201445774242556594
232386 152 18339359772741272135
23366157 5 17975130156651577073
23402539 116 18201710744024017141
23557571 272 17846228712962710785
23559900 14 18059019354797256134
3004659 81 18260265282710754943
34797466 226 18130802200025419180
474 4 17387424651686099316
5104073 3 18199752604151719387
573450 72 18335977580205319642
602551 16 18272650160248182058
633830 44 12895069656702223072
67856867 119 18263081183803643796
7471813 234 17894629266462500548
77492 1 18040442078831818801
81228 2 17915765131570797049

>  <PUBCHEM_SHAPE_MULTIPOLES>  (1) 
405.49
9.61
1.89
1.59
1.54
0.54
-0.93
-4.43
1.06
-2.42
0.28
1.91
0.24
-1.04

>  <PUBCHEM_SHAPE_SELFOVERLAP>  (1) 
925.863

>  <PUBCHEM_SHAPE_VOLUME>  (1) 
209

>  <PUBCHEM_COORDINATE_TYPE>  (1) 
2
5
10

$$$$
