37074
     RDKit          3D

 18 18  0  0  0  0  0  0  0  0999 V2000
    2.3130   -0.1580    0.3659 O   0  0  0  0  0  0  0  0  0  0  0  0
   -0.9853    1.1796    0.6611 O   0  0  0  0  0  0  0  0  0  0  0  0
   -4.4209   -2.0951    0.1488 O   0  0  0  0  0  0  0  0  0  0  0  0
    1.5327    2.0109    0.2405 O   0  0  0  0  0  0  0  0  0  0  0  0
    5.9594   -0.4781   -0.0668 N   0  0  0  0  0  0  0  0  0  0  0  0
    4.5781   -0.8997    0.1635 C   0  0  0  0  0  0  0  0  0  0  0  0
    3.6427    0.2989    0.1561 C   0  0  0  0  0  0  0  0  0  0  0  0
    6.0719    0.2292   -1.3420 C   0  0  0  0  0  0  0  0  0  0  0  0
    6.8571   -1.6322   -0.0416 C   0  0  0  0  0  0  0  0  0  0  0  0
    0.0022    0.1689    0.6170 C   0  0  0  0  0  0  0  0  0  0  0  0
    1.3448    0.8106    0.3859 C   0  0  0  0  0  0  0  0  0  0  0  0
   -2.2507    0.8364    0.2499 C   0  0  0  0  0  0  0  0  0  0  0  0
   -2.6932   -0.4694    0.4132 C   0  0  0  0  0  0  0  0  0  0  0  0
   -3.9778   -0.8174   -0.0044 C   0  0  0  0  0  0  0  0  0  0  0  0
   -3.0688    1.8007   -0.3231 C   0  0  0  0  0  0  0  0  0  0  0  0
   -4.8079    0.1439   -0.5813 C   0  0  0  0  0  0  0  0  0  0  0  0
   -4.3535    1.4529   -0.7406 C   0  0  0  0  0  0  0  0  0  0  0  0
   -5.7439   -2.3821   -0.3022 C   0  0  0  0  0  0  0  0  0  0  0  0
  1  7  1  0
  1 11  1  0
  2 10  1  0
  2 12  1  0
  3 14  1  0
  3 18  1  0
  4 11  2  0
  5  6  1  0
  5  8  1  0
  5  9  1  0
  6  7  1  0
 10 11  1  0
 12 13  2  0
 12 15  1  0
 13 14  1  0
 14 16  2  0
 15 17  2  0
 16 17  1  0
M  END
>  <PUBCHEM_COMPOUND_CID>  (1) 
37074

>  <PUBCHEM_CONFORMER_RMSD>  (1) 
1

>  <PUBCHEM_CONFORMER_DIVERSEORDER>  (1) 
1
273
340
67
21
164
140
47
41
2
97
5
479
328
125
16
201
139
66
50
65
55
304
8
84
331
20
414
78
116
33
3
56
387
461
386
144
6
104
395
341
265
14
556
133
380
76
69
330
64
343
167
36
162
229
230
309
438
298
111
303
157
9
27
268
54
22
243
37
170
218
339
394
194
234
113
223
12
455
329
81
101
131
376
487
337
15
492
18
43
493
49
31
60
280
301
324
174
75
169
129
299
214
96
406
402

>  <PUBCHEM_MMFF94_PARTIAL_CHARGES>  (1) 
22
1 -0.43
10 0.34
11 0.66
12 0.08
13 -0.15
14 0.08
15 -0.15
16 -0.15
17 -0.15
18 0.28
2 -0.36
3 -0.36
31 0.15
32 0.15
33 0.15
34 0.15
4 -0.57
5 -0.81
6 0.27
7 0.28
8 0.27
9 0.27

>  <PUBCHEM_EFFECTIVE_ROTOR_COUNT>  (1) 
8

>  <PUBCHEM_PHARMACOPHORE_FEATURES>  (1) 
5
1 2 acceptor
1 3 acceptor
1 4 acceptor
1 5 cation
6 12 13 14 15 16 17 rings

>  <PUBCHEM_HEAVY_ATOM_COUNT>  (1) 
18

>  <PUBCHEM_ATOM_DEF_STEREO_COUNT>  (1) 
0

>  <PUBCHEM_ATOM_UDEF_STEREO_COUNT>  (1) 
0

>  <PUBCHEM_BOND_DEF_STEREO_COUNT>  (1) 
0

>  <PUBCHEM_BOND_UDEF_STEREO_COUNT>  (1) 
0

>  <PUBCHEM_ISOTOPIC_ATOM_COUNT>  (1) 
0

>  <PUBCHEM_COMPONENT_COUNT>  (1) 
1

>  <PUBCHEM_CACTVS_TAUTO_COUNT>  (1) 
1

>  <PUBCHEM_CONFORMER_ID>  (1) 
000090D200000001

>  <PUBCHEM_MMFF94_ENERGY>  (1) 
54.7037

>  <PUBCHEM_FEATURE_SELFOVERLAP>  (1) 
25.38

>  <PUBCHEM_SHAPE_FINGERPRINT>  (1) 
10595046 47 18259987067967402980
11315181 36 18272371957899290720
11524674 6 16917350355332036199
117890 112 8790888480150618606
12091667 2 17603873273541760400
12760667 363 18343018943724097387
12916754 54 18340768247400489857
13288520 33 18412545405553369273
13668630 136 18272656719248682334
13740256 8 18342458161869057752
1420 363 17632859715980764502
14251718 22 18408042922854768660
14251751 18 18413390964080606534
14251752 14 18041555837351275958
14350574 20 18410013268781574937
14528608 73 17968100828722841252
14848160 23 18201996617120981482
15183329 4 17095238103916929202
17780758 139 17418098719756027939
17834072 33 18333171674250752388
17844677 252 18343586243967901280
17870717 6 18411138017953628381
18643901 69 18410014347488578287
193927 3 17704079486311129464
20281389 69 8502651502623721038
20374829 77 18410290306856654209
20645477 56 12107795102803079848
21054139 6 18259983765211860338
21150785 3 17240767328027618958
21267235 1 18335423500155988363
21623969 137 17346883334424144710
220451 1 18334298621886743024
2297311 6 18411702097536364817
23035841 295 18412265008428697425
23081809 10 17748830692278265832
23198884 109 17022903445374605115
23402539 116 18186519878305223668
23522609 53 18124349148332629433
23559900 14 18339633538078133121
270888 7 8285943271464649455
2767999 5 12901546862468685302
3004659 81 18114463362995267978
312425 54 13470689239565656454
351380 3 18343581854368711218
4214541 1 18409728448157482225
441001 317 8070033276433838783
465052 167 17989490715150136990
5104073 3 17989205958001086120
531348 171 17969778575285464995
559249 180 18410570656799995939
59682541 52 14707475955290584618
7062679 117 18334577949089836891

>  <PUBCHEM_SHAPE_MULTIPOLES>  (1) 
341.97
17.42
2.04
0.84
21.07
0.57
0.15
9.38
4.5
-2.67
0.1
0.35
-0.11
0.06

>  <PUBCHEM_SHAPE_SELFOVERLAP>  (1) 
687.123

>  <PUBCHEM_SHAPE_VOLUME>  (1) 
202.6

>  <PUBCHEM_COORDINATE_TYPE>  (1) 
2
5
10

$$$$
