37070
     RDKit          3D

 20 20  0  0  0  0  0  0  0  0999 V2000
    1.5285    0.2770    0.1796 O   0  0  0  0  0  0  0  0  0  0  0  0
   -1.9808   -0.3815    0.0949 O   0  0  0  0  0  0  0  0  0  0  0  0
    0.3471   -1.7018    0.3107 O   0  0  0  0  0  0  0  0  0  0  0  0
   -4.3772   -1.8018    0.0873 O   0  0  0  0  0  0  0  0  0  0  0  0
    5.1873   -0.1346    0.3522 N   0  0  0  0  0  0  0  0  0  0  0  0
    3.9035    0.5558    0.2333 C   0  0  0  0  0  0  0  0  0  0  0  0
    5.5694   -0.7276   -0.9289 C   0  0  0  0  0  0  0  0  0  0  0  0
    6.2224    0.7876    0.8176 C   0  0  0  0  0  0  0  0  0  0  0  0
    2.7534   -0.4374    0.2809 C   0  0  0  0  0  0  0  0  0  0  0  0
    6.8714   -1.5013   -0.8091 C   0  0  0  0  0  0  0  0  0  0  0  0
    6.4411    1.9148   -0.1774 C   0  0  0  0  0  0  0  0  0  0  0  0
    0.3896   -0.4834    0.2076 C   0  0  0  0  0  0  0  0  0  0  0  0
   -0.8131    0.4154    0.0905 C   0  0  0  0  0  0  0  0  0  0  0  0
   -3.1844    0.2714   -0.0191 C   0  0  0  0  0  0  0  0  0  0  0  0
   -4.3818   -0.4442   -0.0231 C   0  0  0  0  0  0  0  0  0  0  0  0
   -3.2025    1.6617   -0.1317 C   0  0  0  0  0  0  0  0  0  0  0  0
   -5.5971    0.2306   -0.1397 C   0  0  0  0  0  0  0  0  0  0  0  0
   -4.4178    2.3363   -0.2483 C   0  0  0  0  0  0  0  0  0  0  0  0
   -5.6150    1.6208   -0.2523 C   0  0  0  0  0  0  0  0  0  0  0  0
   -5.6438   -2.4575    0.0748 C   0  0  0  0  0  0  0  0  0  0  0  0
  1  9  1  0
  1 12  1  0
  2 13  1  0
  2 14  1  0
  3 12  2  0
  4 15  1  0
  4 20  1  0
  5  6  1  0
  5  7  1  0
  5  8  1  0
  6  9  1  0
  7 10  1  0
  8 11  1  0
 12 13  1  0
 14 15  2  0
 14 16  1  0
 15 17  1  0
 16 18  2  0
 17 19  2  0
 18 19  1  0
M  END
>  <PUBCHEM_COMPOUND_CID>  (1) 
37070

>  <PUBCHEM_CONFORMER_RMSD>  (1) 
1

>  <PUBCHEM_CONFORMER_DIVERSEORDER>  (1) 
2
72
133
53
91
54
104
103
117
99
102
52
79
128
3
96
116
4
25
38
31
87
118
131
23
122
98
69
89
64
63
40
80
93
16
14
37
66
1
111
29
77
120
44
97
147
59
90
39
58
21
145
6
22
135
109
119
108
50
139
36
18
46
34
134
95
41
28
26
11
127
43
7
17
92
129
138
33
15
124
61
140
114
82
88
32
75
30
35
113
141
49
19
73
62
57
144
27
107
60
132
56
86
70
136
45
84
42
121
65
125
85
55
81
67
74
142
143
101
24
20
123
94
8
126
68
51
83
10
100
78
137
115
148
110
105
146
9
47
71
5
48
106
12
76
130
13
112

>  <PUBCHEM_MMFF94_PARTIAL_CHARGES>  (1) 
22
1 -0.43
12 0.66
13 0.34
14 0.08
15 0.08
16 -0.15
17 -0.15
18 -0.15
19 -0.15
2 -0.36
20 0.28
3 -0.57
37 0.15
38 0.15
39 0.15
4 -0.36
40 0.15
5 -0.81
6 0.27
7 0.27
8 0.27
9 0.28

>  <PUBCHEM_EFFECTIVE_ROTOR_COUNT>  (1) 
10

>  <PUBCHEM_PHARMACOPHORE_FEATURES>  (1) 
5
1 2 acceptor
1 3 acceptor
1 4 acceptor
1 5 cation
6 14 15 16 17 18 19 rings

>  <PUBCHEM_HEAVY_ATOM_COUNT>  (1) 
20

>  <PUBCHEM_ATOM_DEF_STEREO_COUNT>  (1) 
0

>  <PUBCHEM_ATOM_UDEF_STEREO_COUNT>  (1) 
0

>  <PUBCHEM_BOND_DEF_STEREO_COUNT>  (1) 
0

>  <PUBCHEM_BOND_UDEF_STEREO_COUNT>  (1) 
0

>  <PUBCHEM_ISOTOPIC_ATOM_COUNT>  (1) 
0

>  <PUBCHEM_COMPONENT_COUNT>  (1) 
1

>  <PUBCHEM_CACTVS_TAUTO_COUNT>  (1) 
1

>  <PUBCHEM_CONFORMER_ID>  (1) 
000090CE00000002

>  <PUBCHEM_MMFF94_ENERGY>  (1) 
53.5704

>  <PUBCHEM_FEATURE_SELFOVERLAP>  (1) 
25.383

>  <PUBCHEM_SHAPE_FINGERPRINT>  (1) 
10411042 1 18121217847877717579
10595046 47 18334573551117094538
10638233 991 16515696545696643900
11315181 36 17775565347683355729
11524674 6 16415480476046356943
12091667 2 18187367636034908459
12166972 35 18335425685872848940
12236239 1 18186516614150989314
13533116 47 17023176073488696706
13631057 29 18337668720127573795
14251732 16 18410574032728407312
14251764 18 17894345610380673288
14461889 52 18339073921773259714
14528608 73 18333450941656282442
14933364 13 18412265034420300368
15183329 4 18342461387985453130
15778101 99 18340208484391936281
17844677 252 18412833490527115456
18335252 98 18271248326215156554
18927931 339 18335704966532377167
19489759 90 18259984872938369465
20281389 69 17968374554940675132
21236236 1 18409448111579070763
21267235 1 18335707174277325739
21709351 56 18333445456814357829
220451 1 17822009774648220874
22061861 79 17418097594384743572
2303208 19 18131077043087243358
23081809 10 17458061556393895986
23272321 79 18335137617799208704
23402539 116 18260544537347271807
23536379 177 18412544297631038200
23559900 14 18340759429785327329
2916195 48 18412257368025061568
300161 21 17822003186373883065
3004659 81 18410857630183898738
3545911 37 18411136901367775721
4073 2 18260271862600795698
441001 317 18340767057604838937
59755656 215 18339927004861743694
67856867 119 18187649171178747341

>  <PUBCHEM_SHAPE_MULTIPOLES>  (1) 
383.13
20.71
2.19
0.74
19.28
0.12
0.04
-0.65
2.11
-2.38
0.15
0.72
0.03
1.14

>  <PUBCHEM_SHAPE_SELFOVERLAP>  (1) 
765.854

>  <PUBCHEM_SHAPE_VOLUME>  (1) 
227.5

>  <PUBCHEM_COORDINATE_TYPE>  (1) 
2
5
10

$$$$
