37087
     RDKit          3D

 11 11  0  0  1  0  0  0  0  0999 V2000
   -0.6203   -0.5670    0.3101 O   0  0  0  0  0  0  0  0  0  0  0  0
   -3.8025    1.0310   -0.6460 N   0  0  0  0  0  0  0  0  0  0  0  0
   -2.8792   -0.0713   -0.3815 C   0  0  0  0  0  0  0  0  0  0  0  0
   -1.5406    0.4955    0.0926 C   0  0  0  0  0  0  0  0  0  0  0  0
   -3.4858   -1.0295    0.6441 C   0  0  0  0  0  0  0  0  0  0  0  0
    0.7091   -0.2735    0.1551 C   0  0  0  0  0  0  0  0  0  0  0  0
    1.1660    1.0121    0.4224 C   0  0  0  0  0  0  0  0  0  0  0  0
    1.5872   -1.2642   -0.2694 C   0  0  0  0  0  0  0  0  0  0  0  0
    2.5192    1.3106    0.2631 C   0  0  0  0  0  0  0  0  0  0  0  0
    2.9404   -0.9656   -0.4284 C   0  0  0  0  0  0  0  0  0  0  0  0
    3.4065    0.3218   -0.1622 C   0  0  0  0  0  0  0  0  0  0  0  0
  1  4  1  0
  1  6  1  0
  2  3  1  0
  3  4  1  0
  3  5  1  0
  6  7  2  0
  6  8  1  0
  7  9  1  0
  8 10  2  0
  9 11  2  0
 10 11  1  0
M  END
>  <PUBCHEM_COMPOUND_CID>  (1) 
37087

>  <PUBCHEM_CONFORMER_RMSD>  (1) 
0.6

>  <PUBCHEM_CONFORMER_DIVERSEORDER>  (1) 
1
9
11
5
15
10
3
6
2
4
8
13
12
7
14

>  <PUBCHEM_MMFF94_PARTIAL_CHARGES>  (1) 
17
1 -0.36
10 -0.15
11 -0.15
18 0.36
19 0.36
2 -0.99
20 0.15
21 0.15
22 0.15
23 0.15
24 0.15
3 0.27
4 0.28
6 0.08
7 -0.15
8 -0.15
9 -0.15

>  <PUBCHEM_EFFECTIVE_ROTOR_COUNT>  (1) 
3

>  <PUBCHEM_PHARMACOPHORE_FEATURES>  (1) 
4
1 1 acceptor
1 2 cation
1 2 donor
6 6 7 8 9 10 11 rings

>  <PUBCHEM_HEAVY_ATOM_COUNT>  (1) 
11

>  <PUBCHEM_ATOM_DEF_STEREO_COUNT>  (1) 
0

>  <PUBCHEM_ATOM_UDEF_STEREO_COUNT>  (1) 
1

>  <PUBCHEM_BOND_DEF_STEREO_COUNT>  (1) 
0

>  <PUBCHEM_BOND_UDEF_STEREO_COUNT>  (1) 
0

>  <PUBCHEM_ISOTOPIC_ATOM_COUNT>  (1) 
0

>  <PUBCHEM_COMPONENT_COUNT>  (1) 
1

>  <PUBCHEM_CACTVS_TAUTO_COUNT>  (1) 
1

>  <PUBCHEM_CONFORMER_ID>  (1) 
000090DF00000001

>  <PUBCHEM_MMFF94_ENERGY>  (1) 
24.7892

>  <PUBCHEM_FEATURE_SELFOVERLAP>  (1) 
20.297

>  <PUBCHEM_SHAPE_FINGERPRINT>  (1) 
10219947 1 17704072876176918174
10608611 8 18408600387755469601
11471102 20 18342736299777446676
12032990 46 18411708685536122994
12897270 3 18412545405242041965
12932764 1 17203885279867891369
13296908 3 18408886243740993659
14144814 61 18131356288706635835
14325111 11 18410011056825853641
15219456 202 18409730681350253779
17844478 74 18334583459870435849
18186145 218 18411426085272621651
190213 19 17275386512331977175
20201158 50 18412545383756824882
20279233 1 18335138696046847227
20606313 2 18413386536259552412
20645477 70 18201154352137874319
23402539 116 17749100102275013350
23402655 69 18272086080512510237
3248919 1 16343707642418348663
57812782 119 18409164419876794401
93112 12 18412542098407316101

>  <PUBCHEM_SHAPE_MULTIPOLES>  (1) 
215.52
6.8
1.34
0.74
4.19
0.01
0
0.16
0.62
-0.37
-0.01
0.23
0
0.66

>  <PUBCHEM_SHAPE_SELFOVERLAP>  (1) 
433.41

>  <PUBCHEM_SHAPE_VOLUME>  (1) 
127.6

>  <PUBCHEM_COORDINATE_TYPE>  (1) 
2
5
10

$$$$
