37085
     RDKit          3D

 13 12  0  0  0  0  0  0  0  0999 V2000
    4.0447   -0.5080    0.0156 O   0  0  0  0  0  0  0  0  0  0  0  0
    3.0092    1.5523   -0.0427 O   0  0  0  0  0  0  0  0  0  0  0  0
   -0.8837   -0.4259    0.0383 C   0  0  0  0  0  0  0  0  0  0  0  0
   -2.1291    0.4626   -0.0002 C   0  0  0  0  0  0  0  0  0  0  0  0
    0.4316    0.3572   -0.0549 C   0  0  0  0  0  0  0  0  0  0  0  0
   -3.4048   -0.3631    0.1870 C   0  0  0  0  0  0  0  0  0  0  0  0
    1.6985   -0.4904    0.0618 C   0  0  0  0  0  0  0  0  0  0  0  0
   -4.6528    0.5193    0.1154 C   0  0  0  0  0  0  0  0  0  0  0  0
    2.9672    0.3309    0.0172 C   0  0  0  0  0  0  0  0  0  0  0  0
   -5.9010   -0.2845    0.3304 C   0  0  0  0  0  0  0  0  0  0  0  0
    5.3229    0.1307   -0.0642 C   0  0  0  0  0  0  0  0  0  0  0  0
   -6.9072   -0.3530   -0.5483 C   0  0  0  0  0  0  0  0  0  0  0  0
    6.4046   -0.9282   -0.0555 C   0  0  0  0  0  0  0  0  0  0  0  0
  1  9  1  0
  1 11  1  0
  2  9  2  0
  3  4  1  0
  3  5  1  0
  4  6  1  0
  5  7  1  0
  6  8  1  0
  7  9  1  0
  8 10  1  0
 10 12  2  0
 11 13  1  0
M  END
>  <PUBCHEM_COMPOUND_CID>  (1) 
37085

>  <PUBCHEM_CONFORMER_RMSD>  (1) 
0.8

>  <PUBCHEM_CONFORMER_DIVERSEORDER>  (1) 
1
164
6
119
123
155
81
264
43
63
169
113
60
223
58
141
124
262
45
88
62
156
128
20
265
32
15
213
228
49
19
110
90
38
189
111
218
18
78
238
173
140
71
44
36
199
176
12
150
26
222
183
171
40
51
247
275
210
134
232
34
25
129
115
11
92
56
68
185
28
182
76
142
74
82
85
50
154
30
143
175
89
194
152
64
55
93
287
267
39
135
248
37
259
7
165
79
257
178
220
41
95
217
254
116
230
65
138
231
52
10
108
105
246
161
148
96
251
9
252
149
117
181
106
75
145
225
29
284
98
91
236
162
146
166
72
27
163
159
239
196
272
103
207
250
219
157
77
70
268
121
87
94
97
212
59
133
285
184
3
5
233
271
57
114
197
204
84
174
22
144
193
21
2
131
276
243
127
286
192
168
147
160
101
16
35
4
61
153
280
47
31
80
253
281
167
288
221
170
17
54
107
203
244
136
122
229
102
258
126
245
241
270
209
215
48
201
86
186
202
277
14
240
195
67
177
273
179
46
42
211
214
112
216
274
33
13
256
109
66
249
69
261
234
205
172
151
187
283
24
208
139
8
200
158
190
269
260
224
53
266
104
73
206
132
118
263
255
242
125
289
279
180
137
188
282
237
191
99
83
226
120
278
23
235
100
227
130
198

>  <PUBCHEM_MMFF94_PARTIAL_CHARGES>  (1) 
11
1 -0.43
10 -0.29
11 0.28
12 -0.3
2 -0.57
26 0.15
29 0.15
30 0.15
7 0.06
8 0.14
9 0.66

>  <PUBCHEM_EFFECTIVE_ROTOR_COUNT>  (1) 
9

>  <PUBCHEM_PHARMACOPHORE_FEATURES>  (1) 
2
1 12 hydrophobe
1 2 acceptor

>  <PUBCHEM_HEAVY_ATOM_COUNT>  (1) 
13

>  <PUBCHEM_ATOM_DEF_STEREO_COUNT>  (1) 
0

>  <PUBCHEM_ATOM_UDEF_STEREO_COUNT>  (1) 
0

>  <PUBCHEM_BOND_DEF_STEREO_COUNT>  (1) 
0

>  <PUBCHEM_BOND_UDEF_STEREO_COUNT>  (1) 
0

>  <PUBCHEM_ISOTOPIC_ATOM_COUNT>  (1) 
0

>  <PUBCHEM_COMPONENT_COUNT>  (1) 
1

>  <PUBCHEM_CACTVS_TAUTO_COUNT>  (1) 
1

>  <PUBCHEM_CONFORMER_ID>  (1) 
000090DD00000001

>  <PUBCHEM_MMFF94_ENERGY>  (1) 
3.4763

>  <PUBCHEM_FEATURE_SELFOVERLAP>  (1) 
10.148

>  <PUBCHEM_SHAPE_FINGERPRINT>  (1) 
10968037 39 8574710200578786403
12091667 2 18409167706465688265
12714333 28 9151172051929646430
12815109 37 8862942775236795427
13073987 5 13326589418656087615
13533116 47 18342454790642036234
1420 363 18259709999458294003
14251718 22 10303813176934666279
14251764 18 18412265034710340360
14251764 46 18334857216416395131
15048467 5 8070026666299770095
15242439 84 17749391481298693481
17834072 33 18201437017300118725
17834072 8 17967813851376072603
17834076 25 15864070970620282467
20621476 38 18341333284803241782
20621476 8 18335139748783300685
20645477 70 18270402685208296086
21130983 4 9367341548499229610
220451 1 13406791138650505241
23402539 116 17846493729729939581
23521765 1 18341895190409066827
300161 21 8430315714726693681
33684 2 18040434382777925602
3545911 37 18113618988982160315
42788 4 18411419509640768145
54446538 1 18272370871494234185
59755656 215 17967813812547774506
59755656 520 18040148539867662387
8209 1 18334012792045334951

>  <PUBCHEM_SHAPE_MULTIPOLES>  (1) 
255.8
18.31
0.94
0.64
5.53
0.15
0.01
-3.39
1.1
-0.67
0.01
0.27
-0.02
-0.07

>  <PUBCHEM_SHAPE_SELFOVERLAP>  (1) 
466.875

>  <PUBCHEM_SHAPE_VOLUME>  (1) 
162.7

>  <PUBCHEM_COORDINATE_TYPE>  (1) 
2
5
10

$$$$
