37083
     RDKit          3D

 27 30  0  0  1  0  0  0  0  0999 V2000
   -4.0923   -0.5620    0.3511 O   0  0  0  0  0  0  0  0  0  0  0  0
   -5.5135    0.0634   -1.3594 O   0  0  0  0  0  0  0  0  0  0  0  0
    6.4969   -2.0072   -1.0067 O   0  0  0  0  0  0  0  0  0  0  0  0
    6.2607   -0.6349   -1.0954 N   0  0  0  0  0  0  0  0  0  0  0  0
   -1.6606   -0.0749    0.4672 C   0  0  0  0  0  0  0  0  0  0  0  0
   -0.8200    0.9756   -0.2948 C   0  0  0  0  0  0  0  0  0  0  0  0
    0.5407    1.2349    0.3573 C   0  0  0  0  0  0  0  0  0  0  0  0
    1.3463   -0.1090    0.3957 C   0  0  0  0  0  0  0  0  0  0  0  0
   -2.9846   -0.0261   -0.3580 C   0  0  0  0  0  0  0  0  0  0  0  0
   -0.8832   -1.4048    0.4651 C   0  0  0  0  0  0  0  0  0  0  0  0
   -1.7841    2.1463   -0.4715 C   0  0  0  0  0  0  0  0  0  0  0  0
    0.5331   -1.2494    1.0506 C   0  0  0  0  0  0  0  0  0  0  0  0
   -3.1731    1.4918   -0.6280 C   0  0  0  0  0  0  0  0  0  0  0  0
    2.7187    0.1426    1.0778 C   0  0  0  0  0  0  0  0  0  0  0  0
    1.3313    2.3385   -0.3732 C   0  0  0  0  0  0  0  0  0  0  0  0
   -1.9490    0.3158    1.9465 C   0  0  0  0  0  0  0  0  0  0  0  0
    2.7288    2.5307    0.2227 C   0  0  0  0  0  0  0  0  0  0  0  0
    3.4402    1.2051    0.2656 C   0  0  0  0  0  0  0  0  0  0  0  0
    3.6054   -1.0941    1.2958 C   0  0  0  0  0  0  0  0  0  0  0  0
   -2.8986   -0.7498   -1.6424 C   0  0  0  0  0  0  0  0  0  0  0  0
   -2.7410   -0.7680    2.6284 C   0  0  0  0  0  0  0  0  0  0  0  0
    4.3143   -1.5298    0.0258 C   0  0  0  0  0  0  0  0  0  0  0  0
    4.5650    0.9889   -0.4336 C   0  0  0  0  0  0  0  0  0  0  0  0
    5.1290   -0.3809   -0.5228 C   0  0  0  0  0  0  0  0  0  0  0  0
   -5.3064   -0.4497   -0.2681 C   0  0  0  0  0  0  0  0  0  0  0  0
   -2.8292   -1.3381   -2.6864 C   0  0  0  0  0  0  0  0  0  0  0  0
   -6.3750   -1.0550    0.5907 C   0  0  0  0  0  0  0  0  0  0  0  0
  1  9  1  0
  1 25  1  0
  2 25  2  0
  3  4  1  0
  4 24  2  0
  5  6  1  0
  5  9  1  0
  5 10  1  0
  5 16  1  0
  6  7  1  0
  6 11  1  0
  7  8  1  0
  7 15  1  0
  8 12  1  0
  8 14  1  0
  9 13  1  0
  9 20  1  0
 10 12  1  0
 11 13  1  0
 14 18  1  0
 14 19  1  0
 15 17  1  0
 16 21  1  0
 17 18  1  0
 18 23  2  0
 19 22  1  0
 20 26  3  0
 22 24  1  0
 23 24  1  0
 25 27  1  0
M  END
>  <PUBCHEM_COMPOUND_CID>  (1) 
37083

>  <PUBCHEM_CONFORMER_RMSD>  (1) 
0.8

>  <PUBCHEM_CONFORMER_DIVERSEORDER>  (1) 
1
2

>  <PUBCHEM_MMFF94_PARTIAL_CHARGES>  (1) 
18
1 -0.43
14 0.14
17 0.14
18 -0.28
2 -0.57
20 -0.2
22 0.06
23 -0.14
24 0.37
25 0.66
26 -0.18
27 0.06
3 -0.34
4 -0.51
53 0.15
54 0.18
58 0.4
9 0.48

>  <PUBCHEM_EFFECTIVE_ROTOR_COUNT>  (1) 
4.8

>  <PUBCHEM_PHARMACOPHORE_FEATURES>  (1) 
9
1 2 acceptor
1 21 hydrophobe
1 26 hydrophobe
1 3 anion
1 4 acceptor
5 5 6 9 11 13 rings
6 14 18 19 22 23 24 rings
6 5 6 7 8 10 12 rings
6 7 8 14 15 17 18 rings

>  <PUBCHEM_HEAVY_ATOM_COUNT>  (1) 
27

>  <PUBCHEM_ATOM_DEF_STEREO_COUNT>  (1) 
6

>  <PUBCHEM_ATOM_UDEF_STEREO_COUNT>  (1) 
0

>  <PUBCHEM_BOND_DEF_STEREO_COUNT>  (1) 
0

>  <PUBCHEM_BOND_UDEF_STEREO_COUNT>  (1) 
1

>  <PUBCHEM_ISOTOPIC_ATOM_COUNT>  (1) 
0

>  <PUBCHEM_COMPONENT_COUNT>  (1) 
1

>  <PUBCHEM_CACTVS_TAUTO_COUNT>  (1) 
2

>  <PUBCHEM_CONFORMER_ID>  (1) 
000090DB00000001

>  <PUBCHEM_MMFF94_ENERGY>  (1) 
91.1446

>  <PUBCHEM_FEATURE_SELFOVERLAP>  (1) 
45.782

>  <PUBCHEM_SHAPE_FINGERPRINT>  (1) 
10076449 9 17531546359495579483
10366900 7 17821730524416999528
10498660 4 16515398565208047964
10670039 82 17530964627840070420
11796584 16 16486977353413071718
12011746 2 18040154015311881664
12166972 35 17988926686321570368
12236239 1 17917433159360791169
12403259 415 17531236284231482661
12553582 1 18337658776665885842
12633257 1 12751227134540738020
13224815 77 17603865619910051936
13533116 47 18060137686776823728
14294032 229 16986618381154350673
14739800 52 12901539174661978948
14955137 171 18271529818487553577
15575132 122 13840251581967633207
15840311 113 18410575128752930101
17349148 13 17704075105048666792
1813 80 18130240276453169396
18222031 100 18343299250189693682
18608769 82 17822860908243513787
19784866 240 17989772193519838452
200 152 18272087214742514169
20645477 70 18335699481590043328
21033648 29 16733244820914586477
21267235 1 18409735057805857857
21279426 13 18261101959804955629
21792961 116 17603596192965537722
221357 26 18407758127641744748
2215653 11 18260263062170107589
22393880 68 18261947454107974172
23522609 53 18126317261229856456
23557571 272 14548753810261844529
23559900 14 17676772062457166648
23569914 152 17402302912014468047
23569943 247 18198627622962773898
3472631 163 13118292481619430810
34797466 226 14923948924772910534
350125 39 18334011662448415221
46194498 28 18040999570504468852
463206 1 17988353875339651662
465052 167 18272656770186675806
5104073 3 18336254670195079553
59755656 215 17821730550176611123
9709674 26 18260545679534623352

>  <PUBCHEM_SHAPE_MULTIPOLES>  (1) 
533.06
13.19
2.09
1.77
4.57
0.93
-0.15
-5.3
-4.06
1.5
-0.09
-1.57
-0.79
0.66

>  <PUBCHEM_SHAPE_SELFOVERLAP>  (1) 
1140.678

>  <PUBCHEM_SHAPE_VOLUME>  (1) 
291.5

>  <PUBCHEM_COORDINATE_TYPE>  (1) 
2
5
10

$$$$
