37097
     RDKit          3D

 10 10  0  0  0  0  0  0  0  0999 V2000
   -2.8005   -1.0223    0.0892 O   0  0  0  0  0  0  0  0  0  0  0  0
    2.5082    0.6137   -0.1969 N   0  0  0  0  0  0  0  0  0  0  0  0
   -1.1886    0.7502    0.0133 C   0  0  0  0  0  0  0  0  0  0  0  0
    1.1609    0.2036   -0.1217 C   0  0  0  0  0  0  0  0  0  0  0  0
    0.1441    1.1562   -0.0567 C   0  0  0  0  0  0  0  0  0  0  0  0
   -1.5044   -0.6084    0.0181 C   0  0  0  0  0  0  0  0  0  0  0  0
    0.8451   -1.1550   -0.1168 C   0  0  0  0  0  0  0  0  0  0  0  0
   -0.4876   -1.5610   -0.0470 C   0  0  0  0  0  0  0  0  0  0  0  0
   -2.2641    1.7835    0.0836 C   0  0  0  0  0  0  0  0  0  0  0  0
    3.5868   -0.1605    0.3349 C   0  0  0  0  0  0  0  0  0  0  0  0
  1  6  1  0
  2  4  1  0
  2 10  1  0
  3  5  2  0
  3  6  1  0
  3  9  1  0
  4  5  1  0
  4  7  2  0
  6  8  2  0
  7  8  1  0
M  END
>  <PUBCHEM_COMPOUND_CID>  (1) 
37097

>  <PUBCHEM_CONFORMER_RMSD>  (1) 
0.4

>  <PUBCHEM_CONFORMER_DIVERSEORDER>  (1) 
2
1
3

>  <PUBCHEM_MMFF94_PARTIAL_CHARGES>  (1) 
15
1 -0.53
10 0.37
11 0.15
12 0.15
13 0.15
17 0.4
2 -0.87
21 0.45
3 -0.14
4 0.1
5 -0.15
6 0.08
7 -0.15
8 -0.15
9 0.14

>  <PUBCHEM_EFFECTIVE_ROTOR_COUNT>  (1) 
1

>  <PUBCHEM_PHARMACOPHORE_FEATURES>  (1) 
4
1 1 donor
1 2 cation
1 2 donor
6 3 4 5 6 7 8 rings

>  <PUBCHEM_HEAVY_ATOM_COUNT>  (1) 
10

>  <PUBCHEM_ATOM_DEF_STEREO_COUNT>  (1) 
0

>  <PUBCHEM_ATOM_UDEF_STEREO_COUNT>  (1) 
0

>  <PUBCHEM_BOND_DEF_STEREO_COUNT>  (1) 
0

>  <PUBCHEM_BOND_UDEF_STEREO_COUNT>  (1) 
0

>  <PUBCHEM_ISOTOPIC_ATOM_COUNT>  (1) 
0

>  <PUBCHEM_COMPONENT_COUNT>  (1) 
1

>  <PUBCHEM_CACTVS_TAUTO_COUNT>  (1) 
3

>  <PUBCHEM_CONFORMER_ID>  (1) 
000090E900000002

>  <PUBCHEM_MMFF94_ENERGY>  (1) 
34.9369

>  <PUBCHEM_FEATURE_SELFOVERLAP>  (1) 
20.297

>  <PUBCHEM_SHAPE_FINGERPRINT>  (1) 
10857977 72 18341042012393549672
12932764 1 17489582394404187910
13024252 1 13623522454868590709
13380535 76 18338794486251691311
14325111 11 18410855443423176196
14897335 6 18267016159572171541
16945 1 18339647844434341063
193761 8 18050568443643087263
20645464 45 17988924461881509508
20871998 184 18200879585688992279
21040471 1 18338803290660464949
23235685 24 18339636724769474761
23402539 116 18270668861732648327
23402655 69 18196917900304581165
23552423 10 18260835851962507054
2748010 2 18267875986091535823
369184 2 17988921197606150826
5084963 1 18201442518551857728
53812653 166 18272366434402497496
6333449 129 18341890770919497693

>  <PUBCHEM_SHAPE_MULTIPOLES>  (1) 
194.94
4.23
1.68
0.62
2.68
0.03
0
-0.51
-0.41
-0.98
0.01
0.05
-0.01
-0.03

>  <PUBCHEM_SHAPE_SELFOVERLAP>  (1) 
400.285

>  <PUBCHEM_SHAPE_VOLUME>  (1) 
113.9

>  <PUBCHEM_COORDINATE_TYPE>  (1) 
2
5
10

$$$$
