37099
     RDKit          3D

 22 26  0  0  0  0  0  0  0  0999 V2000
    0.1829   -0.7048    0.0024 C   0  0  0  0  0  0  0  0  0  0  0  0
    0.1829    0.7048    0.0032 C   0  0  0  0  0  0  0  0  0  0  0  0
    1.4908   -1.4803    0.0043 C   0  0  0  0  0  0  0  0  0  0  0  0
    1.4908    1.4804    0.0068 C   0  0  0  0  0  0  0  0  0  0  0  0
   -1.0474   -1.4245    0.0010 C   0  0  0  0  0  0  0  0  0  0  0  0
   -1.0474    1.4245    0.0018 C   0  0  0  0  0  0  0  0  0  0  0  0
    2.7698   -0.6964    0.0008 C   0  0  0  0  0  0  0  0  0  0  0  0
    2.7699    0.6963    0.0016 C   0  0  0  0  0  0  0  0  0  0  0  0
   -2.2796   -0.7179   -0.0013 C   0  0  0  0  0  0  0  0  0  0  0  0
   -2.2796    0.7179   -0.0015 C   0  0  0  0  0  0  0  0  0  0  0  0
   -1.0856   -2.8439    0.0019 C   0  0  0  0  0  0  0  0  0  0  0  0
   -1.0857    2.8439    0.0035 C   0  0  0  0  0  0  0  0  0  0  0  0
    3.9934   -1.3869   -0.0023 C   0  0  0  0  0  0  0  0  0  0  0  0
    3.9935    1.3870   -0.0010 C   0  0  0  0  0  0  0  0  0  0  0  0
   -3.4742   -1.4898   -0.0024 C   0  0  0  0  0  0  0  0  0  0  0  0
   -3.4743    1.4899   -0.0051 C   0  0  0  0  0  0  0  0  0  0  0  0
    5.2037   -0.6951   -0.0051 C   0  0  0  0  0  0  0  0  0  0  0  0
    5.2037    0.6951   -0.0046 C   0  0  0  0  0  0  0  0  0  0  0  0
   -2.2771   -3.5644    0.0009 C   0  0  0  0  0  0  0  0  0  0  0  0
   -2.2772    3.5643    0.0008 C   0  0  0  0  0  0  0  0  0  0  0  0
   -3.4766   -2.8843   -0.0014 C   0  0  0  0  0  0  0  0  0  0  0  0
   -3.4767    2.8843   -0.0042 C   0  0  0  0  0  0  0  0  0  0  0  0
  1  2  2  0
  1  3  1  0
  1  5  1  0
  2  4  1  0
  2  6  1  0
  3  7  1  0
  4  8  1  0
  5  9  2  0
  5 11  1  0
  6 10  2  0
  6 12  1  0
  7  8  2  0
  7 13  1  0
  8 14  1  0
  9 10  1  0
  9 15  1  0
 10 16  1  0
 11 19  2  0
 12 20  2  0
 13 17  2  0
 14 18  2  0
 15 21  2  0
 16 22  2  0
 17 18  1  0
 19 21  1  0
 20 22  1  0
M  END
>  <PUBCHEM_COMPOUND_CID>  (1) 
37099

>  <PUBCHEM_CONFORMER_RMSD>  (1) 
0.6

>  <PUBCHEM_CONFORMER_DIVERSEORDER>  (1) 
1

>  <PUBCHEM_MMFF94_PARTIAL_CHARGES>  (1) 
30
1 -0.14
11 -0.15
12 -0.15
13 -0.15
14 -0.15
15 -0.15
16 -0.15
17 -0.15
18 -0.15
19 -0.15
2 -0.14
20 -0.15
21 -0.15
22 -0.15
27 0.15
28 0.15
29 0.15
3 0.29
30 0.15
31 0.15
32 0.15
33 0.15
34 0.15
35 0.15
36 0.15
37 0.15
38 0.15
4 0.29
7 -0.14
8 -0.14

>  <PUBCHEM_EFFECTIVE_ROTOR_COUNT>  (1) 
0.4

>  <PUBCHEM_PHARMACOPHORE_FEATURES>  (1) 
5
6 1 2 3 4 7 8 rings
6 1 2 5 6 9 10 rings
6 5 9 11 15 19 21 rings
6 6 10 12 16 20 22 rings
6 7 8 13 14 17 18 rings

>  <PUBCHEM_HEAVY_ATOM_COUNT>  (1) 
22

>  <PUBCHEM_ATOM_DEF_STEREO_COUNT>  (1) 
0

>  <PUBCHEM_ATOM_UDEF_STEREO_COUNT>  (1) 
0

>  <PUBCHEM_BOND_DEF_STEREO_COUNT>  (1) 
0

>  <PUBCHEM_BOND_UDEF_STEREO_COUNT>  (1) 
0

>  <PUBCHEM_ISOTOPIC_ATOM_COUNT>  (1) 
0

>  <PUBCHEM_COMPONENT_COUNT>  (1) 
1

>  <PUBCHEM_CACTVS_TAUTO_COUNT>  (1) 
1

>  <PUBCHEM_CONFORMER_ID>  (1) 
000090EB00000001

>  <PUBCHEM_MMFF94_ENERGY>  (1) 
79.7048

>  <PUBCHEM_FEATURE_SELFOVERLAP>  (1) 
25.453

>  <PUBCHEM_SHAPE_FINGERPRINT>  (1) 
10050765 1 18410575085855172866
10319926 262 18269535218875341426
10411042 1 18050287260735345315
10493431 412 18269000786972346225
10616163 171 18411420622438445390
10670039 82 18190755322314821868
10967382 1 17906170650950545507
1100329 8 17832983850008389354
11045515 52 18043805601229163479
11370993 70 18194679272211197164
11578080 2 17202183300144813851
12107183 9 17974560304901788178
12173636 292 18338514123476630685
12390115 104 18127990614990047497
12403259 226 18199183065264953584
12553582 1 18050289459810776739
12788726 201 18261949751509224706
13004483 165 18267857466240333287
13140716 1 18267311004860994793
133893 2 15865781918145346620
13583140 156 17774992519093897040
138480 1 16537358788579014115
14178342 30 18336529582930571298
14508225 48 18196359532637672197
14790565 3 18124040022551613305
14866123 147 18338234864798224051
15042514 8 18409454717222843835
15196674 1 18410573990100487686
15230672 131 18048042870600225622
16087824 20 18410293619605637949
16752209 62 18339067237949617147
17492 89 18409730664667101266
19591789 44 17977950085795106607
19930381 70 17545598319455746801
20510252 161 18342459235695193513
20775438 99 16544909706643907247
21033648 29 18195797488627990552
21049683 271 17395020193826848943
21065198 57 18411136910057709720
21133410 171 17474047424676331114
21236236 1 18413670214190248670
21267235 1 18265623245712083258
21307412 95 17626968382698944398
21478907 32 18266457783975347643
22182313 1 17917164822757910102
23227448 37 18411699850888758620
2334 1 18410855495073397635
23402539 116 18271239529958792703
23557571 272 18271815639617688108
23558518 356 18261117369930978298
23559900 14 18199749134008443694
23845131 108 17977961077302811137
25147074 1 18040434391842444906
3091708 16 9201685819707486657
335352 9 18194401083469835838
350125 39 18411141333637018193
352729 6 18339924788542151811
4214541 1 18410855452071094084
484989 97 18262510533654161223
5104073 3 18412541012176203850
5309563 4 17905613550674984186
532947 4 17620194226365137639
7097593 13 17827058637970874210
7164475 11 18337113483502470708
7364860 26 17329710916886700045
9709674 26 18343024354902699846
9981440 41 18048878498782714249

>  <PUBCHEM_SHAPE_MULTIPOLES>  (1) 
452.75
8.78
4.2
0.62
10.83
0
0
0
0.02
-5.7
0
0
0
0

>  <PUBCHEM_SHAPE_SELFOVERLAP>  (1) 
1037.564

>  <PUBCHEM_SHAPE_VOLUME>  (1) 
216.1

>  <PUBCHEM_COORDINATE_TYPE>  (1) 
2
5
10

$$$$
