37102
     RDKit          3D

 19 20  0  0  0  0  0  0  0  0999 V2000
   -2.2760    2.6254    0.5992 O   0  0  0  0  0  0  0  0  0  0  0  0
    5.0035   -0.0173   -0.1849 N   0  0  0  0  0  0  0  0  0  0  0  0
   -0.5348   -0.2330    0.6030 N   0  0  0  0  0  0  0  0  0  0  0  0
   -1.1139   -0.4141   -0.4931 N   0  0  0  0  0  0  0  0  0  0  0  0
    3.6088   -0.0718    0.0153 C   0  0  0  0  0  0  0  0  0  0  0  0
    2.8494    1.0966   -0.0468 C   0  0  0  0  0  0  0  0  0  0  0  0
    2.9882   -1.2939    0.2736 C   0  0  0  0  0  0  0  0  0  0  0  0
   -3.2745    0.6901   -0.3567 C   0  0  0  0  0  0  0  0  0  0  0  0
    0.8559   -0.1790    0.4066 C   0  0  0  0  0  0  0  0  0  0  0  0
   -2.4994   -0.4680   -0.2971 C   0  0  0  0  0  0  0  0  0  0  0  0
    1.4695    1.0429    0.1494 C   0  0  0  0  0  0  0  0  0  0  0  0
    1.6082   -1.3477    0.4697 C   0  0  0  0  0  0  0  0  0  0  0  0
    5.7518    1.1694    0.1796 C   0  0  0  0  0  0  0  0  0  0  0  0
    5.7098   -1.1527   -0.7448 C   0  0  0  0  0  0  0  0  0  0  0  0
   -4.6533    0.6174   -0.1589 C   0  0  0  0  0  0  0  0  0  0  0  0
   -2.6511    2.0195   -0.6308 C   0  0  0  0  0  0  0  0  0  0  0  0
   -3.1031   -1.6988   -0.0397 C   0  0  0  0  0  0  0  0  0  0  0  0
   -5.2571   -0.6135    0.0984 C   0  0  0  0  0  0  0  0  0  0  0  0
   -4.4820   -1.7716    0.1580 C   0  0  0  0  0  0  0  0  0  0  0  0
  1 16  1  0
  2  5  1  0
  2 13  1  0
  2 14  1  0
  3  4  2  0
  3  9  1  0
  4 10  1  0
  5  6  2  0
  5  7  1  0
  6 11  1  0
  7 12  2  0
  8 10  2  0
  8 15  1  0
  8 16  1  0
  9 11  2  0
  9 12  1  0
 10 17  1  0
 15 18  2  0
 17 19  2  0
 18 19  1  0
M  END
>  <PUBCHEM_COMPOUND_CID>  (1) 
37102

>  <PUBCHEM_CONFORMER_RMSD>  (1) 
0.6

>  <PUBCHEM_CONFORMER_DIVERSEORDER>  (1) 
2
8
10
4
11
12
9
3
7
6
5
1

>  <PUBCHEM_MMFF94_PARTIAL_CHARGES>  (1) 
28
1 -0.68
10 0.18
11 -0.15
12 -0.15
13 0.37
14 0.37
15 -0.15
16 0.42
17 -0.15
18 -0.15
19 -0.15
2 -0.84
20 0.15
21 0.15
22 0.15
23 0.15
3 -0.18
30 0.15
33 0.15
34 0.15
35 0.15
36 0.4
4 -0.18
5 0.1
6 -0.15
7 -0.15
8 -0.14
9 0.18

>  <PUBCHEM_EFFECTIVE_ROTOR_COUNT>  (1) 
4

>  <PUBCHEM_PHARMACOPHORE_FEATURES>  (1) 
5
1 1 acceptor
1 1 donor
1 2 cation
6 5 6 7 9 11 12 rings
6 8 10 15 17 18 19 rings

>  <PUBCHEM_HEAVY_ATOM_COUNT>  (1) 
19

>  <PUBCHEM_ATOM_DEF_STEREO_COUNT>  (1) 
0

>  <PUBCHEM_ATOM_UDEF_STEREO_COUNT>  (1) 
0

>  <PUBCHEM_BOND_DEF_STEREO_COUNT>  (1) 
0

>  <PUBCHEM_BOND_UDEF_STEREO_COUNT>  (1) 
0

>  <PUBCHEM_ISOTOPIC_ATOM_COUNT>  (1) 
0

>  <PUBCHEM_COMPONENT_COUNT>  (1) 
1

>  <PUBCHEM_CACTVS_TAUTO_COUNT>  (1) 
1

>  <PUBCHEM_CONFORMER_ID>  (1) 
000090EE00000002

>  <PUBCHEM_MMFF94_ENERGY>  (1) 
66.2653

>  <PUBCHEM_FEATURE_SELFOVERLAP>  (1) 
25.371

>  <PUBCHEM_SHAPE_FINGERPRINT>  (1) 
10595046 47 18334575754751945198
10616163 171 18410292527814214687
11287383 113 18411419540206686146
12107183 9 17615119993040075594
12236239 1 18060422421369694866
12916748 109 18408605868402472392
13167823 11 18335135367442262450
13288520 33 18411983572534090127
13897977 58 18408603647999390869
14341114 176 18409171008330278814
15196674 1 18409165481018696052
15788980 27 17060336323126760222
17834072 33 18334576849920990086
17844677 252 18412551998555047940
200 152 18201720669239803067
20279233 1 11025795362484060665
20300324 65 18408886239345903561
20645477 70 17988932133110306294
21033648 29 17274523361344415936
21033650 10 17898877672413293628
21267235 1 18335708273525261315
221357 26 18341891891837442116
2297311 6 18412552015597663287
23402539 116 18334571373684836919
23402655 69 18261669285875922397
23557571 272 18341899571318023981
23559900 14 18338507642624324777
34797466 226 17775012327562635892
3545911 37 18335419058626839829
4214541 1 18409729530251636621
4990 188 18341618096937470710
5104073 3 18337105674866766352
542803 24 17275387607501178002
59755656 215 18410294683455092535
59755656 520 16587743135965198763
77779 3 18408884036011843407
9709674 26 18408889525091395699

>  <PUBCHEM_SHAPE_MULTIPOLES>  (1) 
370.2
13.28
2
0.74
7.59
0.62
-0.02
-1.41
-1.27
-1.23
0.08
0.09
0.01
0.38

>  <PUBCHEM_SHAPE_SELFOVERLAP>  (1) 
784.447

>  <PUBCHEM_SHAPE_VOLUME>  (1) 
208.8

>  <PUBCHEM_COORDINATE_TYPE>  (1) 
2
5
10

$$$$
