37108
     RDKit          3D

 18 20  0  0  0  0  0  0  0  0999 V2000
    1.8193   -1.0424    0.0072 O   0  0  0  0  0  0  0  0  0  0  0  0
    0.1130    2.6382   -0.1100 O   0  0  0  0  0  0  0  0  0  0  0  0
    3.9332   -0.0959   -0.0432 N   0  0  0  0  0  0  0  0  0  0  0  0
   -0.2531    0.2682   -0.0200 C   0  0  0  0  0  0  0  0  0  0  0  0
   -1.6864    0.2710   -0.0069 C   0  0  0  0  0  0  0  0  0  0  0  0
    0.4503   -0.9433    0.0159 C   0  0  0  0  0  0  0  0  0  0  0  0
   -2.3519   -0.9858    0.0421 C   0  0  0  0  0  0  0  0  0  0  0  0
    0.5726    1.5060   -0.0714 C   0  0  0  0  0  0  0  0  0  0  0  0
    2.5830    0.1096   -0.0392 C   0  0  0  0  0  0  0  0  0  0  0  0
   -0.2277   -2.1576    0.0644 C   0  0  0  0  0  0  0  0  0  0  0  0
   -1.6160   -2.1764    0.0769 C   0  0  0  0  0  0  0  0  0  0  0  0
    2.0383    1.3324   -0.0773 C   0  0  0  0  0  0  0  0  0  0  0  0
   -2.5213    1.4197   -0.0382 C   0  0  0  0  0  0  0  0  0  0  0  0
   -3.7553   -1.0571    0.0568 C   0  0  0  0  0  0  0  0  0  0  0  0
   -3.9170    1.3326   -0.0227 C   0  0  0  0  0  0  0  0  0  0  0  0
   -4.5345    0.0940    0.0245 C   0  0  0  0  0  0  0  0  0  0  0  0
    4.8501    0.8759    0.5374 C   0  0  0  0  0  0  0  0  0  0  0  0
    4.5035   -1.3890   -0.3962 C   0  0  0  0  0  0  0  0  0  0  0  0
  1  6  1  0
  1  9  1  0
  2  8  2  0
  3  9  1  0
  3 17  1  0
  3 18  1  0
  4  5  1  0
  4  6  2  0
  4  8  1  0
  5  7  2  0
  5 13  1  0
  6 10  1  0
  7 11  1  0
  7 14  1  0
  8 12  1  0
  9 12  2  0
 10 11  2  0
 13 15  2  0
 14 16  2  0
 15 16  1  0
M  END
>  <PUBCHEM_COMPOUND_CID>  (1) 
37108

>  <PUBCHEM_CONFORMER_RMSD>  (1) 
0.6

>  <PUBCHEM_CONFORMER_DIVERSEORDER>  (1) 
1

>  <PUBCHEM_MMFF94_PARTIAL_CHARGES>  (1) 
23
1 -0.16
10 -0.15
11 -0.15
12 -0.14
13 -0.15
14 -0.15
15 -0.15
16 -0.15
17 0.37
18 0.37
19 0.15
2 -0.57
20 0.15
21 0.15
22 0.15
23 0.15
24 0.15
25 0.15
3 -0.84
4 0.09
6 0.08
8 0.47
9 0.18

>  <PUBCHEM_EFFECTIVE_ROTOR_COUNT>  (1) 
1

>  <PUBCHEM_PHARMACOPHORE_FEATURES>  (1) 
6
1 1 acceptor
1 2 acceptor
1 3 cation
6 1 4 6 8 9 12 rings
6 4 5 6 7 10 11 rings
6 5 7 13 14 15 16 rings

>  <PUBCHEM_HEAVY_ATOM_COUNT>  (1) 
18

>  <PUBCHEM_ATOM_DEF_STEREO_COUNT>  (1) 
0

>  <PUBCHEM_ATOM_UDEF_STEREO_COUNT>  (1) 
0

>  <PUBCHEM_BOND_DEF_STEREO_COUNT>  (1) 
0

>  <PUBCHEM_BOND_UDEF_STEREO_COUNT>  (1) 
0

>  <PUBCHEM_ISOTOPIC_ATOM_COUNT>  (1) 
0

>  <PUBCHEM_COMPONENT_COUNT>  (1) 
1

>  <PUBCHEM_CACTVS_TAUTO_COUNT>  (1) 
1

>  <PUBCHEM_CONFORMER_ID>  (1) 
000090F400000001

>  <PUBCHEM_MMFF94_ENERGY>  (1) 
64.7882

>  <PUBCHEM_FEATURE_SELFOVERLAP>  (1) 
30.496

>  <PUBCHEM_SHAPE_FINGERPRINT>  (1) 
10062212 137 18410567392530002859
10411042 1 17761493990501859899
10608611 8 18340484585652247193
10967382 1 18410012100598001479
11132069 177 18409728460736084656
11401426 45 18412541028633424581
11458722 379 18336831900713935342
11578080 2 16842750823100937091
11680986 33 18193838377770374513
12011746 2 18335416851166630823
12032990 46 18410579487168185086
12236239 1 17676205780241788498
12403259 226 18339639074738863553
12403814 3 17458059369838915141
13132413 78 18411418405945137925
13140716 1 18121789580268574147
13221675 6 18408322202628625779
13380535 76 18410857659568525567
13544592 145 18272378534026977310
13675066 3 18411420643686266178
13862211 1 18410006615698235979
14115302 16 18187093866303308540
14790565 3 18338244760239629232
15042514 8 18265057019252678603
15099037 51 18409166614805601391
15196674 1 18410856559645070830
15209294 21 17917162602206862577
15375358 24 18272370884399903686
15442244 35 18338236075825533236
15536298 74 18342738516159834930
15848702 151 17631178489260495366
16945 1 18266180724056036831
17804303 29 18410859888297602733
1813 80 17312821572296907700
18522853 276 18412826901793984889
19591789 44 18409729534467807387
200 152 17989483039774462511
20510252 161 18271806783068505032
20645477 70 17489314049359117382
21029758 11 18343015610127816769
21029758 27 18114472235579991477
21267235 1 18410020939756877627
21279426 13 18195528086734705270
21501502 16 18121221145145907037
221490 88 18191594261679529547
2334 1 18337953381505514795
23366157 5 17753043092770163316
23402539 116 18343575244165798375
23463225 33 18335420157800876924
23558518 356 17755299315956499779
23559900 14 18342738508144815820
2748010 2 18338804386288634159
3004659 81 18261399893681868006
335352 9 18338235968424925517
34934 24 18410849997536624186
350125 39 18337677516009423793
43471831 8 18261952925564090962
474 4 16734680899407606836
5104073 3 18411138034679869674
53812653 166 18412542106796855585
54173680 148 18192152826682747427
69090 78 18272085023934737575
7364860 26 18124878116646807048
8809292 202 18260833751712872067
9709674 26 18340492269491424454
9981440 41 17110721722363850177

>  <PUBCHEM_SHAPE_MULTIPOLES>  (1) 
353.71
8.55
2.28
0.63
4.18
0.01
-0.01
-0.26
-0.25
-0.33
0.04
0.09
0.01
0.31

>  <PUBCHEM_SHAPE_SELFOVERLAP>  (1) 
783.504

>  <PUBCHEM_SHAPE_VOLUME>  (1) 
190.8

>  <PUBCHEM_COORDINATE_TYPE>  (1) 
2
5
10

$$$$
