37101
     RDKit          3D

 22 27  0  0  0  0  0  0  0  0999 V2000
   -0.7075    1.5618    0.0064 C   0  0  0  0  0  0  0  0  0  0  0  0
    0.7077    1.5617   -0.0066 C   0  0  0  0  0  0  0  0  0  0  0  0
   -1.4217    0.3395   -0.0325 C   0  0  0  0  0  0  0  0  0  0  0  0
    1.4218    0.3392    0.0324 C   0  0  0  0  0  0  0  0  0  0  0  0
   -0.7081   -0.8829   -0.0231 C   0  0  0  0  0  0  0  0  0  0  0  0
    0.7079   -0.8830    0.0228 C   0  0  0  0  0  0  0  0  0  0  0  0
   -1.4821    2.8676    0.0102 C   0  0  0  0  0  0  0  0  0  0  0  0
    1.4824    2.8675   -0.0104 C   0  0  0  0  0  0  0  0  0  0  0  0
   -2.8351    0.3023   -0.0826 C   0  0  0  0  0  0  0  0  0  0  0  0
    2.8351    0.3020    0.0826 C   0  0  0  0  0  0  0  0  0  0  0  0
   -2.8900    2.7050    0.5773 C   0  0  0  0  0  0  0  0  0  0  0  0
    2.8906    2.7047   -0.5770 C   0  0  0  0  0  0  0  0  0  0  0  0
   -3.6346    1.5810   -0.1293 C   0  0  0  0  0  0  0  0  0  0  0  0
    3.6348    1.5804    0.1296 C   0  0  0  0  0  0  0  0  0  0  0  0
   -1.4083   -2.1150   -0.0566 C   0  0  0  0  0  0  0  0  0  0  0  0
    1.4079   -2.1152    0.0566 C   0  0  0  0  0  0  0  0  0  0  0  0
   -3.5123   -0.9209   -0.1391 C   0  0  0  0  0  0  0  0  0  0  0  0
    3.5122   -0.9213    0.1391 C   0  0  0  0  0  0  0  0  0  0  0  0
   -2.8055   -2.1181   -0.1181 C   0  0  0  0  0  0  0  0  0  0  0  0
    2.8052   -2.1184    0.1183 C   0  0  0  0  0  0  0  0  0  0  0  0
   -0.6959   -3.3189   -0.0301 C   0  0  0  0  0  0  0  0  0  0  0  0
    0.6955   -3.3190    0.0302 C   0  0  0  0  0  0  0  0  0  0  0  0
  1  2  2  0
  1  3  1  0
  1  7  1  0
  2  4  1  0
  2  8  1  0
  3  5  1  0
  3  9  2  0
  4  6  1  0
  4 10  2  0
  5  6  2  0
  5 15  1  0
  6 16  1  0
  7 11  1  0
  8 12  1  0
  9 13  1  0
  9 17  1  0
 10 14  1  0
 10 18  1  0
 11 13  1  0
 12 14  1  0
 15 19  1  0
 15 21  2  0
 16 20  1  0
 16 22  2  0
 17 19  2  0
 18 20  2  0
 21 22  1  0
M  END
>  <PUBCHEM_COMPOUND_CID>  (1) 
37101

>  <PUBCHEM_CONFORMER_RMSD>  (1) 
0.6

>  <PUBCHEM_CONFORMER_DIVERSEORDER>  (1) 
1

>  <PUBCHEM_MMFF94_PARTIAL_CHARGES>  (1) 
20
1 -0.14
10 -0.14
13 0.14
14 0.14
17 -0.15
18 -0.15
19 -0.15
2 -0.14
20 -0.15
21 -0.15
22 -0.15
35 0.15
36 0.15
37 0.15
38 0.15
39 0.15
40 0.15
7 0.14
8 0.14
9 -0.14

>  <PUBCHEM_EFFECTIVE_ROTOR_COUNT>  (1) 
1.2

>  <PUBCHEM_PHARMACOPHORE_FEATURES>  (1) 
6
6 1 2 3 4 5 6 rings
6 1 3 7 9 11 13 rings
6 2 4 8 10 12 14 rings
6 3 5 9 15 17 19 rings
6 4 6 10 16 18 20 rings
6 5 6 15 16 21 22 rings

>  <PUBCHEM_HEAVY_ATOM_COUNT>  (1) 
22

>  <PUBCHEM_ATOM_DEF_STEREO_COUNT>  (1) 
0

>  <PUBCHEM_ATOM_UDEF_STEREO_COUNT>  (1) 
0

>  <PUBCHEM_BOND_DEF_STEREO_COUNT>  (1) 
0

>  <PUBCHEM_BOND_UDEF_STEREO_COUNT>  (1) 
0

>  <PUBCHEM_ISOTOPIC_ATOM_COUNT>  (1) 
0

>  <PUBCHEM_COMPONENT_COUNT>  (1) 
1

>  <PUBCHEM_CACTVS_TAUTO_COUNT>  (1) 
1

>  <PUBCHEM_CONFORMER_ID>  (1) 
000090ED00000001

>  <PUBCHEM_MMFF94_ENERGY>  (1) 
66.5127

>  <PUBCHEM_FEATURE_SELFOVERLAP>  (1) 
30.667

>  <PUBCHEM_SHAPE_FINGERPRINT>  (1) 
10319926 262 17911217728210960904
10411042 1 17113537009840313407
10616163 171 18338801216238603796
10967382 1 18122343746449372303
1100329 8 18267023855894882392
12403260 363 18338785775757776326
12553582 1 17690560105725580003
13140716 1 18266735784085788602
13583140 156 17168701921486475417
138480 1 17762056532163570115
14178342 30 18267570334844052064
14223421 5 18410577309477237257
14790565 3 18338533983300555012
15196674 1 18410854364911520807
15442244 35 18410290285698205330
16945 1 18410576188469686982
193761 8 18410575084663098405
19591789 44 18410859862469685668
20510252 161 18270685393009003529
20739085 24 18190769538239430481
20775438 99 15683045507723604623
20905425 154 18270406125539754110
21197605 99 18339096917238944659
21267235 1 18410581686028345538
2334 1 18122342642695427311
23558518 356 18334297586583418211
23559900 14 18343018896379100380
238 59 17394407392140641733
2748010 2 15673508726067935991
335352 9 18266458702633800966
350125 39 18409735062079719609
352729 6 18411700976185754289
7364860 26 18195808470626230944
7832392 63 18195807353897940667
9709674 26 18412547608676712310

>  <PUBCHEM_SHAPE_MULTIPOLES>  (1) 
452.75
5.84
4.46
0.65
0
0.53
0
-1.76
0
0
0
0
-0.08
-0.47

>  <PUBCHEM_SHAPE_SELFOVERLAP>  (1) 
1062.203

>  <PUBCHEM_SHAPE_VOLUME>  (1) 
208.8

>  <PUBCHEM_COORDINATE_TYPE>  (1) 
2
5
10

$$$$
