37118
     RDKit          3D

 15 15  0  0  0  0  0  0  0  0999 V2000
    0.7281   -2.0557    0.9228 O   0  0  0  0  0  0  0  0  0  0  0  0
   -4.3500    2.1731   -0.0779 O   0  0  0  0  0  0  0  0  0  0  0  0
   -4.6917    0.2725    1.1155 O   0  0  0  0  0  0  0  0  0  0  0  0
   -0.1611   -0.9108   -0.8882 N   0  0  0  0  0  0  0  0  0  0  0  0
   -2.5134   -1.0798   -0.1501 C   0  0  0  0  0  0  0  0  0  0  0  0
   -1.3790   -1.6678   -0.9883 C   0  0  0  0  0  0  0  0  0  0  0  0
   -2.9259    0.3357   -0.5622 C   0  0  0  0  0  0  0  0  0  0  0  0
    0.8074   -1.1713    0.0743 C   0  0  0  0  0  0  0  0  0  0  0  0
    1.9974   -0.2820    0.0618 C   0  0  0  0  0  0  0  0  0  0  0  0
   -4.0784    0.8828    0.2509 C   0  0  0  0  0  0  0  0  0  0  0  0
    2.6915   -0.0820    1.2371 C   0  0  0  0  0  0  0  0  0  0  0  0
    2.3706    0.3148   -1.1245 C   0  0  0  0  0  0  0  0  0  0  0  0
    3.8090    0.7527    1.2256 C   0  0  0  0  0  0  0  0  0  0  0  0
    3.4882    1.1495   -1.1360 C   0  0  0  0  0  0  0  0  0  0  0  0
    4.2074    1.3683    0.0391 C   0  0  0  0  0  0  0  0  0  0  0  0
  1  8  2  0
  2 10  1  0
  3 10  2  0
  4  6  1  0
  4  8  1  0
  5  6  1  0
  5  7  1  0
  7 10  1  0
  8  9  1  0
  9 11  2  0
  9 12  1  0
 11 13  1  0
 12 14  2  0
 13 15  2  0
 14 15  1  0
M  END
>  <PUBCHEM_COMPOUND_CID>  (1) 
37118

>  <PUBCHEM_CONFORMER_RMSD>  (1) 
0.8

>  <PUBCHEM_CONFORMER_DIVERSEORDER>  (1) 
1
13
7
16
4
19
11
6
3
15
9
18
8
10
17
5
12
2
14

>  <PUBCHEM_MMFF94_PARTIAL_CHARGES>  (1) 
21
1 -0.57
10 0.66
11 -0.15
12 -0.15
13 -0.15
14 -0.15
15 -0.15
2 -0.65
22 0.37
23 0.15
24 0.15
25 0.15
26 0.15
27 0.15
28 0.5
3 -0.57
4 -0.73
6 0.3
7 0.06
8 0.54
9 0.09

>  <PUBCHEM_EFFECTIVE_ROTOR_COUNT>  (1) 
6

>  <PUBCHEM_PHARMACOPHORE_FEATURES>  (1) 
6
1 1 acceptor
1 2 acceptor
1 3 acceptor
1 4 donor
3 2 3 10 anion
6 9 11 12 13 14 15 rings

>  <PUBCHEM_HEAVY_ATOM_COUNT>  (1) 
15

>  <PUBCHEM_ATOM_DEF_STEREO_COUNT>  (1) 
0

>  <PUBCHEM_ATOM_UDEF_STEREO_COUNT>  (1) 
0

>  <PUBCHEM_BOND_DEF_STEREO_COUNT>  (1) 
0

>  <PUBCHEM_BOND_UDEF_STEREO_COUNT>  (1) 
0

>  <PUBCHEM_ISOTOPIC_ATOM_COUNT>  (1) 
0

>  <PUBCHEM_COMPONENT_COUNT>  (1) 
1

>  <PUBCHEM_CACTVS_TAUTO_COUNT>  (1) 
2

>  <PUBCHEM_CONFORMER_ID>  (1) 
000090FE00000001

>  <PUBCHEM_MMFF94_ENERGY>  (1) 
25.7998

>  <PUBCHEM_FEATURE_SELFOVERLAP>  (1) 
30.504

>  <PUBCHEM_SHAPE_FINGERPRINT>  (1) 
10465860 228 18334571313719000290
10498660 4 17917988361172325849
11046707 91 8358268050373397327
11543360 7 14620501350964127381
11552529 35 17097220655903434027
122479 349 18410292506228160211
12251169 10 16660362614356219362
12363563 72 11097860670515211237
12633257 1 16081091497463285457
14123255 52 18342174453741292773
14123260 362 18343584053502314317
1420 369 11314316040092347841
14251710 61 7853572430805424889
14252887 29 15068613882011520288
14341114 328 17386013879235280177
15342816 4 9871474235731409024
15775835 57 18412260648873374408
1741750 31 18201999949604620647
1798214 20 11024109832512314029
1798214 55 18343582928041710133
18186145 218 16629972139024581470
19107657 9 18261672666199729382
193927 3 10737285714668696705
20291156 8 9079111168052284245
20645477 56 17845658165317449607
20645477 70 15266797601627843382
20671657 53 10447923975554367987
21634736 98 10087339154088333428
22646028 28 8286202755654318909
22926399 65 18131067173099130560
231179 274 18131069333393833952
23402539 116 17774994731002203820
23402655 69 15482678995753673320
23403322 49 8718826488150679529
23557571 272 17345754242760404367
251288 83 14490479711248569826
3268164 11 17703215339049313591
38570 142 16879941731560557412
4028521 119 17632579357373934033
633830 44 18408039632788864838
7808743 9 18340207517565397652
9882013 296 16298393491124931223

>  <PUBCHEM_SHAPE_MULTIPOLES>  (1) 
286.1
9.56
1.82
1.24
6.01
0.06
0.06
-6.43
1.52
1.11
-0.04
-0.74
0.02
-0.54

>  <PUBCHEM_SHAPE_SELFOVERLAP>  (1) 
583.552

>  <PUBCHEM_SHAPE_VOLUME>  (1) 
164.8

>  <PUBCHEM_COORDINATE_TYPE>  (1) 
2
5
10

$$$$
