37115
     RDKit          3D

 19 20  0  0  0  0  0  0  0  0999 V2000
    1.4123    0.4298    0.4045 Si  0  0  0  0  0  4  0  0  0  0  0  0
   -0.3705   -2.1773    0.1572 Si  0  0  0  0  0  4  0  0  0  0  0  0
   -1.1906    2.1953    0.0808 Si  0  0  0  0  0  4  0  0  0  0  0  0
   -3.0044   -0.4091    0.0468 Si  0  0  0  0  0  4  0  0  0  0  0  0
    0.7794   -1.0869    0.6887 O   0  0  0  0  0  0  0  0  0  0  0  0
    0.2678    1.6144    0.6581 O   0  0  0  0  0  0  0  0  0  0  0  0
   -1.9004   -1.5868    0.4820 O   0  0  0  0  0  0  0  0  0  0  0  0
   -2.4081    1.1046    0.4324 O   0  0  0  0  0  0  0  0  0  0  0  0
    2.1976    0.5485   -1.3332 C   0  0  0  0  0  0  0  0  0  0  0  0
    2.9555    0.7115    1.5020 C   0  0  0  0  0  0  0  0  0  0  0  0
    3.5081   -0.2387   -1.4482 C   0  0  0  0  0  0  0  0  0  0  0  0
    4.1720   -0.0947    1.0317 C   0  0  0  0  0  0  0  0  0  0  0  0
    4.5712    0.1873   -0.4245 C   0  0  0  0  0  0  0  0  0  0  0  0
   -0.1615   -2.5284   -1.6785 C   0  0  0  0  0  0  0  0  0  0  0  0
   -0.1336   -3.8152    1.0616 C   0  0  0  0  0  0  0  0  0  0  0  0
   -1.5751    3.8441    0.9097 C   0  0  0  0  0  0  0  0  0  0  0  0
   -1.0917    2.5163   -1.7703 C   0  0  0  0  0  0  0  0  0  0  0  0
   -3.4124   -0.5190   -1.7863 C   0  0  0  0  0  0  0  0  0  0  0  0
   -4.6157   -0.6957    0.9855 C   0  0  0  0  0  0  0  0  0  0  0  0
  1  5  1  0
  1  6  1  0
  1  9  1  0
  1 10  1  0
  2  5  1  0
  2  7  1  0
  2 14  1  0
  2 15  1  0
  3  6  1  0
  3  8  1  0
  3 16  1  0
  3 17  1  0
  4  7  1  0
  4  8  1  0
  4 18  1  0
  4 19  1  0
  9 11  1  0
 10 12  1  0
 11 13  1  0
 12 13  1  0
M  END
>  <PUBCHEM_COMPOUND_CID>  (1) 
37115

>  <PUBCHEM_CONFORMER_RMSD>  (1) 
0.6

>  <PUBCHEM_CONFORMER_DIVERSEORDER>  (1) 
1
8
5
7
2
3
6
4

>  <PUBCHEM_MMFF94_PARTIAL_CHARGES>  (1) 
16
1 0.76
10 -0.08
14 -0.08
15 -0.08
16 -0.08
17 -0.08
18 -0.08
19 -0.08
2 0.76
3 0.76
4 0.76
5 -0.59
6 -0.59
7 -0.59
8 -0.59
9 -0.08

>  <PUBCHEM_EFFECTIVE_ROTOR_COUNT>  (1) 
2.4

>  <PUBCHEM_PHARMACOPHORE_FEATURES>  (1) 
1
6 1 9 10 11 12 13 rings

>  <PUBCHEM_HEAVY_ATOM_COUNT>  (1) 
19

>  <PUBCHEM_ATOM_DEF_STEREO_COUNT>  (1) 
0

>  <PUBCHEM_ATOM_UDEF_STEREO_COUNT>  (1) 
0

>  <PUBCHEM_BOND_DEF_STEREO_COUNT>  (1) 
0

>  <PUBCHEM_BOND_UDEF_STEREO_COUNT>  (1) 
0

>  <PUBCHEM_ISOTOPIC_ATOM_COUNT>  (1) 
0

>  <PUBCHEM_COMPONENT_COUNT>  (1) 
1

>  <PUBCHEM_CACTVS_TAUTO_COUNT>  (1) 
1

>  <PUBCHEM_CONFORMER_ID>  (1) 
000090FB00000001

>  <PUBCHEM_MMFF94_ENERGY>  (1) 
0.5725

>  <PUBCHEM_FEATURE_SELFOVERLAP>  (1) 
5.074

>  <PUBCHEM_SHAPE_FINGERPRINT>  (1) 
10006869 2 17982174418782150345
104564 63 18339365171568073097
12553582 1 18411701019209468745
12596599 1 17774432897529244335
12633257 1 18058998610004912104
12788726 201 18411991273231480568
13140716 1 18193837274153605810
13149001 5 17976803604616173303
13538477 17 17968939815971279394
14178342 30 18195246611769161096
14251745 187 18272379637279508878
14251751 93 18197219152877312574
14251757 17 17485665762156041558
14251757 5 18189907581252653150
14790565 3 18337687381286104465
14955137 171 18269009742137115195
15209289 33 18272939327394853145
15852999 172 17540215819275114457
16752209 62 18335405855675968728
16945 1 18334856129810664433
17357779 13 18342444980767491757
17980427 23 17190628223126902514
19591789 44 18266460910516536034
20028762 73 17983866850519278623
20510252 161 18342177747844539872
20600515 1 18269270338549975321
20645476 183 17749670800001725138
20905425 154 18198067971411561463
21285901 2 17987817266246031222
2334 1 17833263503649129090
23402539 116 18343579672303499583
23419403 2 16405285941598217297
23558518 356 18119536435829379867
23559900 14 18340210808343471348
2748010 2 18194679255120615457
3084891 72 18410012156274756250
350125 39 18121225268298810387
465052 167 17751658756523378283
469060 322 18264509350639591609
59755656 215 18269840826139430407
81228 2 18339920532261281712

>  <PUBCHEM_SHAPE_MULTIPOLES>  (1) 
440.39
6.86
3.88
1.68
3.31
0.08
-0.59
-0.02
0.21
-2.25
0.62
0.13
-0.03
0.07

>  <PUBCHEM_SHAPE_SELFOVERLAP>  (1) 
803.023

>  <PUBCHEM_SHAPE_VOLUME>  (1) 
278

>  <PUBCHEM_COORDINATE_TYPE>  (1) 
2
5
10

$$$$
