37119
     RDKit          3D

 15 16  0  0  1  0  0  0  0  0999 V2000
    2.8724    0.4637    1.0082 O   0  0  0  0  0  0  0  0  0  0  0  0
    0.9618   -0.7025    0.5583 N   0  0  0  0  0  0  0  0  0  0  0  0
    1.9109    0.8100   -1.0329 N   0  0  0  0  0  0  0  0  0  0  0  0
   -0.1668   -1.1615   -0.2621 C   0  0  0  0  0  0  0  0  0  0  0  0
   -0.4821   -2.6368    0.0594 C   0  0  0  0  0  0  0  0  0  0  0  0
   -1.3560   -0.2327   -0.0971 C   0  0  0  0  0  0  0  0  0  0  0  0
    1.8784    0.2007    0.1116 C   0  0  0  0  0  0  0  0  0  0  0  0
    0.7238   -3.5535   -0.1112 C   0  0  0  0  0  0  0  0  0  0  0  0
   -2.1870   -0.0079   -1.1779 C   0  0  0  0  0  0  0  0  0  0  0  0
   -1.5761    0.3640    1.1297 C   0  0  0  0  0  0  0  0  0  0  0  0
    3.8236    1.2276    0.2841 C   0  0  0  0  0  0  0  0  0  0  0  0
    3.0657    1.7066   -0.9287 C   0  0  0  0  0  0  0  0  0  0  0  0
   -3.2796    0.8459   -1.0262 C   0  0  0  0  0  0  0  0  0  0  0  0
   -2.6686    1.2178    1.2813 C   0  0  0  0  0  0  0  0  0  0  0  0
   -3.5205    1.4587    0.2035 C   0  0  0  0  0  0  0  0  0  0  0  0
  1  7  1  0
  1 11  1  0
  2  4  1  0
  2  7  1  0
  3  7  2  0
  3 12  1  0
  4  5  1  0
  4  6  1  0
  5  8  1  0
  6  9  2  0
  6 10  1  0
  9 13  1  0
 10 14  2  0
 11 12  1  0
 13 15  2  0
 14 15  1  0
M  END
>  <PUBCHEM_COMPOUND_CID>  (1) 
37119

>  <PUBCHEM_CONFORMER_RMSD>  (1) 
0.6

>  <PUBCHEM_CONFORMER_DIVERSEORDER>  (1) 
2
79
77
62
92
96
37
88
31
100
53
90
93
97
85
73
23
98
59
99
82
36
81
29
27
101
51
66
14
48
40
87
34
69
45
20
50
78
75
83
42
89
71
72
52
28
49
13
70
67
65
94
91
86
24
21
102
12
80
84
43
58
4
38
33
18
74
64
76
39
68
19
95
63
57
17
35
7
41
9
15
30
46
60
26
6
10
11
25
44
3
22
32
54
5
55
8
47
56
61
16
1

>  <PUBCHEM_MMFF94_PARTIAL_CHARGES>  (1) 
19
1 -0.43
10 -0.15
11 0.28
12 0.25
13 -0.15
14 -0.15
15 -0.15
19 0.4
2 -0.82
23 0.15
24 0.15
29 0.15
3 -0.7
30 0.15
31 0.15
4 0.51
6 -0.14
7 0.65
9 -0.15

>  <PUBCHEM_EFFECTIVE_ROTOR_COUNT>  (1) 
4.6

>  <PUBCHEM_PHARMACOPHORE_FEATURES>  (1) 
5
1 2 donor
1 8 hydrophobe
3 2 3 7 cation
5 1 3 7 11 12 rings
6 6 9 10 13 14 15 rings

>  <PUBCHEM_HEAVY_ATOM_COUNT>  (1) 
15

>  <PUBCHEM_ATOM_DEF_STEREO_COUNT>  (1) 
0

>  <PUBCHEM_ATOM_UDEF_STEREO_COUNT>  (1) 
1

>  <PUBCHEM_BOND_DEF_STEREO_COUNT>  (1) 
0

>  <PUBCHEM_BOND_UDEF_STEREO_COUNT>  (1) 
0

>  <PUBCHEM_ISOTOPIC_ATOM_COUNT>  (1) 
0

>  <PUBCHEM_COMPONENT_COUNT>  (1) 
1

>  <PUBCHEM_CACTVS_TAUTO_COUNT>  (1) 
2

>  <PUBCHEM_CONFORMER_ID>  (1) 
000090FF00000002

>  <PUBCHEM_MMFF94_ENERGY>  (1) 
28.6405

>  <PUBCHEM_FEATURE_SELFOVERLAP>  (1) 
25.372

>  <PUBCHEM_SHAPE_FINGERPRINT>  (1) 
10465860 228 18196093239980183201
10618630 7 9799701397730046928
11725454 13 16589959717189189343
12173636 292 18340208599849488677
12500047 106 18340764966187516968
13296908 3 9295289408826804224
13764800 53 18269006425773288881
15309172 13 18334297573619524797
15342168 16 18334868211981533797
15775835 57 18412260631704457549
1741750 31 18339641260645030792
1813 80 17337038091975643759
18186145 218 18342184336350381660
19765921 60 18131069307840314635
20291156 8 9223232957287431600
20510252 161 18125442161616169011
20645476 183 18336262452675266838
20645477 56 18196664101606255120
20671657 1 18268715995806064343
21499 59 18410852153277715525
21524375 3 18411978065800610023
2255824 54 18125441899976890639
228727 97 17775559823996470001
23419403 2 17050551756314428399
23557571 272 17695908113583326208
305870 269 18339925909212182938
4175511 71 17262451604314128471
474 4 18338798914283897697
6992083 37 18041834138289223828
7364860 26 18126001559700253623
74978 22 18266459987330487308
81228 2 17906740554366926626
84936 182 18129654193141188872

>  <PUBCHEM_SHAPE_MULTIPOLES>  (1) 
292.86
6
2.77
1.18
1.4
3.57
0
-5.18
0.17
0.94
0.1
-0.41
-0.39
-0.45

>  <PUBCHEM_SHAPE_SELFOVERLAP>  (1) 
608.811

>  <PUBCHEM_SHAPE_VOLUME>  (1) 
167.2

>  <PUBCHEM_COORDINATE_TYPE>  (1) 
2
5
10

$$$$
