37113
     RDKit          3D

 12 12  0  0  1  0  0  0  0  0999 V2000
   -2.7789   -1.0420    1.3370 Cl  0  0  0  0  0  0  0  0  0  0  0  0
   -3.6307    1.0119   -0.5398 Cl  0  0  0  0  0  0  0  0  0  0  0  0
   -2.2776   -1.3619   -1.5166 Cl  0  0  0  0  0  0  0  0  0  0  0  0
    2.5533   -1.3680    0.5318 S   0  0  0  0  0  0  0  0  0  0  0  0
   -1.0641    1.5336    1.0018 O   0  0  0  0  0  0  0  0  0  0  0  0
    0.0895   -0.4003    0.2692 N   0  0  0  0  0  0  0  0  0  0  0  0
    1.9044    0.9340   -0.4491 N   0  0  0  0  0  0  0  0  0  0  0  0
   -0.9776    0.5471   -0.0273 C   0  0  0  0  0  0  0  0  0  0  0  0
   -2.3347   -0.1761   -0.1695 C   0  0  0  0  0  0  0  0  0  0  0  0
    1.4199   -0.1667    0.0746 C   0  0  0  0  0  0  0  0  0  0  0  0
    3.8157   -0.3432   -0.0134 C   0  0  0  0  0  0  0  0  0  0  0  0
    3.2809    0.8316   -0.4988 C   0  0  0  0  0  0  0  0  0  0  0  0
  1  9  1  0
  2  9  1  0
  3  9  1  0
  4 10  1  0
  4 11  1  0
  5  8  1  0
  6  8  1  0
  6 10  1  0
  7 10  2  0
  7 12  1  0
  8  9  1  0
 11 12  2  0
M  END
>  <PUBCHEM_COMPOUND_CID>  (1) 
37113

>  <PUBCHEM_CONFORMER_RMSD>  (1) 
0.6

>  <PUBCHEM_CONFORMER_DIVERSEORDER>  (1) 
1
20
7
10
15
11
9
19
17
12
8
3
4
5
16
14
6
13
18
2

>  <PUBCHEM_MMFF94_PARTIAL_CHARGES>  (1) 
16
1 -0.29
10 0.46
11 -0.11
12 0.08
14 0.4
15 0.4
16 0.15
17 0.15
2 -0.29
3 -0.29
4 -0.08
5 -0.68
6 -0.85
7 -0.57
8 0.65
9 0.87

>  <PUBCHEM_EFFECTIVE_ROTOR_COUNT>  (1) 
3

>  <PUBCHEM_PHARMACOPHORE_FEATURES>  (1) 
5
1 5 acceptor
1 5 donor
1 6 donor
3 6 7 10 cation
5 4 7 10 11 12 rings

>  <PUBCHEM_HEAVY_ATOM_COUNT>  (1) 
12

>  <PUBCHEM_ATOM_DEF_STEREO_COUNT>  (1) 
0

>  <PUBCHEM_ATOM_UDEF_STEREO_COUNT>  (1) 
1

>  <PUBCHEM_BOND_DEF_STEREO_COUNT>  (1) 
0

>  <PUBCHEM_BOND_UDEF_STEREO_COUNT>  (1) 
0

>  <PUBCHEM_ISOTOPIC_ATOM_COUNT>  (1) 
0

>  <PUBCHEM_COMPONENT_COUNT>  (1) 
1

>  <PUBCHEM_CACTVS_TAUTO_COUNT>  (1) 
2

>  <PUBCHEM_CONFORMER_ID>  (1) 
000090F900000001

>  <PUBCHEM_MMFF94_ENERGY>  (1) 
14.4063

>  <PUBCHEM_FEATURE_SELFOVERLAP>  (1) 
25.408

>  <PUBCHEM_SHAPE_FINGERPRINT>  (1) 
12932764 1 18201719586902652664
13296908 3 17894634763862078042
14144814 61 18333733494437675938
14325111 11 18113339725670747546
15669948 3 18131625690562016943
15775835 57 18335420157922196524
18186145 218 17022896844036205882
18619055 16 18341886368667534311
200 152 18411975866866934334
20201158 50 18186802469688672674
20279233 1 17676489436444908602
20281407 28 17632574954889991666
20645477 70 18338513037003145334
20871999 31 18130495440296389455
21119208 17 18412542085327293924
23402539 116 18343293786980750116
23402655 69 18408885109927799532
23557571 272 16226045617327284743
3248919 1 17968085443448379930
3312278 4 18335424573116980227
57812782 119 17676485077195378418
8030462 33 18412266108114450312

>  <PUBCHEM_SHAPE_MULTIPOLES>  (1) 
240.58
6.9
1.48
1.15
2.06
0.08
0.12
-0.08
0.59
-0.29
-0.09
-1
0.32
-0.29

>  <PUBCHEM_SHAPE_SELFOVERLAP>  (1) 
443.778

>  <PUBCHEM_SHAPE_VOLUME>  (1) 
153.9

>  <PUBCHEM_COORDINATE_TYPE>  (1) 
2
5
10

$$$$
