37120
     RDKit          3D

 18 20  0  0  0  0  0  0  0  0999 V2000
    2.2498    0.1059   -0.1335 P   0  0  0  0  0  0  0  0  0  0  0  0
    2.6247   -0.0986   -1.5818 O   0  0  0  0  0  0  0  0  0  0  0  0
   -0.0716   -1.6442   -1.0060 O   0  0  0  0  0  0  0  0  0  0  0  0
    2.9439    1.4336    0.5827 N   0  0  0  0  0  0  0  0  0  0  0  0
    2.6238   -1.1732    0.8567 N   0  0  0  0  0  0  0  0  0  0  0  0
    0.5449    0.3189    0.0502 N   0  0  0  0  0  0  0  0  0  0  0  0
    2.7603    2.7079   -0.0994 C   0  0  0  0  0  0  0  0  0  0  0  0
    4.0922    2.0162   -0.0995 C   0  0  0  0  0  0  0  0  0  0  0  0
    4.0412   -1.4478    1.0534 C   0  0  0  0  0  0  0  0  0  0  0  0
    3.1881   -2.3524    0.2130 C   0  0  0  0  0  0  0  0  0  0  0  0
   -0.3715   -0.6020   -0.4301 C   0  0  0  0  0  0  0  0  0  0  0  0
   -1.8016   -0.2807   -0.1961 C   0  0  0  0  0  0  0  0  0  0  0  0
   -2.7125   -1.3139   -0.1105 C   0  0  0  0  0  0  0  0  0  0  0  0
   -2.1766    1.0416   -0.0711 C   0  0  0  0  0  0  0  0  0  0  0  0
   -4.0564   -1.0118    0.1096 C   0  0  0  0  0  0  0  0  0  0  0  0
   -3.5206    1.3437    0.1490 C   0  0  0  0  0  0  0  0  0  0  0  0
   -4.4605    0.3170    0.2395 C   0  0  0  0  0  0  0  0  0  0  0  0
   -5.8976    0.6399    0.4740 C   0  0  0  0  0  0  0  0  0  0  0  0
  1  2  2  0
  1  4  1  0
  1  5  1  0
  1  6  1  0
  3 11  2  0
  4  7  1  0
  4  8  1  0
  5  9  1  0
  5 10  1  0
  6 11  1  0
  7  8  1  0
  9 10  1  0
 11 12  1  0
 12 13  2  0
 12 14  1  0
 13 15  1  0
 14 16  2  0
 15 17  2  0
 16 17  1  0
 17 18  1  0
M  END
>  <PUBCHEM_COMPOUND_CID>  (1) 
37120

>  <PUBCHEM_CONFORMER_RMSD>  (1) 
0.8

>  <PUBCHEM_CONFORMER_DIVERSEORDER>  (1) 
1
15
22
2
17
10
13
18
6
16
3
19
21
11
8
7
26
12
25
5
24
4
23
9
14
20

>  <PUBCHEM_MMFF94_PARTIAL_CHARGES>  (1) 
31
1 1.49
10 -0.04
11 0.54
12 0.09
13 -0.15
14 -0.15
15 -0.15
16 -0.15
17 -0.14
18 0.14
19 0.1
2 -0.7
20 0.1
21 0.1
22 0.1
23 0.1
24 0.1
25 0.1
26 0.1
27 0.37
28 0.15
29 0.15
3 -0.57
30 0.15
31 0.15
4 -0.58
5 -0.58
6 -0.69
7 -0.04
8 -0.04
9 -0.04

>  <PUBCHEM_EFFECTIVE_ROTOR_COUNT>  (1) 
6.2

>  <PUBCHEM_PHARMACOPHORE_FEATURES>  (1) 
4
1 2 acceptor
1 3 acceptor
1 6 donor
6 12 13 14 15 16 17 rings

>  <PUBCHEM_HEAVY_ATOM_COUNT>  (1) 
18

>  <PUBCHEM_ATOM_DEF_STEREO_COUNT>  (1) 
0

>  <PUBCHEM_ATOM_UDEF_STEREO_COUNT>  (1) 
0

>  <PUBCHEM_BOND_DEF_STEREO_COUNT>  (1) 
0

>  <PUBCHEM_BOND_UDEF_STEREO_COUNT>  (1) 
0

>  <PUBCHEM_ISOTOPIC_ATOM_COUNT>  (1) 
0

>  <PUBCHEM_COMPONENT_COUNT>  (1) 
1

>  <PUBCHEM_CACTVS_TAUTO_COUNT>  (1) 
3

>  <PUBCHEM_CONFORMER_ID>  (1) 
0000910000000001

>  <PUBCHEM_MMFF94_ENERGY>  (1) 
41.9163

>  <PUBCHEM_FEATURE_SELFOVERLAP>  (1) 
20.297

>  <PUBCHEM_SHAPE_FINGERPRINT>  (1) 
10759866 29 18411422847115447192
11405975 8 18409167697316766747
12107183 9 17906452130327914145
12251169 10 18411132498440916747
12403259 415 17968091980852945477
12403260 363 18270110215610607893
12507560 40 18113611266346203637
12616971 3 18201432563413719167
12633257 1 18341337678269299385
12644460 14 18408608067420479528
12670546 56 18259979367017142647
12788726 201 17632307748021947409
13167823 11 18410290315858337739
13533116 47 18187085018818826531
13583140 156 18041827412349540631
13675066 3 17749109989527118341
13760787 5 18412255134789429365
14178342 30 17897725607249425586
14289901 80 18337669836053777051
14341114 176 18339925922086711050
15196674 1 18411418427936640099
15442244 35 18338796706686707272
15527383 91 18114177506645305170
17492 89 18410292536235623643
18186145 218 18412827979777970349
19050596 39 18408602552566699435
20559304 39 18411136901283236762
20645477 70 18412545400984316438
21065198 57 18408602531149742379
21065199 12 18261111893857991689
212847 35 18130786750489848857
21652331 79 18410293627330967777
2255824 54 18040719160605793778
22854114 111 18408884057549801556
23503953 91 18341322336414321387
23557571 272 13254796823926308523
23559900 14 18412262830769631818
31174 14 18333724706966431868
3286 77 18188207602593788764
3545911 37 18408042939518017429
42 15 18261672588700660723
474 4 17970911291685786356
5104073 3 18408891741657829531
5374978 207 18408604751642423257
6049 1 17459173123757404476
633830 44 18202568371535917887
7097593 13 18118112589477864098
7364860 26 18410572890631187910
77779 3 18409166619163813723
8272917 22 18410294713941460226
9709674 26 18408044034719185227

>  <PUBCHEM_SHAPE_MULTIPOLES>  (1) 
347.6
10.82
2.39
0.9
8.27
0.51
0.11
1.68
-2.19
-3.12
-0.12
-0.54
-0.18
-0.67

>  <PUBCHEM_SHAPE_SELFOVERLAP>  (1) 
709.452

>  <PUBCHEM_SHAPE_VOLUME>  (1) 
203.8

>  <PUBCHEM_COORDINATE_TYPE>  (1) 
2
5
10

$$$$
