37136
     RDKit          3D

 21 21  0  0  0  0  0  0  0  0999 V2000
   -4.6286    1.1703    0.1535 F   0  0  0  0  0  0  0  0  0  0  0  0
   -3.5131    1.7915   -1.6079 F   0  0  0  0  0  0  0  0  0  0  0  0
   -2.9023    2.4869    0.3617 F   0  0  0  0  0  0  0  0  0  0  0  0
   -4.4463   -0.7491    0.8186 F   0  0  0  0  0  0  0  0  0  0  0  0
   -3.1348   -2.0753   -0.2892 F   0  0  0  0  0  0  0  0  0  0  0  0
   -2.5168   -1.3361    1.6612 F   0  0  0  0  0  0  0  0  0  0  0  0
   -0.5509   -2.0405   -0.4499 O   0  0  0  0  0  0  0  0  0  0  0  0
    5.5468    1.5769    0.7630 O   0  0  0  0  0  0  0  0  0  0  0  0
    6.1186   -0.2890   -0.2421 O   0  0  0  0  0  0  0  0  0  0  0  0
    5.2456    0.4975    0.1983 N   0  0  0  0  0  0  0  0  0  0  0  0
   -2.4849    0.2092   -0.1311 C   0  0  0  0  0  0  0  0  0  0  0  0
    1.2114   -0.5072   -0.2304 C   0  0  0  0  0  0  0  0  0  0  0  0
   -1.1957    0.2593   -0.5144 C   0  0  0  0  0  0  0  0  0  0  0  0
   -0.2215   -0.8624   -0.3843 C   0  0  0  0  0  0  0  0  0  0  0  0
    1.5411    0.6794    0.3924 C   0  0  0  0  0  0  0  0  0  0  0  0
    2.1701   -1.3732   -0.7158 C   0  0  0  0  0  0  0  0  0  0  0  0
   -3.3747    1.4066   -0.3125 C   0  0  0  0  0  0  0  0  0  0  0  0
   -3.1430   -0.9765    0.5117 C   0  0  0  0  0  0  0  0  0  0  0  0
    3.8752    0.1555    0.0535 C   0  0  0  0  0  0  0  0  0  0  0  0
    2.8875    1.0144    0.5359 C   0  0  0  0  0  0  0  0  0  0  0  0
    3.5165   -1.0382   -0.5723 C   0  0  0  0  0  0  0  0  0  0  0  0
  1 17  1  0
  2 17  1  0
  3 17  1  0
  4 18  1  0
  5 18  1  0
  6 18  1  0
  7 14  2  0
  8 10  1  0
  9 10  2  0
 10 19  1  0
 11 13  2  3
 11 17  1  0
 11 18  1  0
 12 14  1  0
 12 15  2  0
 12 16  1  0
 13 14  1  0
 15 20  1  0
 16 21  2  0
 19 20  2  0
 19 21  1  0
M  CHG  2   8  -1  10   1
M  END
>  <PUBCHEM_COMPOUND_CID>  (1) 
37136

>  <PUBCHEM_CONFORMER_RMSD>  (1) 
0.8

>  <PUBCHEM_CONFORMER_DIVERSEORDER>  (1) 
1
4
3
2

>  <PUBCHEM_MMFF94_PARTIAL_CHARGES>  (1) 
26
1 -0.34
10 0.91
11 -0.28
12 0.09
13 -0.14
14 0.47
15 -0.15
16 -0.15
17 1.16
18 1.16
19 0.13
2 -0.34
20 -0.15
21 -0.15
22 0.15
23 0.15
24 0.15
25 0.15
26 0.15
3 -0.34
4 -0.34
5 -0.34
6 -0.34
7 -0.57
8 -0.52
9 -0.52

>  <PUBCHEM_EFFECTIVE_ROTOR_COUNT>  (1) 
5

>  <PUBCHEM_PHARMACOPHORE_FEATURES>  (1) 
5
1 7 acceptor
1 8 acceptor
1 8 anion
1 9 acceptor
6 12 15 16 19 20 21 rings

>  <PUBCHEM_HEAVY_ATOM_COUNT>  (1) 
21

>  <PUBCHEM_ATOM_DEF_STEREO_COUNT>  (1) 
0

>  <PUBCHEM_ATOM_UDEF_STEREO_COUNT>  (1) 
0

>  <PUBCHEM_BOND_DEF_STEREO_COUNT>  (1) 
0

>  <PUBCHEM_BOND_UDEF_STEREO_COUNT>  (1) 
0

>  <PUBCHEM_ISOTOPIC_ATOM_COUNT>  (1) 
0

>  <PUBCHEM_COMPONENT_COUNT>  (1) 
1

>  <PUBCHEM_CACTVS_TAUTO_COUNT>  (1) 
1

>  <PUBCHEM_CONFORMER_ID>  (1) 
0000911000000001

>  <PUBCHEM_MMFF94_ENERGY>  (1) 
51.9487

>  <PUBCHEM_FEATURE_SELFOVERLAP>  (1) 
25.453

>  <PUBCHEM_SHAPE_FINGERPRINT>  (1) 
10 15 18338229488189986888
10366900 7 18262232334608583515
10608611 8 18341892991322442837
10680689 15 18411703213848125134
11089746 13 15913322499434635906
11315181 36 17168428254786435394
11405975 8 18335984147595709738
12107183 9 17684076986042041168
12236239 1 15574433232322297722
12403259 118 18187921820229519716
12403259 415 18201717396928501712
12507557 5 18272088318306477096
12507560 40 18410859836810892206
12596602 18 16371016251135003385
13214271 11 18410290319820541221
13675066 3 18410576210614482006
14178342 30 17386014965762007019
14341114 176 18409173216170445720
15042514 8 18119535581321636379
15196674 1 18342175570675512766
15219456 202 18341616988144883279
15375358 24 18343300345142681350
15788980 27 18410293614603925278
17844677 252 18410580613003712436
18186145 218 17846789494057686150
19489759 90 18113897169286288834
200 152 17060615590463919895
20645477 56 18409450263230877541
20645477 70 17917150477482816798
21033648 29 18272921730945880096
21279426 13 18199192785345539846
21709351 56 18412821417563788548
2306618 200 18131075956666083811
23402539 116 18412820309214208614
23402655 69 17846776278506444524
23557571 272 18260274027395733452
23559900 14 18271527473552045790
2916195 48 18272080665276096952
3545911 37 18411983537646889524
4214541 1 18410293614181886580
5104073 3 18336263457935102186
633830 44 16916243077859790102
90127 26 18336271223494260264

>  <PUBCHEM_SHAPE_MULTIPOLES>  (1) 
365.94
11.42
1.96
0.94
8.87
0.18
0.03
3.32
1.04
-1.44
-0.08
-0.59
0
1.34

>  <PUBCHEM_SHAPE_SELFOVERLAP>  (1) 
786.05

>  <PUBCHEM_SHAPE_VOLUME>  (1) 
203.5

>  <PUBCHEM_COORDINATE_TYPE>  (1) 
2
5
10

$$$$
