37138
     RDKit          3D

 24 24  0  0  0  0  0  0  0  0999 V2000
   -5.0807    0.9975    0.0639 F   0  0  0  0  0  0  0  0  0  0  0  0
   -4.0207    1.4279   -1.7864 F   0  0  0  0  0  0  0  0  0  0  0  0
   -3.4005    2.3882    0.0653 F   0  0  0  0  0  0  0  0  0  0  0  0
   -4.8159   -0.8144    0.9618 F   0  0  0  0  0  0  0  0  0  0  0  0
   -3.4766   -2.2249    0.0010 F   0  0  0  0  0  0  0  0  0  0  0  0
   -2.8513   -1.2233    1.8280 F   0  0  0  0  0  0  0  0  0  0  0  0
    4.7582    0.6519   -0.0223 O   0  0  0  0  0  0  0  0  0  0  0  0
    2.7483    2.3948    0.7485 O   0  0  0  0  0  0  0  0  0  0  0  0
    4.1020   -1.8792   -0.9367 O   0  0  0  0  0  0  0  0  0  0  0  0
   -0.8991   -2.1223   -0.2211 O   0  0  0  0  0  0  0  0  0  0  0  0
    0.8092   -0.5142   -0.2367 C   0  0  0  0  0  0  0  0  0  0  0  0
    3.4525    0.2658   -0.0931 C   0  0  0  0  0  0  0  0  0  0  0  0
    2.4432    1.1465    0.2961 C   0  0  0  0  0  0  0  0  0  0  0  0
    3.1257   -1.0092   -0.5548 C   0  0  0  0  0  0  0  0  0  0  0  0
    1.1071    0.7522    0.2235 C   0  0  0  0  0  0  0  0  0  0  0  0
    1.7897   -1.4035   -0.6275 C   0  0  0  0  0  0  0  0  0  0  0  0
   -0.6121   -0.9349   -0.3122 C   0  0  0  0  0  0  0  0  0  0  0  0
   -1.6292    0.1272   -0.5609 C   0  0  0  0  0  0  0  0  0  0  0  0
   -2.9087    0.0821   -0.1453 C   0  0  0  0  0  0  0  0  0  0  0  0
   -3.8450    1.2156   -0.4563 C   0  0  0  0  0  0  0  0  0  0  0  0
   -3.5109   -1.0343    0.6567 C   0  0  0  0  0  0  0  0  0  0  0  0
    5.2567    1.0150    1.2631 C   0  0  0  0  0  0  0  0  0  0  0  0
    2.8257    3.4355   -0.2235 C   0  0  0  0  0  0  0  0  0  0  0  0
    4.6326   -2.7400    0.0689 C   0  0  0  0  0  0  0  0  0  0  0  0
  1 20  1  0
  2 20  1  0
  3 20  1  0
  4 21  1  0
  5 21  1  0
  6 21  1  0
  7 12  1  0
  7 22  1  0
  8 13  1  0
  8 23  1  0
  9 14  1  0
  9 24  1  0
 10 17  2  0
 11 15  2  0
 11 16  1  0
 11 17  1  0
 12 13  2  0
 12 14  1  0
 13 15  1  0
 14 16  2  0
 17 18  1  0
 18 19  2  3
 19 20  1  0
 19 21  1  0
M  END
>  <PUBCHEM_COMPOUND_CID>  (1) 
37138

>  <PUBCHEM_CONFORMER_RMSD>  (1) 
0.8

>  <PUBCHEM_CONFORMER_DIVERSEORDER>  (1) 
1
17
15
2
9
13
12
14
16
5
6
11
7
10
8
4
3

>  <PUBCHEM_MMFF94_PARTIAL_CHARGES>  (1) 
27
1 -0.34
10 -0.57
11 0.09
12 0.08
13 0.08
14 0.08
15 -0.15
16 -0.15
17 0.47
18 -0.14
19 -0.28
2 -0.34
20 1.16
21 1.16
22 0.28
23 0.28
24 0.28
25 0.15
26 0.15
27 0.15
3 -0.34
4 -0.34
5 -0.34
6 -0.34
7 -0.36
8 -0.36
9 -0.36

>  <PUBCHEM_EFFECTIVE_ROTOR_COUNT>  (1) 
7

>  <PUBCHEM_PHARMACOPHORE_FEATURES>  (1) 
5
1 10 acceptor
1 7 acceptor
1 8 acceptor
1 9 acceptor
6 11 12 13 14 15 16 rings

>  <PUBCHEM_HEAVY_ATOM_COUNT>  (1) 
24

>  <PUBCHEM_ATOM_DEF_STEREO_COUNT>  (1) 
0

>  <PUBCHEM_ATOM_UDEF_STEREO_COUNT>  (1) 
0

>  <PUBCHEM_BOND_DEF_STEREO_COUNT>  (1) 
0

>  <PUBCHEM_BOND_UDEF_STEREO_COUNT>  (1) 
0

>  <PUBCHEM_ISOTOPIC_ATOM_COUNT>  (1) 
0

>  <PUBCHEM_COMPONENT_COUNT>  (1) 
1

>  <PUBCHEM_CACTVS_TAUTO_COUNT>  (1) 
1

>  <PUBCHEM_CONFORMER_ID>  (1) 
0000911200000001

>  <PUBCHEM_MMFF94_ENERGY>  (1) 
88.4321

>  <PUBCHEM_FEATURE_SELFOVERLAP>  (1) 
25.383

>  <PUBCHEM_SHAPE_FINGERPRINT>  (1) 
10608611 8 18411136969601851917
1100329 8 16751840534383112874
11370993 144 18410300177150475209
11405975 8 18409451353815175163
12236239 1 16630812105820520219
12403259 415 18410580565089016423
12507557 5 18412824706986724896
12507560 40 18410294704982396999
12596602 18 14635163338552402925
13134695 92 17632286848869112456
13583140 156 18408888455401614511
13675066 3 18408324393246615062
14251764 38 18409731776678431161
14341114 176 18411427189179501961
14466204 15 18194117417622051642
14790565 3 18050849120563548100
14866123 147 17188135587839469658
15081414 286 18272094890139429972
15196674 1 18412263917454464446
15788980 27 18408041797193840806
1601671 61 18411699911725260308
17349148 13 17203331083005227622
17844677 252 18412833464403591436
1813 80 16805606966856844526
18186145 218 18060149742480829126
18785283 64 18191023602872163892
200 152 17561078099387866671
20645477 56 18334576850174132693
20645477 70 18130224861478012174
20681677 76 18410571812109074087
20832881 197 18190745241625456162
21033648 29 18411692192909393745
21065198 57 18410295817473865599
21065199 12 18337112357720093467
21065201 7 17749108885356741019
21279426 13 18194120716230508782
21421861 104 17969488335219760546
21709351 56 18341607178840382732
221490 88 18410300215699510384
23559900 14 18413107234805331838
3004659 81 18042978575803255230
34934 24 18272923947776465990
351380 180 18411698781689555109
3545911 37 18342458157658434364
4214541 1 18410294700924637575
5104073 3 18411983533420696074
5281201 14 18409453591471965980
9709674 26 18337112362020465331

>  <PUBCHEM_SHAPE_MULTIPOLES>  (1) 
426.79
11.37
2.95
1.03
2.92
0.93
-0.12
0.59
-1.35
-2.31
0.12
0.41
0
1.55

>  <PUBCHEM_SHAPE_SELFOVERLAP>  (1) 
903.778

>  <PUBCHEM_SHAPE_VOLUME>  (1) 
241.4

>  <PUBCHEM_COORDINATE_TYPE>  (1) 
2
5
10

$$$$
