37144
     RDKit          3D

 22 23  0  0  0  0  0  0  0  0999 V2000
    4.4843    0.6659    0.9088 F   0  0  0  0  0  0  0  0  0  0  0  0
    3.2900   -0.4169    2.3696 F   0  0  0  0  0  0  0  0  0  0  0  0
    2.7954    1.6453    1.8813 F   0  0  0  0  0  0  0  0  0  0  0  0
    4.3019    0.1962   -1.0674 F   0  0  0  0  0  0  0  0  0  0  0  0
    2.9104   -1.3805   -1.6005 F   0  0  0  0  0  0  0  0  0  0  0  0
    2.4085    0.6898   -2.0416 F   0  0  0  0  0  0  0  0  0  0  0  0
    0.3284   -0.8753   -1.7309 O   0  0  0  0  0  0  0  0  0  0  0  0
   -2.3466    0.1407   -0.1296 C   0  0  0  0  0  0  0  0  0  0  0  0
   -1.3770   -0.8752   -0.1195 C   0  0  0  0  0  0  0  0  0  0  0  0
   -3.6587   -0.1502    0.3137 C   0  0  0  0  0  0  0  0  0  0  0  0
   -1.6961   -2.1597    0.3218 C   0  0  0  0  0  0  0  0  0  0  0  0
   -0.0030   -0.6514   -0.5602 C   0  0  0  0  0  0  0  0  0  0  0  0
   -2.0428    1.4390   -0.5707 C   0  0  0  0  0  0  0  0  0  0  0  0
   -3.9624   -1.4487    0.7544 C   0  0  0  0  0  0  0  0  0  0  0  0
   -4.6282    0.8657    0.3036 C   0  0  0  0  0  0  0  0  0  0  0  0
   -2.9864   -2.4457    0.7579 C   0  0  0  0  0  0  0  0  0  0  0  0
    1.0052   -0.2032    0.4599 C   0  0  0  0  0  0  0  0  0  0  0  0
    2.3115    0.0224    0.2269 C   0  0  0  0  0  0  0  0  0  0  0  0
   -3.0185    2.4363   -0.5739 C   0  0  0  0  0  0  0  0  0  0  0  0
   -4.3085    2.1502   -0.1375 C   0  0  0  0  0  0  0  0  0  0  0  0
    3.2123    0.4699    1.3436 C   0  0  0  0  0  0  0  0  0  0  0  0
    2.9804   -0.1144   -1.1095 C   0  0  0  0  0  0  0  0  0  0  0  0
  1 21  1  0
  2 21  1  0
  3 21  1  0
  4 22  1  0
  5 22  1  0
  6 22  1  0
  7 12  2  0
  8  9  2  0
  8 10  1  0
  8 13  1  0
  9 11  1  0
  9 12  1  0
 10 14  2  0
 10 15  1  0
 11 16  2  0
 12 17  1  0
 13 19  2  0
 14 16  1  0
 15 20  2  0
 17 18  2  3
 18 21  1  0
 18 22  1  0
 19 20  1  0
M  END
>  <PUBCHEM_COMPOUND_CID>  (1) 
37144

>  <PUBCHEM_CONFORMER_RMSD>  (1) 
0.6

>  <PUBCHEM_CONFORMER_DIVERSEORDER>  (1) 
1
7
5
14
12
2
13
10
9
11
6
8
3
4

>  <PUBCHEM_MMFF94_PARTIAL_CHARGES>  (1) 
28
1 -0.34
11 -0.15
12 0.47
13 -0.15
14 -0.15
15 -0.15
16 -0.15
17 -0.14
18 -0.28
19 -0.15
2 -0.34
20 -0.15
21 1.16
22 1.16
23 0.15
24 0.15
25 0.15
26 0.15
27 0.15
28 0.15
29 0.15
3 -0.34
30 0.15
4 -0.34
5 -0.34
6 -0.34
7 -0.57
9 0.09

>  <PUBCHEM_EFFECTIVE_ROTOR_COUNT>  (1) 
4

>  <PUBCHEM_PHARMACOPHORE_FEATURES>  (1) 
3
1 7 acceptor
6 8 10 13 15 19 20 rings
6 8 9 10 11 14 16 rings

>  <PUBCHEM_HEAVY_ATOM_COUNT>  (1) 
22

>  <PUBCHEM_ATOM_DEF_STEREO_COUNT>  (1) 
0

>  <PUBCHEM_ATOM_UDEF_STEREO_COUNT>  (1) 
0

>  <PUBCHEM_BOND_DEF_STEREO_COUNT>  (1) 
0

>  <PUBCHEM_BOND_UDEF_STEREO_COUNT>  (1) 
0

>  <PUBCHEM_ISOTOPIC_ATOM_COUNT>  (1) 
0

>  <PUBCHEM_COMPONENT_COUNT>  (1) 
1

>  <PUBCHEM_CACTVS_TAUTO_COUNT>  (1) 
1

>  <PUBCHEM_CONFORMER_ID>  (1) 
0000911800000001

>  <PUBCHEM_MMFF94_ENERGY>  (1) 
58.5067

>  <PUBCHEM_FEATURE_SELFOVERLAP>  (1) 
15.249

>  <PUBCHEM_SHAPE_FINGERPRINT>  (1) 
10319926 262 18338781386986600226
10369192 42 16840511165566343112
10646746 165 18411138021747435600
11132069 177 18409733954590119485
11552529 35 16371872796747389881
11595378 159 17821449053946284717
11725454 13 17630011971905722899
12173636 292 18335979762644681447
12236239 1 17167866382859366351
12403259 415 18131078121071001191
12596602 18 16878518919973658553
12633257 1 18334293158804951913
12788726 201 17679037138336992067
13134695 92 16845297090720926740
13583140 156 18201714063622702350
13631057 29 16011590396830061635
13965767 371 17319292000563623005
14081887 123 18410290311657919785
14178342 30 18187078472856326051
14251757 17 18059857238117656713
14289901 80 18187654621275539035
14420673 8 17899685766005007986
14739800 52 18044655536914468756
14787075 74 16163028444084561551
15295992 7 18130787806967283859
15806764 133 18059310832199105792
17349148 13 18187076283060899559
173720 79 17603862261910141189
1813 80 16081927002295067354
18186145 218 17060341824763692622
18219364 16 17489303135271971051
19049666 15 18200600189465779638
19078846 21 17967812751701129100
200 152 15068613924671185615
20510252 161 18337966627411320755
20645477 56 18272090513250939027
20645477 70 16845579690562331582
21033648 29 17917986187633888256
21065201 7 18410019839886826590
21486144 27 17274825799956426719
21639500 275 16128653067793241370
23402539 116 18339068398493010159
23503958 25 18343306984819430945
23557571 272 18340783601850303887
23559900 14 18337964380706010710
312423 11 17313394451697934046
341906 21 18335416863787996081
474 4 14979093921521222490
495365 180 17703499991742971814
6049 1 18130797788307697554
633830 44 15697457579896270623
7064713 232 18188491247020192157
7097593 13 17677598796316702146
7615 1 17458622354125642359
77492 1 17167867486608023679
7808743 9 18261683609555379876
90316 7 17821721715835052037

>  <PUBCHEM_SHAPE_MULTIPOLES>  (1) 
403.24
9.3
2.22
1.56
2.67
0.08
-0.14
-2.38
-1.8
-3.23
-0.12
2.51
-0.06
0.65

>  <PUBCHEM_SHAPE_SELFOVERLAP>  (1) 
887.075

>  <PUBCHEM_SHAPE_VOLUME>  (1) 
218.5

>  <PUBCHEM_COORDINATE_TYPE>  (1) 
2
5
10

$$$$
