37145
     RDKit          3D

 17 17  0  0  0  0  0  0  0  0999 V2000
   -3.5474    0.8576   -0.0039 F   0  0  0  0  0  0  0  0  0  0  0  0
   -2.1504    2.1317   -1.0798 F   0  0  0  0  0  0  0  0  0  0  0  0
   -2.1270    2.0944    1.0960 F   0  0  0  0  0  0  0  0  0  0  0  0
   -3.2520   -1.1604   -0.0018 F   0  0  0  0  0  0  0  0  0  0  0  0
   -1.5394   -1.9255   -1.0918 F   0  0  0  0  0  0  0  0  0  0  0  0
   -1.5110   -1.9146    1.0834 F   0  0  0  0  0  0  0  0  0  0  0  0
    2.6842    1.1727   -0.0065 O   0  0  0  0  0  0  0  0  0  0  0  0
    0.8665   -1.8152   -0.0153 O   0  0  0  0  0  0  0  0  0  0  0  0
   -1.2815    0.1754   -0.0029 C   0  0  0  0  0  0  0  0  0  0  0  0
    0.0407    0.4266    0.0181 C   0  0  0  0  0  0  0  0  0  0  0  0
   -2.2667    1.3103   -0.0042 C   0  0  0  0  0  0  0  0  0  0  0  0
   -1.8943   -1.1945   -0.0016 C   0  0  0  0  0  0  0  0  0  0  0  0
    1.1082   -0.6149    0.0215 C   0  0  0  0  0  0  0  0  0  0  0  0
    2.5170   -0.1479    0.0076 C   0  0  0  0  0  0  0  0  0  0  0  0
    3.6488   -0.8572    0.0072 C   0  0  0  0  0  0  0  0  0  0  0  0
    4.6710    0.1215   -0.0090 C   0  0  0  0  0  0  0  0  0  0  0  0
    4.0329    1.3400   -0.0168 C   0  0  0  0  0  0  0  0  0  0  0  0
  1 11  1  0
  2 11  1  0
  3 11  1  0
  4 12  1  0
  5 12  1  0
  6 12  1  0
  7 14  1  0
  7 17  1  0
  8 13  2  0
  9 10  2  3
  9 11  1  0
  9 12  1  0
 10 13  1  0
 13 14  1  0
 14 15  2  0
 15 16  1  0
 16 17  2  0
M  END
>  <PUBCHEM_COMPOUND_CID>  (1) 
37145

>  <PUBCHEM_CONFORMER_RMSD>  (1) 
0.6

>  <PUBCHEM_CONFORMER_DIVERSEORDER>  (1) 
1
12
11
8
7
10
9
2
4
6
5
3

>  <PUBCHEM_MMFF94_PARTIAL_CHARGES>  (1) 
21
1 -0.34
10 -0.14
11 1.16
12 1.16
13 0.64
14 0.05
15 -0.15
16 -0.15
17 -0.01
18 0.15
19 0.15
2 -0.34
20 0.15
21 0.15
3 -0.34
4 -0.34
5 -0.34
6 -0.34
7 -0.28
8 -0.57
9 -0.28

>  <PUBCHEM_EFFECTIVE_ROTOR_COUNT>  (1) 
4

>  <PUBCHEM_PHARMACOPHORE_FEATURES>  (1) 
3
1 7 acceptor
1 8 acceptor
5 7 14 15 16 17 rings

>  <PUBCHEM_HEAVY_ATOM_COUNT>  (1) 
17

>  <PUBCHEM_ATOM_DEF_STEREO_COUNT>  (1) 
0

>  <PUBCHEM_ATOM_UDEF_STEREO_COUNT>  (1) 
0

>  <PUBCHEM_BOND_DEF_STEREO_COUNT>  (1) 
0

>  <PUBCHEM_BOND_UDEF_STEREO_COUNT>  (1) 
0

>  <PUBCHEM_ISOTOPIC_ATOM_COUNT>  (1) 
0

>  <PUBCHEM_COMPONENT_COUNT>  (1) 
1

>  <PUBCHEM_CACTVS_TAUTO_COUNT>  (1) 
1

>  <PUBCHEM_CONFORMER_ID>  (1) 
0000911900000001

>  <PUBCHEM_MMFF94_ENERGY>  (1) 
23.192

>  <PUBCHEM_FEATURE_SELFOVERLAP>  (1) 
15.223

>  <PUBCHEM_SHAPE_FINGERPRINT>  (1) 
10608611 8 18411134758100019208
10922523 26 18342181059633258758
11132069 177 18408600366444124488
11715629 250 18342169025208741560
12173636 292 18201154360622209557
12932764 1 17531240617948130666
13024252 1 18186800305462907719
13380535 76 18410855412899664126
14144814 61 18260827090381840306
14325111 11 18410856573120770920
14614273 12 18261387832421430309
14897335 6 18338794520479612822
15219456 202 18201728314545581022
15442244 35 18266176137405517722
15669948 3 18342729749947305366
15775835 57 18334859390044380288
16945 1 17762338011746490923
1741750 31 18200032824301848049
17802600 8 18339636836823538496
18186145 218 18342181025363177860
200 152 18202273728184092239
20510252 161 18340771528169668810
20645477 56 18411702071428996384
20645477 70 17631739262367137342
21501502 16 18337386050469381762
21524375 3 18338233747979678019
2306618 200 17989496233265429106
23402539 116 18337947999943459999
23557571 272 18201166558487371566
23559900 14 18131067109676921482
3545911 37 18411983546748507436
4028521 119 18261663814172042101
4214541 1 18410575076642921480
474 4 17169556431490662796
5104073 3 18410009945078138898
58051976 100 18411421700433012822
6333449 129 18412543197718574629
69090 78 18411696560964609847
7364860 26 18195808462390328406
9709674 26 18411706486808786350

>  <PUBCHEM_SHAPE_MULTIPOLES>  (1) 
294.47
7.4
2.07
0.78
5.67
0.09
0
1.61
-0.04
-1.43
-0.01
-0.36
0.02
-0.01

>  <PUBCHEM_SHAPE_SELFOVERLAP>  (1) 
633.136

>  <PUBCHEM_SHAPE_VOLUME>  (1) 
163.3

>  <PUBCHEM_COORDINATE_TYPE>  (1) 
2
5
10

$$$$
