37156
     RDKit          3D

 25 27  0  0  0  0  0  0  0  0999 V2000
   -5.8726    1.0185   -2.1448 Cl  0  0  0  0  0  0  0  0  0  0  0  0
    1.4882   -4.2507   -0.7918 O   0  0  0  0  0  0  0  0  0  0  0  0
   -1.6155   -0.3972    2.6644 O   0  0  0  0  0  0  0  0  0  0  0  0
    4.3124    3.4427   -1.0304 O   0  0  0  0  0  0  0  0  0  0  0  0
    2.4277    2.3975   -1.7491 O   0  0  0  0  0  0  0  0  0  0  0  0
    2.0907   -0.3162    0.2072 N   0  0  0  0  0  0  0  0  0  0  0  0
    2.0997    0.9996    0.6112 C   0  0  0  0  0  0  0  0  0  0  0  0
    0.8412   -0.8564    0.4937 C   0  0  0  0  0  0  0  0  0  0  0  0
    0.8667    1.2974    1.1504 C   0  0  0  0  0  0  0  0  0  0  0  0
    0.0720    0.1276    1.0770 C   0  0  0  0  0  0  0  0  0  0  0  0
    3.2860    1.8709    0.4502 C   0  0  0  0  0  0  0  0  0  0  0  0
    0.6205   -2.2221    0.1510 C   0  0  0  0  0  0  0  0  0  0  0  0
    3.1175   -1.0466   -0.3911 C   0  0  0  0  0  0  0  0  0  0  0  0
    0.4521    2.6033    1.7048 C   0  0  0  0  0  0  0  0  0  0  0  0
   -1.2849   -0.0421    1.5167 C   0  0  0  0  0  0  0  0  0  0  0  0
    1.6104   -2.9304   -0.4272 C   0  0  0  0  0  0  0  0  0  0  0  0
    2.9086   -2.3338   -0.7135 C   0  0  0  0  0  0  0  0  0  0  0  0
   -2.4351    0.2238    0.5981 C   0  0  0  0  0  0  0  0  0  0  0  0
    3.2689    2.5890   -0.8799 C   0  0  0  0  0  0  0  0  0  0  0  0
   -2.1681    0.6369   -0.6855 C   0  0  0  0  0  0  0  0  0  0  0  0
   -3.7113    0.0442    1.0765 C   0  0  0  0  0  0  0  0  0  0  0  0
   -3.2410    0.8851   -1.5415 C   0  0  0  0  0  0  0  0  0  0  0  0
   -4.7841    0.2923    0.2203 C   0  0  0  0  0  0  0  0  0  0  0  0
   -4.5490    0.7129   -1.0887 C   0  0  0  0  0  0  0  0  0  0  0  0
    0.1993   -4.7458   -0.4777 C   0  0  0  0  0  0  0  0  0  0  0  0
  1 24  1  0
  2 16  1  0
  2 25  1  0
  3 15  2  0
  4 19  1  0
  5 19  2  0
  6  7  1  0
  6  8  1  0
  6 13  1  0
  7  9  2  0
  7 11  1  0
  8 10  2  0
  8 12  1  0
  9 10  1  0
  9 14  1  0
 10 15  1  0
 11 19  1  0
 12 16  2  0
 13 17  2  0
 15 18  1  0
 16 17  1  0
 18 20  2  0
 18 21  1  0
 20 22  1  0
 21 23  2  0
 22 24  2  0
 23 24  1  0
M  END
>  <PUBCHEM_COMPOUND_CID>  (1) 
37156

>  <PUBCHEM_CONFORMER_RMSD>  (1) 
0.8

>  <PUBCHEM_CONFORMER_DIVERSEORDER>  (1) 
1
14
12
18
3
17
7
6
15
10
5
13
16
11
8
2
9
4

>  <PUBCHEM_MMFF94_PARTIAL_CHARGES>  (1) 
33
1 -0.18
10 -0.09
11 0.24
12 -0.11
13 -0.18
14 0.18
15 0.57
16 0.08
17 -0.15
18 0.09
19 0.66
2 -0.36
20 -0.15
21 -0.15
22 -0.15
23 -0.15
24 0.18
25 0.28
28 0.15
29 0.15
3 -0.57
33 0.15
34 0.15
35 0.15
36 0.15
37 0.15
4 -0.65
41 0.5
5 -0.57
6 0.33
7 -0.33
8 -0.2
9 -0.18

>  <PUBCHEM_EFFECTIVE_ROTOR_COUNT>  (1) 
5

>  <PUBCHEM_PHARMACOPHORE_FEATURES>  (1) 
9
1 2 acceptor
1 3 acceptor
1 4 acceptor
1 5 acceptor
1 6 cation
3 4 5 19 anion
5 6 7 8 9 10 rings
6 18 20 21 22 23 24 rings
6 6 8 12 13 16 17 rings

>  <PUBCHEM_HEAVY_ATOM_COUNT>  (1) 
25

>  <PUBCHEM_ATOM_DEF_STEREO_COUNT>  (1) 
0

>  <PUBCHEM_ATOM_UDEF_STEREO_COUNT>  (1) 
0

>  <PUBCHEM_BOND_DEF_STEREO_COUNT>  (1) 
0

>  <PUBCHEM_BOND_UDEF_STEREO_COUNT>  (1) 
0

>  <PUBCHEM_ISOTOPIC_ATOM_COUNT>  (1) 
0

>  <PUBCHEM_COMPONENT_COUNT>  (1) 
1

>  <PUBCHEM_CACTVS_TAUTO_COUNT>  (1) 
1

>  <PUBCHEM_CONFORMER_ID>  (1) 
0000912400000001

>  <PUBCHEM_MMFF94_ENERGY>  (1) 
70.4014

>  <PUBCHEM_FEATURE_SELFOVERLAP>  (1) 
45.83

>  <PUBCHEM_SHAPE_FINGERPRINT>  (1) 
10165383 225 18051155853356268385
10498660 4 17168133504525197245
105312 117 18120944060164388956
10794284 68 13390956083798688354
10930396 42 18046595986523208562
11069576 57 17987222344756986551
11582403 64 17970050335262515096
11796584 16 16343121633476917397
12553582 1 17911530795906582579
12730499 353 18410856598916922801
13149001 5 17556305299537158408
13681431 1 18194398883982317514
13690498 29 16614793028732271174
13911987 19 18411991277642232588
14114206 34 17036449200948877958
14659021 117 17040361211723317243
17138139 8 17343472756586651935
17980427 26 16879046724726551536
1813 80 17629208104215045831
18915476 22 18336841835141836411
20642791 105 17980189014156379802
20645477 70 18410576163058807163
20775438 99 17255079417457319188
22112679 90 17059790896465931417
2255824 54 18341615867343230082
22907989 373 17474956900947701548
23114952 82 18334300824957357509
23557571 272 17096955618061716889
23559900 14 18261109625872737731
23598291 2 17632024039798976561
238 59 18408884001647096703
25222932 49 16124667398709783879
26353 1 17831875546639834022
2838139 119 17532932929468594780
3060560 45 18410569548867394798
3472631 163 17240749710520391445
34797466 226 18114446891959205765
3886686 26 7919097599189425478
4409770 3 16472291378042421737
44802255 64 17536907677451747164
46194498 28 18261665974904563229
58779409 8 18052827141385025598
5951187 136 17316446576239978405
59682541 52 18125695939461839229
7471813 234 17986669281696590416

>  <PUBCHEM_SHAPE_MULTIPOLES>  (1) 
487.9
8.65
4.46
1.84
11.96
4.47
0.26
-4.52
-5.11
-6.76
-1.6
1.38
-0.89
0.21

>  <PUBCHEM_SHAPE_SELFOVERLAP>  (1) 
1061.781

>  <PUBCHEM_SHAPE_VOLUME>  (1) 
269.2

>  <PUBCHEM_COORDINATE_TYPE>  (1) 
2
5
10

$$$$
