37165
     RDKit          3D

 21 23  0  0  1  0  0  0  0  0999 V2000
    2.5967    1.9107   -1.4731 O   0  0  0  0  0  0  0  0  0  0  0  0
    0.3281    2.2226   -1.0474 O   0  0  0  0  0  0  0  0  0  0  0  0
   -3.1142   -0.6644   -0.2753 O   0  0  0  0  0  0  0  0  0  0  0  0
   -4.2541    1.1776   -1.0547 O   0  0  0  0  0  0  0  0  0  0  0  0
    0.7462    0.3925    1.2208 N   0  0  0  0  0  0  0  0  0  0  0  0
    1.4659   -1.7986   -1.1420 N   0  0  0  0  0  0  0  0  0  0  0  0
    2.7807   -0.3651    0.0163 N   0  0  0  0  0  0  0  0  0  0  0  0
   -0.7923   -1.3968    0.9713 N   0  0  0  0  0  0  0  0  0  0  0  0
   -0.1739   -0.6526    3.0846 N   0  0  0  0  0  0  0  0  0  0  0  0
    3.6571   -2.4564   -0.7378 N   0  0  0  0  0  0  0  0  0  0  0  0
   -5.3433   -0.5009    0.0780 N   0  0  0  0  0  0  0  0  0  0  0  0
    1.4022    0.2507   -0.0811 C   0  0  0  0  0  0  0  0  0  0  0  0
    0.5752   -0.6679   -1.0194 C   0  0  0  0  0  0  0  0  0  0  0  0
    1.5562    1.7234   -0.5296 C   0  0  0  0  0  0  0  0  0  0  0  0
    1.8978    2.4159    0.7932 C   0  0  0  0  0  0  0  0  0  0  0  0
    1.0180    1.6959    1.8198 C   0  0  0  0  0  0  0  0  0  0  0  0
   -0.7816   -1.1370   -0.4805 C   0  0  0  0  0  0  0  0  0  0  0  0
   -0.1009   -0.5804    1.7144 C   0  0  0  0  0  0  0  0  0  0  0  0
    2.6778   -1.5206   -0.5905 C   0  0  0  0  0  0  0  0  0  0  0  0
   -1.9048   -0.1485   -0.7972 C   0  0  0  0  0  0  0  0  0  0  0  0
   -4.2368    0.0999   -0.4697 C   0  0  0  0  0  0  0  0  0  0  0  0
  1 14  1  0
  2 14  1  0
  3 20  1  0
  3 21  1  0
  4 21  2  0
  5 12  1  0
  5 16  1  0
  5 18  1  0
  6 13  1  0
  6 19  1  0
  7 12  1  0
  7 19  2  0
  8 17  1  0
  8 18  2  0
  9 18  1  0
 10 19  1  0
 11 21  1  0
 12 13  1  0
 12 14  1  0
 13 17  1  0
 14 15  1  0
 15 16  1  0
 17 20  1  0
M  END
>  <PUBCHEM_COMPOUND_CID>  (1) 
37165

>  <PUBCHEM_CONFORMER_RMSD>  (1) 
0.6

>  <PUBCHEM_CONFORMER_DIVERSEORDER>  (1) 
16
1
29
24
17
14
28
15
3
21
22
27
23
8
4
30
7
25
5
10
2
12
9
20
11
18
13
19
6
26

>  <PUBCHEM_MMFF94_PARTIAL_CHARGES>  (1) 
29
1 -0.68
10 -0.85
11 -0.8
12 0.62
13 0.37
14 0.56
16 0.37
17 0.25
18 0.55
19 0.55
2 -0.68
20 0.28
21 0.78
28 0.4
3 -0.43
31 0.4
32 0.4
33 0.4
34 0.4
35 0.4
36 0.4
37 0.37
38 0.37
4 -0.57
5 -0.79
6 -0.82
7 -0.7
8 -0.7
9 -0.85

>  <PUBCHEM_EFFECTIVE_ROTOR_COUNT>  (1) 
4

>  <PUBCHEM_PHARMACOPHORE_FEATURES>  (1) 
14
1 1 acceptor
1 1 donor
1 10 donor
1 11 donor
1 2 acceptor
1 2 donor
1 4 acceptor
1 6 donor
1 9 donor
4 5 8 9 18 cation
4 6 7 10 19 cation
5 5 12 14 15 16 rings
5 6 7 12 13 19 rings
6 5 8 12 13 17 18 rings

>  <PUBCHEM_HEAVY_ATOM_COUNT>  (1) 
21

>  <PUBCHEM_ATOM_DEF_STEREO_COUNT>  (1) 
3

>  <PUBCHEM_ATOM_UDEF_STEREO_COUNT>  (1) 
0

>  <PUBCHEM_BOND_DEF_STEREO_COUNT>  (1) 
0

>  <PUBCHEM_BOND_UDEF_STEREO_COUNT>  (1) 
0

>  <PUBCHEM_ISOTOPIC_ATOM_COUNT>  (1) 
0

>  <PUBCHEM_COMPONENT_COUNT>  (1) 
1

>  <PUBCHEM_CACTVS_TAUTO_COUNT>  (1) 
12

>  <PUBCHEM_CONFORMER_ID>  (1) 
0000912D00000010

>  <PUBCHEM_MMFF94_ENERGY>  (1) 
68.3019

>  <PUBCHEM_FEATURE_SELFOVERLAP>  (1) 
71.583

>  <PUBCHEM_SHAPE_FINGERPRINT>  (1) 
10863032 1 18270681003409807167
10948715 1 18050276265666027288
11067466 332 15502362414233078685
11578080 2 16448185449282379468
12293681 4 18113343015505251529
12423570 1 13824850799542379432
13004483 165 17984694524775814838
13134695 92 17917135113951963541
13464514 151 17895483634368386540
14181834 199 18059863873910602926
14817 1 14312102895132988520
15163728 17 17026312060607607108
15238133 3 16629980841240149267
16945 1 18060142093365517010
17876694 64 17131560422763061186
18186145 218 18114174229701244607
20691752 17 17458631073120639661
21503847 285 18260832553865512637
23419403 2 17608412104659090658
23526113 38 17822865181920732098
427121 178 16515681203772976321
5281201 14 18412544297799824029
5337951 7 17894629288021264718
633830 44 17821723953713018583
7495541 125 17988923418568934303
81228 2 17836386855965979222

>  <PUBCHEM_SHAPE_MULTIPOLES>  (1) 
373.83
6.27
2.39
1.83
10.31
0.4
-1.4
-1.07
2.1
-2.67
0.4
-0.2
0.42
0.47

>  <PUBCHEM_SHAPE_SELFOVERLAP>  (1) 
803.974

>  <PUBCHEM_SHAPE_VOLUME>  (1) 
202.8

>  <PUBCHEM_COORDINATE_TYPE>  (1) 
2
5
10

$$$$
