37168
     RDKit          3D

 12 11  0  0  0  0  0  0  0  0999 V2000
    0.0002   -0.0001    1.4137 O   0  0  0  0  0  0  0  0  0  0  0  0
   -2.2473   -0.8105    0.0061 N   0  0  0  0  0  0  0  0  0  0  0  0
    2.2473    0.8106    0.0059 N   0  0  0  0  0  0  0  0  0  0  0  0
   -1.0790   -0.3892   -0.6057 N   0  0  0  0  0  0  0  0  0  0  0  0
    1.0789    0.3891   -0.6058 N   0  0  0  0  0  0  0  0  0  0  0  0
   -3.3634    0.0285   -0.4086 C   0  0  0  0  0  0  0  0  0  0  0  0
    3.3634   -0.0284   -0.4086 C   0  0  0  0  0  0  0  0  0  0  0  0
   -3.1374    1.4695    0.0402 C   0  0  0  0  0  0  0  0  0  0  0  0
   -4.6600   -0.5288    0.1701 C   0  0  0  0  0  0  0  0  0  0  0  0
    3.1372   -1.4693    0.0400 C   0  0  0  0  0  0  0  0  0  0  0  0
    4.6600    0.5288    0.1704 C   0  0  0  0  0  0  0  0  0  0  0  0
    0.0001   -0.0001    0.1824 C   0  0  0  0  0  0  0  0  0  0  0  0
  1 12  2  0
  2  4  1  0
  2  6  1  0
  3  5  1  0
  3  7  1  0
  4 12  1  0
  5 12  1  0
  6  8  1  0
  6  9  1  0
  7 10  1  0
  7 11  1  0
M  END
>  <PUBCHEM_COMPOUND_CID>  (1) 
37168

>  <PUBCHEM_CONFORMER_RMSD>  (1) 
0.6

>  <PUBCHEM_CONFORMER_DIVERSEORDER>  (1) 
1
25
19
5
24
16
17
23
26
8
11
13
18
20
2
7
21
12
14
22
15
10
9
6
4
3

>  <PUBCHEM_MMFF94_PARTIAL_CHARGES>  (1) 
12
1 -0.57
12 0.69
15 0.36
16 0.36
2 -0.64
29 0.37
3 -0.64
30 0.37
4 -0.42
5 -0.42
6 0.27
7 0.27

>  <PUBCHEM_EFFECTIVE_ROTOR_COUNT>  (1) 
6

>  <PUBCHEM_PHARMACOPHORE_FEATURES>  (1) 
7
1 1 acceptor
1 2 donor
1 3 donor
1 4 donor
1 5 donor
3 6 8 9 hydrophobe
3 7 10 11 hydrophobe

>  <PUBCHEM_HEAVY_ATOM_COUNT>  (1) 
12

>  <PUBCHEM_ATOM_DEF_STEREO_COUNT>  (1) 
0

>  <PUBCHEM_ATOM_UDEF_STEREO_COUNT>  (1) 
0

>  <PUBCHEM_BOND_DEF_STEREO_COUNT>  (1) 
0

>  <PUBCHEM_BOND_UDEF_STEREO_COUNT>  (1) 
0

>  <PUBCHEM_ISOTOPIC_ATOM_COUNT>  (1) 
0

>  <PUBCHEM_COMPONENT_COUNT>  (1) 
1

>  <PUBCHEM_CACTVS_TAUTO_COUNT>  (1) 
2

>  <PUBCHEM_CONFORMER_ID>  (1) 
0000913000000001

>  <PUBCHEM_MMFF94_ENERGY>  (1) 
0.06

>  <PUBCHEM_FEATURE_SELFOVERLAP>  (1) 
38.562

>  <PUBCHEM_SHAPE_FINGERPRINT>  (1) 
11062470 55 17846780719470843540
114248 4 18410574006626287636
12932764 1 17703779336399631135
14123238 8 18410575101842948212
14325111 11 18410012117587830309
17834072 33 18187367691589869582
17834074 16 18187651318604242947
17834076 25 15985107413871333372
18186145 218 17749107747148131446
18342897 14 16988848280570530979
190213 19 17894631448263207655
20279233 1 17676494951473041138
20528008 55 9799688190758015069
20645477 70 18341051813952615518
22485316 2 18272085010965355214
23402539 116 18341606036647944877
42 15 18408605846605921551
4990 188 17385443210924856674
58051976 100 18272086157985439175

>  <PUBCHEM_SHAPE_MULTIPOLES>  (1) 
221.16
9.44
1.15
0.8
0
0
-0.14
0
0.1
0
-0.02
0
0
0.01

>  <PUBCHEM_SHAPE_SELFOVERLAP>  (1) 
406.019

>  <PUBCHEM_SHAPE_VOLUME>  (1) 
141.3

>  <PUBCHEM_COORDINATE_TYPE>  (1) 
2
5
10

$$$$
