37162
     RDKit          3D

 21 23  0  0  0  0  0  0  0  0999 V2000
    0.1770   -0.8263   -1.8667 O   0  0  0  0  0  0  0  0  0  0  0  0
    2.8070   -2.4165    0.8361 N   0  0  0  0  0  0  0  0  0  0  0  0
   -0.0607   -0.3392   -0.5236 C   0  0  0  0  0  0  0  0  0  0  0  0
    0.6793   -1.3424    0.3858 C   0  0  0  0  0  0  0  0  0  0  0  0
    0.6442    1.0237   -0.4228 C   0  0  0  0  0  0  0  0  0  0  0  0
   -1.5820   -0.4444   -0.2878 C   0  0  0  0  0  0  0  0  0  0  0  0
    0.4703    1.8989    0.6650 C   0  0  0  0  0  0  0  0  0  0  0  0
   -2.3977    0.4510    0.4341 C   0  0  0  0  0  0  0  0  0  0  0  0
   -0.5402    1.6290    1.7412 C   0  0  0  0  0  0  0  0  0  0  0  0
   -1.9370    1.6960    1.1512 C   0  0  0  0  0  0  0  0  0  0  0  0
    2.1334   -1.4548   -0.0284 C   0  0  0  0  0  0  0  0  0  0  0  0
    1.5991    1.3979   -1.3994 C   0  0  0  0  0  0  0  0  0  0  0  0
   -2.2216   -1.5957   -0.8295 C   0  0  0  0  0  0  0  0  0  0  0  0
    1.2136    3.0954    0.7438 C   0  0  0  0  0  0  0  0  0  0  0  0
   -3.7942    0.2142    0.5061 C   0  0  0  0  0  0  0  0  0  0  0  0
    2.3269    2.5875   -1.3145 C   0  0  0  0  0  0  0  0  0  0  0  0
   -3.5941   -1.8235   -0.7264 C   0  0  0  0  0  0  0  0  0  0  0  0
    2.1342    3.4385   -0.2396 C   0  0  0  0  0  0  0  0  0  0  0  0
   -4.3871   -0.9064   -0.0654 C   0  0  0  0  0  0  0  0  0  0  0  0
    4.2077   -2.5729    0.4401 C   0  0  0  0  0  0  0  0  0  0  0  0
    2.1220   -3.7099    0.8006 C   0  0  0  0  0  0  0  0  0  0  0  0
  1  3  1  0
  2 11  1  0
  2 20  1  0
  2 21  1  0
  3  4  1  0
  3  5  1  0
  3  6  1  0
  4 11  1  0
  5  7  2  0
  5 12  1  0
  6  8  2  0
  6 13  1  0
  7  9  1  0
  7 14  1  0
  8 10  1  0
  8 15  1  0
  9 10  1  0
 12 16  2  0
 13 17  2  0
 14 18  2  0
 15 19  2  0
 16 18  1  0
 17 19  1  0
M  END
>  <PUBCHEM_COMPOUND_CID>  (1) 
37162

>  <PUBCHEM_CONFORMER_RMSD>  (1) 
0.6

>  <PUBCHEM_CONFORMER_DIVERSEORDER>  (1) 
1
7
9
8
3
5
6
4
2

>  <PUBCHEM_MMFF94_PARTIAL_CHARGES>  (1) 
29
1 -0.68
10 0.14
11 0.27
12 -0.15
13 -0.15
14 -0.15
15 -0.15
16 -0.15
17 -0.15
18 -0.15
19 -0.15
2 -0.81
20 0.27
21 0.27
3 0.57
30 0.15
31 0.15
32 0.4
33 0.15
34 0.15
35 0.15
36 0.15
37 0.15
38 0.15
5 -0.14
6 -0.14
7 -0.14
8 -0.14
9 0.14

>  <PUBCHEM_EFFECTIVE_ROTOR_COUNT>  (1) 
3.6

>  <PUBCHEM_PHARMACOPHORE_FEATURES>  (1) 
6
1 1 acceptor
1 1 donor
1 2 cation
6 5 7 12 14 16 18 rings
6 6 8 13 15 17 19 rings
7 3 5 6 7 8 9 10 rings

>  <PUBCHEM_HEAVY_ATOM_COUNT>  (1) 
21

>  <PUBCHEM_ATOM_DEF_STEREO_COUNT>  (1) 
0

>  <PUBCHEM_ATOM_UDEF_STEREO_COUNT>  (1) 
0

>  <PUBCHEM_BOND_DEF_STEREO_COUNT>  (1) 
0

>  <PUBCHEM_BOND_UDEF_STEREO_COUNT>  (1) 
0

>  <PUBCHEM_ISOTOPIC_ATOM_COUNT>  (1) 
0

>  <PUBCHEM_COMPONENT_COUNT>  (1) 
1

>  <PUBCHEM_CACTVS_TAUTO_COUNT>  (1) 
1

>  <PUBCHEM_CONFORMER_ID>  (1) 
0000912A00000001

>  <PUBCHEM_MMFF94_ENERGY>  (1) 
83.0493

>  <PUBCHEM_FEATURE_SELFOVERLAP>  (1) 
30.458

>  <PUBCHEM_SHAPE_FINGERPRINT>  (1) 
1100329 8 18411422799971306699
11045515 52 18042683888831168094
11578080 2 17968365754447152540
121448 382 17692537027764157601
12553582 1 18264765463465439178
12644460 14 18268447865803990867
13004483 165 17758106008502278171
13132413 78 18340204064163297590
13294875 104 17914887875414827656
13533116 47 18337668745950482095
14787075 74 17119172560698064663
14955137 171 18194988260854128627
15852999 172 17533217715531832451
15927050 60 17907017636383143862
16945 1 18195813092290908641
17980427 23 17773586136105579197
1813 80 18263079929498977038
19765921 60 18053391182017612053
19784866 9 18268146641977081985
19930374 2 17113264338770670873
20567600 347 17977097182451995419
20600515 1 17983577403333205885
20645476 183 17468755642250397820
20905425 154 18130233756307724621
21421861 104 18269858483192615289
21452121 71 18335148548448694610
21524375 3 17982739863230491973
21650355 55 18051123688261630010
22112679 90 18124053238201931862
2255824 54 18335985358417836542
23366157 5 18261391195322832949
23419403 2 17910917345590206953
23558518 356 16471759270703021461
23559900 14 18337939165222092859
25147074 1 18202567298295181811
2748010 2 16034115602243997433
3759504 43 17543631284711602580
394222 165 18198070363539319545
404807 78 16528324711773850527
43471831 8 18051686943336830419
4409770 3 17396128050238490364
458136 41 18117848925977741493
59554788 191 18268988688144055117
59554788 281 18051977223324240704
6992083 37 17980489966166238675
7097593 13 18411137996273440243
7364860 26 18410853308397233694
7471813 234 18129643279998483311
81228 2 17836085563445597343
90316 7 17906455424446393474
9981440 41 17976253869966022289

>  <PUBCHEM_SHAPE_MULTIPOLES>  (1) 
421.32
6.06
4.35
1.36
4.04
0.62
-0.12
3.51
-0.05
-5.56
0.91
-0.2
-0.39
-1.92

>  <PUBCHEM_SHAPE_SELFOVERLAP>  (1) 
904.75

>  <PUBCHEM_SHAPE_VOLUME>  (1) 
231.9

>  <PUBCHEM_COORDINATE_TYPE>  (1) 
2
5
10

$$$$
