37173
     RDKit          3D

 21 23  0  0  1  0  0  0  0  0999 V2000
    1.8315    2.7200   -0.6697 O   0  0  0  0  0  0  0  0  0  0  0  0
    1.2956    1.1157   -2.2750 O   0  0  0  0  0  0  0  0  0  0  0  0
   -2.9512   -0.1015   -0.9773 O   0  0  0  0  0  0  0  0  0  0  0  0
   -4.6495   -0.3512    0.5567 O   0  0  0  0  0  0  0  0  0  0  0  0
    1.9222   -0.8392   -0.1732 N   0  0  0  0  0  0  0  0  0  0  0  0
    1.5100    0.9282    1.3902 N   0  0  0  0  0  0  0  0  0  0  0  0
   -0.6903    0.3868    1.5040 N   0  0  0  0  0  0  0  0  0  0  0  0
   -0.0515   -2.1633   -0.0904 N   0  0  0  0  0  0  0  0  0  0  0  0
    2.0388   -3.1120    0.3052 N   0  0  0  0  0  0  0  0  0  0  0  0
    0.4965    1.0197    3.4814 N   0  0  0  0  0  0  0  0  0  0  0  0
   -4.7292    1.2951   -1.0465 N   0  0  0  0  0  0  0  0  0  0  0  0
    1.2750    0.4527    0.0456 C   0  0  0  0  0  0  0  0  0  0  0  0
   -0.2648    0.3279    0.0596 C   0  0  0  0  0  0  0  0  0  0  0  0
    1.9214    1.3498   -1.0168 C   0  0  0  0  0  0  0  0  0  0  0  0
    3.3667    0.8371   -1.0193 C   0  0  0  0  0  0  0  0  0  0  0  0
    3.2194   -0.6773   -0.8270 C   0  0  0  0  0  0  0  0  0  0  0  0
   -0.7592   -0.9690   -0.5905 C   0  0  0  0  0  0  0  0  0  0  0  0
    1.2438   -2.0335    0.0008 C   0  0  0  0  0  0  0  0  0  0  0  0
    0.3845    0.7779    2.1450 C   0  0  0  0  0  0  0  0  0  0  0  0
   -2.2572   -1.1917   -0.3996 C   0  0  0  0  0  0  0  0  0  0  0  0
   -4.1525    0.2278   -0.4034 C   0  0  0  0  0  0  0  0  0  0  0  0
  1 14  1  0
  2 14  1  0
  3 20  1  0
  3 21  1  0
  4 21  2  0
  5 12  1  0
  5 16  1  0
  5 18  1  0
  6 12  1  0
  6 19  1  0
  7 13  1  0
  7 19  2  0
  8 17  1  0
  8 18  2  0
  9 18  1  0
 10 19  1  0
 11 21  1  0
 12 13  1  0
 12 14  1  0
 13 17  1  0
 14 15  1  0
 15 16  1  0
 17 20  1  0
M  END
>  <PUBCHEM_COMPOUND_CID>  (1) 
37173

>  <PUBCHEM_CONFORMER_RMSD>  (1) 
0.6

>  <PUBCHEM_CONFORMER_DIVERSEORDER>  (1) 
49
3
99
119
82
93
18
110
44
90
108
83
116
7
121
81
51
128
89
105
123
28
1
96
97
75
47
120
61
30
101
4
69
88
71
117
98
60
106
37
126
115
42
6
124
16
68
109
5
46
45
104
56
84
91
36
2
114
103
50
76
65
32
13
107
127
55
52
77
41
129
20
38
53
94
102
112
87
9
8
64
74
17
111
100
27
23
113
79
26
29
24
85
118
58
95
122
35
10
14
86
54
22
63
43
125
11
130
31
92
34
21
57
66
33
78
72
40
67
70
39
80
15
19
59
73
25
12
62
48

>  <PUBCHEM_MMFF94_PARTIAL_CHARGES>  (1) 
29
1 -0.68
10 -0.85
11 -0.8
12 0.74
13 0.25
14 0.56
16 0.37
17 0.25
18 0.55
19 0.55
2 -0.68
20 0.28
21 0.78
28 0.4
3 -0.43
31 0.4
32 0.4
33 0.4
34 0.4
35 0.4
36 0.4
37 0.37
38 0.37
4 -0.57
5 -0.79
6 -0.82
7 -0.7
8 -0.7
9 -0.85

>  <PUBCHEM_EFFECTIVE_ROTOR_COUNT>  (1) 
4

>  <PUBCHEM_PHARMACOPHORE_FEATURES>  (1) 
14
1 1 acceptor
1 1 donor
1 10 donor
1 11 donor
1 2 acceptor
1 2 donor
1 4 acceptor
1 6 donor
1 9 donor
4 5 8 9 18 cation
4 6 7 10 19 cation
5 5 12 14 15 16 rings
5 6 7 12 13 19 rings
6 5 8 12 13 17 18 rings

>  <PUBCHEM_HEAVY_ATOM_COUNT>  (1) 
21

>  <PUBCHEM_ATOM_DEF_STEREO_COUNT>  (1) 
0

>  <PUBCHEM_ATOM_UDEF_STEREO_COUNT>  (1) 
3

>  <PUBCHEM_BOND_DEF_STEREO_COUNT>  (1) 
0

>  <PUBCHEM_BOND_UDEF_STEREO_COUNT>  (1) 
0

>  <PUBCHEM_ISOTOPIC_ATOM_COUNT>  (1) 
0

>  <PUBCHEM_COMPONENT_COUNT>  (1) 
1

>  <PUBCHEM_CACTVS_TAUTO_COUNT>  (1) 
12

>  <PUBCHEM_CONFORMER_ID>  (1) 
0000913500000031

>  <PUBCHEM_MMFF94_ENERGY>  (1) 
67.4086

>  <PUBCHEM_FEATURE_SELFOVERLAP>  (1) 
71.633

>  <PUBCHEM_SHAPE_FINGERPRINT>  (1) 
10863032 1 18117281560893028630
11578080 2 17984954073533029249
12293681 160 17845106223702863960
12293681 4 17386298609660077021
12423570 1 17468754087951674050
12592029 89 18186526514056219066
12716301 132 17693077970336972242
13134695 92 17773011087160375503
13294875 104 17916283078324095418
13965767 371 17896295048101000741
14115302 16 18272656774202100607
14713325 29 16896241114689089736
14817 1 16613878802224589874
16752209 62 17345759569062923385
16945 1 18411423916620313086
18186145 218 18130509725262605061
19784866 9 18412258432871132162
19862831 5 17989213650445508207
20233049 118 17846778477461069669
20600515 1 16271346531558291811
20820808 20 18337956799903668180
21503847 285 17458627766206656181
22112679 90 17130725876357975595
23419403 2 17478001074988152626
25 1 18259987093230928254
2748010 2 17557414689531348323
298252 57 18041847353803308132
3060560 45 18333732437722929166
5845 1 10144484497431883984
74978 22 16916778647881905063
81228 2 16413545283629899800

>  <PUBCHEM_SHAPE_MULTIPOLES>  (1) 
373.83
6.19
2.27
2.01
9.21
1.07
1.56
-0.85
-2.76
-1.53
0.16
-0.57
-1.38
-0.2

>  <PUBCHEM_SHAPE_SELFOVERLAP>  (1) 
804.91

>  <PUBCHEM_SHAPE_VOLUME>  (1) 
203.4

>  <PUBCHEM_COORDINATE_TYPE>  (1) 
2
5
10

$$$$
