37177
     RDKit          3D

 25 27  0  0  0  0  0  0  0  0999 V2000
   -0.0002    3.5929   -0.0004 S   0  0  0  0  0  0  0  0  0  0  0  0
    3.4944   -1.9338   -1.1163 O   0  0  0  0  0  0  0  0  0  0  0  0
   -3.4956   -1.9330    1.1186 O   0  0  0  0  0  0  0  0  0  0  0  0
    5.8908   -1.9926    0.2360 N   0  0  0  0  0  0  0  0  0  0  0  0
   -5.8900   -1.9931   -0.2369 N   0  0  0  0  0  0  0  0  0  0  0  0
    0.7161    1.1200   -0.1169 C   0  0  0  0  0  0  0  0  0  0  0  0
   -0.7163    1.1201    0.1180 C   0  0  0  0  0  0  0  0  0  0  0  0
    1.2301    2.4149   -0.2018 C   0  0  0  0  0  0  0  0  0  0  0  0
   -1.2304    2.4150    0.2015 C   0  0  0  0  0  0  0  0  0  0  0  0
    1.6234    0.0386   -0.2653 C   0  0  0  0  0  0  0  0  0  0  0  0
   -1.6237    0.0387    0.2672 C   0  0  0  0  0  0  0  0  0  0  0  0
    2.9830    0.2715   -0.4884 C   0  0  0  0  0  0  0  0  0  0  0  0
   -2.9834    0.2718    0.4894 C   0  0  0  0  0  0  0  0  0  0  0  0
    2.6007    2.6551   -0.4270 C   0  0  0  0  0  0  0  0  0  0  0  0
   -2.6012    2.6553    0.4256 C   0  0  0  0  0  0  0  0  0  0  0  0
    3.4649    1.5687   -0.5681 C   0  0  0  0  0  0  0  0  0  0  0  0
   -3.4655    1.5690    0.5673 C   0  0  0  0  0  0  0  0  0  0  0  0
    3.8942   -0.8523   -0.6371 C   0  0  0  0  0  0  0  0  0  0  0  0
   -3.8946   -0.8519    0.6380 C   0  0  0  0  0  0  0  0  0  0  0  0
    5.3605   -0.7059   -0.2013 C   0  0  0  0  0  0  0  0  0  0  0  0
   -5.3604   -0.7060    0.2000 C   0  0  0  0  0  0  0  0  0  0  0  0
    5.1202   -2.5089    1.3683 C   0  0  0  0  0  0  0  0  0  0  0  0
    7.3042   -1.8714    0.5965 C   0  0  0  0  0  0  0  0  0  0  0  0
   -5.1179   -2.5105   -1.3677 C   0  0  0  0  0  0  0  0  0  0  0  0
   -7.3030   -1.8723   -0.5994 C   0  0  0  0  0  0  0  0  0  0  0  0
  1  8  1  0
  1  9  1  0
  2 18  2  0
  3 19  2  0
  4 20  1  0
  4 22  1  0
  4 23  1  0
  5 21  1  0
  5 24  1  0
  5 25  1  0
  6  7  1  0
  6  8  2  0
  6 10  1  0
  7  9  2  0
  7 11  1  0
  8 14  1  0
  9 15  1  0
 10 12  2  0
 11 13  2  0
 12 16  1  0
 12 18  1  0
 13 17  1  0
 13 19  1  0
 14 16  2  0
 15 17  2  0
 18 20  1  0
 19 21  1  0
M  END
>  <PUBCHEM_COMPOUND_CID>  (1) 
37177

>  <PUBCHEM_CONFORMER_RMSD>  (1) 
0.8

>  <PUBCHEM_CONFORMER_DIVERSEORDER>  (1) 
2
54
70
26
11
22
35
18
41
46
19
72
66
53
25
16
68
67
30
55
8
34
44
56
42
32
65
12
33
39
45
15
64
71
28
40
69
3
48
73
21
51
4
61
7
31
58
29
47
13
62
36
74
37
20
14
50
9
17
43
1
38
60
10
6
5
49
24
57
23
59
52
27
63

>  <PUBCHEM_MMFF94_PARTIAL_CHARGES>  (1) 
29
1 -0.08
10 -0.15
11 -0.15
12 0.09
13 0.09
14 -0.15
15 -0.15
16 -0.15
17 -0.15
18 0.42
19 0.42
2 -0.57
20 0.33
21 0.33
22 0.27
23 0.27
24 0.27
25 0.27
26 0.15
27 0.15
28 0.15
29 0.15
3 -0.57
30 0.15
31 0.15
4 -0.81
5 -0.81
8 0.04
9 0.04

>  <PUBCHEM_EFFECTIVE_ROTOR_COUNT>  (1) 
6

>  <PUBCHEM_PHARMACOPHORE_FEATURES>  (1) 
7
1 2 acceptor
1 3 acceptor
1 4 cation
1 5 cation
5 1 6 7 8 9 rings
6 6 8 10 12 14 16 rings
6 7 9 11 13 15 17 rings

>  <PUBCHEM_HEAVY_ATOM_COUNT>  (1) 
25

>  <PUBCHEM_ATOM_DEF_STEREO_COUNT>  (1) 
0

>  <PUBCHEM_ATOM_UDEF_STEREO_COUNT>  (1) 
0

>  <PUBCHEM_BOND_DEF_STEREO_COUNT>  (1) 
0

>  <PUBCHEM_BOND_UDEF_STEREO_COUNT>  (1) 
0

>  <PUBCHEM_ISOTOPIC_ATOM_COUNT>  (1) 
0

>  <PUBCHEM_COMPONENT_COUNT>  (1) 
1

>  <PUBCHEM_CACTVS_TAUTO_COUNT>  (1) 
3

>  <PUBCHEM_CONFORMER_ID>  (1) 
0000913900000002

>  <PUBCHEM_MMFF94_ENERGY>  (1) 
77.1748

>  <PUBCHEM_FEATURE_SELFOVERLAP>  (1) 
35.636

>  <PUBCHEM_SHAPE_FINGERPRINT>  (1) 
10 15 12031790271049129599
10050765 1 18411420613416773537
10411042 1 18410575084663494661
10622 236 17824811261873329130
10693767 8 18197205057364969799
10917259 69 18267860585637076909
11211813 128 18272369755694391110
11410812 94 16588572116361531726
11963148 33 18050564341960336894
1200032 147 10519990387323419158
12107183 9 18270978843061716337
12166972 35 18040155132108867813
12760667 363 18408325475704928963
13140716 1 18340774745364645016
13533116 47 18338517550765483160
13540713 5 18338818756812246433
13583140 156 13829031005539337045
13631057 29 18336547115103221866
13862211 1 18410577287981581091
14068700 675 18343582958375441841
14117953 113 18272932713757647799
14344974 204 18195524797519010110
14347332 77 18410575076585029237
14429380 30 18408608071473197738
14866123 147 18338525136627482513
15183329 4 15647047144784174951
15188451 53 18060134345265724475
15352361 1 18410581681764708449
15519825 34 15266765733218680567
15728490 51 18342171190273302422
17492 89 18267871584362123550
17857418 61 18411141337499312763
20028762 73 18272653454472800470
20843269 155 18336542712477270690
21033650 10 16081359722967067805
21307412 95 17911253714664916629
21315764 119 16515400759736447475
21478907 32 18411704296639183345
21585483 132 18197197343335265815
21703447 108 18337100254945625192
23522609 53 18050324497869998372
23559900 14 18335980964882810945
23569943 247 18409730673658015163
23622692 118 18410009927138944880
3004659 81 18113615707268359059
314194 84 18198634430854014193
335352 9 18263930942925090357
397830 11 17988628698060308738
439807 62 18334296487652298911
444735 79 18340753919827037984
444769 64 18409736128450330561
4461854 278 18131359630683024318
46194498 28 17532649255753049701
463206 1 18268715077063072399
5104073 3 18271816713054265656
559249 180 18336828594148143777
5718773 13 18410854364911982022
57307002 182 14476668767335821771
6034566 193 8391182463701104322
76465 3 18410577287981685029
7970288 3 18410571786129033570
9709674 26 18262811777331392777

>  <PUBCHEM_SHAPE_MULTIPOLES>  (1) 
496.64
16.42
3.99
0.98
0.01
1.55
0
-20.38
0
0
0
0
-0.51
-2.14

>  <PUBCHEM_SHAPE_SELFOVERLAP>  (1) 
1055.711

>  <PUBCHEM_SHAPE_VOLUME>  (1) 
281

>  <PUBCHEM_COORDINATE_TYPE>  (1) 
2
5
10

$$$$
