37180
     RDKit          3D

 21 24  0  0  1  0  0  0  0  0999 V2000
    6.1127   -0.0612    0.5157 O   0  0  0  0  0  0  0  0  0  0  0  0
   -0.3975    2.0679    0.1863 O   0  0  0  0  0  0  0  0  0  0  0  0
    3.4101    0.2370   -0.3263 N   0  0  0  0  0  0  0  0  0  0  0  0
   -2.7240   -1.8529   -0.1377 N   0  0  0  0  0  0  0  0  0  0  0  0
    0.9981    0.0797    0.1490 C   0  0  0  0  0  0  0  0  0  0  0  0
    0.9294   -1.2378   -0.6561 C   0  0  0  0  0  0  0  0  0  0  0  0
    2.1375    0.9542   -0.3678 C   0  0  0  0  0  0  0  0  0  0  0  0
   -0.2157   -2.1473   -0.1844 C   0  0  0  0  0  0  0  0  0  0  0  0
   -0.3412    0.8440    0.1062 C   0  0  0  0  0  0  0  0  0  0  0  0
   -1.4591   -1.3416   -0.0976 C   0  0  0  0  0  0  0  0  0  0  0  0
   -1.5433    0.0275    0.0344 C   0  0  0  0  0  0  0  0  0  0  0  0
    3.7478   -0.1475    1.0513 C   0  0  0  0  0  0  0  0  0  0  0  0
    4.4886    1.0543   -0.8996 C   0  0  0  0  0  0  0  0  0  0  0  0
   -2.9261    0.3687    0.0652 C   0  0  0  0  0  0  0  0  0  0  0  0
   -3.6423   -0.8292   -0.0434 C   0  0  0  0  0  0  0  0  0  0  0  0
    5.0850   -0.8827    1.0711 C   0  0  0  0  0  0  0  0  0  0  0  0
    5.8077    0.2899   -0.8345 C   0  0  0  0  0  0  0  0  0  0  0  0
   -3.6478    1.5755    0.1763 C   0  0  0  0  0  0  0  0  0  0  0  0
   -5.0414   -0.8756   -0.0465 C   0  0  0  0  0  0  0  0  0  0  0  0
   -5.0471    1.5424    0.1742 C   0  0  0  0  0  0  0  0  0  0  0  0
   -5.7313    0.3345    0.0642 C   0  0  0  0  0  0  0  0  0  0  0  0
  1 16  1  0
  1 17  1  0
  2  9  2  0
  3  7  1  0
  3 12  1  0
  3 13  1  0
  4 10  1  0
  4 15  1  0
  5  6  1  0
  5  7  1  0
  5  9  1  0
  6  8  1  0
  8 10  1  0
  9 11  1  0
 10 11  2  0
 11 14  1  0
 12 16  1  0
 13 17  1  0
 14 15  2  0
 14 18  1  0
 15 19  1  0
 18 20  2  0
 19 21  2  0
 20 21  1  0
M  END
>  <PUBCHEM_COMPOUND_CID>  (1) 
37180

>  <PUBCHEM_CONFORMER_RMSD>  (1) 
0.6

>  <PUBCHEM_CONFORMER_DIVERSEORDER>  (1) 
1
5
10
3
6
11
4
12
8
2
9
7

>  <PUBCHEM_MMFF94_PARTIAL_CHARGES>  (1) 
24
1 -0.56
10 -0.33
11 -0.09
12 0.27
13 0.27
15 -0.15
16 0.28
17 0.28
18 -0.15
19 -0.15
2 -0.57
20 -0.15
21 -0.15
3 -0.81
33 0.27
38 0.15
39 0.15
4 0.03
40 0.15
41 0.15
5 0.06
7 0.27
8 0.18
9 0.6

>  <PUBCHEM_EFFECTIVE_ROTOR_COUNT>  (1) 
3.8

>  <PUBCHEM_PHARMACOPHORE_FEATURES>  (1) 
9
1 1 acceptor
1 2 acceptor
1 3 cation
1 4 cation
1 4 donor
5 4 10 11 14 15 rings
6 1 3 12 13 16 17 rings
6 14 15 18 19 20 21 rings
6 5 6 8 9 10 11 rings

>  <PUBCHEM_HEAVY_ATOM_COUNT>  (1) 
21

>  <PUBCHEM_ATOM_DEF_STEREO_COUNT>  (1) 
0

>  <PUBCHEM_ATOM_UDEF_STEREO_COUNT>  (1) 
1

>  <PUBCHEM_BOND_DEF_STEREO_COUNT>  (1) 
0

>  <PUBCHEM_BOND_UDEF_STEREO_COUNT>  (1) 
0

>  <PUBCHEM_ISOTOPIC_ATOM_COUNT>  (1) 
0

>  <PUBCHEM_COMPONENT_COUNT>  (1) 
1

>  <PUBCHEM_CACTVS_TAUTO_COUNT>  (1) 
8

>  <PUBCHEM_CONFORMER_ID>  (1) 
0000913C00000001

>  <PUBCHEM_MMFF94_ENERGY>  (1) 
38.1758

>  <PUBCHEM_FEATURE_SELFOVERLAP>  (1) 
45.846

>  <PUBCHEM_SHAPE_FINGERPRINT>  (1) 
10062212 137 18409725200945889679
10411042 1 17835803367738080407
10906281 52 18337973223805860579
11578080 2 17025138628355585191
11646440 116 17846226574464221241
12107183 9 17539115161075343176
12236239 1 18040435499247798480
12390115 104 17987248733273546529
12403259 415 18060133271170472960
12596602 18 17312825995749388041
12788726 201 18342748381747778304
13533116 47 12607415364825180060
13583140 156 17313396655190360465
13862211 1 18412822521301928303
14251764 18 18261110798346035830
14466204 15 18341048527827763577
14573314 32 17561089077023627300
14790565 3 18409454703889958220
15042514 8 18196091273376421631
15099037 51 18413390951127061284
15183329 4 18408042905194955716
15196674 1 18411984620047362807
15788980 27 18260831505159886144
1601671 61 18413388717770544992
17349148 13 18342738537270772181
1813 80 16950567628040866574
19489759 90 17775004578977137377
19784866 9 18334293145539956291
20281389 69 18187363229224831109
21033648 29 16343410726812643968
21267235 1 18339368560640031035
21279426 13 18199192775995904590
23402539 116 18271801341386723181
23536379 177 17821445750910738288
23559900 14 18059291071482027056
300161 21 18260826021035366172
3004659 81 18335144185574084460
335352 9 18411699907387893813
345986 75 17532631487436487560
34797466 226 17489315234416708116
34934 24 18341891853704995527
3545911 37 18272373061990481695
3680242 22 18336832983235397018
4072396 5 18341605993302898922
4073 2 17822579434094822314
4214541 1 18410293622661207293
474229 33 18411982451157196783
5104073 3 18338237175321506464
5385378 56 18128828455993777475
542803 24 17967253104804099724
559249 180 18408318869639091090
59755656 215 18272657797058737406
6138700 20 18411422769943231366
7226269 152 18131072619186662833

>  <PUBCHEM_SHAPE_MULTIPOLES>  (1) 
410.47
13.88
1.79
0.84
7.79
0.21
-0.05
-2.07
-0.68
-1.27
0.08
0.96
0.03
-0.77

>  <PUBCHEM_SHAPE_SELFOVERLAP>  (1) 
897.464

>  <PUBCHEM_SHAPE_VOLUME>  (1) 
221.3

>  <PUBCHEM_COORDINATE_TYPE>  (1) 
2
5
10

$$$$
