37182
     RDKit          3D

 14 14  0  0  0  0  0  0  0  0999 V2000
    1.8126   -2.6135    0.0019 O   0  0  0  0  0  0  0  0  0  0  0  0
    3.2300   -0.9371    0.0003 O   0  0  0  0  0  0  0  0  0  0  0  0
   -3.6984    0.2226    0.0021 O   0  0  0  0  0  0  0  0  0  0  0  0
   -2.9174   -1.8290   -0.0009 O   0  0  0  0  0  0  0  0  0  0  0  0
    2.0591   -1.3844    0.0006 N   0  0  0  0  0  0  0  0  0  0  0  0
    0.3161    3.1898    0.0009 N   0  0  0  0  0  0  0  0  0  0  0  0
   -2.7397   -0.5869    0.0002 N   0  0  0  0  0  0  0  0  0  0  0  0
    1.1944    0.9113   -0.0007 C   0  0  0  0  0  0  0  0  0  0  0  0
    0.9726   -0.4659   -0.0014 C   0  0  0  0  0  0  0  0  0  0  0  0
    0.1127    1.7920    0.0000 C   0  0  0  0  0  0  0  0  0  0  0  0
   -1.4127   -0.0815   -0.0010 C   0  0  0  0  0  0  0  0  0  0  0  0
   -0.3310   -0.9624   -0.0016 C   0  0  0  0  0  0  0  0  0  0  0  0
   -1.1907    1.2956   -0.0002 C   0  0  0  0  0  0  0  0  0  0  0  0
    2.5924    1.4494   -0.0002 C   0  0  0  0  0  0  0  0  0  0  0  0
  1  5  1  0
  2  5  2  0
  3  7  1  0
  4  7  2  0
  5  9  1  0
  6 10  1  0
  7 11  1  0
  8  9  2  0
  8 10  1  0
  8 14  1  0
  9 12  1  0
 10 13  2  0
 11 12  2  0
 11 13  1  0
M  CHG  4   1  -1   3  -1   5   1   7   1
M  END
>  <PUBCHEM_COMPOUND_CID>  (1) 
37182

>  <PUBCHEM_CONFORMER_RMSD>  (1) 
0.6

>  <PUBCHEM_CONFORMER_DIVERSEORDER>  (1) 
1

>  <PUBCHEM_MMFF94_PARTIAL_CHARGES>  (1) 
18
1 -0.52
10 0.1
11 0.13
12 -0.15
13 -0.15
14 0.14
15 0.15
16 0.15
2 -0.52
20 0.4
21 0.4
3 -0.52
4 -0.52
5 0.91
6 -0.9
7 0.91
8 -0.14
9 0.13

>  <PUBCHEM_EFFECTIVE_ROTOR_COUNT>  (1) 
2

>  <PUBCHEM_PHARMACOPHORE_FEATURES>  (1) 
9
1 1 acceptor
1 1 anion
1 2 acceptor
1 3 acceptor
1 3 anion
1 4 acceptor
1 6 cation
1 6 donor
6 8 9 10 11 12 13 rings

>  <PUBCHEM_HEAVY_ATOM_COUNT>  (1) 
14

>  <PUBCHEM_ATOM_DEF_STEREO_COUNT>  (1) 
0

>  <PUBCHEM_ATOM_UDEF_STEREO_COUNT>  (1) 
0

>  <PUBCHEM_BOND_DEF_STEREO_COUNT>  (1) 
0

>  <PUBCHEM_BOND_UDEF_STEREO_COUNT>  (1) 
0

>  <PUBCHEM_ISOTOPIC_ATOM_COUNT>  (1) 
0

>  <PUBCHEM_COMPONENT_COUNT>  (1) 
1

>  <PUBCHEM_CACTVS_TAUTO_COUNT>  (1) 
1

>  <PUBCHEM_CONFORMER_ID>  (1) 
0000913E00000001

>  <PUBCHEM_MMFF94_ENERGY>  (1) 
66.9169

>  <PUBCHEM_FEATURE_SELFOVERLAP>  (1) 
45.834

>  <PUBCHEM_SHAPE_FINGERPRINT>  (1) 
1 1 18050004698972997333
10967382 1 18410573989483387175
11471102 20 18410288155526347397
14251717 144 18267015244601771271
15442244 35 18340772542330732513
161256 15 18411980235123052396
16945 1 18266741479070231749
17990270 104 18336825415497765955
19021347 11 18194401314738485078
193761 8 18194401087348266180
20201158 50 18407758123093660819
20588541 1 18261957473812728568
20645477 70 18411976997055665959
20711985 365 18192992621484835133
20871998 184 17913200971195588006
20871998 22 18270407079033387454
21501502 16 18339366253535919256
2334 1 18410856559692744965
23463225 33 18410856538186071612
23526114 1 18338797917672221478
23552423 10 18334299738404198820
23559900 14 18051968131268637594
241688 4 18337674092255831480
2748010 2 18411131407524440012
53812653 166 18198621218954785376
63268167 104 18411142471671346513
7364860 26 18268710678604682353
81228 2 18048603620469230632

>  <PUBCHEM_SHAPE_MULTIPOLES>  (1) 
249.69
4.47
2.73
0.57
2.26
0.6
0
-1.6
0
-1.17
0
-0.02
0.03
0

>  <PUBCHEM_SHAPE_SELFOVERLAP>  (1) 
530.393

>  <PUBCHEM_SHAPE_VOLUME>  (1) 
141

>  <PUBCHEM_COORDINATE_TYPE>  (1) 
2
5
10

$$$$
