37185
     RDKit          3D

 14 14  0  0  0  0  0  0  0  0999 V2000
    0.8737    2.8195    0.5687 Cl  0  0  0  0  0  0  0  0  0  0  0  0
    2.4913   -0.0719   -0.1323 O   0  0  0  0  0  0  0  0  0  0  0  0
    1.0138   -1.6959    0.4611 O   0  0  0  0  0  0  0  0  0  0  0  0
    0.2282    0.3934   -0.2993 N   0  0  0  0  0  0  0  0  0  0  0  0
   -1.1751    0.0694   -0.1469 C   0  0  0  0  0  0  0  0  0  0  0  0
   -1.5549   -1.2375   -0.2961 C   0  0  0  0  0  0  0  0  0  0  0  0
   -2.0440    1.0880    0.1391 C   0  0  0  0  0  0  0  0  0  0  0  0
    0.6301    1.7162   -0.8011 C   0  0  0  0  0  0  0  0  0  0  0  0
    1.2184   -0.5620    0.0343 C   0  0  0  0  0  0  0  0  0  0  0  0
   -2.9063   -1.5496   -0.1482 C   0  0  0  0  0  0  0  0  0  0  0  0
   -3.3955    0.7760    0.2870 C   0  0  0  0  0  0  0  0  0  0  0  0
    3.5648   -0.9534    0.2185 C   0  0  0  0  0  0  0  0  0  0  0  0
   -3.8266   -0.5428    0.1434 C   0  0  0  0  0  0  0  0  0  0  0  0
    4.8819   -0.2493   -0.0284 C   0  0  0  0  0  0  0  0  0  0  0  0
  1  8  1  0
  2  9  1  0
  2 12  1  0
  3  9  2  0
  4  5  1  0
  4  8  1  0
  4  9  1  0
  5  6  2  0
  5  7  1  0
  6 10  1  0
  7 11  2  0
 10 13  2  0
 11 13  1  0
 12 14  1  0
M  END
>  <PUBCHEM_COMPOUND_CID>  (1) 
37185

>  <PUBCHEM_CONFORMER_RMSD>  (1) 
0.6

>  <PUBCHEM_CONFORMER_DIVERSEORDER>  (1) 
1
28
10
71
62
8
38
29
61
58
18
21
59
9
67
24
19
11
30
12
20
13
37
31
34
54
32
15
4
40
70
3
50
6
25
63
7
22
48
43
64
35
65
51
33
42
68
46
55
27
60
69
45
56
47
26
36
5
39
23
14
41
17
16
57
52
53
66
49
44
2

>  <PUBCHEM_MMFF94_PARTIAL_CHARGES>  (1) 
18
1 -0.29
10 -0.15
11 -0.15
12 0.28
13 -0.15
15 0.15
16 0.15
19 0.15
2 -0.43
20 0.15
23 0.15
3 -0.57
4 -0.48
5 0.12
6 -0.15
7 -0.15
8 0.59
9 0.78

>  <PUBCHEM_EFFECTIVE_ROTOR_COUNT>  (1) 
5

>  <PUBCHEM_PHARMACOPHORE_FEATURES>  (1) 
2
1 3 acceptor
6 5 6 7 10 11 13 rings

>  <PUBCHEM_HEAVY_ATOM_COUNT>  (1) 
14

>  <PUBCHEM_ATOM_DEF_STEREO_COUNT>  (1) 
0

>  <PUBCHEM_ATOM_UDEF_STEREO_COUNT>  (1) 
0

>  <PUBCHEM_BOND_DEF_STEREO_COUNT>  (1) 
0

>  <PUBCHEM_BOND_UDEF_STEREO_COUNT>  (1) 
0

>  <PUBCHEM_ISOTOPIC_ATOM_COUNT>  (1) 
0

>  <PUBCHEM_COMPONENT_COUNT>  (1) 
1

>  <PUBCHEM_CACTVS_TAUTO_COUNT>  (1) 
1

>  <PUBCHEM_CONFORMER_ID>  (1) 
0000914100000001

>  <PUBCHEM_MMFF94_ENERGY>  (1) 
44.7884

>  <PUBCHEM_FEATURE_SELFOVERLAP>  (1) 
10.148

>  <PUBCHEM_SHAPE_FINGERPRINT>  (1) 
108231 29 18410292523444803480
11132069 177 18410568466535194274
11680986 33 17974290125108427058
11806522 49 18337388360945307782
12032990 46 18410860936507155702
12251169 10 18412832378367637867
12382932 28 18339923693009084291
13132413 78 18411983533373326612
13214271 11 18343295946937869390
14993402 34 18411695461574405423
15375462 189 18186801348770624482
15536298 74 18271243940810967160
16945 1 18411136927047700855
17804303 29 18411985775446085533
18186145 218 11747225636483568518
18522853 276 18412263938966074737
200 152 18271514369442853807
20671657 1 18195531621371996396
21029758 11 18412538816799354029
21029758 27 18260556635853504276
21267235 1 18409739464490172527
21501502 16 18268997660072331837
2297311 6 18270973349734792702
232386 152 18411425028684241439
23402539 116 18342449331843740566
23463225 33 18335421231717086134
23552423 10 18263363762628491407
23557571 272 18271815558372025268
23559900 14 18270672185831528969
2748010 2 17974855274269824015
34934 24 18263638477036586163
537710 114 18334021609692575028
5493415 88 18338234967803053297
58734987 51 18412826863134082352
7364860 26 18198623422220195513
8809292 202 18114749342596288651

>  <PUBCHEM_SHAPE_MULTIPOLES>  (1) 
273.26
7.15
2.19
0.71
4.5
1.41
-0.02
-2.44
0.47
0.19
0.22
0.03
0.13
-0.2

>  <PUBCHEM_SHAPE_SELFOVERLAP>  (1) 
546.546

>  <PUBCHEM_SHAPE_VOLUME>  (1) 
161.3

>  <PUBCHEM_COORDINATE_TYPE>  (1) 
2
5
10

$$$$
