37202
     RDKit          3D

 13 13  0  0  0  0  0  0  0  0999 V2000
   -3.6017    0.3478   -0.0014 F   0  0  0  0  0  0  0  0  0  0  0  0
   -2.6288   -1.2602   -1.0839 F   0  0  0  0  0  0  0  0  0  0  0  0
   -2.6102   -1.2501    1.0906 F   0  0  0  0  0  0  0  0  0  0  0  0
    0.3140    1.9344   -0.0003 O   0  0  0  0  0  0  0  0  0  0  0  0
    2.6607   -1.6908    0.0006 O   0  0  0  0  0  0  0  0  0  0  0  0
    0.0050   -0.3060   -0.0002 N   0  0  0  0  0  0  0  0  0  0  0  0
    2.2322    0.6228    0.0004 N   0  0  0  0  0  0  0  0  0  0  0  0
   -1.2094    0.3313   -0.0008 C   0  0  0  0  0  0  0  0  0  0  0  0
    0.8187    0.6910    0.0000 C   0  0  0  0  0  0  0  0  0  0  0  0
   -1.0264    1.6917   -0.0008 C   0  0  0  0  0  0  0  0  0  0  0  0
   -2.4668   -0.4286   -0.0010 C   0  0  0  0  0  0  0  0  0  0  0  0
    3.0234   -0.5189    0.0006 C   0  0  0  0  0  0  0  0  0  0  0  0
    4.4892   -0.1643   -0.0036 C   0  0  0  0  0  0  0  0  0  0  0  0
  1 11  1  0
  2 11  1  0
  3 11  1  0
  4  9  1  0
  4 10  1  0
  5 12  2  0
  6  8  1  0
  6  9  2  0
  7  9  1  0
  7 12  1  0
  8 10  2  0
  8 11  1  0
 12 13  1  0
M  END
>  <PUBCHEM_COMPOUND_CID>  (1) 
37202

>  <PUBCHEM_CONFORMER_RMSD>  (1) 
0.6

>  <PUBCHEM_CONFORMER_DIVERSEORDER>  (1) 
1
4
2
3

>  <PUBCHEM_MMFF94_PARTIAL_CHARGES>  (1) 
15
1 -0.34
10 -0.01
11 1.2
12 0.57
13 0.06
14 0.15
15 0.37
2 -0.34
3 -0.34
4 -0.28
5 -0.57
6 -0.57
7 -0.49
8 0.05
9 0.54

>  <PUBCHEM_EFFECTIVE_ROTOR_COUNT>  (1) 
3

>  <PUBCHEM_PHARMACOPHORE_FEATURES>  (1) 
3
1 5 acceptor
1 7 donor
5 4 6 8 9 10 rings

>  <PUBCHEM_HEAVY_ATOM_COUNT>  (1) 
13

>  <PUBCHEM_ATOM_DEF_STEREO_COUNT>  (1) 
0

>  <PUBCHEM_ATOM_UDEF_STEREO_COUNT>  (1) 
0

>  <PUBCHEM_BOND_DEF_STEREO_COUNT>  (1) 
0

>  <PUBCHEM_BOND_UDEF_STEREO_COUNT>  (1) 
0

>  <PUBCHEM_ISOTOPIC_ATOM_COUNT>  (1) 
0

>  <PUBCHEM_COMPONENT_COUNT>  (1) 
1

>  <PUBCHEM_CACTVS_TAUTO_COUNT>  (1) 
3

>  <PUBCHEM_CONFORMER_ID>  (1) 
0000915200000001

>  <PUBCHEM_MMFF94_ENERGY>  (1) 
13.6072

>  <PUBCHEM_FEATURE_SELFOVERLAP>  (1) 
15.223

>  <PUBCHEM_SHAPE_FINGERPRINT>  (1) 
11769659 78 18343294890154355270
12032990 46 18408610283217428578
12932764 1 17346020200605583412
14252887 29 18131364002795265230
18186145 218 17022899085998721388
19107657 46 18409169930536626194
20201158 50 18334013891298766338
20281407 28 18272368672365002728
20645464 45 8718826517698460096
20645477 70 18342172293066983039
20711985 344 18042951108574475053
20871998 184 18201157641998134492
20871998 22 18271538510921235542
22485316 2 18342452638757269350
23402539 116 18259696792697622222
23552423 10 18187932742125293596
23559900 14 18337383830614432698
3312278 4 18333734606570526514
7364860 26 18267867370661914120

>  <PUBCHEM_SHAPE_MULTIPOLES>  (1) 
224.01
6.48
1.57
0.7
3.83
0.27
0
-2.23
-0.01
-0.29
0
-0.34
-0.17
0

>  <PUBCHEM_SHAPE_SELFOVERLAP>  (1) 
466.389

>  <PUBCHEM_SHAPE_VOLUME>  (1) 
130.1

>  <PUBCHEM_COORDINATE_TYPE>  (1) 
2
5
10

$$$$
