37211
     RDKit          3D

 24 27  0  0  0  0  0  0  0  0999 V2000
    8.1292   -0.4149    0.6225 O   0  0  0  0  0  0  0  0  0  0  0  0
    1.7806    0.1462   -0.1946 O   0  0  0  0  0  0  0  0  0  0  0  0
   -1.5237    1.5295   -0.1446 O   0  0  0  0  0  0  0  0  0  0  0  0
   -5.8029   -1.8615    0.1781 O   0  0  0  0  0  0  0  0  0  0  0  0
   -6.2974    0.9306    0.0568 O   0  0  0  0  0  0  0  0  0  0  0  0
    1.1423    2.3561   -0.2822 O   0  0  0  0  0  0  0  0  0  0  0  0
    5.4488   -0.3718   -0.3340 N   0  0  0  0  0  0  0  0  0  0  0  0
    5.8719    0.4550    0.8047 C   0  0  0  0  0  0  0  0  0  0  0  0
    6.2711   -1.5876   -0.4065 C   0  0  0  0  0  0  0  0  0  0  0  0
    4.0307   -0.7099   -0.2312 C   0  0  0  0  0  0  0  0  0  0  0  0
    7.3567    0.7848    0.6814 C   0  0  0  0  0  0  0  0  0  0  0  0
    7.7467   -1.2102   -0.5003 C   0  0  0  0  0  0  0  0  0  0  0  0
    3.1578    0.5315   -0.2623 C   0  0  0  0  0  0  0  0  0  0  0  0
   -2.3965   -0.5504   -0.0099 C   0  0  0  0  0  0  0  0  0  0  0  0
   -2.6799    0.8115   -0.0673 C   0  0  0  0  0  0  0  0  0  0  0  0
   -0.5015    0.6351   -0.1373 C   0  0  0  0  0  0  0  0  0  0  0  0
   -0.9806   -0.6517   -0.0561 C   0  0  0  0  0  0  0  0  0  0  0  0
    0.8261    1.1426   -0.2106 C   0  0  0  0  0  0  0  0  0  0  0  0
   -3.4647   -1.4620    0.0739 C   0  0  0  0  0  0  0  0  0  0  0  0
   -3.9665    1.3497   -0.0477 C   0  0  0  0  0  0  0  0  0  0  0  0
   -4.7688   -0.9523    0.0956 C   0  0  0  0  0  0  0  0  0  0  0  0
   -5.0125    0.4278    0.0357 C   0  0  0  0  0  0  0  0  0  0  0  0
   -7.0671   -1.3202    0.1963 C   0  0  0  0  0  0  0  0  0  0  0  0
   -7.2995   -0.0078    0.1395 C   0  0  0  0  0  0  0  0  0  0  0  0
  1 11  1  0
  1 12  1  0
  2 13  1  0
  2 18  1  0
  3 15  1  0
  3 16  1  0
  4 21  1  0
  4 23  1  0
  5 22  1  0
  5 24  1  0
  6 18  2  0
  7  8  1  0
  7  9  1  0
  7 10  1  0
  8 11  1  0
  9 12  1  0
 10 13  1  0
 14 15  2  0
 14 17  1  0
 14 19  1  0
 15 20  1  0
 16 17  2  0
 16 18  1  0
 19 21  2  0
 20 22  2  0
 21 22  1  0
 23 24  2  0
M  END
>  <PUBCHEM_COMPOUND_CID>  (1) 
37211

>  <PUBCHEM_CONFORMER_RMSD>  (1) 
0.8

>  <PUBCHEM_CONFORMER_DIVERSEORDER>  (1) 
1
77
73
46
25
36
79
18
54
12
85
78
28
13
75
72
23
6
14
62
60
47
44
70
38
69
76
71
11
45
26
35
41
87
22
66
56
19
16
30
53
57
27
84
86
59
50
74
42
4
67
58
65
31
49
48
9
43
24
40
5
3
82
80
33
52
68
83
20
2
64
39
21
88
89
37
15
51
61
34
63
55
7
8
32
17
81
10
29

>  <PUBCHEM_MMFF94_PARTIAL_CHARGES>  (1) 
28
1 -0.56
10 0.27
11 0.28
12 0.28
13 0.28
15 0.14
16 0.05
17 -0.15
18 0.81
19 -0.15
2 -0.43
20 -0.15
21 0.08
22 0.08
23 -0.07
24 -0.07
3 -0.28
37 0.15
38 0.15
39 0.15
4 -0.16
40 0.15
41 0.15
5 -0.16
6 -0.57
7 -0.81
8 0.27
9 0.27

>  <PUBCHEM_EFFECTIVE_ROTOR_COUNT>  (1) 
6.6

>  <PUBCHEM_PHARMACOPHORE_FEATURES>  (1) 
10
1 1 acceptor
1 3 acceptor
1 4 acceptor
1 5 acceptor
1 6 acceptor
1 7 cation
5 3 14 15 16 17 rings
6 1 7 8 9 11 12 rings
6 14 15 19 20 21 22 rings
6 4 5 21 22 23 24 rings

>  <PUBCHEM_HEAVY_ATOM_COUNT>  (1) 
24

>  <PUBCHEM_ATOM_DEF_STEREO_COUNT>  (1) 
0

>  <PUBCHEM_ATOM_UDEF_STEREO_COUNT>  (1) 
0

>  <PUBCHEM_BOND_DEF_STEREO_COUNT>  (1) 
0

>  <PUBCHEM_BOND_UDEF_STEREO_COUNT>  (1) 
0

>  <PUBCHEM_ISOTOPIC_ATOM_COUNT>  (1) 
0

>  <PUBCHEM_COMPONENT_COUNT>  (1) 
1

>  <PUBCHEM_CACTVS_TAUTO_COUNT>  (1) 
1

>  <PUBCHEM_CONFORMER_ID>  (1) 
0000915B00000001

>  <PUBCHEM_MMFF94_ENERGY>  (1) 
47.2002

>  <PUBCHEM_FEATURE_SELFOVERLAP>  (1) 
50.897

>  <PUBCHEM_SHAPE_FINGERPRINT>  (1) 
10 15 17775565360314790132
10050765 1 18050568443727398822
10299344 5 18113901559159655090
106641 1 17918272082490447378
10670039 82 12901534737364910071
11315181 36 18272654550015722329
11524674 6 17060337435534411983
11719270 70 18272091591583506646
11991303 11 13984955051386611648
12516196 113 18342738516349979400
12643181 29 17676488379777842627
12838862 33 18337655469256523718
13288520 33 18408605859976133141
13685833 64 18412826889235955168
13885169 127 18410855430485754153
13968360 50 14851596666583516184
14251764 18 18342459257080397996
14251764 46 18411136930809911663
14556957 393 15285648638028467366
14933364 13 18344145887080795400
15183329 4 15791729702782854834
15419008 47 18131626773163574552
15419008 91 18262779835802674052
15510794 2 18272373049865540606
15690457 1 18272366503591615503
15716309 27 18060699498421155302
15849732 13 18342175574632863894
17093844 174 18410573977463830729
18006028 8 18273214192385577856
20157964 124 12251899283848213136
21130935 74 18201442441374984146
21150785 3 14056720153798548355
21267235 1 18334018315679226283
21315763 28 18409448068771861416
21360443 120 17385443198441414906
21623969 137 17775007869270408438
21792934 111 18343295976792332529
22224240 67 16702299062071985534
23035841 295 18259985972159892274
23198884 109 14417851436453251117
232437 2 18408041794064684642
23522609 53 18045533904422749092
23559900 14 18339076116079801113
3004659 81 18040718078215876612
335352 9 18408321086849622341
3383291 50 18260552268215500827
34797466 226 17131839785465395484
4073 2 18115028631861790330
4339292 15 15553870201564412765
559249 180 18408604764817585855
59682541 35 17989203780742842522
6138700 20 18334859411630174987
67123 10 18408324394148363828
999808 66 17968108542310376475

>  <PUBCHEM_SHAPE_MULTIPOLES>  (1) 
453.71
24.85
1.7
0.69
23.96
0.09
0.04
-8.06
2.81
-0.55
-0.1
0.55
0
0.81

>  <PUBCHEM_SHAPE_SELFOVERLAP>  (1) 
989.342

>  <PUBCHEM_SHAPE_VOLUME>  (1) 
246.5

>  <PUBCHEM_COORDINATE_TYPE>  (1) 
2
5
10

$$$$
