37219
     RDKit          3D

 23 25  0  0  0  0  0  0  0  0999 V2000
   -0.1521    0.0657    0.0442 O   0  0  0  0  0  0  0  0  0  0  0  0
    2.3476   -0.5781    0.0519 O   0  0  0  0  0  0  0  0  0  0  0  0
   -5.6197   -0.0414   -0.0411 O   0  0  0  0  0  0  0  0  0  0  0  0
   -4.3193    2.4780    0.0859 O   0  0  0  0  0  0  0  0  0  0  0  0
    1.9239   -2.8297   -0.0514 O   0  0  0  0  0  0  0  0  0  0  0  0
    6.7183    1.5221    0.2394 N   0  0  0  0  0  0  0  0  0  0  0  0
   -2.1098   -1.0601   -0.0332 C   0  0  0  0  0  0  0  0  0  0  0  0
   -1.0430   -1.9974   -0.0578 C   0  0  0  0  0  0  0  0  0  0  0  0
    4.5113    0.4673    0.1268 C   0  0  0  0  0  0  0  0  0  0  0  0
    6.0201    0.2451    0.1536 C   0  0  0  0  0  0  0  0  0  0  0  0
   -1.5091    0.1943    0.0296 C   0  0  0  0  0  0  0  0  0  0  0  0
    0.1196   -1.2640   -0.0091 C   0  0  0  0  0  0  0  0  0  0  0  0
    3.7535   -0.8517    0.0593 C   0  0  0  0  0  0  0  0  0  0  0  0
   -3.5142   -1.1386   -0.0573 C   0  0  0  0  0  0  0  0  0  0  0  0
   -2.2077    1.4008    0.0711 C   0  0  0  0  0  0  0  0  0  0  0  0
   -4.2440    0.0559   -0.0168 C   0  0  0  0  0  0  0  0  0  0  0  0
   -3.6006    1.3007    0.0461 C   0  0  0  0  0  0  0  0  0  0  0  0
   -1.1596   -3.4673   -0.1237 C   0  0  0  0  0  0  0  0  0  0  0  0
    1.4877   -1.6592   -0.0066 C   0  0  0  0  0  0  0  0  0  0  0  0
    6.4210    2.3518   -0.9296 C   0  0  0  0  0  0  0  0  0  0  0  0
    8.1624    1.3134    0.3595 C   0  0  0  0  0  0  0  0  0  0  0  0
   -6.2986    1.1541   -0.0003 C   0  0  0  0  0  0  0  0  0  0  0  0
   -5.6874    2.3383    0.0596 C   0  0  0  0  0  0  0  0  0  0  0  0
  1 11  1  0
  1 12  1  0
  2 13  1  0
  2 19  1  0
  3 16  1  0
  3 22  1  0
  4 17  1  0
  4 23  1  0
  5 19  2  0
  6 10  1  0
  6 20  1  0
  6 21  1  0
  7  8  1  0
  7 11  2  0
  7 14  1  0
  8 12  2  0
  8 18  1  0
  9 10  1  0
  9 13  1  0
 11 15  1  0
 12 19  1  0
 14 16  2  0
 15 17  2  0
 16 17  1  0
 22 23  2  0
M  END
>  <PUBCHEM_COMPOUND_CID>  (1) 
37219

>  <PUBCHEM_CONFORMER_RMSD>  (1) 
0.8

>  <PUBCHEM_CONFORMER_DIVERSEORDER>  (1) 
1
31
52
60
51
9
36
22
61
4
59
29
62
37
26
24
35
45
30
20
32
28
55
16
13
49
40
42
65
44
21
56
3
14
17
47
58
33
57
11
38
6
53
64
23
19
18
2
5
48
7
39
63
10
27
34
12
15
54
46
41
50
25
8
43

>  <PUBCHEM_MMFF94_PARTIAL_CHARGES>  (1) 
25
1 -0.28
10 0.27
11 0.14
12 0.05
13 0.28
14 -0.15
15 -0.15
16 0.08
17 0.08
18 0.18
19 0.81
2 -0.43
20 0.27
21 0.27
22 -0.07
23 -0.07
3 -0.16
30 0.15
31 0.15
4 -0.16
41 0.15
42 0.15
5 -0.57
6 -0.81
8 -0.18

>  <PUBCHEM_EFFECTIVE_ROTOR_COUNT>  (1) 
6.4

>  <PUBCHEM_PHARMACOPHORE_FEATURES>  (1) 
8
1 1 acceptor
1 3 acceptor
1 4 acceptor
1 5 acceptor
1 6 cation
5 1 7 8 11 12 rings
6 3 4 16 17 22 23 rings
6 7 11 14 15 16 17 rings

>  <PUBCHEM_HEAVY_ATOM_COUNT>  (1) 
23

>  <PUBCHEM_ATOM_DEF_STEREO_COUNT>  (1) 
0

>  <PUBCHEM_ATOM_UDEF_STEREO_COUNT>  (1) 
0

>  <PUBCHEM_BOND_DEF_STEREO_COUNT>  (1) 
0

>  <PUBCHEM_BOND_UDEF_STEREO_COUNT>  (1) 
0

>  <PUBCHEM_ISOTOPIC_ATOM_COUNT>  (1) 
0

>  <PUBCHEM_COMPONENT_COUNT>  (1) 
1

>  <PUBCHEM_CACTVS_TAUTO_COUNT>  (1) 
1

>  <PUBCHEM_CONFORMER_ID>  (1) 
0000916300000001

>  <PUBCHEM_MMFF94_ENERGY>  (1) 
47.0758

>  <PUBCHEM_FEATURE_SELFOVERLAP>  (1) 
40.742

>  <PUBCHEM_SHAPE_FINGERPRINT>  (1) 
10 15 18187368722645881729
10050765 1 18410855460678002742
10411042 1 17762617696023519959
12107183 9 18262789663494475306
12390115 104 18272101473632821809
12760667 363 9007057963275825445
12838862 33 18338498799292157740
14257110 125 18410292510591504360
14790565 3 18268433434497929361
15183329 4 15769779044282847004
15196674 1 18267303132629357867
15778101 99 18410293644821755034
15961568 22 18408605829495280612
16989713 51 17415834940735846479
17980427 23 18187085091358309550
18608769 82 18340208604429565611
19427546 20 18341608282715984815
19611394 137 17969235605841801883
20281389 69 18187644678879799444
20526848 3 18408888442996598132
20554085 129 17846482739721402682
20642791 178 18042417974194280813
21298829 104 18411422773827320069
21756936 100 18341606053400955294
2297311 6 8790890687563420198
23559900 14 18056194674718361334
245318 6 17605575446654860700
270888 7 18411135801260068472
2838139 119 18271519892760318188
3411729 13 18336263458283696450
3472631 163 18411705400482176012
34797466 226 17989212503515173599
4073 2 18114467842456559314
44249763 50 17488447754639792024
5104073 3 18114749230805781171
543368 44 18341331120076063605
59682541 35 18261684739980559465
59682541 52 17060067995714836916
5969126 39 18055628671254319511
6327066 14 18410852140361113421
636775 72 18342452703678502472
77188 2 17402048899370779646
7808743 9 18410007762849909290
9981440 41 18334582369002133858

>  <PUBCHEM_SHAPE_MULTIPOLES>  (1) 
439
18.73
3.11
0.64
28.8
1.24
0.04
-17.8
-0.37
-0.87
0.24
0.33
-0.1
-0.49

>  <PUBCHEM_SHAPE_SELFOVERLAP>  (1) 
943.562

>  <PUBCHEM_SHAPE_VOLUME>  (1) 
245.5

>  <PUBCHEM_COORDINATE_TYPE>  (1) 
2
5
10

$$$$
