37220
     RDKit          3D

 11 11  0  0  0  0  0  0  0  0999 V2000
   -0.2082    2.0039   -0.0002 O   0  0  0  0  0  0  0  0  0  0  0  0
   -2.6508    0.4250    0.0002 O   0  0  0  0  0  0  0  0  0  0  0  0
   -2.3405   -1.7483   -0.0004 O   0  0  0  0  0  0  0  0  0  0  0  0
    0.4002   -1.4133    0.0004 N   0  0  0  0  0  0  0  0  0  0  0  0
    1.6279    0.4374   -0.0002 N   0  0  0  0  0  0  0  0  0  0  0  0
   -1.8717   -0.5726    0.0000 N   0  0  0  0  0  0  0  0  0  0  0  0
   -0.4881   -0.3749   -0.0001 C   0  0  0  0  0  0  0  0  0  0  0  0
    1.6578   -0.8768    0.0004 C   0  0  0  0  0  0  0  0  0  0  0  0
    0.2932    0.7567    0.0000 C   0  0  0  0  0  0  0  0  0  0  0  0
    2.8580   -1.7332   -0.0003 C   0  0  0  0  0  0  0  0  0  0  0  0
    0.7222    3.0959    0.0000 C   0  0  0  0  0  0  0  0  0  0  0  0
  1  9  1  0
  1 11  1  0
  2  6  1  0
  3  6  2  0
  4  7  1  0
  4  8  1  0
  5  8  2  0
  5  9  1  0
  6  7  1  0
  7  9  2  0
  8 10  1  0
M  CHG  2   2  -1   6   1
M  END
>  <PUBCHEM_COMPOUND_CID>  (1) 
37220

>  <PUBCHEM_CONFORMER_RMSD>  (1) 
0.4

>  <PUBCHEM_CONFORMER_DIVERSEORDER>  (1) 
1
2
3

>  <PUBCHEM_MMFF94_PARTIAL_CHARGES>  (1) 
12
1 -0.34
10 0.18
11 0.28
12 0.27
2 -0.52
3 -0.52
4 0.03
5 -0.57
6 0.96
7 -0.07
8 0.01
9 0.29

>  <PUBCHEM_EFFECTIVE_ROTOR_COUNT>  (1) 
2

>  <PUBCHEM_PHARMACOPHORE_FEATURES>  (1) 
7
1 1 acceptor
1 2 acceptor
1 2 anion
1 3 acceptor
1 4 donor
3 4 5 8 cation
5 4 5 7 8 9 rings

>  <PUBCHEM_HEAVY_ATOM_COUNT>  (1) 
11

>  <PUBCHEM_ATOM_DEF_STEREO_COUNT>  (1) 
0

>  <PUBCHEM_ATOM_UDEF_STEREO_COUNT>  (1) 
0

>  <PUBCHEM_BOND_DEF_STEREO_COUNT>  (1) 
0

>  <PUBCHEM_BOND_UDEF_STEREO_COUNT>  (1) 
0

>  <PUBCHEM_ISOTOPIC_ATOM_COUNT>  (1) 
0

>  <PUBCHEM_COMPONENT_COUNT>  (1) 
1

>  <PUBCHEM_CACTVS_TAUTO_COUNT>  (1) 
2

>  <PUBCHEM_CONFORMER_ID>  (1) 
0000916400000001

>  <PUBCHEM_MMFF94_ENERGY>  (1) 
17.7295

>  <PUBCHEM_FEATURE_SELFOVERLAP>  (1) 
35.604

>  <PUBCHEM_SHAPE_FINGERPRINT>  (1) 
1 1 17906453581900317572
12716758 59 17477207128967081262
14648413 74 18336264669052484553
16945 1 18122625221436710406
193761 8 17617940674484383142
21040471 1 17185876640741033924
23552423 10 18195247947508809959
241688 4 18338798909867552992
2748010 2 18411975858298014366
29004967 10 18410292536013389058
81228 2 18123474869210474952

>  <PUBCHEM_SHAPE_MULTIPOLES>  (1) 
193.82
3.28
2.78
0.56
0.96
2.49
0
-2.18
0
-0.76
0
0.05
0.02
0

>  <PUBCHEM_SHAPE_SELFOVERLAP>  (1) 
398.585

>  <PUBCHEM_SHAPE_VOLUME>  (1) 
112.7

>  <PUBCHEM_COORDINATE_TYPE>  (1) 
2
5
10

$$$$
