37245
     RDKit          3D

 31 33  0  0  1  0  0  0  0  0999 V2000
   -0.8688   -0.1061    2.7611 Br  0  0  0  0  0  0  0  0  0  0  0  0
    1.7948    0.3723   -1.0553 O   0  0  0  0  0  0  0  0  0  0  0  0
   -5.9806    0.2351   -0.4534 O   0  0  0  0  0  0  0  0  0  0  0  0
   -5.2470   -2.1399    0.7897 O   0  0  0  0  0  0  0  0  0  0  0  0
   -0.9495    2.5661    0.0962 N   0  0  0  0  0  0  0  0  0  0  0  0
    6.1551    0.0859    0.7431 C   0  0  0  0  0  0  0  0  0  0  0  0
    5.5273    0.0413   -0.6816 C   0  0  0  0  0  0  0  0  0  0  0  0
    6.9016   -1.2069    0.3082 C   0  0  0  0  0  0  0  0  0  0  0  0
    6.8995   -0.5684   -1.1173 C   0  0  0  0  0  0  0  0  0  0  0  0
    4.3360   -0.9331   -0.7331 C   0  0  0  0  0  0  0  0  0  0  0  0
    6.0126   -2.4461    0.4602 C   0  0  0  0  0  0  0  0  0  0  0  0
    4.8345   -2.3750   -0.5185 C   0  0  0  0  0  0  0  0  0  0  0  0
    7.0752    1.2785    0.9720 C   0  0  0  0  0  0  0  0  0  0  0  0
    5.2255   -0.0059    1.9353 C   0  0  0  0  0  0  0  0  0  0  0  0
    3.6083   -0.8012   -2.0677 C   0  0  0  0  0  0  0  0  0  0  0  0
    2.7448    0.4458   -2.1094 C   0  0  0  0  0  0  0  0  0  0  0  0
    0.9484    1.5140   -1.0348 C   0  0  0  0  0  0  0  0  0  0  0  0
   -0.0447    1.3890    0.1038 C   0  0  0  0  0  0  0  0  0  0  0  0
   -1.9910    2.4597    1.2184 C   0  0  0  0  0  0  0  0  0  0  0  0
   -0.1566    3.8639    0.3023 C   0  0  0  0  0  0  0  0  0  0  0  0
   -1.6964    2.6699   -1.2404 C   0  0  0  0  0  0  0  0  0  0  0  0
   -2.8338    1.2222    1.1228 C   0  0  0  0  0  0  0  0  0  0  0  0
   -4.0154    1.2869    0.3845 C   0  0  0  0  0  0  0  0  0  0  0  0
   -2.4657    0.0303    1.7470 C   0  0  0  0  0  0  0  0  0  0  0  0
   -4.8289    0.1597    0.2704 C   0  0  0  0  0  0  0  0  0  0  0  0
   -3.2792   -1.0970    1.6327 C   0  0  0  0  0  0  0  0  0  0  0  0
   -4.4608   -1.0323    0.8945 C   0  0  0  0  0  0  0  0  0  0  0  0
   -5.8579    0.5764   -1.8328 C   0  0  0  0  0  0  0  0  0  0  0  0
   -4.6618   -3.2962    0.1941 C   0  0  0  0  0  0  0  0  0  0  0  0
   -6.9785   -0.0855   -2.6060 C   0  0  0  0  0  0  0  0  0  0  0  0
   -5.7469   -4.1034   -0.4859 C   0  0  0  0  0  0  0  0  0  0  0  0
  1 24  1  0
  2 16  1  0
  2 17  1  0
  3 25  1  0
  3 28  1  0
  4 27  1  0
  4 29  1  0
  5 18  1  0
  5 19  1  0
  5 20  1  0
  5 21  1  0
  6  7  1  0
  6  8  1  0
  6 13  1  0
  6 14  1  0
  7  9  1  0
  7 10  1  0
  8  9  1  0
  8 11  1  0
 10 12  1  0
 10 15  1  0
 11 12  1  0
 15 16  1  0
 17 18  1  0
 19 22  1  0
 22 23  2  0
 22 24  1  0
 23 25  1  0
 24 26  2  0
 25 27  2  0
 26 27  1  0
 28 30  1  0
 29 31  1  0
M  CHG  1   5   1
M  END
>  <PUBCHEM_COMPOUND_CID>  (1) 
37245

>  <PUBCHEM_CONFORMER_RMSD>  (1) 
1.2

>  <PUBCHEM_CONFORMER_DIVERSEORDER>  (1) 
2
38
129
22
154
90
121
79
72
135
36
151
98
142
166
143
93
148
41
14
57
95
167
32
62
51
70
123
132
144
16
104
118
125
71
44
99
19
21
124
77
109
145
164
6
61
28
155
168
17
97
82
87
66
15
53
85
117
83
52
162
67
12
8
23
31
45
94
68
86
139
37
140
9
63
133
106
122
60
47
48
91
110
3
29
76
7
10
43
34
56
18
141
78
150
107
138
165
39
5
147
157
42
40
46
84
50
102
20
73
169
152
115
161
1
146
108
92
75
153
131
81
103
119
156
74
54
33
69
134
163
88
105
35
65
160
126
159
149
30
114
11
136
58
59
64
100
49
127
113
158
24
4
89
26
137
112
111
130
116
80
96
27
55
128
120
101
25
13

>  <PUBCHEM_MMFF94_PARTIAL_CHARGES>  (1) 
21
1 -0.11
16 0.28
17 0.28
18 0.5
19 0.65
2 -0.56
20 0.5
21 0.5
22 -0.14
23 -0.15
24 0.11
25 0.08
26 -0.15
27 0.08
28 0.28
29 0.28
3 -0.36
4 -0.36
5 -1.01
63 0.15
64 0.15

>  <PUBCHEM_EFFECTIVE_ROTOR_COUNT>  (1) 
13

>  <PUBCHEM_PHARMACOPHORE_FEATURES>  (1) 
8
1 1 hydrophobe
1 2 acceptor
1 3 acceptor
1 4 acceptor
1 5 cation
3 6 13 14 hydrophobe
6 22 23 24 25 26 27 rings
7 6 7 8 9 10 11 12 rings

>  <PUBCHEM_HEAVY_ATOM_COUNT>  (1) 
31

>  <PUBCHEM_ATOM_DEF_STEREO_COUNT>  (1) 
0

>  <PUBCHEM_ATOM_UDEF_STEREO_COUNT>  (1) 
3

>  <PUBCHEM_BOND_DEF_STEREO_COUNT>  (1) 
0

>  <PUBCHEM_BOND_UDEF_STEREO_COUNT>  (1) 
0

>  <PUBCHEM_ISOTOPIC_ATOM_COUNT>  (1) 
0

>  <PUBCHEM_COMPONENT_COUNT>  (1) 
1

>  <PUBCHEM_CACTVS_TAUTO_COUNT>  (1) 
1

>  <PUBCHEM_CONFORMER_ID>  (1) 
0000917D00000002

>  <PUBCHEM_MMFF94_ENERGY>  (1) 
125.0127

>  <PUBCHEM_FEATURE_SELFOVERLAP>  (1) 
40.6

>  <PUBCHEM_SHAPE_FINGERPRINT>  (1) 
10369192 42 9439404636074499361
10391435 84 18337382829079996282
10613725 11 14634591566646283372
10842051 180 17131829906354565636
12390115 104 9943532881936117177
13560911 23 18127124170590615152
13761468 95 15792557558203933485
13782708 43 18057617477825646494
14347329 18 9223230698319127510
15183329 4 15357698604262141290
15188451 53 18114179688778874300
15510800 12 18201999980191540447
15684389 69 16629951248282554924
17349148 13 17532109240866641032
17857418 61 17603878780043333148
19377110 9 15770053913204542644
20511986 3 17240206564692540864
21223535 225 15140948548600558215
21458453 9 16702011023942329430
23559900 14 18187086199602964993
23572383 38 18334585620128547170
2838139 119 14562531778064521365
339767 52 18113344093932082066
38570 142 12901544624907360005
392239 28 15626225731991275087
4098825 35 15068628180084665129
4280585 95 18409166627980809345
437795 139 18338239396194598787
4394409 98 16443063880996296586
5085150 59 17749101158647304594
59755656 520 12107790692288703573
613672 6 18201452363033651535
6703917 75 12463287063745060692
9689198 14 10303814297673249887

>  <PUBCHEM_SHAPE_MULTIPOLES>  (1) 
621.32
21.1
3.62
2.29
14.65
0.95
0.07
12.67
4.2
-4.36
0.01
-1.26
-0.13
0.71

>  <PUBCHEM_SHAPE_SELFOVERLAP>  (1) 
1259.578

>  <PUBCHEM_SHAPE_VOLUME>  (1) 
374

>  <PUBCHEM_COORDINATE_TYPE>  (1) 
2
5
10

$$$$
