3726
     RDKit          3D

 27 30  0  0  1  0  0  0  0  0999 V2000
   -4.9165   -3.4521    2.3207 I   0  0  0  0  0  0  0  0  0  0  0  0
    7.0043   -0.2522   -0.1918 S   0  0  0  0  0  0  0  0  0  0  0  0
    7.3936   -1.4999    0.5511 O   0  0  0  0  0  0  0  0  0  0  0  0
    0.2986    1.1327   -0.0089 N   0  0  0  0  0  0  0  0  0  0  0  0
    0.1703   -1.0598   -0.3380 N   0  0  0  0  0  0  0  0  0  0  0  0
   -4.0451    3.7903    0.3735 N   0  0  0  0  0  0  0  0  0  0  0  0
   -1.0351    0.8391   -0.0580 C   0  0  0  0  0  0  0  0  0  0  0  0
   -1.0890   -0.5197   -0.2623 C   0  0  0  0  0  0  0  0  0  0  0  0
    0.9830   -0.0382   -0.1820 C   0  0  0  0  0  0  0  0  0  0  0  0
    2.4245   -0.0896   -0.1843 C   0  0  0  0  0  0  0  0  0  0  0  0
   -2.2856   -1.2968   -0.3835 C   0  0  0  0  0  0  0  0  0  0  0  0
   -2.0591    1.8432    0.0888 C   0  0  0  0  0  0  0  0  0  0  0  0
    3.0823   -1.2376    0.2568 C   0  0  0  0  0  0  0  0  0  0  0  0
    3.1607    1.0092   -0.6279 C   0  0  0  0  0  0  0  0  0  0  0  0
   -2.8768   -1.8589    0.7507 C   0  0  0  0  0  0  0  0  0  0  0  0
   -2.8666   -1.4975   -1.6382 C   0  0  0  0  0  0  0  0  0  0  0  0
    5.2125   -0.1885   -0.1889 C   0  0  0  0  0  0  0  0  0  0  0  0
    4.4762   -1.2871    0.2547 C   0  0  0  0  0  0  0  0  0  0  0  0
    4.5547    0.9598   -0.6302 C   0  0  0  0  0  0  0  0  0  0  0  0
   -2.5600    2.1510    1.3492 C   0  0  0  0  0  0  0  0  0  0  0  0
   -2.5507    2.5082   -1.0294 C   0  0  0  0  0  0  0  0  0  0  0  0
   -4.0417   -2.6171    0.6309 C   0  0  0  0  0  0  0  0  0  0  0  0
   -4.0313   -2.2555   -1.7580 C   0  0  0  0  0  0  0  0  0  0  0  0
   -4.6189   -2.8152   -0.6235 C   0  0  0  0  0  0  0  0  0  0  0  0
   -3.5433    3.1233    1.4369 C   0  0  0  0  0  0  0  0  0  0  0  0
   -3.5343    3.4645   -0.8351 C   0  0  0  0  0  0  0  0  0  0  0  0
    7.2935    1.1444    0.9267 C   0  0  0  0  0  0  0  0  0  0  0  0
  1 22  1  0
  2  3  2  0
  2 17  1  0
  2 27  1  0
  4  7  1  0
  4  9  1  0
  5  8  1  0
  5  9  2  0
  6 25  2  0
  6 26  1  0
  7  8  2  0
  7 12  1  0
  8 11  1  0
  9 10  1  0
 10 13  2  0
 10 14  1  0
 11 15  2  0
 11 16  1  0
 12 20  2  0
 12 21  1  0
 13 18  1  0
 14 19  2  0
 15 22  1  0
 16 23  2  0
 17 18  2  0
 17 19  1  0
 20 25  1  0
 21 26  2  0
 22 24  2  0
 23 24  1  0
M  END
>  <PUBCHEM_COMPOUND_CID>  (1) 
3726

>  <PUBCHEM_CONFORMER_RMSD>  (1) 
0.8

>  <PUBCHEM_CONFORMER_DIVERSEORDER>  (1) 
1
20
19
15
7
17
16
4
18
2
11
14
5
12
3
6
8
13
10
9

>  <PUBCHEM_MMFF94_PARTIAL_CHARGES>  (1) 
40
1 -0.08
10 0.05
11 0.05
12 0.05
13 -0.15
14 -0.15
15 -0.15
16 -0.15
17 0.06
18 -0.15
19 -0.15
2 0.24
20 -0.15
21 -0.15
22 0.08
23 -0.15
24 -0.15
25 0.16
26 0.16
27 0.19
28 0.27
29 0.15
3 -0.5
30 0.15
31 0.15
32 0.15
33 0.15
34 0.15
35 0.15
36 0.15
37 0.15
38 0.15
39 0.15
4 0.03
40 0.15
5 -0.57
6 -0.62
7 -0.2
8 0.17
9 0.13

>  <PUBCHEM_EFFECTIVE_ROTOR_COUNT>  (1) 
4

>  <PUBCHEM_PHARMACOPHORE_FEATURES>  (1) 
9
1 1 hydrophobe
1 3 acceptor
1 4 donor
1 6 acceptor
3 4 5 9 cation
5 4 5 7 8 9 rings
6 10 13 14 17 18 19 rings
6 11 15 16 22 23 24 rings
6 6 12 20 21 25 26 rings

>  <PUBCHEM_HEAVY_ATOM_COUNT>  (1) 
27

>  <PUBCHEM_ATOM_DEF_STEREO_COUNT>  (1) 
0

>  <PUBCHEM_ATOM_UDEF_STEREO_COUNT>  (1) 
1

>  <PUBCHEM_BOND_DEF_STEREO_COUNT>  (1) 
0

>  <PUBCHEM_BOND_UDEF_STEREO_COUNT>  (1) 
0

>  <PUBCHEM_ISOTOPIC_ATOM_COUNT>  (1) 
0

>  <PUBCHEM_COMPONENT_COUNT>  (1) 
1

>  <PUBCHEM_CACTVS_TAUTO_COUNT>  (1) 
3

>  <PUBCHEM_CONFORMER_ID>  (1) 
00000E8E00000001

>  <PUBCHEM_MMFF94_ENERGY>  (1) 
71.9231

>  <PUBCHEM_FEATURE_SELFOVERLAP>  (1) 
45.671

>  <PUBCHEM_SHAPE_FINGERPRINT>  (1) 
10319688 45 18056469784368923526
10411042 1 18196369441312301335
11101153 10 18265055923925170572
11545043 162 18131626777900750018
11809386 21 18334571339462417562
12107183 9 17976815381659423538
12616971 3 17458919154358191572
12760667 363 18338515352096058151
12788726 201 18337942463688514995
13073987 5 18410570700572380922
13540713 4 17986692388621091598
13583140 156 17346587557206026110
13631057 29 18411694421902403134
14118638 360 18337110181226917340
14844126 61 18342457058579687243
15131766 46 15795151481710967261
15439362 3 10666593718198531371
16087824 20 18340203000436364613
17844677 252 18271806852541991596
1813 80 18055374667119743663
19301679 30 18339093652452908723
19427546 20 18410291410668660757
20101258 96 18410861005290156929
21033648 144 18340195285889189148
21033648 29 17631714029512998288
21236236 1 18412543202071525316
22182313 1 17702965637750113502
23559900 14 18042397118228320662
249057 25 17967535709985074260
25147074 1 18189884345136742530
25269216 80 18190769529902872950
2747138 104 18265621055790283882
283562 15 18410006659101719563
3418910 222 18115597101017661228
350125 39 18341615953226771256
4058900 60 17763750888926918513
4073 2 18408042888833004346
4258327 124 18187940451439343845
4409770 3 18343014481189338471
484985 159 17822015328531844323
497634 4 18113615698863119438
504843 32 18116716219202245949
5104073 3 18410568462815286042
5171179 24 17773579711056148433
5969126 39 18200302329658132391
59755656 520 18266737978993886077
6009941 240 17676208001151824859
6677587 24 15800963204276231413

>  <PUBCHEM_SHAPE_MULTIPOLES>  (1) 
550.62
16.18
4.48
1.5
34.41
2.98
0.23
-7.73
3.64
-10.54
1.34
-2.52
-0.67
0.25

>  <PUBCHEM_SHAPE_SELFOVERLAP>  (1) 
1181.166

>  <PUBCHEM_SHAPE_VOLUME>  (1) 
310.5

>  <PUBCHEM_COORDINATE_TYPE>  (1) 
2
5
10

$$$$
