37263
     RDKit          3D

 14 15  0  0  1  0  0  0  0  0999 V2000
   -1.1836   -1.2020    0.0449 O   0  0  0  0  0  0  0  0  0  0  0  0
   -0.2489    2.7512   -0.1947 O   0  0  0  0  0  0  0  0  0  0  0  0
   -1.8039    1.0977    0.2069 N   0  0  0  0  0  0  0  0  0  0  0  0
    4.2033    0.2032   -0.0815 N   0  0  0  0  0  0  0  0  0  0  0  0
   -2.0402   -0.2491    0.6906 C   0  0  0  0  0  0  0  0  0  0  0  0
   -3.4796   -0.6708    0.4406 C   0  0  0  0  0  0  0  0  0  0  0  0
    0.5160    0.5303    0.0325 C   0  0  0  0  0  0  0  0  0  0  0  0
    0.1298   -0.8126    0.0342 C   0  0  0  0  0  0  0  0  0  0  0  0
   -0.5259    1.5755    0.0099 C   0  0  0  0  0  0  0  0  0  0  0  0
   -3.8137   -0.6703   -1.0411 C   0  0  0  0  0  0  0  0  0  0  0  0
    1.8694    0.8735   -0.0058 C   0  0  0  0  0  0  0  0  0  0  0  0
    1.0955   -1.8166   -0.0286 C   0  0  0  0  0  0  0  0  0  0  0  0
    2.8338   -0.1343   -0.0463 C   0  0  0  0  0  0  0  0  0  0  0  0
    2.4480   -1.4758   -0.0615 C   0  0  0  0  0  0  0  0  0  0  0  0
  1  5  1  0
  1  8  1  0
  2  9  2  0
  3  5  1  0
  3  9  1  0
  4 13  1  0
  5  6  1  0
  6 10  1  0
  7  8  2  0
  7  9  1  0
  7 11  1  0
  8 12  1  0
 11 13  2  0
 12 14  2  0
 13 14  1  0
M  END
>  <PUBCHEM_COMPOUND_CID>  (1) 
37263

>  <PUBCHEM_CONFORMER_RMSD>  (1) 
0.6

>  <PUBCHEM_CONFORMER_DIVERSEORDER>  (1) 
3
4
2
1

>  <PUBCHEM_MMFF94_PARTIAL_CHARGES>  (1) 
18
1 -0.36
11 -0.15
12 -0.15
13 0.1
14 -0.15
18 0.37
2 -0.57
22 0.15
23 0.15
24 0.15
25 0.4
26 0.4
3 -0.73
4 -0.9
5 0.58
7 0.09
8 0.08
9 0.54

>  <PUBCHEM_EFFECTIVE_ROTOR_COUNT>  (1) 
1.6

>  <PUBCHEM_PHARMACOPHORE_FEATURES>  (1) 
8
1 1 acceptor
1 10 hydrophobe
1 2 acceptor
1 3 donor
1 4 cation
1 4 donor
6 1 3 5 7 8 9 rings
6 7 8 11 12 13 14 rings

>  <PUBCHEM_HEAVY_ATOM_COUNT>  (1) 
14

>  <PUBCHEM_ATOM_DEF_STEREO_COUNT>  (1) 
0

>  <PUBCHEM_ATOM_UDEF_STEREO_COUNT>  (1) 
1

>  <PUBCHEM_BOND_DEF_STEREO_COUNT>  (1) 
0

>  <PUBCHEM_BOND_UDEF_STEREO_COUNT>  (1) 
0

>  <PUBCHEM_ISOTOPIC_ATOM_COUNT>  (1) 
0

>  <PUBCHEM_COMPONENT_COUNT>  (1) 
1

>  <PUBCHEM_CACTVS_TAUTO_COUNT>  (1) 
2

>  <PUBCHEM_CONFORMER_ID>  (1) 
0000918F00000003

>  <PUBCHEM_MMFF94_ENERGY>  (1) 
46.2992

>  <PUBCHEM_FEATURE_SELFOVERLAP>  (1) 
40.627

>  <PUBCHEM_SHAPE_FINGERPRINT>  (1) 
10219947 1 18411141371858979747
10967382 1 18410577326894639218
11132069 177 18343297102358048314
11206711 2 18263933154505440260
11401426 45 18412536630882332087
11471102 20 18409444799768888919
11680986 33 17979074108627297784
11806522 49 18200026373577389399
12032990 46 18410020943751210099
14251717 144 18340763844684257031
14576447 43 18200580523259288503
14993402 34 18272086132220896935
15757776 16 18411693301016230663
16945 1 18409456902865279786
193761 8 17905328429212211306
200 152 18202274806236831047
20201158 50 18334013899751518339
20871998 184 18200595787182141909
21029758 11 18342171198061591625
21501502 16 18194403294934725458
221490 88 17975976784931593331
2334 1 17690284132549085131
23388829 49 18413111671084490517
23402539 116 18342167873593146990
23402655 69 18340761555777781909
23463225 33 18408608058577291522
23559900 14 18194956336852593794
2748010 2 18194967331557090150
3071541 158 18114743853596325461
528886 8 18411416249934897834
7364860 26 18125723636735479897
81228 2 18189622635510078049

>  <PUBCHEM_SHAPE_MULTIPOLES>  (1) 
266.41
5.77
1.98
0.73
0.61
0.88
0.05
-1.5
0.63
-0.16
0.1
0.45
-0.08
-0.09

>  <PUBCHEM_SHAPE_SELFOVERLAP>  (1) 
570.179

>  <PUBCHEM_SHAPE_VOLUME>  (1) 
147

>  <PUBCHEM_COORDINATE_TYPE>  (1) 
2
5
10

$$$$
