37278
     RDKit          3D

 21 21  0  0  1  0  0  0  0  0999 V2000
    4.6279   -3.7153   -0.7712 Cl  0  0  0  0  0  0  0  0  0  0  0  0
    5.2492    3.3187    0.0545 Cl  0  0  0  0  0  0  0  0  0  0  0  0
   -5.7874    0.3056    0.0951 O   0  0  0  0  0  0  0  0  0  0  0  0
   -4.9718   -1.4502    1.2624 O   0  0  0  0  0  0  0  0  0  0  0  0
   -2.6379   -0.0464   -2.7859 O   0  0  0  0  0  0  0  0  0  0  0  0
    3.0716   -0.0825    0.0597 N   0  0  0  0  0  0  0  0  0  0  0  0
   -3.4689    1.0233   -0.8794 N   0  0  0  0  0  0  0  0  0  0  0  0
   -2.5019    0.2708    1.2478 C   0  0  0  0  0  0  0  0  0  0  0  0
    1.6949    0.0047    0.3530 C   0  0  0  0  0  0  0  0  0  0  0  0
   -1.0282    0.1774    0.9335 C   0  0  0  0  0  0  0  0  0  0  0  0
   -3.3931   -0.0774    0.0484 C   0  0  0  0  0  0  0  0  0  0  0  0
    3.7866   -1.3279    0.2565 C   0  0  0  0  0  0  0  0  0  0  0  0
    3.7866    1.0683   -0.4556 C   0  0  0  0  0  0  0  0  0  0  0  0
    1.0156    1.2077    0.1603 C   0  0  0  0  0  0  0  0  0  0  0  0
    1.0126   -1.1120    0.8359 C   0  0  0  0  0  0  0  0  0  0  0  0
   -0.3459    1.2940    0.4505 C   0  0  0  0  0  0  0  0  0  0  0  0
   -0.3489   -1.0256    1.1261 C   0  0  0  0  0  0  0  0  0  0  0  0
    3.7430   -2.1860   -0.9980 C   0  0  0  0  0  0  0  0  0  0  0  0
    4.3590    1.9067    0.6765 C   0  0  0  0  0  0  0  0  0  0  0  0
   -4.7775   -0.4852    0.5305 C   0  0  0  0  0  0  0  0  0  0  0  0
   -3.0854    0.9313   -2.2005 C   0  0  0  0  0  0  0  0  0  0  0  0
  1 18  1  0
  2 19  1  0
  3 20  1  0
  4 20  2  0
  5 21  2  0
  6  9  1  0
  6 12  1  0
  6 13  1  0
  7 11  1  0
  7 21  1  0
  8 10  1  0
  8 11  1  0
  9 14  2  0
  9 15  1  0
 10 16  2  0
 10 17  1  0
 11 20  1  0
 12 18  1  0
 13 19  1  0
 14 16  1  0
 15 17  2  0
M  END
>  <PUBCHEM_COMPOUND_CID>  (1) 
37278

>  <PUBCHEM_CONFORMER_RMSD>  (1) 
1

>  <PUBCHEM_CONFORMER_DIVERSEORDER>  (1) 
4
7
54
20
56
49
63
64
17
59
3
24
40
53
31
34
48
51
47
6
60
8
61
18
39
21
55
57
29
11
19
43
41
15
33
14
35
1
52
36
37
16
13
12
65
27
23
62
45
30
42
32
5
46
9
58
10
26
38
50
44
25
22
28
2

>  <PUBCHEM_MMFF94_PARTIAL_CHARGES>  (1) 
28
1 -0.29
10 -0.14
11 0.36
12 0.37
13 0.37
14 -0.15
15 -0.15
16 -0.15
17 -0.15
18 0.29
19 0.29
2 -0.29
20 0.66
21 0.57
29 0.15
3 -0.65
30 0.15
31 0.15
32 0.15
37 0.37
38 0.06
39 0.5
4 -0.57
5 -0.57
6 -0.84
7 -0.73
8 0.14
9 0.1

>  <PUBCHEM_EFFECTIVE_ROTOR_COUNT>  (1) 
10

>  <PUBCHEM_PHARMACOPHORE_FEATURES>  (1) 
7
1 3 acceptor
1 4 acceptor
1 5 acceptor
1 6 cation
1 7 donor
3 3 4 20 anion
6 9 10 14 15 16 17 rings

>  <PUBCHEM_HEAVY_ATOM_COUNT>  (1) 
21

>  <PUBCHEM_ATOM_DEF_STEREO_COUNT>  (1) 
0

>  <PUBCHEM_ATOM_UDEF_STEREO_COUNT>  (1) 
1

>  <PUBCHEM_BOND_DEF_STEREO_COUNT>  (1) 
0

>  <PUBCHEM_BOND_UDEF_STEREO_COUNT>  (1) 
0

>  <PUBCHEM_ISOTOPIC_ATOM_COUNT>  (1) 
0

>  <PUBCHEM_COMPONENT_COUNT>  (1) 
1

>  <PUBCHEM_CACTVS_TAUTO_COUNT>  (1) 
2

>  <PUBCHEM_CONFORMER_ID>  (1) 
0000919E00000004

>  <PUBCHEM_MMFF94_ENERGY>  (1) 
54.9489

>  <PUBCHEM_FEATURE_SELFOVERLAP>  (1) 
35.582

>  <PUBCHEM_SHAPE_FINGERPRINT>  (1) 
10498660 4 16226313825666723197
10670039 82 15502948398191587278
12403259 415 17967247585481311868
12553582 1 15626223507266930657
12616971 3 17846775217770880572
12633257 1 15267051524120707347
12730499 353 18341061821310220130
12788726 201 16773812380262715408
12916748 109 16515685550269271921
13533116 47 18202286887795316082
13955234 65 18272653463621079314
14910302 57 17967818236532816439
15537594 2 17418376925687437653
15961568 22 16733557146789175428
18186145 218 17968097469435943040
20369508 70 18189053110658046074
20645477 56 17968377960833644008
20645477 70 18410015408108077938
20693207 138 18115038423801902546
21033650 10 16660934244755102804
22182313 1 17967530168807381412
22393880 68 17968093058430923907
23557571 272 17603869991891347348
23559900 14 18410576172218395490
312423 11 17988376862209932304
3268164 11 16732975432355479143
495365 180 18271241720855928184
5104073 3 18186522085876489505
5281201 14 18114185207152350068
6025842 7 18342744031277748606
633830 44 18337386041657660729

>  <PUBCHEM_SHAPE_MULTIPOLES>  (1) 
408.34
12.35
2.99
1.58
4.6
0.99
-1.16
-0.04
-1.03
-7.94
-0.5
1.96
0.08
1.7

>  <PUBCHEM_SHAPE_SELFOVERLAP>  (1) 
804.659

>  <PUBCHEM_SHAPE_VOLUME>  (1) 
244.3

>  <PUBCHEM_COORDINATE_TYPE>  (1) 
2
5
10

$$$$
