37272
     RDKit          3D

 16 15  0  0  0  0  0  0  0  0999 V2000
    5.9588   -0.9691    0.3202 O   0  0  0  0  0  0  0  0  0  0  0  0
   -5.7382   -0.5144   -1.1254 O   0  0  0  0  0  0  0  0  0  0  0  0
    3.9094   -1.6905   -0.0367 O   0  0  0  0  0  0  0  0  0  0  0  0
   -4.2271   -1.8011   -0.1723 O   0  0  0  0  0  0  0  0  0  0  0  0
    4.3078    0.5220   -0.0383 N   0  0  0  0  0  0  0  0  0  0  0  0
   -4.4301    0.3335    0.5030 N   0  0  0  0  0  0  0  0  0  0  0  0
    4.7530   -0.7972    0.1046 N   0  0  0  0  0  0  0  0  0  0  0  0
   -4.8155   -0.7246   -0.3289 N   0  0  0  0  0  0  0  0  0  0  0  0
    0.4851    0.5312   -0.2564 C   0  0  0  0  0  0  0  0  0  0  0  0
   -0.6306    0.2765    0.7597 C   0  0  0  0  0  0  0  0  0  0  0  0
    1.8909    0.3638    0.3288 C   0  0  0  0  0  0  0  0  0  0  0  0
   -2.0116    0.4263    0.1160 C   0  0  0  0  0  0  0  0  0  0  0  0
    3.0024    0.6942   -0.6669 C   0  0  0  0  0  0  0  0  0  0  0  0
   -3.1244    0.2071    1.1396 C   0  0  0  0  0  0  0  0  0  0  0  0
    5.2886    1.4644   -0.5903 C   0  0  0  0  0  0  0  0  0  0  0  0
   -4.6185    1.6778   -0.0567 C   0  0  0  0  0  0  0  0  0  0  0  0
  1  7  1  0
  2  8  1  0
  3  7  2  0
  4  8  2  0
  5  7  1  0
  5 13  1  0
  5 15  1  0
  6  8  1  0
  6 14  1  0
  6 16  1  0
  9 10  1  0
  9 11  1  0
 10 12  1  0
 11 13  1  0
 12 14  1  0
M  CHG  4   1  -1   2  -1   7   1   8   1
M  END
>  <PUBCHEM_COMPOUND_CID>  (1) 
37272

>  <PUBCHEM_CONFORMER_RMSD>  (1) 
1

>  <PUBCHEM_CONFORMER_DIVERSEORDER>  (1) 
1
263
67
266
84
403
386
6
397
11
180
264
9
72
15
213
284
275
33
449
271
303
425
300
51
47
52
2
93
25
280
30
348
392
113
50
69
353
3
193
31
48
482
98
268
173
471
186
437
262
153
496
97
438
5
421
100
198
321
95
17
307
495
381
172
216
35
18
203
99
185
28
306
336
8
412
393
298
361
124
454
452
4
29
88
76
96
161

>  <PUBCHEM_MMFF94_PARTIAL_CHARGES>  (1) 
12
1 -0.52
13 0.27
14 0.27
15 0.27
16 0.27
2 -0.52
3 -0.52
4 -0.52
5 -0.53
6 -0.53
7 1.03
8 1.03

>  <PUBCHEM_EFFECTIVE_ROTOR_COUNT>  (1) 
9

>  <PUBCHEM_PHARMACOPHORE_FEATURES>  (1) 
5
1 1 acceptor
1 2 acceptor
1 3 acceptor
1 4 acceptor
4 9 10 11 12 hydrophobe

>  <PUBCHEM_HEAVY_ATOM_COUNT>  (1) 
16

>  <PUBCHEM_ATOM_DEF_STEREO_COUNT>  (1) 
0

>  <PUBCHEM_ATOM_UDEF_STEREO_COUNT>  (1) 
0

>  <PUBCHEM_BOND_DEF_STEREO_COUNT>  (1) 
0

>  <PUBCHEM_BOND_UDEF_STEREO_COUNT>  (1) 
0

>  <PUBCHEM_ISOTOPIC_ATOM_COUNT>  (1) 
0

>  <PUBCHEM_COMPONENT_COUNT>  (1) 
1

>  <PUBCHEM_CACTVS_TAUTO_COUNT>  (1) 
1

>  <PUBCHEM_CONFORMER_ID>  (1) 
0000919800000001

>  <PUBCHEM_MMFF94_ENERGY>  (1) 
33.7264

>  <PUBCHEM_FEATURE_SELFOVERLAP>  (1) 
25.532

>  <PUBCHEM_SHAPE_FINGERPRINT>  (1) 
10354089 29 10231753397069815930
10912923 1 18202573868967650976
11858739 19 18200596895647733606
12596602 18 17275102825769155362
13167823 11 18411981364340794066
13533116 47 18412827959062730730
14123238 8 17846219968393160012
1420 363 15123795088806340028
14251718 22 18202003260913415168
14252887 29 14692583104193179844
14573314 32 16298381331866898406
15242439 84 16660365887115985352
17834072 33 18412828001463809712
17834072 8 16660363679581740945
17834076 25 13117998903224238009
17844677 252 18410580573684719348
17857418 61 18413385423588774650
19489759 90 18343582924021095113
200 152 18411983568017700241
20621476 66 18268434543027149625
20645477 70 18336267856277063606
220451 1 18343032093969361408
22485316 2 18411704283162983144
23402539 116 18410291393763201765
23536379 177 18409449167587196144
23559900 14 18269264833045505977
29717793 49 18409450263209772212
300161 21 18261673765996343000
4214541 1 18411420592315645497
42788 4 18334579035864379312
559249 180 18341047428743169415
57483677 66 18412545409584527546
7495541 125 17775282798458412624
9971528 1 17676491661712929828

>  <PUBCHEM_SHAPE_MULTIPOLES>  (1) 
285.87
15.87
1.46
0.86
2.77
0.2
-0.02
1.89
2.34
0.18
0.16
-0.62
-0.03
-0.88

>  <PUBCHEM_SHAPE_SELFOVERLAP>  (1) 
536.265

>  <PUBCHEM_SHAPE_VOLUME>  (1) 
179.2

>  <PUBCHEM_COORDINATE_TYPE>  (1) 
2
5
10

$$$$
