37285
     RDKit          3D

 18 18  0  0  1  0  0  0  0  0999 V2000
   -0.9668   -3.1270   -0.2318 S   0  0  0  0  0  0  0  0  0  0  0  0
    2.3324   -1.2312    0.5382 O   0  0  0  0  0  0  0  0  0  0  0  0
    1.3353   -1.5892   -1.5079 O   0  0  0  0  0  0  0  0  0  0  0  0
    1.5664    2.3429   -0.0693 N   0  0  0  0  0  0  0  0  0  0  0  0
    2.6392    0.1296    0.2360 C   0  0  0  0  0  0  0  0  0  0  0  0
    1.3415    0.9410    0.2558 C   0  0  0  0  0  0  0  0  0  0  0  0
    3.6604    0.6099    1.2592 C   0  0  0  0  0  0  0  0  0  0  0  0
    0.3009    3.0800   -0.0822 C   0  0  0  0  0  0  0  0  0  0  0  0
    2.2407    2.4722   -1.3629 C   0  0  0  0  0  0  0  0  0  0  0  0
    1.4602   -1.8489   -0.3193 C   0  0  0  0  0  0  0  0  0  0  0  0
    0.6903   -2.8907    0.4528 C   0  0  0  0  0  0  0  0  0  0  0  0
   -1.6675   -1.4881   -0.0570 C   0  0  0  0  0  0  0  0  0  0  0  0
   -2.7554    1.0568    0.2146 C   0  0  0  0  0  0  0  0  0  0  0  0
   -1.7769   -0.9171    1.2061 C   0  0  0  0  0  0  0  0  0  0  0  0
   -2.0969   -0.7988   -1.1856 C   0  0  0  0  0  0  0  0  0  0  0  0
   -2.3226    0.3593    1.3424 C   0  0  0  0  0  0  0  0  0  0  0  0
   -2.6424    0.4777   -1.0494 C   0  0  0  0  0  0  0  0  0  0  0  0
   -3.3385    2.4216    0.3601 C   0  0  0  0  0  0  0  0  0  0  0  0
  1 11  1  0
  1 12  1  0
  2  5  1  0
  2 10  1  0
  3 10  2  0
  4  6  1  0
  4  8  1  0
  4  9  1  0
  5  6  1  0
  5  7  1  0
 10 11  1  0
 12 14  2  0
 12 15  1  0
 13 16  2  0
 13 17  1  0
 13 18  1  0
 14 16  1  0
 15 17  2  0
M  END
>  <PUBCHEM_COMPOUND_CID>  (1) 
37285

>  <PUBCHEM_CONFORMER_RMSD>  (1) 
0.8

>  <PUBCHEM_CONFORMER_DIVERSEORDER>  (1) 
1
251
253
35
198
31
358
52
294
164
277
193
287
24
47
283
170
17
197
175
153
142
94
319
240
263
38
188
298
351
145
285
128
116
349
53
286
16
239
324
325
33
254
359
354
18
123
232
76
68
338
256
281
336
32
93
245
159
266
138
134
233
139
261
69
317
97
340
249
179
50
62
8
189
211
160
315
143
214
114
194
85
271
162
66
342
119
99
48
353
296
196
127
15
111
36
234
154
260
201
210
98
355
165
57
117
19
218
136
356
71
223
200
313
357
270
276
21
172
78
183
34
63
265
229
115
83
242
187
252
82
106
146
39
207
235
166
126
49
37
11
312
151
58
131
262
273
112
224
299
219
186
199
150
56
228
6
87
322
284
226
272
42
88
121
302
61
74
275
95
54
3
258
104
195
2
25
220
182
323
238
306
248
65
237
326
161
173
70
90
205
105
208
20
79
180
10
227
185
46
213
192
344
331
158
157
60
293
102
178
190
67
348
345
9
181
247
91
268
149
22
124
217
202
28
216
243
174
86
350
225
209
80
255
168
269
328
45
236
292
167
288
23
300
113
244
59
40
135
231
100
264
311
310
147
347
103
204
77
176
118
101
305
41
64
212
177
89
122
257
339
107
203
120
75
108
267
309
109
13
51
132
4
318
290
222
282
361
130
43
12
304
307
141
360
137
295
155
291
14
152
96
84
55
303
163
297
125
81
129
72
250
148
27
171
320
144
301
221
289
259
44
156
343
308
140
215
274
26
332
337
92
241
334
335
169
280
279
246
184
5
329
341
278
316
327
110
346
191
333
30
206
230
330
29
352
314
321
73
133
7

>  <PUBCHEM_MMFF94_PARTIAL_CHARGES>  (1) 
21
1 -0.33
10 0.66
11 0.29
12 0.1
13 -0.14
14 -0.15
15 -0.15
16 -0.15
17 -0.15
18 0.14
2 -0.43
3 -0.57
33 0.15
34 0.15
35 0.15
36 0.15
4 -0.81
5 0.28
6 0.27
8 0.27
9 0.27

>  <PUBCHEM_EFFECTIVE_ROTOR_COUNT>  (1) 
7

>  <PUBCHEM_PHARMACOPHORE_FEATURES>  (1) 
3
1 3 acceptor
1 4 cation
6 12 13 14 15 16 17 rings

>  <PUBCHEM_HEAVY_ATOM_COUNT>  (1) 
18

>  <PUBCHEM_ATOM_DEF_STEREO_COUNT>  (1) 
0

>  <PUBCHEM_ATOM_UDEF_STEREO_COUNT>  (1) 
1

>  <PUBCHEM_BOND_DEF_STEREO_COUNT>  (1) 
0

>  <PUBCHEM_BOND_UDEF_STEREO_COUNT>  (1) 
0

>  <PUBCHEM_ISOTOPIC_ATOM_COUNT>  (1) 
0

>  <PUBCHEM_COMPONENT_COUNT>  (1) 
1

>  <PUBCHEM_CACTVS_TAUTO_COUNT>  (1) 
1

>  <PUBCHEM_CONFORMER_ID>  (1) 
000091A500000001

>  <PUBCHEM_MMFF94_ENERGY>  (1) 
43.012

>  <PUBCHEM_FEATURE_SELFOVERLAP>  (1) 
15.223

>  <PUBCHEM_SHAPE_FINGERPRINT>  (1) 
10382601 240 18194684757016115082
128993 33 18118142456685195540
14026960 21 18336841852728030563
14178342 30 18340476824661960032
14251711 518 18197778795542554303
14251751 93 18048050841526101596
16945 1 18267022945483570002
17093844 170 17759235198423050184
18219364 16 18261388927812163887
18981168 100 18057910075907641550
192875 21 18124290947187622310
20905425 154 16681479482771457565
21041028 32 16966324488491784195
21141583 151 16681487810534261684
23419403 2 16596150890644982782
238 59 18262498373857655501
2748010 2 18340217284152178307
474 4 18337386046437905181
7832392 63 18197212543043956567

>  <PUBCHEM_SHAPE_MULTIPOLES>  (1) 
357.56
5.18
3.96
1.28
0.91
0.13
0.1
-2.47
-0.8
0.03
0.48
0.01
-0.05
-0.53

>  <PUBCHEM_SHAPE_SELFOVERLAP>  (1) 
703.41

>  <PUBCHEM_SHAPE_VOLUME>  (1) 
216.3

>  <PUBCHEM_COORDINATE_TYPE>  (1) 
2
5
10

$$$$
