37281
     RDKit          3D

 19 22  0  0  0  0  0  0  0  0999 V2000
    1.1358   -0.0006   -0.5834 O   0  0  0  0  0  0  0  0  0  0  0  0
    0.8592   -0.0177    1.7420 O   0  0  0  0  0  0  0  0  0  0  0  0
   -1.0537   -0.0105    0.2720 C   0  0  0  0  0  0  0  0  0  0  0  0
   -3.3904   -0.0119    1.2269 C   0  0  0  0  0  0  0  0  0  0  0  0
   -2.9049   -1.2474   -0.9176 C   0  0  0  0  0  0  0  0  0  0  0  0
   -2.8919    1.2749   -0.8847 C   0  0  0  0  0  0  0  0  0  0  0  0
   -1.8900   -0.0232    1.5673 C   0  0  0  0  0  0  0  0  0  0  0  0
   -1.4063   -1.2537   -0.5688 C   0  0  0  0  0  0  0  0  0  0  0  0
   -1.3933    1.2577   -0.5354 C   0  0  0  0  0  0  0  0  0  0  0  0
   -3.7267   -1.2535    0.3830 C   0  0  0  0  0  0  0  0  0  0  0  0
   -3.7146    1.2546    0.4155 C   0  0  0  0  0  0  0  0  0  0  0  0
   -3.2316    0.0261   -1.7169 C   0  0  0  0  0  0  0  0  0  0  0  0
    0.4111   -0.0095    0.6031 C   0  0  0  0  0  0  0  0  0  0  0  0
    2.5168    0.0010   -0.3734 C   0  0  0  0  0  0  0  0  0  0  0  0
    3.1735   -1.2063   -0.2815 C   0  0  0  0  0  0  0  0  0  0  0  0
    3.1683    1.2096   -0.2653 C   0  0  0  0  0  0  0  0  0  0  0  0
    4.5525   -1.2047   -0.0707 C   0  0  0  0  0  0  0  0  0  0  0  0
    4.5471    1.2112   -0.0547 C   0  0  0  0  0  0  0  0  0  0  0  0
    5.2391    0.0039    0.0426 C   0  0  0  0  0  0  0  0  0  0  0  0
  1 13  1  0
  1 14  1  0
  2 13  2  0
  3  7  1  0
  3  8  1  0
  3  9  1  0
  3 13  1  0
  4  7  1  0
  4 10  1  0
  4 11  1  0
  5  8  1  0
  5 10  1  0
  5 12  1  0
  6  9  1  0
  6 11  1  0
  6 12  1  0
 14 15  2  0
 14 16  1  0
 15 17  1  0
 16 18  2  0
 17 19  2  0
 18 19  1  0
M  END
>  <PUBCHEM_COMPOUND_CID>  (1) 
37281

>  <PUBCHEM_CONFORMER_RMSD>  (1) 
0.6

>  <PUBCHEM_CONFORMER_DIVERSEORDER>  (1) 
1
11
12
2
5
13
10
4
3
6
9
8
7

>  <PUBCHEM_MMFF94_PARTIAL_CHARGES>  (1) 
15
1 -0.23
13 0.66
14 0.08
15 -0.15
16 -0.15
17 -0.15
18 -0.15
19 -0.15
2 -0.57
3 0.06
35 0.15
36 0.15
37 0.15
38 0.15
39 0.15

>  <PUBCHEM_EFFECTIVE_ROTOR_COUNT>  (1) 
4.2

>  <PUBCHEM_PHARMACOPHORE_FEATURES>  (1) 
6
1 2 acceptor
6 14 15 16 17 18 19 rings
6 3 4 5 7 8 10 rings
6 3 4 6 7 9 11 rings
6 3 5 6 8 9 12 rings
6 4 5 6 10 11 12 rings

>  <PUBCHEM_HEAVY_ATOM_COUNT>  (1) 
19

>  <PUBCHEM_ATOM_DEF_STEREO_COUNT>  (1) 
0

>  <PUBCHEM_ATOM_UDEF_STEREO_COUNT>  (1) 
0

>  <PUBCHEM_BOND_DEF_STEREO_COUNT>  (1) 
0

>  <PUBCHEM_BOND_UDEF_STEREO_COUNT>  (1) 
0

>  <PUBCHEM_ISOTOPIC_ATOM_COUNT>  (1) 
0

>  <PUBCHEM_COMPONENT_COUNT>  (1) 
1

>  <PUBCHEM_CACTVS_TAUTO_COUNT>  (1) 
1

>  <PUBCHEM_CONFORMER_ID>  (1) 
000091A100000001

>  <PUBCHEM_MMFF94_ENERGY>  (1) 
56.3244

>  <PUBCHEM_FEATURE_SELFOVERLAP>  (1) 
42.994

>  <PUBCHEM_SHAPE_FINGERPRINT>  (1) 
10680689 15 18040156214445933022
11315181 36 17060334124467501506
11405975 8 18336264540161241784
121448 382 17313660567982462099
12236239 1 17703792518561513430
12403814 3 18412548712751981797
12507557 5 18131629002372387224
12553582 1 16272211894374292114
128620 24 18342176691472014422
12916754 54 18336548317013647543
13024252 1 16081088182581547271
13167823 11 18413389834936938526
13214271 11 18186525397528012005
13224815 77 17894907438582596496
13296908 3 18187085057198809564
13583140 156 8142079853664140694
13631057 29 17842551023009749214
13675066 3 17967256399112671980
14004511 7 18408887317324529740
14289901 80 18410291428207069824
15788980 27 18343865502819984550
16945 1 18337091420656235049
17349148 13 17489588944292773846
18186145 218 17458345238851927792
19489759 90 16732977643783438984
19862831 5 17530680992030403636
200 152 18201717353778147492
20281475 54 17418372489208000886
20645477 70 18336829702381945166
22646028 1 18202281407670136662
2306618 200 18201439151677591681
23402539 116 18334010588621740508
23559900 14 18060417972559263478
296302 2 17632296778722334588
300161 21 17917989464978654424
3268164 11 16950558904619240847
4028521 119 17749096764763918165
4214541 1 18411700976233253092
4921388 177 18261394481200083667
5104073 3 18410855460608178066
5281201 14 18186243926888402084
542803 24 17561368383300296792
633830 44 17603587422082889892
69090 78 18333734641225910818
77779 3 18410857659557579844
9709674 26 18410018732239029398

>  <PUBCHEM_SHAPE_MULTIPOLES>  (1) 
379.27
9.94
1.44
1.29
10.37
0.01
0.16
0.01
-0.52
-0.14
-0.23
-1.24
0
0

>  <PUBCHEM_SHAPE_SELFOVERLAP>  (1) 
839.999

>  <PUBCHEM_SHAPE_VOLUME>  (1) 
195.7

>  <PUBCHEM_COORDINATE_TYPE>  (1) 
2
5
10

$$$$
