3729
     RDKit          3D

 14 14  0  0  1  0  0  0  0  0999 V2000
    5.4803    0.6622   -0.8117 I   0  0  0  0  0  0  0  0  0  0  0  0
   -2.8299   -0.1359    0.6169 N   0  0  0  0  0  0  0  0  0  0  0  0
   -1.5188   -0.3303   -0.0094 C   0  0  0  0  0  0  0  0  0  0  0  0
   -0.4610   -0.5852    1.0798 C   0  0  0  0  0  0  0  0  0  0  0  0
   -3.8322    0.1887   -0.3841 C   0  0  0  0  0  0  0  0  0  0  0  0
   -1.6273   -1.4873   -1.0027 C   0  0  0  0  0  0  0  0  0  0  0  0
    0.9505   -0.2885    0.6331 C   0  0  0  0  0  0  0  0  0  0  0  0
   -3.4527    1.4731   -1.1157 C   0  0  0  0  0  0  0  0  0  0  0  0
   -5.1954    0.3229    0.2873 C   0  0  0  0  0  0  0  0  0  0  0  0
    1.7023   -1.2952    0.0490 C   0  0  0  0  0  0  0  0  0  0  0  0
    1.4673    0.9845    0.8137 C   0  0  0  0  0  0  0  0  0  0  0  0
    3.0058   -1.0218   -0.3652 C   0  0  0  0  0  0  0  0  0  0  0  0
    2.7709    1.2579    0.3993 C   0  0  0  0  0  0  0  0  0  0  0  0
    3.5401    0.2548   -0.1903 C   0  0  0  0  0  0  0  0  0  0  0  0
  1 14  1  0
  2  3  1  0
  2  5  1  0
  3  4  1  0
  3  6  1  0
  4  7  1  0
  5  8  1  0
  5  9  1  0
  7 10  2  0
  7 11  1  0
 10 12  1  0
 11 13  2  0
 12 14  2  0
 13 14  1  0
M  END
>  <PUBCHEM_COMPOUND_CID>  (1) 
3729

>  <PUBCHEM_CONFORMER_RMSD>  (1) 
0.6

>  <PUBCHEM_CONFORMER_DIVERSEORDER>  (1) 
3
10
12
1
2
7
13
14
11
4
5
9
6
15
8
16

>  <PUBCHEM_MMFF94_PARTIAL_CHARGES>  (1) 
16
1 -0.08
10 -0.15
11 -0.15
12 -0.15
13 -0.15
14 0.08
19 0.36
2 -0.9
29 0.15
3 0.27
30 0.15
31 0.15
32 0.15
4 0.14
5 0.27
7 -0.14

>  <PUBCHEM_EFFECTIVE_ROTOR_COUNT>  (1) 
4

>  <PUBCHEM_PHARMACOPHORE_FEATURES>  (1) 
5
1 1 hydrophobe
1 2 cation
1 2 donor
3 5 8 9 hydrophobe
6 7 10 11 12 13 14 rings

>  <PUBCHEM_HEAVY_ATOM_COUNT>  (1) 
14

>  <PUBCHEM_ATOM_DEF_STEREO_COUNT>  (1) 
0

>  <PUBCHEM_ATOM_UDEF_STEREO_COUNT>  (1) 
1

>  <PUBCHEM_BOND_DEF_STEREO_COUNT>  (1) 
0

>  <PUBCHEM_BOND_UDEF_STEREO_COUNT>  (1) 
0

>  <PUBCHEM_ISOTOPIC_ATOM_COUNT>  (1) 
0

>  <PUBCHEM_COMPONENT_COUNT>  (1) 
1

>  <PUBCHEM_CACTVS_TAUTO_COUNT>  (1) 
1

>  <PUBCHEM_CONFORMER_ID>  (1) 
00000E9100000003

>  <PUBCHEM_MMFF94_ENERGY>  (1) 
23.3438

>  <PUBCHEM_FEATURE_SELFOVERLAP>  (1) 
25.371

>  <PUBCHEM_SHAPE_FINGERPRINT>  (1) 
100836 57 17967820461457413340
10498660 4 17604983733115417165
11401426 45 18202002157871418872
11471102 20 18341896281763289778
12670543 26 18341061735700992180
12815109 37 12823297892247174796
12916748 109 17530689792149510692
13081056 2 18333167263076746165
14115302 16 16988842812797666046
14251752 14 16056609694381461521
14252887 29 11746925478726252248
14911166 2 17917997187213788522
14993402 34 17489592264175756582
15048467 5 17749395901490142636
17834072 14 10159693608097676535
17834072 8 18060145349346301564
18186145 218 17846206765890331225
200 152 16415484852564743896
20374829 77 13254797927716935981
20645476 183 18060133275571247279
20645477 56 18333450967035754595
20645477 70 18272376317586780990
20871999 31 18200869690374590143
21119208 17 17917996091939053798
212847 35 18114177519361447576
21637258 2 14692299383539268148
221357 26 18343298141788093797
22485316 2 13254795737294099392
231179 274 18335419062985110652
23402539 116 17967529112508995254
23402655 69 18342738494358093740
23557571 272 17822868596192703962
23559900 14 17203324568314981696
25 1 18410291402279237914
26918003 58 9367344829917261597
2916195 48 17603866736617555060
3060560 45 18060702793030388734
3545911 37 18412266155058442667
4028521 119 18335135375757786461
4047638 21 17313107458236627386
4072396 5 18411972556423063082
42 15 9223232953013296987
465052 167 10663820780618767180
522135 26 18272368646410771035
5374978 207 11241970369543930111
58051976 100 18130784620175617975
59755656 520 17095521824671179058
93112 12 18059852908590070650
9882013 296 14345793825430567637

>  <PUBCHEM_SHAPE_MULTIPOLES>  (1) 
295.07
10.85
1.41
1.07
0.66
0
0.07
3.74
2.7
-0.07
0.25
0.06
0.05
0.26

>  <PUBCHEM_SHAPE_SELFOVERLAP>  (1) 
568.444

>  <PUBCHEM_SHAPE_VOLUME>  (1) 
184.5

>  <PUBCHEM_COORDINATE_TYPE>  (1) 
2
5
10

$$$$
