37291
     RDKit          3D

 20 21  0  0  0  0  0  0  0  0999 V2000
   -0.3766    1.0440   -0.0994 O   0  0  0  0  0  0  0  0  0  0  0  0
   -5.0750    1.8501   -0.5724 O   0  0  0  0  0  0  0  0  0  0  0  0
   -4.0940    1.0118    0.0686 N   0  0  0  0  0  0  0  0  0  0  0  0
   -2.7243    1.4459   -0.3973 C   0  0  0  0  0  0  0  0  0  0  0  0
   -1.6696    0.6159    0.3076 C   0  0  0  0  0  0  0  0  0  0  0  0
    0.6465    0.2915    0.5380 C   0  0  0  0  0  0  0  0  0  0  0  0
   -4.2445    1.1663    1.5638 C   0  0  0  0  0  0  0  0  0  0  0  0
   -4.3814   -0.4080   -0.3566 C   0  0  0  0  0  0  0  0  0  0  0  0
    0.5060   -1.1762    0.1913 C   0  0  0  0  0  0  0  0  0  0  0  0
    2.0254    0.8416    0.2284 C   0  0  0  0  0  0  0  0  0  0  0  0
    0.9232   -2.1278    1.1049 C   0  0  0  0  0  0  0  0  0  0  0  0
    3.0326    0.6978    1.1647 C   0  0  0  0  0  0  0  0  0  0  0  0
   -0.0366   -1.5316   -1.0307 C   0  0  0  0  0  0  0  0  0  0  0  0
    2.2414    1.4729   -0.9826 C   0  0  0  0  0  0  0  0  0  0  0  0
    0.7936   -3.4794    0.7858 C   0  0  0  0  0  0  0  0  0  0  0  0
    4.3009    1.2035    0.8800 C   0  0  0  0  0  0  0  0  0  0  0  0
   -0.1663   -2.8833   -1.3496 C   0  0  0  0  0  0  0  0  0  0  0  0
    3.5099    1.9784   -1.2673 C   0  0  0  0  0  0  0  0  0  0  0  0
    0.2489   -3.8572   -0.4413 C   0  0  0  0  0  0  0  0  0  0  0  0
    4.5397    1.8437   -0.3359 C   0  0  0  0  0  0  0  0  0  0  0  0
  1  5  1  0
  1  6  1  0
  2  3  1  0
  3  4  1  0
  3  7  1  0
  3  8  1  0
  4  5  1  0
  6  9  1  0
  6 10  1  0
  9 11  2  0
  9 13  1  0
 10 12  2  0
 10 14  1  0
 11 15  1  0
 12 16  1  0
 13 17  2  0
 14 18  2  0
 15 19  2  0
 16 20  2  0
 17 19  1  0
 18 20  1  0
M  CHG  1   3   1
M  END
>  <PUBCHEM_COMPOUND_CID>  (1) 
37291

>  <PUBCHEM_CONFORMER_RMSD>  (1) 
0.8

>  <PUBCHEM_CONFORMER_DIVERSEORDER>  (1) 
1
20
21
4
12
13
16
9
18
3
7
17
2
6
8
10
19
5
11
15
14

>  <PUBCHEM_MMFF94_PARTIAL_CHARGES>  (1) 
31
1 -0.56
10 -0.14
11 -0.15
12 -0.15
13 -0.15
14 -0.15
15 -0.15
16 -0.15
17 -0.15
18 -0.15
19 -0.15
2 -0.15
20 -0.15
3 -0.76
32 0.4
33 0.15
34 0.15
35 0.15
36 0.15
37 0.15
38 0.15
39 0.15
4 0.5
40 0.15
41 0.15
42 0.15
5 0.28
6 0.57
7 0.5
8 0.5
9 -0.14

>  <PUBCHEM_EFFECTIVE_ROTOR_COUNT>  (1) 
6

>  <PUBCHEM_PHARMACOPHORE_FEATURES>  (1) 
4
1 1 acceptor
1 2 anion
6 10 12 14 16 18 20 rings
6 9 11 13 15 17 19 rings

>  <PUBCHEM_HEAVY_ATOM_COUNT>  (1) 
20

>  <PUBCHEM_ATOM_DEF_STEREO_COUNT>  (1) 
0

>  <PUBCHEM_ATOM_UDEF_STEREO_COUNT>  (1) 
0

>  <PUBCHEM_BOND_DEF_STEREO_COUNT>  (1) 
0

>  <PUBCHEM_BOND_UDEF_STEREO_COUNT>  (1) 
0

>  <PUBCHEM_ISOTOPIC_ATOM_COUNT>  (1) 
0

>  <PUBCHEM_COMPONENT_COUNT>  (1) 
1

>  <PUBCHEM_CACTVS_TAUTO_COUNT>  (1) 
1

>  <PUBCHEM_CONFORMER_ID>  (1) 
000091AB00000001

>  <PUBCHEM_MMFF94_ENERGY>  (1) 
66.5473

>  <PUBCHEM_FEATURE_SELFOVERLAP>  (1) 
20.297

>  <PUBCHEM_SHAPE_FINGERPRINT>  (1) 
10382601 240 18337679602983474707
11488393 25 17987260861897576927
12532896 13 18339923822253832998
12592029 89 18334576811129082768
12788726 201 17760370285338525702
12839892 36 18335689559841076171
13052359 8 18266738171845310530
13149001 5 17773033283372513976
133893 2 18050307880798584520
13681431 1 17836373639934676538
14251751 93 18130226081343507247
14251757 17 16486987227279186565
14955137 171 18124865777664760506
15502722 9 18337676287221203885
15849732 13 18113615673763227908
15906896 17 18119533386482058570
16752209 62 18195519526870535578
17138139 8 17769902957142118391
20197701 30 18411978074617157550
204376 136 18409731780856834241
20567600 347 18412268337097274359
20600515 1 16825251056193957135
20645477 70 18193548979227647765
21054139 6 18270947055791954567
21421861 104 17981902843050766985
21524375 3 18410574019527026768
2255824 54 18196095443398801663
22620623 9 17770509934541247574
22956985 138 18116709608346095306
23366157 5 18046634408202709355
23419403 2 17550443622376014686
23557571 272 17769657826199953152
23559900 14 18122053205313495713
23598288 3 17754192086773522602
298252 57 18336265734077806288
3060560 45 18334299747279301716
314173 85 7925640989858189664
3759504 43 18262519315864930674
458136 41 18340782446208552675
474229 33 18336266855196093467
53917941 68 18194948863250763732
6138700 20 18194691363399015798
633830 44 17775007890292005505
6669772 16 18342464716638336286
7364860 26 18196932171499424515
81228 2 17762605587997743032
81539 233 18336546032090883637
8272917 22 18263361395843308233
9841814 1 17829333480083304499
9999458 23 18260549970613081974

>  <PUBCHEM_SHAPE_MULTIPOLES>  (1) 
394.87
8.45
3.91
1.29
5.13
5.21
0.06
-9.57
0.37
-0.16
-0.52
-0.21
0.1
-0.81

>  <PUBCHEM_SHAPE_SELFOVERLAP>  (1) 
824.011

>  <PUBCHEM_SHAPE_VOLUME>  (1) 
225.4

>  <PUBCHEM_COORDINATE_TYPE>  (1) 
2
5
10

$$$$
