37307
     RDKit          3D

 20 20  0  0  1  0  0  0  0  0999 V2000
   -0.2653    0.2723   -1.3670 O   0  0  0  0  0  0  0  0  0  0  0  0
    1.6693    1.8642   -0.2099 N   0  0  0  0  0  0  0  0  0  0  0  0
   -1.4123    0.2375    0.6811 N   0  0  0  0  0  0  0  0  0  0  0  0
    3.6759    1.1609    1.0069 C   0  0  0  0  0  0  0  0  0  0  0  0
    4.1774    0.2620   -0.1278 C   0  0  0  0  0  0  0  0  0  0  0  0
    2.8407    2.3432    0.5166 C   0  0  0  0  0  0  0  0  0  0  0  0
    4.9923   -0.9375    0.3612 C   0  0  0  0  0  0  0  0  0  0  0  0
    5.5280   -1.7581   -0.8130 C   0  0  0  0  0  0  0  0  0  0  0  0
    0.8524    1.0002    0.6435 C   0  0  0  0  0  0  0  0  0  0  0  0
    0.8744    2.9896   -0.7033 C   0  0  0  0  0  0  0  0  0  0  0  0
   -0.3224    0.4647   -0.1567 C   0  0  0  0  0  0  0  0  0  0  0  0
    6.3120   -2.9695   -0.3343 C   0  0  0  0  0  0  0  0  0  0  0  0
   -2.6888   -0.2573    0.3224 C   0  0  0  0  0  0  0  0  0  0  0  0
   -3.6871    0.6337   -0.0430 C   0  0  0  0  0  0  0  0  0  0  0  0
   -2.9202   -1.6247    0.3431 C   0  0  0  0  0  0  0  0  0  0  0  0
   -4.9455    0.1462   -0.3955 C   0  0  0  0  0  0  0  0  0  0  0  0
   -4.1788   -2.1121   -0.0096 C   0  0  0  0  0  0  0  0  0  0  0  0
   -3.4547    2.1098   -0.0699 C   0  0  0  0  0  0  0  0  0  0  0  0
   -1.8560   -2.5984    0.7341 C   0  0  0  0  0  0  0  0  0  0  0  0
   -5.1913   -1.2266   -0.3789 C   0  0  0  0  0  0  0  0  0  0  0  0
  1 11  2  0
  2  6  1  0
  2  9  1  0
  2 10  1  0
  3 11  1  0
  3 13  1  0
  4  5  1  0
  4  6  1  0
  5  7  1  0
  7  8  1  0
  8 12  1  0
  9 11  1  0
 13 14  2  0
 13 15  1  0
 14 16  1  0
 14 18  1  0
 15 17  2  0
 15 19  1  0
 16 20  2  0
 17 20  1  0
M  END
>  <PUBCHEM_COMPOUND_CID>  (1) 
37307

>  <PUBCHEM_CONFORMER_RMSD>  (1) 
0.8

>  <PUBCHEM_CONFORMER_DIVERSEORDER>  (1) 
4
73
103
77
120
33
107
80
124
100
82
85
89
37
29
63
117
130
121
105
44
114
48
108
36
86
21
7
109
32
75
26
70
127
56
40
131
68
65
90
116
59
42
1
118
12
78
54
16
30
71
132
96
113
3
112
95
61
45
84
66
129
119
111
55
93
5
123
87
6
72
110
2
102
122
94
41
81
74
133
69
106
101
38
126
14
64
104
8
19
62
35
67
88
34
15
99
39
76
98
79
17
92
47
43
31
115
57
83
52
18
27
13
46
128
51
24
23
20
10
25
91
97
125
22
60
50
11
9
58
49
53
28

>  <PUBCHEM_MMFF94_PARTIAL_CHARGES>  (1) 
19
1 -0.57
10 0.27
11 0.57
13 0.12
14 -0.14
15 -0.14
16 -0.15
17 -0.15
18 0.14
19 0.14
2 -0.81
20 -0.15
3 -0.55
39 0.37
40 0.15
41 0.15
48 0.15
6 0.27
9 0.33

>  <PUBCHEM_EFFECTIVE_ROTOR_COUNT>  (1) 
9

>  <PUBCHEM_PHARMACOPHORE_FEATURES>  (1) 
6
1 1 acceptor
1 12 hydrophobe
1 2 cation
1 3 donor
4 4 5 7 8 hydrophobe
6 13 14 15 16 17 20 rings

>  <PUBCHEM_HEAVY_ATOM_COUNT>  (1) 
20

>  <PUBCHEM_ATOM_DEF_STEREO_COUNT>  (1) 
0

>  <PUBCHEM_ATOM_UDEF_STEREO_COUNT>  (1) 
0

>  <PUBCHEM_BOND_DEF_STEREO_COUNT>  (1) 
0

>  <PUBCHEM_BOND_UDEF_STEREO_COUNT>  (1) 
0

>  <PUBCHEM_ISOTOPIC_ATOM_COUNT>  (1) 
0

>  <PUBCHEM_COMPONENT_COUNT>  (1) 
1

>  <PUBCHEM_CACTVS_TAUTO_COUNT>  (1) 
2

>  <PUBCHEM_CONFORMER_ID>  (1) 
000091BB00000004

>  <PUBCHEM_MMFF94_ENERGY>  (1) 
62.5797

>  <PUBCHEM_FEATURE_SELFOVERLAP>  (1) 
30.446

>  <PUBCHEM_SHAPE_FINGERPRINT>  (1) 
12107183 9 18198915703387572528
12555020 224 18409161121811792943
12596602 18 14261339242306609118
12760667 363 18270399370152406614
13167823 11 18337949103475241681
13402501 40 18411420579763488278
13533116 47 18271523216415925073
13583140 156 17629196293107586312
13911852 28 18341892940437333478
14123256 34 18270972258729138622
14251764 30 18339078190759897638
14341114 176 18409450331834628153
14420673 8 18338803299525121818
14866123 147 18053107220334153584
15052358 14 18189044322505702781
15256400 18 18410290345648568297
15352361 1 18411984624975417202
15848702 151 18335133249780532408
17349148 13 17775293793321404357
17492 89 18265616674448861859
1813 80 17095516327255347932
20374829 77 18335419028910273986
20403669 9 18341898446691025422
20645477 70 18409163355310610512
21279426 13 18336820918635319597
21682296 61 18273218560436032886
2215653 11 18410287021233137590
23402539 116 18268137833895813893
23559900 14 18339355361704442193
2916195 48 8574419925161455630
3004659 81 18186523186042049054
3421961 26 18342454864141347984
4214541 1 18410008858013991065
437815 12 18272089349604744238
465052 167 18201723951201478862
5104073 3 17988931084378384337
5207 123 18411420601042502734
543368 44 12396302564569962327
559249 180 18340767035786896563
59755656 215 18334569102016227159
6138700 20 18338237051205784634
7970288 3 18268429036921494702
960060 61 18040442113861411964
9709674 26 18191588764232368435
9971528 1 18335135444730730532

>  <PUBCHEM_SHAPE_MULTIPOLES>  (1) 
395.76
13.77
3.35
0.91
11.35
0.21
0.04
10.31
1.56
2.39
0.15
0.33
-0.04
1.14

>  <PUBCHEM_SHAPE_SELFOVERLAP>  (1) 
786.003

>  <PUBCHEM_SHAPE_VOLUME>  (1) 
237

>  <PUBCHEM_COORDINATE_TYPE>  (1) 
2
5
10

$$$$
