37300
     RDKit          3D

 23 25  0  0  1  0  0  0  0  0999 V2000
   -1.5585    1.5136   -1.1495 S   0  0  0  0  0  0  0  0  0  0  0  0
    3.6794   -2.6915   -0.8497 O   0  0  0  0  0  0  0  0  0  0  0  0
    2.3137   -0.8639   -0.7909 N   0  0  0  0  0  0  0  0  0  0  0  0
    1.8574    3.7412   -1.2723 N   0  0  0  0  0  0  0  0  0  0  0  0
    1.0355    0.9490   -0.4047 C   0  0  0  0  0  0  0  0  0  0  0  0
    0.1205    2.0866   -0.6290 C   0  0  0  0  0  0  0  0  0  0  0  0
    1.6211    0.5650    0.8233 C   0  0  0  0  0  0  0  0  0  0  0  0
    2.4148   -0.5632    0.5738 C   0  0  0  0  0  0  0  0  0  0  0  0
    1.4699    0.0700   -1.3650 C   0  0  0  0  0  0  0  0  0  0  0  0
    0.5809    3.1458   -1.6666 C   0  0  0  0  0  0  0  0  0  0  0  0
    1.5421    1.0851    2.1322 C   0  0  0  0  0  0  0  0  0  0  0  0
    3.1323   -1.1793    1.6178 C   0  0  0  0  0  0  0  0  0  0  0  0
   -1.9305    0.5325    0.3166 C   0  0  0  0  0  0  0  0  0  0  0  0
    2.9521   -1.9244   -1.4642 C   0  0  0  0  0  0  0  0  0  0  0  0
    2.2545    0.4711    3.1639 C   0  0  0  0  0  0  0  0  0  0  0  0
    3.0387   -0.6459    2.9076 C   0  0  0  0  0  0  0  0  0  0  0  0
   -3.2858   -0.1145    0.2377 C   0  0  0  0  0  0  0  0  0  0  0  0
    2.6771   -2.0299   -2.9348 C   0  0  0  0  0  0  0  0  0  0  0  0
   -3.4096   -1.3792   -0.3223 C   0  0  0  0  0  0  0  0  0  0  0  0
   -4.3968    0.5607    0.7262 C   0  0  0  0  0  0  0  0  0  0  0  0
   -4.6666   -1.9794   -0.3954 C   0  0  0  0  0  0  0  0  0  0  0  0
   -5.6537   -0.0396    0.6531 C   0  0  0  0  0  0  0  0  0  0  0  0
   -5.7886   -1.3097    0.0923 C   0  0  0  0  0  0  0  0  0  0  0  0
  1  6  1  0
  1 13  1  0
  2 14  2  0
  3  8  1  0
  3  9  1  0
  3 14  1  0
  4 10  1  0
  5  6  1  0
  5  7  1  0
  5  9  2  0
  6 10  1  0
  7  8  2  0
  7 11  1  0
  8 12  1  0
 11 15  2  0
 12 16  2  0
 13 17  1  0
 14 18  1  0
 15 16  1  0
 17 19  2  0
 17 20  1  0
 19 21  1  0
 20 22  2  0
 21 23  2  0
 22 23  1  0
M  END
>  <PUBCHEM_COMPOUND_CID>  (1) 
37300

>  <PUBCHEM_CONFORMER_RMSD>  (1) 
0.8

>  <PUBCHEM_CONFORMER_DIVERSEORDER>  (1) 
1
35
42
27
60
5
41
34
7
36
18
57
17
49
58
53
46
52
48
29
25
20
54
6
32
55
23
37
10
16
50
9
59
8
38
45
19
30
33
21
63
61
51
56
22
62
11
43
14
13
31
26
28
4
24
47
64
15
2
44
12
3
40
39

>  <PUBCHEM_MMFF94_PARTIAL_CHARGES>  (1) 
34
1 -0.46
10 0.27
11 -0.15
12 -0.15
13 0.37
14 0.52
15 -0.15
16 -0.15
17 -0.14
18 0.06
19 -0.15
2 -0.57
20 -0.15
21 -0.15
22 -0.15
23 -0.15
25 0.15
28 0.15
29 0.15
3 0.29
32 0.15
33 0.15
34 0.36
35 0.36
39 0.15
4 -0.99
40 0.15
41 0.15
42 0.15
43 0.15
5 -0.18
6 0.41
8 -0.15
9 -0.3

>  <PUBCHEM_EFFECTIVE_ROTOR_COUNT>  (1) 
6

>  <PUBCHEM_PHARMACOPHORE_FEATURES>  (1) 
6
1 2 acceptor
1 4 cation
1 4 donor
5 3 5 7 8 9 rings
6 17 19 20 21 22 23 rings
6 7 8 11 12 15 16 rings

>  <PUBCHEM_HEAVY_ATOM_COUNT>  (1) 
23

>  <PUBCHEM_ATOM_DEF_STEREO_COUNT>  (1) 
0

>  <PUBCHEM_ATOM_UDEF_STEREO_COUNT>  (1) 
1

>  <PUBCHEM_BOND_DEF_STEREO_COUNT>  (1) 
0

>  <PUBCHEM_BOND_UDEF_STEREO_COUNT>  (1) 
0

>  <PUBCHEM_ISOTOPIC_ATOM_COUNT>  (1) 
0

>  <PUBCHEM_COMPONENT_COUNT>  (1) 
1

>  <PUBCHEM_CACTVS_TAUTO_COUNT>  (1) 
1

>  <PUBCHEM_CONFORMER_ID>  (1) 
000091B400000001

>  <PUBCHEM_MMFF94_ENERGY>  (1) 
52.4348

>  <PUBCHEM_FEATURE_SELFOVERLAP>  (1) 
30.534

>  <PUBCHEM_SHAPE_FINGERPRINT>  (1) 
10928967 22 17530966904268072723
12293681 25 17979328903256577558
12363563 72 17968078820893698217
12553582 1 18113337484003923699
12617007 42 18410023129910396671
12633257 1 17702357663665434634
12788726 201 17388545899895596061
13533116 47 17489873735285079679
13583140 156 16988552486299683385
15342816 4 18040715844294656432
17818456 19 18270131119644400809
1813 80 18261111855266751757
19078846 21 17967809410670331193
20369508 70 17676197009639164417
20645477 70 18116156743692341501
21756936 100 15909355628647982248
235170 7 13045957789213072089
23559900 14 18202291307727918685
23598288 3 16737211656851541453
238 59 13912903985725456434
239999 70 18042976556429426437
25222932 49 17462005676460040515
484985 159 16475462932466381934
5104073 3 16916795106708747771
58260988 521 18201706355000535802
621550 5 17772482192182012140
6823239 73 18410022052047964367
7808743 9 11671197800199186699
8988823 20 16845567630826777391
960060 61 16081366371776739075
9841814 1 18040992968691360761

>  <PUBCHEM_SHAPE_MULTIPOLES>  (1) 
461.35
9.81
3.02
2.74
17.66
1.76
-1.08
-6.7
-2.1
-1.97
2.45
-4.42
-0.34
0.63

>  <PUBCHEM_SHAPE_SELFOVERLAP>  (1) 
978.49

>  <PUBCHEM_SHAPE_VOLUME>  (1) 
260.3

>  <PUBCHEM_COORDINATE_TYPE>  (1) 
2
5
10

$$$$
