37305
     RDKit          3D

 19 19  0  0  1  0  0  0  0  0999 V2000
   -0.4637   -0.3475   -1.4526 O   0  0  0  0  0  0  0  0  0  0  0  0
    1.9811   -0.1268   -0.1912 N   0  0  0  0  0  0  0  0  0  0  0  0
   -1.5120   -0.3080    0.6478 N   0  0  0  0  0  0  0  0  0  0  0  0
    4.4195    0.0842   -0.3240 C   0  0  0  0  0  0  0  0  0  0  0  0
    3.2330   -0.4160    0.4983 C   0  0  0  0  0  0  0  0  0  0  0  0
    5.7459   -0.2285    0.3719 C   0  0  0  0  0  0  0  0  0  0  0  0
    6.9338    0.3018   -0.4306 C   0  0  0  0  0  0  0  0  0  0  0  0
    0.8459   -0.6847    0.5456 C   0  0  0  0  0  0  0  0  0  0  0  0
    1.8116    1.3166   -0.3679 C   0  0  0  0  0  0  0  0  0  0  0  0
   -0.4351   -0.4263   -0.2285 C   0  0  0  0  0  0  0  0  0  0  0  0
    8.2552   -0.0362    0.2411 C   0  0  0  0  0  0  0  0  0  0  0  0
   -2.8680   -0.0664    0.3219 C   0  0  0  0  0  0  0  0  0  0  0  0
   -3.3273    1.2399    0.2421 C   0  0  0  0  0  0  0  0  0  0  0  0
   -3.7145   -1.1400    0.0887 C   0  0  0  0  0  0  0  0  0  0  0  0
   -4.6639    1.4780   -0.0780 C   0  0  0  0  0  0  0  0  0  0  0  0
   -5.0511   -0.9018   -0.2314 C   0  0  0  0  0  0  0  0  0  0  0  0
   -2.4288    2.4080    0.4909 C   0  0  0  0  0  0  0  0  0  0  0  0
   -3.2358   -2.5534    0.1707 C   0  0  0  0  0  0  0  0  0  0  0  0
   -5.5257    0.4073   -0.3148 C   0  0  0  0  0  0  0  0  0  0  0  0
  1 10  2  0
  2  5  1  0
  2  8  1  0
  2  9  1  0
  3 10  1  0
  3 12  1  0
  4  5  1  0
  4  6  1  0
  6  7  1  0
  7 11  1  0
  8 10  1  0
 12 13  2  0
 12 14  1  0
 13 15  1  0
 13 17  1  0
 14 16  2  0
 14 18  1  0
 15 19  2  0
 16 19  1  0
M  END
>  <PUBCHEM_COMPOUND_CID>  (1) 
37305

>  <PUBCHEM_CONFORMER_RMSD>  (1) 
0.8

>  <PUBCHEM_CONFORMER_DIVERSEORDER>  (1) 
10
47
33
37
60
44
29
50
40
12
64
31
45
42
35
52
41
16
5
17
65
56
30
23
58
32
53
18
27
66
63
13
49
36
54
25
62
20
48
38
7
61
59
39
6
21
34
51
46
57
14
4
28
8
24
15
2
43
3
19
9
55
26
1
11
22

>  <PUBCHEM_MMFF94_PARTIAL_CHARGES>  (1) 
19
1 -0.57
10 0.57
12 0.12
13 -0.14
14 -0.14
15 -0.15
16 -0.15
17 0.14
18 0.14
19 -0.15
2 -0.81
3 -0.55
36 0.37
37 0.15
38 0.15
45 0.15
5 0.27
8 0.33
9 0.27

>  <PUBCHEM_EFFECTIVE_ROTOR_COUNT>  (1) 
8

>  <PUBCHEM_PHARMACOPHORE_FEATURES>  (1) 
5
1 1 acceptor
1 11 hydrophobe
1 2 cation
1 3 donor
6 12 13 14 15 16 19 rings

>  <PUBCHEM_HEAVY_ATOM_COUNT>  (1) 
19

>  <PUBCHEM_ATOM_DEF_STEREO_COUNT>  (1) 
0

>  <PUBCHEM_ATOM_UDEF_STEREO_COUNT>  (1) 
0

>  <PUBCHEM_BOND_DEF_STEREO_COUNT>  (1) 
0

>  <PUBCHEM_BOND_UDEF_STEREO_COUNT>  (1) 
0

>  <PUBCHEM_ISOTOPIC_ATOM_COUNT>  (1) 
0

>  <PUBCHEM_COMPONENT_COUNT>  (1) 
1

>  <PUBCHEM_CACTVS_TAUTO_COUNT>  (1) 
2

>  <PUBCHEM_CONFORMER_ID>  (1) 
000091B90000000A

>  <PUBCHEM_MMFF94_ENERGY>  (1) 
62.1665

>  <PUBCHEM_FEATURE_SELFOVERLAP>  (1) 
25.371

>  <PUBCHEM_SHAPE_FINGERPRINT>  (1) 
10411042 1 18050849112094978235
10730089 173 18411700976038204216
10968037 39 18410855460634570487
11315181 36 18186522128567282793
12091667 2 18409731772282717418
12107183 9 17615119988845296210
12236239 1 18113335302028571090
12507557 5 18409169917683294897
13288520 33 18413388761310892655
13403585 85 18342454854886801040
14251764 18 18186799185019587088
14933364 13 18342176674714294432
15183329 4 18409733929136865978
15716309 27 17458059357671294634
17093844 174 18408037433723027842
17492 89 17900828463549465267
17834072 33 18333734649820912236
17834076 25 11455891369292799534
18681886 176 18340480166404946640
18927931 339 18341899623263962847
19489759 90 18411982459573025633
20281389 69 18187362121909187116
20567600 75 17632304432712817708
21033648 29 17060041623893050400
21150785 3 17418370298985488116
21267235 1 18336550512353904547
21315763 28 18411699894634704480
2297311 6 18272937128508767041
23402539 116 18341607123359008215
23536379 177 18409730647628870970
23557571 272 18060706065442247969
23559900 14 18340762727876715777
300161 21 18040994025247982378
335352 9 18410852162532606893
3545911 37 18411419501282870731
4073 2 18041284365744301538
4214541 1 18409167718554154529
4325135 7 17822009805403893430
445580 37 18411429397410065668
4463277 17 18334012805178299636
54446538 1 18409450297828447508
59755656 215 18342459214400075366
59755656 520 16950281831836458947
6327066 14 17971183726236751093
67856867 119 18262521514920354724

>  <PUBCHEM_SHAPE_MULTIPOLES>  (1) 
375.18
17.91
1.77
0.8
35.96
0.08
-0.09
0.43
-0.28
-3.04
0.19
0.06
-0.01
-0.31

>  <PUBCHEM_SHAPE_SELFOVERLAP>  (1) 
747.517

>  <PUBCHEM_SHAPE_VOLUME>  (1) 
224.5

>  <PUBCHEM_COORDINATE_TYPE>  (1) 
2
5
10

$$$$
