37316
     RDKit          3D

 18 19  0  0  0  0  0  0  0  0999 V2000
   -1.7586    0.2533   -0.9550 N   0  0  0  0  0  0  0  0  0  0  0  0
    2.2153    1.2449    0.0317 N   0  0  0  0  0  0  0  0  0  0  0  0
   -1.3108    1.4165   -0.4263 N   0  0  0  0  0  0  0  0  0  0  0  0
    0.9598    0.7796   -0.3409 N   0  0  0  0  0  0  0  0  0  0  0  0
    0.1979    2.9254    0.3955 N   0  0  0  0  0  0  0  0  0  0  0  0
   -5.1128   -1.1934    0.9261 C   0  0  0  0  0  0  0  0  0  0  0  0
   -4.2030   -2.0740    0.0674 C   0  0  0  0  0  0  0  0  0  0  0  0
   -4.3773    0.0527    1.4231 C   0  0  0  0  0  0  0  0  0  0  0  0
    4.8473   -1.8974    0.3169 C   0  0  0  0  0  0  0  0  0  0  0  0
    5.1090   -0.5391    0.9706 C   0  0  0  0  0  0  0  0  0  0  0  0
    3.3565   -2.1095    0.0462 C   0  0  0  0  0  0  0  0  0  0  0  0
   -3.6201   -1.3031   -1.1110 C   0  0  0  0  0  0  0  0  0  0  0  0
   -3.7964    0.8644    0.2708 C   0  0  0  0  0  0  0  0  0  0  0  0
    4.5596    0.6071    0.1294 C   0  0  0  0  0  0  0  0  0  0  0  0
    2.7725   -0.9927   -0.8118 C   0  0  0  0  0  0  0  0  0  0  0  0
   -2.9687   -0.0397   -0.6090 C   0  0  0  0  0  0  0  0  0  0  0  0
    3.1112    0.3412   -0.1930 C   0  0  0  0  0  0  0  0  0  0  0  0
    0.0185    1.6639   -0.1306 C   0  0  0  0  0  0  0  0  0  0  0  0
  1  3  1  0
  1 16  2  3
  2  4  1  0
  2 17  2  0
  3 18  1  0
  4 18  2  0
  5 18  1  0
  6  7  1  0
  6  8  1  0
  7 12  1  0
  8 13  1  0
  9 10  1  0
  9 11  1  0
 10 14  1  0
 11 15  1  0
 12 16  1  0
 13 16  1  0
 14 17  1  0
 15 17  1  0
M  END
>  <PUBCHEM_COMPOUND_CID>  (1) 
37316

>  <PUBCHEM_CONFORMER_RMSD>  (1) 
0.6

>  <PUBCHEM_CONFORMER_DIVERSEORDER>  (1) 
1
27
9
18
8
16
24
26
22
21
3
14
5
17
19
12
23
4
13
20
11
30
28
25
29
2
6
10
15
7

>  <PUBCHEM_MMFF94_PARTIAL_CHARGES>  (1) 
15
1 -0.49
12 0.06
13 0.06
14 0.06
15 0.06
16 0.33
17 0.33
18 0.55
2 -0.45
3 -0.41
39 0.4
4 -0.45
40 0.4
41 0.4
5 -0.85

>  <PUBCHEM_EFFECTIVE_ROTOR_COUNT>  (1) 
5

>  <PUBCHEM_PHARMACOPHORE_FEATURES>  (1) 
7
1 1 acceptor
1 2 acceptor
1 3 donor
1 5 donor
4 3 4 5 18 cation
6 6 7 8 12 13 16 rings
6 9 10 11 14 15 17 rings

>  <PUBCHEM_HEAVY_ATOM_COUNT>  (1) 
18

>  <PUBCHEM_ATOM_DEF_STEREO_COUNT>  (1) 
0

>  <PUBCHEM_ATOM_UDEF_STEREO_COUNT>  (1) 
0

>  <PUBCHEM_BOND_DEF_STEREO_COUNT>  (1) 
0

>  <PUBCHEM_BOND_UDEF_STEREO_COUNT>  (1) 
1

>  <PUBCHEM_ISOTOPIC_ATOM_COUNT>  (1) 
0

>  <PUBCHEM_COMPONENT_COUNT>  (1) 
1

>  <PUBCHEM_CACTVS_TAUTO_COUNT>  (1) 
2

>  <PUBCHEM_CONFORMER_ID>  (1) 
000091C400000001

>  <PUBCHEM_MMFF94_ENERGY>  (1) 
37.6255

>  <PUBCHEM_FEATURE_SELFOVERLAP>  (1) 
35.574

>  <PUBCHEM_SHAPE_FINGERPRINT>  (1) 
11796584 16 17822280250139696850
12553582 1 18343586243613940964
12596602 18 17131834308453620162
12670546 177 12324241676407811987
13103583 49 18059586788543436785
13533116 47 18196937893250528523
13544653 18 18335419066963813948
13551218 46 18411422800092632195
14123255 352 10735879477946098115
1420 369 18335703827759291322
14251764 30 16733564800715840915
14252887 29 17846504720809537724
146900 427 18058728138988069336
15352361 1 18409164419855955287
15375462 189 18343582970822688564
15537594 2 18341338867727613126
17780758 139 18130505253985372377
17857418 61 18341609356510231239
1813 80 17967260801275030357
193927 3 18040723553834831842
20261772 1 18060411439550107382
20281475 54 18409168839540917885
20403669 9 18408045117319787031
20432913 95 18409171021389241091
21403212 168 18267875995762911937
21503847 285 14117506663215590386
21673915 165 18411698798611370674
22950370 63 18410299115919032652
231179 274 11167938065670786196
23402539 116 16009025055919153084
235170 7 16008744706065949558
2838139 119 10375876251098046194
314194 84 18338796831013697622
3421961 26 18339641260276220409
351380 3 18334296452870586786
5104073 3 18270673161459018728
5924683 9 17632288025985583495
7064713 232 17275101738731180639
79837 15 17337322874140625552

>  <PUBCHEM_SHAPE_MULTIPOLES>  (1) 
345.53
12.89
2.4
1.03
1.03
0.32
0.1
-7.09
3.46
0.36
0.1
-0.76
-0.17
-0.18

>  <PUBCHEM_SHAPE_SELFOVERLAP>  (1) 
695.579

>  <PUBCHEM_SHAPE_VOLUME>  (1) 
192.2

>  <PUBCHEM_COORDINATE_TYPE>  (1) 
2
5
10

$$$$
