3731
     RDKit          3D

 31 31  0  0  1  0  0  0  0  0999 V2000
    3.4229   -1.3112    0.7600 I   0  0  0  0  0  0  0  0  0  0  0  0
   -2.3000   -3.4188    0.5138 I   0  0  0  0  0  0  0  0  0  0  0  0
   -1.2758    2.5806    1.0056 I   0  0  0  0  0  0  0  0  0  0  0  0
   -4.4833    2.4468   -1.6273 O   0  0  0  0  0  0  0  0  0  0  0  0
    4.7856    1.8617   -1.5455 O   0  0  0  0  0  0  0  0  0  0  0  0
   -3.4976   -0.2128    1.8244 O   0  0  0  0  0  0  0  0  0  0  0  0
    2.1567    1.8685    2.0666 O   0  0  0  0  0  0  0  0  0  0  0  0
   -6.8739    3.4764   -0.6449 O   0  0  0  0  0  0  0  0  0  0  0  0
    6.9173    3.2887   -0.4684 O   0  0  0  0  0  0  0  0  0  0  0  0
    1.6178   -5.0593   -0.8777 O   0  0  0  0  0  0  0  0  0  0  0  0
    1.3583   -3.8002   -3.1062 O   0  0  0  0  0  0  0  0  0  0  0  0
    0.9203   -3.3310    0.5631 N   0  0  0  0  0  0  0  0  0  0  0  0
   -3.4710   -0.0064   -0.4858 N   0  0  0  0  0  0  0  0  0  0  0  0
    2.2079    2.0395   -0.2452 N   0  0  0  0  0  0  0  0  0  0  0  0
    0.4331   -2.0195    0.6606 C   0  0  0  0  0  0  0  0  0  0  0  0
   -1.4263   -0.4800    0.7581 C   0  0  0  0  0  0  0  0  0  0  0  0
    0.8391    0.3543    0.8544 C   0  0  0  0  0  0  0  0  0  0  0  0
    1.3235   -0.9501    0.7571 C   0  0  0  0  0  0  0  0  0  0  0  0
   -0.9418   -1.7843    0.6612 C   0  0  0  0  0  0  0  0  0  0  0  0
   -0.5359    0.5894    0.8548 C   0  0  0  0  0  0  0  0  0  0  0  0
   -4.8726    0.2740   -0.6486 C   0  0  0  0  0  0  0  0  0  0  0  0
    3.1473    3.1359   -0.3114 C   0  0  0  0  0  0  0  0  0  0  0  0
   -5.1907    1.7669   -0.5897 C   0  0  0  0  0  0  0  0  0  0  0  0
    4.6002    2.6699   -0.3827 C   0  0  0  0  0  0  0  0  0  0  0  0
   -2.8907   -0.2299    0.7567 C   0  0  0  0  0  0  0  0  0  0  0  0
    1.7737    1.4764    0.9554 C   0  0  0  0  0  0  0  0  0  0  0  0
   -6.6782    2.0688   -0.7400 C   0  0  0  0  0  0  0  0  0  0  0  0
    5.5975    3.8230   -0.4310 C   0  0  0  0  0  0  0  0  0  0  0  0
    1.1660   -4.1395    1.7924 C   0  0  0  0  0  0  0  0  0  0  0  0
    1.1889   -3.9126   -0.7188 C   0  0  0  0  0  0  0  0  0  0  0  0
    0.9819   -3.0652   -1.9611 C   0  0  0  0  0  0  0  0  0  0  0  0
  1 18  1  0
  2 19  1  0
  3 20  1  0
  4 23  1  0
  5 24  1  0
  6 25  2  0
  7 26  2  0
  8 27  1  0
  9 28  1  0
 10 30  2  0
 11 31  1  0
 12 15  1  0
 12 29  1  0
 12 30  1  0
 13 21  1  0
 13 25  1  0
 14 22  1  0
 14 26  1  0
 15 18  2  0
 15 19  1  0
 16 19  2  0
 16 20  1  0
 16 25  1  0
 17 18  1  0
 17 20  2  0
 17 26  1  0
 21 23  1  0
 22 24  1  0
 23 27  1  0
 24 28  1  0
 30 31  1  0
M  END
>  <PUBCHEM_COMPOUND_CID>  (1) 
3731

>  <PUBCHEM_CONFORMER_RMSD>  (1) 
1.2

>  <PUBCHEM_CONFORMER_DIVERSEORDER>  (1) 
1
10
20
19
22
26
15
7
24
2
12
27
14
25
3
18
11
16
6
21
4
17
9
8
23
13
5

>  <PUBCHEM_MMFF94_PARTIAL_CHARGES>  (1) 
38
1 -0.08
10 -0.57
11 -0.68
12 -0.48
13 -0.73
14 -0.73
15 0.12
16 0.09
17 0.09
18 0.08
19 0.08
2 -0.08
20 0.08
21 0.3
22 0.3
23 0.28
24 0.28
25 0.54
26 0.54
27 0.28
28 0.28
29 0.3
3 -0.08
30 0.57
31 0.34
38 0.37
39 0.37
4 -0.68
49 0.4
5 -0.68
50 0.4
51 0.4
52 0.4
53 0.4
6 -0.57
7 -0.57
8 -0.68
9 -0.68

>  <PUBCHEM_EFFECTIVE_ROTOR_COUNT>  (1) 
13

>  <PUBCHEM_PHARMACOPHORE_FEATURES>  (1) 
19
1 1 hydrophobe
1 10 acceptor
1 11 acceptor
1 11 donor
1 13 donor
1 14 donor
1 2 hydrophobe
1 3 hydrophobe
1 4 acceptor
1 4 donor
1 5 acceptor
1 5 donor
1 6 acceptor
1 7 acceptor
1 8 acceptor
1 8 donor
1 9 acceptor
1 9 donor
6 15 16 17 18 19 20 rings

>  <PUBCHEM_HEAVY_ATOM_COUNT>  (1) 
31

>  <PUBCHEM_ATOM_DEF_STEREO_COUNT>  (1) 
0

>  <PUBCHEM_ATOM_UDEF_STEREO_COUNT>  (1) 
2

>  <PUBCHEM_BOND_DEF_STEREO_COUNT>  (1) 
0

>  <PUBCHEM_BOND_UDEF_STEREO_COUNT>  (1) 
0

>  <PUBCHEM_ISOTOPIC_ATOM_COUNT>  (1) 
0

>  <PUBCHEM_COMPONENT_COUNT>  (1) 
1

>  <PUBCHEM_CACTVS_TAUTO_COUNT>  (1) 
3

>  <PUBCHEM_CONFORMER_ID>  (1) 
00000E9300000001

>  <PUBCHEM_MMFF94_ENERGY>  (1) 
107.8796

>  <PUBCHEM_FEATURE_SELFOVERLAP>  (1) 
96.467

>  <PUBCHEM_SHAPE_FINGERPRINT>  (1) 
10369192 42 18262520407114237165
105312 117 18262519328581320092
10673678 19 18335423452394682101
10675989 125 18337393721065006448
10721379 63 18194970647108390277
10906281 52 18341052930348090099
11578080 2 18041294175090811647
12160290 23 17694496348726427363
12293681 160 18201442522805465784
12788726 201 17686606253391209610
13140716 1 18340485668021287179
13944108 23 18194117413269613973
140371 6 18269272352905448466
14117953 113 18339360765649000406
14747281 78 18042981877793750949
15163728 17 18261108603881543853
15297060 5 18411142471582526817
15439362 3 18336262349380053289
15664445 248 18195812864826388742
17980427 26 17459726246968551914
1813 80 17626945275510912903
21133665 82 18337113466934894948
2334 1 18124312963216901451
23559900 14 18270103622561664995
376196 1 18335413603918245129
38695281 34 18338238266644157980
4015057 19 16628567032142594304
4058900 60 18334859420067233241
44802255 64 18119258496043510860
46194498 28 18264200310778890173

>  <PUBCHEM_SHAPE_MULTIPOLES>  (1) 
611.87
11.91
6.99
1.78
6.5
4.68
-0.71
-20.76
-4.96
-4.37
-2.11
-0.38
1.28
0.89

>  <PUBCHEM_SHAPE_SELFOVERLAP>  (1) 
1188.364

>  <PUBCHEM_SHAPE_VOLUME>  (1) 
379.2

>  <PUBCHEM_COORDINATE_TYPE>  (1) 
2
5
10

$$$$
