37320
     RDKit          3D

 22 23  0  0  0  0  0  0  0  0999 V2000
   -3.6259    2.7719   -0.7840 Cl  0  0  0  0  0  0  0  0  0  0  0  0
    3.6259    2.7718    0.7840 Cl  0  0  0  0  0  0  0  0  0  0  0  0
   -5.4196   -2.1211    0.4923 O   0  0  0  0  0  0  0  0  0  0  0  0
    5.4196   -2.1211   -0.4923 O   0  0  0  0  0  0  0  0  0  0  0  0
   -4.9098    0.1036   -0.0962 N   0  0  0  0  0  0  0  0  0  0  0  0
    4.9098    0.1036    0.0961 N   0  0  0  0  0  0  0  0  0  0  0  0
   -0.7232    0.1402   -0.0155 C   0  0  0  0  0  0  0  0  0  0  0  0
    0.7232    0.1402    0.0155 C   0  0  0  0  0  0  0  0  0  0  0  0
   -1.4146    1.3066   -0.3430 C   0  0  0  0  0  0  0  0  0  0  0  0
    1.4145    1.3067    0.3429 C   0  0  0  0  0  0  0  0  0  0  0  0
   -1.4266   -1.0271    0.2821 C   0  0  0  0  0  0  0  0  0  0  0  0
    1.4265   -1.0270   -0.2822 C   0  0  0  0  0  0  0  0  0  0  0  0
   -3.5123    0.1386   -0.0752 C   0  0  0  0  0  0  0  0  0  0  0  0
    3.5123    0.1386    0.0752 C   0  0  0  0  0  0  0  0  0  0  0  0
   -2.8090    1.3058   -0.3728 C   0  0  0  0  0  0  0  0  0  0  0  0
    2.8090    1.3058    0.3729 C   0  0  0  0  0  0  0  0  0  0  0  0
   -2.8211   -1.0279    0.2524 C   0  0  0  0  0  0  0  0  0  0  0  0
    2.8211   -1.0279   -0.2524 C   0  0  0  0  0  0  0  0  0  0  0  0
   -5.7493   -0.9824    0.1768 C   0  0  0  0  0  0  0  0  0  0  0  0
    5.7493   -0.9824   -0.1767 C   0  0  0  0  0  0  0  0  0  0  0  0
   -7.2043   -0.6083    0.0449 C   0  0  0  0  0  0  0  0  0  0  0  0
    7.2044   -0.6083   -0.0449 C   0  0  0  0  0  0  0  0  0  0  0  0
  1 15  1  0
  2 16  1  0
  3 19  2  0
  4 20  2  0
  5 13  1  0
  5 19  1  0
  6 14  1  0
  6 20  1  0
  7  8  1  0
  7  9  2  0
  7 11  1  0
  8 10  2  0
  8 12  1  0
  9 15  1  0
 10 16  1  0
 11 17  2  0
 12 18  2  0
 13 15  2  0
 13 17  1  0
 14 16  2  0
 14 18  1  0
 19 21  1  0
 20 22  1  0
M  END
>  <PUBCHEM_COMPOUND_CID>  (1) 
37320

>  <PUBCHEM_CONFORMER_RMSD>  (1) 
0.8

>  <PUBCHEM_CONFORMER_DIVERSEORDER>  (1) 
1
3
2
4

>  <PUBCHEM_MMFF94_PARTIAL_CHARGES>  (1) 
28
1 -0.18
10 -0.15
11 -0.15
12 -0.15
13 0.12
14 0.12
15 0.18
16 0.18
17 -0.15
18 -0.15
19 0.57
2 -0.18
20 0.57
21 0.06
22 0.06
23 0.15
24 0.15
25 0.15
26 0.15
27 0.15
28 0.15
29 0.37
3 -0.57
30 0.37
4 -0.57
5 -0.55
6 -0.55
9 -0.15

>  <PUBCHEM_EFFECTIVE_ROTOR_COUNT>  (1) 
5

>  <PUBCHEM_PHARMACOPHORE_FEATURES>  (1) 
6
1 3 acceptor
1 4 acceptor
1 5 donor
1 6 donor
6 7 9 11 13 15 17 rings
6 8 10 12 14 16 18 rings

>  <PUBCHEM_HEAVY_ATOM_COUNT>  (1) 
22

>  <PUBCHEM_ATOM_DEF_STEREO_COUNT>  (1) 
0

>  <PUBCHEM_ATOM_UDEF_STEREO_COUNT>  (1) 
0

>  <PUBCHEM_BOND_DEF_STEREO_COUNT>  (1) 
0

>  <PUBCHEM_BOND_UDEF_STEREO_COUNT>  (1) 
0

>  <PUBCHEM_ISOTOPIC_ATOM_COUNT>  (1) 
0

>  <PUBCHEM_COMPONENT_COUNT>  (1) 
1

>  <PUBCHEM_CACTVS_TAUTO_COUNT>  (1) 
3

>  <PUBCHEM_CONFORMER_ID>  (1) 
000091C800000001

>  <PUBCHEM_MMFF94_ENERGY>  (1) 
73.4846

>  <PUBCHEM_FEATURE_SELFOVERLAP>  (1) 
30.446

>  <PUBCHEM_SHAPE_FINGERPRINT>  (1) 
10 15 18339350968643936840
10366900 7 16153426142667150080
11315181 36 17022912254283872901
11524674 6 16917068875986570247
12166972 35 18408325501227358316
12403259 415 18410565193353967885
12507560 40 18411976983743450348
12516196 113 18273213080632204296
12616971 3 17346311630757622725
13288520 33 18408604760443256909
13533116 47 18201157740903779608
13685833 64 18413108355749435770
14170010 4 18272930553473201136
1420 363 18410014338270824423
14251764 18 18412266147048724328
14341114 176 18410576222856149969
14350574 20 18410012134936556484
15042514 8 18263647436813827507
15196674 1 18410572885640356036
15475509 35 17604971690617320346
17844677 252 18411987957115879304
18222031 100 17167858685945831716
18927931 339 18261115175719739135
19433438 28 18410289215998504849
200 152 17917709089044066672
20645477 70 18272936024950091870
21049683 271 18411142468099799668
21130935 74 18202284675951007602
21150785 3 16443068309176319054
21236236 1 18410575051237374413
21267235 1 18410860957686313667
21279426 13 18194120712273385446
21682296 61 18200602397248112886
21792934 111 18271800233881792633
220451 1 13695864853152888001
221357 26 18410854360659037416
22224240 67 16917344844619917582
2297311 6 18333734615556197333
23402539 116 18334009467408514165
23522609 53 18122659173132904772
23557571 272 18408606937606996101
23559900 14 18335135423007409225
3004659 81 18187080671889682712
335352 9 18412263960340905622
34797466 226 18060147557212894412
350125 39 18411420617742499420
3545911 37 18410572885645117614
4073 2 18188213224653725826
4214541 1 18410292480347716541
465052 167 18272654541520869646
5104073 3 18341043038848906288
59755656 215 18187081741584940019
7495541 125 18411421726176338640
9709674 26 18337110188898629098
9996256 80 18410013221463062043

>  <PUBCHEM_SHAPE_MULTIPOLES>  (1) 
434.79
16.82
2.35
0.73
0
1.33
0
-7.15
0
0
0
0
0.16
1.65

>  <PUBCHEM_SHAPE_SELFOVERLAP>  (1) 
911.482

>  <PUBCHEM_SHAPE_VOLUME>  (1) 
247.6

>  <PUBCHEM_COORDINATE_TYPE>  (1) 
2
5
10

$$$$
