37325
     RDKit          3D

 15 15  0  0  0  0  0  0  0  0999 V2000
   -1.5227   -2.2835   -0.5396 O   0  0  0  0  0  0  0  0  0  0  0  0
    0.1211   -1.8528    1.0132 O   0  0  0  0  0  0  0  0  0  0  0  0
    3.0409    0.3686   -0.1891 N   0  0  0  0  0  0  0  0  0  0  0  0
    1.0364    0.7199    0.6510 N   0  0  0  0  0  0  0  0  0  0  0  0
    1.7102    0.6198   -0.3966 N   0  0  0  0  0  0  0  0  0  0  0  0
   -1.2058   -0.0733    0.1428 C   0  0  0  0  0  0  0  0  0  0  0  0
   -0.3039    0.9736    0.3325 C   0  0  0  0  0  0  0  0  0  0  0  0
   -2.5363    0.2010   -0.1739 C   0  0  0  0  0  0  0  0  0  0  0  0
   -0.7323    2.2949    0.2056 C   0  0  0  0  0  0  0  0  0  0  0  0
   -2.9647    1.5224   -0.3008 C   0  0  0  0  0  0  0  0  0  0  0  0
   -2.0628    2.5694   -0.1110 C   0  0  0  0  0  0  0  0  0  0  0  0
   -0.7861   -1.4629    0.2688 C   0  0  0  0  0  0  0  0  0  0  0  0
    3.5244   -0.3712    0.9638 C   0  0  0  0  0  0  0  0  0  0  0  0
    3.8860    0.4529   -1.3629 C   0  0  0  0  0  0  0  0  0  0  0  0
   -1.2044   -3.6788   -0.5038 C   0  0  0  0  0  0  0  0  0  0  0  0
  1 12  1  0
  1 15  1  0
  2 12  2  0
  3  5  1  0
  3 13  1  0
  3 14  1  0
  4  5  2  0
  4  7  1  0
  6  7  2  0
  6  8  1  0
  6 12  1  0
  7  9  1  0
  8 10  2  0
  9 11  2  0
 10 11  1  0
M  END
>  <PUBCHEM_COMPOUND_CID>  (1) 
37325

>  <PUBCHEM_CONFORMER_RMSD>  (1) 
0.6

>  <PUBCHEM_CONFORMER_DIVERSEORDER>  (1) 
1
19
16
6
2
17
14
8
5
4
10
15
7
18
11
9
13
3
12

>  <PUBCHEM_MMFF94_PARTIAL_CHARGES>  (1) 
19
1 -0.43
10 -0.15
11 -0.15
12 0.63
13 0.3
14 0.3
15 0.28
16 0.15
17 0.15
18 0.15
19 0.15
2 -0.57
3 -0.54
4 -0.18
5 -0.06
6 0.09
7 0.18
8 -0.15
9 -0.15

>  <PUBCHEM_EFFECTIVE_ROTOR_COUNT>  (1) 
4

>  <PUBCHEM_PHARMACOPHORE_FEATURES>  (1) 
2
1 2 acceptor
6 6 7 8 9 10 11 rings

>  <PUBCHEM_HEAVY_ATOM_COUNT>  (1) 
15

>  <PUBCHEM_ATOM_DEF_STEREO_COUNT>  (1) 
0

>  <PUBCHEM_ATOM_UDEF_STEREO_COUNT>  (1) 
0

>  <PUBCHEM_BOND_DEF_STEREO_COUNT>  (1) 
0

>  <PUBCHEM_BOND_UDEF_STEREO_COUNT>  (1) 
0

>  <PUBCHEM_ISOTOPIC_ATOM_COUNT>  (1) 
0

>  <PUBCHEM_COMPONENT_COUNT>  (1) 
1

>  <PUBCHEM_CACTVS_TAUTO_COUNT>  (1) 
1

>  <PUBCHEM_CONFORMER_ID>  (1) 
000091CD00000001

>  <PUBCHEM_MMFF94_ENERGY>  (1) 
46.4227

>  <PUBCHEM_FEATURE_SELFOVERLAP>  (1) 
10.148

>  <PUBCHEM_SHAPE_FINGERPRINT>  (1) 
116883 192 17910948368661121663
12138202 97 18411989048205851758
12500047 106 18340199709752333112
12553582 1 17977667837761927082
12716758 59 18342173362672101520
13380535 76 18118681020278501305
15279307 12 18260267408983141786
15502708 8 18339087097951974006
15669948 3 18335986445376527380
16945 1 18413105069529807057
193761 8 17906448088969676097
20524608 308 18341617026936654534
20645476 183 17531827808449135246
20871998 184 18338809999536427379
20871999 31 18338241594874352732
21524375 3 18188769422912983857
2334 1 17906168812630793905
23402539 116 18270384036607691165
23419403 2 16914796296841102971
23463225 33 17971185929021379072
23552423 10 17691400811699395245
23557571 272 18128814334283434376
23559900 14 18343863308661655384
23598291 2 17822010878950512430
23728640 28 18337942416317248386
257057 1 17908129233188930654
2748010 2 18194409891988602727
3250762 1 17984127442720814153
43471831 8 18194117422032874931
7364860 26 17548973360744148475
81228 2 18193552500552282553
81539 233 18045219332701601621
88987 49 18410851075663105744

>  <PUBCHEM_SHAPE_MULTIPOLES>  (1) 
282.01
5.18
3.36
0.94
5.71
3.31
0.06
-2.21
1.04
-2.71
0.45
0.74
0.08
-0.43

>  <PUBCHEM_SHAPE_SELFOVERLAP>  (1) 
577.319

>  <PUBCHEM_SHAPE_VOLUME>  (1) 
165.1

>  <PUBCHEM_COORDINATE_TYPE>  (1) 
2
5
10

$$$$
