37324
     RDKit          3D

 26 28  0  0  1  0  0  0  0  0999 V2000
    0.8812   -0.7443   -0.6890 Si  0  0  0  0  0  4  0  0  0  0  0  0
   -1.5605    0.0255    1.1581 Si  0  0  0  0  0  4  0  0  0  0  0  0
    1.5735    2.3229   -1.0538 Si  0  0  0  0  0  4  0  0  0  0  0  0
   -0.9540    3.0909    0.6946 Si  0  0  0  0  0  4  0  0  0  0  0  0
   -0.0922   -0.5946    0.6593 O   0  0  0  0  0  0  0  0  0  0  0  0
    1.1236    0.7467   -1.4016 O   0  0  0  0  0  0  0  0  0  0  0  0
   -1.7256    1.6048    0.6428 O   0  0  0  0  0  0  0  0  0  0  0  0
    0.6388    2.9067    0.2085 O   0  0  0  0  0  0  0  0  0  0  0  0
    2.5737   -1.3246   -0.0911 C   0  0  0  0  0  0  0  0  0  0  0  0
   -2.8841   -0.9898    0.2768 C   0  0  0  0  0  0  0  0  0  0  0  0
    0.1881   -1.9804   -1.9048 C   0  0  0  0  0  0  0  0  0  0  0  0
   -1.7780   -0.1262    3.0052 C   0  0  0  0  0  0  0  0  0  0  0  0
    3.3928    2.3930   -0.5765 C   0  0  0  0  0  0  0  0  0  0  0  0
    1.3503    3.3963   -2.5827 C   0  0  0  0  0  0  0  0  0  0  0  0
   -1.8464    4.3063   -0.4297 C   0  0  0  0  0  0  0  0  0  0  0  0
   -1.0063    3.7901    2.4404 C   0  0  0  0  0  0  0  0  0  0  0  0
    3.6475   -1.5247   -0.9923 C   0  0  0  0  0  0  0  0  0  0  0  0
   -2.9950   -2.3878    0.4720 C   0  0  0  0  0  0  0  0  0  0  0  0
    2.8259   -1.5791    1.2789 C   0  0  0  0  0  0  0  0  0  0  0  0
   -3.8100   -0.3866   -0.6083 C   0  0  0  0  0  0  0  0  0  0  0  0
    4.8989   -1.9536   -0.5500 C   0  0  0  0  0  0  0  0  0  0  0  0
   -3.9738   -3.1383   -0.1796 C   0  0  0  0  0  0  0  0  0  0  0  0
    4.0772   -2.0080    1.7213 C   0  0  0  0  0  0  0  0  0  0  0  0
   -4.7889   -1.1369   -1.2599 C   0  0  0  0  0  0  0  0  0  0  0  0
    5.1138   -2.1954    0.8068 C   0  0  0  0  0  0  0  0  0  0  0  0
   -4.8706   -2.5128   -1.0455 C   0  0  0  0  0  0  0  0  0  0  0  0
  1  5  1  0
  1  6  1  0
  1  9  1  0
  1 11  1  0
  2  5  1  0
  2  7  1  0
  2 10  1  0
  2 12  1  0
  3  6  1  0
  3  8  1  0
  3 13  1  0
  3 14  1  0
  4  7  1  0
  4  8  1  0
  4 15  1  0
  4 16  1  0
  9 17  2  0
  9 19  1  0
 10 18  2  0
 10 20  1  0
 17 21  1  0
 18 22  1  0
 19 23  2  0
 20 24  2  0
 21 25  2  0
 22 26  2  0
 23 25  1  0
 24 26  1  0
M  END
>  <PUBCHEM_COMPOUND_CID>  (1) 
37324

>  <PUBCHEM_CONFORMER_RMSD>  (1) 
0.8

>  <PUBCHEM_CONFORMER_DIVERSEORDER>  (1) 
2
3
1
6
5
7
4

>  <PUBCHEM_MMFF94_PARTIAL_CHARGES>  (1) 
36
1 0.9
10 -0.22
11 -0.08
12 -0.08
13 -0.08
14 -0.08
15 -0.08
16 -0.08
17 -0.15
18 -0.15
19 -0.15
2 0.9
20 -0.15
21 -0.15
22 -0.15
23 -0.15
24 -0.15
25 -0.15
26 -0.15
3 0.76
4 0.76
45 0.15
46 0.15
47 0.15
48 0.15
49 0.15
5 -0.59
50 0.15
51 0.15
52 0.15
53 0.15
54 0.15
6 -0.59
7 -0.59
8 -0.59
9 -0.22

>  <PUBCHEM_EFFECTIVE_ROTOR_COUNT>  (1) 
3.6

>  <PUBCHEM_PHARMACOPHORE_FEATURES>  (1) 
2
6 10 18 20 22 24 26 rings
6 9 17 19 21 23 25 rings

>  <PUBCHEM_HEAVY_ATOM_COUNT>  (1) 
26

>  <PUBCHEM_ATOM_DEF_STEREO_COUNT>  (1) 
2

>  <PUBCHEM_ATOM_UDEF_STEREO_COUNT>  (1) 
0

>  <PUBCHEM_BOND_DEF_STEREO_COUNT>  (1) 
0

>  <PUBCHEM_BOND_UDEF_STEREO_COUNT>  (1) 
0

>  <PUBCHEM_ISOTOPIC_ATOM_COUNT>  (1) 
0

>  <PUBCHEM_COMPONENT_COUNT>  (1) 
1

>  <PUBCHEM_CACTVS_TAUTO_COUNT>  (1) 
1

>  <PUBCHEM_CONFORMER_ID>  (1) 
000091CC00000002

>  <PUBCHEM_MMFF94_ENERGY>  (1) 
28.2369

>  <PUBCHEM_FEATURE_SELFOVERLAP>  (1) 
10.149

>  <PUBCHEM_SHAPE_FINGERPRINT>  (1) 
1100329 8 18339080368055323465
11513181 2 18198925642637896478
11552529 35 18126564514439045138
11578080 2 17603575331771168564
12156800 1 16447800499700742180
12160290 23 17831041038467570984
12553582 1 18338252487006899875
12788726 201 18265045839172862371
13004483 165 18341606023367650559
13009979 54 18342187656217709050
13083527 12 18341609339076881588
13140716 1 18343033180923252073
133893 2 18118426122158471968
13583140 156 17903922506365747007
13911987 19 17613459043245980452
14068700 675 18409721846481433942
14251757 17 17749931345897851213
17349148 13 18202290224906329223
17980427 23 18273218577393887927
18222031 100 18411698773253290150
18365409 1 17912635818821632765
192875 21 18410575080532096807
20905425 154 18340502143795317852
21304303 282 17761468324082351461
2132832 1 18410012130451840940
23419403 2 18121464008351270228
23557571 272 17916588613707266609
23559900 14 18264194967433593155
238 59 17690010354644665149
3298306 158 17832425671620494303
35225 105 17612858315213228488
4066623 53 18190435269778029613
463206 1 18123191469925196970
6438718 38 17903664893963050112
6669772 16 17264405925871200640
70251023 43 18336558173853127659
7471813 234 18410009948808843406

>  <PUBCHEM_SHAPE_MULTIPOLES>  (1) 
584.44
8.64
5.45
2.24
1.44
5.15
0.68
-10.4
-0.89
-1.01
-0.32
-0.09
0.87
-2.65

>  <PUBCHEM_SHAPE_SELFOVERLAP>  (1) 
1146.553

>  <PUBCHEM_SHAPE_VOLUME>  (1) 
349.1

>  <PUBCHEM_COORDINATE_TYPE>  (1) 
2
5
10

$$$$
