37331
     RDKit          3D

 18 19  0  0  1  0  0  0  0  0999 V2000
    0.2334    0.6537    0.7830 O   0  0  0  0  0  0  0  0  0  0  0  0
    2.8941    0.2204    1.4969 O   0  0  0  0  0  0  0  0  0  0  0  0
    5.0044   -1.5530   -1.2068 N   0  0  0  0  0  0  0  0  0  0  0  0
    5.6784   -0.0270    0.4632 N   0  0  0  0  0  0  0  0  0  0  0  0
    2.4766    0.0963    0.1357 C   0  0  0  0  0  0  0  0  0  0  0  0
    1.2914    1.0285   -0.0943 C   0  0  0  0  0  0  0  0  0  0  0  0
    3.6553    0.4695   -0.7628 C   0  0  0  0  0  0  0  0  0  0  0  0
   -1.9541   -0.1856    0.1951 C   0  0  0  0  0  0  0  0  0  0  0  0
   -1.0410    0.8712    0.3424 C   0  0  0  0  0  0  0  0  0  0  0  0
   -3.2638    0.0902   -0.2652 C   0  0  0  0  0  0  0  0  0  0  0  0
   -1.4139    2.1814    0.0403 C   0  0  0  0  0  0  0  0  0  0  0  0
   -1.5962   -1.5101    0.4944 C   0  0  0  0  0  0  0  0  0  0  0  0
   -3.6217    1.4148   -0.5646 C   0  0  0  0  0  0  0  0  0  0  0  0
   -4.1769   -0.9668   -0.4126 C   0  0  0  0  0  0  0  0  0  0  0  0
   -2.7016    2.4524   -0.4124 C   0  0  0  0  0  0  0  0  0  0  0  0
    4.8559   -0.4112   -0.4641 C   0  0  0  0  0  0  0  0  0  0  0  0
   -2.5163   -2.5479    0.3422 C   0  0  0  0  0  0  0  0  0  0  0  0
   -3.8041   -2.2768   -0.1103 C   0  0  0  0  0  0  0  0  0  0  0  0
  1  6  1  0
  1  9  1  0
  2  5  1  0
  3 16  1  0
  4 16  2  0
  5  6  1  0
  5  7  1  0
  7 16  1  0
  8  9  2  0
  8 10  1  0
  8 12  1  0
  9 11  1  0
 10 13  2  0
 10 14  1  0
 11 15  2  0
 12 17  2  0
 13 15  1  0
 14 18  2  0
 17 18  1  0
M  END
>  <PUBCHEM_COMPOUND_CID>  (1) 
37331

>  <PUBCHEM_CONFORMER_RMSD>  (1) 
0.6

>  <PUBCHEM_CONFORMER_DIVERSEORDER>  (1) 
2
241
55
254
242
127
251
122
236
214
107
120
8
229
252
58
150
25
102
244
202
173
129
43
198
240
97
239
259
132
79
233
189
237
187
250
116
54
210
243
141
14
165
249
119
140
175
225
76
207
230
148
220
166
157
154
147
232
47
224
22
196
184
213
257
191
118
3
45
103
171
168
145
42
245
227
16
194
137
246
192
201
162
62
48
209
111
9
114
110
158
258
164
34
56
81
190
179
146
32
212
96
126
133
218
38
134
70
86
105
1
40
88
7
204
163
169
130
121
211
199
98
59
226
109
37
24
139
235
108
83
69
89
78
101
238
125
123
113
186
27
159
115
5
176
183
167
223
104
234
71
135
161
95
182
18
26
53
99
21
180
52
231
142
215
205
72
200
67
28
208
4
117
85
124
248
31
75
68
177
46
253
197
65
44
228
188
60
174
153
29
138
19
82
84
100
13
41
256
11
64
106
185
36
90
144
50
66
23
33
206
63
216
49
193
128
151
156
260
17
170
181
73
195
74
222
92
217
136
39
178
80
149
160
51
91
87
35
172
10
247
30
219
12
112
94
131
255
57
20
77
143
155
93
61
15
203
6
221
152

>  <PUBCHEM_MMFF94_PARTIAL_CHARGES>  (1) 
27
1 -0.36
11 -0.15
12 -0.15
13 -0.15
14 -0.15
15 -0.15
16 0.44
17 -0.15
18 -0.15
2 -0.68
24 0.15
25 0.15
26 0.15
27 0.15
28 0.15
29 0.15
3 -0.85
30 0.15
31 0.4
32 0.4
33 0.4
34 0.4
4 -0.85
5 0.28
6 0.28
7 0.06
9 0.08

>  <PUBCHEM_EFFECTIVE_ROTOR_COUNT>  (1) 
5

>  <PUBCHEM_PHARMACOPHORE_FEATURES>  (1) 
8
1 1 acceptor
1 2 acceptor
1 2 donor
1 3 donor
1 4 donor
3 3 4 16 cation
6 8 10 12 14 17 18 rings
6 8 9 10 11 13 15 rings

>  <PUBCHEM_HEAVY_ATOM_COUNT>  (1) 
18

>  <PUBCHEM_ATOM_DEF_STEREO_COUNT>  (1) 
0

>  <PUBCHEM_ATOM_UDEF_STEREO_COUNT>  (1) 
1

>  <PUBCHEM_BOND_DEF_STEREO_COUNT>  (1) 
0

>  <PUBCHEM_BOND_UDEF_STEREO_COUNT>  (1) 
0

>  <PUBCHEM_ISOTOPIC_ATOM_COUNT>  (1) 
0

>  <PUBCHEM_COMPONENT_COUNT>  (1) 
1

>  <PUBCHEM_CACTVS_TAUTO_COUNT>  (1) 
1

>  <PUBCHEM_CONFORMER_ID>  (1) 
000091D300000002

>  <PUBCHEM_MMFF94_ENERGY>  (1) 
56.6915

>  <PUBCHEM_FEATURE_SELFOVERLAP>  (1) 
40.665

>  <PUBCHEM_SHAPE_FINGERPRINT>  (1) 
10616163 171 18409449184872813506
10680689 15 18334303049887508608
11315181 36 17989208127571389072
11458722 379 18335420175123599771
12236239 1 17530682099910614784
12553582 1 18262230136012459435
12757275 245 18409167718575299021
14251751 93 18409728448088949598
14251764 30 17825685597135136563
14386348 63 17988927777522539062
14508225 48 18264476442763725693
14790565 3 17764313834221356121
14910302 57 18263645053043149094
15042514 8 18335991947651522931
16752209 62 18334846234448887107
17804303 29 18412261774571719393
17870717 6 18341060631113805254
19141452 34 17987803046295603167
20300324 65 18334015003452683212
20325693 3 18261397723905296525
20374829 77 18339921614466679859
20871999 31 18335421274582194076
21065201 7 18410848833521281544
21267235 1 18335425716142997627
21637258 2 15912749692541625343
221490 88 18339646762566962040
2297311 6 18410581712024580511
23175994 123 17418093230476730201
23402539 116 18408036308125358069
23403322 49 18343024401693698166
23557571 272 18343023285102479925
23559900 14 18340760524706582016
2748010 2 17830997389680149841
4214541 1 18409449167930087404
4921388 177 18335427850134783359
5104073 3 18342457066937468480
559249 180 18189330187187078338
573450 72 18187635878470600880
58051976 100 18333448733505171645
59755656 215 18409726236550148311
59755656 520 18128822928750812185
633830 44 16660945296212065148
67856867 119 18116153449563929516
9709674 26 18340485668094554616

>  <PUBCHEM_SHAPE_MULTIPOLES>  (1) 
348.73
10.76
2.49
0.91
16.01
0.23
-0.05
3.67
2.15
-3.32
0.17
0.66
0.06
0.7

>  <PUBCHEM_SHAPE_SELFOVERLAP>  (1) 
740.951

>  <PUBCHEM_SHAPE_VOLUME>  (1) 
194.8

>  <PUBCHEM_COORDINATE_TYPE>  (1) 
2
5
10

$$$$
