37344
     RDKit          3D

  9  8  0  0  0  0  0  0  0  0999 V2000
    3.7731    1.1516    0.0755 Cl  0  0  0  0  0  0  0  0  0  0  0  0
   -3.2626    1.8624   -0.2058 Cl  0  0  0  0  0  0  0  0  0  0  0  0
   -1.0490   -2.5075   -0.1766 O   0  0  0  0  0  0  0  0  0  0  0  0
    0.0512   -0.4546    0.0782 N   0  0  0  0  0  0  0  0  0  0  0  0
    1.2529    0.2153    0.5460 C   0  0  0  0  0  0  0  0  0  0  0  0
   -0.9947    0.3725   -0.4990 C   0  0  0  0  0  0  0  0  0  0  0  0
    2.3147    0.3315   -0.5346 C   0  0  0  0  0  0  0  0  0  0  0  0
   -1.9939    0.8577    0.5377 C   0  0  0  0  0  0  0  0  0  0  0  0
   -0.0917   -1.8289    0.1786 C   0  0  0  0  0  0  0  0  0  0  0  0
  1  7  1  0
  2  8  1  0
  3  9  2  0
  4  5  1  0
  4  6  1  0
  4  9  1  0
  5  7  1  0
  6  8  1  0
M  END
>  <PUBCHEM_COMPOUND_CID>  (1) 
37344

>  <PUBCHEM_CONFORMER_RMSD>  (1) 
0.6

>  <PUBCHEM_CONFORMER_DIVERSEORDER>  (1) 
1
26
34
36
28
18
32
31
19
27
33
30
6
15
8
21
13
9
35
24
7
29
5
20
4
14
12
11
17
16
10
23
25
3
22
2

>  <PUBCHEM_MMFF94_PARTIAL_CHARGES>  (1) 
10
1 -0.29
18 0.06
2 -0.29
3 -0.57
4 -0.66
5 0.3
6 0.3
7 0.29
8 0.29
9 0.57

>  <PUBCHEM_EFFECTIVE_ROTOR_COUNT>  (1) 
5

>  <PUBCHEM_PHARMACOPHORE_FEATURES>  (1) 
1
1 3 acceptor

>  <PUBCHEM_HEAVY_ATOM_COUNT>  (1) 
9

>  <PUBCHEM_ATOM_DEF_STEREO_COUNT>  (1) 
0

>  <PUBCHEM_ATOM_UDEF_STEREO_COUNT>  (1) 
0

>  <PUBCHEM_BOND_DEF_STEREO_COUNT>  (1) 
0

>  <PUBCHEM_BOND_UDEF_STEREO_COUNT>  (1) 
0

>  <PUBCHEM_ISOTOPIC_ATOM_COUNT>  (1) 
0

>  <PUBCHEM_COMPONENT_COUNT>  (1) 
1

>  <PUBCHEM_CACTVS_TAUTO_COUNT>  (1) 
1

>  <PUBCHEM_CONFORMER_ID>  (1) 
000091E000000001

>  <PUBCHEM_MMFF94_ENERGY>  (1) 
6.8677

>  <PUBCHEM_FEATURE_SELFOVERLAP>  (1) 
5.074

>  <PUBCHEM_SHAPE_FINGERPRINT>  (1) 
1 1 18192713336735684775
12932764 1 17604136121720152748
14325111 11 18410294683433668400
18342897 55 18337663118957333541
20645477 56 18339647840714665984
20711985 344 18122330539509612730
21040471 1 18411415098714642954
21499 59 18337946797252253949
21524375 3 18334573508083226793
21930827 45 18271516598008472050

>  <PUBCHEM_SHAPE_MULTIPOLES>  (1) 
178.1
5.21
2.23
0.75
1.93
1.56
-0.01
-4.67
0.16
-1.16
0.08
0.01
-0.08
0.03

>  <PUBCHEM_SHAPE_SELFOVERLAP>  (1) 
305.648

>  <PUBCHEM_SHAPE_VOLUME>  (1) 
120.7

>  <PUBCHEM_COORDINATE_TYPE>  (1) 
2
5
10

$$$$
