37343
     RDKit          3D

 34 37  0  0  1  0  0  0  0  0999 V2000
    6.5583   -3.6485   -0.2629 Cl  0  0  0  0  0  0  0  0  0  0  0  0
    2.4728    0.7430    1.6621 S   0  0  0  0  0  0  0  0  0  0  0  0
   -5.7412   -1.5664    0.5797 O   0  0  0  0  0  0  0  0  0  0  0  0
   -6.6669   -0.5620   -1.2791 O   0  0  0  0  0  0  0  0  0  0  0  0
    0.9468   -0.9874   -0.4922 N   0  0  0  0  0  0  0  0  0  0  0  0
   -1.6677   -2.2087   -0.3149 N   0  0  0  0  0  0  0  0  0  0  0  0
    2.2648   -0.8161   -1.1003 C   0  0  0  0  0  0  0  0  0  0  0  0
    0.7773   -2.3572    0.0079 C   0  0  0  0  0  0  0  0  0  0  0  0
   -0.1161   -0.6555   -1.4489 C   0  0  0  0  0  0  0  0  0  0  0  0
   -0.6055   -2.5390    0.6432 C   0  0  0  0  0  0  0  0  0  0  0  0
   -1.4989   -0.8385   -0.8142 C   0  0  0  0  0  0  0  0  0  0  0  0
    2.4347    0.5630   -1.7583 C   0  0  0  0  0  0  0  0  0  0  0  0
    3.4170   -1.1404   -0.1719 C   0  0  0  0  0  0  0  0  0  0  0  0
   -2.9860   -2.3814    0.2918 C   0  0  0  0  0  0  0  0  0  0  0  0
    2.5172    1.8583   -0.9718 C   0  0  0  0  0  0  0  0  0  0  0  0
   -4.0468   -2.5622   -0.7893 C   0  0  0  0  0  0  0  0  0  0  0  0
    3.6155   -0.4755    1.0494 C   0  0  0  0  0  0  0  0  0  0  0  0
    4.3462   -2.1214   -0.5647 C   0  0  0  0  0  0  0  0  0  0  0  0
    2.5615    2.0274    0.4241 C   0  0  0  0  0  0  0  0  0  0  0  0
   -5.4363   -2.7229   -0.1874 C   0  0  0  0  0  0  0  0  0  0  0  0
    2.5804    3.0195   -1.7808 C   0  0  0  0  0  0  0  0  0  0  0  0
    4.7153   -0.8077    1.8553 C   0  0  0  0  0  0  0  0  0  0  0  0
    5.4400   -2.4405    0.2393 C   0  0  0  0  0  0  0  0  0  0  0  0
    2.6466    3.3321    0.9573 C   0  0  0  0  0  0  0  0  0  0  0  0
    5.6244   -1.7833    1.4498 C   0  0  0  0  0  0  0  0  0  0  0  0
    2.6717    4.2999   -1.2387 C   0  0  0  0  0  0  0  0  0  0  0  0
    2.7037    4.4563    0.1361 C   0  0  0  0  0  0  0  0  0  0  0  0
   -6.6463    0.5877    0.8646 C   0  0  0  0  0  0  0  0  0  0  0  0
   -6.3630   -0.5477   -0.0942 C   0  0  0  0  0  0  0  0  0  0  0  0
   -5.3792    1.2206    1.4396 C   0  0  0  0  0  0  0  0  0  0  0  0
   -4.4763    1.8129    0.3531 C   0  0  0  0  0  0  0  0  0  0  0  0
   -3.2316    2.4632    0.9602 C   0  0  0  0  0  0  0  0  0  0  0  0
   -2.3434    3.0798   -0.1201 C   0  0  0  0  0  0  0  0  0  0  0  0
   -1.0891    3.6984    0.4761 C   0  0  0  0  0  0  0  0  0  0  0  0
  1 23  1  0
  2 17  1  0
  2 19  1  0
  3 20  1  0
  3 29  1  0
  4 29  2  0
  5  7  1  0
  5  8  1  0
  5  9  1  0
  6 10  1  0
  6 11  1  0
  6 14  1  0
  7 12  1  0
  7 13  1  0
  8 10  1  0
  9 11  1  0
 12 15  1  0
 13 17  2  0
 13 18  1  0
 14 16  1  0
 15 19  2  0
 15 21  1  0
 16 20  1  0
 17 22  1  0
 18 23  2  0
 19 24  1  0
 21 26  2  0
 22 25  2  0
 23 25  1  0
 24 27  2  0
 26 27  1  0
 28 29  1  0
 28 30  1  0
 30 31  1  0
 31 32  1  0
 32 33  1  0
 33 34  1  0
M  END
>  <PUBCHEM_COMPOUND_CID>  (1) 
37343

>  <PUBCHEM_CONFORMER_RMSD>  (1) 
1.4

>  <PUBCHEM_CONFORMER_DIVERSEORDER>  (1) 
1
55
109
50
54
110
106
69
116
63
48
100
79
12
103
25
64
107
49
114
82
90
46
99
111
78
88
67
34
52
108
105
47
65
86
97
98
38
92
112
76
74
95
57
30
4
66
20
70
40
62
39
61
89
84
33
41
113
73
80
72
56
94
36
51
6
91
85
42
101
17
104
83
60
22
43
75
87
3
68
11
59
44
71
9
5
37
77
18
23
28
93
81
19
13
24
26
16
102
21
115
53
32
96
14
2
45
31
29
8
58
27
35
7
15
10

>  <PUBCHEM_MMFF94_PARTIAL_CHARGES>  (1) 
35
1 -0.18
10 0.27
11 0.27
12 0.14
13 -0.14
14 0.27
15 -0.14
17 0.1
18 -0.15
19 0.1
2 -0.2
20 0.28
21 -0.15
22 -0.15
23 0.18
24 -0.15
25 -0.15
26 -0.15
27 -0.15
28 0.06
29 0.66
3 -0.43
4 -0.57
5 -0.81
50 0.15
53 0.15
54 0.15
55 0.15
56 0.15
57 0.15
58 0.15
6 -0.81
7 0.41
8 0.27
9 0.27

>  <PUBCHEM_EFFECTIVE_ROTOR_COUNT>  (1) 
12.8

>  <PUBCHEM_PHARMACOPHORE_FEATURES>  (1) 
9
1 34 hydrophobe
1 4 acceptor
1 5 cation
1 6 cation
5 28 30 31 32 33 hydrophobe
6 13 17 18 22 23 25 rings
6 15 19 21 24 26 27 rings
6 5 6 8 9 10 11 rings
7 2 7 12 13 15 17 19 rings

>  <PUBCHEM_HEAVY_ATOM_COUNT>  (1) 
34

>  <PUBCHEM_ATOM_DEF_STEREO_COUNT>  (1) 
0

>  <PUBCHEM_ATOM_UDEF_STEREO_COUNT>  (1) 
1

>  <PUBCHEM_BOND_DEF_STEREO_COUNT>  (1) 
0

>  <PUBCHEM_BOND_UDEF_STEREO_COUNT>  (1) 
0

>  <PUBCHEM_ISOTOPIC_ATOM_COUNT>  (1) 
0

>  <PUBCHEM_COMPONENT_COUNT>  (1) 
1

>  <PUBCHEM_CACTVS_TAUTO_COUNT>  (1) 
1

>  <PUBCHEM_CONFORMER_ID>  (1) 
000091DF00000001

>  <PUBCHEM_MMFF94_ENERGY>  (1) 
73.7501

>  <PUBCHEM_FEATURE_SELFOVERLAP>  (1) 
45.685

>  <PUBCHEM_SHAPE_FINGERPRINT>  (1) 
10006869 2 18270682094716791413
10439779 11 18195807366993911129
10864689 126 17765441941973101029
11136131 41 18192708067486435808
12166972 35 18341896259924424328
12422481 6 18060414716467332747
131258 38 18334851736486550802
13878862 14 18190721206782239807
14068700 675 18341334388229639064
14117953 113 18266458690546153125
14400156 266 18200613457717061820
14466204 15 18337954463557945634
14739800 52 18055351602501973945
14849402 71 18336270132219451004
14955137 171 18336268921138549346
15001296 14 18334857277263583017
15264996 142 18192735383267169787
15264996 151 18118405275368620137
15264996 154 18045513172561954294
15781502 13 17555472634807361758
16112460 7 18407762538356782464
20764821 26 18341629121971028033
21033648 29 17631712925538403562
21792965 302 18260268530602498134
23559900 14 18337669818911519542
249057 25 18059573629228293991
338550 245 18410857659521033473
350125 39 18410013251469778574
3504750 166 18272076176661707383
3680242 22 18410017671666625729
373842 8 18340484573389688241
392239 28 18341337721620074393
4058900 60 17610631082512665148
4144715 1 18189619513343433683
5104073 3 18188212130096571555
6371009 1 18341327817261706009

>  <PUBCHEM_SHAPE_MULTIPOLES>  (1) 
683.72
15.65
5.78
1.55
17.15
4.91
0
-10.79
-3.06
-3.86
0.61
-1.03
0.49
-1.91

>  <PUBCHEM_SHAPE_SELFOVERLAP>  (1) 
1401.436

>  <PUBCHEM_SHAPE_VOLUME>  (1) 
394.3

>  <PUBCHEM_COORDINATE_TYPE>  (1) 
2
5
10

$$$$
