37352
     RDKit          3D

 24 27  0  0  1  0  0  0  0  0999 V2000
   -4.4210    0.8390    1.4808 O   0  0  0  0  0  0  0  0  0  0  0  0
    1.1334    0.9213    0.0043 N   0  0  0  0  0  0  0  0  0  0  0  0
    2.6628    3.3721    0.1199 N   0  0  0  0  0  0  0  0  0  0  0  0
    1.5872   -3.5645   -0.5963 N   0  0  0  0  0  0  0  0  0  0  0  0
    0.3115   -0.1293    0.6016 C   0  0  0  0  0  0  0  0  0  0  0  0
    0.4729    2.2275    0.1167 C   0  0  0  0  0  0  0  0  0  0  0  0
    2.4615    0.9628    0.6287 C   0  0  0  0  0  0  0  0  0  0  0  0
   -1.1261   -0.0619    0.1163 C   0  0  0  0  0  0  0  0  0  0  0  0
    1.3353    3.3311   -0.5055 C   0  0  0  0  0  0  0  0  0  0  0  0
    3.3233    2.0661    0.0053 C   0  0  0  0  0  0  0  0  0  0  0  0
    0.9863   -1.4877    0.4908 C   0  0  0  0  0  0  0  0  0  0  0  0
   -1.4777   -0.3482   -1.2146 C   0  0  0  0  0  0  0  0  0  0  0  0
   -0.4396   -0.8187   -2.1964 C   0  0  0  0  0  0  0  0  0  0  0  0
    0.9123   -2.3772   -0.5900 C   0  0  0  0  0  0  0  0  0  0  0  0
    0.0709   -2.2060   -1.8290 C   0  0  0  0  0  0  0  0  0  0  0  0
   -2.1348    0.3389    1.0116 C   0  0  0  0  0  0  0  0  0  0  0  0
    1.8195   -1.8657    1.5650 C   0  0  0  0  0  0  0  0  0  0  0  0
    3.4849    4.4236   -0.4756 C   0  0  0  0  0  0  0  0  0  0  0  0
   -2.8168   -0.2305   -1.6214 C   0  0  0  0  0  0  0  0  0  0  0  0
   -3.4618    0.4508    0.5968 C   0  0  0  0  0  0  0  0  0  0  0  0
   -3.8025    0.1676   -0.7205 C   0  0  0  0  0  0  0  0  0  0  0  0
    2.5132   -3.0676    1.5608 C   0  0  0  0  0  0  0  0  0  0  0  0
    2.3624   -3.8785    0.4614 C   0  0  0  0  0  0  0  0  0  0  0  0
   -5.7569    0.9351    0.9890 C   0  0  0  0  0  0  0  0  0  0  0  0
  1 20  1  0
  1 24  1  0
  2  5  1  0
  2  6  1  0
  2  7  1  0
  3  9  1  0
  3 10  1  0
  3 18  1  0
  4 14  2  0
  4 23  1  0
  5  8  1  0
  5 11  1  0
  6  9  1  0
  7 10  1  0
  8 12  2  0
  8 16  1  0
 11 14  1  0
 11 17  2  0
 12 13  1  0
 12 19  1  0
 13 15  1  0
 14 15  1  0
 16 20  2  0
 17 22  1  0
 19 21  2  0
 20 21  1  0
 22 23  2  0
M  END
>  <PUBCHEM_COMPOUND_CID>  (1) 
37352

>  <PUBCHEM_CONFORMER_RMSD>  (1) 
0.6

>  <PUBCHEM_CONFORMER_DIVERSEORDER>  (1) 
1
3
4
2

>  <PUBCHEM_MMFF94_PARTIAL_CHARGES>  (1) 
30
1 -0.36
10 0.27
11 -0.14
12 -0.14
13 0.14
14 0.17
15 0.14
16 -0.15
17 -0.15
18 0.27
19 -0.15
2 -0.81
20 0.08
21 -0.15
22 -0.15
23 0.16
24 0.28
3 -0.81
38 0.15
39 0.15
4 -0.62
43 0.15
44 0.15
45 0.15
46 0.15
5 0.56
6 0.27
7 0.27
8 -0.14
9 0.27

>  <PUBCHEM_EFFECTIVE_ROTOR_COUNT>  (1) 
3.8

>  <PUBCHEM_PHARMACOPHORE_FEATURES>  (1) 
8
1 1 acceptor
1 2 cation
1 3 cation
1 4 acceptor
6 2 3 6 7 9 10 rings
6 4 11 14 17 22 23 rings
6 8 12 16 19 20 21 rings
7 5 8 11 12 13 14 15 rings

>  <PUBCHEM_HEAVY_ATOM_COUNT>  (1) 
24

>  <PUBCHEM_ATOM_DEF_STEREO_COUNT>  (1) 
0

>  <PUBCHEM_ATOM_UDEF_STEREO_COUNT>  (1) 
1

>  <PUBCHEM_BOND_DEF_STEREO_COUNT>  (1) 
0

>  <PUBCHEM_BOND_UDEF_STEREO_COUNT>  (1) 
0

>  <PUBCHEM_ISOTOPIC_ATOM_COUNT>  (1) 
0

>  <PUBCHEM_COMPONENT_COUNT>  (1) 
1

>  <PUBCHEM_CACTVS_TAUTO_COUNT>  (1) 
1

>  <PUBCHEM_CONFORMER_ID>  (1) 
000091E800000001

>  <PUBCHEM_MMFF94_ENERGY>  (1) 
87.4058

>  <PUBCHEM_FEATURE_SELFOVERLAP>  (1) 
40.616

>  <PUBCHEM_SHAPE_FINGERPRINT>  (1) 
10382601 240 18340501005613140449
107951 10 18050869989286783500
11578080 2 17314231047029280293
11640471 11 18129935805773130333
12173636 292 17906733957296932524
12422481 6 17908671009560121770
12553582 1 18124026841127871390
12592029 89 18337379556483741111
12633257 1 18040987449674054459
12644460 14 18342187617937549875
12788726 201 17253730277934857890
12930653 34 18119260694929597091
13009979 54 17774142536149569031
13134695 92 18118953711609196390
13140716 1 18264208182921128784
133893 2 18339343219884514239
13681431 1 18265883671074551738
14817 1 15695424638541073406
14840074 17 18120904336333232426
14955137 171 18410858724978891138
15463212 79 17979903131763053681
15842332 3 18059278938473300191
15906896 17 17621892306109763270
16945 1 18335129891026104849
1813 80 17982735173057872966
18785283 64 18407760334991125994
20101258 96 17834107546881449562
20739085 24 18127970810806025306
21041028 32 18048594824402503944
21344244 78 18200584779766700905
21524375 3 18197499743001368501
21756936 100 17980769560053411688
22907989 373 16895115210666485452
23558518 356 17905891736064558878
25147074 1 17988630905641947591
266924 78 18048281652562037247
283562 15 17689428712714269595
298252 57 17559970985114309669
31174 14 18260831445378627019
3187 122 17690263929350180402
3380486 145 17266053686074392226
3886686 26 17259579027519469160
394222 165 18272943734110485251
404807 78 16234212489653218661
474 4 18339924917296634537
513202 73 17404854856981122146
59755656 520 18049446143035266668
633830 44 18270125741400840860
6786 2 17683561628257236173
77188 2 18048321041828193706
81228 2 17402600853721522416
8272917 22 18410297999644299833
90316 7 17620193135469707603
9841814 1 18193575375811994539
9999458 23 18337402607520627468

>  <PUBCHEM_SHAPE_MULTIPOLES>  (1) 
473.1
6.97
5.08
1.64
10.04
1.08
0.44
4.34
-2.6
-8.97
0.16
0.78
-0.91
-1.63

>  <PUBCHEM_SHAPE_SELFOVERLAP>  (1) 
1021.706

>  <PUBCHEM_SHAPE_VOLUME>  (1) 
258.2

>  <PUBCHEM_COORDINATE_TYPE>  (1) 
2
5
10

$$$$
