37356
     RDKit          3D

 22 24  0  0  0  0  0  0  0  0999 V2000
    4.3573   -0.9980    0.4908 N   0  0  0  0  0  0  0  0  0  0  0  0
   -0.7827    1.2826   -0.4707 C   0  0  0  0  0  0  0  0  0  0  0  0
   -1.9263    1.8674    0.0982 C   0  0  0  0  0  0  0  0  0  0  0  0
   -3.2552    1.1603    0.0223 C   0  0  0  0  0  0  0  0  0  0  0  0
    0.4527    1.9424   -0.3822 C   0  0  0  0  0  0  0  0  0  0  0  0
   -3.2726   -0.1118    0.8710 C   0  0  0  0  0  0  0  0  0  0  0  0
    1.7094    1.3483   -0.9367 C   0  0  0  0  0  0  0  0  0  0  0  0
   -0.8966   -0.0255   -1.1494 C   0  0  0  0  0  0  0  0  0  0  0  0
   -2.4340   -1.3005    0.4357 C   0  0  0  0  0  0  0  0  0  0  0  0
    2.4267    0.4570    0.0865 C   0  0  0  0  0  0  0  0  0  0  0  0
   -1.3569   -1.2698   -0.4777 C   0  0  0  0  0  0  0  0  0  0  0  0
   -1.8174    3.1086    0.7412 C   0  0  0  0  0  0  0  0  0  0  0  0
    3.6854   -0.1741   -0.5068 C   0  0  0  0  0  0  0  0  0  0  0  0
    0.5477    3.1765    0.2605 C   0  0  0  0  0  0  0  0  0  0  0  0
   -0.5862    3.7593    0.8205 C   0  0  0  0  0  0  0  0  0  0  0  0
   -2.7624   -2.5288    1.0522 C   0  0  0  0  0  0  0  0  0  0  0  0
   -0.6463   -2.4646   -0.7283 C   0  0  0  0  0  0  0  0  0  0  0  0
   -0.6533   -0.0390   -2.4747 C   0  0  0  0  0  0  0  0  0  0  0  0
   -2.0585   -3.6991    0.7767 C   0  0  0  0  0  0  0  0  0  0  0  0
   -0.9971   -3.6663   -0.1140 C   0  0  0  0  0  0  0  0  0  0  0  0
    4.7157   -0.1980    1.6634 C   0  0  0  0  0  0  0  0  0  0  0  0
    5.5505   -1.6268   -0.0784 C   0  0  0  0  0  0  0  0  0  0  0  0
  1 13  1  0
  1 21  1  0
  1 22  1  0
  2  3  2  0
  2  5  1  0
  2  8  1  0
  3  4  1  0
  3 12  1  0
  4  6  1  0
  5  7  1  0
  5 14  2  0
  6  9  1  0
  7 10  1  0
  8 11  1  0
  8 18  2  0
  9 11  2  0
  9 16  1  0
 10 13  1  0
 11 17  1  0
 12 15  2  0
 14 15  1  0
 16 19  2  0
 17 20  2  0
 19 20  1  0
M  END
>  <PUBCHEM_COMPOUND_CID>  (1) 
37356

>  <PUBCHEM_CONFORMER_RMSD>  (1) 
0.8

>  <PUBCHEM_CONFORMER_DIVERSEORDER>  (1) 
1
19
18
11
7
2
16
5
9
10
3
12
15
17
14
13
4
8
6

>  <PUBCHEM_MMFF94_PARTIAL_CHARGES>  (1) 
30
1 -0.81
11 0.03
12 -0.15
13 0.27
14 -0.15
15 -0.15
16 -0.15
17 -0.15
18 -0.3
19 -0.15
2 0.03
20 -0.15
21 0.27
22 0.27
3 -0.14
31 0.15
34 0.15
35 0.15
36 0.15
37 0.15
38 0.15
39 0.15
4 0.14
40 0.15
41 0.15
5 -0.14
6 0.14
7 0.14
8 -0.06
9 -0.14

>  <PUBCHEM_EFFECTIVE_ROTOR_COUNT>  (1) 
4.4

>  <PUBCHEM_PHARMACOPHORE_FEATURES>  (1) 
4
1 1 cation
6 2 3 5 12 14 15 rings
6 9 11 16 17 19 20 rings
7 2 3 4 6 8 9 11 rings

>  <PUBCHEM_HEAVY_ATOM_COUNT>  (1) 
22

>  <PUBCHEM_ATOM_DEF_STEREO_COUNT>  (1) 
0

>  <PUBCHEM_ATOM_UDEF_STEREO_COUNT>  (1) 
0

>  <PUBCHEM_BOND_DEF_STEREO_COUNT>  (1) 
0

>  <PUBCHEM_BOND_UDEF_STEREO_COUNT>  (1) 
0

>  <PUBCHEM_ISOTOPIC_ATOM_COUNT>  (1) 
0

>  <PUBCHEM_COMPONENT_COUNT>  (1) 
1

>  <PUBCHEM_CACTVS_TAUTO_COUNT>  (1) 
1

>  <PUBCHEM_CONFORMER_ID>  (1) 
000091EC00000001

>  <PUBCHEM_MMFF94_ENERGY>  (1) 
76.4391

>  <PUBCHEM_FEATURE_SELFOVERLAP>  (1) 
20.311

>  <PUBCHEM_SHAPE_FINGERPRINT>  (1) 
1100329 8 18410295830659344041
11578080 2 17608633235593680789
12156800 1 16234276445572457154
12553582 1 18196940083198429678
12633257 1 18197519474318178643
12788726 201 18264230121835336622
13140716 1 18339930423196417825
13533116 47 17615413992638332563
14223421 5 17547858911547391965
14251757 5 18338815454735906230
14844126 61 18337659885021169650
15042514 8 18409736153054413747
15230672 131 17688318881261835206
15420108 30 17843694257910389945
16728300 4 17823410496938838539
16945 1 17262167333688293581
17780758 139 18335687327085693322
20775530 9 17754174507267392570
21421861 104 17759807339579572489
21650355 55 18411698802784836840
23184049 29 18194687200636195733
23728640 28 18338796719487089858
43471831 8 17906736903618143277
484985 159 18261665970462376426
5364581 5 18056451012263735328
58807428 26 17980495468061919681
7097593 13 17907589377527763651

>  <PUBCHEM_SHAPE_MULTIPOLES>  (1) 
447.77
7.13
4.87
1.38
13.28
0.14
0.46
4.29
-2.65
-3.26
-1.36
0.12
0.1
0.07

>  <PUBCHEM_SHAPE_SELFOVERLAP>  (1) 
955.902

>  <PUBCHEM_SHAPE_VOLUME>  (1) 
247.3

>  <PUBCHEM_COORDINATE_TYPE>  (1) 
2
5
10

$$$$
