37359
     RDKit          3D

 22 24  0  0  1  0  0  0  0  0999 V2000
   -4.4395    1.2686   -0.4314 N   0  0  0  0  0  0  0  0  0  0  0  0
    0.8223    0.0463    1.1779 C   0  0  0  0  0  0  0  0  0  0  0  0
    0.6373   -1.2731    0.4475 C   0  0  0  0  0  0  0  0  0  0  0  0
    1.7013   -1.9881   -0.1244 C   0  0  0  0  0  0  0  0  0  0  0  0
    1.4906    1.1912    0.4225 C   0  0  0  0  0  0  0  0  0  0  0  0
    3.0970   -1.4335   -0.1309 C   0  0  0  0  0  0  0  0  0  0  0  0
   -0.6556   -1.8318    0.3880 C   0  0  0  0  0  0  0  0  0  0  0  0
    3.1894   -0.1895   -1.0022 C   0  0  0  0  0  0  0  0  0  0  0  0
    2.5420    1.0858   -0.5098 C   0  0  0  0  0  0  0  0  0  0  0  0
   -1.8640   -1.1673    0.9690 C   0  0  0  0  0  0  0  0  0  0  0  0
    1.4359   -0.1449    2.5736 C   0  0  0  0  0  0  0  0  0  0  0  0
   -2.5563   -0.2528   -0.0480 C   0  0  0  0  0  0  0  0  0  0  0  0
    1.4562   -3.2298   -0.7382 C   0  0  0  0  0  0  0  0  0  0  0  0
   -0.8876   -3.0626   -0.2259 C   0  0  0  0  0  0  0  0  0  0  0  0
    1.0075    2.4869    0.7371 C   0  0  0  0  0  0  0  0  0  0  0  0
    3.0343    2.2683   -1.1135 C   0  0  0  0  0  0  0  0  0  0  0  0
    0.1705   -3.7635   -0.7882 C   0  0  0  0  0  0  0  0  0  0  0  0
   -3.8098    0.3883    0.5455 C   0  0  0  0  0  0  0  0  0  0  0  0
    1.5187    3.6380    0.1406 C   0  0  0  0  0  0  0  0  0  0  0  0
    2.5342    3.5278   -0.7924 C   0  0  0  0  0  0  0  0  0  0  0  0
   -5.6229    1.9122    0.1419 C   0  0  0  0  0  0  0  0  0  0  0  0
   -4.8016    0.5238   -1.6387 C   0  0  0  0  0  0  0  0  0  0  0  0
  1 18  1  0
  1 21  1  0
  1 22  1  0
  2  3  1  0
  2  5  1  0
  2 11  1  0
  3  4  2  0
  3  7  1  0
  4  6  1  0
  4 13  1  0
  5  9  2  0
  5 15  1  0
  6  8  1  0
  7 10  1  0
  7 14  2  0
  8  9  1  0
  9 16  1  0
 10 12  1  0
 12 18  1  0
 13 17  2  0
 14 17  1  0
 15 19  2  0
 16 20  2  0
 19 20  1  0
M  END
>  <PUBCHEM_COMPOUND_CID>  (1) 
37359

>  <PUBCHEM_CONFORMER_RMSD>  (1) 
0.8

>  <PUBCHEM_CONFORMER_DIVERSEORDER>  (1) 
1
19
16
2
21
25
20
24
18
7
11
22
3
17
14
27
13
10
12
4
26
6
9
23
5
15
8

>  <PUBCHEM_MMFF94_PARTIAL_CHARGES>  (1) 
27
1 -0.81
10 0.14
13 -0.15
14 -0.15
15 -0.15
16 -0.15
17 -0.15
18 0.27
19 -0.15
2 0.29
20 -0.15
21 0.27
22 0.27
3 -0.14
35 0.15
36 0.15
37 0.15
38 0.15
39 0.15
4 -0.14
42 0.15
43 0.15
5 -0.14
6 0.14
7 -0.14
8 0.14
9 -0.14

>  <PUBCHEM_EFFECTIVE_ROTOR_COUNT>  (1) 
4.6

>  <PUBCHEM_PHARMACOPHORE_FEATURES>  (1) 
4
1 1 cation
6 3 4 7 13 14 17 rings
6 5 9 15 16 19 20 rings
7 2 3 4 5 6 8 9 rings

>  <PUBCHEM_HEAVY_ATOM_COUNT>  (1) 
22

>  <PUBCHEM_ATOM_DEF_STEREO_COUNT>  (1) 
0

>  <PUBCHEM_ATOM_UDEF_STEREO_COUNT>  (1) 
1

>  <PUBCHEM_BOND_DEF_STEREO_COUNT>  (1) 
0

>  <PUBCHEM_BOND_UDEF_STEREO_COUNT>  (1) 
0

>  <PUBCHEM_ISOTOPIC_ATOM_COUNT>  (1) 
0

>  <PUBCHEM_COMPONENT_COUNT>  (1) 
1

>  <PUBCHEM_CACTVS_TAUTO_COUNT>  (1) 
1

>  <PUBCHEM_CONFORMER_ID>  (1) 
000091EF00000001

>  <PUBCHEM_MMFF94_ENERGY>  (1) 
72.41

>  <PUBCHEM_FEATURE_SELFOVERLAP>  (1) 
20.312

>  <PUBCHEM_SHAPE_FINGERPRINT>  (1) 
10165383 225 17837800041734218353
10483366 6 18266759995175281980
10498660 4 17402887224861074391
10764073 3 17700095934620246786
10930396 42 18122595329625621370
116883 192 17548137731807104247
12173636 292 17907298006782788575
12769317 202 18262794056649426149
13004483 165 18190730952654273890
13944108 23 18118124667453798261
151778 21 18409739477839298093
15210252 30 17972891254096888548
15322687 12 18411143545265555301
15848702 68 17750211665401875121
16945 1 17335072634058885802
17093844 170 18268706121786812872
17134986 127 18410293661321051359
17492 54 18189636968142466444
17921350 177 17751336457186121565
20567600 299 18340763741747849981
21860390 5 18269838614558022239
22149856 69 18273213137137264011
22289505 5 18049153368310278093
23419403 2 17392250291949803416
238 59 18411129243303833191
26353 1 17410799972254991799
3060560 45 18411412899722958061
350125 39 18195819693386831779
474 4 18411133598680148579
54672768 99 18408044021981846445
5939293 188 18335978679658918402
6443956 14 18121784928565862893

>  <PUBCHEM_SHAPE_MULTIPOLES>  (1) 
447.77
7.55
4.81
1.42
13.95
0.3
0.55
-6.2
-2.51
-2.72
-1.29
-0.2
-0.08
-0.07

>  <PUBCHEM_SHAPE_SELFOVERLAP>  (1) 
947.399

>  <PUBCHEM_SHAPE_VOLUME>  (1) 
248.8

>  <PUBCHEM_COORDINATE_TYPE>  (1) 
2
5
10

$$$$
