37351
     RDKit          3D

 21 23  0  0  0  0  0  0  0  0999 V2000
    4.7960   -1.8128    1.3155 Cl  0  0  0  0  0  0  0  0  0  0  0  0
   -2.2371   -2.5550    0.7468 O   0  0  0  0  0  0  0  0  0  0  0  0
   -0.3484   -1.7662   -0.3537 N   0  0  0  0  0  0  0  0  0  0  0  0
   -2.0491    2.6050    0.2697 N   0  0  0  0  0  0  0  0  0  0  0  0
   -2.3488   -1.8644   -1.4424 N   0  0  0  0  0  0  0  0  0  0  0  0
    1.4182   -0.1713   -0.0903 C   0  0  0  0  0  0  0  0  0  0  0  0
    1.8713    0.9868   -0.7370 C   0  0  0  0  0  0  0  0  0  0  0  0
   -0.0099   -0.5525   -0.0497 C   0  0  0  0  0  0  0  0  0  0  0  0
   -1.0118    0.4392    0.3930 C   0  0  0  0  0  0  0  0  0  0  0  0
   -1.1003    1.7225   -0.1384 C   0  0  0  0  0  0  0  0  0  0  0  0
    1.0097    1.9047   -1.4911 C   0  0  0  0  0  0  0  0  0  0  0  0
    2.3252   -1.0383    0.5395 C   0  0  0  0  0  0  0  0  0  0  0  0
   -0.2665    2.2184   -1.2343 C   0  0  0  0  0  0  0  0  0  0  0  0
    3.2527    1.2481   -0.7423 C   0  0  0  0  0  0  0  0  0  0  0  0
   -1.9183    0.0606    1.3890 C   0  0  0  0  0  0  0  0  0  0  0  0
    3.6885   -0.7528    0.5343 C   0  0  0  0  0  0  0  0  0  0  0  0
    4.1528    0.3905   -0.1064 C   0  0  0  0  0  0  0  0  0  0  0  0
   -2.8821    0.9593    1.8250 C   0  0  0  0  0  0  0  0  0  0  0  0
   -2.9058    2.2091    1.2379 C   0  0  0  0  0  0  0  0  0  0  0  0
   -1.6787   -2.1010   -0.2521 C   0  0  0  0  0  0  0  0  0  0  0  0
   -3.7575   -2.1300   -1.6129 C   0  0  0  0  0  0  0  0  0  0  0  0
  1 16  1  0
  2 20  2  0
  3  8  2  0
  3 20  1  0
  4 10  2  0
  4 19  1  0
  5 20  1  0
  5 21  1  0
  6  7  2  0
  6  8  1  0
  6 12  1  0
  7 11  1  0
  7 14  1  0
  8  9  1  0
  9 10  1  0
  9 15  2  0
 10 13  1  0
 11 13  2  0
 12 16  2  0
 14 17  2  0
 15 18  1  0
 16 17  1  0
 18 19  2  0
M  END
>  <PUBCHEM_COMPOUND_CID>  (1) 
37351

>  <PUBCHEM_CONFORMER_RMSD>  (1) 
0.6

>  <PUBCHEM_CONFORMER_DIVERSEORDER>  (1) 
1
3
2
4

>  <PUBCHEM_MMFF94_PARTIAL_CHARGES>  (1) 
30
1 -0.18
10 0.34
11 -0.18
12 -0.15
13 -0.18
14 -0.15
15 -0.15
16 0.18
17 -0.15
18 -0.15
19 0.16
2 -0.57
20 0.84
21 0.3
22 0.15
23 0.15
24 0.15
25 0.15
26 0.15
27 0.15
28 0.15
29 0.15
3 -0.66
30 0.37
4 -0.62
5 -0.73
6 0.09
7 0.03
8 0.28
9 0.09

>  <PUBCHEM_EFFECTIVE_ROTOR_COUNT>  (1) 
2

>  <PUBCHEM_PHARMACOPHORE_FEATURES>  (1) 
8
1 2 acceptor
1 3 acceptor
1 3 donor
1 4 acceptor
1 5 donor
6 4 9 10 15 18 19 rings
6 6 7 12 14 16 17 rings
7 6 7 8 9 10 11 13 rings

>  <PUBCHEM_HEAVY_ATOM_COUNT>  (1) 
21

>  <PUBCHEM_ATOM_DEF_STEREO_COUNT>  (1) 
0

>  <PUBCHEM_ATOM_UDEF_STEREO_COUNT>  (1) 
0

>  <PUBCHEM_BOND_DEF_STEREO_COUNT>  (1) 
0

>  <PUBCHEM_BOND_UDEF_STEREO_COUNT>  (1) 
1

>  <PUBCHEM_ISOTOPIC_ATOM_COUNT>  (1) 
0

>  <PUBCHEM_COMPONENT_COUNT>  (1) 
1

>  <PUBCHEM_CACTVS_TAUTO_COUNT>  (1) 
2

>  <PUBCHEM_CONFORMER_ID>  (1) 
000091E700000001

>  <PUBCHEM_MMFF94_ENERGY>  (1) 
83.5714

>  <PUBCHEM_FEATURE_SELFOVERLAP>  (1) 
40.714

>  <PUBCHEM_SHAPE_FINGERPRINT>  (1) 
104564 63 18271533090756929975
11578080 2 18197191828079870433
12035759 4 18263342742879489111
12251169 10 18261967236568928192
12293681 160 17258519149253683709
12403814 3 18260832544584520800
12422481 6 18055946258668943875
12553582 1 18040437655786007826
12633257 1 18200873981347397992
12788726 201 18272376424854915919
13004483 165 18128801109704667959
13140716 1 18335423439699236296
14251757 17 17461405218113676871
14617773 55 18340770450143387845
15309172 13 18194405480936240848
15420108 30 17620465818806638561
16752209 62 18202002169918109550
16945 1 18338813224972698052
20261772 1 18335712589587462424
20600515 1 17686576467739971875
21501502 16 18410011044410528156
21731228 192 18124887763148245617
22112679 90 17983319267440779845
22182313 1 17614846210803576302
23184049 59 18190191091674622960
23388829 49 18191876831904666124
23419403 2 17625780046097865461
23557571 272 17131567114300781326
23559900 14 17560532686202646582
23566358 27 17968395485080751574
23598291 2 18407764729238600358
25147074 1 18408044022450870644
266924 78 16954244604881623061
2748010 2 17398391932048126910
312423 11 18334582356348950190
394222 165 16305119405864192876
427121 178 17343254877211434473
4340502 62 17702106859672488385
6438718 38 17988375839939065895
6992083 37 18335424530257081756
7064713 232 18199194996626203313
7097593 13 18260553286411931810
7164475 11 18343298184394641862
7471813 234 17913196843863918015
7615 1 18409729590781929936
81228 2 18410848884580925379
84936 31 17125925283947168767
9862522 239 18046623408675822460

>  <PUBCHEM_SHAPE_MULTIPOLES>  (1) 
413.23
7.03
3.06
1.55
6.18
0.3
-0.05
2.51
-1.69
-2.32
0.61
-1.04
-0.04
-2.53

>  <PUBCHEM_SHAPE_SELFOVERLAP>  (1) 
903.838

>  <PUBCHEM_SHAPE_VOLUME>  (1) 
223.5

>  <PUBCHEM_COORDINATE_TYPE>  (1) 
2
5
10

$$$$
