37365
     RDKit          3D

 16 16  0  0  1  0  0  0  0  0999 V2000
   -0.0088   -1.2617   -2.0100 O   0  0  0  0  0  0  0  0  0  0  0  0
    0.1792    1.5202    1.7683 O   0  0  0  0  0  0  0  0  0  0  0  0
    3.5011   -1.5332    0.9333 O   0  0  0  0  0  0  0  0  0  0  0  0
    1.7930   -1.3267   -0.5915 N   0  0  0  0  0  0  0  0  0  0  0  0
    1.8865    0.0626    1.2963 N   0  0  0  0  0  0  0  0  0  0  0  0
    0.2670    0.5906   -0.4696 C   0  0  0  0  0  0  0  0  0  0  0  0
   -1.2534    0.7933   -0.5432 C   0  0  0  0  0  0  0  0  0  0  0  0
   -2.0611   -0.2409    0.2688 C   0  0  0  0  0  0  0  0  0  0  0  0
    0.9661    1.6782   -1.3049 C   0  0  0  0  0  0  0  0  0  0  0  0
   -3.5623    0.1024    0.1691 C   0  0  0  0  0  0  0  0  0  0  0  0
    0.6328   -0.7537   -1.0908 C   0  0  0  0  0  0  0  0  0  0  0  0
    0.7353    0.7646    0.9717 C   0  0  0  0  0  0  0  0  0  0  0  0
   -1.7780   -1.6710   -0.2013 C   0  0  0  0  0  0  0  0  0  0  0  0
    0.6879    3.0542   -0.7430 C   0  0  0  0  0  0  0  0  0  0  0  0
   -4.4601   -0.8182    0.9842 C   0  0  0  0  0  0  0  0  0  0  0  0
    2.4749   -0.9607    0.5627 C   0  0  0  0  0  0  0  0  0  0  0  0
  1 11  2  0
  2 12  2  0
  3 16  2  0
  4 11  1  0
  4 16  1  0
  5 12  1  0
  5 16  1  0
  6  7  1  0
  6  9  1  0
  6 11  1  0
  6 12  1  0
  7  8  1  0
  8 10  1  0
  8 13  1  0
  9 14  1  0
 10 15  1  0
M  END
>  <PUBCHEM_COMPOUND_CID>  (1) 
37365

>  <PUBCHEM_CONFORMER_RMSD>  (1) 
0.6

>  <PUBCHEM_CONFORMER_DIVERSEORDER>  (1) 
1
5
4
3
6
2

>  <PUBCHEM_MMFF94_PARTIAL_CHARGES>  (1) 
11
1 -0.57
11 0.57
12 0.57
16 0.69
2 -0.57
3 -0.57
30 0.37
31 0.37
4 -0.49
5 -0.49
6 0.12

>  <PUBCHEM_EFFECTIVE_ROTOR_COUNT>  (1) 
4.6

>  <PUBCHEM_PHARMACOPHORE_FEATURES>  (1) 
9
1 1 acceptor
1 13 hydrophobe
1 14 hydrophobe
1 15 hydrophobe
1 2 acceptor
1 3 acceptor
1 4 donor
1 5 donor
6 4 5 6 11 12 16 rings

>  <PUBCHEM_HEAVY_ATOM_COUNT>  (1) 
16

>  <PUBCHEM_ATOM_DEF_STEREO_COUNT>  (1) 
0

>  <PUBCHEM_ATOM_UDEF_STEREO_COUNT>  (1) 
1

>  <PUBCHEM_BOND_DEF_STEREO_COUNT>  (1) 
0

>  <PUBCHEM_BOND_UDEF_STEREO_COUNT>  (1) 
0

>  <PUBCHEM_ISOTOPIC_ATOM_COUNT>  (1) 
0

>  <PUBCHEM_COMPONENT_COUNT>  (1) 
1

>  <PUBCHEM_CACTVS_TAUTO_COUNT>  (1) 
5

>  <PUBCHEM_CONFORMER_ID>  (1) 
000091F500000001

>  <PUBCHEM_MMFF94_ENERGY>  (1) 
51.8547

>  <PUBCHEM_FEATURE_SELFOVERLAP>  (1) 
45.713

>  <PUBCHEM_SHAPE_FINGERPRINT>  (1) 
10610426 29 16950556641129238566
11578080 2 16154523455397927692
12251169 10 18060132154774491739
12423570 1 12524356799957422804
12592029 89 18116726311906022788
12644460 14 18190201133450436433
14817 1 11502272707799811676
15163728 17 12247118718015859466
16945 1 17846204523706438566
17844478 74 18267849606776722650
20233049 118 17845389880137936193
20511035 2 18128531759420549319
20645477 70 17823131397453588131
21296965 67 17967811600633738072
21501502 16 18197220467417165591
21524375 3 17691419924093223565
22344851 341 17978523253544511412
230 275 16199884941784174987
23419403 2 16912576064847139260
2748010 2 17911530791932738815
394222 165 18052277355127046057
430814 3 17760368094725791861
568465 68 18130219363787666219
7364860 26 18189621712023336109
81228 2 17834408825593659189
81539 233 17679310933648101933

>  <PUBCHEM_SHAPE_MULTIPOLES>  (1) 
301.7
4.95
2.26
1.5
5.38
1.45
0.04
-2.63
-1.88
-1.43
0.37
-0.46
-0.02
-0.31

>  <PUBCHEM_SHAPE_SELFOVERLAP>  (1) 
613.761

>  <PUBCHEM_SHAPE_VOLUME>  (1) 
173.1

>  <PUBCHEM_COORDINATE_TYPE>  (1) 
2
5
10

$$$$
