3737
     RDKit          3D

 20 20  0  0  0  0  0  0  0  0999 V2000
    0.1226   -3.2057   -0.7012 I   0  0  0  0  0  0  0  0  0  0  0  0
   -3.1638    1.8695    0.1536 I   0  0  0  0  0  0  0  0  0  0  0  0
    2.9204    2.1990   -0.2388 I   0  0  0  0  0  0  0  0  0  0  0  0
   -3.0412   -1.4706   -1.3425 O   0  0  0  0  0  0  0  0  0  0  0  0
   -0.1076    3.4759    1.4052 O   0  0  0  0  0  0  0  0  0  0  0  0
   -0.2757    3.9432   -0.8128 O   0  0  0  0  0  0  0  0  0  0  0  0
    3.0859   -1.4928    1.6116 O   0  0  0  0  0  0  0  0  0  0  0  0
    2.4365   -0.9667   -0.5912 N   0  0  0  0  0  0  0  0  0  0  0  0
   -2.8667   -1.7748    0.9496 N   0  0  0  0  0  0  0  0  0  0  0  0
   -1.2133   -0.4689   -0.2685 C   0  0  0  0  0  0  0  0  0  0  0  0
    1.1940   -0.3375   -0.4261 C   0  0  0  0  0  0  0  0  0  0  0  0
    0.0223   -1.0944   -0.4345 C   0  0  0  0  0  0  0  0  0  0  0  0
   -0.1056    1.6704   -0.0854 C   0  0  0  0  0  0  0  0  0  0  0  0
   -1.2772    0.9135   -0.0938 C   0  0  0  0  0  0  0  0  0  0  0  0
    1.1300    1.0449   -0.2517 C   0  0  0  0  0  0  0  0  0  0  0  0
   -2.4427   -1.2635   -0.2776 C   0  0  0  0  0  0  0  0  0  0  0  0
   -0.1722    3.1213    0.0963 C   0  0  0  0  0  0  0  0  0  0  0  0
    3.2744   -1.4842    0.3994 C   0  0  0  0  0  0  0  0  0  0  0  0
   -4.0462   -2.5964    1.0999 C   0  0  0  0  0  0  0  0  0  0  0  0
    4.5263   -2.0823   -0.1916 C   0  0  0  0  0  0  0  0  0  0  0  0
  1 12  1  0
  2 14  1  0
  3 15  1  0
  4 16  2  0
  5 17  1  0
  6 17  2  0
  7 18  2  0
  8 11  1  0
  8 18  1  0
  9 16  1  0
  9 19  1  0
 10 12  2  0
 10 14  1  0
 10 16  1  0
 11 12  1  0
 11 15  2  0
 13 14  2  0
 13 15  1  0
 13 17  1  0
 18 20  1  0
M  END
>  <PUBCHEM_COMPOUND_CID>  (1) 
3737

>  <PUBCHEM_CONFORMER_RMSD>  (1) 
0.8

>  <PUBCHEM_CONFORMER_DIVERSEORDER>  (1) 
1
2
4
3

>  <PUBCHEM_MMFF94_PARTIAL_CHARGES>  (1) 
23
1 -0.08
10 0.09
11 0.12
12 0.08
13 0.09
14 0.08
15 0.08
16 0.54
17 0.63
18 0.57
19 0.3
2 -0.08
20 0.06
21 0.37
22 0.37
29 0.5
3 -0.08
4 -0.57
5 -0.65
6 -0.57
7 -0.57
8 -0.55
9 -0.73

>  <PUBCHEM_EFFECTIVE_ROTOR_COUNT>  (1) 
5

>  <PUBCHEM_PHARMACOPHORE_FEATURES>  (1) 
11
1 1 hydrophobe
1 2 hydrophobe
1 3 hydrophobe
1 4 acceptor
1 5 acceptor
1 6 acceptor
1 7 acceptor
1 8 donor
1 9 donor
3 5 6 17 anion
6 10 11 12 13 14 15 rings

>  <PUBCHEM_HEAVY_ATOM_COUNT>  (1) 
20

>  <PUBCHEM_ATOM_DEF_STEREO_COUNT>  (1) 
0

>  <PUBCHEM_ATOM_UDEF_STEREO_COUNT>  (1) 
0

>  <PUBCHEM_BOND_DEF_STEREO_COUNT>  (1) 
0

>  <PUBCHEM_BOND_UDEF_STEREO_COUNT>  (1) 
0

>  <PUBCHEM_ISOTOPIC_ATOM_COUNT>  (1) 
0

>  <PUBCHEM_COMPONENT_COUNT>  (1) 
1

>  <PUBCHEM_CACTVS_TAUTO_COUNT>  (1) 
4

>  <PUBCHEM_CONFORMER_ID>  (1) 
00000E9900000001

>  <PUBCHEM_MMFF94_ENERGY>  (1) 
90.937

>  <PUBCHEM_FEATURE_SELFOVERLAP>  (1) 
55.879

>  <PUBCHEM_SHAPE_FINGERPRINT>  (1) 
10411042 1 18410296925407142695
10967382 1 18051694635428189252
1100329 8 18338802191412841225
11680986 33 18339634642211613065
12553582 1 18265048033557946910
12633257 1 18265918920520237435
12788726 201 18120642540184605827
13140716 1 18412549777508401353
14178342 30 17261597266425885088
14790565 3 17833851725639506733
15042514 8 18265904557616829483
16945 1 18123757456425583148
19591789 44 18339653346609090350
20510252 161 17766836130879677368
20600515 1 18199760141418928964
20739085 24 18267327445842816513
20905425 154 18341055202534008644
21041028 32 18411992372716357843
21421861 104 18190748724416119905
21501502 16 18411980273424421317
21524375 3 16973627457460090108
23184049 29 18410571747990630076
2334 1 18340488962255550933
23402539 116 18053370012171484557
23419403 2 17616195568905106372
23559900 14 18270113497250536686
2748010 2 18412823603190562477
3091708 16 9136649706507941208
31174 14 18119255214440771443
34934 24 18124310764520335846
352729 6 18268712710034510341
458136 41 17543082624335446805
5104073 3 18411413987056709266
58807428 26 17040910963356989890
7364860 26 18124032596583877934
81228 2 18124318207429504285

>  <PUBCHEM_SHAPE_MULTIPOLES>  (1) 
413.96
6.26
4.93
1.08
1.36
2.22
0.19
-4.05
1.28
-0.51
0.09
-0.15
-0.25
0.04

>  <PUBCHEM_SHAPE_SELFOVERLAP>  (1) 
801.79

>  <PUBCHEM_SHAPE_VOLUME>  (1) 
260

>  <PUBCHEM_COORDINATE_TYPE>  (1) 
2
5
10

$$$$
