37377
     RDKit          3D

 22 24  0  0  0  0  0  0  0  0999 V2000
    2.9849    3.0609    1.0784 F   0  0  0  0  0  0  0  0  0  0  0  0
   -4.2024    0.8689    0.9366 O   0  0  0  0  0  0  0  0  0  0  0  0
   -2.7834    2.0368   -1.1441 O   0  0  0  0  0  0  0  0  0  0  0  0
    0.8692   -2.7516   -0.5343 N   0  0  0  0  0  0  0  0  0  0  0  0
   -1.4070   -1.4681    0.6172 C   0  0  0  0  0  0  0  0  0  0  0  0
   -0.6855   -0.8647   -0.4208 C   0  0  0  0  0  0  0  0  0  0  0  0
   -0.8579   -2.7137    1.2469 C   0  0  0  0  0  0  0  0  0  0  0  0
    0.5790   -1.5275   -0.8300 C   0  0  0  0  0  0  0  0  0  0  0  0
   -0.1375   -3.5372    0.1874 C   0  0  0  0  0  0  0  0  0  0  0  0
    1.5889   -0.7378   -1.6273 C   0  0  0  0  0  0  0  0  0  0  0  0
   -2.5847   -0.8719    1.0764 C   0  0  0  0  0  0  0  0  0  0  0  0
   -1.1484    0.3110   -1.0146 C   0  0  0  0  0  0  0  0  0  0  0  0
   -3.0487    0.3027    0.4841 C   0  0  0  0  0  0  0  0  0  0  0  0
   -2.3340    0.8903   -0.5601 C   0  0  0  0  0  0  0  0  0  0  0  0
    2.5721   -0.0724   -0.7168 C   0  0  0  0  0  0  0  0  0  0  0  0
    2.3136    1.2085   -0.2357 C   0  0  0  0  0  0  0  0  0  0  0  0
    3.7413   -0.7368   -0.3556 C   0  0  0  0  0  0  0  0  0  0  0  0
    3.2304    1.8292    0.6127 C   0  0  0  0  0  0  0  0  0  0  0  0
    4.6582   -0.1162    0.4927 C   0  0  0  0  0  0  0  0  0  0  0  0
    4.4027    1.1668    0.9769 C   0  0  0  0  0  0  0  0  0  0  0  0
   -5.4158    0.4546    0.3122 C   0  0  0  0  0  0  0  0  0  0  0  0
   -2.3351    3.2683   -0.5821 C   0  0  0  0  0  0  0  0  0  0  0  0
  1 18  1  0
  2 13  1  0
  2 21  1  0
  3 14  1  0
  3 22  1  0
  4  8  2  0
  4  9  1  0
  5  6  2  0
  5  7  1  0
  5 11  1  0
  6  8  1  0
  6 12  1  0
  7  9  1  0
  8 10  1  0
 10 15  1  0
 11 13  2  0
 12 14  2  0
 13 14  1  0
 15 16  2  0
 15 17  1  0
 16 18  1  0
 17 19  2  0
 18 20  2  0
 19 20  1  0
M  END
>  <PUBCHEM_COMPOUND_CID>  (1) 
37377

>  <PUBCHEM_CONFORMER_RMSD>  (1) 
0.8

>  <PUBCHEM_CONFORMER_DIVERSEORDER>  (1) 
7
4
18
33
34
9
31
29
2
17
36
5
27
19
32
26
39
10
1
3
14
35
15
24
23
16
37
13
22
30
8
6
21
25
28
38
11
12
20

>  <PUBCHEM_MMFF94_PARTIAL_CHARGES>  (1) 
28
1 -0.19
10 0.2
11 -0.15
12 -0.15
13 0.08
14 0.08
15 -0.14
16 -0.15
17 -0.15
18 0.19
19 -0.15
2 -0.36
20 -0.15
21 0.28
22 0.28
29 0.15
3 -0.36
30 0.15
31 0.15
32 0.15
33 0.15
34 0.15
4 -0.7
5 -0.14
6 0.09
7 0.14
8 0.3
9 0.25

>  <PUBCHEM_EFFECTIVE_ROTOR_COUNT>  (1) 
4.4

>  <PUBCHEM_PHARMACOPHORE_FEATURES>  (1) 
6
1 2 acceptor
1 3 acceptor
1 4 acceptor
6 15 16 17 18 19 20 rings
6 4 5 6 7 8 9 rings
6 5 6 11 12 13 14 rings

>  <PUBCHEM_HEAVY_ATOM_COUNT>  (1) 
22

>  <PUBCHEM_ATOM_DEF_STEREO_COUNT>  (1) 
0

>  <PUBCHEM_ATOM_UDEF_STEREO_COUNT>  (1) 
0

>  <PUBCHEM_BOND_DEF_STEREO_COUNT>  (1) 
0

>  <PUBCHEM_BOND_UDEF_STEREO_COUNT>  (1) 
0

>  <PUBCHEM_ISOTOPIC_ATOM_COUNT>  (1) 
0

>  <PUBCHEM_COMPONENT_COUNT>  (1) 
1

>  <PUBCHEM_CACTVS_TAUTO_COUNT>  (1) 
1

>  <PUBCHEM_CONFORMER_ID>  (1) 
0000920100000007

>  <PUBCHEM_MMFF94_ENERGY>  (1) 
82.4468

>  <PUBCHEM_FEATURE_SELFOVERLAP>  (1) 
30.477

>  <PUBCHEM_SHAPE_FINGERPRINT>  (1) 
10366900 7 18336281058399636375
11370993 70 18409443665844703768
11640471 11 15841559578364658070
11725454 13 18131063827267268718
12077114 3 18409443722064257510
12403259 415 18335987467141037213
12403260 363 18409160004650453375
12596602 18 16009326399419966320
12633257 1 18337099159881529648
13004483 165 17622150687333231886
13140716 1 18116449209295118575
13402501 40 18411699867894943992
13544653 18 11241974763042168806
14178342 30 17897174520159277957
14251764 3 18409450267146114912
14466204 15 18194954150682429440
14787075 74 18201718496545513833
15295992 7 18343303708070341290
17349148 13 17603592941337697463
18186145 218 18131917044332656606
20567600 254 18335975398630984437
21033648 29 18261938696480026492
21279426 13 17978515231057598182
21452121 103 18263647260524398435
21475661 188 18342459188387775689
21524375 3 18412267224537337783
21731228 192 18410571803598611430
23227448 37 18201437025547305071
23559900 14 18189639209688517102
3187 122 17473804603966077440
351380 180 18412824685479921377
3524813 1 18411702058364954388
392239 28 18270697432308529011
4072396 5 17095527279922806755
4340502 62 18411147922454512435
474 4 18131354111184557978
58807428 26 18186804677402434147
6913067 236 18113896061981181903
7097593 13 18115014329689084178
7364860 26 18048321046260999535
7808743 9 18118981406196891108
81228 2 17899693750021649622
84936 182 17977380534303040533
90316 7 17974574898451462642

>  <PUBCHEM_SHAPE_MULTIPOLES>  (1) 
428.76
8.55
3.49
1.24
0.15
0.45
0.07
-5.13
-2.47
-0.4
-0.36
0.15
0.01
1.56

>  <PUBCHEM_SHAPE_SELFOVERLAP>  (1) 
928.434

>  <PUBCHEM_SHAPE_VOLUME>  (1) 
237.2

>  <PUBCHEM_COORDINATE_TYPE>  (1) 
2
5
10

$$$$
