37379
     RDKit          3D

 23 26  0  0  0  0  0  0  0  0999 V2000
   -4.0640    0.9263   -0.0001 N   0  0  0  0  0  0  0  0  0  0  0  0
    2.2610    0.7810    0.0000 N   0  0  0  0  0  0  0  0  0  0  0  0
    3.5766    1.1140    0.0000 N   0  0  0  0  0  0  0  0  0  0  0  0
   -1.9578    0.1941    0.0010 C   0  0  0  0  0  0  0  0  0  0  0  0
   -2.7530    1.3404    0.0002 C   0  0  0  0  0  0  0  0  0  0  0  0
   -2.8367   -0.9354    0.0009 C   0  0  0  0  0  0  0  0  0  0  0  0
   -4.1432   -0.4465   -0.0004 C   0  0  0  0  0  0  0  0  0  0  0  0
   -0.5553    0.3461    0.0012 C   0  0  0  0  0  0  0  0  0  0  0  0
   -2.2172    2.6334   -0.0004 C   0  0  0  0  0  0  0  0  0  0  0  0
   -2.6393   -2.3324    0.0015 C   0  0  0  0  0  0  0  0  0  0  0  0
   -5.2647   -1.2837   -0.0012 C   0  0  0  0  0  0  0  0  0  0  0  0
   -5.2080    1.8164   -0.0008 C   0  0  0  0  0  0  0  0  0  0  0  0
   -0.0047    1.6327    0.0000 C   0  0  0  0  0  0  0  0  0  0  0  0
   -0.8254    2.7582   -0.0008 C   0  0  0  0  0  0  0  0  0  0  0  0
   -3.7511   -3.1824    0.0009 C   0  0  0  0  0  0  0  0  0  0  0  0
   -5.0435   -2.6635   -0.0006 C   0  0  0  0  0  0  0  0  0  0  0  0
    1.4411    1.7943    0.0000 C   0  0  0  0  0  0  0  0  0  0  0  0
    4.5946    0.2057    0.0000 C   0  0  0  0  0  0  0  0  0  0  0  0
    5.9538    0.6117    0.0015 C   0  0  0  0  0  0  0  0  0  0  0  0
    4.3454   -1.1910   -0.0019 C   0  0  0  0  0  0  0  0  0  0  0  0
    6.9945   -0.3170    0.0012 C   0  0  0  0  0  0  0  0  0  0  0  0
    5.3861   -2.1197   -0.0020 C   0  0  0  0  0  0  0  0  0  0  0  0
    6.7108   -1.6827   -0.0004 C   0  0  0  0  0  0  0  0  0  0  0  0
  1  5  1  0
  1  7  1  0
  1 12  1  0
  2  3  1  0
  2 17  2  0
  3 18  1  0
  4  5  2  0
  4  6  1  0
  4  8  1  0
  5  9  1  0
  6  7  2  0
  6 10  1  0
  7 11  1  0
  8 13  2  0
  9 14  2  0
 10 15  2  0
 11 16  2  0
 13 14  1  0
 13 17  1  0
 15 16  1  0
 18 19  2  0
 18 20  1  0
 19 21  1  0
 20 22  2  0
 21 23  2  0
 22 23  1  0
M  END
>  <PUBCHEM_COMPOUND_CID>  (1) 
37379

>  <PUBCHEM_CONFORMER_RMSD>  (1) 
0.6

>  <PUBCHEM_CONFORMER_DIVERSEORDER>  (1) 
1
11
18
15
6
14
7
17
19
2
20
12
16
5
13
3
4
8
10
9

>  <PUBCHEM_MMFF94_PARTIAL_CHARGES>  (1) 
35
1 0.05
10 -0.15
11 -0.15
12 0.26
13 0.09
14 -0.15
15 -0.15
16 -0.15
17 0.3
18 0.1
19 -0.15
2 -0.49
20 -0.15
21 -0.15
22 -0.15
23 -0.15
24 0.15
25 0.15
26 0.15
27 0.15
3 -0.46
31 0.15
32 0.15
33 0.15
34 0.06
35 0.4
36 0.15
37 0.15
38 0.15
39 0.15
40 0.15
5 -0.15
7 -0.15
8 -0.15
9 -0.15

>  <PUBCHEM_EFFECTIVE_ROTOR_COUNT>  (1) 
3

>  <PUBCHEM_PHARMACOPHORE_FEATURES>  (1) 
7
1 1 cation
1 2 acceptor
1 3 donor
5 1 4 5 6 7 rings
6 18 19 20 21 22 23 rings
6 4 5 8 9 13 14 rings
6 6 7 10 11 15 16 rings

>  <PUBCHEM_HEAVY_ATOM_COUNT>  (1) 
23

>  <PUBCHEM_ATOM_DEF_STEREO_COUNT>  (1) 
0

>  <PUBCHEM_ATOM_UDEF_STEREO_COUNT>  (1) 
0

>  <PUBCHEM_BOND_DEF_STEREO_COUNT>  (1) 
0

>  <PUBCHEM_BOND_UDEF_STEREO_COUNT>  (1) 
1

>  <PUBCHEM_ISOTOPIC_ATOM_COUNT>  (1) 
0

>  <PUBCHEM_COMPONENT_COUNT>  (1) 
1

>  <PUBCHEM_CACTVS_TAUTO_COUNT>  (1) 
1

>  <PUBCHEM_CONFORMER_ID>  (1) 
0000920300000001

>  <PUBCHEM_MMFF94_ENERGY>  (1) 
66.8196

>  <PUBCHEM_FEATURE_SELFOVERLAP>  (1) 
35.7

>  <PUBCHEM_SHAPE_FINGERPRINT>  (1) 
10319926 262 18272077297578768464
10411042 1 18266460000695294115
10595046 47 18335424578235237460
10622 236 17197401644842187663
10693767 8 17623835126863528503
10835480 77 18340759416853218736
10939801 23 18268989951275948566
11524674 6 17203325606916683807
117089 54 17901115431732144355
11796584 16 18340487773071602316
12107183 9 18341061735379888561
12643181 29 18337102380674309218
12760667 363 18342454867972033079
13288520 33 18410856581552709861
13402501 40 18413672417973279878
13911852 28 17833835246319451507
14251751 18 18412546518144941322
14347332 77 18334857229565301228
14420673 8 18411422786806641355
14461889 52 18341322388945283984
14790565 3 17691692182376156401
14866123 147 18412832370126006137
15042514 8 18410857672701386225
15183329 4 18333727996758490658
15196674 1 18410575093685647106
15250474 111 18188761735597088962
15322534 239 18113901554575278842
15352361 1 18410856606894985838
15361156 5 18113632183253841812
15537594 2 17895193260034497770
17492 89 18050004686620955683
17627616 140 17896311424685141954
17780758 139 17988931067551942809
17857418 61 18410012122426077446
1813 80 17603580863446640596
20403669 9 18342464763323670550
21236236 1 18412263934824270075
21267235 1 18335424612399472259
21623969 137 17632861915289123534
23424784 1240 18201168659212306302
23522609 53 18122097331734843392
23559900 14 18340477945807420304
3004659 81 18114177571122523076
335352 9 18410290312122435981
3383291 50 18188209917898621723
3421961 26 18197777906674429640
3882209 13 16975577415890331510
4073 2 18260552260088841034
4214541 1 18410855417685358720
4409770 3 18261667057516669477
5104073 3 18131073765742561976
531348 171 17532923909936324780
54583773 228 18410019824415938702
559249 180 18409446977649467863
5718773 13 18197775699351662775
6138700 20 18409728483007908919
6431902 208 18410571816557515926
67856867 119 18262242226588601476
7970288 3 18195243553721083471
8863177 126 18272085045947267568
999808 66 17967828166897859323

>  <PUBCHEM_SHAPE_MULTIPOLES>  (1) 
458.39
17.24
3.41
0.61
26.39
0.81
0
9.53
0
-3.81
0
-0.01
0.01
0

>  <PUBCHEM_SHAPE_SELFOVERLAP>  (1) 
1021.063

>  <PUBCHEM_SHAPE_VOLUME>  (1) 
245.6

>  <PUBCHEM_COORDINATE_TYPE>  (1) 
2
5
10

$$$$
