37391
     RDKit          3D

 14 15  0  0  0  0  0  0  0  0999 V2000
    3.7046    1.1785    0.0025 O   0  0  0  0  0  0  0  0  0  0  0  0
    2.3479   -0.7496   -0.0005 N   0  0  0  0  0  0  0  0  0  0  0  0
   -2.3824   -1.5092    0.0005 N   0  0  0  0  0  0  0  0  0  0  0  0
   -1.5564    0.7546   -0.0003 C   0  0  0  0  0  0  0  0  0  0  0  0
   -1.3529   -0.6413   -0.0001 C   0  0  0  0  0  0  0  0  0  0  0  0
    1.0488   -0.2403   -0.0007 C   0  0  0  0  0  0  0  0  0  0  0  0
   -0.0429   -1.1121   -0.0002 C   0  0  0  0  0  0  0  0  0  0  0  0
   -0.4585    1.6318   -0.0007 C   0  0  0  0  0  0  0  0  0  0  0  0
    0.8411    1.1335   -0.0009 C   0  0  0  0  0  0  0  0  0  0  0  0
   -2.8750    1.2292   -0.0001 C   0  0  0  0  0  0  0  0  0  0  0  0
   -3.9377    0.3373    0.0004 C   0  0  0  0  0  0  0  0  0  0  0  0
   -3.6397   -1.0103    0.0007 C   0  0  0  0  0  0  0  0  0  0  0  0
    3.5555   -0.0391   -0.0005 C   0  0  0  0  0  0  0  0  0  0  0  0
    4.7476   -0.9629   -0.0002 C   0  0  0  0  0  0  0  0  0  0  0  0
  1 13  2  0
  2  6  1  0
  2 13  1  0
  3  5  2  0
  3 12  1  0
  4  5  1  0
  4  8  1  0
  4 10  2  0
  5  7  1  0
  6  7  2  0
  6  9  1  0
  8  9  2  0
 10 11  1  0
 11 12  2  0
 13 14  1  0
M  END
>  <PUBCHEM_COMPOUND_CID>  (1) 
37391

>  <PUBCHEM_CONFORMER_RMSD>  (1) 
0.6

>  <PUBCHEM_CONFORMER_DIVERSEORDER>  (1) 
1
2
3
4

>  <PUBCHEM_MMFF94_PARTIAL_CHARGES>  (1) 
20
1 -0.57
10 -0.15
11 -0.15
12 0.16
13 0.57
14 0.06
15 0.15
16 0.15
17 0.15
18 0.15
19 0.37
2 -0.55
20 0.15
21 0.15
3 -0.62
5 0.31
6 0.12
7 -0.15
8 -0.15
9 -0.15

>  <PUBCHEM_EFFECTIVE_ROTOR_COUNT>  (1) 
2

>  <PUBCHEM_PHARMACOPHORE_FEATURES>  (1) 
5
1 1 acceptor
1 2 donor
1 3 acceptor
6 3 4 5 10 11 12 rings
6 4 5 6 7 8 9 rings

>  <PUBCHEM_HEAVY_ATOM_COUNT>  (1) 
14

>  <PUBCHEM_ATOM_DEF_STEREO_COUNT>  (1) 
0

>  <PUBCHEM_ATOM_UDEF_STEREO_COUNT>  (1) 
0

>  <PUBCHEM_BOND_DEF_STEREO_COUNT>  (1) 
0

>  <PUBCHEM_BOND_UDEF_STEREO_COUNT>  (1) 
0

>  <PUBCHEM_ISOTOPIC_ATOM_COUNT>  (1) 
0

>  <PUBCHEM_COMPONENT_COUNT>  (1) 
1

>  <PUBCHEM_CACTVS_TAUTO_COUNT>  (1) 
3

>  <PUBCHEM_CONFORMER_ID>  (1) 
0000920F00000001

>  <PUBCHEM_MMFF94_ENERGY>  (1) 
42.9189

>  <PUBCHEM_FEATURE_SELFOVERLAP>  (1) 
25.403

>  <PUBCHEM_SHAPE_FINGERPRINT>  (1) 
10062212 137 18410851070819590215
10608611 8 18412539920664192304
11132069 177 18411694387748172312
11401426 45 18411412908460618053
11806522 49 18338231699496594719
12032990 46 18410858780137933618
13214271 11 18343579633796350735
13288520 33 18340489972190017942
13690532 89 18408603660330313815
14325111 11 18410856559803456288
14911166 2 18409720751897581589
15196674 1 18410855481629469476
15219456 202 17987806202400019358
15536298 74 18341612659297942112
16945 1 18410575063752738341
17804303 29 18341615927393339129
18175812 5 18130784572904350332
18186145 218 17603862317143355238
200 152 17846774100688928519
20510252 161 18272934873466664921
20528008 55 18342452647115186336
21267235 1 18409739455852726219
23402539 116 18343011173241652639
23463225 33 18408323285060442316
23559900 14 18413103945013032672
2748010 2 18266734869468965149
3312278 4 18409449172193198427
43471831 8 18261951834632010722
474 4 17096656594239369260
5104073 3 18411138056196910672
69090 78 18272646852827776719
7364860 26 18197216077459760432
77779 3 18410576188896941902
8809292 202 18261115222442224683
9709674 26 18411707564861440846

>  <PUBCHEM_SHAPE_MULTIPOLES>  (1) 
272.28
7.91
1.57
0.6
5.54
0.16
0
-1.27
0
-0.39
0
-0.03
0.01
0

>  <PUBCHEM_SHAPE_SELFOVERLAP>  (1) 
589.848

>  <PUBCHEM_SHAPE_VOLUME>  (1) 
148.2

>  <PUBCHEM_COORDINATE_TYPE>  (1) 
2
5
10

$$$$
