37396
     RDKit          3D

 26 27  0  0  1  0  0  0  0  0999 V2000
   -4.7928    2.7364    0.8083 Cl  0  0  0  0  0  0  0  0  0  0  0  0
   -0.4297   -0.9078    0.8806 O   0  0  0  0  0  0  0  0  0  0  0  0
    1.2594   -0.7817   -1.9323 O   0  0  0  0  0  0  0  0  0  0  0  0
    0.7883   -2.6515    0.0065 O   0  0  0  0  0  0  0  0  0  0  0  0
   -3.2271   -0.9577    0.4376 N   0  0  0  0  0  0  0  0  0  0  0  0
   -2.6346   -1.2403    1.7463 C   0  0  0  0  0  0  0  0  0  0  0  0
   -3.8059   -2.1668   -0.1359 C   0  0  0  0  0  0  0  0  0  0  0  0
    1.3950   -0.3499   -0.5630 C   0  0  0  0  0  0  0  0  0  0  0  0
   -4.2399    0.0929    0.5552 C   0  0  0  0  0  0  0  0  0  0  0  0
   -1.2436   -1.8334    1.5889 C   0  0  0  0  0  0  0  0  0  0  0  0
   -3.9694   -2.0113   -1.6457 C   0  0  0  0  0  0  0  0  0  0  0  0
    2.8701   -0.3396   -0.1546 C   0  0  0  0  0  0  0  0  0  0  0  0
    0.7733    1.0387   -0.3976 C   0  0  0  0  0  0  0  0  0  0  0  0
    0.5704   -1.4502    0.1100 C   0  0  0  0  0  0  0  0  0  0  0  0
   -3.5686    1.4546    0.6455 C   0  0  0  0  0  0  0  0  0  0  0  0
   -2.6292   -1.7818   -2.3272 C   0  0  0  0  0  0  0  0  0  0  0  0
    3.7720    0.4914   -0.8195 C   0  0  0  0  0  0  0  0  0  0  0  0
    0.7491    1.6470    0.8574 C   0  0  0  0  0  0  0  0  0  0  0  0
    3.3126   -1.1606    0.8826 C   0  0  0  0  0  0  0  0  0  0  0  0
    0.2312    1.6963   -1.5019 C   0  0  0  0  0  0  0  0  0  0  0  0
    5.1163    0.5010   -0.4473 C   0  0  0  0  0  0  0  0  0  0  0  0
    0.1826    2.9127    1.0083 C   0  0  0  0  0  0  0  0  0  0  0  0
    4.6569   -1.1508    1.2549 C   0  0  0  0  0  0  0  0  0  0  0  0
   -0.3352    2.9621   -1.3510 C   0  0  0  0  0  0  0  0  0  0  0  0
    5.5586   -0.3198    0.5898 C   0  0  0  0  0  0  0  0  0  0  0  0
   -0.3595    3.5702   -0.0958 C   0  0  0  0  0  0  0  0  0  0  0  0
  1 15  1  0
  2 10  1  0
  2 14  1  0
  3  8  1  0
  4 14  2  0
  5  6  1  0
  5  7  1  0
  5  9  1  0
  6 10  1  0
  7 11  1  0
  8 12  1  0
  8 13  1  0
  8 14  1  0
  9 15  1  0
 11 16  1  0
 12 17  2  0
 12 19  1  0
 13 18  2  0
 13 20  1  0
 17 21  1  0
 18 22  1  0
 19 23  2  0
 20 24  2  0
 21 25  2  0
 22 26  2  0
 23 25  1  0
 24 26  1  0
M  END
>  <PUBCHEM_COMPOUND_CID>  (1) 
37396

>  <PUBCHEM_CONFORMER_RMSD>  (1) 
1

>  <PUBCHEM_CONFORMER_DIVERSEORDER>  (1) 
13
66
160
77
35
158
5
112
59
129
37
2
91
137
133
139
94
164
45
21
33
11
178
147
114
161
100
148
169
23
73
162
17
75
123
24
87
165
185
126
78
136
22
180
144
12
47
52
132
42
146
29
83
26
64
125
67
157
183
43
168
25
138
39
99
96
121
159
103
186
119
120
95
65
184
72
117
175
36
101
69
15
4
118
149
110
56
127
130
38
20
156
187
27
152
3
173
40
7
153
71
150
131
53
124
1
98
128
134
90
85
6
70
135
102
163
55
154
166
61
155
143
28
57
50
115
16
89
60
113
62
46
182
111
84
63
51
93
9
54
181
107
48
8
141
145
142
10
80
151
19
79
108
88
179
176
34
58
106
170
74
116
188
167
92
14
44
174
97
81
140
189
105
18
177
31
68
49
41
104
172
109
30
122
82
76
86
171
32

>  <PUBCHEM_MMFF94_PARTIAL_CHARGES>  (1) 
35
1 -0.29
10 0.28
12 -0.14
13 -0.14
14 0.66
15 0.29
17 -0.15
18 -0.15
19 -0.15
2 -0.43
20 -0.15
21 -0.15
22 -0.15
23 -0.15
24 -0.15
25 -0.15
26 -0.15
3 -0.68
4 -0.57
42 0.15
43 0.15
44 0.15
45 0.15
46 0.4
47 0.15
48 0.15
49 0.15
5 -0.81
50 0.15
51 0.15
52 0.15
6 0.27
7 0.27
8 0.63
9 0.27

>  <PUBCHEM_EFFECTIVE_ROTOR_COUNT>  (1) 
11

>  <PUBCHEM_PHARMACOPHORE_FEATURES>  (1) 
7
1 16 hydrophobe
1 3 acceptor
1 3 donor
1 4 acceptor
1 5 cation
6 12 17 19 21 23 25 rings
6 13 18 20 22 24 26 rings

>  <PUBCHEM_HEAVY_ATOM_COUNT>  (1) 
26

>  <PUBCHEM_ATOM_DEF_STEREO_COUNT>  (1) 
0

>  <PUBCHEM_ATOM_UDEF_STEREO_COUNT>  (1) 
0

>  <PUBCHEM_BOND_DEF_STEREO_COUNT>  (1) 
0

>  <PUBCHEM_BOND_UDEF_STEREO_COUNT>  (1) 
0

>  <PUBCHEM_ISOTOPIC_ATOM_COUNT>  (1) 
0

>  <PUBCHEM_COMPONENT_COUNT>  (1) 
1

>  <PUBCHEM_CACTVS_TAUTO_COUNT>  (1) 
1

>  <PUBCHEM_CONFORMER_ID>  (1) 
000092140000000D

>  <PUBCHEM_MMFF94_ENERGY>  (1) 
60.9761

>  <PUBCHEM_FEATURE_SELFOVERLAP>  (1) 
35.526

>  <PUBCHEM_SHAPE_FINGERPRINT>  (1) 
11578080 2 13612867015139219729
11646440 116 18339658741468388065
12107698 1 18339640148760340431
12156800 1 17467298506134144881
12166972 35 17677050273686032983
12422481 6 18118966892969277410
12788726 201 18265629705596201584
13009979 54 17342925263935796239
13132413 78 18335712675223115980
13134695 92 18264487471590524644
13140716 1 18335707147589923144
14068700 675 17915719055293449631
14081887 123 18270399360850634152
14251757 17 16443609247438406494
14790565 3 18191038987350176660
15238133 3 18041578948470121069
17349148 13 17844818172688409746
17357779 13 18336255838272598388
17980427 23 17702672214095321795
192875 21 18268143339595682567
20511986 3 18335129852456165969
20600515 1 18114194054964490294
21421861 104 17824824430052823394
23402539 116 18410572890219913130
23419403 2 18267844233483186524
23559900 14 18197513843842848470
238 59 17836375109251114439
34934 24 18339081471882374499
4340502 62 17831862343673956565
5171179 24 18129648837470425808
6438718 38 18342462491660133741
7226269 152 18187646864680621176
7471813 234 18198896110073302175
81228 2 18046934613574087040

>  <PUBCHEM_SHAPE_MULTIPOLES>  (1) 
514.35
9.69
3.65
1.74
4.28
2.53
-0.55
-2
1.51
-3.34
-0.16
-0.93
-0.55
-1.57

>  <PUBCHEM_SHAPE_SELFOVERLAP>  (1) 
1057.936

>  <PUBCHEM_SHAPE_VOLUME>  (1) 
296.2

>  <PUBCHEM_COORDINATE_TYPE>  (1) 
2
5
10

$$$$
