37411
     RDKit          3D

 22 24  0  0  1  0  0  0  0  0999 V2000
   -6.6185    0.9775    0.5594 F   0  0  0  0  0  0  0  0  0  0  0  0
    3.3940    2.3759    0.2446 O   0  0  0  0  0  0  0  0  0  0  0  0
    5.0973    0.2398   -0.2502 O   0  0  0  0  0  0  0  0  0  0  0  0
   -0.8555   -2.0389    0.6195 N   0  0  0  0  0  0  0  0  0  0  0  0
   -0.4867   -0.6311    0.3783 C   0  0  0  0  0  0  0  0  0  0  0  0
    1.0059   -0.4083    0.2176 C   0  0  0  0  0  0  0  0  0  0  0  0
    1.8714   -1.4869   -0.0418 C   0  0  0  0  0  0  0  0  0  0  0  0
    1.3426   -2.8966   -0.0920 C   0  0  0  0  0  0  0  0  0  0  0  0
   -0.1697   -2.9470   -0.3013 C   0  0  0  0  0  0  0  0  0  0  0  0
   -1.2713   -0.0739   -0.8155 C   0  0  0  0  0  0  0  0  0  0  0  0
    1.5365    0.8877    0.3100 C   0  0  0  0  0  0  0  0  0  0  0  0
    3.2459   -1.2554   -0.1906 C   0  0  0  0  0  0  0  0  0  0  0  0
   -2.6998    0.2071   -0.4484 C   0  0  0  0  0  0  0  0  0  0  0  0
    2.9044    1.1085    0.1504 C   0  0  0  0  0  0  0  0  0  0  0  0
    3.7582    0.0379   -0.0999 C   0  0  0  0  0  0  0  0  0  0  0  0
   -3.6577   -0.7876   -0.6047 C   0  0  0  0  0  0  0  0  0  0  0  0
   -3.0494    1.4587    0.0440 C   0  0  0  0  0  0  0  0  0  0  0  0
   -4.9849   -0.5266   -0.2637 C   0  0  0  0  0  0  0  0  0  0  0  0
   -4.3765    1.7197    0.3850 C   0  0  0  0  0  0  0  0  0  0  0  0
   -5.3442    0.7271    0.2311 C   0  0  0  0  0  0  0  0  0  0  0  0
    3.4588    3.1371   -0.9596 C   0  0  0  0  0  0  0  0  0  0  0  0
    5.8992    0.1751    0.9278 C   0  0  0  0  0  0  0  0  0  0  0  0
  1 20  1  0
  2 14  1  0
  2 21  1  0
  3 15  1  0
  3 22  1  0
  4  5  1  0
  4  9  1  0
  5  6  1  0
  5 10  1  0
  6  7  2  0
  6 11  1  0
  7  8  1  0
  7 12  1  0
  8  9  1  0
 10 13  1  0
 11 14  2  0
 12 15  2  0
 13 16  2  0
 13 17  1  0
 14 15  1  0
 16 18  1  0
 17 19  2  0
 18 20  2  0
 19 20  1  0
M  END
>  <PUBCHEM_COMPOUND_CID>  (1) 
37411

>  <PUBCHEM_CONFORMER_RMSD>  (1) 
0.8

>  <PUBCHEM_CONFORMER_DIVERSEORDER>  (1) 
2
1
9
7
5
8
4
3
10
6

>  <PUBCHEM_MMFF94_PARTIAL_CHARGES>  (1) 
29
1 -0.19
10 0.14
11 -0.15
12 -0.15
13 -0.14
14 0.08
15 0.08
16 -0.15
17 -0.15
18 -0.15
19 -0.15
2 -0.36
20 0.19
21 0.28
22 0.28
28 0.36
3 -0.36
31 0.15
32 0.15
33 0.15
34 0.15
35 0.15
36 0.15
4 -0.9
5 0.41
6 -0.14
7 -0.14
8 0.14
9 0.27

>  <PUBCHEM_EFFECTIVE_ROTOR_COUNT>  (1) 
4.8

>  <PUBCHEM_PHARMACOPHORE_FEATURES>  (1) 
7
1 2 acceptor
1 3 acceptor
1 4 cation
1 4 donor
6 13 16 17 18 19 20 rings
6 4 5 6 7 8 9 rings
6 6 7 11 12 14 15 rings

>  <PUBCHEM_HEAVY_ATOM_COUNT>  (1) 
22

>  <PUBCHEM_ATOM_DEF_STEREO_COUNT>  (1) 
0

>  <PUBCHEM_ATOM_UDEF_STEREO_COUNT>  (1) 
1

>  <PUBCHEM_BOND_DEF_STEREO_COUNT>  (1) 
0

>  <PUBCHEM_BOND_UDEF_STEREO_COUNT>  (1) 
0

>  <PUBCHEM_ISOTOPIC_ATOM_COUNT>  (1) 
0

>  <PUBCHEM_COMPONENT_COUNT>  (1) 
1

>  <PUBCHEM_CACTVS_TAUTO_COUNT>  (1) 
1

>  <PUBCHEM_CONFORMER_ID>  (1) 
0000922300000002

>  <PUBCHEM_MMFF94_ENERGY>  (1) 
76.7507

>  <PUBCHEM_FEATURE_SELFOVERLAP>  (1) 
35.546

>  <PUBCHEM_SHAPE_FINGERPRINT>  (1) 
10411042 1 17690562983676454590
11796584 16 14333126368904354164
12035758 1 18262220180658159760
12107183 9 17478053757462927729
12236239 1 17775564221599999223
12403260 363 18338223990104365814
12633257 1 18187917404965845608
12730499 353 18336838515232778675
12788726 201 16916229845861993913
13140716 1 18263075677786893512
13544653 18 10519712214696419607
13583140 156 16806423903637546231
14251764 75 18118696645101213540
14341114 176 18340774732779585243
14790565 3 18411705425935935941
15342168 16 18262240031422112541
1601671 61 18336262362918751596
18186145 218 18411412886780027495
21033648 144 18041831947592289044
21033648 29 16298650759618586893
21524375 3 18334010605538112354
21709351 56 18410566280001332173
23402539 116 18272643571483065260
23402655 69 18201716245413094535
23559900 14 18344145887102284070
245318 6 17534077537889040797
25 1 18411415090336003726
2916195 48 17988349455933919760
335352 9 18410856564952979294
350125 39 18409729560401050604
3545911 37 18412545388573947145
3680242 22 18336262345501694498
474 4 18409731759476735297
5104073 3 18115866467895112192
54446538 1 18412261740233404693
59755656 215 18338237067941918887
6287921 2 18334301950486683597
633830 44 18342173375704696871
8272917 22 18271248214161054047
9999458 23 18114180852540912462

>  <PUBCHEM_SHAPE_MULTIPOLES>  (1) 
428.76
12.53
2.89
0.81
7.59
0.32
-0.03
-6.37
1.6
-1.91
-0.39
-0.14
-0.12
-0.7

>  <PUBCHEM_SHAPE_SELFOVERLAP>  (1) 
920.663

>  <PUBCHEM_SHAPE_VOLUME>  (1) 
239.5

>  <PUBCHEM_COORDINATE_TYPE>  (1) 
2
5
10

$$$$
