37414
     RDKit          3D

 21 23  0  0  0  0  0  0  0  0999 V2000
    4.4860   -1.1744    0.9065 N   0  0  0  0  0  0  0  0  0  0  0  0
   -0.4813    1.2878   -0.4387 C   0  0  0  0  0  0  0  0  0  0  0  0
   -1.6404    1.9188    0.0423 C   0  0  0  0  0  0  0  0  0  0  0  0
   -2.9859    1.2609   -0.1270 C   0  0  0  0  0  0  0  0  0  0  0  0
    0.7683    1.9020   -0.2636 C   0  0  0  0  0  0  0  0  0  0  0  0
   -3.1127   -0.0031    0.7245 C   0  0  0  0  0  0  0  0  0  0  0  0
    2.0389    1.2574   -0.7220 C   0  0  0  0  0  0  0  0  0  0  0  0
   -2.2899   -1.2254    0.3574 C   0  0  0  0  0  0  0  0  0  0  0  0
   -0.5945   -0.0204   -1.1176 C   0  0  0  0  0  0  0  0  0  0  0  0
   -1.1488   -1.2416   -0.4752 C   0  0  0  0  0  0  0  0  0  0  0  0
    2.6458    0.3480    0.3551 C   0  0  0  0  0  0  0  0  0  0  0  0
   -1.5322    3.1600    0.6854 C   0  0  0  0  0  0  0  0  0  0  0  0
    0.8626    3.1365    0.3782 C   0  0  0  0  0  0  0  0  0  0  0  0
   -0.2864    3.7652    0.8512 C   0  0  0  0  0  0  0  0  0  0  0  0
    3.9198   -0.3338   -0.1416 C   0  0  0  0  0  0  0  0  0  0  0  0
   -2.7081   -2.4359    0.9543 C   0  0  0  0  0  0  0  0  0  0  0  0
   -0.4672   -2.4638   -0.6673 C   0  0  0  0  0  0  0  0  0  0  0  0
   -0.2561   -0.0530   -2.4214 C   0  0  0  0  0  0  0  0  0  0  0  0
   -2.0305   -3.6335    0.7367 C   0  0  0  0  0  0  0  0  0  0  0  0
   -0.9066   -3.6469   -0.0743 C   0  0  0  0  0  0  0  0  0  0  0  0
    5.7193   -1.8048    0.4572 C   0  0  0  0  0  0  0  0  0  0  0  0
  1 15  1  0
  1 21  1  0
  2  3  2  0
  2  5  1  0
  2  9  1  0
  3  4  1  0
  3 12  1  0
  4  6  1  0
  5  7  1  0
  5 13  2  0
  6  8  1  0
  7 11  1  0
  8 10  2  0
  8 16  1  0
  9 10  1  0
  9 18  2  0
 10 17  1  0
 11 15  1  0
 12 14  2  0
 13 14  1  0
 16 19  2  0
 17 20  2  0
 19 20  1  0
M  END
>  <PUBCHEM_COMPOUND_CID>  (1) 
37414

>  <PUBCHEM_CONFORMER_RMSD>  (1) 
0.6

>  <PUBCHEM_CONFORMER_DIVERSEORDER>  (1) 
1
38
37
40
21
27
22
4
11
28
8
36
10
3
34
25
26
13
5
9
15
18
16
24
29
7
23
17
31
20
12
19
2
32
14
30
33
6
35
39

>  <PUBCHEM_MMFF94_PARTIAL_CHARGES>  (1) 
30
1 -0.9
10 0.03
12 -0.15
13 -0.15
14 -0.15
15 0.27
16 -0.15
17 -0.15
18 -0.3
19 -0.15
2 0.03
20 -0.15
21 0.27
3 -0.14
30 0.15
31 0.15
32 0.15
35 0.15
36 0.15
37 0.15
38 0.15
39 0.15
4 0.14
40 0.15
41 0.36
5 -0.14
6 0.14
7 0.14
8 -0.14
9 -0.06

>  <PUBCHEM_EFFECTIVE_ROTOR_COUNT>  (1) 
4.4

>  <PUBCHEM_PHARMACOPHORE_FEATURES>  (1) 
5
1 1 cation
1 1 donor
6 2 3 5 12 13 14 rings
6 8 10 16 17 19 20 rings
7 2 3 4 6 8 9 10 rings

>  <PUBCHEM_HEAVY_ATOM_COUNT>  (1) 
21

>  <PUBCHEM_ATOM_DEF_STEREO_COUNT>  (1) 
0

>  <PUBCHEM_ATOM_UDEF_STEREO_COUNT>  (1) 
0

>  <PUBCHEM_BOND_DEF_STEREO_COUNT>  (1) 
0

>  <PUBCHEM_BOND_UDEF_STEREO_COUNT>  (1) 
0

>  <PUBCHEM_ISOTOPIC_ATOM_COUNT>  (1) 
0

>  <PUBCHEM_COMPONENT_COUNT>  (1) 
1

>  <PUBCHEM_CACTVS_TAUTO_COUNT>  (1) 
1

>  <PUBCHEM_CONFORMER_ID>  (1) 
0000922600000001

>  <PUBCHEM_MMFF94_ENERGY>  (1) 
66.081

>  <PUBCHEM_FEATURE_SELFOVERLAP>  (1) 
25.386

>  <PUBCHEM_SHAPE_FINGERPRINT>  (1) 
1100329 8 18410575089285243433
11578080 2 17608913611011310389
12507560 14 18270124642342523095
12553582 1 18196656417841106502
12633257 1 18198645365534892411
12788726 201 18341062838991005460
13140716 1 18339930410322117561
13533116 47 17687750853976483947
13965767 371 17118654600674814531
14223421 5 17619350252701801645
14251757 5 18339098016413312750
14844126 61 18337378392954306106
15042514 8 18409732841729600098
15420108 30 17771917030694888769
16728300 4 17751634356249888419
16945 1 17333376096054155285
17780758 139 18263910091422786282
21421861 104 17687464980667315089
22445834 79 17332253503050279063
23184049 29 18194969775103396181
23559900 14 17690274237313921145
23728640 28 18339356349636565186
2748010 2 17841444927239384285
43471831 8 17834958572748969292
484985 159 18189607264117628666
5364581 5 18056166230214804936
58807428 26 17980774730977472641
7097593 13 17907587169777468971

>  <PUBCHEM_SHAPE_MULTIPOLES>  (1) 
427.19
6.36
5.05
1.24
11.47
0.13
-0.62
-5.22
2.31
-2.01
1.59
-0.12
-0.08
-0.15

>  <PUBCHEM_SHAPE_SELFOVERLAP>  (1) 
914.241

>  <PUBCHEM_SHAPE_VOLUME>  (1) 
234.1

>  <PUBCHEM_COORDINATE_TYPE>  (1) 
2
5
10

$$$$
