37427
     RDKit          3D

 23 25  0  0  0  0  0  0  0  0999 V2000
    0.0010    0.3596    0.1890 N   0  0  0  0  0  0  0  0  0  0  0  0
   -4.8076    0.5190    0.2419 N   0  0  0  0  0  0  0  0  0  0  0  0
    4.8095    0.5320    0.1915 N   0  0  0  0  0  0  0  0  0  0  0  0
   -1.1858   -0.2683    0.0909 C   0  0  0  0  0  0  0  0  0  0  0  0
    1.1883   -0.2650    0.0784 C   0  0  0  0  0  0  0  0  0  0  0  0
    0.0003    1.8184    0.4319 C   0  0  0  0  0  0  0  0  0  0  0  0
   -1.2137   -1.6587   -0.1405 C   0  0  0  0  0  0  0  0  0  0  0  0
    1.2176   -1.6553   -0.1534 C   0  0  0  0  0  0  0  0  0  0  0  0
    0.0022   -2.3427   -0.2613 C   0  0  0  0  0  0  0  0  0  0  0  0
   -0.0077    2.5512   -0.9032 C   0  0  0  0  0  0  0  0  0  0  0  0
   -2.3791    0.4509    0.2174 C   0  0  0  0  0  0  0  0  0  0  0  0
    2.3809    0.4575    0.1921 C   0  0  0  0  0  0  0  0  0  0  0  0
   -3.6043   -0.2065    0.1147 C   0  0  0  0  0  0  0  0  0  0  0  0
    3.6067   -0.1966    0.0763 C   0  0  0  0  0  0  0  0  0  0  0  0
   -2.4560   -2.3050   -0.2413 C   0  0  0  0  0  0  0  0  0  0  0  0
    2.4605   -2.2983   -0.2675 C   0  0  0  0  0  0  0  0  0  0  0  0
   -3.6430   -1.5810   -0.1141 C   0  0  0  0  0  0  0  0  0  0  0  0
    3.6469   -1.5709   -0.1529 C   0  0  0  0  0  0  0  0  0  0  0  0
   -0.0194    4.0577   -0.7067 C   0  0  0  0  0  0  0  0  0  0  0  0
   -6.0015    0.0877   -0.4572 C   0  0  0  0  0  0  0  0  0  0  0  0
   -4.8686    1.6966    1.0843 C   0  0  0  0  0  0  0  0  0  0  0  0
    6.0037   -0.1015    0.7133 C   0  0  0  0  0  0  0  0  0  0  0  0
    4.8692    1.9192   -0.2236 C   0  0  0  0  0  0  0  0  0  0  0  0
  1  4  2  0
  1  5  1  0
  1  6  1  0
  2 13  1  0
  2 20  1  0
  2 21  1  0
  3 14  1  0
  3 22  1  0
  3 23  1  0
  4  7  1  0
  4 11  1  0
  5  8  2  0
  5 12  1  0
  6 10  1  0
  7  9  2  0
  7 15  1  0
  8  9  1  0
  8 16  1  0
 10 19  1  0
 11 13  2  0
 12 14  2  0
 13 17  1  0
 14 18  1  0
 15 17  2  0
 16 18  2  0
M  CHG  1   1   1
M  END
>  <PUBCHEM_COMPOUND_CID>  (1) 
37427

>  <PUBCHEM_CONFORMER_RMSD>  (1) 
0.6

>  <PUBCHEM_CONFORMER_DIVERSEORDER>  (1) 
1
3
2
4

>  <PUBCHEM_MMFF94_PARTIAL_CHARGES>  (1) 
26
1 -0.21
11 -0.15
12 -0.15
13 0.1
14 0.1
15 -0.15
16 -0.15
17 -0.15
18 -0.15
2 -0.84
20 0.37
21 0.37
22 0.37
23 0.37
26 0.15
29 0.15
3 -0.84
30 0.15
31 0.15
32 0.15
33 0.15
34 0.15
4 0.36
5 0.36
6 0.49
9 -0.15

>  <PUBCHEM_EFFECTIVE_ROTOR_COUNT>  (1) 
4

>  <PUBCHEM_PHARMACOPHORE_FEATURES>  (1) 
6
1 19 hydrophobe
1 2 cation
1 3 cation
6 1 4 5 7 8 9 rings
6 4 7 11 13 15 17 rings
6 5 8 12 14 16 18 rings

>  <PUBCHEM_HEAVY_ATOM_COUNT>  (1) 
23

>  <PUBCHEM_ATOM_DEF_STEREO_COUNT>  (1) 
0

>  <PUBCHEM_ATOM_UDEF_STEREO_COUNT>  (1) 
0

>  <PUBCHEM_BOND_DEF_STEREO_COUNT>  (1) 
0

>  <PUBCHEM_BOND_UDEF_STEREO_COUNT>  (1) 
0

>  <PUBCHEM_ISOTOPIC_ATOM_COUNT>  (1) 
0

>  <PUBCHEM_COMPONENT_COUNT>  (1) 
1

>  <PUBCHEM_CACTVS_TAUTO_COUNT>  (1) 
1

>  <PUBCHEM_CONFORMER_ID>  (1) 
0000923300000001

>  <PUBCHEM_MMFF94_ENERGY>  (1) 
111.0978

>  <PUBCHEM_FEATURE_SELFOVERLAP>  (1) 
30.505

>  <PUBCHEM_SHAPE_FINGERPRINT>  (1) 
10411042 1 17476918429434256214
10906281 52 18336564770874946962
10967382 1 18411419488166159014
1100329 8 18337392763249979801
12236239 1 18041276651639860218
12293681 4 17967824842376900705
12788726 201 18115020801825361752
13132413 78 18340771545317843885
13140716 1 18338231699770856024
14117953 113 18410856534424218748
14170010 4 18411135849354008761
14790565 3 18411143562345489856
14955137 171 18263381315648432729
15081414 286 18411709755125560493
15196674 1 18413390938274288454
1601671 61 18412263951787803024
1813 80 17458352913562879924
18785283 64 17898871281370412677
19591789 44 18051416167091998969
19784866 170 18410857655109943570
20642791 178 18044386151679592988
20739085 24 18051162231825548201
21267235 1 18340212980516053634
21285901 2 18270685255379938414
21298829 104 18341896226451759921
21304253 335 18410864260590258077
21421861 104 18115580427658796962
23402539 116 18341887519835106566
23559900 14 18130218371755911240
3178227 256 18335715953269574619
335352 9 18411698807090100622
34797466 226 16200433614849663896
34934 24 18410570690943716339
350125 39 18267027348452588035
3680242 22 18336264553178103770
5104073 3 18410293609871635122
59554788 170 18267872670403053262
59755656 215 18272377426168131558
7495541 125 14129355012842055143

>  <PUBCHEM_SHAPE_MULTIPOLES>  (1) 
458.39
11.21
3.32
0.78
0.04
2.25
0.02
1.42
1.65
0.16
-0.84
-0.17
0.26
-0.49

>  <PUBCHEM_SHAPE_SELFOVERLAP>  (1) 
988.518

>  <PUBCHEM_SHAPE_VOLUME>  (1) 
255.6

>  <PUBCHEM_COORDINATE_TYPE>  (1) 
2
5
10

$$$$
