37420
     RDKit          3D

 18 19  0  0  0  0  0  0  0  0999 V2000
    0.4562    2.6936   -0.0873 Br  0  0  0  0  0  0  0  0  0  0  0  0
    0.0385   -3.0449   -0.1876 Br  0  0  0  0  0  0  0  0  0  0  0  0
   -0.9029   -0.1163    2.7515 Br  0  0  0  0  0  0  0  0  0  0  0  0
    3.8079    2.3838   -0.0644 Br  0  0  0  0  0  0  0  0  0  0  0  0
    5.1410   -0.7415   -0.1112 Br  0  0  0  0  0  0  0  0  0  0  0  0
   -5.6286    0.3205   -0.3372 Br  0  0  0  0  0  0  0  0  0  0  0  0
    0.4779   -0.1740   -0.1353 C   0  0  0  0  0  0  0  0  0  0  0  0
   -0.9677   -0.0570   -0.1432 C   0  0  0  0  0  0  0  0  0  0  0  0
    1.2908    0.9628   -0.1090 C   0  0  0  0  0  0  0  0  0  0  0  0
    1.0653   -1.4423   -0.1531 C   0  0  0  0  0  0  0  0  0  0  0  0
   -1.7135   -0.0183    1.0349 C   0  0  0  0  0  0  0  0  0  0  0  0
   -1.6110    0.0170   -1.3787 C   0  0  0  0  0  0  0  0  0  0  0  0
    2.6795    0.8324   -0.1004 C   0  0  0  0  0  0  0  0  0  0  0  0
    2.4540   -1.5727   -0.1445 C   0  0  0  0  0  0  0  0  0  0  0  0
    3.2611   -0.4354   -0.1181 C   0  0  0  0  0  0  0  0  0  0  0  0
   -3.1026    0.0943    0.9776 C   0  0  0  0  0  0  0  0  0  0  0  0
   -3.0001    0.1295   -1.4360 C   0  0  0  0  0  0  0  0  0  0  0  0
   -3.7459    0.1682   -0.2579 C   0  0  0  0  0  0  0  0  0  0  0  0
  1  9  1  0
  2 10  1  0
  3 11  1  0
  4 13  1  0
  5 15  1  0
  6 18  1  0
  7  8  1  0
  7  9  2  0
  7 10  1  0
  8 11  2  0
  8 12  1  0
  9 13  1  0
 10 14  2  0
 11 16  1  0
 12 17  2  0
 13 15  2  0
 14 15  1  0
 16 18  2  0
 17 18  1  0
M  END
>  <PUBCHEM_COMPOUND_CID>  (1) 
37420

>  <PUBCHEM_CONFORMER_RMSD>  (1) 
0.6

>  <PUBCHEM_CONFORMER_DIVERSEORDER>  (1) 
1
2

>  <PUBCHEM_MMFF94_PARTIAL_CHARGES>  (1) 
20
1 -0.11
10 0.11
11 0.11
12 -0.15
13 0.11
14 -0.15
15 0.11
16 -0.15
17 -0.15
18 0.11
19 0.15
2 -0.11
20 0.15
21 0.15
22 0.15
3 -0.11
4 -0.11
5 -0.11
6 -0.11
9 0.11

>  <PUBCHEM_EFFECTIVE_ROTOR_COUNT>  (1) 
1

>  <PUBCHEM_PHARMACOPHORE_FEATURES>  (1) 
8
1 1 hydrophobe
1 2 hydrophobe
1 3 hydrophobe
1 4 hydrophobe
1 5 hydrophobe
1 6 hydrophobe
6 7 9 10 13 14 15 rings
6 8 11 12 16 17 18 rings

>  <PUBCHEM_HEAVY_ATOM_COUNT>  (1) 
18

>  <PUBCHEM_ATOM_DEF_STEREO_COUNT>  (1) 
0

>  <PUBCHEM_ATOM_UDEF_STEREO_COUNT>  (1) 
0

>  <PUBCHEM_BOND_DEF_STEREO_COUNT>  (1) 
0

>  <PUBCHEM_BOND_UDEF_STEREO_COUNT>  (1) 
0

>  <PUBCHEM_ISOTOPIC_ATOM_COUNT>  (1) 
0

>  <PUBCHEM_COMPONENT_COUNT>  (1) 
1

>  <PUBCHEM_CACTVS_TAUTO_COUNT>  (1) 
1

>  <PUBCHEM_CONFORMER_ID>  (1) 
0000922C00000001

>  <PUBCHEM_MMFF94_ENERGY>  (1) 
54.8892

>  <PUBCHEM_FEATURE_SELFOVERLAP>  (1) 
40.601

>  <PUBCHEM_SHAPE_FINGERPRINT>  (1) 
10366900 7 17968105183402934946
11471102 20 18410011043935904516
11640471 11 17416148116939313385
12011746 2 18334583412778906414
12119455 92 18260265252387442963
12236239 1 17704070677127243295
12403259 415 17749381559940239677
12592029 89 18335697204746024555
12596599 1 17917164873943764790
13140716 1 18338231691502850154
13583140 156 16517062173503522956
14115302 16 17632290207585954111
15207287 21 17821734905400036611
15219456 202 18041000673662041205
15309172 13 18409737265514266330
15342168 16 18263647436069905956
15848702 151 17703236096526138710
16945 1 18411140208566433758
1813 80 17843136813852257102
18186145 218 18341608226638186542
18219364 16 18192723464574705800
192875 21 18060703892346961160
200 152 18273210868238776015
20344682 1 17822292357837393799
20645477 70 18410292488810920958
21267235 1 18342182141416345623
21756936 100 17270921464769224392
23175994 123 18187372003900889748
23184049 59 18410294722505027588
2334 1 18122907805343171622
23402539 116 18201431463533014726
23419403 2 17751669725105136537
23493267 7 17167863037243476984
23526113 38 17823138925760878187
23557571 272 16805602517133491391
23559900 14 16805329881595322002
23598291 2 17845388652003863585
23728640 28 15021896320158949187
2748010 2 18195534916297292510
3060560 45 18412259527950525919
335352 9 18410855469614967182
350125 39 17617384325763898460
4340502 62 18413114970220968515
474 4 18343585161435052194
5104073 3 18337390547099447419
69090 78 18114178657707336923
77492 1 17704073979909601575
8272917 22 18342181003867268655
9999458 23 18113054948355011342

>  <PUBCHEM_SHAPE_MULTIPOLES>  (1) 
406.09
8.81
2.48
1.48
2.53
0.15
1.13
-1.38
-1.58
-2.31
-0.26
1.23
0.04
0.13

>  <PUBCHEM_SHAPE_SELFOVERLAP>  (1) 
790.201

>  <PUBCHEM_SHAPE_VOLUME>  (1) 
248

>  <PUBCHEM_COORDINATE_TYPE>  (1) 
2
5
10

$$$$
