37434
     RDKit          3D

 22 24  0  0  1  0  0  0  0  0999 V2000
    0.5113    0.8077   -1.9928 O   0  0  0  0  0  0  0  0  0  0  0  0
    0.9511   -3.3423   -0.3855 O   0  0  0  0  0  0  0  0  0  0  0  0
   -0.0868   -0.6832   -0.2921 N   0  0  0  0  0  0  0  0  0  0  0  0
    6.0657    0.8299    0.9708 N   0  0  0  0  0  0  0  0  0  0  0  0
   -2.3364    1.0582    0.7469 C   0  0  0  0  0  0  0  0  0  0  0  0
   -4.4896    0.8544    0.2075 C   0  0  0  0  0  0  0  0  0  0  0  0
   -2.4387   -0.4203    0.2986 C   0  0  0  0  0  0  0  0  0  0  0  0
   -3.9116   -0.5318   -0.1754 C   0  0  0  0  0  0  0  0  0  0  0  0
   -3.6841    1.2345    1.4523 C   0  0  0  0  0  0  0  0  0  0  0  0
   -2.4910    2.0322   -0.4338 C   0  0  0  0  0  0  0  0  0  0  0  0
   -3.9723    1.8880   -0.8108 C   0  0  0  0  0  0  0  0  0  0  0  0
   -1.4320   -0.8517   -0.7575 C   0  0  0  0  0  0  0  0  0  0  0  0
   -4.6485   -1.6791    0.5098 C   0  0  0  0  0  0  0  0  0  0  0  0
    0.2887   -1.4370    0.9144 C   0  0  0  0  0  0  0  0  0  0  0  0
    0.8005    0.1680   -0.9821 C   0  0  0  0  0  0  0  0  0  0  0  0
    0.1382   -2.9330    0.7067 C   0  0  0  0  0  0  0  0  0  0  0  0
    2.1704    0.3393   -0.4730 C   0  0  0  0  0  0  0  0  0  0  0  0
    3.1714   -0.5127   -0.9135 C   0  0  0  0  0  0  0  0  0  0  0  0
    2.4363    1.3506    0.4375 C   0  0  0  0  0  0  0  0  0  0  0  0
    4.4702   -0.3495   -0.4316 C   0  0  0  0  0  0  0  0  0  0  0  0
    3.7352    1.5138    0.9191 C   0  0  0  0  0  0  0  0  0  0  0  0
    4.7521    0.6637    0.4846 C   0  0  0  0  0  0  0  0  0  0  0  0
  1 15  2  0
  2 16  1  0
  3 12  1  0
  3 14  1  0
  3 15  1  0
  4 22  1  0
  5  7  1  0
  5  9  1  0
  5 10  1  0
  6  8  1  0
  6  9  1  0
  6 11  1  0
  7  8  1  0
  7 12  1  0
  8 13  1  0
 10 11  1  0
 14 16  1  0
 15 17  1  0
 17 18  2  0
 17 19  1  0
 18 20  1  0
 19 21  2  0
 20 22  2  0
 21 22  1  0
M  END
>  <PUBCHEM_COMPOUND_CID>  (1) 
37434

>  <PUBCHEM_CONFORMER_RMSD>  (1) 
0.8

>  <PUBCHEM_CONFORMER_DIVERSEORDER>  (1) 
4
24
64
94
90
85
44
23
76
38
98
2
89
60
50
103
30
92
93
48
65
96
47
42
72
53
14
10
13
46
70
12
80
32
49
33
45
1
26
25
97
16
29
59
19
106
82
84
74
56
18
63
21
104
35
105
34
100
8
27
88
41
51
91
15
102
17
79
22
107
95
101
7
5
108
75
3
83
69
9
99
43
62
20
11
28
39
36
71
78
37
86
81
52
31
68
73
57
58
66
6
67
40
87
77
61
54
55

>  <PUBCHEM_MMFF94_PARTIAL_CHARGES>  (1) 
21
1 -0.57
12 0.3
14 0.3
15 0.54
16 0.28
17 0.09
18 -0.15
19 -0.15
2 -0.68
20 -0.15
21 -0.15
22 0.1
3 -0.66
4 -0.9
42 0.15
43 0.15
44 0.4
45 0.15
46 0.15
47 0.4
48 0.4

>  <PUBCHEM_EFFECTIVE_ROTOR_COUNT>  (1) 
7

>  <PUBCHEM_PHARMACOPHORE_FEATURES>  (1) 
7
1 1 acceptor
1 2 acceptor
1 2 donor
1 4 cation
1 4 donor
6 17 18 19 20 21 22 rings
7 5 6 7 8 9 10 11 rings

>  <PUBCHEM_HEAVY_ATOM_COUNT>  (1) 
22

>  <PUBCHEM_ATOM_DEF_STEREO_COUNT>  (1) 
0

>  <PUBCHEM_ATOM_UDEF_STEREO_COUNT>  (1) 
4

>  <PUBCHEM_BOND_DEF_STEREO_COUNT>  (1) 
0

>  <PUBCHEM_BOND_UDEF_STEREO_COUNT>  (1) 
0

>  <PUBCHEM_ISOTOPIC_ATOM_COUNT>  (1) 
0

>  <PUBCHEM_COMPONENT_COUNT>  (1) 
1

>  <PUBCHEM_CACTVS_TAUTO_COUNT>  (1) 
2

>  <PUBCHEM_CONFORMER_ID>  (1) 
0000923A00000004

>  <PUBCHEM_MMFF94_ENERGY>  (1) 
83.0788

>  <PUBCHEM_FEATURE_SELFOVERLAP>  (1) 
35.52

>  <PUBCHEM_SHAPE_FINGERPRINT>  (1) 
10 15 18270107037778401936
10646746 165 18412266116493557236
11132069 177 18259989257984070613
11370993 70 18411135840036139058
11578080 2 16735507456936073495
121448 382 18409730703279167499
12236239 1 17240481429366566132
12403259 415 18341338833199010772
12403260 363 18261674882445168989
12422481 6 17824804669319614514
12507557 5 18131069354895603009
12596602 18 17313664961823884312
12633257 1 18263064657106774416
12670546 177 11815891284468164472
12788726 201 17393058635013441818
13149001 5 12462984676371534494
13544653 18 11818999581985242212
13583140 156 18271800220490059669
13675066 3 18411142441442863198
14178342 30 18114190713675028111
14223421 5 18337112255189432943
14251751 93 18272649069231530383
14466204 15 18337384951132028832
14787075 74 18128814338377824393
15188451 53 18041557074260101195
15209294 21 18410006641705007372
15788980 27 15841555132736097900
17349148 13 17604157020725027467
1813 80 16660364753866981982
18186145 218 18271254841189778196
192875 21 17822295751193691477
19489759 90 18040430001827050049
20197701 30 18411414012220195114
20832881 197 18054240838788090638
20871999 31 10519992556018100529
21033648 29 18341883117383151064
212916 134 18270947021363787298
21304303 64 15410617055061429066
21524375 3 18413111679537372551
23402539 116 18270674393734928023
23559900 14 18202570558101610518
2838139 119 16845285060470454800
2916195 48 18201431515194071632
351380 180 18272651259590926816
392239 28 18271536402487763683
4325135 7 17346313843282763757
465052 167 16443640080997626883
474 4 18413672421935561032
5104073 3 18337398132360033683
59755656 215 18334580114217922207
633830 44 18130791131177162028
7226269 152 18201712951848600680
7364860 26 18195812860278402135
7495541 125 16343416327656069743
79837 15 18261681466414555483
9981440 41 18261112963442447323

>  <PUBCHEM_SHAPE_MULTIPOLES>  (1) 
431.05
10.75
2.52
1.22
5.74
1.84
0.12
-3.88
-2.34
-0.9
-0.26
0.11
-0.25
0.74

>  <PUBCHEM_SHAPE_SELFOVERLAP>  (1) 
915.64

>  <PUBCHEM_SHAPE_VOLUME>  (1) 
246.5

>  <PUBCHEM_COORDINATE_TYPE>  (1) 
2
5
10

$$$$
