3743
     RDKit          3D

 32 32  0  0  1  0  0  0  0  0999 V2000
   -2.2954    1.3499    0.8995 I   0  0  0  0  0  0  0  0  0  0  0  0
    3.7801    1.3370    0.3133 I   0  0  0  0  0  0  0  0  0  0  0  0
    0.7224   -3.9444    0.5155 I   0  0  0  0  0  0  0  0  0  0  0  0
   -1.2845    4.3315   -0.1354 O   0  0  0  0  0  0  0  0  0  0  0  0
   -2.0761    4.5003   -2.7971 O   0  0  0  0  0  0  0  0  0  0  0  0
   -4.8197   -0.9318   -1.4779 O   0  0  0  0  0  0  0  0  0  0  0  0
    0.9481    4.3652    1.8751 O   0  0  0  0  0  0  0  0  0  0  0  0
   -2.1698   -2.1726    1.8979 O   0  0  0  0  0  0  0  0  0  0  0  0
    3.8324   -2.1865    1.3197 O   0  0  0  0  0  0  0  0  0  0  0  0
   -7.2565   -1.6101   -0.3192 O   0  0  0  0  0  0  0  0  0  0  0  0
    5.7608   -1.1080   -2.5552 O   0  0  0  0  0  0  0  0  0  0  0  0
    0.7461    2.3765    0.6224 N   0  0  0  0  0  0  0  0  0  0  0  0
   -2.4118   -2.1164   -0.4082 N   0  0  0  0  0  0  0  0  0  0  0  0
    3.6010   -2.1654   -0.9874 N   0  0  0  0  0  0  0  0  0  0  0  0
    0.7222    3.1040   -0.6803 C   0  0  0  0  0  0  0  0  0  0  0  0
    0.7408    0.9741    0.5981 C   0  0  0  0  0  0  0  0  0  0  0  0
   -0.6893    3.4870   -1.1212 C   0  0  0  0  0  0  0  0  0  0  0  0
   -0.4644    0.2794    0.7013 C   0  0  0  0  0  0  0  0  0  0  0  0
   -0.4698   -1.1152    0.6772 C   0  0  0  0  0  0  0  0  0  0  0  0
    1.9406    0.2741    0.4707 C   0  0  0  0  0  0  0  0  0  0  0  0
    1.9352   -1.1205    0.4464 C   0  0  0  0  0  0  0  0  0  0  0  0
    0.7300   -1.8151    0.5498 C   0  0  0  0  0  0  0  0  0  0  0  0
   -0.7219    4.2119   -2.4629 C   0  0  0  0  0  0  0  0  0  0  0  0
    0.8639    3.1352    1.8333 C   0  0  0  0  0  0  0  0  0  0  0  0
   -3.6757   -2.8011   -0.4642 C   0  0  0  0  0  0  0  0  0  0  0  0
   -1.7534   -1.8549    0.7870 C   0  0  0  0  0  0  0  0  0  0  0  0
   -4.8698   -1.8516   -0.3867 C   0  0  0  0  0  0  0  0  0  0  0  0
    3.1944   -1.8546    0.3109 C   0  0  0  0  0  0  0  0  0  0  0  0
    0.8478    2.3834    3.1445 C   0  0  0  0  0  0  0  0  0  0  0  0
   -6.2128   -2.5737   -0.4238 C   0  0  0  0  0  0  0  0  0  0  0  0
    4.8066   -2.9053   -1.2835 C   0  0  0  0  0  0  0  0  0  0  0  0
    5.9985   -1.9822   -1.4596 C   0  0  0  0  0  0  0  0  0  0  0  0
  1 18  1  0
  2 20  1  0
  3 22  1  0
  4 17  1  0
  5 23  1  0
  6 27  1  0
  7 24  2  0
  8 26  2  0
  9 28  2  0
 10 30  1  0
 11 32  1  0
 12 15  1  0
 12 16  1  0
 12 24  1  0
 13 25  1  0
 13 26  1  0
 14 28  1  0
 14 31  1  0
 15 17  1  0
 16 18  2  0
 16 20  1  0
 17 23  1  0
 18 19  1  0
 19 22  2  0
 19 26  1  0
 20 21  2  0
 21 22  1  0
 21 28  1  0
 24 29  1  0
 25 27  1  0
 27 30  1  0
 31 32  1  0
M  END
>  <PUBCHEM_COMPOUND_CID>  (1) 
3743

>  <PUBCHEM_CONFORMER_RMSD>  (1) 
1.2

>  <PUBCHEM_CONFORMER_DIVERSEORDER>  (1) 
1
13
36
21
28
17
67
58
47
23
45
30
63
19
53
38
64
24
4
52
55
46
32
9
60
22
8
20
34
54
56
65
16
25
5
62
33
66
3
41
50
26
51
42
10
14
37
40
57
49
6
29
11
48
18
12
43
2
31
61
15
44
35
39
27
7
59

>  <PUBCHEM_MMFF94_PARTIAL_CHARGES>  (1) 
39
1 -0.08
10 -0.68
11 -0.68
12 -0.48
13 -0.73
14 -0.73
15 0.3
16 0.12
17 0.28
18 0.08
19 0.09
2 -0.08
20 0.08
21 0.09
22 0.08
23 0.28
24 0.57
25 0.3
26 0.54
27 0.28
28 0.54
29 0.06
3 -0.08
30 0.28
31 0.3
32 0.28
4 -0.68
41 0.37
45 0.4
48 0.37
5 -0.68
51 0.4
52 0.4
55 0.4
56 0.4
6 -0.68
7 -0.57
8 -0.57
9 -0.57

>  <PUBCHEM_EFFECTIVE_ROTOR_COUNT>  (1) 
14

>  <PUBCHEM_PHARMACOPHORE_FEATURES>  (1) 
19
1 1 hydrophobe
1 10 acceptor
1 10 donor
1 11 acceptor
1 11 donor
1 13 donor
1 14 donor
1 2 hydrophobe
1 3 hydrophobe
1 4 acceptor
1 4 donor
1 5 acceptor
1 5 donor
1 6 acceptor
1 6 donor
1 7 acceptor
1 8 acceptor
1 9 acceptor
6 16 18 19 20 21 22 rings

>  <PUBCHEM_HEAVY_ATOM_COUNT>  (1) 
32

>  <PUBCHEM_ATOM_DEF_STEREO_COUNT>  (1) 
0

>  <PUBCHEM_ATOM_UDEF_STEREO_COUNT>  (1) 
2

>  <PUBCHEM_BOND_DEF_STEREO_COUNT>  (1) 
0

>  <PUBCHEM_BOND_UDEF_STEREO_COUNT>  (1) 
0

>  <PUBCHEM_ISOTOPIC_ATOM_COUNT>  (1) 
0

>  <PUBCHEM_COMPONENT_COUNT>  (1) 
1

>  <PUBCHEM_CACTVS_TAUTO_COUNT>  (1) 
4

>  <PUBCHEM_CONFORMER_ID>  (1) 
00000E9F00000001

>  <PUBCHEM_MMFF94_ENERGY>  (1) 
115.8696

>  <PUBCHEM_FEATURE_SELFOVERLAP>  (1) 
96.455

>  <PUBCHEM_SHAPE_FINGERPRINT>  (1) 
10483366 6 17898861411536106476
12160290 23 18048891688516296026
12788726 201 18263927648727372466
13140716 1 18339651044670507882
13911987 19 17469616113959154236
14068700 675 17703796911643859211
14289585 56 18341032052818818895
15082195 135 17830163964008971311
15439362 3 18124878121099549265
16988056 13 18263358269344494109
17980427 26 16340580768614198328
19319366 153 16680872591324525853
20642791 105 17973702711237936170
21033648 29 17190645197170492745
21049683 271 18339087085135845550
21641784 216 18189070736707684142
22149856 69 17618794995800803675
23559900 14 18048872198117866539
283562 15 18267877094795030706
4017518 198 17408238527439024768
4066623 53 18335137613699174268
4394409 98 17105404429030470612
6691757 9 17405418907115903146

>  <PUBCHEM_SHAPE_MULTIPOLES>  (1) 
632.45
10.48
6.87
2.22
7.33
6.29
0.27
-13.81
6.42
0.91
1.71
-0.95
2.47
2.23

>  <PUBCHEM_SHAPE_SELFOVERLAP>  (1) 
1228.3

>  <PUBCHEM_SHAPE_VOLUME>  (1) 
389.7

>  <PUBCHEM_COORDINATE_TYPE>  (1) 
2
5
10

$$$$
