37437
     RDKit          3D

 21 23  0  0  1  0  0  0  0  0999 V2000
    2.2785   -0.7420    0.6143 O   0  0  0  0  0  0  0  0  0  0  0  0
    2.7722    1.3841    1.3460 O   0  0  0  0  0  0  0  0  0  0  0  0
   -1.3480   -0.0053    0.6909 N   0  0  0  0  0  0  0  0  0  0  0  0
   -4.2742   -0.7948    0.7429 C   0  0  0  0  0  0  0  0  0  0  0  0
   -5.8500   -0.0201   -0.6303 C   0  0  0  0  0  0  0  0  0  0  0  0
   -3.6842    0.5572    0.2727 C   0  0  0  0  0  0  0  0  0  0  0  0
   -4.7323    1.0455   -0.7619 C   0  0  0  0  0  0  0  0  0  0  0  0
   -5.7600   -0.4378    0.8397 C   0  0  0  0  0  0  0  0  0  0  0  0
   -4.2940   -1.8400   -0.3855 C   0  0  0  0  0  0  0  0  0  0  0  0
   -5.3744   -1.3044   -1.3357 C   0  0  0  0  0  0  0  0  0  0  0  0
   -2.2709    0.4912   -0.2870 C   0  0  0  0  0  0  0  0  0  0  0  0
   -5.2312    2.4537   -0.4510 C   0  0  0  0  0  0  0  0  0  0  0  0
    0.0158   -0.0836    0.1616 C   0  0  0  0  0  0  0  0  0  0  0  0
    0.9797   -0.6539    1.1859 C   0  0  0  0  0  0  0  0  0  0  0  0
    3.0750    0.3516    0.7682 C   0  0  0  0  0  0  0  0  0  0  0  0
    4.3970    0.1340    0.1284 C   0  0  0  0  0  0  0  0  0  0  0  0
    5.0789    1.2204   -0.3802 C   0  0  0  0  0  0  0  0  0  0  0  0
    4.9027   -1.1481    0.0622 C   0  0  0  0  0  0  0  0  0  0  0  0
    6.3209    1.0158   -0.9814 C   0  0  0  0  0  0  0  0  0  0  0  0
    6.1446   -1.3528   -0.5390 C   0  0  0  0  0  0  0  0  0  0  0  0
    6.8537   -0.2708   -1.0608 C   0  0  0  0  0  0  0  0  0  0  0  0
  1 14  1  0
  1 15  1  0
  2 15  2  0
  3 11  1  0
  3 13  1  0
  4  6  1  0
  4  8  1  0
  4  9  1  0
  5  7  1  0
  5  8  1  0
  5 10  1  0
  6  7  1  0
  6 11  1  0
  7 12  1  0
  9 10  1  0
 13 14  1  0
 15 16  1  0
 16 17  2  0
 16 18  1  0
 17 19  1  0
 18 20  2  0
 19 21  2  0
 20 21  1  0
M  END
>  <PUBCHEM_COMPOUND_CID>  (1) 
37437

>  <PUBCHEM_CONFORMER_RMSD>  (1) 
1

>  <PUBCHEM_CONFORMER_DIVERSEORDER>  (1) 
10
471
8
258
247
157
495
2
55
5
110
235
659
21
288
165
352
608
1
581
12
149
456
574
781
537
104
613
310
750
11
66
183
44
329
377
748
3
406
521
458
343
158
208
410
737
24
243
432
97
467
115
335
264
729
394
180
344
234
599
331
102
27
86
37
462
127
600
642
777
99
79
30
210
528
531
134
360
213
43
212
532
73
290
128
262
59
791
649
223
230
668
401
201
29
618
33
485
621
674
297
67
692
412
543
93
48
747
667
475
392
50
437
751
36
175
56
368
53
375
681
499
346
354
287
503
141
759
678
361
451
199
660
31
112
772
561
75
117
364
400
96
47
323
64
294
121
20
745
683
181
94
425
84
9
334
453
555
784
250
203
644
160
204
694
71
120
45
164
42
32
74
637
123
652
562
57
776
17
576
46
80
766
209
559
4
28
119
351
780
273
77

>  <PUBCHEM_MMFF94_PARTIAL_CHARGES>  (1) 
19
1 -0.43
11 0.27
13 0.27
14 0.28
15 0.63
16 0.09
17 -0.15
18 -0.15
19 -0.15
2 -0.57
20 -0.15
21 -0.15
3 -0.9
37 0.36
42 0.15
43 0.15
44 0.15
45 0.15
46 0.15

>  <PUBCHEM_EFFECTIVE_ROTOR_COUNT>  (1) 
8

>  <PUBCHEM_PHARMACOPHORE_FEATURES>  (1) 
5
1 2 acceptor
1 3 cation
1 3 donor
6 16 17 18 19 20 21 rings
7 4 5 6 7 8 9 10 rings

>  <PUBCHEM_HEAVY_ATOM_COUNT>  (1) 
21

>  <PUBCHEM_ATOM_DEF_STEREO_COUNT>  (1) 
0

>  <PUBCHEM_ATOM_UDEF_STEREO_COUNT>  (1) 
4

>  <PUBCHEM_BOND_DEF_STEREO_COUNT>  (1) 
0

>  <PUBCHEM_BOND_UDEF_STEREO_COUNT>  (1) 
0

>  <PUBCHEM_ISOTOPIC_ATOM_COUNT>  (1) 
0

>  <PUBCHEM_COMPONENT_COUNT>  (1) 
1

>  <PUBCHEM_CACTVS_TAUTO_COUNT>  (1) 
1

>  <PUBCHEM_CONFORMER_ID>  (1) 
0000923D0000000A

>  <PUBCHEM_MMFF94_ENERGY>  (1) 
57.6964

>  <PUBCHEM_FEATURE_SELFOVERLAP>  (1) 
25.371

>  <PUBCHEM_SHAPE_FINGERPRINT>  (1) 
10 15 11097863990498576682
10087517 78 12396287158870795287
10299344 5 18059861674935118723
10670039 82 17968093092991232940
10968037 39 17967812761150724651
11315181 36 17274822476363714475
11315621 246 18338510945649393631
11524674 6 15841553002981024143
117890 112 12612748012777269934
12091667 2 18334297565393398739
12166972 35 18411704317528665376
12516196 113 12973603339314281151
12616971 3 13830128438360373915
12730499 353 18113624482572587834
13073987 5 11458693985766823373
13403585 85 10665224856561339783
13631057 29 15647627782293448809
13668630 136 16988849388624796182
14251752 14 18412261714383979502
14251764 18 9583513231312077033
14528608 73 18186236242912347378
14933364 13 18333735706082284060
15021287 119 14189569745636153897
15183329 4 17988928864101909042
15348495 7 10159685902762927982
15475509 35 13541914426888576982
17093844 174 12967130484945587355
17780758 139 9799691502663252739
17844677 252 18272652359166040161
17857418 61 12751519569968071997
18927931 339 16486977302200627985
20281389 69 14996280331781872086
21130935 74 10087640395058909444
21150785 3 17603305985518519059
21267235 1 18409168848969278075
21315763 178 13686296850985469876
21623969 137 15698287724117984310
220451 1 18344148085603267883
22061861 79 17775566437866297726
221357 26 18410573981511176768
22224240 67 11097859627334368280
2297311 6 18342738529456362505
2303208 19 17775000219321600819
23035841 295 18059858367947392539
23081809 10 17822003190399883754
23198884 109 18187366528012538715
23522609 53 17772782513196390344
23559900 14 18129936892320495193
2767999 5 15357696405302091798
300161 21 14851599990323589681
3004659 81 17846781823852392978
328310 630 16878237419000239517
3663271 9 9439401328801780980
4073 2 17676777547483949106
4325135 7 18334576853947016775
465052 167 17132119052680781444
531348 171 18343016645594710815
53794403 172 16879647092388031508
542803 24 17822007601315426761
543368 44 17458343048645427677
559249 180 12463569574183182229

>  <PUBCHEM_SHAPE_MULTIPOLES>  (1) 
415.45
21.22
1.68
1.15
12.22
0.41
0
-0.03
-6.64
-1.35
-0.27
-0.03
-0.06
0.04

>  <PUBCHEM_SHAPE_SELFOVERLAP>  (1) 
877.164

>  <PUBCHEM_SHAPE_VOLUME>  (1) 
238.1

>  <PUBCHEM_COORDINATE_TYPE>  (1) 
2
5
10

$$$$
