37447
     RDKit          3D

 17 18  0  0  0  0  0  0  0  0999 V2000
    1.3548   -0.9464   -0.8661 O   0  0  0  0  0  0  0  0  0  0  0  0
   -1.9612    0.5493   -0.9353 O   0  0  0  0  0  0  0  0  0  0  0  0
    4.7785    2.2343    0.1085 O   0  0  0  0  0  0  0  0  0  0  0  0
    0.3938    0.1002   -0.9336 C   0  0  0  0  0  0  0  0  0  0  0  0
   -0.9975   -0.5018   -0.8883 C   0  0  0  0  0  0  0  0  0  0  0  0
    2.5622   -0.6397   -0.2959 C   0  0  0  0  0  0  0  0  0  0  0  0
   -3.1553    0.3226   -0.3228 C   0  0  0  0  0  0  0  0  0  0  0  0
    3.0570    0.6565   -0.3861 C   0  0  0  0  0  0  0  0  0  0  0  0
    3.2806   -1.6280    0.3674 C   0  0  0  0  0  0  0  0  0  0  0  0
    4.2864    0.9683    0.1945 C   0  0  0  0  0  0  0  0  0  0  0  0
   -3.6638   -0.9740   -0.2441 C   0  0  0  0  0  0  0  0  0  0  0  0
   -3.8710    1.3868    0.2256 C   0  0  0  0  0  0  0  0  0  0  0  0
    4.5100   -1.3162    0.9481 C   0  0  0  0  0  0  0  0  0  0  0  0
    5.0128   -0.0181    0.8616 C   0  0  0  0  0  0  0  0  0  0  0  0
   -4.8881   -1.2063    0.3827 C   0  0  0  0  0  0  0  0  0  0  0  0
   -5.0952    1.1545    0.8526 C   0  0  0  0  0  0  0  0  0  0  0  0
   -5.6037   -0.1420    0.9311 C   0  0  0  0  0  0  0  0  0  0  0  0
  1  4  1  0
  1  6  1  0
  2  5  1  0
  2  7  1  0
  3 10  1  0
  4  5  1  0
  6  8  2  0
  6  9  1  0
  7 11  2  0
  7 12  1  0
  8 10  1  0
  9 13  2  0
 10 14  2  0
 11 15  1  0
 12 16  2  0
 13 14  1  0
 15 17  2  0
 16 17  1  0
M  END
>  <PUBCHEM_COMPOUND_CID>  (1) 
37447

>  <PUBCHEM_CONFORMER_RMSD>  (1) 
0.6

>  <PUBCHEM_CONFORMER_DIVERSEORDER>  (1) 
8
75
163
12
171
158
172
82
15
105
48
190
9
78
174
147
91
39
33
143
168
6
106
93
145
102
63
84
144
11
89
157
187
140
28
86
1
167
50
98
13
166
47
18
173
175
185
10
183
53
141
108
77
101
119
26
17
14
191
58
87
61
116
90
132
153
68
186
88
118
114
127
142
112
56
16
189
170
107
165
178
117
110
45
65
124
69
97
164
31
148
159
122
5
123
64
169
131
109
134
181
151
179
135
99
3
125
42
138
2
29
19
161
81
121
182
130
21
180
62
176
128
149
51
73
150
49
152
103
177
44
115
7
83
139
162
4
113
137
120
154
43
100
184
72
95
35
71
20
57
66
85
60
94
111
126
27
23
59
55
155
79
30
104
70
36
67
129
76
38
156
40
46
133
92
160
188
74
22
41
136
32
34
96
25
80
52
37
54
146
24

>  <PUBCHEM_MMFF94_PARTIAL_CHARGES>  (1) 
27
1 -0.36
10 0.08
11 -0.15
12 -0.15
13 -0.15
14 -0.15
15 -0.15
16 -0.15
17 -0.15
2 -0.36
22 0.15
23 0.15
24 0.15
25 0.15
26 0.15
27 0.15
28 0.15
29 0.15
3 -0.53
30 0.15
31 0.45
4 0.28
5 0.28
6 0.08
7 0.08
8 -0.15
9 -0.15

>  <PUBCHEM_EFFECTIVE_ROTOR_COUNT>  (1) 
5

>  <PUBCHEM_PHARMACOPHORE_FEATURES>  (1) 
5
1 1 acceptor
1 2 acceptor
1 3 donor
6 6 8 9 10 13 14 rings
6 7 11 12 15 16 17 rings

>  <PUBCHEM_HEAVY_ATOM_COUNT>  (1) 
17

>  <PUBCHEM_ATOM_DEF_STEREO_COUNT>  (1) 
0

>  <PUBCHEM_ATOM_UDEF_STEREO_COUNT>  (1) 
0

>  <PUBCHEM_BOND_DEF_STEREO_COUNT>  (1) 
0

>  <PUBCHEM_BOND_UDEF_STEREO_COUNT>  (1) 
0

>  <PUBCHEM_ISOTOPIC_ATOM_COUNT>  (1) 
0

>  <PUBCHEM_COMPONENT_COUNT>  (1) 
1

>  <PUBCHEM_CACTVS_TAUTO_COUNT>  (1) 
3

>  <PUBCHEM_CONFORMER_ID>  (1) 
0000924700000008

>  <PUBCHEM_MMFF94_ENERGY>  (1) 
57.8953

>  <PUBCHEM_FEATURE_SELFOVERLAP>  (1) 
25.371

>  <PUBCHEM_SHAPE_FINGERPRINT>  (1) 
10354089 29 18412825789945938392
10378564 45 11527678444499058546
10670039 82 16486429719408499552
10912923 1 18272643571530797887
12107183 9 17689715264273103451
12596602 18 18335140895138519265
12616971 3 18201710756771808110
13167823 11 18334855004635137219
13668630 136 13118002171630962936
13675066 3 17822290150097317143
1420 369 16515406252846144571
14252887 29 17385438809073702814
14341114 176 18409172103536545592
14341114 328 18343304772990167451
14573314 32 10735875075562363339
14576447 43 7925631133572441774
146900 427 18339359772878695168
14848160 23 17095237034211485987
14849402 71 18335418032869004872
15188451 53 17603867840814442931
15348495 7 18334014999368375177
15475509 35 16443887386084969560
15880784 105 18260551117089600091
17844677 252 18341057315246071465
17870717 6 11818996262634801617
1798214 20 11458424635123982852
1813 80 16588029000029019415
18222031 100 15285359513741238862
19050596 39 18410011026687359679
193927 3 15357987724180399087
200 152 11963387449134671295
20369508 70 12973608850316309542
20432913 95 17240485784283887387
21065198 48 18411417319291947303
21065199 12 18261671480524992101
22289505 5 11600003258929133786
22646028 1 15213021539842780431
23402655 69 10592040276079221678
23559900 14 17843421604090039823
312425 54 17822295643655992089
314173 85 16153707609338113701
32948 21 8790891769773963551
351380 3 14273460266590003153
42 15 18113618958521730927
49783359 22 17894629249451201971
5104073 3 18407761421765344019
542803 24 18060138747258848335
5924683 9 18340766044288268047
59682541 52 10159708945405201177
960060 61 9655575227654579594

>  <PUBCHEM_SHAPE_MULTIPOLES>  (1) 
332.24
14.95
1.63
1.02
3.98
0.29
-0.01
1.45
-5.64
-1.01
-0.21
0.11
-0.07
-0.48

>  <PUBCHEM_SHAPE_SELFOVERLAP>  (1) 
703.171

>  <PUBCHEM_SHAPE_VOLUME>  (1) 
186.3

>  <PUBCHEM_COORDINATE_TYPE>  (1) 
2
5
10

$$$$
