37456
     RDKit          3D

 21 26  0  0  1  0  0  0  0  0999 V2000
   -3.7670    2.0332   -0.3969 O   0  0  0  0  0  0  0  0  0  0  0  0
   -3.0361    1.2133    0.4569 C   0  0  0  0  0  0  0  0  0  0  0  0
   -4.0916    0.7117   -0.7628 C   0  0  0  0  0  0  0  0  0  0  0  0
   -1.8538    0.2864    0.2554 C   0  0  0  0  0  0  0  0  0  0  0  0
   -0.5053    0.6861    0.1849 C   0  0  0  0  0  0  0  0  0  0  0  0
   -2.1851   -1.1034    0.2012 C   0  0  0  0  0  0  0  0  0  0  0  0
   -4.5375   -0.5707   -0.1681 C   0  0  0  0  0  0  0  0  0  0  0  0
    0.5027   -0.3053    0.0733 C   0  0  0  0  0  0  0  0  0  0  0  0
   -3.6267   -1.4791    0.2482 C   0  0  0  0  0  0  0  0  0  0  0  0
    0.1589   -1.6813    0.0396 C   0  0  0  0  0  0  0  0  0  0  0  0
    1.8678    0.0763    0.0018 C   0  0  0  0  0  0  0  0  0  0  0  0
   -1.1857   -2.0686    0.1097 C   0  0  0  0  0  0  0  0  0  0  0  0
   -0.1220    2.0372    0.2274 C   0  0  0  0  0  0  0  0  0  0  0  0
    2.2261    1.4438    0.0413 C   0  0  0  0  0  0  0  0  0  0  0  0
    2.8772   -0.9096   -0.1073 C   0  0  0  0  0  0  0  0  0  0  0  0
    1.1736   -2.6409   -0.0668 C   0  0  0  0  0  0  0  0  0  0  0  0
    1.2210    2.4101    0.1548 C   0  0  0  0  0  0  0  0  0  0  0  0
    2.5140   -2.2611   -0.1404 C   0  0  0  0  0  0  0  0  0  0  0  0
    3.5790    1.8063   -0.0318 C   0  0  0  0  0  0  0  0  0  0  0  0
    4.2215   -0.5165   -0.1787 C   0  0  0  0  0  0  0  0  0  0  0  0
    4.5688    0.8321   -0.1416 C   0  0  0  0  0  0  0  0  0  0  0  0
  1  2  1  0
  1  3  1  0
  2  3  1  0
  2  4  1  0
  3  7  1  0
  4  5  1  0
  4  6  2  0
  5  8  2  0
  5 13  1  0
  6  9  1  0
  6 12  1  0
  7  9  2  0
  8 10  1  0
  8 11  1  0
 10 12  2  0
 10 16  1  0
 11 14  2  0
 11 15  1  0
 13 17  2  0
 14 17  1  0
 14 19  1  0
 15 18  1  0
 15 20  2  0
 16 18  2  0
 19 21  2  0
 20 21  1  0
M  END
>  <PUBCHEM_COMPOUND_CID>  (1) 
37456

>  <PUBCHEM_CONFORMER_RMSD>  (1) 
0.6

>  <PUBCHEM_CONFORMER_DIVERSEORDER>  (1) 
1

>  <PUBCHEM_MMFF94_PARTIAL_CHARGES>  (1) 
27
1 -0.3
12 -0.15
13 -0.15
16 -0.15
17 -0.15
18 -0.15
19 -0.15
2 0.08
20 -0.15
21 -0.15
22 0.1
23 0.1
24 0.15
25 0.15
26 0.15
27 0.15
28 0.15
29 0.15
3 0.09
30 0.15
31 0.15
32 0.15
33 0.15
4 -0.03
6 0.03
7 -0.19
9 -0.18

>  <PUBCHEM_EFFECTIVE_ROTOR_COUNT>  (1) 
0.2

>  <PUBCHEM_PHARMACOPHORE_FEATURES>  (1) 
6
1 1 acceptor
6 11 14 15 19 20 21 rings
6 4 5 6 8 10 12 rings
6 5 8 11 13 14 17 rings
6 8 10 11 15 16 18 rings
7 1 2 3 4 6 7 9 rings

>  <PUBCHEM_HEAVY_ATOM_COUNT>  (1) 
21

>  <PUBCHEM_ATOM_DEF_STEREO_COUNT>  (1) 
0

>  <PUBCHEM_ATOM_UDEF_STEREO_COUNT>  (1) 
2

>  <PUBCHEM_BOND_DEF_STEREO_COUNT>  (1) 
0

>  <PUBCHEM_BOND_UDEF_STEREO_COUNT>  (1) 
0

>  <PUBCHEM_ISOTOPIC_ATOM_COUNT>  (1) 
0

>  <PUBCHEM_COMPONENT_COUNT>  (1) 
1

>  <PUBCHEM_CACTVS_TAUTO_COUNT>  (1) 
1

>  <PUBCHEM_CONFORMER_ID>  (1) 
0000925000000001

>  <PUBCHEM_MMFF94_ENERGY>  (1) 
104.711

>  <PUBCHEM_FEATURE_SELFOVERLAP>  (1) 
30.588

>  <PUBCHEM_SHAPE_FINGERPRINT>  (1) 
10411042 1 16969422912559745115
10608611 8 18408885135623529063
10616163 171 18411421747498285319
10863032 1 18411138021731617834
10930396 42 13957587437945742176
10967382 1 18411420613690021314
11112241 14 16412646059560575152
11370993 70 18410006675837872904
11471102 20 18411417319434235598
11578080 2 16952237725509388030
116883 192 17910396091437413814
12011746 2 18411421717633708270
12236239 1 17632300077563192555
12403259 226 18195523912295700473
12553582 1 17834968472648859531
13132413 78 18412546517612315061
13140716 1 18265905648591303091
138480 1 17978510836810408906
13862211 1 18411696578471961778
14790565 3 18337398265768185548
15196674 1 18410857655120278610
15230672 131 17190928871899226000
15442244 35 18268149742959099059
15536298 74 18343022185701420462
1601671 61 18409167701622341652
16945 1 18195535796137808178
17349148 13 18411690002349101851
17492 89 18411700972050062439
18186145 218 18271255953443824561
19591789 44 18339080492229196482
200 152 18060698416421621437
20645477 70 18343585118279976038
20715895 44 17901656082151443773
20905425 154 18269276759815823620
21267235 1 18411710888891515922
21279426 13 18339082567099158670
21421861 104 17825102602209882050
221357 26 18413102866865608213
221490 88 18409456881491137843
22182313 1 18339943578781998462
22393880 68 18412827966861335718
23227448 37 18341611585181780063
2334 1 18339646766698087202
23402539 116 18342731927901633654
23559900 14 18268989791840165962
238 59 17684889615403322549
25 1 18408036299466663071
2748010 2 18339370776415829418
335352 9 18266459806688484726
34934 24 18411412895665451890
350125 39 18410580617314354769
3680242 22 18191022300758069242
4280585 95 17696201300957725918
474 4 17822296824608363694
5104073 3 18409730642574216731
543358 83 18267869380305051992
59755656 215 18335982047557032151
6138700 20 18338238164050440894
7364860 26 18413108346642698802
9709674 26 18410862070199498543

>  <PUBCHEM_SHAPE_MULTIPOLES>  (1) 
426.3
8.21
2.81
0.68
1.88
0.31
-0.01
-1.32
-0.94
-0.62
0.03
0.17
-0.04
0.29

>  <PUBCHEM_SHAPE_SELFOVERLAP>  (1) 
1003.235

>  <PUBCHEM_SHAPE_VOLUME>  (1) 
216.1

>  <PUBCHEM_COORDINATE_TYPE>  (1) 
2
5
10

$$$$
