37450
     RDKit          3D

 17 16  0  0  0  0  0  0  0  0999 V2000
   -6.2673    0.1546   -0.0094 N   0  0  0  0  0  0  0  0  0  0  0  0
    6.2744    0.1439   -0.0145 N   0  0  0  0  0  0  0  0  0  0  0  0
   -5.0796   -0.7300   -0.0807 C   0  0  0  0  0  0  0  0  0  0  0  0
    5.0687   -0.7175   -0.0661 C   0  0  0  0  0  0  0  0  0  0  0  0
   -3.8197    0.1205   -0.0132 C   0  0  0  0  0  0  0  0  0  0  0  0
    3.8258    0.1585    0.0100 C   0  0  0  0  0  0  0  0  0  0  0  0
   -2.5646   -0.7547   -0.0370 C   0  0  0  0  0  0  0  0  0  0  0  0
    2.5559   -0.6951    0.0071 C   0  0  0  0  0  0  0  0  0  0  0  0
   -1.2953    0.0942    0.0660 C   0  0  0  0  0  0  0  0  0  0  0  0
    1.2642    0.1284    0.0494 C   0  0  0  0  0  0  0  0  0  0  0  0
   -0.0037   -0.7294    0.0243 C   0  0  0  0  0  0  0  0  0  0  0  0
   -6.2924    0.9302    1.3156 C   0  0  0  0  0  0  0  0  0  0  0  0
   -6.2590    1.1741   -1.1575 C   0  0  0  0  0  0  0  0  0  0  0  0
   -7.5638   -0.6620   -0.1073 C   0  0  0  0  0  0  0  0  0  0  0  0
    7.5533   -0.6989   -0.1218 C   0  0  0  0  0  0  0  0  0  0  0  0
    6.3299    0.9275    1.3046 C   0  0  0  0  0  0  0  0  0  0  0  0
    6.2731    1.1556   -1.1695 C   0  0  0  0  0  0  0  0  0  0  0  0
  1  3  1  0
  1 12  1  0
  1 13  1  0
  1 14  1  0
  2  4  1  0
  2 15  1  0
  2 16  1  0
  2 17  1  0
  3  5  1  0
  4  6  1  0
  5  7  1  0
  6  8  1  0
  7  9  1  0
  8 10  1  0
  9 11  1  0
 10 11  1  0
M  CHG  2   1   1   2   1
M  END
>  <PUBCHEM_COMPOUND_CID>  (1) 
37450

>  <PUBCHEM_CONFORMER_RMSD>  (1) 
0.8

>  <PUBCHEM_CONFORMER_DIVERSEORDER>  (1) 
1
45
10
12
40
46
5
33
13
43
20
22
23
19
35
30
8
7
4
15
38
6
26
36
28
9
16
21
31
11
44
2
37
25
34
18
32
29
17
3
27
39
24
42
41
14

>  <PUBCHEM_MMFF94_PARTIAL_CHARGES>  (1) 
10
1 -1.01
12 0.5
13 0.5
14 0.5
15 0.5
16 0.5
17 0.5
2 -1.01
3 0.5
4 0.5

>  <PUBCHEM_EFFECTIVE_ROTOR_COUNT>  (1) 
10

>  <PUBCHEM_PHARMACOPHORE_FEATURES>  (1) 
2
1 1 cation
1 2 cation

>  <PUBCHEM_HEAVY_ATOM_COUNT>  (1) 
17

>  <PUBCHEM_ATOM_DEF_STEREO_COUNT>  (1) 
0

>  <PUBCHEM_ATOM_UDEF_STEREO_COUNT>  (1) 
0

>  <PUBCHEM_BOND_DEF_STEREO_COUNT>  (1) 
0

>  <PUBCHEM_BOND_UDEF_STEREO_COUNT>  (1) 
0

>  <PUBCHEM_ISOTOPIC_ATOM_COUNT>  (1) 
0

>  <PUBCHEM_COMPONENT_COUNT>  (1) 
1

>  <PUBCHEM_CACTVS_TAUTO_COUNT>  (1) 
1

>  <PUBCHEM_CONFORMER_ID>  (1) 
0000924A00000001

>  <PUBCHEM_MMFF94_ENERGY>  (1) 
44.8012

>  <PUBCHEM_FEATURE_SELFOVERLAP>  (1) 
10.149

>  <PUBCHEM_SHAPE_FINGERPRINT>  (1) 
10066227 49 14189309114579122116
10968037 39 18342738516492202791
11315181 36 18343022203820046329
12091667 2 17676488346314350099
125118 31 17458345234520499268
13533116 47 18336542712688468914
14123256 10 16917350333276527759
1420 363 9223230762516633480
14251764 18 18411419523021516199
14251764 46 12468355756556249987
14729087 3 18187358810146374357
14933364 13 17967533471399731844
15183329 4 18410857654999206361
15716309 27 7853856083567775619
17093844 174 13767924625161130597
17834076 25 18411700988880856015
18006028 8 16271927112225245697
20281389 69 18410008832054185752
20621476 8 18261110751476065502
21130983 4 18259707808882515716
21150785 3 16200430277955337527
21315763 28 18113336414050586901
220451 1 18411979161033413039
22224240 67 16081087099474621515
23521765 1 18341894095129219759
23559900 14 17274248565200274827
28498 318 18411700951212860526
33532 11 12324231759798259576
33684 2 18272088292847844399
4463277 17 18113336409755704077
57583515 80 17704073993005688571
59755656 520 18408598184501044303
8209 1 18413107264263357038

>  <PUBCHEM_SHAPE_MULTIPOLES>  (1) 
339.89
26.59
1.1
0.98
0.26
0.14
0.08
3.4
-0.29
-0.01
-0.07
0.01
0.38
0

>  <PUBCHEM_SHAPE_SELFOVERLAP>  (1) 
612.961

>  <PUBCHEM_SHAPE_VOLUME>  (1) 
223

>  <PUBCHEM_COORDINATE_TYPE>  (1) 
2
5
10

$$$$
