37454
     RDKit          3D

 19 20  0  0  0  0  0  0  0  0999 V2000
   -2.7693   -2.7412   -0.0020 Br  0  0  0  0  0  0  0  0  0  0  0  0
    1.0056   -0.8723    2.8717 Br  0  0  0  0  0  0  0  0  0  0  0  0
    1.0034   -0.8656   -2.8730 Br  0  0  0  0  0  0  0  0  0  0  0  0
   -5.3102   -0.4195   -0.0010 Br  0  0  0  0  0  0  0  0  0  0  0  0
   -1.4678    3.7162    0.0027 Br  0  0  0  0  0  0  0  0  0  0  0  0
    5.5260    0.9978    0.0008 Br  0  0  0  0  0  0  0  0  0  0  0  0
   -0.0632   -1.3065   -0.0007 O   0  0  0  0  0  0  0  0  0  0  0  0
   -1.1076   -0.4293    0.0001 C   0  0  0  0  0  0  0  0  0  0  0  0
    1.2161   -0.7797   -0.0007 C   0  0  0  0  0  0  0  0  0  0  0  0
   -2.4334   -0.8629    0.0001 C   0  0  0  0  0  0  0  0  0  0  0  0
   -0.8200    0.9356    0.0010 C   0  0  0  0  0  0  0  0  0  0  0  0
    1.8447   -0.5219    1.2073 C   0  0  0  0  0  0  0  0  0  0  0  0
    1.8438   -0.5194   -1.2087 C   0  0  0  0  0  0  0  0  0  0  0  0
   -3.4717    0.0686    0.0007 C   0  0  0  0  0  0  0  0  0  0  0  0
   -1.8583    1.8669    0.0015 C   0  0  0  0  0  0  0  0  0  0  0  0
    3.1343    0.0099    1.2074 C   0  0  0  0  0  0  0  0  0  0  0  0
    3.1333    0.0127   -1.2084 C   0  0  0  0  0  0  0  0  0  0  0  0
   -3.1841    1.4335    0.0015 C   0  0  0  0  0  0  0  0  0  0  0  0
    3.7785    0.2772   -0.0003 C   0  0  0  0  0  0  0  0  0  0  0  0
  1 10  1  0
  2 12  1  0
  3 13  1  0
  4 14  1  0
  5 15  1  0
  6 19  1  0
  7  8  1  0
  7  9  1  0
  8 10  2  0
  8 11  1  0
  9 12  2  0
  9 13  1  0
 10 14  1  0
 11 15  2  0
 12 16  1  0
 13 17  2  0
 14 18  2  0
 15 18  1  0
 16 19  2  0
 17 19  1  0
M  END
>  <PUBCHEM_COMPOUND_CID>  (1) 
37454

>  <PUBCHEM_CONFORMER_RMSD>  (1) 
0.6

>  <PUBCHEM_CONFORMER_DIVERSEORDER>  (1) 
1
4
5
2
3

>  <PUBCHEM_MMFF94_PARTIAL_CHARGES>  (1) 
23
1 -0.11
10 0.11
11 -0.15
12 0.11
13 0.11
14 0.11
15 0.11
16 -0.15
17 -0.15
18 -0.15
19 0.11
2 -0.11
20 0.15
21 0.15
22 0.15
23 0.15
3 -0.11
4 -0.11
5 -0.11
6 -0.11
7 -0.17
8 0.08
9 0.08

>  <PUBCHEM_EFFECTIVE_ROTOR_COUNT>  (1) 
2

>  <PUBCHEM_PHARMACOPHORE_FEATURES>  (1) 
9
1 1 hydrophobe
1 2 hydrophobe
1 3 hydrophobe
1 4 hydrophobe
1 5 hydrophobe
1 6 hydrophobe
1 7 acceptor
6 8 10 11 14 15 18 rings
6 9 12 13 16 17 19 rings

>  <PUBCHEM_HEAVY_ATOM_COUNT>  (1) 
19

>  <PUBCHEM_ATOM_DEF_STEREO_COUNT>  (1) 
0

>  <PUBCHEM_ATOM_UDEF_STEREO_COUNT>  (1) 
0

>  <PUBCHEM_BOND_DEF_STEREO_COUNT>  (1) 
0

>  <PUBCHEM_BOND_UDEF_STEREO_COUNT>  (1) 
0

>  <PUBCHEM_ISOTOPIC_ATOM_COUNT>  (1) 
0

>  <PUBCHEM_COMPONENT_COUNT>  (1) 
1

>  <PUBCHEM_CACTVS_TAUTO_COUNT>  (1) 
1

>  <PUBCHEM_CONFORMER_ID>  (1) 
0000924E00000001

>  <PUBCHEM_MMFF94_ENERGY>  (1) 
58.6736

>  <PUBCHEM_FEATURE_SELFOVERLAP>  (1) 
45.676

>  <PUBCHEM_SHAPE_FINGERPRINT>  (1) 
10165383 225 17203332234077451604
10366900 7 17346593080360018835
10498660 4 18338797797693121269
10764073 3 15394254797648660570
11640471 11 17677339298756229453
12173636 292 18194683657810760565
12236239 1 17748823029323568658
12553582 1 18337944680202473003
12788726 201 18335133160097961625
13140716 1 18266181819552064601
13538477 17 18114178644516466915
13583140 156 17987775485506205026
13965767 371 17247524668536040612
14341114 328 18260546762209279696
14739800 52 18264472036486249112
14787075 74 17824262824328862272
16945 1 18410856542787006983
18219364 16 16702015417720227302
192875 21 16588030120941864244
200 152 16515398582161095895
20344682 1 17846218877349972548
20510252 161 18270119003113968601
20511986 3 17604410956355521157
20600515 1 18340771537302883025
20645477 70 14996273704584291186
20715895 44 17173750771992818341
23114952 82 17487630619283155764
23402539 116 18339357577844386942
23419403 2 17766858481957707666
23526113 38 17632303319657359206
23557571 272 18272658934644613893
23559900 14 18270686355018497902
23598291 2 17315639491243619083
238 59 16341992292335984332
25 1 16415760816998362550
2748010 2 15121800700148586882
3472631 163 18408886204902269733
34934 24 18334009502058370139
350125 39 17978517425437368931
3524813 1 17632854243796855664
4340502 62 16443072682027747547
474 4 17240207655334633052
7097593 13 17175162514166430507
77492 1 17676205783872429346
7808743 9 18268149751597364136
81228 2 18270701774441440681
9925002 15 16838522174362890324

>  <PUBCHEM_SHAPE_MULTIPOLES>  (1) 
420.8
8.81
2.64
1.98
2.08
2.34
0
0.78
0
-2.83
0
1.76
-1.03
0

>  <PUBCHEM_SHAPE_SELFOVERLAP>  (1) 
818.641

>  <PUBCHEM_SHAPE_VOLUME>  (1) 
267.7

>  <PUBCHEM_COORDINATE_TYPE>  (1) 
2
5
10

$$$$
