37458
     RDKit          3D

 21 26  0  0  1  0  0  0  0  0999 V2000
   -3.8114    2.0295   -0.3953 O   0  0  0  0  0  0  0  0  0  0  0  0
   -3.0198    1.1956    0.4193 C   0  0  0  0  0  0  0  0  0  0  0  0
   -4.0123    0.6862   -0.7176 C   0  0  0  0  0  0  0  0  0  0  0  0
   -1.8506    0.2722    0.2270 C   0  0  0  0  0  0  0  0  0  0  0  0
   -4.7120   -0.4301   -0.0465 C   0  0  0  0  0  0  0  0  0  0  0  0
   -3.6537   -1.5637    0.1762 C   0  0  0  0  0  0  0  0  0  0  0  0
   -2.1799   -1.1160    0.1802 C   0  0  0  0  0  0  0  0  0  0  0  0
   -0.5009    0.6767    0.1659 C   0  0  0  0  0  0  0  0  0  0  0  0
    0.5133   -0.3087    0.0648 C   0  0  0  0  0  0  0  0  0  0  0  0
   -1.1679   -2.0737    0.0903 C   0  0  0  0  0  0  0  0  0  0  0  0
    0.1760   -1.6844    0.0306 C   0  0  0  0  0  0  0  0  0  0  0  0
    1.8777    0.0781    0.0030 C   0  0  0  0  0  0  0  0  0  0  0  0
   -0.1224    2.0296    0.2080 C   0  0  0  0  0  0  0  0  0  0  0  0
    2.2298    1.4470    0.0424 C   0  0  0  0  0  0  0  0  0  0  0  0
    2.8920   -0.9038   -0.0964 C   0  0  0  0  0  0  0  0  0  0  0  0
    1.1947   -2.6410   -0.0674 C   0  0  0  0  0  0  0  0  0  0  0  0
    1.2196    2.4087    0.1456 C   0  0  0  0  0  0  0  0  0  0  0  0
    2.5342   -2.2566   -0.1308 C   0  0  0  0  0  0  0  0  0  0  0  0
    3.5818    1.8151   -0.0207 C   0  0  0  0  0  0  0  0  0  0  0  0
    4.2353   -0.5054   -0.1577 C   0  0  0  0  0  0  0  0  0  0  0  0
    4.5766    0.8448   -0.1206 C   0  0  0  0  0  0  0  0  0  0  0  0
  1  2  1  0
  1  3  1  0
  2  3  1  0
  2  4  1  0
  3  5  1  0
  4  7  2  0
  4  8  1  0
  5  6  1  0
  6  7  1  0
  7 10  1  0
  8  9  2  0
  8 13  1  0
  9 11  1  0
  9 12  1  0
 10 11  2  0
 11 16  1  0
 12 14  2  0
 12 15  1  0
 13 17  2  0
 14 17  1  0
 14 19  1  0
 15 18  1  0
 15 20  2  0
 16 18  2  0
 19 21  2  0
 20 21  1  0
M  END
>  <PUBCHEM_COMPOUND_CID>  (1) 
37458

>  <PUBCHEM_CONFORMER_RMSD>  (1) 
0.6

>  <PUBCHEM_CONFORMER_DIVERSEORDER>  (1) 
1

>  <PUBCHEM_MMFF94_PARTIAL_CHARGES>  (1) 
25
1 -0.3
10 -0.15
13 -0.15
16 -0.15
17 -0.15
18 -0.15
19 -0.15
2 0.08
20 -0.15
21 -0.15
22 0.1
23 0.1
28 0.15
29 0.15
3 -0.05
30 0.15
31 0.15
32 0.15
33 0.15
34 0.15
35 0.15
4 -0.03
5 0.09
6 0.14
7 -0.14

>  <PUBCHEM_EFFECTIVE_ROTOR_COUNT>  (1) 
0.6

>  <PUBCHEM_PHARMACOPHORE_FEATURES>  (1) 
6
1 1 acceptor
6 12 14 15 19 20 21 rings
6 4 7 8 9 10 11 rings
6 8 9 12 13 14 17 rings
6 9 11 12 15 16 18 rings
7 1 2 3 4 5 6 7 rings

>  <PUBCHEM_HEAVY_ATOM_COUNT>  (1) 
21

>  <PUBCHEM_ATOM_DEF_STEREO_COUNT>  (1) 
0

>  <PUBCHEM_ATOM_UDEF_STEREO_COUNT>  (1) 
2

>  <PUBCHEM_BOND_DEF_STEREO_COUNT>  (1) 
0

>  <PUBCHEM_BOND_UDEF_STEREO_COUNT>  (1) 
0

>  <PUBCHEM_ISOTOPIC_ATOM_COUNT>  (1) 
0

>  <PUBCHEM_COMPONENT_COUNT>  (1) 
1

>  <PUBCHEM_CACTVS_TAUTO_COUNT>  (1) 
1

>  <PUBCHEM_CONFORMER_ID>  (1) 
0000925200000001

>  <PUBCHEM_MMFF94_ENERGY>  (1) 
106.5138

>  <PUBCHEM_FEATURE_SELFOVERLAP>  (1) 
30.588

>  <PUBCHEM_SHAPE_FINGERPRINT>  (1) 
10411042 1 17041480515129617827
10608611 8 18408884036117169551
10616163 171 18411420656576637631
10863032 1 18411419501008596530
10930396 42 13885529843886721720
10967382 1 18411139121528114746
11112241 14 16412927534532004568
11370993 70 18410288146524891024
11471102 20 18411135835867564366
11578080 2 16952237725530480550
116883 192 17982454789313591830
12011746 2 18411422808587049974
12236239 1 17704356563494263873
12403259 226 18267301130884382769
12838862 33 18339905104834083072
13132413 78 18412265042635604421
13140716 1 18265904553353569571
138480 1 18050568443801745546
13862211 1 18411415094863105530
14790565 3 18337398265757636044
15196674 1 18410856555571753554
15442244 35 18268149747243503867
15536298 74 18343022185685570230
1601671 61 18409449180888744828
16945 1 18267593403192545770
17349148 13 18411689998064677561
17492 89 18411700976323943727
18186145 218 18271254853932196769
19591789 44 18339080496487253514
200 152 18060698416437426197
20645477 70 18343585114006075270
20715895 44 17901937557122879653
20905425 154 18269276755531418820
21267235 1 18411710884591267370
21279426 13 18339082567083327926
21421861 104 17825102606515392346
221357 26 18412821387583400245
221490 88 18409455786306125875
22182313 1 18339943578782004982
22393880 68 18412827966882441222
23227448 37 18341612680445906799
2334 1 18339365291705565290
23402539 116 18343013407183887102
23559900 14 18269271266811601858
238 59 17757227597733219477
25 1 18408317774422235743
2748010 2 18339370776431660154
335352 9 18338517413700978846
34934 24 18411412895654915346
350125 39 18410580625883164353
3680242 22 18263079907797099506
4214541 1 18410012130694537997
4280585 95 17696201305263242726
495365 180 17489015072263847376
5104073 3 18409730638289805435
543358 83 18268151959098907232
59755656 215 18408039637273606031
6138700 20 18337956693368684550
7364860 26 18413108346621554330
9709674 26 18410580595238618639

>  <PUBCHEM_SHAPE_MULTIPOLES>  (1) 
426.3
8.3
2.81
0.66
2.23
0.34
-0.01
-1.35
-0.79
-0.63
0.02
0.14
-0.04
0.28

>  <PUBCHEM_SHAPE_SELFOVERLAP>  (1) 
999.196

>  <PUBCHEM_SHAPE_VOLUME>  (1) 
218.1

>  <PUBCHEM_COORDINATE_TYPE>  (1) 
2
5
10

$$$$
