37459
     RDKit          3D

 27 31  0  0  1  0  0  0  0  0999 V2000
    3.9519   -0.9196    1.5381 O   0  0  0  0  0  0  0  0  0  0  0  0
    0.8819   -1.1430   -0.2409 N   0  0  0  0  0  0  0  0  0  0  0  0
    3.7161   -0.5831    0.1675 C   0  0  0  0  0  0  0  0  0  0  0  0
    1.2532    0.0258    0.5854 C   0  0  0  0  0  0  0  0  0  0  0  0
    2.6439    0.5181    0.0998 C   0  0  0  0  0  0  0  0  0  0  0  0
    5.0382   -0.1016   -0.4307 C   0  0  0  0  0  0  0  0  0  0  0  0
    3.2237   -1.8421   -0.5493 C   0  0  0  0  0  0  0  0  0  0  0  0
    1.8306   -2.2505   -0.0696 C   0  0  0  0  0  0  0  0  0  0  0  0
   -0.4717   -1.5676    0.1088 C   0  0  0  0  0  0  0  0  0  0  0  0
   -1.4906   -0.5235   -0.4078 C   0  0  0  0  0  0  0  0  0  0  0  0
    0.1932    1.1335    0.5356 C   0  0  0  0  0  0  0  0  0  0  0  0
   -1.1077    0.9057   -0.0015 C   0  0  0  0  0  0  0  0  0  0  0  0
    4.8449    0.2229   -1.9211 C   0  0  0  0  0  0  0  0  0  0  0  0
    5.5106    1.1625    0.3061 C   0  0  0  0  0  0  0  0  0  0  0  0
    6.1035   -1.2007   -0.2854 C   0  0  0  0  0  0  0  0  0  0  0  0
   -2.9334   -0.9296   -0.0735 C   0  0  0  0  0  0  0  0  0  0  0  0
   -1.9623    2.0228   -0.1934 C   0  0  0  0  0  0  0  0  0  0  0  0
    0.5155    2.3968    1.0661 C   0  0  0  0  0  0  0  0  0  0  0  0
   -3.2943    2.0409   -0.9215 C   0  0  0  0  0  0  0  0  0  0  0  0
   -3.9970   -0.3220   -0.7704 C   0  0  0  0  0  0  0  0  0  0  0  0
   -3.7216    0.8132   -1.7160 C   0  0  0  0  0  0  0  0  0  0  0  0
   -1.5775    3.2801    0.3204 C   0  0  0  0  0  0  0  0  0  0  0  0
   -0.3664    3.4607    0.9685 C   0  0  0  0  0  0  0  0  0  0  0  0
   -3.2584   -1.9095    0.8826 C   0  0  0  0  0  0  0  0  0  0  0  0
   -5.3262   -0.7094   -0.5282 C   0  0  0  0  0  0  0  0  0  0  0  0
   -4.5832   -2.2878    1.1202 C   0  0  0  0  0  0  0  0  0  0  0  0
   -5.6170   -1.6931    0.4103 C   0  0  0  0  0  0  0  0  0  0  0  0
  1  3  1  0
  2  4  1  0
  2  8  1  0
  2  9  1  0
  3  5  1  0
  3  6  1  0
  3  7  1  0
  4  5  1  0
  4 11  1  0
  6 13  1  0
  6 14  1  0
  6 15  1  0
  7  8  1  0
  9 10  1  0
 10 12  1  0
 10 16  1  0
 11 12  2  0
 11 18  1  0
 12 17  1  0
 16 20  2  0
 16 24  1  0
 17 19  1  0
 17 22  2  0
 18 23  2  0
 19 21  1  0
 20 21  1  0
 20 25  1  0
 22 23  1  0
 24 26  2  0
 25 27  2  0
 26 27  1  0
M  END
>  <PUBCHEM_COMPOUND_CID>  (1) 
37459

>  <PUBCHEM_CONFORMER_RMSD>  (1) 
0.6

>  <PUBCHEM_CONFORMER_DIVERSEORDER>  (1) 
1
4
3
5
2

>  <PUBCHEM_MMFF94_PARTIAL_CHARGES>  (1) 
29
1 -0.68
10 0.29
11 -0.14
12 -0.14
16 -0.14
17 -0.14
18 -0.15
19 0.14
2 -0.81
20 -0.14
21 0.14
22 -0.15
23 -0.15
24 -0.15
25 -0.15
26 -0.15
27 -0.15
3 0.28
4 0.41
47 0.4
48 0.15
53 0.15
54 0.15
55 0.15
56 0.15
57 0.15
58 0.15
8 0.27
9 0.27

>  <PUBCHEM_EFFECTIVE_ROTOR_COUNT>  (1) 
2.4

>  <PUBCHEM_PHARMACOPHORE_FEATURES>  (1) 
9
1 1 acceptor
1 1 donor
1 2 cation
4 6 13 14 15 hydrophobe
6 11 12 17 18 22 23 rings
6 16 20 24 25 26 27 rings
6 2 3 4 5 7 8 rings
6 2 4 9 10 11 12 rings
7 10 12 16 17 19 20 21 rings

>  <PUBCHEM_HEAVY_ATOM_COUNT>  (1) 
27

>  <PUBCHEM_ATOM_DEF_STEREO_COUNT>  (1) 
3

>  <PUBCHEM_ATOM_UDEF_STEREO_COUNT>  (1) 
0

>  <PUBCHEM_BOND_DEF_STEREO_COUNT>  (1) 
0

>  <PUBCHEM_BOND_UDEF_STEREO_COUNT>  (1) 
0

>  <PUBCHEM_ISOTOPIC_ATOM_COUNT>  (1) 
0

>  <PUBCHEM_COMPONENT_COUNT>  (1) 
1

>  <PUBCHEM_CACTVS_TAUTO_COUNT>  (1) 
1

>  <PUBCHEM_CONFORMER_ID>  (1) 
0000925300000001

>  <PUBCHEM_MMFF94_ENERGY>  (1) 
102.6493

>  <PUBCHEM_FEATURE_SELFOVERLAP>  (1) 
45.736

>  <PUBCHEM_SHAPE_FINGERPRINT>  (1) 
10366900 7 18188481480406862195
10462674 369 17099775946818112547
10498660 4 18340206289536865500
10670039 82 18338530655644224492
10675989 125 17111832779422984437
10906281 52 18057326085669313349
11227688 84 18342728620593135399
11578080 2 14834748806766498889
12166972 35 18040158422639456932
12236239 1 17168140139653498862
12516196 113 18342177803773910403
12553582 1 18271515485512040199
12788726 201 18335700511796652139
13140716 1 17981319307192456067
13224815 77 18341050714313841234
13402501 40 18336827589015293155
13726171 33 18408323259080473928
13911987 19 18338244859213281526
14251757 5 18113904913297570411
14347332 77 18199755748020787438
14363568 33 18123757714334981401
14787075 74 18261114118377225003
14790565 3 18341901834692403673
14840074 17 17632860857925153197
14955137 171 18200602526212844811
15927050 60 17477769443064759428
16087824 20 18267869390183033121
17349148 13 18260551082993494892
17357779 13 18343292665656883405
17492 89 18267867177567909262
1813 80 17703243887227632693
18222031 100 18202278147463093267
18681886 176 18409164416605109560
19319366 153 18114737235268630162
19591789 44 18340204218945780473
21033648 29 17417797440458424763
21049683 271 18118412967080021373
21236236 1 18342741780351018753
21267235 1 18412269440808923702
21360443 126 18116144481846178477
21641784 216 18262254256343416628
21792961 116 18334854983197301935
221357 26 18411412930283620815
22182313 1 18268689757903841057
22393880 68 18263925441324425334
2297311 6 18413116056119440958
23175994 123 18341331175857624589
23352939 185 18131074860943099233
23557571 272 18341900645080817182
23558518 356 17764867992196666115
23559900 14 18188764076280184525
23569914 152 16906929999550135253
283562 15 18411704244460759578
3004659 81 18113896044733143402
329604 57 18334860536568442420
335352 9 18410570696372450389
3493558 16 16808437268515881142
350125 39 18408888455855158797
3737641 26 17988093187751465334
3886686 26 17327712030792145018
4258327 124 16517114993459618806
437815 12 18341332279912022649
469060 322 18339940250176745312
5104073 3 18341889633270116802
5283173 99 18114739348027802301
57527295 17 18190714520135675823
6669772 16 17837493321019804748
7237137 82 18260831505286694957
8863177 126 17900268790973005347
9709674 26 17984140357871771118

>  <PUBCHEM_SHAPE_MULTIPOLES>  (1) 
544.8
12.53
3.21
1.21
7.01
2.24
-0.24
-6.12
-1.96
-2.08
0.92
0.02
0.16
1.14

>  <PUBCHEM_SHAPE_SELFOVERLAP>  (1) 
1195.777

>  <PUBCHEM_SHAPE_VOLUME>  (1) 
291.8

>  <PUBCHEM_COORDINATE_TYPE>  (1) 
2
5
10

$$$$
