37468
     RDKit          3D

 23 26  0  0  1  0  0  0  0  0999 V2000
    0.7413   -2.5123    0.4833 O   0  0  0  0  0  0  0  0  0  0  0  0
   -2.9302   -0.0902   -0.2987 N   0  0  0  0  0  0  0  0  0  0  0  0
    2.6394    1.6340    0.1089 N   0  0  0  0  0  0  0  0  0  0  0  0
   -0.8082   -0.6912    0.8011 C   0  0  0  0  0  0  0  0  0  0  0  0
   -1.5975   -0.6566   -0.5051 C   0  0  0  0  0  0  0  0  0  0  0  0
   -5.8608   -0.1100   -0.3782 C   0  0  0  0  0  0  0  0  0  0  0  0
   -3.6940   -0.9071    0.6539 C   0  0  0  0  0  0  0  0  0  0  0  0
   -3.6400    0.0340   -1.5789 C   0  0  0  0  0  0  0  0  0  0  0  0
   -0.7191    0.6993    1.4693 C   0  0  0  0  0  0  0  0  0  0  0  0
   -5.0721   -0.2986    0.9220 C   0  0  0  0  0  0  0  0  0  0  0  0
   -5.0159    0.6753   -1.3870 C   0  0  0  0  0  0  0  0  0  0  0  0
    0.1885    1.6849    0.7165 C   0  0  0  0  0  0  0  0  0  0  0  0
    1.4627    0.9993    0.3844 C   0  0  0  0  0  0  0  0  0  0  0  0
    0.5798   -1.2956    0.5382 C   0  0  0  0  0  0  0  0  0  0  0  0
    1.6677   -0.3609    0.2976 C   0  0  0  0  0  0  0  0  0  0  0  0
    3.0368   -0.5654   -0.0386 C   0  0  0  0  0  0  0  0  0  0  0  0
   -7.1922    0.5885   -0.1158 C   0  0  0  0  0  0  0  0  0  0  0  0
    3.6208    0.7018   -0.1514 C   0  0  0  0  0  0  0  0  0  0  0  0
    2.8364    3.0687    0.0944 C   0  0  0  0  0  0  0  0  0  0  0  0
    3.8444   -1.6999   -0.2620 C   0  0  0  0  0  0  0  0  0  0  0  0
    4.9699    0.8859   -0.4757 C   0  0  0  0  0  0  0  0  0  0  0  0
    5.1951   -1.5290   -0.5867 C   0  0  0  0  0  0  0  0  0  0  0  0
    5.7473   -0.2549   -0.6914 C   0  0  0  0  0  0  0  0  0  0  0  0
  1 14  2  0
  2  5  1  0
  2  7  1  0
  2  8  1  0
  3 13  1  0
  3 18  1  0
  3 19  1  0
  4  5  1  0
  4  9  1  0
  4 14  1  0
  6 10  1  0
  6 11  1  0
  6 17  1  0
  7 10  1  0
  8 11  1  0
  9 12  1  0
 12 13  1  0
 13 15  2  0
 14 15  1  0
 15 16  1  0
 16 18  2  0
 16 20  1  0
 18 21  1  0
 20 22  2  0
 21 23  2  0
 22 23  1  0
M  END
>  <PUBCHEM_COMPOUND_CID>  (1) 
37468

>  <PUBCHEM_CONFORMER_RMSD>  (1) 
0.6

>  <PUBCHEM_CONFORMER_DIVERSEORDER>  (1) 
2
7
11
8
13
3
4
1
9
12
14
5
10
6

>  <PUBCHEM_MMFF94_PARTIAL_CHARGES>  (1) 
21
1 -0.57
12 0.18
13 -0.33
14 0.6
15 -0.09
18 -0.15
19 0.26
2 -0.81
20 -0.15
21 -0.15
22 -0.15
23 -0.15
3 0.05
4 0.06
46 0.15
47 0.15
48 0.15
49 0.15
5 0.27
7 0.27
8 0.27

>  <PUBCHEM_EFFECTIVE_ROTOR_COUNT>  (1) 
3.8

>  <PUBCHEM_PHARMACOPHORE_FEATURES>  (1) 
7
1 1 acceptor
1 2 cation
1 3 cation
5 3 13 15 16 18 rings
6 16 18 20 21 22 23 rings
6 2 6 7 8 10 11 rings
6 4 9 12 13 14 15 rings

>  <PUBCHEM_HEAVY_ATOM_COUNT>  (1) 
23

>  <PUBCHEM_ATOM_DEF_STEREO_COUNT>  (1) 
0

>  <PUBCHEM_ATOM_UDEF_STEREO_COUNT>  (1) 
1

>  <PUBCHEM_BOND_DEF_STEREO_COUNT>  (1) 
0

>  <PUBCHEM_BOND_UDEF_STEREO_COUNT>  (1) 
0

>  <PUBCHEM_ISOTOPIC_ATOM_COUNT>  (1) 
0

>  <PUBCHEM_COMPONENT_COUNT>  (1) 
1

>  <PUBCHEM_CACTVS_TAUTO_COUNT>  (1) 
2

>  <PUBCHEM_CONFORMER_ID>  (1) 
0000925C00000002

>  <PUBCHEM_MMFF94_ENERGY>  (1) 
38.934

>  <PUBCHEM_FEATURE_SELFOVERLAP>  (1) 
35.697

>  <PUBCHEM_SHAPE_FINGERPRINT>  (1) 
106641 1 8358247138225080159
10670039 82 16443337624868286053
10693767 8 18201153244158157526
11796584 16 15554444123824775783
12011746 2 18411709790139134454
12236239 1 17704357671274066499
12403259 415 18040998479081497969
12730499 353 18040999522943414451
12788726 201 17203343198918007753
12838862 33 18340759425996372152
12916748 109 16370723712306428221
13533116 47 17846782880340884526
13540713 4 18121792891951999554
13590594 115 17988931054741524505
13782708 43 18113907108294936243
14170010 4 18413106178122012368
14251752 14 17632294537097819033
14294032 229 16628578899405927817
14848160 23 12103846756885099445
14933364 13 18260832588203788301
15081414 286 18335701701582454565
15183329 4 18412830161568498529
15475509 35 14117249283337558102
15788980 27 16128656370807649847
17349148 13 17632303366938429210
17834072 8 18411420609242047271
18186145 218 18336539512167050058
18335252 114 18412255117599446165
19784866 140 18342175527372489963
200 152 17988927756005394200
20612939 158 18341334469686363425
20645477 70 18413392025043309262
20832881 197 18343302565392977248
21033648 29 17967811707976609912
21267235 1 18272098175040052387
21285901 2 18114744833260007686
21641784 216 18263098642634933492
21792961 116 18041291972210451478
221357 26 18410007719705304397
22224240 67 8718536199890249030
22289505 5 18408038503312510756
22393880 68 18261385689444200835
23402539 116 17561085791130896907
23557571 272 17095523959744262855
23559900 14 18271525420515129656
25147074 1 18057046800550592835
2871803 45 18411139104659533834
29717793 49 17632301167910132724
3004659 81 17918555734588374260
3009799 131 18410851058477760512
335352 9 18410859876251451646
347723 3 17989487420287799899
3545911 37 18040434387241632991
4073 2 18041284377906510363
4340502 62 16298102086474093674
46194498 28 18040437719693592052
542803 24 14345794950675225235
59755656 215 18186803552157633107
59755656 520 16515682268961952019
633830 44 18263070158432236143
7164475 11 17845382054865720096
7471813 234 17632577158509382704

>  <PUBCHEM_SHAPE_MULTIPOLES>  (1) 
457.5
14.77
2.03
1.12
14.23
0.71
0.09
-0.06
4.34
-2.68
-0.22
0.99
0.05
0.55

>  <PUBCHEM_SHAPE_SELFOVERLAP>  (1) 
989.431

>  <PUBCHEM_SHAPE_VOLUME>  (1) 
251.4

>  <PUBCHEM_COORDINATE_TYPE>  (1) 
2
5
10

$$$$
