37466
     RDKit          3D

 47 52  0  0  1  0  0  0  0  0999 V2000
    0.0073    1.8579    0.8471 O   0  0  0  0  0  0  0  0  0  0  0  0
   -0.6670    3.8467   -0.1869 O   0  0  0  0  0  0  0  0  0  0  0  0
    1.5878   -0.0331    2.2563 O   0  0  0  0  0  0  0  0  0  0  0  0
    0.5457    7.3197    0.1163 O   0  0  0  0  0  0  0  0  0  0  0  0
   -2.4662    1.4483   -0.8843 O   0  0  0  0  0  0  0  0  0  0  0  0
   -1.4248   -3.5791    1.1415 O   0  0  0  0  0  0  0  0  0  0  0  0
   -4.8884    0.7703   -1.0767 O   0  0  0  0  0  0  0  0  0  0  0  0
   -3.8789   -4.0914    0.8959 O   0  0  0  0  0  0  0  0  0  0  0  0
   -7.3785    0.2333   -1.3603 O   0  0  0  0  0  0  0  0  0  0  0  0
    5.7899   -0.1799   -1.8086 O   0  0  0  0  0  0  0  0  0  0  0  0
    2.5453    5.3505    0.4806 N   0  0  0  0  0  0  0  0  0  0  0  0
    3.9407   -0.8687    0.0815 N   0  0  0  0  0  0  0  0  0  0  0  0
    5.2002   -1.3605    0.0943 N   0  0  0  0  0  0  0  0  0  0  0  0
    1.7362   -0.7040    1.0111 C   0  0  0  0  0  0  0  0  0  0  0  0
    0.1638    0.8882   -0.1870 C   0  0  0  0  0  0  0  0  0  0  0  0
    1.5745    0.2906   -0.1406 C   0  0  0  0  0  0  0  0  0  0  0  0
    0.7328   -1.8556    0.8905 C   0  0  0  0  0  0  0  0  0  0  0  0
   -0.9247   -0.1435   -0.0247 C   0  0  0  0  0  0  0  0  0  0  0  0
   -0.6627   -1.4167    0.5094 C   0  0  0  0  0  0  0  0  0  0  0  0
    0.4248    3.1491    0.4122 C   0  0  0  0  0  0  0  0  0  0  0  0
    0.9324    3.9127    1.6376 C   0  0  0  0  0  0  0  0  0  0  0  0
    1.3207    5.3510    1.2879 C   0  0  0  0  0  0  0  0  0  0  0  0
    0.1571    6.0164    0.5339 C   0  0  0  0  0  0  0  0  0  0  0  0
   -0.3099    5.1548   -0.6503 C   0  0  0  0  0  0  0  0  0  0  0  0
    3.1338   -1.2550    1.0225 C   0  0  0  0  0  0  0  0  0  0  0  0
   -2.2403    0.1944   -0.3865 C   0  0  0  0  0  0  0  0  0  0  0  0
   -1.7154   -2.3370    0.6482 C   0  0  0  0  0  0  0  0  0  0  0  0
   -3.2836   -0.7262   -0.2365 C   0  0  0  0  0  0  0  0  0  0  0  0
   -3.0208   -1.9928    0.2794 C   0  0  0  0  0  0  0  0  0  0  0  0
   -1.5396    5.7381   -1.3395 C   0  0  0  0  0  0  0  0  0  0  0  0
    3.4813   -2.2144    2.1352 C   0  0  0  0  0  0  0  0  0  0  0  0
   -4.6562   -0.3458   -0.6292 C   0  0  0  0  0  0  0  0  0  0  0  0
   -4.1096   -2.9787    0.4390 C   0  0  0  0  0  0  0  0  0  0  0  0
   -5.7451   -1.3323   -0.4758 C   0  0  0  0  0  0  0  0  0  0  0  0
   -5.4812   -2.6031    0.0393 C   0  0  0  0  0  0  0  0  0  0  0  0
   -7.0492   -0.9876   -0.8503 C   0  0  0  0  0  0  0  0  0  0  0  0
   -6.5213   -3.5296    0.1796 C   0  0  0  0  0  0  0  0  0  0  0  0
   -8.0829   -1.9140   -0.7092 C   0  0  0  0  0  0  0  0  0  0  0  0
   -7.8195   -3.1822   -0.1952 C   0  0  0  0  0  0  0  0  0  0  0  0
    6.0717   -0.9586   -0.9011 C   0  0  0  0  0  0  0  0  0  0  0  0
    7.4467   -1.5161   -0.8197 C   0  0  0  0  0  0  0  0  0  0  0  0
   -7.7583    1.2427   -0.4279 C   0  0  0  0  0  0  0  0  0  0  0  0
    8.1804   -1.6497   -1.9799 C   0  0  0  0  0  0  0  0  0  0  0  0
    7.9449   -1.8815    0.4135 C   0  0  0  0  0  0  0  0  0  0  0  0
    9.4713   -2.1728   -1.9036 C   0  0  0  0  0  0  0  0  0  0  0  0
    9.2358   -2.4046    0.4897 C   0  0  0  0  0  0  0  0  0  0  0  0
    9.9989   -2.5502   -0.6688 C   0  0  0  0  0  0  0  0  0  0  0  0
  1 15  1  0
  1 20  1  0
  2 20  1  0
  2 24  1  0
  3 14  1  0
  4 23  1  0
  5 26  1  0
  6 27  1  0
  7 32  2  0
  8 33  2  0
  9 36  1  0
  9 42  1  0
 10 40  2  0
 11 22  1  0
 12 13  1  0
 12 25  2  0
 13 40  1  0
 14 16  1  0
 14 17  1  0
 14 25  1  0
 15 16  1  0
 15 18  1  0
 17 19  1  0
 18 19  2  0
 18 26  1  0
 19 27  1  0
 20 21  1  0
 21 22  1  0
 22 23  1  0
 23 24  1  0
 24 30  1  0
 25 31  1  0
 26 28  2  0
 27 29  2  0
 28 29  1  0
 28 32  1  0
 29 33  1  0
 32 34  1  0
 33 35  1  0
 34 35  2  0
 34 36  1  0
 35 37  1  0
 36 38  2  0
 37 39  2  0
 38 39  1  0
 40 41  1  0
 41 43  2  0
 41 44  1  0
 43 45  1  0
 44 46  2  0
 45 47  2  0
 46 47  1  0
M  END
>  <PUBCHEM_COMPOUND_CID>  (1) 
37466

>  <PUBCHEM_CONFORMER_RMSD>  (1) 
1.2

>  <PUBCHEM_CONFORMER_DIVERSEORDER>  (1) 
1
23
12
2
25
8
17
13
10
18
9
14
24
26
15
20
21
16
3
6
4
11
5
19
7
22

>  <PUBCHEM_MMFF94_PARTIAL_CHARGES>  (1) 
59
1 -0.56
10 -0.57
11 -0.99
12 -0.51
13 -0.37
14 0.34
15 0.42
17 0.14
18 -0.14
19 -0.14
2 -0.56
20 0.56
22 0.27
23 0.28
24 0.28
25 0.33
26 0.08
27 0.08
28 0.09
29 0.09
3 -0.68
31 0.06
32 0.4
33 0.4
34 0.09
35 0.09
36 0.08
37 -0.15
38 -0.15
39 -0.15
4 -0.68
40 0.54
41 0.09
42 0.28
43 -0.15
44 -0.15
45 -0.15
46 -0.15
47 -0.15
5 -0.53
59 0.4
6 -0.53
66 0.36
67 0.36
68 0.4
69 0.45
7 -0.57
70 0.45
71 0.15
72 0.37
73 0.15
74 0.15
78 0.15
79 0.15
8 -0.57
80 0.15
81 0.15
82 0.15
9 -0.36

>  <PUBCHEM_EFFECTIVE_ROTOR_COUNT>  (1) 
9

>  <PUBCHEM_PHARMACOPHORE_FEATURES>  (1) 
22
1 1 acceptor
1 10 acceptor
1 11 cation
1 11 donor
1 12 acceptor
1 13 donor
1 2 acceptor
1 3 acceptor
1 3 donor
1 4 acceptor
1 4 donor
1 5 donor
1 6 donor
1 7 acceptor
1 8 acceptor
1 9 acceptor
6 14 15 16 17 18 19 rings
6 18 19 26 27 28 29 rings
6 2 20 21 22 23 24 rings
6 28 29 32 33 34 35 rings
6 34 35 36 37 38 39 rings
6 41 43 44 45 46 47 rings

>  <PUBCHEM_HEAVY_ATOM_COUNT>  (1) 
47

>  <PUBCHEM_ATOM_DEF_STEREO_COUNT>  (1) 
2

>  <PUBCHEM_ATOM_UDEF_STEREO_COUNT>  (1) 
4

>  <PUBCHEM_BOND_DEF_STEREO_COUNT>  (1) 
0

>  <PUBCHEM_BOND_UDEF_STEREO_COUNT>  (1) 
1

>  <PUBCHEM_ISOTOPIC_ATOM_COUNT>  (1) 
0

>  <PUBCHEM_COMPONENT_COUNT>  (1) 
1

>  <PUBCHEM_CACTVS_TAUTO_COUNT>  (1) 
54

>  <PUBCHEM_CONFORMER_ID>  (1) 
0000925A00000001

>  <PUBCHEM_MMFF94_ENERGY>  (1) 
161.6687

>  <PUBCHEM_FEATURE_SELFOVERLAP>  (1) 
111.791

>  <PUBCHEM_SHAPE_FINGERPRINT>  (1) 
10050765 1 18049434044761376723
10076449 9 18410858754606188962
10411042 1 18412263947735656168
11331351 85 17846494863443108793
11411753 3 17825662520798028859
12539747 91 18201709649250468802
12741549 16 17561084696003947137
12758862 56 18409162242513765347
12788726 201 18263641767160935466
13540713 5 17680703723650977714
13673619 4 17703789207068362778
14068700 675 18334299751975202356
14675019 173 18343018934422052054
15198563 99 18340212890949286956
15419008 47 18060413596171900730
15444296 121 18342460310075541625
16991971 28 18412824698607845254
16992752 21 18409449146650397190
20105231 36 18261680372031721451
21927370 108 18340781380803702995
23559900 14 18265607874635430555
23576562 1 18267576000360174463
255183 451 18342455992868212836
4066623 53 18411420627229596612
508180 173 18261114110140264267
6058803 2 17609204655497143738

>  <PUBCHEM_SHAPE_MULTIPOLES>  (1) 
893.6
25.38
8.5
1.48
35.76
22.73
0.08
-37.56
-12.99
-1.61
1.35
2.03
-0.06
2.29

>  <PUBCHEM_SHAPE_SELFOVERLAP>  (1) 
1976.442

>  <PUBCHEM_SHAPE_VOLUME>  (1) 
471.7

>  <PUBCHEM_COORDINATE_TYPE>  (1) 
2
5
10

$$$$
