37462
     RDKit          3D

 20 22  0  0  1  0  0  0  0  0999 V2000
   -1.7529    0.7827   -1.1671 O   0  0  0  0  0  0  0  0  0  0  0  0
   -4.0420   -0.0440    2.1873 O   0  0  0  0  0  0  0  0  0  0  0  0
   -4.1802    1.2250    0.3028 O   0  0  0  0  0  0  0  0  0  0  0  0
    0.8680   -0.7517    0.9572 N   0  0  0  0  0  0  0  0  0  0  0  0
   -1.3768    0.0195    0.0106 C   0  0  0  0  0  0  0  0  0  0  0  0
    0.1189    0.0055    0.1001 C   0  0  0  0  0  0  0  0  0  0  0  0
    0.9775    0.7816   -0.6483 C   0  0  0  0  0  0  0  0  0  0  0  0
   -1.9354   -1.3892   -0.2091 C   0  0  0  0  0  0  0  0  0  0  0  0
    0.4521    1.7181   -1.6728 C   0  0  0  0  0  0  0  0  0  0  0  0
   -2.0117    0.6476    1.2545 C   0  0  0  0  0  0  0  0  0  0  0  0
   -1.0270    2.0060   -1.3777 C   0  0  0  0  0  0  0  0  0  0  0  0
    2.3046    0.4770   -0.2448 C   0  0  0  0  0  0  0  0  0  0  0  0
    2.2078   -0.4876    0.7641 C   0  0  0  0  0  0  0  0  0  0  0  0
   -1.3654   -1.9971   -1.4747 C   0  0  0  0  0  0  0  0  0  0  0  0
    3.5830    0.9237   -0.6346 C   0  0  0  0  0  0  0  0  0  0  0  0
   -3.5113    0.6668    1.1593 C   0  0  0  0  0  0  0  0  0  0  0  0
    3.3312   -1.0256    1.4020 C   0  0  0  0  0  0  0  0  0  0  0  0
   -1.9425   -3.3845   -1.7023 C   0  0  0  0  0  0  0  0  0  0  0  0
    4.7142    0.3927   -0.0044 C   0  0  0  0  0  0  0  0  0  0  0  0
    4.5880   -0.5667    0.9979 C   0  0  0  0  0  0  0  0  0  0  0  0
  1  5  1  0
  1 11  1  0
  2 16  1  0
  3 16  2  0
  4  6  1  0
  4 13  1  0
  5  6  1  0
  5  8  1  0
  5 10  1  0
  6  7  2  0
  7  9  1  0
  7 12  1  0
  8 14  1  0
  9 11  1  0
 10 16  1  0
 12 13  2  0
 12 15  1  0
 13 17  1  0
 14 18  1  0
 15 19  2  0
 17 20  2  0
 19 20  1  0
M  END
>  <PUBCHEM_COMPOUND_CID>  (1) 
37462

>  <PUBCHEM_CONFORMER_RMSD>  (1) 
0.6

>  <PUBCHEM_CONFORMER_DIVERSEORDER>  (1) 
1
12
9
5
7
10
8
2
11
6
3
4

>  <PUBCHEM_MMFF94_PARTIAL_CHARGES>  (1) 
22
1 -0.56
10 0.06
11 0.28
13 -0.15
15 -0.15
16 0.66
17 -0.15
19 -0.15
2 -0.65
20 -0.15
29 0.27
3 -0.57
32 0.15
33 0.15
37 0.15
38 0.15
39 0.5
4 0.03
5 0.46
6 -0.33
7 -0.18
9 0.18

>  <PUBCHEM_EFFECTIVE_ROTOR_COUNT>  (1) 
4.8

>  <PUBCHEM_PHARMACOPHORE_FEATURES>  (1) 
10
1 1 acceptor
1 18 hydrophobe
1 2 acceptor
1 3 acceptor
1 4 cation
1 4 donor
3 2 3 16 anion
5 4 6 7 12 13 rings
6 1 5 6 7 9 11 rings
6 12 13 15 17 19 20 rings

>  <PUBCHEM_HEAVY_ATOM_COUNT>  (1) 
20

>  <PUBCHEM_ATOM_DEF_STEREO_COUNT>  (1) 
0

>  <PUBCHEM_ATOM_UDEF_STEREO_COUNT>  (1) 
1

>  <PUBCHEM_BOND_DEF_STEREO_COUNT>  (1) 
0

>  <PUBCHEM_BOND_UDEF_STEREO_COUNT>  (1) 
0

>  <PUBCHEM_ISOTOPIC_ATOM_COUNT>  (1) 
0

>  <PUBCHEM_COMPONENT_COUNT>  (1) 
1

>  <PUBCHEM_CACTVS_TAUTO_COUNT>  (1) 
1

>  <PUBCHEM_CONFORMER_ID>  (1) 
0000925600000001

>  <PUBCHEM_MMFF94_ENERGY>  (1) 
40.2041

>  <PUBCHEM_FEATURE_SELFOVERLAP>  (1) 
50.984

>  <PUBCHEM_SHAPE_FINGERPRINT>  (1) 
10756046 70 18262248831989170885
11552529 35 17773864471466516990
11578080 2 18051663797896053861
12173636 292 17917146096119983841
12236239 1 18409450310438601163
12403814 3 18187640289038146513
12500047 106 17775567541741756758
12553582 1 17967810574679873218
12633257 1 18131911559474991800
12788726 201 17912371123580189591
13140716 1 17243875750916718584
13214271 11 17748827401774245321
14178342 30 18060131064032282950
14787075 74 16371586915261067160
14790565 3 16810424077548997948
15309172 13 18342177717863696609
15375462 189 18187367649020303352
15375462 478 17822297850984455429
16945 1 18342731893241325228
19433438 48 18336815468559282154
200 152 17530959207132276507
20261772 1 18334859411371452354
20602899 9 17985234479357646295
21033648 29 18059001783632952745
21267235 1 17458915834226814578
22112679 90 18266184009442222645
23402539 116 17894621578818790474
23419403 2 11860258481097989983
23493267 7 16988853786687176778
23503953 91 18271799130000850704
23559900 14 17346331392740583876
23598288 3 17969489438335096284
23598291 2 18193000541309330628
25 1 13686024137641920049
266924 1 17906461283003377077
26918003 58 16660362571622883056
2748010 2 17759230804697250374
34934 24 18040432187538187821
427121 178 17201669712778324883
4340502 62 17632305536356024759
45790113 50 17240773847756157020
5104073 3 17604418588945507984
6992083 37 18410574015490574583

>  <PUBCHEM_SHAPE_MULTIPOLES>  (1) 
389
7.68
2.22
1.78
4.45
1.81
-0.1
-0.32
-3.43
-2.02
1.6
-1.09
0.07
-1.66

>  <PUBCHEM_SHAPE_SELFOVERLAP>  (1) 
843.706

>  <PUBCHEM_SHAPE_VOLUME>  (1) 
213

>  <PUBCHEM_COORDINATE_TYPE>  (1) 
2
5
10

$$$$
