37470
     RDKit          3D

 12 12  0  0  0  0  0  0  0  0999 V2000
    0.8667   -0.5242   -0.8271 S   0  0  0  0  0  0  0  0  0  0  0  0
   -1.4168   -2.3163    0.1438 O   0  0  0  0  0  0  0  0  0  0  0  0
    4.0635    0.2652    1.2472 O   0  0  0  0  0  0  0  0  0  0  0  0
    3.7911   -0.1367   -0.9731 O   0  0  0  0  0  0  0  0  0  0  0  0
   -0.7930   -0.0472   -0.3653 C   0  0  0  0  0  0  0  0  0  0  0  0
   -1.7275   -0.9914    0.0602 C   0  0  0  0  0  0  0  0  0  0  0  0
   -1.1461    1.3004   -0.4366 C   0  0  0  0  0  0  0  0  0  0  0  0
   -3.0149   -0.5879    0.4143 C   0  0  0  0  0  0  0  0  0  0  0  0
   -2.4335    1.7039   -0.0824 C   0  0  0  0  0  0  0  0  0  0  0  0
    1.8608    0.4254    0.3564 C   0  0  0  0  0  0  0  0  0  0  0  0
   -3.3679    0.7598    0.3430 C   0  0  0  0  0  0  0  0  0  0  0  0
    3.3177    0.1492    0.1194 C   0  0  0  0  0  0  0  0  0  0  0  0
  1  5  1  0
  1 10  1  0
  2  6  1  0
  3 12  1  0
  4 12  2  0
  5  6  2  0
  5  7  1  0
  6  8  1  0
  7  9  2  0
  8 11  2  0
  9 11  1  0
 10 12  1  0
M  END
>  <PUBCHEM_COMPOUND_CID>  (1) 
37470

>  <PUBCHEM_CONFORMER_RMSD>  (1) 
0.6

>  <PUBCHEM_CONFORMER_DIVERSEORDER>  (1) 
2
22
18
20
5
4
16
26
25
19
21
17
6
3
10
15
14
24
23
11
1
7
9
8
12
13

>  <PUBCHEM_MMFF94_PARTIAL_CHARGES>  (1) 
18
1 -0.33
10 0.29
11 -0.15
12 0.66
13 0.15
14 0.15
17 0.15
18 0.15
19 0.45
2 -0.53
20 0.5
3 -0.65
4 -0.57
5 0.1
6 0.08
7 -0.15
8 -0.15
9 -0.15

>  <PUBCHEM_EFFECTIVE_ROTOR_COUNT>  (1) 
3

>  <PUBCHEM_PHARMACOPHORE_FEATURES>  (1) 
5
1 2 donor
1 3 acceptor
1 4 acceptor
3 3 4 12 anion
6 5 6 7 8 9 11 rings

>  <PUBCHEM_HEAVY_ATOM_COUNT>  (1) 
12

>  <PUBCHEM_ATOM_DEF_STEREO_COUNT>  (1) 
0

>  <PUBCHEM_ATOM_UDEF_STEREO_COUNT>  (1) 
0

>  <PUBCHEM_BOND_DEF_STEREO_COUNT>  (1) 
0

>  <PUBCHEM_BOND_UDEF_STEREO_COUNT>  (1) 
0

>  <PUBCHEM_ISOTOPIC_ATOM_COUNT>  (1) 
0

>  <PUBCHEM_COMPONENT_COUNT>  (1) 
1

>  <PUBCHEM_CACTVS_TAUTO_COUNT>  (1) 
3

>  <PUBCHEM_CONFORMER_ID>  (1) 
0000925E00000002

>  <PUBCHEM_MMFF94_ENERGY>  (1) 
25.606

>  <PUBCHEM_FEATURE_SELFOVERLAP>  (1) 
25.429

>  <PUBCHEM_SHAPE_FINGERPRINT>  (1) 
10608611 8 18272650134430794944
11132069 177 18413950594087630805
12251169 10 18335137609319875028
12932764 1 17917709106651353358
13024252 1 14345792743309909565
13380535 76 18341331111016663335
13581323 91 18260270749971656815
14144814 61 18334010579815417672
15219456 202 18130795503369421446
15669948 3 18334861666203097494
15775835 57 18260832548926668505
17846911 113 18412824660005737585
19422 9 17530967973265951200
20279233 1 18060699490110749990
20528008 55 18413386531837770269
20645464 45 18201444657667097751
20645477 70 14490458790874328274
20871998 184 18270688678875503135
23402539 116 18341602755377547631
23559900 14 18341059501943705390
2748010 2 18120107086980890351
43471831 8 18187927235972510899
6333449 129 18412826884898757487
75552 356 18335704965830445413
77492 1 17313112963915209190
90316 7 17967808314963366060

>  <PUBCHEM_SHAPE_MULTIPOLES>  (1) 
233.2
6.77
1.56
0.9
6.17
0.4
-0.01
-1.03
-1.32
-1.45
0
0.61
-0.02
0.34

>  <PUBCHEM_SHAPE_SELFOVERLAP>  (1) 
466.03

>  <PUBCHEM_SHAPE_VOLUME>  (1) 
137.8

>  <PUBCHEM_COORDINATE_TYPE>  (1) 
2
5
10

$$$$
