37473
     RDKit          3D

 23 26  0  0  1  0  0  0  0  0999 V2000
   -4.8030   -1.7602    1.0196 O   0  0  0  0  0  0  0  0  0  0  0  0
    2.4415   -0.4475    2.0194 O   0  0  0  0  0  0  0  0  0  0  0  0
   -0.6448    0.2367    0.2717 N   0  0  0  0  0  0  0  0  0  0  0  0
   -2.0517    0.1947    0.6680 C   0  0  0  0  0  0  0  0  0  0  0  0
   -2.7997   -0.9470   -0.0492 C   0  0  0  0  0  0  0  0  0  0  0  0
   -4.9341    0.4096   -0.0215 C   0  0  0  0  0  0  0  0  0  0  0  0
   -2.6864    1.5833    0.4828 C   0  0  0  0  0  0  0  0  0  0  0  0
   -4.2088    1.5742    0.6631 C   0  0  0  0  0  0  0  0  0  0  0  0
   -2.7986   -0.9328   -1.5858 C   0  0  0  0  0  0  0  0  0  0  0  0
   -4.2437   -0.8686    0.3898 C   0  0  0  0  0  0  0  0  0  0  0  0
   -4.9494    0.4572   -1.5539 C   0  0  0  0  0  0  0  0  0  0  0  0
   -3.5944    0.2093   -2.2239 C   0  0  0  0  0  0  0  0  0  0  0  0
    0.0916    1.2056    1.0908 C   0  0  0  0  0  0  0  0  0  0  0  0
   -0.0442   -1.0978    0.3646 C   0  0  0  0  0  0  0  0  0  0  0  0
    2.2878   -0.0496    0.6489 C   0  0  0  0  0  0  0  0  0  0  0  0
    1.5508    1.3082    0.6318 C   0  0  0  0  0  0  0  0  0  0  0  0
    1.4195   -1.0908   -0.0946 C   0  0  0  0  0  0  0  0  0  0  0  0
    3.7042   -0.0225    0.0718 C   0  0  0  0  0  0  0  0  0  0  0  0
    4.2333    1.1710   -0.4175 C   0  0  0  0  0  0  0  0  0  0  0  0
    4.4639   -1.1909    0.0365 C   0  0  0  0  0  0  0  0  0  0  0  0
    5.5248    1.1960   -0.9435 C   0  0  0  0  0  0  0  0  0  0  0  0
    5.7555   -1.1657   -0.4895 C   0  0  0  0  0  0  0  0  0  0  0  0
    6.2860    0.0278   -0.9795 C   0  0  0  0  0  0  0  0  0  0  0  0
  1 10  2  0
  2 15  1  0
  3  4  1  0
  3 13  1  0
  3 14  1  0
  4  5  1  0
  4  7  1  0
  5  9  1  0
  5 10  1  0
  6  8  1  0
  6 10  1  0
  6 11  1  0
  7  8  1  0
  9 12  1  0
 11 12  1  0
 13 16  1  0
 14 17  1  0
 15 16  1  0
 15 17  1  0
 15 18  1  0
 18 19  2  0
 18 20  1  0
 19 21  1  0
 20 22  2  0
 21 23  2  0
 22 23  1  0
M  END
>  <PUBCHEM_COMPOUND_CID>  (1) 
37473

>  <PUBCHEM_CONFORMER_RMSD>  (1) 
0.8

>  <PUBCHEM_CONFORMER_DIVERSEORDER>  (1) 
2
46
54
62
30
55
17
66
63
60
58
61
32
12
38
41
24
28
8
25
48
40
29
45
39
26
31
57
18
33
51
42
37
6
56
19
52
43
50
4
64
47
7
65
9
59
21
1
14
27
10
34
11
49
53
13
36
23
44
22
5
35
3
15
16
20

>  <PUBCHEM_MMFF94_PARTIAL_CHARGES>  (1) 
22
1 -0.57
10 0.45
13 0.27
14 0.27
15 0.42
18 -0.14
19 -0.15
2 -0.68
20 -0.15
21 -0.15
22 -0.15
23 -0.15
3 -0.81
4 0.27
45 0.4
46 0.15
47 0.15
48 0.15
49 0.15
5 0.06
50 0.15
6 0.06

>  <PUBCHEM_EFFECTIVE_ROTOR_COUNT>  (1) 
4.4

>  <PUBCHEM_PHARMACOPHORE_FEATURES>  (1) 
8
1 1 acceptor
1 2 acceptor
1 2 donor
1 3 cation
6 18 19 20 21 22 23 rings
6 3 13 14 15 16 17 rings
6 4 5 6 7 8 10 rings
6 5 6 9 10 11 12 rings

>  <PUBCHEM_HEAVY_ATOM_COUNT>  (1) 
23

>  <PUBCHEM_ATOM_DEF_STEREO_COUNT>  (1) 
0

>  <PUBCHEM_ATOM_UDEF_STEREO_COUNT>  (1) 
3

>  <PUBCHEM_BOND_DEF_STEREO_COUNT>  (1) 
0

>  <PUBCHEM_BOND_UDEF_STEREO_COUNT>  (1) 
0

>  <PUBCHEM_ISOTOPIC_ATOM_COUNT>  (1) 
0

>  <PUBCHEM_COMPONENT_COUNT>  (1) 
1

>  <PUBCHEM_CACTVS_TAUTO_COUNT>  (1) 
1

>  <PUBCHEM_CONFORMER_ID>  (1) 
0000926100000002

>  <PUBCHEM_MMFF94_ENERGY>  (1) 
61.51

>  <PUBCHEM_FEATURE_SELFOVERLAP>  (1) 
42.035

>  <PUBCHEM_SHAPE_FINGERPRINT>  (1) 
10 15 9439396939150246246
10595046 47 18408328791535595832
11089746 13 15502375660318375612
11128504 68 18413671327146136020
11405975 8 15410610423536886691
11796584 16 15195565697598434438
12107183 9 17615972106325579912
12166972 35 17821738264254320900
12236239 1 18335425660192059792
12516196 113 15123788483779537858
12553582 1 18131625703457474819
12616971 3 17489591198575617152
12788726 201 17631456652822527097
13288520 33 16486969609824510709
13533116 47 15502646084734806184
13631057 29 17387138765735817019
14251751 18 15697993055128288692
14251764 18 8142076564194114577
14528608 73 17748828535935547384
15183329 4 18335141964822752230
15188451 53 14045445774637222109
15348495 7 12319446710499647830
15537594 2 17346605161902835662
15788980 27 17775847908511124172
17349148 13 17346604083902648800
17844677 252 18410303526892747712
17857418 61 17060615586311494678
1813 80 13542474172105714336
18186145 218 18114173146720691537
18222031 100 16917348134801924664
18927931 339 18060142046368718847
19489759 90 14851604392543813453
200 152 17989488510987862736
20645477 70 18334581209803828290
21033648 29 16805316721504518468
21267235 1 18131634508810298899
220451 1 16630814313607848966
22061861 79 18186520973748893462
22393880 68 18040990765230446874
23402539 116 18272373049168909268
23522609 53 16915687936415616904
23559900 14 17845643863065915336
2838139 119 16153709851680359300
2916195 48 15719112478685389116
29717793 49 18131075905506115412
3004659 81 18411986824262254462
314173 85 15482675662990907816
34797466 226 17385734611929632718
351380 3 17703792526571459246
44062 13 16988553645740224871
497634 4 18186524315222549405
5104073 3 18342739602591389584
542803 24 18260547818285534976
543368 44 18334577996456166924
559249 180 16630805500471971389
5718773 13 13253928270661556245
59755656 215 16630528401639745557
633830 44 18411129255724465850
7495541 125 17346595275410119216
960060 61 18131070442117862596

>  <PUBCHEM_SHAPE_MULTIPOLES>  (1) 
456.61
14.58
1.58
1.46
10.29
0.25
-0.35
-1.65
-4.28
-0.46
0.1
-0.85
-0.21
-0.39

>  <PUBCHEM_SHAPE_SELFOVERLAP>  (1) 
979.946

>  <PUBCHEM_SHAPE_VOLUME>  (1) 
249.2

>  <PUBCHEM_COORDINATE_TYPE>  (1) 
2
5
10

$$$$
