37475
     RDKit          3D

 16 17  0  0  0  0  0  0  0  0999 V2000
    4.9747   -1.6402    0.1163 O   0  0  0  0  0  0  0  0  0  0  0  0
   -3.1288    0.8921    0.1011 N   0  0  0  0  0  0  0  0  0  0  0  0
   -2.1839   -1.3083   -0.0843 N   0  0  0  0  0  0  0  0  0  0  0  0
   -4.5009    0.4044    0.2123 C   0  0  0  0  0  0  0  0  0  0  0  0
   -4.6045   -0.9575   -0.4540 C   0  0  0  0  0  0  0  0  0  0  0  0
   -3.5243   -1.8724    0.0990 C   0  0  0  0  0  0  0  0  0  0  0  0
   -2.0694   -0.0088   -0.0581 C   0  0  0  0  0  0  0  0  0  0  0  0
   -2.9438    2.3292    0.2550 C   0  0  0  0  0  0  0  0  0  0  0  0
   -0.6673    0.4690   -0.2265 C   0  0  0  0  0  0  0  0  0  0  0  0
    0.3008   -0.3292    0.2041 C   0  0  0  0  0  0  0  0  0  0  0  0
    1.6898    0.0059    0.0863 C   0  0  0  0  0  0  0  0  0  0  0  0
    2.6782   -0.9907    0.1572 C   0  0  0  0  0  0  0  0  0  0  0  0
    2.0929    1.3392   -0.1002 C   0  0  0  0  0  0  0  0  0  0  0  0
    4.0295   -0.6637    0.0445 C   0  0  0  0  0  0  0  0  0  0  0  0
    3.4443    1.6661   -0.2125 C   0  0  0  0  0  0  0  0  0  0  0  0
    4.4126    0.6647   -0.1402 C   0  0  0  0  0  0  0  0  0  0  0  0
  1 14  1  0
  2  4  1  0
  2  7  1  0
  2  8  1  0
  3  6  1  0
  3  7  2  0
  4  5  1  0
  5  6  1  0
  7  9  1  0
  9 10  2  0
 10 11  1  0
 11 12  2  0
 11 13  1  0
 12 14  1  0
 13 15  2  0
 14 16  2  0
 15 16  1  0
M  END
>  <PUBCHEM_COMPOUND_CID>  (1) 
37475

>  <PUBCHEM_CONFORMER_RMSD>  (1) 
0.6

>  <PUBCHEM_CONFORMER_DIVERSEORDER>  (1) 
1
8
3
2
7
4
6
5
10
11
12
9

>  <PUBCHEM_MMFF94_PARTIAL_CHARGES>  (1) 
22
1 -0.53
10 -0.18
11 0.03
12 -0.15
13 -0.15
14 0.08
15 -0.15
16 -0.15
2 -0.79
26 0.15
27 0.15
28 0.15
29 0.15
3 -0.7
30 0.15
31 0.15
32 0.45
4 0.37
6 0.25
7 0.49
8 0.37
9 -0.14

>  <PUBCHEM_EFFECTIVE_ROTOR_COUNT>  (1) 
2.8

>  <PUBCHEM_PHARMACOPHORE_FEATURES>  (1) 
4
1 1 donor
3 2 3 7 cation
6 11 12 13 14 15 16 rings
6 2 3 4 5 6 7 rings

>  <PUBCHEM_HEAVY_ATOM_COUNT>  (1) 
16

>  <PUBCHEM_ATOM_DEF_STEREO_COUNT>  (1) 
0

>  <PUBCHEM_ATOM_UDEF_STEREO_COUNT>  (1) 
0

>  <PUBCHEM_BOND_DEF_STEREO_COUNT>  (1) 
0

>  <PUBCHEM_BOND_UDEF_STEREO_COUNT>  (1) 
1

>  <PUBCHEM_ISOTOPIC_ATOM_COUNT>  (1) 
0

>  <PUBCHEM_COMPONENT_COUNT>  (1) 
1

>  <PUBCHEM_CACTVS_TAUTO_COUNT>  (1) 
3

>  <PUBCHEM_CONFORMER_ID>  (1) 
0000926300000001

>  <PUBCHEM_MMFF94_ENERGY>  (1) 
45.3782

>  <PUBCHEM_FEATURE_SELFOVERLAP>  (1) 
20.297

>  <PUBCHEM_SHAPE_FINGERPRINT>  (1) 
10616163 171 18412546543593732423
10680689 15 17530965765647518773
11471102 20 18335138704884610684
12107183 9 17761491396129564770
12670546 56 18412539920568934945
12916754 54 18410856581452372625
13167823 11 18410009944382176002
13675066 3 17917986162138267194
14341114 176 18409174315492136833
15196674 1 18410292527354616164
15442244 35 18337673014519622768
15536298 74 18410855486267328136
17834072 33 18410574015295369654
17834074 16 18410576192807157630
18186145 218 17821721749862064834
19050596 39 18411138043317256689
19422 9 18409731772324707460
1986462 14 18409449172019112133
200 152 18272367598670781355
20279233 1 15841551872766048126
20281475 54 18261670390062325510
20300324 65 18342457071485252737
20645477 70 18411138022333420486
21065198 57 18410856572535253968
21267235 1 18410019827012181858
221490 88 18263370342307580802
22485316 2 18411698819959320806
22646028 1 18411698798500224119
2306618 200 18059863835699178249
23402539 116 18343576335794405805
23402655 69 18410013260434265932
23557571 272 18202573855840331077
23559900 14 18412257367566106088
29717793 49 18272930509716224967
312423 11 18335154106041404133
3545911 37 18409450305769321213
42 15 18410576179979998734
4214541 1 18410855430184950381
474 4 17532095075832741356
5104073 3 18411982472515996024
559249 180 18265891367513911074
573450 72 18410285883129945355
58051976 100 18409730651232995215
633830 44 17167866369832072112
67856867 119 18337104696094815600
7495541 125 17704067442895530944
77779 3 18410294726446501964
9709674 26 18412270527325211239
9971528 1 17967532389622036836

>  <PUBCHEM_SHAPE_MULTIPOLES>  (1) 
313.44
10.98
1.95
0.64
1.17
0.38
-0.01
-1.82
-0.21
-0.52
0.07
-0.07
0.01
-0.45

>  <PUBCHEM_SHAPE_SELFOVERLAP>  (1) 
656.333

>  <PUBCHEM_SHAPE_VOLUME>  (1) 
175.9

>  <PUBCHEM_COORDINATE_TYPE>  (1) 
2
5
10

$$$$
