37485
     RDKit          3D

 17 17  0  0  0  0  0  0  0  0999 V2000
    3.8966   -1.0470    0.4755 O   0  0  0  0  0  0  0  0  0  0  0  0
    2.5038   -0.0174    1.9419 O   0  0  0  0  0  0  0  0  0  0  0  0
   -0.6964   -2.9297   -0.2910 O   0  0  0  0  0  0  0  0  0  0  0  0
    1.2673    1.2251   -0.2163 N   0  0  0  0  0  0  0  0  0  0  0  0
   -0.9986    0.9298   -0.0723 N   0  0  0  0  0  0  0  0  0  0  0  0
   -3.3045    0.8661    0.0849 N   0  0  0  0  0  0  0  0  0  0  0  0
    0.3820   -0.9424   -0.2652 N   0  0  0  0  0  0  0  0  0  0  0  0
   -2.0703   -1.1436   -0.1043 N   0  0  0  0  0  0  0  0  0  0  0  0
    2.6512    0.8055   -0.3571 C   0  0  0  0  0  0  0  0  0  0  0  0
    2.7970    0.0442   -1.6756 C   0  0  0  0  0  0  0  0  0  0  0  0
    3.5411    2.0494   -0.3385 C   0  0  0  0  0  0  0  0  0  0  0  0
    2.9829   -0.1022    0.8191 C   0  0  0  0  0  0  0  0  0  0  0  0
    0.2456    0.3570   -0.1889 C   0  0  0  0  0  0  0  0  0  0  0  0
   -2.1377    0.1615   -0.0324 C   0  0  0  0  0  0  0  0  0  0  0  0
   -4.5837    0.2259    0.1409 C   0  0  0  0  0  0  0  0  0  0  0  0
   -0.7922   -1.7060   -0.2222 C   0  0  0  0  0  0  0  0  0  0  0  0
   -5.6841    1.2239    0.3016 C   0  0  0  0  0  0  0  0  0  0  0  0
  1 12  1  0
  2 12  2  0
  3 16  2  0
  4  9  1  0
  4 13  1  0
  5 13  1  0
  5 14  1  0
  6 14  1  0
  6 15  1  0
  7 13  2  0
  7 16  1  0
  8 14  2  0
  8 16  1  0
  9 10  1  0
  9 11  1  0
  9 12  1  0
 15 17  1  0
M  END
>  <PUBCHEM_COMPOUND_CID>  (1) 
37485

>  <PUBCHEM_CONFORMER_RMSD>  (1) 
0.6

>  <PUBCHEM_CONFORMER_DIVERSEORDER>  (1) 
1
107
87
33
97
130
99
101
141
110
118
95
88
69
75
109
126
64
53
123
132
117
48
128
2
81
135
28
136
54
121
34
94
124
93
113
73
66
78
84
119
51
43
79
129
15
72
63
56
74
71
105
115
80
30
120
10
77
89
86
100
45
104
90
127
31
62
3
92
60
61
52
98
17
82
20
96
83
67
65
116
47
112
44
40
27
57
55
42
91
102
133
8
23
103
76
50
122
138
29
5
9
125
24
58
21
4
38
14
18
70
32
114
68
13
106
22
108
59
36
131
16
111
85
39
25
134
35
49
12
140
26
46
139
137
37
11
7
6
41
19

>  <PUBCHEM_MMFF94_PARTIAL_CHARGES>  (1) 
18
1 -0.65
12 0.66
13 0.55
14 0.55
15 0.37
16 0.99
18 0.4
2 -0.57
25 0.4
26 0.4
29 0.5
3 -0.57
4 -0.82
5 -0.5
6 -0.82
7 -0.66
8 -0.66
9 0.43

>  <PUBCHEM_EFFECTIVE_ROTOR_COUNT>  (1) 
5

>  <PUBCHEM_PHARMACOPHORE_FEATURES>  (1) 
11
1 1 acceptor
1 2 acceptor
1 3 acceptor
1 4 donor
1 5 donor
1 6 donor
1 7 donor
1 8 donor
3 1 2 12 anion
3 9 10 11 hydrophobe
6 5 7 8 13 14 16 rings

>  <PUBCHEM_HEAVY_ATOM_COUNT>  (1) 
17

>  <PUBCHEM_ATOM_DEF_STEREO_COUNT>  (1) 
0

>  <PUBCHEM_ATOM_UDEF_STEREO_COUNT>  (1) 
0

>  <PUBCHEM_BOND_DEF_STEREO_COUNT>  (1) 
0

>  <PUBCHEM_BOND_UDEF_STEREO_COUNT>  (1) 
0

>  <PUBCHEM_ISOTOPIC_ATOM_COUNT>  (1) 
0

>  <PUBCHEM_COMPONENT_COUNT>  (1) 
1

>  <PUBCHEM_CACTVS_TAUTO_COUNT>  (1) 
17

>  <PUBCHEM_CONFORMER_ID>  (1) 
0000926D00000001

>  <PUBCHEM_MMFF94_ENERGY>  (1) 
44.5212

>  <PUBCHEM_FEATURE_SELFOVERLAP>  (1) 
56.17

>  <PUBCHEM_SHAPE_FINGERPRINT>  (1) 
11287383 113 15410886384492812453
11543360 7 15195556914796651373
12500047 106 18200592630607941430
12592029 89 18335424517646662307
12670546 56 17240473698578492141
12932764 1 17676477380708968780
13380535 76 18410577267145145527
13538477 17 18261953054576159174
13583140 156 17168703158785047001
13760787 19 17313678130145725051
14178342 30 18047737489169835224
14252887 29 12252188450383506161
15775835 57 18260267494624011652
16945 1 18410288116623721926
18186145 218 18130793326132238573
18222031 100 11530489934776468497
18522853 295 18411704266130716086
200 152 11023833859494236961
20279233 1 16630528457542813708
204376 136 18411704292375221451
20510252 161 18128828610527652067
20645476 183 17823716323926377831
20645477 56 18338802328619790037
20681677 155 18336831991451275162
212847 35 18272651238100311729
21524375 3 18272932691950137407
23402539 116 18131060537659748349
23558518 356 17613720735708430445
23559900 14 18131360717245270660
3071541 37 18336837377261455135
31174 14 12324242823259097350
34934 24 18263364849081728724
4072396 5 18335692790067711729
42630746 31 18270683065627293919
45790113 50 16370721500387812077
465052 167 17894638015342277435
495365 180 16988555814682838842
4990 188 17632302250700619581
5104073 3 18334573594050995881
522135 26 17894352163693651908
633830 44 18272937107234637901
69090 78 18411978087570683343
7364860 26 17914335676044356911
74978 22 18338796839883187580
7832392 63 18264208183074135380
81539 233 18261111821176149207
8272917 22 17167864110673831123
9999458 23 18113622253046697894

>  <PUBCHEM_SHAPE_MULTIPOLES>  (1) 
307.34
8.89
1.94
1.03
9.82
0.99
0.14
-4.14
0.97
-0.07
-0.22
-1.18
0.03
-0.51

>  <PUBCHEM_SHAPE_SELFOVERLAP>  (1) 
628.532

>  <PUBCHEM_SHAPE_VOLUME>  (1) 
174.8

>  <PUBCHEM_COORDINATE_TYPE>  (1) 
2
5
10

$$$$
