37487
     RDKit          3D

 17 18  0  0  0  0  0  0  0  0999 V2000
    0.4648   -2.8683   -0.0001 Cl  0  0  0  0  0  0  0  0  0  0  0  0
    5.9940    1.5291    0.0009 Cl  0  0  0  0  0  0  0  0  0  0  0  0
   -1.6523   -0.9938   -0.0002 N   0  0  0  0  0  0  0  0  0  0  0  0
   -0.4555   -0.3793    0.0004 N   0  0  0  0  0  0  0  0  0  0  0  0
    1.9496   -0.4678    0.0001 C   0  0  0  0  0  0  0  0  0  0  0  0
   -2.8428   -0.2531    0.0000 C   0  0  0  0  0  0  0  0  0  0  0  0
    2.0402    0.9242    0.0003 C   0  0  0  0  0  0  0  0  0  0  0  0
    3.1098   -1.2421   -0.0002 C   0  0  0  0  0  0  0  0  0  0  0  0
   -4.0802   -0.9060    0.0004 C   0  0  0  0  0  0  0  0  0  0  0  0
   -2.8041    1.1455   -0.0005 C   0  0  0  0  0  0  0  0  0  0  0  0
    0.6457   -1.1118    0.0001 C   0  0  0  0  0  0  0  0  0  0  0  0
    3.2909    1.5418   -0.0001 C   0  0  0  0  0  0  0  0  0  0  0  0
    4.3605   -0.6245   -0.0005 C   0  0  0  0  0  0  0  0  0  0  0  0
    4.4511    0.7675   -0.0005 C   0  0  0  0  0  0  0  0  0  0  0  0
   -5.2646   -0.1691    0.0003 C   0  0  0  0  0  0  0  0  0  0  0  0
   -3.9884    1.8824   -0.0004 C   0  0  0  0  0  0  0  0  0  0  0  0
   -5.2187    1.2250    0.0001 C   0  0  0  0  0  0  0  0  0  0  0  0
  1 11  1  0
  2 14  1  0
  3  4  1  0
  3  6  1  0
  4 11  2  0
  5  7  2  0
  5  8  1  0
  5 11  1  0
  6  9  2  0
  6 10  1  0
  7 12  1  0
  8 13  2  0
  9 15  1  0
 10 16  2  0
 12 14  2  0
 13 14  1  0
 15 17  2  0
 16 17  1  0
M  END
>  <PUBCHEM_COMPOUND_CID>  (1) 
37487

>  <PUBCHEM_CONFORMER_RMSD>  (1) 
0.6

>  <PUBCHEM_CONFORMER_DIVERSEORDER>  (1) 
1
4
2
3

>  <PUBCHEM_MMFF94_PARTIAL_CHARGES>  (1) 
27
1 -0.21
10 -0.15
11 0.57
12 -0.15
13 -0.15
14 0.18
15 -0.15
16 -0.15
17 -0.15
18 0.15
19 0.15
2 -0.18
20 0.15
21 0.15
22 0.15
23 0.15
24 0.4
25 0.15
26 0.15
27 0.15
3 -0.46
4 -0.49
5 0.09
6 0.1
7 -0.15
8 -0.15
9 -0.15

>  <PUBCHEM_EFFECTIVE_ROTOR_COUNT>  (1) 
3

>  <PUBCHEM_PHARMACOPHORE_FEATURES>  (1) 
4
1 3 donor
1 4 acceptor
6 5 7 8 12 13 14 rings
6 6 9 10 15 16 17 rings

>  <PUBCHEM_HEAVY_ATOM_COUNT>  (1) 
17

>  <PUBCHEM_ATOM_DEF_STEREO_COUNT>  (1) 
0

>  <PUBCHEM_ATOM_UDEF_STEREO_COUNT>  (1) 
0

>  <PUBCHEM_BOND_DEF_STEREO_COUNT>  (1) 
0

>  <PUBCHEM_BOND_UDEF_STEREO_COUNT>  (1) 
1

>  <PUBCHEM_ISOTOPIC_ATOM_COUNT>  (1) 
0

>  <PUBCHEM_COMPONENT_COUNT>  (1) 
1

>  <PUBCHEM_CACTVS_TAUTO_COUNT>  (1) 
1

>  <PUBCHEM_CONFORMER_ID>  (1) 
0000926F00000001

>  <PUBCHEM_MMFF94_ENERGY>  (1) 
54.6572

>  <PUBCHEM_FEATURE_SELFOVERLAP>  (1) 
20.297

>  <PUBCHEM_SHAPE_FINGERPRINT>  (1) 
10411042 1 17762338007895531718
12107183 9 17688869731346949593
12507557 5 17749391494436965389
12555020 224 9367341497608618409
12596602 18 16950563319719267688
12916748 109 18410860970655631130
13081056 2 18410856546913266749
13740256 8 9367344842664967818
13785724 45 17833264225995971738
14251764 18 18260260863869545152
14252887 29 12613031661165480370
14341114 176 18335709325275004833
14528608 73 18412823590521736975
15188451 53 15502668164855440721
15196674 1 18410855438664102181
20281389 69 18334010614682058360
20645477 56 18411981398695017363
20645477 70 17988649536772656534
212847 35 18412542111577210544
21652331 79 18408885122728435045
23402539 116 18272364312946862724
23402655 69 18273213105948385870
23559900 14 18126000456094449959
245318 6 17171539984315661580
26918003 58 11025792106819624983
2916195 48 18200587107464933776
293599 30 18410857685554249884
335352 9 18410857664607083862
351380 180 18408885143986779297
351380 3 9727637198016678012
3545911 37 18411983576259338617
4214541 1 18410575076458311653
4325135 7 18271804662029543279
474 4 18113903779362283133
5104073 3 18261678077937754715
542803 24 17346882238837919785
59682541 35 18261684765913887089
59755656 520 18187078490389648826
633830 44 18412822456518970022
77779 3 18410856542787065455
8272917 22 18341615850131822990
90127 26 18335995176654760658
9709674 26 18338522941614629879

>  <PUBCHEM_SHAPE_MULTIPOLES>  (1) 
343.63
13.35
2.22
0.61
1.2
0.78
0
-6.87
0
-0.42
0
-0.03
0
0

>  <PUBCHEM_SHAPE_SELFOVERLAP>  (1) 
713.324

>  <PUBCHEM_SHAPE_VOLUME>  (1) 
195

>  <PUBCHEM_COORDINATE_TYPE>  (1) 
2
5
10

$$$$
