37505
     RDKit          3D

 15 15  0  0  1  0  0  0  0  0999 V2000
   -0.1619    1.0863   -1.9358 O   0  0  0  0  0  0  0  0  0  0  0  0
    3.4545   -2.2860   -0.3891 O   0  0  0  0  0  0  0  0  0  0  0  0
   -2.4838    0.5879   -0.3097 N   0  0  0  0  0  0  0  0  0  0  0  0
   -3.5017   -0.3010    0.2600 C   0  0  0  0  0  0  0  0  0  0  0  0
   -1.1522    0.1547    0.0783 C   0  0  0  0  0  0  0  0  0  0  0  0
   -0.0832    1.0830   -0.5110 C   0  0  0  0  0  0  0  0  0  0  0  0
   -4.8834    0.1896   -0.1853 C   0  0  0  0  0  0  0  0  0  0  0  0
   -3.2553   -1.7213   -0.2599 C   0  0  0  0  0  0  0  0  0  0  0  0
   -3.4011   -0.2751    1.7897 C   0  0  0  0  0  0  0  0  0  0  0  0
    1.3100    0.6451   -0.1155 C   0  0  0  0  0  0  0  0  0  0  0  0
    1.7350   -0.6313   -0.4409 C   0  0  0  0  0  0  0  0  0  0  0  0
    2.1297    1.5308    0.5626 C   0  0  0  0  0  0  0  0  0  0  0  0
    3.0197   -1.0349   -0.0768 C   0  0  0  0  0  0  0  0  0  0  0  0
    3.4142    1.1273    0.9267 C   0  0  0  0  0  0  0  0  0  0  0  0
    3.8593   -0.1553    0.6068 C   0  0  0  0  0  0  0  0  0  0  0  0
  1  6  1  0
  2 13  1  0
  3  4  1  0
  3  5  1  0
  4  7  1  0
  4  8  1  0
  4  9  1  0
  5  6  1  0
  6 10  1  0
 10 11  2  0
 10 12  1  0
 11 13  1  0
 12 14  2  0
 13 15  2  0
 14 15  1  0
M  END
>  <PUBCHEM_COMPOUND_CID>  (1) 
37505

>  <PUBCHEM_CONFORMER_RMSD>  (1) 
0.6

>  <PUBCHEM_CONFORMER_DIVERSEORDER>  (1) 
3
13
12
8
1
10
18
17
2
23
16
22
24
15
28
26
11
20
25
7
27
4
21
29
9
5
14
19
6

>  <PUBCHEM_MMFF94_PARTIAL_CHARGES>  (1) 
19
1 -0.68
10 -0.14
11 -0.15
12 -0.15
13 0.08
14 -0.15
15 -0.15
16 0.36
2 -0.53
29 0.15
3 -0.9
30 0.15
31 0.4
32 0.15
33 0.15
34 0.45
4 0.27
5 0.27
6 0.42

>  <PUBCHEM_EFFECTIVE_ROTOR_COUNT>  (1) 
4

>  <PUBCHEM_PHARMACOPHORE_FEATURES>  (1) 
7
1 1 acceptor
1 1 donor
1 2 donor
1 3 cation
1 3 donor
4 4 7 8 9 hydrophobe
6 10 11 12 13 14 15 rings

>  <PUBCHEM_HEAVY_ATOM_COUNT>  (1) 
15

>  <PUBCHEM_ATOM_DEF_STEREO_COUNT>  (1) 
0

>  <PUBCHEM_ATOM_UDEF_STEREO_COUNT>  (1) 
1

>  <PUBCHEM_BOND_DEF_STEREO_COUNT>  (1) 
0

>  <PUBCHEM_BOND_UDEF_STEREO_COUNT>  (1) 
0

>  <PUBCHEM_ISOTOPIC_ATOM_COUNT>  (1) 
0

>  <PUBCHEM_COMPONENT_COUNT>  (1) 
1

>  <PUBCHEM_CACTVS_TAUTO_COUNT>  (1) 
3

>  <PUBCHEM_CONFORMER_ID>  (1) 
0000928100000003

>  <PUBCHEM_MMFF94_ENERGY>  (1) 
32.7847

>  <PUBCHEM_FEATURE_SELFOVERLAP>  (1) 
35.522

>  <PUBCHEM_SHAPE_FINGERPRINT>  (1) 
10465860 71 16515696528068283703
10618630 7 18040715857258666668
10751810 167 15574716885169122321
11543360 7 11819283281939693673
12251169 10 18131630101456441524
12670546 56 17632576028716231681
12707595 3 16805609204413511669
13296908 3 18187080654762424581
13533116 47 18060700576848602923
13583140 156 17774430711311814633
13675066 3 18260552247040473513
14115302 16 14634868656403421216
14252887 29 18333734628177277384
14289901 80 18342738550208649129
14386348 63 18040154015391165547
15375358 24 18186513328416605307
15501101 241 18409729586339562036
18915474 69 14057004948500188017
19107657 162 18040722497441727867
19141452 34 18408884049392695551
200 152 17846489357959439525
20279233 1 18334857238286786139
20281407 28 18333734602233302572
20281475 54 18409735049374217918
20339313 130 17531257191858044445
20361792 2 17022901276453024709
20432913 95 18411983563511606587
20645477 70 18411975841144791927
20871998 22 18334011657968416004
21065199 12 18343020008226828753
21524375 3 12319741362219868205
22169311 21 18411412942994436187
22485316 2 18411133649734524363
23048698 100 17703791431127828617
231179 274 12175625040377809674
23382010 3 12396595068906598680
23402539 116 16515676720127513796
23557571 272 17676478415880905708
23559900 14 18341889701504237712
26918003 58 18342733026938455873
276578 36 14620800396662563444
31174 14 18341604911261264688
33824 294 18411132541759926482
4047638 21 9871746901545520692
42 15 18411702088761645065
581208 293 18409164454505551696
6333272 397 13182730472571168403
81228 2 17531806827460658877
9709674 26 18336829800712551435

>  <PUBCHEM_SHAPE_MULTIPOLES>  (1) 
291.97
8.9
1.63
1.18
4.87
0.68
0.02
1.89
2
-1.26
-0.16
0.51
-0.26
0.49

>  <PUBCHEM_SHAPE_SELFOVERLAP>  (1) 
591.559

>  <PUBCHEM_SHAPE_VOLUME>  (1) 
172.3

>  <PUBCHEM_COORDINATE_TYPE>  (1) 
2
5
10

$$$$
