37508
     RDKit          3D

  8  7  0  0  0  0  0  0  0  0999 V2000
    1.1712   -0.4858    0.7672 O   0  0  0  0  0  0  0  0  0  0  0  0
   -1.4829   -0.2596   -1.2900 O   0  0  0  0  0  0  0  0  0  0  0  0
    0.4167    0.4639    0.0273 C   0  0  0  0  0  0  0  0  0  0  0  0
    1.1120    0.6890   -1.3158 C   0  0  0  0  0  0  0  0  0  0  0  0
    0.3698    1.7634    0.8256 C   0  0  0  0  0  0  0  0  0  0  0  0
   -1.0038   -0.0797   -0.1688 C   0  0  0  0  0  0  0  0  0  0  0  0
   -1.8305   -0.3578    1.0638 C   0  0  0  0  0  0  0  0  0  0  0  0
    1.2475   -1.7335    0.0906 C   0  0  0  0  0  0  0  0  0  0  0  0
  1  3  1  0
  1  8  1  0
  2  6  2  0
  3  4  1  0
  3  5  1  0
  3  6  1  0
  6  7  1  0
M  END
>  <PUBCHEM_COMPOUND_CID>  (1) 
37508

>  <PUBCHEM_CONFORMER_RMSD>  (1) 
0.4

>  <PUBCHEM_CONFORMER_DIVERSEORDER>  (1) 
1
3
4
8
12
11
6
7
5
2
10
9

>  <PUBCHEM_MMFF94_PARTIAL_CHARGES>  (1) 
6
1 -0.56
2 -0.57
3 0.34
6 0.45
7 0.06
8 0.28

>  <PUBCHEM_EFFECTIVE_ROTOR_COUNT>  (1) 
2

>  <PUBCHEM_PHARMACOPHORE_FEATURES>  (1) 
3
1 1 acceptor
1 2 acceptor
3 3 4 5 hydrophobe

>  <PUBCHEM_HEAVY_ATOM_COUNT>  (1) 
8

>  <PUBCHEM_ATOM_DEF_STEREO_COUNT>  (1) 
0

>  <PUBCHEM_ATOM_UDEF_STEREO_COUNT>  (1) 
0

>  <PUBCHEM_BOND_DEF_STEREO_COUNT>  (1) 
0

>  <PUBCHEM_BOND_UDEF_STEREO_COUNT>  (1) 
0

>  <PUBCHEM_ISOTOPIC_ATOM_COUNT>  (1) 
0

>  <PUBCHEM_COMPONENT_COUNT>  (1) 
1

>  <PUBCHEM_CACTVS_TAUTO_COUNT>  (1) 
2

>  <PUBCHEM_CONFORMER_ID>  (1) 
0000928400000001

>  <PUBCHEM_MMFF94_ENERGY>  (1) 
23.3027

>  <PUBCHEM_FEATURE_SELFOVERLAP>  (1) 
15.223

>  <PUBCHEM_SHAPE_FINGERPRINT>  (1) 
137420 1 12838562652741126482
18185500 45 18130772465233501679
21040471 1 17758128376559839736
24536 1 17459173213962370701
29004967 10 18334013856727843098
5084963 1 17534901084945274256
5943 1 14254388219562457940
68250623 7 17043798448342434822

>  <PUBCHEM_SHAPE_MULTIPOLES>  (1) 
152.9
1.96
1.55
1.27
0.74
0
-0.32
0.45
0.01
-0.67
0.43
0.09
-0.13
-0.19

>  <PUBCHEM_SHAPE_SELFOVERLAP>  (1) 
285.028

>  <PUBCHEM_SHAPE_VOLUME>  (1) 
97.4

>  <PUBCHEM_COORDINATE_TYPE>  (1) 
2
5
10

$$$$
