37514
     RDKit          3D

 10 10  0  0  1  0  0  0  0  0999 V2000
   -2.8519    0.3106    0.1557 O   0  0  0  0  0  0  0  0  0  0  0  0
   -0.5522   -0.0497   -0.2692 C   0  0  0  0  0  0  0  0  0  0  0  0
   -1.8110   -0.6680    0.3313 C   0  0  0  0  0  0  0  0  0  0  0  0
   -0.7512    1.4097    0.0835 C   0  0  0  0  0  0  0  0  0  0  0  0
    0.7429   -0.6354    0.2649 C   0  0  0  0  0  0  0  0  0  0  0  0
   -2.2417    1.5786   -0.1275 C   0  0  0  0  0  0  0  0  0  0  0  0
    1.9615    0.1293   -0.2535 C   0  0  0  0  0  0  0  0  0  0  0  0
   -2.2290   -1.9713   -0.3255 C   0  0  0  0  0  0  0  0  0  0  0  0
    3.2609   -0.4418    0.3138 C   0  0  0  0  0  0  0  0  0  0  0  0
    4.4717    0.3380   -0.1736 C   0  0  0  0  0  0  0  0  0  0  0  0
  1  3  1  0
  1  6  1  0
  2  3  1  0
  2  4  1  0
  2  5  1  0
  3  8  1  0
  4  6  1  0
  5  7  1  0
  7  9  1  0
  9 10  1  0
M  END
>  <PUBCHEM_COMPOUND_CID>  (1) 
37514

>  <PUBCHEM_CONFORMER_RMSD>  (1) 
0.6

>  <PUBCHEM_CONFORMER_DIVERSEORDER>  (1) 
1
20
19
5
6
14
8
16
15
13
3
18
7
2
17
9
10
4
12
11

>  <PUBCHEM_MMFF94_PARTIAL_CHARGES>  (1) 
3
1 -0.56
3 0.28
6 0.28

>  <PUBCHEM_EFFECTIVE_ROTOR_COUNT>  (1) 
4

>  <PUBCHEM_PHARMACOPHORE_FEATURES>  (1) 
3
1 1 acceptor
1 10 hydrophobe
5 1 2 3 4 6 rings

>  <PUBCHEM_HEAVY_ATOM_COUNT>  (1) 
10

>  <PUBCHEM_ATOM_DEF_STEREO_COUNT>  (1) 
2

>  <PUBCHEM_ATOM_UDEF_STEREO_COUNT>  (1) 
0

>  <PUBCHEM_BOND_DEF_STEREO_COUNT>  (1) 
0

>  <PUBCHEM_BOND_UDEF_STEREO_COUNT>  (1) 
0

>  <PUBCHEM_ISOTOPIC_ATOM_COUNT>  (1) 
0

>  <PUBCHEM_COMPONENT_COUNT>  (1) 
1

>  <PUBCHEM_CACTVS_TAUTO_COUNT>  (1) 
1

>  <PUBCHEM_CONFORMER_ID>  (1) 
0000928A00000001

>  <PUBCHEM_MMFF94_ENERGY>  (1) 
11.5769

>  <PUBCHEM_FEATURE_SELFOVERLAP>  (1) 
15.223

>  <PUBCHEM_SHAPE_FINGERPRINT>  (1) 
12932764 1 17560791144054108630
13024252 1 16805325491990753577
14325111 11 18408886213892467946
15669948 3 18411129238745361922
15775835 57 18260549979002368032
20645464 45 18060425681276122815
20645477 56 18339646646186159020
20871998 184 18272655675002008071
21061003 4 16988567952060120122
23380061 127 18410006654885340814
23402539 116 18343011182432973989
23552423 10 18116152353618696765
3248919 1 17417814998321360938
369184 2 16443066075619076321
6333449 129 18341891879131628493
75552 356 18410012139009899700

>  <PUBCHEM_SHAPE_MULTIPOLES>  (1) 
199.93
6.26
1.6
0.67
7.57
0.11
0
-0.06
0.13
-1.63
0.11
0.03
0.03
-0.18

>  <PUBCHEM_SHAPE_SELFOVERLAP>  (1) 
379.785

>  <PUBCHEM_SHAPE_VOLUME>  (1) 
126.2

>  <PUBCHEM_COORDINATE_TYPE>  (1) 
2
5
10

$$$$
