37524
     RDKit          3D

 11 11  0  0  0  0  0  0  0  0999 V2000
    0.0184    1.2219   -0.4516 N   0  0  0  0  0  0  0  0  0  0  0  0
   -0.0538   -3.0487   -0.0608 N   0  0  0  0  0  0  0  0  0  0  0  0
    1.2747    0.5582   -0.0503 C   0  0  0  0  0  0  0  0  0  0  0  0
   -1.2561    0.5940   -0.0501 C   0  0  0  0  0  0  0  0  0  0  0  0
    1.2348   -0.9647   -0.3024 C   0  0  0  0  0  0  0  0  0  0  0  0
   -1.2594   -0.9295   -0.3020 C   0  0  0  0  0  0  0  0  0  0  0  0
   -0.0222   -1.6237    0.2721 C   0  0  0  0  0  0  0  0  0  0  0  0
    1.6502    0.8759    1.4079 C   0  0  0  0  0  0  0  0  0  0  0  0
    2.3900    1.1635   -0.9352 C   0  0  0  0  0  0  0  0  0  0  0  0
   -2.3537    1.2303   -0.9355 C   0  0  0  0  0  0  0  0  0  0  0  0
   -1.6227    0.9230    1.4079 C   0  0  0  0  0  0  0  0  0  0  0  0
  1  3  1  0
  1  4  1  0
  2  7  1  0
  3  5  1  0
  3  8  1  0
  3  9  1  0
  4  6  1  0
  4 10  1  0
  4 11  1  0
  5  7  1  0
  6  7  1  0
M  END
>  <PUBCHEM_COMPOUND_CID>  (1) 
37524

>  <PUBCHEM_CONFORMER_RMSD>  (1) 
0.4

>  <PUBCHEM_CONFORMER_DIVERSEORDER>  (1) 
1
2
3
6
4
5

>  <PUBCHEM_MMFF94_PARTIAL_CHARGES>  (1) 
8
1 -0.9
17 0.36
2 -0.99
3 0.27
30 0.36
31 0.36
4 0.27
7 0.27

>  <PUBCHEM_EFFECTIVE_ROTOR_COUNT>  (1) 
1.2

>  <PUBCHEM_PHARMACOPHORE_FEATURES>  (1) 
7
1 1 cation
1 1 donor
1 2 cation
1 2 donor
3 3 8 9 hydrophobe
3 4 10 11 hydrophobe
6 1 3 4 5 6 7 rings

>  <PUBCHEM_HEAVY_ATOM_COUNT>  (1) 
11

>  <PUBCHEM_ATOM_DEF_STEREO_COUNT>  (1) 
0

>  <PUBCHEM_ATOM_UDEF_STEREO_COUNT>  (1) 
0

>  <PUBCHEM_BOND_DEF_STEREO_COUNT>  (1) 
0

>  <PUBCHEM_BOND_UDEF_STEREO_COUNT>  (1) 
0

>  <PUBCHEM_ISOTOPIC_ATOM_COUNT>  (1) 
0

>  <PUBCHEM_COMPONENT_COUNT>  (1) 
1

>  <PUBCHEM_CACTVS_TAUTO_COUNT>  (1) 
1

>  <PUBCHEM_CONFORMER_ID>  (1) 
0000929400000001

>  <PUBCHEM_MMFF94_ENERGY>  (1) 
10.8757

>  <PUBCHEM_FEATURE_SELFOVERLAP>  (1) 
35.52

>  <PUBCHEM_SHAPE_FINGERPRINT>  (1) 
100427 49 17402057699235574814
12423570 1 13529871298569705976
13024252 1 15359099506498208092
14817 1 17117139455770145795
16945 1 17489587861380701453
18185500 45 17695343677180739347
20711985 344 17904479949891058638
21040471 1 18410003373108353084
21922407 69 16879059944029220272
21930827 45 18199760317533187056
23235685 24 18339933691751250881
23552423 10 18194679263879420301
23559900 14 18272380789491540756
241688 4 18410293575326707971
2748010 2 18408608049797628431
5084963 1 18413107259941892652
81228 2 17978794845527245339

>  <PUBCHEM_SHAPE_MULTIPOLES>  (1) 
216.41
2.78
2.29
1.18
0.03
2.15
-0.35
-1.55
0.42
-0.03
0.11
0
-0.52
0

>  <PUBCHEM_SHAPE_SELFOVERLAP>  (1) 
420.576

>  <PUBCHEM_SHAPE_VOLUME>  (1) 
130.6

>  <PUBCHEM_COORDINATE_TYPE>  (1) 
2
5
10

$$$$
