37529
     RDKit          3D

 26 28  0  0  0  0  0  0  0  0999 V2000
    8.1479   -2.5399   -0.3103 F   0  0  0  0  0  0  0  0  0  0  0  0
   -7.2841   -3.3551   -0.7914 F   0  0  0  0  0  0  0  0  0  0  0  0
   -3.5524    0.9583    1.8216 O   0  0  0  0  0  0  0  0  0  0  0  0
   -0.1562    2.7390   -0.2272 N   0  0  0  0  0  0  0  0  0  0  0  0
    1.0069    1.8950   -0.4952 C   0  0  0  0  0  0  0  0  0  0  0  0
    3.5483    0.6538    0.3916 C   0  0  0  0  0  0  0  0  0  0  0  0
    1.0147    0.7011    0.4650 C   0  0  0  0  0  0  0  0  0  0  0  0
    2.2903    2.7213   -0.3617 C   0  0  0  0  0  0  0  0  0  0  0  0
    2.2553   -0.1699    0.2621 C   0  0  0  0  0  0  0  0  0  0  0  0
    3.5342    1.8561   -0.5682 C   0  0  0  0  0  0  0  0  0  0  0  0
    4.7859   -0.2047    0.2032 C   0  0  0  0  0  0  0  0  0  0  0  0
   -1.3889    1.9862   -0.3975 C   0  0  0  0  0  0  0  0  0  0  0  0
    5.3758   -0.8227    1.3033 C   0  0  0  0  0  0  0  0  0  0  0  0
    5.3266   -0.3717   -1.0697 C   0  0  0  0  0  0  0  0  0  0  0  0
   -2.5973    2.8745   -0.0952 C   0  0  0  0  0  0  0  0  0  0  0  0
   -3.9234    2.1265   -0.2573 C   0  0  0  0  0  0  0  0  0  0  0  0
    6.5127   -1.6120    1.1296 C   0  0  0  0  0  0  0  0  0  0  0  0
    6.4635   -1.1612   -1.2433 C   0  0  0  0  0  0  0  0  0  0  0  0
    7.0565   -1.7813   -0.1437 C   0  0  0  0  0  0  0  0  0  0  0  0
   -4.0859    0.9667    0.7148 C   0  0  0  0  0  0  0  0  0  0  0  0
   -4.9404   -0.1870    0.3135 C   0  0  0  0  0  0  0  0  0  0  0  0
   -6.0004    0.0395   -0.5356 C   0  0  0  0  0  0  0  0  0  0  0  0
   -4.6373   -1.4370    0.8056 C   0  0  0  0  0  0  0  0  0  0  0  0
   -6.7992   -1.0403   -0.9124 C   0  0  0  0  0  0  0  0  0  0  0  0
   -5.4361   -2.5167    0.4287 C   0  0  0  0  0  0  0  0  0  0  0  0
   -6.5170   -2.3184   -0.4302 C   0  0  0  0  0  0  0  0  0  0  0  0
  1 19  1  0
  2 26  1  0
  3 20  2  0
  4  5  1  0
  4 12  1  0
  5  7  1  0
  5  8  1  0
  6  9  1  0
  6 10  1  0
  6 11  1  0
  7  9  1  0
  8 10  1  0
 11 13  2  0
 11 14  1  0
 12 15  1  0
 13 17  1  0
 14 18  2  0
 15 16  1  0
 16 20  1  0
 17 19  2  0
 18 19  1  0
 20 21  1  0
 21 22  2  0
 21 23  1  0
 22 24  1  0
 23 25  2  0
 24 26  2  0
 25 26  1  0
M  END
>  <PUBCHEM_COMPOUND_CID>  (1) 
37529

>  <PUBCHEM_CONFORMER_RMSD>  (1) 
1

>  <PUBCHEM_CONFORMER_DIVERSEORDER>  (1) 
1
29
94
69
16
32
74
76
9
97
50
102
26
49
2
63
47
66
5
99
18
60
82
58
84
107
109
41
113
59
13
22
87
25
43
100
98
56
111
110
90
8
65
7
105
93
17
86
78
4
37
77
89
15
96
101
39
83
64
106
34
6
71
45
54
108
115
70
33
35
11
10
57
72
12
112
85
27
36
81
88
68
95
53
46
91
3
92
51
114
52
55
73
28
30
67
103
104
80
23
75
79
19
31
44
21
62
24
14
20
48
40
61
42
38

>  <PUBCHEM_MMFF94_PARTIAL_CHARGES>  (1) 
30
1 -0.19
11 -0.14
12 0.27
13 -0.15
14 -0.15
16 0.06
17 -0.15
18 -0.15
19 0.19
2 -0.19
20 0.42
21 0.09
22 -0.15
23 -0.15
24 -0.15
25 -0.15
26 0.19
3 -0.57
37 0.36
4 -0.9
42 0.15
43 0.15
46 0.15
47 0.15
48 0.15
49 0.15
5 0.27
50 0.15
51 0.15
6 0.14

>  <PUBCHEM_EFFECTIVE_ROTOR_COUNT>  (1) 
8.2

>  <PUBCHEM_PHARMACOPHORE_FEATURES>  (1) 
6
1 3 acceptor
1 4 cation
1 4 donor
6 11 13 14 17 18 19 rings
6 21 22 23 24 25 26 rings
6 5 6 7 8 9 10 rings

>  <PUBCHEM_HEAVY_ATOM_COUNT>  (1) 
26

>  <PUBCHEM_ATOM_DEF_STEREO_COUNT>  (1) 
0

>  <PUBCHEM_ATOM_UDEF_STEREO_COUNT>  (1) 
0

>  <PUBCHEM_BOND_DEF_STEREO_COUNT>  (1) 
0

>  <PUBCHEM_BOND_UDEF_STEREO_COUNT>  (1) 
0

>  <PUBCHEM_ISOTOPIC_ATOM_COUNT>  (1) 
0

>  <PUBCHEM_COMPONENT_COUNT>  (1) 
1

>  <PUBCHEM_CACTVS_TAUTO_COUNT>  (1) 
2

>  <PUBCHEM_CONFORMER_ID>  (1) 
0000929900000001

>  <PUBCHEM_MMFF94_ENERGY>  (1) 
50.7881

>  <PUBCHEM_FEATURE_SELFOVERLAP>  (1) 
30.446

>  <PUBCHEM_SHAPE_FINGERPRINT>  (1) 
10 15 12391511996966206509
10050765 1 18408885139724623508
10622 236 17626091307453736847
10669705 251 18131075922106639374
10740516 88 17415293737325594590
10930396 42 14620801505724656723
11273773 46 18261673762435001563
11393246 34 18412546487805915751
11463208 1 17985839125155407630
11963148 33 18263076614138172226
12124843 1 17895469345408065815
12645989 146 18409735070791200870
12895836 83 11891328769034812265
12988421 55 12535345658526458733
1361 4 18193557998411263823
13690498 29 17822009766380591981
13782708 43 18273214200917211080
14068700 675 18410012126167930177
14117953 113 18411412900614482487
14344974 204 18343586222303524838
14598715 104 11242550963623969566
14671636 106 18412826885452814246
14931854 50 17749660866501933995
15183329 4 18187366519391332690
15188451 53 18131067138982407553
15352257 5 18341615859053988902
15510800 12 18272935994505610687
15519825 34 15266487574104181655
16126227 98 9007061279834564517
17627616 140 17822845365195122707
19301676 85 18120650503856864939
19841028 212 18337669849561469931
20028762 73 18412825781098073678
20691028 202 9439414527378939751
208703 8 18410285952134641647
21424621 283 9511461130131548260
21585483 132 18187074062141334154
21623969 137 17346600734102367582
21756936 100 8934992664652508129
21781051 124 17917721159036663302
23389318 12 18259990401231335636
23522609 53 18048351948704253380
270888 7 9007070058505169649
3004659 81 18040709307977210041
3627633 1 18338516318390619732
397830 11 18130211723558175752
406291 66 18340485660011704463
444769 64 18335425648019724097
474113 269 18272078449336833727
5104073 3 18131638906520084105
5718773 13 18412260653447929645
5874358 3 17386827458253657930
59682541 52 13695861490468061960
6009941 240 17488466265210938473
6201460 15 17410479310488004399
636775 8 18270690754125273334
6712543 237 16415490372014880191
8863177 126 18411418419146713304
96874 4 18407754837369904410
9896288 288 17844533197292234649

>  <PUBCHEM_SHAPE_MULTIPOLES>  (1) 
509.67
23.97
3.58
1.11
4.37
0.17
0.15
-25.04
-3.06
-2.88
-0.51
0.35
-0.24
-0.99

>  <PUBCHEM_SHAPE_SELFOVERLAP>  (1) 
1076.988

>  <PUBCHEM_SHAPE_VOLUME>  (1) 
285.3

>  <PUBCHEM_COORDINATE_TYPE>  (1) 
2
5
10

$$$$
