37520
     RDKit          3D

 13 12  0  0  1  0  0  0  0  0999 V2000
   -2.8129    0.3082    0.0084 N   0  0  0  0  0  0  0  0  0  0  0  0
    3.1406    0.0351   -0.0172 N   0  0  0  0  0  0  0  0  0  0  0  0
   -1.6357   -0.5302    0.3860 C   0  0  0  0  0  0  0  0  0  0  0  0
    1.9395    0.8116   -0.4209 C   0  0  0  0  0  0  0  0  0  0  0  0
   -0.3889   -0.0970   -0.3314 C   0  0  0  0  0  0  0  0  0  0  0  0
   -4.0651   -0.1592    0.7563 C   0  0  0  0  0  0  0  0  0  0  0  0
   -2.5584    1.7770    0.3594 C   0  0  0  0  0  0  0  0  0  0  0  0
   -3.0811    0.2083   -1.4960 C   0  0  0  0  0  0  0  0  0  0  0  0
   -1.9778   -1.9827    0.0729 C   0  0  0  0  0  0  0  0  0  0  0  0
    0.7010    0.3747    0.2918 C   0  0  0  0  0  0  0  0  0  0  0  0
    2.9494   -1.4570   -0.3187 C   0  0  0  0  0  0  0  0  0  0  0  0
    4.3820    0.5217   -0.7762 C   0  0  0  0  0  0  0  0  0  0  0  0
    3.4073    0.1894    1.4857 C   0  0  0  0  0  0  0  0  0  0  0  0
  1  3  1  0
  1  6  1  0
  1  7  1  0
  1  8  1  0
  2  4  1  0
  2 11  1  0
  2 12  1  0
  2 13  1  0
  3  5  1  0
  3  9  1  0
  4 10  1  0
  5 10  2  0
M  CHG  2   1   1   2   1
M  END
>  <PUBCHEM_COMPOUND_CID>  (1) 
37520

>  <PUBCHEM_CONFORMER_RMSD>  (1) 
0.6

>  <PUBCHEM_CONFORMER_DIVERSEORDER>  (1) 
1
15
9
21
10
22
4
14
18
3
6
20
13
2
11
16
17
5
19
7
8
12

>  <PUBCHEM_MMFF94_PARTIAL_CHARGES>  (1) 
14
1 -1.01
10 -0.29
11 0.5
12 0.5
13 0.5
17 0.15
2 -1.01
3 0.64
30 0.15
4 0.64
5 -0.29
6 0.5
7 0.5
8 0.5

>  <PUBCHEM_EFFECTIVE_ROTOR_COUNT>  (1) 
4

>  <PUBCHEM_PHARMACOPHORE_FEATURES>  (1) 
2
1 1 cation
1 2 cation

>  <PUBCHEM_HEAVY_ATOM_COUNT>  (1) 
13

>  <PUBCHEM_ATOM_DEF_STEREO_COUNT>  (1) 
0

>  <PUBCHEM_ATOM_UDEF_STEREO_COUNT>  (1) 
0

>  <PUBCHEM_BOND_DEF_STEREO_COUNT>  (1) 
0

>  <PUBCHEM_BOND_UDEF_STEREO_COUNT>  (1) 
1

>  <PUBCHEM_ISOTOPIC_ATOM_COUNT>  (1) 
0

>  <PUBCHEM_COMPONENT_COUNT>  (1) 
1

>  <PUBCHEM_CACTVS_TAUTO_COUNT>  (1) 
1

>  <PUBCHEM_CONFORMER_ID>  (1) 
0000929000000001

>  <PUBCHEM_MMFF94_ENERGY>  (1) 
49.0786

>  <PUBCHEM_FEATURE_SELFOVERLAP>  (1) 
10.149

>  <PUBCHEM_SHAPE_FINGERPRINT>  (1) 
10751810 167 18261403247243730188
10922523 26 18270402676570323540
11062470 55 16343705430235891041
12500047 106 18343017787755175142
12932764 1 17603579759629177164
13024252 1 13840263698207024565
13296908 3 18408327670285621346
13581323 91 18334580161224776131
14123238 8 17967537899447619324
14144814 61 18335139773877897248
14325111 11 18411421678578147076
15775835 57 17240480321122429706
18186145 218 17676491609961928912
190213 19 18040152903026193224
19422 9 14851604353878486763
200 152 10663818542476374409
20279233 1 18201714076771023666
20281475 54 18408038516044438038
20645477 56 18410009940287636305
20645477 70 18338239267493221158
22169311 21 18343575257282957914
22485316 2 16008464347769673113
2306618 200 17895465947935882077
23402539 116 18343577448143378221
23559900 14 18343864412156825688
3248919 1 18409443696009578172
449060 50 18334862744382222612
58051976 100 18335708307257395367
69090 78 18343862225691755751
74978 22 18336263534822448108
93112 12 18410294743774109836

>  <PUBCHEM_SHAPE_MULTIPOLES>  (1) 
257.57
8.32
1.46
1.11
3.2
0.36
0.01
-0.57
0
-0.62
-0.03
0.08
-0.1
0.03

>  <PUBCHEM_SHAPE_SELFOVERLAP>  (1) 
472.518

>  <PUBCHEM_SHAPE_VOLUME>  (1) 
167.6

>  <PUBCHEM_COORDINATE_TYPE>  (1) 
2
5
10

$$$$
