37539
     RDKit          3D

 23 25  0  0  0  0  0  0  0  0999 V2000
    0.3197    1.0357    0.5634 S   0  0  0  0  0  0  0  0  0  0  0  0
   -4.6555    2.0122   -0.3224 O   0  0  0  0  0  0  0  0  0  0  0  0
   -6.0886   -0.3589   -0.0925 O   0  0  0  0  0  0  0  0  0  0  0  0
    7.4764    1.3092   -0.3751 O   0  0  0  0  0  0  0  0  0  0  0  0
    5.7029    0.7992   -1.6976 O   0  0  0  0  0  0  0  0  0  0  0  0
    0.2454   -1.4777   -0.0111 N   0  0  0  0  0  0  0  0  0  0  0  0
    1.8245    0.2011    0.4560 C   0  0  0  0  0  0  0  0  0  0  0  0
    1.5824   -1.1390    0.1388 C   0  0  0  0  0  0  0  0  0  0  0  0
    4.1971   -0.1888    0.4972 C   0  0  0  0  0  0  0  0  0  0  0  0
   -0.5017   -0.4171    0.1890 C   0  0  0  0  0  0  0  0  0  0  0  0
   -1.9434   -0.3981    0.1161 C   0  0  0  0  0  0  0  0  0  0  0  0
    3.1255    0.6964    0.6393 C   0  0  0  0  0  0  0  0  0  0  0  0
    2.6833   -2.0121    0.0008 C   0  0  0  0  0  0  0  0  0  0  0  0
    3.9813   -1.5259    0.1822 C   0  0  0  0  0  0  0  0  0  0  0  0
    5.5913    0.3106    0.6855 C   0  0  0  0  0  0  0  0  0  0  0  0
   -2.6158    0.8092   -0.0699 C   0  0  0  0  0  0  0  0  0  0  0  0
   -2.6617   -1.5875    0.2315 C   0  0  0  0  0  0  0  0  0  0  0  0
   -4.0088    0.8269   -0.1406 C   0  0  0  0  0  0  0  0  0  0  0  0
   -4.7281   -0.3627   -0.0253 C   0  0  0  0  0  0  0  0  0  0  0  0
   -4.0545   -1.5698    0.1609 C   0  0  0  0  0  0  0  0  0  0  0  0
    6.2277    0.8185   -0.5928 C   0  0  0  0  0  0  0  0  0  0  0  0
   -5.0250    2.7352    0.8500 C   0  0  0  0  0  0  0  0  0  0  0  0
   -6.6744   -0.5164   -1.3834 C   0  0  0  0  0  0  0  0  0  0  0  0
  1  7  1  0
  1 10  1  0
  2 18  1  0
  2 22  1  0
  3 19  1  0
  3 23  1  0
  4 21  1  0
  5 21  2  0
  6  8  1  0
  6 10  2  0
  7  8  2  0
  7 12  1  0
  8 13  1  0
  9 12  2  0
  9 14  1  0
  9 15  1  0
 10 11  1  0
 11 16  2  0
 11 17  1  0
 13 14  2  0
 15 21  1  0
 16 18  1  0
 17 20  2  0
 18 19  2  0
 19 20  1  0
M  END
>  <PUBCHEM_COMPOUND_CID>  (1) 
37539

>  <PUBCHEM_CONFORMER_RMSD>  (1) 
0.8

>  <PUBCHEM_CONFORMER_DIVERSEORDER>  (1) 
1
8
6
10
2
12
11
7
9
5
3
4

>  <PUBCHEM_MMFF94_PARTIAL_CHARGES>  (1) 
30
1 -0.08
10 0.33
11 0.05
12 -0.15
13 -0.15
14 -0.15
15 0.2
16 -0.15
17 -0.15
18 0.08
19 0.08
2 -0.36
20 -0.15
21 0.66
22 0.28
23 0.28
24 0.15
25 0.15
26 0.15
29 0.15
3 -0.36
30 0.15
31 0.15
38 0.5
4 -0.65
5 -0.57
6 -0.57
7 0.04
8 0.23
9 -0.14

>  <PUBCHEM_EFFECTIVE_ROTOR_COUNT>  (1) 
5

>  <PUBCHEM_PHARMACOPHORE_FEATURES>  (1) 
9
1 2 acceptor
1 3 acceptor
1 4 acceptor
1 5 acceptor
1 6 acceptor
3 4 5 21 anion
5 1 6 7 8 10 rings
6 11 16 17 18 19 20 rings
6 7 8 9 12 13 14 rings

>  <PUBCHEM_HEAVY_ATOM_COUNT>  (1) 
23

>  <PUBCHEM_ATOM_DEF_STEREO_COUNT>  (1) 
0

>  <PUBCHEM_ATOM_UDEF_STEREO_COUNT>  (1) 
0

>  <PUBCHEM_BOND_DEF_STEREO_COUNT>  (1) 
0

>  <PUBCHEM_BOND_UDEF_STEREO_COUNT>  (1) 
0

>  <PUBCHEM_ISOTOPIC_ATOM_COUNT>  (1) 
0

>  <PUBCHEM_COMPONENT_COUNT>  (1) 
1

>  <PUBCHEM_CACTVS_TAUTO_COUNT>  (1) 
1

>  <PUBCHEM_CONFORMER_ID>  (1) 
000092A300000001

>  <PUBCHEM_MMFF94_ENERGY>  (1) 
76.7901

>  <PUBCHEM_FEATURE_SELFOVERLAP>  (1) 
45.807

>  <PUBCHEM_SHAPE_FINGERPRINT>  (1) 
10 15 18261399910608432465
10554248 39 18190445078633987814
10595046 47 18411133611248929115
10906281 52 17968957339500968608
10968037 39 18408882962776519119
11315181 36 18186521029546350025
11315621 246 17488732506407759119
11719270 70 18271800195443695618
12107183 9 17621880890503805723
12166972 35 13039184831592938914
12236239 1 17894908529683631378
12390115 104 18201167550994153585
12403259 415 18059568122446912920
12516196 113 17704348887728485720
12596602 18 16515684467784396521
12616971 3 11458432348838085898
13073987 5 18337671919466544907
13668630 136 16415479384929029607
14123256 10 18410855485929692214
14251764 18 18341895182546983321
14528608 73 18413670223334064710
15048467 5 18040433317546908502
15183329 4 18411135839967606368
15196674 1 18341047411394391451
15348495 7 11963684338585438300
15475509 35 12966855577343034270
15788980 27 11384111959738176259
15961568 22 18186523194125861620
1601671 61 18409448077261627712
17844677 252 18272933838474583049
17980427 23 18040442100369914127
18335252 98 18187933910810618347
200 152 17775277262630650619
20281389 69 18114176432713797920
20645477 70 18059855004719435814
21033648 29 17703210876145620649
21150785 3 17489306416827321804
21236236 1 18342453704584515521
21267235 1 18341896329277020371
22224240 67 14129054846278617768
23035841 295 9943807802845351623
23081809 10 18410852122954520682
23402655 69 18342736295582784122
23559900 14 18338791338214912353
23569914 152 16049861798359718012
300161 21 17385719205639446194
3004659 81 18335983061412251458
34797466 226 17346599716126741088
350125 39 18411699890134203857
3545911 37 18341611533694568979
397830 11 13552054264031434060
4073 2 18114186340903066387
4214541 1 18340483379404500233
4325135 7 18186800292498709486
4340502 62 16225764125761536018
445580 37 18341621412246190476
465052 167 9799691511358630584
5104073 3 18337106761683721171
542803 24 18113056030211782202
5486654 2 18413108390009194154
59755656 215 18343865528394966926

>  <PUBCHEM_SHAPE_MULTIPOLES>  (1) 
448.72
17.77
2.03
0.92
6.26
0.44
-0.24
5.54
-4.63
-1.55
0.24
0.28
0.17
-1

>  <PUBCHEM_SHAPE_SELFOVERLAP>  (1) 
965.533

>  <PUBCHEM_SHAPE_VOLUME>  (1) 
250.4

>  <PUBCHEM_COORDINATE_TYPE>  (1) 
2
5
10

$$$$
