37533
     RDKit          3D

 22 24  0  0  0  0  0  0  0  0999 V2000
   -0.0275    2.0075    0.1276 S   0  0  0  0  0  0  0  0  0  0  0  0
    7.0759   -1.7693    0.2657 O   0  0  0  0  0  0  0  0  0  0  0  0
    5.4702   -0.9444    1.6425 O   0  0  0  0  0  0  0  0  0  0  0  0
    0.3170   -0.5020   -0.3585 N   0  0  0  0  0  0  0  0  0  0  0  0
   -6.1469   -0.5535    0.1396 N   0  0  0  0  0  0  0  0  0  0  0  0
    1.5754    0.0821   -0.3500 C   0  0  0  0  0  0  0  0  0  0  0  0
    1.5907    1.4576   -0.0995 C   0  0  0  0  0  0  0  0  0  0  0  0
   -2.0147    0.1651   -0.0537 C   0  0  0  0  0  0  0  0  0  0  0  0
   -0.5938    0.4126   -0.1197 C   0  0  0  0  0  0  0  0  0  0  0  0
    3.9982    0.1427   -0.5281 C   0  0  0  0  0  0  0  0  0  0  0  0
    2.8027   -0.5809   -0.5672 C   0  0  0  0  0  0  0  0  0  0  0  0
   -4.7590   -0.3122    0.0745 C   0  0  0  0  0  0  0  0  0  0  0  0
    2.7877    2.1906   -0.0588 C   0  0  0  0  0  0  0  0  0  0  0  0
    3.9884    1.5103   -0.2771 C   0  0  0  0  0  0  0  0  0  0  0  0
   -2.5502   -0.9796   -0.6424 C   0  0  0  0  0  0  0  0  0  0  0  0
   -2.8492    1.0715    0.5989 C   0  0  0  0  0  0  0  0  0  0  0  0
    5.2944   -0.5611   -0.7559 C   0  0  0  0  0  0  0  0  0  0  0  0
   -3.9231   -1.2183   -0.5782 C   0  0  0  0  0  0  0  0  0  0  0  0
   -4.2220    0.8327    0.6632 C   0  0  0  0  0  0  0  0  0  0  0  0
   -6.6563   -1.9104    0.1526 C   0  0  0  0  0  0  0  0  0  0  0  0
   -7.0817    0.5522    0.2082 C   0  0  0  0  0  0  0  0  0  0  0  0
    5.9238   -1.0931    0.5162 C   0  0  0  0  0  0  0  0  0  0  0  0
  1  7  1  0
  1  9  1  0
  2 22  1  0
  3 22  2  0
  4  6  1  0
  4  9  2  0
  5 12  1  0
  5 20  1  0
  5 21  1  0
  6  7  2  0
  6 11  1  0
  7 13  1  0
  8  9  1  0
  8 15  2  0
  8 16  1  0
 10 11  2  0
 10 14  1  0
 10 17  1  0
 12 18  2  0
 12 19  1  0
 13 14  2  0
 15 18  1  0
 16 19  2  0
 17 22  1  0
M  END
>  <PUBCHEM_COMPOUND_CID>  (1) 
37533

>  <PUBCHEM_CONFORMER_RMSD>  (1) 
0.6

>  <PUBCHEM_CONFORMER_DIVERSEORDER>  (1) 
1
9
7
2
10
8
5
3
6
4

>  <PUBCHEM_MMFF94_PARTIAL_CHARGES>  (1) 
30
1 -0.08
10 -0.14
11 -0.15
12 0.1
13 -0.15
14 -0.15
15 -0.15
16 -0.15
17 0.2
18 -0.15
19 -0.15
2 -0.65
20 0.37
21 0.37
22 0.66
23 0.15
24 0.15
25 0.15
26 0.15
27 0.15
3 -0.57
30 0.15
31 0.15
38 0.5
4 -0.57
5 -0.84
6 0.23
7 0.04
8 0.05
9 0.33

>  <PUBCHEM_EFFECTIVE_ROTOR_COUNT>  (1) 
4

>  <PUBCHEM_PHARMACOPHORE_FEATURES>  (1) 
8
1 2 acceptor
1 3 acceptor
1 4 acceptor
1 5 cation
3 2 3 22 anion
5 1 4 6 7 9 rings
6 6 7 10 11 13 14 rings
6 8 12 15 16 18 19 rings

>  <PUBCHEM_HEAVY_ATOM_COUNT>  (1) 
22

>  <PUBCHEM_ATOM_DEF_STEREO_COUNT>  (1) 
0

>  <PUBCHEM_ATOM_UDEF_STEREO_COUNT>  (1) 
0

>  <PUBCHEM_BOND_DEF_STEREO_COUNT>  (1) 
0

>  <PUBCHEM_BOND_UDEF_STEREO_COUNT>  (1) 
0

>  <PUBCHEM_ISOTOPIC_ATOM_COUNT>  (1) 
0

>  <PUBCHEM_COMPONENT_COUNT>  (1) 
1

>  <PUBCHEM_CACTVS_TAUTO_COUNT>  (1) 
1

>  <PUBCHEM_CONFORMER_ID>  (1) 
0000929D00000001

>  <PUBCHEM_MMFF94_ENERGY>  (1) 
68.1459

>  <PUBCHEM_FEATURE_SELFOVERLAP>  (1) 
40.726

>  <PUBCHEM_SHAPE_FINGERPRINT>  (1) 
10 15 17203602701401148826
106641 1 18272363184325200658
10670039 82 12468626197815134534
10753850 27 18040991818177844978
11315181 36 18272376377926897481
11719270 70 18202846543266533663
12107183 9 17767136297870136427
12166972 35 17967818270755483237
12236239 1 18411421739303846717
125118 31 10663835065405966435
12516196 113 16845855698071956881
12616971 3 18201995572906014717
13533116 47 18335701680497345456
13668630 136 17821729429248181866
13685833 64 18408323293576549810
13862211 1 18409451375500897542
14251752 14 18040710334458472349
14251764 18 18342176691503818916
14251764 75 13109240267139938010
15183329 4 18410580577942081277
15196674 1 18270966846938158381
15475509 35 17822837720574568954
17857418 61 18412825793576235022
1813 80 18113909238624660084
18222031 100 16660642981415977956
1979834 28 17203615869897446966
200 152 18060142076697363625
20028762 73 18343021086412034174
21130935 74 18343021120518259667
21150785 3 15285362816971937926
21267235 1 18342185470010634302
21315763 28 18410856586359113789
21792934 111 17918272052858596409
220451 1 12829205590336595737
221357 26 14129058114833288662
22224240 67 15913322485705728478
23035841 295 18408042918581108267
23081809 10 18335431178935294189
23198884 109 16081089268986928725
23402539 116 18413106138955629917
23522609 53 18118718510658554213
23559900 14 18339357599809853289
23569943 247 17677322806345921883
3004659 81 18411144645077811692
335352 9 18413672422325672285
3411729 13 17987228023484752760
34797466 226 16343152427854592700
351380 3 18334011671117087906
397830 11 15481812636267688478
4073 2 17970914585972649080
4214541 1 18343306959635319429
465052 167 18410578396642183006
5104073 3 18201163259947148945
542803 24 14490466504751765989
559249 180 18411699859874013461
59682541 52 13262668206954207032
59755656 520 17749107816490607387
67856867 119 18129095791864348608
7495541 125 17417812898124668497
8863177 126 17970640785965846851
9981440 41 17188122934354568073

>  <PUBCHEM_SHAPE_MULTIPOLES>  (1) 
434.9
18.15
1.91
0.86
5.15
0.38
-0.14
-9.23
-2.87
-0.83
-0.1
-0.66
-0.14
-0.95

>  <PUBCHEM_SHAPE_SELFOVERLAP>  (1) 
934.332

>  <PUBCHEM_SHAPE_VOLUME>  (1) 
242.9

>  <PUBCHEM_COORDINATE_TYPE>  (1) 
2
5
10

$$$$
