37548
     RDKit          3D

 24 26  0  0  0  0  0  0  0  0999 V2000
    6.1465    0.6457    1.0939 O   0  0  0  0  0  0  0  0  0  0  0  0
   -2.3059    0.1690    0.1414 N   0  0  0  0  0  0  0  0  0  0  0  0
   -4.2600    0.7872   -0.7187 N   0  0  0  0  0  0  0  0  0  0  0  0
    0.0116   -0.1176   -0.4637 N   0  0  0  0  0  0  0  0  0  0  0  0
    6.3606   -0.9796   -0.5478 N   0  0  0  0  0  0  0  0  0  0  0  0
    7.7344   -1.0414   -0.4140 N   0  0  0  0  0  0  0  0  0  0  0  0
   -3.0347    1.1705   -0.4374 C   0  0  0  0  0  0  0  0  0  0  0  0
   -3.1146   -0.9342    0.2398 C   0  0  0  0  0  0  0  0  0  0  0  0
   -2.4654    2.5096   -0.6932 C   0  0  0  0  0  0  0  0  0  0  0  0
   -0.9289    0.2526    0.5734 C   0  0  0  0  0  0  0  0  0  0  0  0
   -4.3286   -0.5228   -0.3035 C   0  0  0  0  0  0  0  0  0  0  0  0
   -2.6671    3.4748    0.4918 C   0  0  0  0  0  0  0  0  0  0  0  0
   -2.8952   -2.2173    0.7421 C   0  0  0  0  0  0  0  0  0  0  0  0
   -5.3982   -1.4324   -0.3569 C   0  0  0  0  0  0  0  0  0  0  0  0
    1.3868   -0.1151   -0.2883 C   0  0  0  0  0  0  0  0  0  0  0  0
   -2.0477    4.8406    0.2416 C   0  0  0  0  0  0  0  0  0  0  0  0
   -3.9705   -3.1097    0.6808 C   0  0  0  0  0  0  0  0  0  0  0  0
   -5.2006   -2.7261    0.1416 C   0  0  0  0  0  0  0  0  0  0  0  0
    1.9569    0.2584    0.9427 C   0  0  0  0  0  0  0  0  0  0  0  0
    2.2484   -0.4845   -1.3375 C   0  0  0  0  0  0  0  0  0  0  0  0
    4.1782   -0.1072    0.0662 C   0  0  0  0  0  0  0  0  0  0  0  0
    3.3407    0.2623    1.1185 C   0  0  0  0  0  0  0  0  0  0  0  0
    3.6321   -0.4808   -1.1618 C   0  0  0  0  0  0  0  0  0  0  0  0
    5.6212   -0.1020    0.2490 C   0  0  0  0  0  0  0  0  0  0  0  0
  1 24  2  0
  2  7  1  0
  2  8  1  0
  2 10  1  0
  3  7  2  0
  3 11  1  0
  4 10  1  0
  4 15  1  0
  5  6  1  0
  5 24  1  0
  7  9  1  0
  8 11  2  0
  8 13  1  0
  9 12  1  0
 11 14  1  0
 12 16  1  0
 13 17  2  0
 14 18  2  0
 15 19  2  0
 15 20  1  0
 17 18  1  0
 19 22  1  0
 20 23  2  0
 21 22  2  0
 21 23  1  0
 21 24  1  0
M  END
>  <PUBCHEM_COMPOUND_CID>  (1) 
37548

>  <PUBCHEM_CONFORMER_RMSD>  (1) 
0.8

>  <PUBCHEM_CONFORMER_DIVERSEORDER>  (1) 
1
94
91
88
69
95
14
9
73
74
47
87
61
58
59
30
90
81
54
100
40
39
83
76
52
99
71
38
16
53
101
102
92
24
48
97
36
68
7
8
32
50
65
84
26
77
23
4
70
86
85
17
82
31
93
103
89
49
33
22
21
66
75
6
29
20
25
11
57
3
98
46
60
55
2
64
45
12
67
79
28
5
78
18
56
62
44
43
72
96
63
37
80
51
35
27
42
19
13
34
41
10
15

>  <PUBCHEM_MMFF94_PARTIAL_CHARGES>  (1) 
34
1 -0.57
10 0.62
11 0.23
13 -0.15
14 -0.15
15 0.1
17 -0.15
18 -0.15
19 -0.15
2 0.05
20 -0.15
21 0.09
22 -0.15
23 -0.15
24 0.54
3 -0.57
31 0.15
32 0.4
33 0.15
37 0.15
38 0.15
39 0.15
4 -0.87
40 0.15
41 0.15
42 0.15
43 0.37
44 0.36
45 0.36
5 -0.42
6 -0.73
7 0.01
8 -0.15
9 0.18

>  <PUBCHEM_EFFECTIVE_ROTOR_COUNT>  (1) 
7

>  <PUBCHEM_PHARMACOPHORE_FEATURES>  (1) 
10
1 1 acceptor
1 16 hydrophobe
1 4 cation
1 4 donor
1 5 donor
1 6 donor
3 2 3 7 cation
5 2 3 7 8 11 rings
6 15 19 20 21 22 23 rings
6 8 11 13 14 17 18 rings

>  <PUBCHEM_HEAVY_ATOM_COUNT>  (1) 
24

>  <PUBCHEM_ATOM_DEF_STEREO_COUNT>  (1) 
0

>  <PUBCHEM_ATOM_UDEF_STEREO_COUNT>  (1) 
0

>  <PUBCHEM_BOND_DEF_STEREO_COUNT>  (1) 
0

>  <PUBCHEM_BOND_UDEF_STEREO_COUNT>  (1) 
0

>  <PUBCHEM_ISOTOPIC_ATOM_COUNT>  (1) 
0

>  <PUBCHEM_COMPONENT_COUNT>  (1) 
1

>  <PUBCHEM_CACTVS_TAUTO_COUNT>  (1) 
6

>  <PUBCHEM_CONFORMER_ID>  (1) 
000092AC00000001

>  <PUBCHEM_MMFF94_ENERGY>  (1) 
57.8483

>  <PUBCHEM_FEATURE_SELFOVERLAP>  (1) 
52.355

>  <PUBCHEM_SHAPE_FINGERPRINT>  (1) 
10 15 18200864193570273354
10319926 262 18340753859344106898
10411042 1 18266179616577038099
10595046 47 18261114080481615892
10937287 8 17689996731109278529
11056379 131 18409449150602427629
11059845 2 17614814355216122824
11101153 10 18336834203302365628
11315181 36 17967816071584040502
11545043 162 18342174458315861106
12107183 9 17613708224811199474
12166972 35 17531248408512741948
12236239 1 17240478122030751642
12741549 16 17489869362844680777
12788726 201 18260258634549494907
13288520 33 18335701671944314527
13782708 43 18130794434714200070
14565420 104 17335638414544196225
15131766 46 15982262011033997609
15183329 4 16588020234523585218
15419008 47 18202560709214470552
15961568 22 18264201599006107448
16990350 14 16755505207177736848
16992828 155 17169831063836015844
17844677 252 18410298012787781220
18681886 176 18114741642109959490
18927931 339 18335704966173863007
19489759 90 18261110764107642742
21033648 29 17631997681510925568
21033650 10 18118146713598925668
21267235 1 18187087308342460691
21304303 172 18343585149489608473
21623969 137 17489594472000430918
2297311 6 18409730681598219115
23081809 10 17313386700210171810
23402539 116 18260261971422656799
23557571 272 18412823586306234985
23559900 14 18263636428485158441
249057 25 17967542268479542388
3004659 81 17822286946273591367
3418910 222 18263933288505092308
4073 2 18340210679125278382
497634 4 18113335297543791156
5104073 3 18059576828693982962
531348 171 17987791887405786878
67856867 119 17896322595968320988
7495541 125 18130508638788782024

>  <PUBCHEM_SHAPE_MULTIPOLES>  (1) 
463.13
15.73
3.77
1.03
26.02
4.97
-0.03
-8.94
-0.48
-7.9
0.67
0.63
-0.03
1.1

>  <PUBCHEM_SHAPE_SELFOVERLAP>  (1) 
994.177

>  <PUBCHEM_SHAPE_VOLUME>  (1) 
256.6

>  <PUBCHEM_COORDINATE_TYPE>  (1) 
2
5
10

$$$$
