37547
     RDKit          3D

 23 25  0  0  0  0  0  0  0  0999 V2000
    5.9897   -0.6217   -1.4078 O   0  0  0  0  0  0  0  0  0  0  0  0
   -2.3747    0.4513   -0.1976 N   0  0  0  0  0  0  0  0  0  0  0  0
   -4.2820    1.2701    0.5974 N   0  0  0  0  0  0  0  0  0  0  0  0
   -0.0737    0.0887    0.4296 N   0  0  0  0  0  0  0  0  0  0  0  0
    6.3204   -0.0629    0.8195 N   0  0  0  0  0  0  0  0  0  0  0  0
    7.6961   -0.1278    0.7101 N   0  0  0  0  0  0  0  0  0  0  0  0
   -3.2484   -0.6055   -0.1823 C   0  0  0  0  0  0  0  0  0  0  0  0
   -3.0382    1.5485    0.2767 C   0  0  0  0  0  0  0  0  0  0  0  0
   -0.9985    0.4079   -0.6382 C   0  0  0  0  0  0  0  0  0  0  0  0
   -4.4316   -0.0688    0.3180 C   0  0  0  0  0  0  0  0  0  0  0  0
   -2.3874    2.8695    0.3967 C   0  0  0  0  0  0  0  0  0  0  0  0
   -3.1096   -1.9438   -0.5517 C   0  0  0  0  0  0  0  0  0  0  0  0
   -5.5532   -0.9025    0.4652 C   0  0  0  0  0  0  0  0  0  0  0  0
    1.2975   -0.0113    0.2522 C   0  0  0  0  0  0  0  0  0  0  0  0
   -2.5375    3.7205   -0.8692 C   0  0  0  0  0  0  0  0  0  0  0  0
   -4.2359   -2.7591   -0.3987 C   0  0  0  0  0  0  0  0  0  0  0  0
   -5.4368   -2.2497    0.1006 C   0  0  0  0  0  0  0  0  0  0  0  0
    1.8791    0.1983   -1.0119 C   0  0  0  0  0  0  0  0  0  0  0  0
    2.1434   -0.3266    1.3314 C   0  0  0  0  0  0  0  0  0  0  0  0
    4.0806   -0.2174   -0.1080 C   0  0  0  0  0  0  0  0  0  0  0  0
    3.2587    0.0961   -1.1905 C   0  0  0  0  0  0  0  0  0  0  0  0
    3.5230   -0.4287    1.1529 C   0  0  0  0  0  0  0  0  0  0  0  0
    5.5191   -0.3252   -0.2945 C   0  0  0  0  0  0  0  0  0  0  0  0
  1 23  2  0
  2  7  1  0
  2  8  1  0
  2  9  1  0
  3  8  2  0
  3 10  1  0
  4  9  1  0
  4 14  1  0
  5  6  1  0
  5 23  1  0
  7 10  2  0
  7 12  1  0
  8 11  1  0
 10 13  1  0
 11 15  1  0
 12 16  2  0
 13 17  2  0
 14 18  2  0
 14 19  1  0
 16 17  1  0
 18 21  1  0
 19 22  2  0
 20 21  2  0
 20 22  1  0
 20 23  1  0
M  END
>  <PUBCHEM_COMPOUND_CID>  (1) 
37547

>  <PUBCHEM_CONFORMER_RMSD>  (1) 
0.8

>  <PUBCHEM_CONFORMER_DIVERSEORDER>  (1) 
1
29
30
40
42
8
16
38
36
24
20
13
23
19
9
32
37
31
21
7
39
5
28
25
22
6
33
3
14
41
26
2
35
10
15
4
18
12
27
17
11
34

>  <PUBCHEM_MMFF94_PARTIAL_CHARGES>  (1) 
34
1 -0.57
10 0.23
11 0.18
12 -0.15
13 -0.15
14 0.1
16 -0.15
17 -0.15
18 -0.15
19 -0.15
2 0.05
20 0.09
21 -0.15
22 -0.15
23 0.54
28 0.4
29 0.15
3 -0.57
30 0.15
34 0.15
35 0.15
36 0.15
37 0.15
38 0.15
39 0.15
4 -0.87
40 0.37
41 0.36
42 0.36
5 -0.42
6 -0.73
7 -0.15
8 0.01
9 0.62

>  <PUBCHEM_EFFECTIVE_ROTOR_COUNT>  (1) 
6

>  <PUBCHEM_PHARMACOPHORE_FEATURES>  (1) 
10
1 1 acceptor
1 15 hydrophobe
1 4 cation
1 4 donor
1 5 donor
1 6 donor
3 2 3 8 cation
5 2 3 7 8 10 rings
6 14 18 19 20 21 22 rings
6 7 10 12 13 16 17 rings

>  <PUBCHEM_HEAVY_ATOM_COUNT>  (1) 
23

>  <PUBCHEM_ATOM_DEF_STEREO_COUNT>  (1) 
0

>  <PUBCHEM_ATOM_UDEF_STEREO_COUNT>  (1) 
0

>  <PUBCHEM_BOND_DEF_STEREO_COUNT>  (1) 
0

>  <PUBCHEM_BOND_UDEF_STEREO_COUNT>  (1) 
0

>  <PUBCHEM_ISOTOPIC_ATOM_COUNT>  (1) 
0

>  <PUBCHEM_COMPONENT_COUNT>  (1) 
1

>  <PUBCHEM_CACTVS_TAUTO_COUNT>  (1) 
6

>  <PUBCHEM_CONFORMER_ID>  (1) 
000092AB00000001

>  <PUBCHEM_MMFF94_ENERGY>  (1) 
58.1731

>  <PUBCHEM_FEATURE_SELFOVERLAP>  (1) 
52.358

>  <PUBCHEM_SHAPE_FINGERPRINT>  (1) 
10 15 17774996925941540818
10411042 1 18194963166288450711
10595046 47 18334297570004890036
11056379 131 18410015394969870893
11315181 36 18334294288254288913
11524674 6 16630808811496728887
11545043 162 18060136539825110426
12107183 9 17540525825893087800
12166972 35 17458346385439735756
12236239 1 17967534575274872638
12553582 1 18337101371974536947
12788726 201 18261105254160390315
13288520 33 18410856586021691963
13583140 156 17988065717256171252
13911987 19 15068918455164418110
14849402 71 18263647432761862516
14910302 57 18200048239187283463
15183329 4 17240485806423894954
17349148 13 17458062672779476800
17844677 252 18342462543242335816
18927931 339 18413392055598535111
19377110 9 17968087604312731160
200 152 17095520703916296589
20645477 70 15068892032620182442
21033648 29 16916773046811865920
21033650 10 18119556270352453500
21054139 6 18041276647197615954
21267235 1 18337397145050454283
21426921 1 18409448051375935389
21623969 137 16702310053009476990
21792961 116 17346322558177433070
2297311 6 18343027696281481381
2303208 19 17632306657453239838
23081809 10 17603309220393459244
23402539 116 18187363233434915191
23557571 272 18131075891767190541
23559900 14 18342449379014553833
3004659 81 18041274474059844663
32027 91 17765717923708155334
335352 9 18411135854076049405
34797466 226 17988936608635001292
351380 3 18114179769782184571
397830 11 17916854846578332274
4340502 62 18131910465139604422
4409770 3 18263074445516960349
5283156 175 18113615681467147251
602551 16 18343020020890561006
67856867 119 18262521514946793516
7495541 125 18060138782183186808

>  <PUBCHEM_SHAPE_MULTIPOLES>  (1) 
442.55
16.36
2.66
1.09
22.89
2.09
-0.04
-6.59
1.41
-6.15
-0.51
1.07
0.02
-0.21

>  <PUBCHEM_SHAPE_SELFOVERLAP>  (1) 
956.39

>  <PUBCHEM_SHAPE_VOLUME>  (1) 
244.3

>  <PUBCHEM_COORDINATE_TYPE>  (1) 
2
5
10

$$$$
