37554
     RDKit          3D

 21 22  0  0  0  0  0  0  0  0999 V2000
   -0.3343   -2.4802    0.2074 O   0  0  0  0  0  0  0  0  0  0  0  0
   -3.5295    3.0047    0.3026 O   0  0  0  0  0  0  0  0  0  0  0  0
   -1.6437    2.3250   -0.7691 O   0  0  0  0  0  0  0  0  0  0  0  0
    6.1462   -0.2077   -0.4178 O   0  0  0  0  0  0  0  0  0  0  0  0
    5.5030    1.7201    0.4124 O   0  0  0  0  0  0  0  0  0  0  0  0
   -1.0980   -0.2721   -0.0092 N   0  0  0  0  0  0  0  0  0  0  0  0
   -2.9830   -1.6756    0.1311 N   0  0  0  0  0  0  0  0  0  0  0  0
    5.2489    0.5603    0.0063 N   0  0  0  0  0  0  0  0  0  0  0  0
    1.2642   -0.7960    0.0669 C   0  0  0  0  0  0  0  0  0  0  0  0
   -2.5063   -0.4233    0.0077 C   0  0  0  0  0  0  0  0  0  0  0  0
   -0.1124   -1.2645    0.0872 C   0  0  0  0  0  0  0  0  0  0  0  0
    2.2783   -1.6319   -0.4003 C   0  0  0  0  0  0  0  0  0  0  0  0
    1.5703    0.4894    0.5141 C   0  0  0  0  0  0  0  0  0  0  0  0
   -3.2806    0.7122   -0.1032 C   0  0  0  0  0  0  0  0  0  0  0  0
    3.9049    0.1029    0.0268 C   0  0  0  0  0  0  0  0  0  0  0  0
    3.5987   -1.1825   -0.4201 C   0  0  0  0  0  0  0  0  0  0  0  0
    2.8906    0.9388    0.4941 C   0  0  0  0  0  0  0  0  0  0  0  0
   -4.6614    0.5492   -0.0858 C   0  0  0  0  0  0  0  0  0  0  0  0
   -5.2040   -0.7249    0.0399 C   0  0  0  0  0  0  0  0  0  0  0  0
   -4.3297   -1.7947    0.1442 C   0  0  0  0  0  0  0  0  0  0  0  0
   -2.7222    2.0508   -0.2353 C   0  0  0  0  0  0  0  0  0  0  0  0
  1 11  2  0
  2 21  1  0
  3 21  2  0
  4  8  1  0
  5  8  2  0
  6 10  1  0
  6 11  1  0
  7 10  2  0
  7 20  1  0
  8 15  1  0
  9 11  1  0
  9 12  2  0
  9 13  1  0
 10 14  1  0
 12 16  1  0
 13 17  2  0
 14 18  2  0
 14 21  1  0
 15 16  2  0
 15 17  1  0
 18 19  1  0
 19 20  2  0
M  CHG  2   4  -1   8   1
M  END
>  <PUBCHEM_COMPOUND_CID>  (1) 
37554

>  <PUBCHEM_CONFORMER_RMSD>  (1) 
0.8

>  <PUBCHEM_CONFORMER_DIVERSEORDER>  (1) 
1
3
4
2

>  <PUBCHEM_MMFF94_PARTIAL_CHARGES>  (1) 
30
1 -0.57
10 0.43
11 0.54
12 -0.15
13 -0.15
14 0.09
15 0.13
16 -0.15
17 -0.15
18 -0.15
19 -0.15
2 -0.65
20 0.16
21 0.63
22 0.37
23 0.15
24 0.15
25 0.15
26 0.15
27 0.15
28 0.15
29 0.15
3 -0.57
30 0.5
4 -0.52
5 -0.52
6 -0.55
7 -0.62
8 0.91
9 0.09

>  <PUBCHEM_EFFECTIVE_ROTOR_COUNT>  (1) 
5

>  <PUBCHEM_PHARMACOPHORE_FEATURES>  (1) 
11
1 1 acceptor
1 2 acceptor
1 3 acceptor
1 4 acceptor
1 4 anion
1 5 acceptor
1 6 donor
1 7 acceptor
3 2 3 21 anion
6 7 10 14 18 19 20 rings
6 9 12 13 15 16 17 rings

>  <PUBCHEM_HEAVY_ATOM_COUNT>  (1) 
21

>  <PUBCHEM_ATOM_DEF_STEREO_COUNT>  (1) 
0

>  <PUBCHEM_ATOM_UDEF_STEREO_COUNT>  (1) 
0

>  <PUBCHEM_BOND_DEF_STEREO_COUNT>  (1) 
0

>  <PUBCHEM_BOND_UDEF_STEREO_COUNT>  (1) 
0

>  <PUBCHEM_ISOTOPIC_ATOM_COUNT>  (1) 
0

>  <PUBCHEM_COMPONENT_COUNT>  (1) 
1

>  <PUBCHEM_CACTVS_TAUTO_COUNT>  (1) 
4

>  <PUBCHEM_CONFORMER_ID>  (1) 
000092B200000001

>  <PUBCHEM_MMFF94_ENERGY>  (1) 
70.9238

>  <PUBCHEM_FEATURE_SELFOVERLAP>  (1) 
55.968

>  <PUBCHEM_SHAPE_FINGERPRINT>  (1) 
10366900 7 18341321267246909595
10411042 1 17977386359155173187
10498660 4 18261386690087119869
10670039 82 18188224134640628948
11578080 2 14619414939709680929
11595378 159 17822274782878593696
12107183 9 17685766926697586114
12236239 1 17313100860713335986
12390115 104 18271258109865924265
12403259 415 18131344228834315744
12596602 18 17022901289311579032
12916748 109 18409452492071159746
13073987 5 18335698321927800786
13081056 2 18342175583328280056
13402501 40 18412824715581856240
14251764 18 18040991852954451130
14341114 176 18409172095062525639
15196674 1 18339079285343262888
15961568 22 18261115214142791652
17844677 252 18412553089386927446
200 152 17489588969630158395
20510252 161 18412826863582241707
20645477 70 17346047680017821230
21033648 29 17917135157022995248
21236236 1 18411138013321245705
21267235 1 18336551620534731003
21279426 13 18198347260893263022
21315764 268 18335412496260333060
21652331 79 18410291410926902319
221357 26 18201717353498761089
2297311 6 18411426128522935991
23402539 116 18337947990984182343
23402655 69 18131632279089509918
23557571 272 18342746199471355245
23559900 14 18340477971861963169
245318 6 16882182630568397652
2916195 48 18342733057398963280
350125 39 18411983584934007161
351380 180 18408039632408763986
3524813 1 18271518779720269001
3545911 37 18411419514072969899
4028521 119 18261385608166415071
4214541 1 18411419475244171457
441001 317 18409729547526373377
5104073 3 18336265626413460850
59755656 215 18411138021911401438
77779 3 18411982420913213966
9981440 41 18186241714775140435

>  <PUBCHEM_SHAPE_MULTIPOLES>  (1) 
387.88
12.56
2.47
0.67
8.65
0.9
-0.01
2.04
-0.19
-1.99
-0.03
0.08
0.05
0.63

>  <PUBCHEM_SHAPE_SELFOVERLAP>  (1) 
842.794

>  <PUBCHEM_SHAPE_VOLUME>  (1) 
209.9

>  <PUBCHEM_COORDINATE_TYPE>  (1) 
2
5
10

$$$$
