3756
     RDKit          3D

 16 18  0  0  0  0  0  0  0  0999 V2000
   -2.4447    2.6730   -0.1211 Cl  0  0  0  0  0  0  0  0  0  0  0  0
   -1.8600   -2.3854    0.1079 O   0  0  0  0  0  0  0  0  0  0  0  0
    1.1311   -1.9894   -0.0135 N   0  0  0  0  0  0  0  0  0  0  0  0
    0.6114    2.4959    0.1131 N   0  0  0  0  0  0  0  0  0  0  0  0
   -3.4978   -0.2027   -0.0720 N   0  0  0  0  0  0  0  0  0  0  0  0
    0.6680    0.1549    0.0067 C   0  0  0  0  0  0  0  0  0  0  0  0
    2.0533    0.0365   -0.1173 C   0  0  0  0  0  0  0  0  0  0  0  0
    0.0991   -1.0847    0.0240 C   0  0  0  0  0  0  0  0  0  0  0  0
    2.8491    1.2705   -0.2680 C   0  0  0  0  0  0  0  0  0  0  0  0
   -0.0435    1.3896    0.0346 C   0  0  0  0  0  0  0  0  0  0  0  0
    2.3340   -1.3111   -0.1149 C   0  0  0  0  0  0  0  0  0  0  0  0
    2.0842    2.4657    0.3463 C   0  0  0  0  0  0  0  0  0  0  0  0
   -1.3215   -1.2846    0.0489 C   0  0  0  0  0  0  0  0  0  0  0  0
   -1.5284    1.2026   -0.0413 C   0  0  0  0  0  0  0  0  0  0  0  0
   -2.1457   -0.0045   -0.0249 C   0  0  0  0  0  0  0  0  0  0  0  0
    1.0113   -3.4262    0.0915 C   0  0  0  0  0  0  0  0  0  0  0  0
  1 14  1  0
  2 13  2  0
  3  8  1  0
  3 11  1  0
  3 16  1  0
  4 10  2  0
  4 12  1  0
  5 15  1  0
  6  7  1  0
  6  8  2  0
  6 10  1  0
  7  9  1  0
  7 11  2  0
  8 13  1  0
  9 12  1  0
 10 14  1  0
 13 15  1  0
 14 15  2  0
M  END
>  <PUBCHEM_COMPOUND_CID>  (1) 
3756

>  <PUBCHEM_CONFORMER_RMSD>  (1) 
0.4

>  <PUBCHEM_CONFORMER_DIVERSEORDER>  (1) 
1

>  <PUBCHEM_MMFF94_PARTIAL_CHARGES>  (1) 
19
1 -0.14
10 0.52
11 -0.3
12 0.25
13 0.64
14 0.15
15 0.11
16 0.26
19 0.15
2 -0.57
25 0.4
26 0.4
3 0.05
4 -0.7
5 -0.9
6 -0.09
7 -0.18
8 -0.24
9 0.18

>  <PUBCHEM_EFFECTIVE_ROTOR_COUNT>  (1) 
0.4

>  <PUBCHEM_PHARMACOPHORE_FEATURES>  (1) 
8
1 2 acceptor
1 3 cation
1 4 acceptor
1 5 cation
1 5 donor
5 3 6 7 8 11 rings
6 4 6 7 9 10 12 rings
6 6 8 10 13 14 15 rings

>  <PUBCHEM_HEAVY_ATOM_COUNT>  (1) 
16

>  <PUBCHEM_ATOM_DEF_STEREO_COUNT>  (1) 
0

>  <PUBCHEM_ATOM_UDEF_STEREO_COUNT>  (1) 
0

>  <PUBCHEM_BOND_DEF_STEREO_COUNT>  (1) 
0

>  <PUBCHEM_BOND_UDEF_STEREO_COUNT>  (1) 
0

>  <PUBCHEM_ISOTOPIC_ATOM_COUNT>  (1) 
0

>  <PUBCHEM_COMPONENT_COUNT>  (1) 
1

>  <PUBCHEM_CACTVS_TAUTO_COUNT>  (1) 
3

>  <PUBCHEM_CONFORMER_ID>  (1) 
00000EAC00000001

>  <PUBCHEM_MMFF94_ENERGY>  (1) 
42.5272

>  <PUBCHEM_FEATURE_SELFOVERLAP>  (1) 
40.818

>  <PUBCHEM_SHAPE_FINGERPRINT>  (1) 
10411042 1 17906453225851282503
10967382 1 18410856576835496013
12423570 1 17631176453614717574
13140716 1 18266741470601461003
13380535 76 18337666537397600115
13897977 150 18338795748956330005
14790565 3 17543654357814201001
15042514 8 17904761438258924162
16945 1 18410572890077215473
193761 8 18410575050319184297
20510252 161 17910961558020546960
21501502 16 18337953389773806469
2334 1 17906453581989741283
23402539 116 17623279885499728854
23419403 2 13494826500122886192
23559900 14 18199196101482266222
238 59 16815978441141352829
2748010 2 18050007989023200615
2897 32 18410014325169625268
528886 8 18267581492952698480
53812653 166 18269837690987228024
54173680 148 17472981078831993602
589210 1 18410290272618209053
7364860 26 18340768143951801446
7832392 63 18052816940690101965
81228 2 17331394788595135522

>  <PUBCHEM_SHAPE_MULTIPOLES>  (1) 
310.33
4.07
3.67
0.62
1.92
0.13
0
-0.02
-0.24
-1.05
0.24
-0.03
-0.06
0.01

>  <PUBCHEM_SHAPE_SELFOVERLAP>  (1) 
684.178

>  <PUBCHEM_SHAPE_VOLUME>  (1) 
170

>  <PUBCHEM_COORDINATE_TYPE>  (1) 
2
5
10

$$$$
