37589
     RDKit          3D

 18 20  0  0  1  0  0  0  0  0999 V2000
    5.3744   -0.4335   -0.5651 O   0  0  0  0  0  0  0  0  0  0  0  0
    3.4119   -1.0281   -1.5300 O   0  0  0  0  0  0  0  0  0  0  0  0
   -0.2487   -0.5664    0.2786 C   0  0  0  0  0  0  0  0  0  0  0  0
   -1.2643   -1.6832    0.4007 C   0  0  0  0  0  0  0  0  0  0  0  0
   -0.8928    0.6594   -0.0031 C   0  0  0  0  0  0  0  0  0  0  0  0
   -2.5643   -0.9464    0.1546 C   0  0  0  0  0  0  0  0  0  0  0  0
   -2.3189    0.4252   -0.0795 C   0  0  0  0  0  0  0  0  0  0  0  0
    1.8686    0.5252    0.2550 C   0  0  0  0  0  0  0  0  0  0  0  0
    1.1266   -0.6471    0.4095 C   0  0  0  0  0  0  0  0  0  0  0  0
    3.3549    0.4818    0.3892 C   0  0  0  0  0  0  0  0  0  0  0  0
   -0.1564    1.8221   -0.1564 C   0  0  0  0  0  0  0  0  0  0  0  0
    1.2337    1.7476   -0.0249 C   0  0  0  0  0  0  0  0  0  0  0  0
   -3.8479   -1.4635    0.1433 C   0  0  0  0  0  0  0  0  0  0  0  0
   -3.3674    1.2951   -0.3285 C   0  0  0  0  0  0  0  0  0  0  0  0
    3.8426    0.0206    1.7772 C   0  0  0  0  0  0  0  0  0  0  0  0
   -4.9046   -0.5865   -0.1077 C   0  0  0  0  0  0  0  0  0  0  0  0
   -4.6668    0.7790   -0.3413 C   0  0  0  0  0  0  0  0  0  0  0  0
    4.0196   -0.4014   -0.6717 C   0  0  0  0  0  0  0  0  0  0  0  0
  1 18  1  0
  2 18  2  0
  3  4  1  0
  3  5  2  0
  3  9  1  0
  4  6  1  0
  5  7  1  0
  5 11  1  0
  6  7  2  0
  6 13  1  0
  7 14  1  0
  8  9  2  0
  8 10  1  0
  8 12  1  0
 10 15  1  0
 10 18  1  0
 11 12  2  0
 13 16  2  0
 14 17  2  0
 16 17  1  0
M  END
>  <PUBCHEM_COMPOUND_CID>  (1) 
37589

>  <PUBCHEM_CONFORMER_RMSD>  (1) 
0.6

>  <PUBCHEM_CONFORMER_DIVERSEORDER>  (1) 
1
4
3
2

>  <PUBCHEM_MMFF94_PARTIAL_CHARGES>  (1) 
23
1 -0.65
10 0.2
11 -0.15
12 -0.15
13 -0.15
14 -0.15
16 -0.15
17 -0.15
18 0.66
2 -0.57
21 0.15
23 0.15
24 0.15
25 0.15
26 0.15
3 -0.14
30 0.15
31 0.15
32 0.5
4 0.29
6 -0.14
8 -0.14
9 -0.15

>  <PUBCHEM_EFFECTIVE_ROTOR_COUNT>  (1) 
2.2

>  <PUBCHEM_PHARMACOPHORE_FEATURES>  (1) 
7
1 1 acceptor
1 15 hydrophobe
1 2 acceptor
3 1 2 18 anion
5 3 4 5 6 7 rings
6 3 5 8 9 11 12 rings
6 6 7 13 14 16 17 rings

>  <PUBCHEM_HEAVY_ATOM_COUNT>  (1) 
18

>  <PUBCHEM_ATOM_DEF_STEREO_COUNT>  (1) 
0

>  <PUBCHEM_ATOM_UDEF_STEREO_COUNT>  (1) 
1

>  <PUBCHEM_BOND_DEF_STEREO_COUNT>  (1) 
0

>  <PUBCHEM_BOND_UDEF_STEREO_COUNT>  (1) 
0

>  <PUBCHEM_ISOTOPIC_ATOM_COUNT>  (1) 
0

>  <PUBCHEM_COMPONENT_COUNT>  (1) 
1

>  <PUBCHEM_CACTVS_TAUTO_COUNT>  (1) 
1

>  <PUBCHEM_CONFORMER_ID>  (1) 
000092D500000001

>  <PUBCHEM_MMFF94_ENERGY>  (1) 
56.2056

>  <PUBCHEM_FEATURE_SELFOVERLAP>  (1) 
35.744

>  <PUBCHEM_SHAPE_FINGERPRINT>  (1) 
11132069 177 18411694392116973137
11543360 7 15068624932566786011
12032990 46 18412267254665035425
12236239 1 17313103042888940786
12403814 3 16805317773887089213
13134695 92 16559025021375910016
13288520 33 18411703183603733238
13533116 47 16343709811176665646
13544592 145 18202285788463159438
13675066 3 18131064974139250009
13760787 19 17022621987398487491
13760787 5 16732697238079466402
13862211 1 18335692858523710707
14115302 16 18040724696248653532
14252887 29 18131070441796063690
14289901 80 16702012102036798904
14386348 63 18272937115713659478
14573314 32 17989207018768174089
14866123 147 17194339075097265978
14911166 2 18335422361129746821
15099037 51 18410013243117318135
15196674 1 18336545018663484385
15375358 24 18343298184673891562
15536298 74 18339358681545551729
15788980 27 14979961358627415937
15848700 24 18413105074104375268
15848702 151 17775293728859952455
16752209 62 18261107431139304592
16945 1 18334572421519765529
17804303 29 18335701676160024073
17834072 8 18409444782952919373
18186145 218 18114173168401353637
19026448 5 16443060586587542625
19141452 34 17988644137977542863
200 152 16988844960149393259
20279233 1 18202567284935636606
20374829 77 18411982442788938182
20645476 183 17240492441383300874
20645477 70 18340486776080098588
20871999 31 18333740104276468940
21033648 29 17346019113477932329
21267235 1 18335708277899284987
221490 88 18191312782529066963
2215653 11 18201719522483437877
23175994 123 17775568654280724681
23366157 5 17606958666151788380
23402539 116 18412538808156464351
23557571 272 18341618079066531117
23559900 14 18271805757024975752
26918003 58 16845575322285334790
2748010 2 18191301783038901873
296302 2 15123505947497563881
3004659 81 18113901512432323802
335352 9 18408884040876516821
474 4 16010170884928008236
4990 188 18413393115885524054
5104073 3 18336263561135760161
59755656 215 18408037399870042423
69090 78 18060132176296716623
7364860 26 18197219372021455784
9709674 26 18193839468850342611
9981440 41 17109030669491370481

>  <PUBCHEM_SHAPE_MULTIPOLES>  (1) 
358.69
9.99
1.63
0.97
1.61
0.24
0.08
-1.58
-1.11
-0.85
-0.04
1.26
-0.16
0.56

>  <PUBCHEM_SHAPE_SELFOVERLAP>  (1) 
794.891

>  <PUBCHEM_SHAPE_VOLUME>  (1) 
193.9

>  <PUBCHEM_COORDINATE_TYPE>  (1) 
2
5
10

$$$$
