37586
     RDKit          3D

 21 24  0  0  1  0  0  0  0  0999 V2000
    3.7549    2.3816   -1.7297 Cl  0  0  0  0  0  0  0  0  0  0  0  0
   -1.6130    2.0659    1.1224 N   0  0  0  0  0  0  0  0  0  0  0  0
    3.6801   -0.1009   -0.8007 N   0  0  0  0  0  0  0  0  0  0  0  0
   -4.5679   -2.5877   -1.1043 N   0  0  0  0  0  0  0  0  0  0  0  0
   -0.6360   -0.2266    0.9669 C   0  0  0  0  0  0  0  0  0  0  0  0
   -0.3427    1.3300    0.9692 C   0  0  0  0  0  0  0  0  0  0  0  0
   -1.6631   -0.5858   -0.1159 C   0  0  0  0  0  0  0  0  0  0  0  0
   -2.9297    0.2613    0.0418 C   0  0  0  0  0  0  0  0  0  0  0  0
    0.5649    1.8218   -0.2265 C   0  0  0  0  0  0  0  0  0  0  0  0
   -2.5915    1.7597    0.0736 C   0  0  0  0  0  0  0  0  0  0  0  0
    0.6379   -1.0203    0.7708 C   0  0  0  0  0  0  0  0  0  0  0  0
    1.6974   -0.3927    0.1075 C   0  0  0  0  0  0  0  0  0  0  0  0
    1.7486    0.9265   -0.3851 C   0  0  0  0  0  0  0  0  0  0  0  0
   -3.9235   -0.0435   -1.0784 C   0  0  0  0  0  0  0  0  0  0  0  0
   -1.4285    3.5074    1.2643 C   0  0  0  0  0  0  0  0  0  0  0  0
    2.8972   -1.0279   -0.1475 C   0  0  0  0  0  0  0  0  0  0  0  0
    0.8354   -2.3479    1.1633 C   0  0  0  0  0  0  0  0  0  0  0  0
    2.9920    1.0873   -0.9504 C   0  0  0  0  0  0  0  0  0  0  0  0
    3.1140   -2.3498    0.2435 C   0  0  0  0  0  0  0  0  0  0  0  0
    2.0534   -2.9948    0.9044 C   0  0  0  0  0  0  0  0  0  0  0  0
   -4.2798   -1.4638   -1.0892 C   0  0  0  0  0  0  0  0  0  0  0  0
  1 18  1  0
  2  6  1  0
  2 10  1  0
  2 15  1  0
  3 16  1  0
  3 18  1  0
  4 21  3  0
  5  6  1  0
  5  7  1  0
  5 11  1  0
  6  9  1  0
  7  8  1  0
  8 10  1  0
  8 14  1  0
  9 13  1  0
 11 12  2  0
 11 17  1  0
 12 13  1  0
 12 16  1  0
 13 18  2  0
 14 21  1  0
 16 19  2  0
 17 20  2  0
 19 20  1  0
M  END
>  <PUBCHEM_COMPOUND_CID>  (1) 
37586

>  <PUBCHEM_CONFORMER_RMSD>  (1) 
0.6

>  <PUBCHEM_CONFORMER_DIVERSEORDER>  (1) 
3
16
9
30
14
2
18
4
10
15
12
17
23
7
5
21
26
25
22
6
11
31
19
13
20
29
1
24
27
8
28

>  <PUBCHEM_MMFF94_PARTIAL_CHARGES>  (1) 
22
1 -0.12
10 0.27
11 -0.14
13 -0.18
14 0.2
15 0.27
16 -0.15
17 -0.15
18 -0.03
19 -0.15
2 -0.81
20 -0.15
21 0.36
3 0.03
36 0.15
37 0.27
38 0.15
39 0.15
4 -0.56
5 0.14
6 0.27
9 0.18

>  <PUBCHEM_EFFECTIVE_ROTOR_COUNT>  (1) 
2

>  <PUBCHEM_PHARMACOPHORE_FEATURES>  (1) 
8
1 2 cation
1 3 cation
1 3 donor
1 4 acceptor
5 3 12 13 16 18 rings
6 11 12 16 17 19 20 rings
6 2 5 6 7 8 10 rings
6 5 6 9 11 12 13 rings

>  <PUBCHEM_HEAVY_ATOM_COUNT>  (1) 
21

>  <PUBCHEM_ATOM_DEF_STEREO_COUNT>  (1) 
0

>  <PUBCHEM_ATOM_UDEF_STEREO_COUNT>  (1) 
3

>  <PUBCHEM_BOND_DEF_STEREO_COUNT>  (1) 
0

>  <PUBCHEM_BOND_UDEF_STEREO_COUNT>  (1) 
0

>  <PUBCHEM_ISOTOPIC_ATOM_COUNT>  (1) 
0

>  <PUBCHEM_COMPONENT_COUNT>  (1) 
1

>  <PUBCHEM_CACTVS_TAUTO_COUNT>  (1) 
1

>  <PUBCHEM_CONFORMER_ID>  (1) 
000092D200000003

>  <PUBCHEM_MMFF94_ENERGY>  (1) 
45.5202

>  <PUBCHEM_FEATURE_SELFOVERLAP>  (1) 
40.87

>  <PUBCHEM_SHAPE_FINGERPRINT>  (1) 
10062212 137 18193556653701203259
10756046 5 18335980861729073741
10967382 1 17972053444054260384
11578080 2 17980166765751812600
11725454 13 15865181563021232437
12035759 4 18410577262238001791
12293681 160 18196098960956048176
12403260 363 18408884036586966904
12553582 1 18272360984864516963
12788726 201 18059017173101907073
13009979 54 18125436419408515866
13140716 1 17327210013465502056
13583140 156 16125244436056189378
13911987 19 17900557957660844132
14250199 8 18188497856441441264
14576447 43 18411694417649763999
14787075 74 18127968813883707032
15099037 8 18267017267599815963
15537594 2 18270407208557704527
15842332 3 18267878185056853552
16752209 62 17914883258831133005
16945 1 18338808891577407056
17349148 13 18260257534779293634
17492 89 18340769217710183935
19141452 34 17477763486050926698
192875 21 18260542291116273466
20291156 8 18342729715951421007
20739085 24 16324590098533595593
21634736 98 18336550391551585606
22112679 90 18126568916253074320
22393880 68 18410293588443816428
22950370 63 18343305907589904015
23379529 103 18060144227653898046
23419403 2 17542168646731381952
235170 7 17313931031064063007
23557571 272 17559665140492973418
23558518 356 18339371764190093216
23559900 14 17986940865622022936
23598291 2 18194126205109107006
238 59 18114181985747705142
25147074 1 18338526218241588664
2748010 2 17259078805309495640
352729 6 18045521930532806024
394222 165 17386558202121228560
4409770 3 15387512240207447801
474 4 18114758044368731200
603831 33 18413392024926992012
6992083 37 17617379485087466080
7164475 11 18341328881743662925
7471813 234 18340187614639332342
7615 1 18267024964160280416
7832392 63 17831872252426447320
84936 182 18411427198249991360
90525 40 18055637218122186639
9981440 41 18262524831157217160

>  <PUBCHEM_SHAPE_MULTIPOLES>  (1) 
419.1
7.3
3.65
1.36
4.04
0.24
0.11
-2.12
4.26
-0.49
-0.72
0.18
0.36
-2.88

>  <PUBCHEM_SHAPE_SELFOVERLAP>  (1) 
911.158

>  <PUBCHEM_SHAPE_VOLUME>  (1) 
225.8

>  <PUBCHEM_COORDINATE_TYPE>  (1) 
2
5
10

$$$$
