37603
     RDKit          3D

 14 16  0  0  1  0  0  0  0  0999 V2000
   -1.0568    0.8121   -0.1612 N   0  0  0  0  0  0  0  0  0  0  0  0
   -3.1880   -0.3309   -0.5052 C   0  0  0  0  0  0  0  0  0  0  0  0
   -4.6493   -0.4801   -0.2911 C   0  0  0  0  0  0  0  0  0  0  0  0
   -3.6882   -1.4446    0.3395 C   0  0  0  0  0  0  0  0  0  0  0  0
   -2.4793    0.8224    0.1786 C   0  0  0  0  0  0  0  0  0  0  0  0
   -0.3713    1.9674    0.4310 C   0  0  0  0  0  0  0  0  0  0  0  0
   -0.4296   -0.4408    0.2949 C   0  0  0  0  0  0  0  0  0  0  0  0
    1.0617    2.0529   -0.1043 C   0  0  0  0  0  0  0  0  0  0  0  0
    1.0695   -0.4640    0.1026 C   0  0  0  0  0  0  0  0  0  0  0  0
    1.7886    0.7347   -0.0438 C   0  0  0  0  0  0  0  0  0  0  0  0
    1.7592   -1.6836    0.1338 C   0  0  0  0  0  0  0  0  0  0  0  0
    3.1808    0.6939   -0.1943 C   0  0  0  0  0  0  0  0  0  0  0  0
    3.1465   -1.7133   -0.0072 C   0  0  0  0  0  0  0  0  0  0  0  0
    3.8562   -0.5261   -0.1734 C   0  0  0  0  0  0  0  0  0  0  0  0
  1  5  1  0
  1  6  1  0
  1  7  1  0
  2  3  1  0
  2  4  1  0
  2  5  1  0
  3  4  1  0
  6  8  1  0
  7  9  1  0
  8 10  1  0
  9 10  2  0
  9 11  1  0
 10 12  1  0
 11 13  2  0
 12 14  2  0
 13 14  1  0
M  END
>  <PUBCHEM_COMPOUND_CID>  (1) 
37603

>  <PUBCHEM_CONFORMER_RMSD>  (1) 
0.6

>  <PUBCHEM_CONFORMER_DIVERSEORDER>  (1) 
1
2
3
6
5
4
7

>  <PUBCHEM_MMFF94_PARTIAL_CHARGES>  (1) 
23
1 -0.81
10 -0.14
11 -0.15
12 -0.15
13 -0.15
14 -0.15
15 0.1
16 0.1
17 0.1
18 0.1
19 0.1
2 -0.19
28 0.15
29 0.15
3 -0.2
30 0.15
31 0.15
4 -0.2
5 0.37
6 0.27
7 0.41
8 0.14
9 -0.14

>  <PUBCHEM_EFFECTIVE_ROTOR_COUNT>  (1) 
3.4

>  <PUBCHEM_PHARMACOPHORE_FEATURES>  (1) 
3
1 1 cation
6 1 6 7 8 9 10 rings
6 9 10 11 12 13 14 rings

>  <PUBCHEM_HEAVY_ATOM_COUNT>  (1) 
14

>  <PUBCHEM_ATOM_DEF_STEREO_COUNT>  (1) 
0

>  <PUBCHEM_ATOM_UDEF_STEREO_COUNT>  (1) 
0

>  <PUBCHEM_BOND_DEF_STEREO_COUNT>  (1) 
0

>  <PUBCHEM_BOND_UDEF_STEREO_COUNT>  (1) 
0

>  <PUBCHEM_ISOTOPIC_ATOM_COUNT>  (1) 
0

>  <PUBCHEM_COMPONENT_COUNT>  (1) 
1

>  <PUBCHEM_CACTVS_TAUTO_COUNT>  (1) 
1

>  <PUBCHEM_CONFORMER_ID>  (1) 
000092E300000001

>  <PUBCHEM_MMFF94_ENERGY>  (1) 
36.8578

>  <PUBCHEM_FEATURE_SELFOVERLAP>  (1) 
15.245

>  <PUBCHEM_SHAPE_FINGERPRINT>  (1) 
10618630 7 18411699863583496357
10967382 1 18338799030279604666
11471102 20 18409726296114791605
11543360 7 16153719750873302190
11769659 78 18410853218186901352
11806522 49 18410574006652661412
12032990 46 18411984645801147374
13705890 14 18261108578000846652
14251717 144 18410011061004919326
14252887 29 17846506928238247774
14576447 43 18341326781494495647
15196674 1 18410575067488490996
15375462 189 18272931665331510855
15477762 27 18410292535981500110
15536298 74 18343581871374266816
15757776 16 18334009476056386314
16945 1 18335714848756201184
17834074 16 18335140938056848411
18186145 218 17676481753133336375
19107657 46 18411138043470575327
19422 9 18342745082822043121
200 152 18343580742056181347
20201158 50 18334296482882467491
20281475 54 18339082588067586088
20645477 70 18412258467536591967
20671657 53 18410014325364745637
20871998 22 18201164234757122598
21267235 1 18411709767852317190
21501502 16 18266184924597375440
21501925 9 18411410705168743120
221490 88 18191031294609737475
22485316 2 18342453759865033479
23402539 116 18337104562797426342
23402655 69 18408602539512745837
23463225 33 18412827966834922663
23559900 14 18266451002316939450
25610 137 18411420609147231580
2748010 2 18339633422208571692
2871803 45 18334572417277558671
3312278 4 18339643330597903201
5104073 3 18411981329986136529
581208 293 18410291441091997648
7364860 26 18270678800160571840
83771 10 18413387627112459409
8809292 202 18187368782934010651
94968 8 18410856572672566438

>  <PUBCHEM_SHAPE_MULTIPOLES>  (1) 
283.13
7.6
2
0.68
5.13
0.38
0
-3.25
0.75
-0.7
-0.15
0.11
0
-0.05

>  <PUBCHEM_SHAPE_SELFOVERLAP>  (1) 
597.574

>  <PUBCHEM_SHAPE_VOLUME>  (1) 
159.1

>  <PUBCHEM_COORDINATE_TYPE>  (1) 
2
5
10

$$$$
