37612
     RDKit          3D

 23 26  0  0  0  0  0  0  0  0999 V2000
    0.3518   -0.0030   -1.2823 N   0  0  0  0  0  0  0  0  0  0  0  0
   -3.3378    0.0037    0.7066 N   0  0  0  0  0  0  0  0  0  0  0  0
    5.6445   -0.0004    0.5783 N   0  0  0  0  0  0  0  0  0  0  0  0
   -0.8994   -0.0006   -0.6077 C   0  0  0  0  0  0  0  0  0  0  0  0
   -1.5079    1.2152   -0.2797 C   0  0  0  0  0  0  0  0  0  0  0  0
   -1.5113   -1.2142   -0.2781 C   0  0  0  0  0  0  0  0  0  0  0  0
   -2.7441    1.1698    0.3867 C   0  0  0  0  0  0  0  0  0  0  0  0
   -2.7474   -1.1645    0.3882 C   0  0  0  0  0  0  0  0  0  0  0  0
    1.6735   -0.0054   -0.8176 C   0  0  0  0  0  0  0  0  0  0  0  0
   -0.9156    2.4495   -0.5990 C   0  0  0  0  0  0  0  0  0  0  0  0
   -0.9225   -2.4506   -0.5957 C   0  0  0  0  0  0  0  0  0  0  0  0
   -3.3550    2.3769    0.7160 C   0  0  0  0  0  0  0  0  0  0  0  0
   -3.3617   -2.3693    0.7192 C   0  0  0  0  0  0  0  0  0  0  0  0
   -1.5470    3.6420   -0.2587 C   0  0  0  0  0  0  0  0  0  0  0  0
   -1.5572   -3.6410   -0.2537 C   0  0  0  0  0  0  0  0  0  0  0  0
    2.7406   -0.0084   -1.7228 C   0  0  0  0  0  0  0  0  0  0  0  0
    1.9395   -0.0010    0.5564 C   0  0  0  0  0  0  0  0  0  0  0  0
   -2.7692    3.6053    0.4002 C   0  0  0  0  0  0  0  0  0  0  0  0
   -2.7793   -3.5998    0.4052 C   0  0  0  0  0  0  0  0  0  0  0  0
    4.3141   -0.0030    0.1108 C   0  0  0  0  0  0  0  0  0  0  0  0
    4.0565   -0.0074   -1.2603 C   0  0  0  0  0  0  0  0  0  0  0  0
    3.2554    0.0001    1.0192 C   0  0  0  0  0  0  0  0  0  0  0  0
    5.9794    0.0059    1.9688 C   0  0  0  0  0  0  0  0  0  0  0  0
  1  4  1  0
  1  9  1  0
  2  7  2  0
  2  8  1  0
  3 20  1  0
  3 23  1  0
  4  5  2  0
  4  6  1  0
  5  7  1  0
  5 10  1  0
  6  8  2  0
  6 11  1  0
  7 12  1  0
  8 13  1  0
  9 16  2  0
  9 17  1  0
 10 14  2  0
 11 15  2  0
 12 18  2  0
 13 19  2  0
 14 18  1  0
 15 19  1  0
 16 21  1  0
 17 22  2  0
 20 21  2  0
 20 22  1  0
M  END
>  <PUBCHEM_COMPOUND_CID>  (1) 
37612

>  <PUBCHEM_CONFORMER_RMSD>  (1) 
0.6

>  <PUBCHEM_CONFORMER_DIVERSEORDER>  (1) 
1
2
3
4

>  <PUBCHEM_MMFF94_PARTIAL_CHARGES>  (1) 
35
1 -0.6
10 -0.15
11 -0.15
12 -0.15
13 -0.15
14 -0.15
15 -0.15
16 -0.15
17 -0.15
18 -0.15
19 -0.15
2 -0.62
20 0.1
21 -0.15
22 -0.15
23 0.37
24 0.4
25 0.15
26 0.15
27 0.15
28 0.15
29 0.15
3 -0.87
30 0.15
31 0.15
32 0.15
33 0.15
34 0.15
35 0.15
36 0.15
37 0.4
4 0.1
7 0.31
8 0.31
9 0.1

>  <PUBCHEM_EFFECTIVE_ROTOR_COUNT>  (1) 
3

>  <PUBCHEM_PHARMACOPHORE_FEATURES>  (1) 
9
1 1 cation
1 1 donor
1 2 acceptor
1 3 cation
1 3 donor
6 2 4 5 6 7 8 rings
6 5 7 10 12 14 18 rings
6 6 8 11 13 15 19 rings
6 9 16 17 20 21 22 rings

>  <PUBCHEM_HEAVY_ATOM_COUNT>  (1) 
23

>  <PUBCHEM_ATOM_DEF_STEREO_COUNT>  (1) 
0

>  <PUBCHEM_ATOM_UDEF_STEREO_COUNT>  (1) 
0

>  <PUBCHEM_BOND_DEF_STEREO_COUNT>  (1) 
0

>  <PUBCHEM_BOND_UDEF_STEREO_COUNT>  (1) 
0

>  <PUBCHEM_ISOTOPIC_ATOM_COUNT>  (1) 
0

>  <PUBCHEM_COMPONENT_COUNT>  (1) 
1

>  <PUBCHEM_CACTVS_TAUTO_COUNT>  (1) 
2

>  <PUBCHEM_CONFORMER_ID>  (1) 
000092EC00000001

>  <PUBCHEM_MMFF94_ENERGY>  (1) 
104.3292

>  <PUBCHEM_FEATURE_SELFOVERLAP>  (1) 
45.732

>  <PUBCHEM_SHAPE_FINGERPRINT>  (1) 
10074138 170 18408604760295629539
10319926 262 18342167840251539794
10369192 42 16699211797142319656
10411042 1 18051140481958836327
10930396 42 18053630798195447592
1100329 8 18265062504030572587
11049842 53 18120679954119741934
12035758 1 18341344344475443553
12107183 9 18047180853261749914
12173636 292 18266462001306159117
12236239 1 17603870021971792942
12523318 42 18411410731149576354
12553582 1 18122361321740891175
12633257 1 18130237045967538384
12788726 201 18189633798077124746
12930653 34 18341326726256156006
13004483 165 18194963165423229007
13009979 54 18041848431919558510
13140716 1 18267029542885217347
13583140 156 17988345036892736882
138480 1 16535396160465845925
14081887 123 18412828001379439650
14178342 30 18408321077848536222
14420673 8 18048599219014826282
14787075 74 17467644027700025396
14844126 61 18335697282108027963
15042514 8 18336838566920014043
15230672 131 18048326540337003110
15326921 28 17758651392768147560
15475509 35 16668548685159229059
15842332 3 17822589282169872148
16992727 255 18262778706958615557
17780758 139 18261940913125717314
17980427 26 17476065835755142645
19377110 9 17968937621728456560
20510252 161 18270974435939726545
20554085 129 18053921988705348601
20600515 1 18127991873826336965
21033648 29 18197223538029132088
21065201 7 18341905065230087598
21304303 282 18192969562206226933
21421861 104 17257102987388912083
21650355 55 18338517551092355279
22149856 69 17543666062186360569
22224240 67 18199474269023643657
22956985 138 17183611634098027754
23402539 116 18343578577709435583
23522609 53 17822590309390125460
23557571 272 18201452367455505028
23559900 14 18127428769417773606
25147074 1 17822584893024648884
2748010 2 17831894286172853199
3091708 16 8697282640009365599
3178227 256 18263383515927216107
350125 39 17905626410143872975
5265222 85 18271261512387527806
5364581 5 18127108987828749368
58807428 26 18193853539421608881
602551 16 18411422804445089142
6371380 46 17835517121057348614
7097593 13 18042682806705137754
7364860 26 17185603412670997109
7808743 9 18338248098040894980
81228 2 18341614858320951007
84936 182 17478335232065676161
90316 7 18338808926026828839
9981440 41 18120094975115600233

>  <PUBCHEM_SHAPE_MULTIPOLES>  (1) 
458.39
9.27
4.26
1.3
16.86
0.02
0.02
-0.02
4.2
-7.71
0.21
1.67
0
0.01

>  <PUBCHEM_SHAPE_SELFOVERLAP>  (1) 
1027.677

>  <PUBCHEM_SHAPE_VOLUME>  (1) 
241.3

>  <PUBCHEM_COORDINATE_TYPE>  (1) 
2
5
10

$$$$
