37615
     RDKit          3D

 21 22  0  0  0  0  0  0  0  0999 V2000
    0.3123    1.2045    1.0351 O   0  0  0  0  0  0  0  0  0  0  0  0
   -3.5943   -1.6525    0.0269 O   0  0  0  0  0  0  0  0  0  0  0  0
   -5.3734   -0.1920    0.0541 O   0  0  0  0  0  0  0  0  0  0  0  0
    1.0329    0.3612   -0.9973 O   0  0  0  0  0  0  0  0  0  0  0  0
    2.4710    0.4746    0.8469 N   0  0  0  0  0  0  0  0  0  0  0  0
   -3.1395    0.6366   -0.0359 C   0  0  0  0  0  0  0  0  0  0  0  0
   -0.9121    1.4170    0.4802 C   0  0  0  0  0  0  0  0  0  0  0  0
   -1.8847    0.4187    0.5331 C   0  0  0  0  0  0  0  0  0  0  0  0
   -3.4216    1.8530   -0.6576 C   0  0  0  0  0  0  0  0  0  0  0  0
   -1.1942    2.6334   -0.1415 C   0  0  0  0  0  0  0  0  0  0  0  0
    3.6848   -0.0543    0.3524 C   0  0  0  0  0  0  0  0  0  0  0  0
   -2.4491    2.8514   -0.7103 C   0  0  0  0  0  0  0  0  0  0  0  0
   -4.1540   -0.4040    0.0193 C   0  0  0  0  0  0  0  0  0  0  0  0
    4.7821   -0.1395    1.1947 C   0  0  0  0  0  0  0  0  0  0  0  0
    3.7539   -0.4784   -0.9651 C   0  0  0  0  0  0  0  0  0  0  0  0
    1.2772    0.6406    0.1708 C   0  0  0  0  0  0  0  0  0  0  0  0
   -4.4943   -2.7647    0.0785 C   0  0  0  0  0  0  0  0  0  0  0  0
    5.9796   -0.6625    0.7068 C   0  0  0  0  0  0  0  0  0  0  0  0
    4.9514   -1.0015   -1.4530 C   0  0  0  0  0  0  0  0  0  0  0  0
    6.0643   -1.0934   -0.6170 C   0  0  0  0  0  0  0  0  0  0  0  0
   -3.6921   -4.0485    0.0790 C   0  0  0  0  0  0  0  0  0  0  0  0
  1  7  1  0
  1 16  1  0
  2 13  1  0
  2 17  1  0
  3 13  2  0
  4 16  2  0
  5 11  1  0
  5 16  1  0
  6  8  2  0
  6  9  1  0
  6 13  1  0
  7  8  1  0
  7 10  2  0
  9 12  2  0
 10 12  1  0
 11 14  2  0
 11 15  1  0
 14 18  1  0
 15 19  2  0
 17 21  1  0
 18 20  2  0
 19 20  1  0
M  END
>  <PUBCHEM_COMPOUND_CID>  (1) 
37615

>  <PUBCHEM_CONFORMER_RMSD>  (1) 
0.8

>  <PUBCHEM_CONFORMER_DIVERSEORDER>  (1) 
1
94
40
86
173
117
130
183
103
6
128
32
155
65
131
144
57
106
76
177
171
107
60
88
4
166
80
167
11
146
67
51
115
137
118
18
142
160
105
101
42
66
121
97
2
127
96
7
102
45
148
31
157
111
72
55
104
113
12
33
134
174
108
120
34
185
19
28
156
93
87
38
39
150
83
179
145
133
90
49
26
21
158
122
126
136
182
8
99
84
165
161
53
92
98
52
71
77
163
29
132
151
91
186
172
178
23
109
14
3
123
112
73
70
149
61
59
162
138
58
15
175
125
75
64
169
68
22
95
13
5
119
129
176
48
30
16
110
135
78
147
114
141
116
140
47
69
181
43
164
79
170
50
54
10
37
41
152
20
74
44
143
184
35
180
124
159
27
100
36
139
154
46
24
81
56
85
62
25
63
153
9
89
17
82
168

>  <PUBCHEM_MMFF94_PARTIAL_CHARGES>  (1) 
30
1 -0.23
10 -0.15
11 0.12
12 -0.15
13 0.63
14 -0.15
15 -0.15
16 0.78
17 0.28
18 -0.15
19 -0.15
2 -0.43
20 -0.15
22 0.15
23 0.15
24 0.15
25 0.15
26 0.37
27 0.15
28 0.15
3 -0.57
31 0.15
32 0.15
33 0.15
4 -0.57
5 -0.55
6 0.09
7 0.08
8 -0.15
9 -0.15

>  <PUBCHEM_EFFECTIVE_ROTOR_COUNT>  (1) 
7

>  <PUBCHEM_PHARMACOPHORE_FEATURES>  (1) 
5
1 3 acceptor
1 4 acceptor
1 5 donor
6 11 14 15 18 19 20 rings
6 6 7 8 9 10 12 rings

>  <PUBCHEM_HEAVY_ATOM_COUNT>  (1) 
21

>  <PUBCHEM_ATOM_DEF_STEREO_COUNT>  (1) 
0

>  <PUBCHEM_ATOM_UDEF_STEREO_COUNT>  (1) 
0

>  <PUBCHEM_BOND_DEF_STEREO_COUNT>  (1) 
0

>  <PUBCHEM_BOND_UDEF_STEREO_COUNT>  (1) 
0

>  <PUBCHEM_ISOTOPIC_ATOM_COUNT>  (1) 
0

>  <PUBCHEM_COMPONENT_COUNT>  (1) 
1

>  <PUBCHEM_CACTVS_TAUTO_COUNT>  (1) 
2

>  <PUBCHEM_CONFORMER_ID>  (1) 
000092EF00000001

>  <PUBCHEM_MMFF94_ENERGY>  (1) 
64.1643

>  <PUBCHEM_FEATURE_SELFOVERLAP>  (1) 
25.372

>  <PUBCHEM_SHAPE_FINGERPRINT>  (1) 
11056379 131 18337675200383923261
11069576 57 16971940270359423071
11135609 99 18268422435852283242
11524674 6 17489584550515064735
11796584 16 18411979127000319746
11809386 21 18186795877072265611
12236239 1 17313106298252981816
12990986 174 18338234989478901895
13402501 40 18202849854781361615
13911882 115 17846225440719858174
14251751 18 18411419539927215222
14251757 5 18187936130623037906
14461889 52 18270953644699243106
14950920 106 15482107309884881411
15250474 111 18114731634620408794
15537594 2 18113618980503223523
17138139 8 17822845506681013178
17844677 252 18410858729231978560
17870717 6 18339083687732376701
18927931 339 18334581235140699483
19489759 90 18188490168867050648
200 152 17022905618860431780
20374829 77 18409728482617090203
20621476 21 18131360700076334246
21054139 6 18113335311114787322
21065201 7 18339917100820022968
21307412 95 18412256268977885271
21623969 137 17203610376644934958
21728266 224 18260537910059857402
23379529 103 18267309909497193127
23402539 116 17168146689526137116
23557571 272 18272094842187973173
23559900 14 18411127052480830200
25122255 55 18271536307962124614
2838139 119 11026061521644557435
2916195 48 7853574595268514483
4073 2 18201722804371221202
5104073 3 17130987539320469482
59755656 215 18410853222814639463
59755656 520 18055078657868805905
7970288 3 18192991741217824627

>  <PUBCHEM_SHAPE_MULTIPOLES>  (1) 
403.71
14.3
3.24
1.05
14.07
2.3
0.09
8.87
0.78
-6.96
0.32
1.3
-0.04
1.01

>  <PUBCHEM_SHAPE_SELFOVERLAP>  (1) 
857.26

>  <PUBCHEM_SHAPE_VOLUME>  (1) 
223.7

>  <PUBCHEM_COORDINATE_TYPE>  (1) 
2
5
10

$$$$
