37621
     RDKit          3D

 18 19  0  0  0  0  0  0  0  0999 V2000
   -0.3402   -1.2747    0.1443 O   0  0  0  0  0  0  0  0  0  0  0  0
    0.4389    0.8796   -0.1916 O   0  0  0  0  0  0  0  0  0  0  0  0
   -6.2340    1.0706    0.6483 O   0  0  0  0  0  0  0  0  0  0  0  0
    1.9164   -0.9059    0.1426 N   0  0  0  0  0  0  0  0  0  0  0  0
    3.1904   -0.2975    0.0753 C   0  0  0  0  0  0  0  0  0  0  0  0
   -1.6113   -0.8017    0.0324 C   0  0  0  0  0  0  0  0  0  0  0  0
   -4.2181    0.1652   -0.1969 C   0  0  0  0  0  0  0  0  0  0  0  0
   -2.2314   -0.7567   -1.2163 C   0  0  0  0  0  0  0  0  0  0  0  0
   -2.2948   -0.3633    1.1666 C   0  0  0  0  0  0  0  0  0  0  0  0
   -3.5347   -0.2731   -1.3310 C   0  0  0  0  0  0  0  0  0  0  0  0
   -3.5982    0.1202    1.0519 C   0  0  0  0  0  0  0  0  0  0  0  0
    4.3248   -1.0777    0.2345 C   0  0  0  0  0  0  0  0  0  0  0  0
    3.2809    1.0672   -0.1490 C   0  0  0  0  0  0  0  0  0  0  0  0
    5.5823   -0.4777    0.1678 C   0  0  0  0  0  0  0  0  0  0  0  0
    4.5384    1.6671   -0.2159 C   0  0  0  0  0  0  0  0  0  0  0  0
    0.6788   -0.3053    0.0104 C   0  0  0  0  0  0  0  0  0  0  0  0
    5.6890    0.8946   -0.0574 C   0  0  0  0  0  0  0  0  0  0  0  0
   -5.5772    0.6692   -0.3162 C   0  0  0  0  0  0  0  0  0  0  0  0
  1  6  1  0
  1 16  1  0
  2 16  2  0
  3 18  2  0
  4  5  1  0
  4 16  1  0
  5 12  2  0
  5 13  1  0
  6  8  2  0
  6  9  1  0
  7 10  2  0
  7 11  1  0
  7 18  1  0
  8 10  1  0
  9 11  2  0
 12 14  1  0
 13 15  2  0
 14 17  2  0
 15 17  1  0
M  END
>  <PUBCHEM_COMPOUND_CID>  (1) 
37621

>  <PUBCHEM_CONFORMER_RMSD>  (1) 
0.6

>  <PUBCHEM_CONFORMER_DIVERSEORDER>  (1) 
1
29
8
28
17
30
6
23
22
4
18
14
19
13
12
3
21
5
15
25
9
20
16
26
2
24
10
7
27
11

>  <PUBCHEM_MMFF94_PARTIAL_CHARGES>  (1) 
29
1 -0.23
10 -0.15
11 -0.15
12 -0.15
13 -0.15
14 -0.15
15 -0.15
16 0.78
17 -0.15
18 0.42
19 0.15
2 -0.57
20 0.15
21 0.15
22 0.15
23 0.15
24 0.15
25 0.37
26 0.15
27 0.15
28 0.15
29 0.06
3 -0.57
4 -0.55
5 0.12
6 0.08
7 0.09
8 -0.15
9 -0.15

>  <PUBCHEM_EFFECTIVE_ROTOR_COUNT>  (1) 
5

>  <PUBCHEM_PHARMACOPHORE_FEATURES>  (1) 
5
1 2 acceptor
1 3 acceptor
1 4 donor
6 5 12 13 14 15 17 rings
6 6 7 8 9 10 11 rings

>  <PUBCHEM_HEAVY_ATOM_COUNT>  (1) 
18

>  <PUBCHEM_ATOM_DEF_STEREO_COUNT>  (1) 
0

>  <PUBCHEM_ATOM_UDEF_STEREO_COUNT>  (1) 
0

>  <PUBCHEM_BOND_DEF_STEREO_COUNT>  (1) 
0

>  <PUBCHEM_BOND_UDEF_STEREO_COUNT>  (1) 
0

>  <PUBCHEM_ISOTOPIC_ATOM_COUNT>  (1) 
0

>  <PUBCHEM_COMPONENT_COUNT>  (1) 
1

>  <PUBCHEM_CACTVS_TAUTO_COUNT>  (1) 
2

>  <PUBCHEM_CONFORMER_ID>  (1) 
000092F500000001

>  <PUBCHEM_MMFF94_ENERGY>  (1) 
56.8167

>  <PUBCHEM_FEATURE_SELFOVERLAP>  (1) 
25.371

>  <PUBCHEM_SHAPE_FINGERPRINT>  (1) 
11089746 13 18130783473371818464
11315181 36 16200152127288770762
117890 112 18273494576609205520
12236239 1 18131067130170757911
12616971 3 18412254039309323622
12916748 109 15140678064381541742
13167372 99 18340488859181857496
13288520 33 9151172056810111235
13533116 47 17988360369673081066
13675066 3 17530686536975802474
1420 363 11815896768735251637
14251764 75 16157114068677290412
14341114 176 16660363675640279748
14528608 73 17917989529503494500
15048467 5 18342175570174573696
15348495 7 17168433760702745000
17834072 33 18131347552732710174
17834076 25 17989486320607347551
17870717 6 14908186378070181453
18222031 100 12103844557846285842
19433438 28 17022615364754004780
19489759 90 15626508284888758515
200 152 18131627898101249838
20281389 69 18335417954857661645
20645477 56 17312816087222977527
20645477 70 18335416838525016710
21033648 29 17750216114872293892
212847 35 18343300375297188288
22224240 67 17458347429944632219
2297311 6 15357981118346910558
23402539 116 16702013176195412541
23402655 69 18202562886482833278
23536379 177 18343863312107244607
23559900 14 15338823296453494859
2838139 119 18340761534636060285
29717793 49 17561369470185466420
300161 21 17989484143517857874
3004659 81 17059783217718891070
34797466 226 15195286481922435168
3545911 37 17385723582416660594
5104073 3 18115300206833083594
542803 24 18412542115281307990
5924683 9 17386856182520406747
59755656 520 18186799188698077651
8272917 22 18341895156598474694

>  <PUBCHEM_SHAPE_MULTIPOLES>  (1) 
347.84
14.92
1.27
0.97
0.84
0.2
-0.06
4.57
0.48
0.97
-0.02
-1.12
-0.08
-0.51

>  <PUBCHEM_SHAPE_SELFOVERLAP>  (1) 
747.585

>  <PUBCHEM_SHAPE_VOLUME>  (1) 
189

>  <PUBCHEM_COORDINATE_TYPE>  (1) 
2
5
10

$$$$
