37636
     RDKit          3D

 26 29  0  0  1  0  0  0  0  0999 V2000
   -0.6533    1.2652   -0.0686 O   0  0  0  0  0  0  0  0  0  0  0  0
   -5.7514    1.6481    0.0597 O   0  0  0  0  0  0  0  0  0  0  0  0
   -0.1006   -0.9680   -0.5886 N   0  0  0  0  0  0  0  0  0  0  0  0
   -3.4961   -0.0804    0.2273 N   0  0  0  0  0  0  0  0  0  0  0  0
    1.4545    0.2601    0.7396 C   0  0  0  0  0  0  0  0  0  0  0  0
    1.9232   -1.1545    0.4552 C   0  0  0  0  0  0  0  0  0  0  0  0
    0.0913    0.2960   -0.0113 C   0  0  0  0  0  0  0  0  0  0  0  0
    0.9752   -1.8243   -0.3208 C   0  0  0  0  0  0  0  0  0  0  0  0
   -1.2476   -1.3596   -1.3736 C   0  0  0  0  0  0  0  0  0  0  0  0
   -2.2941   -2.1067   -0.5489 C   0  0  0  0  0  0  0  0  0  0  0  0
    2.3750    1.2870    0.1606 C   0  0  0  0  0  0  0  0  0  0  0  0
    1.2340    0.5067    2.2293 C   0  0  0  0  0  0  0  0  0  0  0  0
   -2.8402   -1.3179    0.6446 C   0  0  0  0  0  0  0  0  0  0  0  0
    3.0874   -1.7913    0.8559 C   0  0  0  0  0  0  0  0  0  0  0  0
    1.1571   -3.1370   -0.7210 C   0  0  0  0  0  0  0  0  0  0  0  0
   -4.6163   -0.3641   -0.6805 C   0  0  0  0  0  0  0  0  0  0  0  0
   -3.9724    0.6766    1.3934 C   0  0  0  0  0  0  0  0  0  0  0  0
    2.1629    1.7576   -1.1331 C   0  0  0  0  0  0  0  0  0  0  0  0
    3.4408    1.7683    0.9171 C   0  0  0  0  0  0  0  0  0  0  0  0
   -5.2919    0.9407   -1.0926 C   0  0  0  0  0  0  0  0  0  0  0  0
   -4.6642    1.9566    0.9328 C   0  0  0  0  0  0  0  0  0  0  0  0
    3.2867   -3.1160    0.4602 C   0  0  0  0  0  0  0  0  0  0  0  0
    2.3292   -3.7830   -0.3220 C   0  0  0  0  0  0  0  0  0  0  0  0
    3.0215    2.7150   -1.6733 C   0  0  0  0  0  0  0  0  0  0  0  0
    4.2994    2.7257    0.3770 C   0  0  0  0  0  0  0  0  0  0  0  0
    4.0897    3.1990   -0.9183 C   0  0  0  0  0  0  0  0  0  0  0  0
  1  7  2  0
  2 20  1  0
  2 21  1  0
  3  7  1  0
  3  8  1  0
  3  9  1  0
  4 13  1  0
  4 16  1  0
  4 17  1  0
  5  6  1  0
  5  7  1  0
  5 11  1  0
  5 12  1  0
  6  8  2  0
  6 14  1  0
  8 15  1  0
  9 10  1  0
 10 13  1  0
 11 18  2  0
 11 19  1  0
 14 22  2  0
 15 23  2  0
 16 20  1  0
 17 21  1  0
 18 24  1  0
 19 25  2  0
 22 23  1  0
 24 26  2  0
 25 26  1  0
M  END
>  <PUBCHEM_COMPOUND_CID>  (1) 
37636

>  <PUBCHEM_CONFORMER_RMSD>  (1) 
0.8

>  <PUBCHEM_CONFORMER_DIVERSEORDER>  (1) 
14
49
6
51
11
44
37
61
17
47
32
57
58
25
34
5
50
45
59
63
19
31
36
35
3
56
22
38
8
52
62
40
29
20
13
41
43
9
54
7
24
23
42
55
60
30
12
33
39
27
10
28
46
48
2
16
21
1
26
53
15
18
4

>  <PUBCHEM_MMFF94_PARTIAL_CHARGES>  (1) 
33
1 -0.57
11 -0.14
13 0.27
14 -0.15
15 -0.15
16 0.27
17 0.27
18 -0.15
19 -0.15
2 -0.56
20 0.28
21 0.28
22 -0.15
23 -0.15
24 -0.15
25 -0.15
26 -0.15
3 -0.48
36 0.15
37 0.15
4 -0.81
42 0.15
43 0.15
48 0.15
49 0.15
5 0.35
50 0.15
51 0.15
52 0.15
6 -0.14
7 0.57
8 0.12
9 0.3

>  <PUBCHEM_EFFECTIVE_ROTOR_COUNT>  (1) 
6.6

>  <PUBCHEM_PHARMACOPHORE_FEATURES>  (1) 
7
1 1 acceptor
1 2 acceptor
1 4 cation
5 3 5 6 7 8 rings
6 11 18 19 24 25 26 rings
6 2 4 16 17 20 21 rings
6 6 8 14 15 22 23 rings

>  <PUBCHEM_HEAVY_ATOM_COUNT>  (1) 
26

>  <PUBCHEM_ATOM_DEF_STEREO_COUNT>  (1) 
0

>  <PUBCHEM_ATOM_UDEF_STEREO_COUNT>  (1) 
1

>  <PUBCHEM_BOND_DEF_STEREO_COUNT>  (1) 
0

>  <PUBCHEM_BOND_UDEF_STEREO_COUNT>  (1) 
0

>  <PUBCHEM_ISOTOPIC_ATOM_COUNT>  (1) 
0

>  <PUBCHEM_COMPONENT_COUNT>  (1) 
1

>  <PUBCHEM_CACTVS_TAUTO_COUNT>  (1) 
1

>  <PUBCHEM_CONFORMER_ID>  (1) 
000093040000000E

>  <PUBCHEM_MMFF94_ENERGY>  (1) 
71.6517

>  <PUBCHEM_FEATURE_SELFOVERLAP>  (1) 
35.607

>  <PUBCHEM_SHAPE_FINGERPRINT>  (1) 
10382601 240 18113893883979088354
10498660 4 18201722911587654713
10759866 29 18341899605820109217
10937287 8 18121501516516976420
11578080 2 16517975841906905074
11582403 64 15406913969077394514
12166972 35 18057040203829115259
12173636 292 17834393806245583918
12293681 160 17845385512546684360
12403260 363 18128529363472110073
12422481 6 18041540504323882160
12633257 1 16661473159902873696
12788726 201 17131284463052146097
13140716 1 18410852165925760362
13590594 115 18047758096227976336
13878862 14 18191285123409634461
14251764 38 18265329496346718317
144659 178 17625266303548241032
14739800 52 17916852621200223976
14790565 3 18193277627046554100
14955137 171 18341051801389155218
15163728 17 18044678596123765900
15238133 3 17202488788721928977
15664445 248 18127709127703617414
1601671 61 18341050701534928174
16991981 162 16747377092784850820
1813 80 18123192303608087270
18785283 64 18335138670182175966
20567600 9 18410867554956950140
20642791 178 18410289251007219658
20739085 24 18261106383568132948
21033650 10 17696501811207996884
22393880 68 18201163246919951823
23559900 14 18340200795915205827
350125 39 18410008819617696180
38695281 34 18337390556269636526
394222 165 18261668294239676666
474 4 18261107521280655795
5081480 168 18337392617442391998
5104073 3 18335989701352206587
57724786 102 18337116657678864361
59755656 215 18335141969028516756
9841814 1 17968653792450226866
9981440 41 18265615566399904667

>  <PUBCHEM_SHAPE_MULTIPOLES>  (1) 
513.37
10.09
4.3
1.43
13.93
1.87
0.2
-7.58
-0.04
-5.56
-0.96
-0.15
-0.52
-1.35

>  <PUBCHEM_SHAPE_SELFOVERLAP>  (1) 
1111.83

>  <PUBCHEM_SHAPE_VOLUME>  (1) 
283.3

>  <PUBCHEM_COORDINATE_TYPE>  (1) 
2
5
10

$$$$
