37648
     RDKit          3D

 27 30  0  0  1  0  0  0  0  0999 V2000
    0.1116   -1.2160   -1.3763 O   0  0  0  0  0  0  0  0  0  0  0  0
    0.0290    0.9053   -0.3489 N   0  0  0  0  0  0  0  0  0  0  0  0
    4.2846    0.2937    0.3362 N   0  0  0  0  0  0  0  0  0  0  0  0
   -2.0530   -0.1437   -0.8549 C   0  0  0  0  0  0  0  0  0  0  0  0
   -2.2299    1.2045   -0.1822 C   0  0  0  0  0  0  0  0  0  0  0  0
   -0.5019   -0.2636   -0.9143 C   0  0  0  0  0  0  0  0  0  0  0  0
   -0.9825    1.7708    0.0871 C   0  0  0  0  0  0  0  0  0  0  0  0
   -2.6297   -0.1647   -2.2675 C   0  0  0  0  0  0  0  0  0  0  0  0
    1.4412    1.1817   -0.2311 C   0  0  0  0  0  0  0  0  0  0  0  0
    1.9968    0.8158    1.1439 C   0  0  0  0  0  0  0  0  0  0  0  0
    3.5002    1.0599    1.3041 C   0  0  0  0  0  0  0  0  0  0  0  0
   -2.6129   -1.2620   -0.0345 C   0  0  0  0  0  0  0  0  0  0  0  0
    4.0572   -1.1472    0.5155 C   0  0  0  0  0  0  0  0  0  0  0  0
    5.7115    0.6250    0.4538 C   0  0  0  0  0  0  0  0  0  0  0  0
    4.8324   -1.9616   -0.5213 C   0  0  0  0  0  0  0  0  0  0  0  0
    6.5409   -0.1316   -0.5850 C   0  0  0  0  0  0  0  0  0  0  0  0
    6.3211   -1.6365   -0.4812 C   0  0  0  0  0  0  0  0  0  0  0  0
   -3.3974    1.8711    0.1555 C   0  0  0  0  0  0  0  0  0  0  0  0
   -0.8600    3.0067    0.6987 C   0  0  0  0  0  0  0  0  0  0  0  0
   -2.0457    0.9448   -3.1211 C   0  0  0  0  0  0  0  0  0  0  0  0
   -2.1156   -1.5001    1.2445 C   0  0  0  0  0  0  0  0  0  0  0  0
   -3.6292   -2.0609   -0.5530 C   0  0  0  0  0  0  0  0  0  0  0  0
   -3.2915    3.1192    0.7737 C   0  0  0  0  0  0  0  0  0  0  0  0
   -2.0329    3.6819    1.0433 C   0  0  0  0  0  0  0  0  0  0  0  0
   -2.6375   -2.5432    2.0096 C   0  0  0  0  0  0  0  0  0  0  0  0
   -4.1513   -3.1039    0.2120 C   0  0  0  0  0  0  0  0  0  0  0  0
   -3.6553   -3.3451    1.4933 C   0  0  0  0  0  0  0  0  0  0  0  0
  1  6  2  0
  2  6  1  0
  2  7  1  0
  2  9  1  0
  3 11  1  0
  3 13  1  0
  3 14  1  0
  4  5  1  0
  4  6  1  0
  4  8  1  0
  4 12  1  0
  5  7  2  0
  5 18  1  0
  7 19  1  0
  8 20  1  0
  9 10  1  0
 10 11  1  0
 12 21  2  0
 12 22  1  0
 13 15  1  0
 14 16  1  0
 15 17  1  0
 16 17  1  0
 18 23  2  0
 19 24  2  0
 21 25  1  0
 22 26  2  0
 23 24  1  0
 25 27  2  0
 26 27  1  0
M  END
>  <PUBCHEM_COMPOUND_CID>  (1) 
37648

>  <PUBCHEM_CONFORMER_RMSD>  (1) 
0.8

>  <PUBCHEM_CONFORMER_DIVERSEORDER>  (1) 
1
37
36
43
19
96
103
11
87
94
54
32
93
98
89
77
97
91
34
92
75
3
58
47
74
56
76
29
72
42
71
78
65
51
28
62
40
70
44
31
17
80
68
49
6
27
39
99
102
45
46
16
66
33
101
81
86
53
5
95
9
57
12
18
26
79
30
8
55
61
73
100
38
41
21
67
85
23
24
64
10
88
52
7
82
4
63
48
22
90
69
84
20
13
2
25
59
60
15
50
14
83
35

>  <PUBCHEM_MMFF94_PARTIAL_CHARGES>  (1) 
30
1 -0.57
11 0.27
12 -0.14
13 0.27
14 0.27
18 -0.15
19 -0.15
2 -0.48
21 -0.15
22 -0.15
23 -0.15
24 -0.15
25 -0.15
26 -0.15
27 -0.15
3 -0.81
4 0.35
46 0.15
47 0.15
5 -0.14
51 0.15
52 0.15
53 0.15
54 0.15
55 0.15
56 0.15
57 0.15
6 0.57
7 0.12
9 0.3

>  <PUBCHEM_EFFECTIVE_ROTOR_COUNT>  (1) 
7.6

>  <PUBCHEM_PHARMACOPHORE_FEATURES>  (1) 
7
1 1 acceptor
1 20 hydrophobe
1 3 cation
5 2 4 5 6 7 rings
6 12 21 22 25 26 27 rings
6 3 13 14 15 16 17 rings
6 5 7 18 19 23 24 rings

>  <PUBCHEM_HEAVY_ATOM_COUNT>  (1) 
27

>  <PUBCHEM_ATOM_DEF_STEREO_COUNT>  (1) 
0

>  <PUBCHEM_ATOM_UDEF_STEREO_COUNT>  (1) 
1

>  <PUBCHEM_BOND_DEF_STEREO_COUNT>  (1) 
0

>  <PUBCHEM_BOND_UDEF_STEREO_COUNT>  (1) 
0

>  <PUBCHEM_ISOTOPIC_ATOM_COUNT>  (1) 
0

>  <PUBCHEM_COMPONENT_COUNT>  (1) 
1

>  <PUBCHEM_CACTVS_TAUTO_COUNT>  (1) 
1

>  <PUBCHEM_CONFORMER_ID>  (1) 
0000931000000001

>  <PUBCHEM_MMFF94_ENERGY>  (1) 
64.3848

>  <PUBCHEM_FEATURE_SELFOVERLAP>  (1) 
35.607

>  <PUBCHEM_SHAPE_FINGERPRINT>  (1) 
107951 10 18194966240656593369
10928967 22 17561082523468264118
11387372 6 18190757352921540979
11991303 11 18263363595046276141
12082328 90 18411987954144427068
12549972 3 17702645688825676152
12760667 363 18335986479778931539
13135754 10 18339939163581556945
13140716 1 18271810185141948689
13383661 66 17460615841890797682
13583140 156 17917710201852111504
13631057 29 18113898325160304770
14420673 8 18055639421989471222
14713325 29 18342461408790344209
14844126 61 18342736325595008947
14866123 147 18410296878842497795
15042514 8 18412268337487807441
15250474 111 18189325789420499898
15629462 23 18130210637326517103
15927050 60 18267021644683518507
17844677 252 18343586265880282000
17980427 26 17546721552805337461
20101258 96 18272650190033579856
21859007 373 10734788750133033026
23419403 2 17759215772965972053
23559900 14 18115579495075464420
376196 1 17195736563008808821
4058900 60 17621608211320132033
4073 2 18410858725379544946
437815 12 18264204889119250827
460360 51 17773896220117567422
484985 159 18335420153738434411
4921388 177 18260832570702081360
497634 4 18114185258887331652
5104073 3 18271517625238853328
513202 73 18343589555044632450
5309563 4 18267867374571902723
59755656 520 18263638468753126677
7970288 3 18125719238657723086
9981440 41 17845089558839157311

>  <PUBCHEM_SHAPE_MULTIPOLES>  (1) 
539.82
11.97
4.04
1.86
26.79
0.43
-1.07
-6.39
0.15
-5.97
2.07
-1.73
-0.16
1.37

>  <PUBCHEM_SHAPE_SELFOVERLAP>  (1) 
1160.777

>  <PUBCHEM_SHAPE_VOLUME>  (1) 
299

>  <PUBCHEM_COORDINATE_TYPE>  (1) 
2
5
10

$$$$
