37664
     RDKit          3D

 22 24  0  0  1  0  0  0  0  0999 V2000
    1.1971   -0.1114   -0.6105 N   0  0  0  0  0  0  0  0  0  0  0  0
    4.6714    0.9893    0.0978 N   0  0  0  0  0  0  0  0  0  0  0  0
   -1.2243   -0.2425   -0.9107 C   0  0  0  0  0  0  0  0  0  0  0  0
    0.1022    0.4464   -1.4034 C   0  0  0  0  0  0  0  0  0  0  0  0
   -0.6488   -1.4096   -0.1252 C   0  0  0  0  0  0  0  0  0  0  0  0
   -1.9765   -0.7780   -2.1470 C   0  0  0  0  0  0  0  0  0  0  0  0
    0.7403   -1.2664   -0.0008 C   0  0  0  0  0  0  0  0  0  0  0  0
   -2.0525    0.6857   -0.0097 C   0  0  0  0  0  0  0  0  0  0  0  0
    2.5812    0.1790   -0.8845 C   0  0  0  0  0  0  0  0  0  0  0  0
   -1.3231   -2.4870    0.4356 C   0  0  0  0  0  0  0  0  0  0  0  0
   -2.4169    0.3511   -3.0588 C   0  0  0  0  0  0  0  0  0  0  0  0
    1.4719   -2.2192    0.6941 C   0  0  0  0  0  0  0  0  0  0  0  0
    3.2654    0.7121    0.3707 C   0  0  0  0  0  0  0  0  0  0  0  0
   -1.4351    1.7527    0.6357 C   0  0  0  0  0  0  0  0  0  0  0  0
   -3.4147    0.4537    0.1546 C   0  0  0  0  0  0  0  0  0  0  0  0
   -0.5841   -3.4437    1.1297 C   0  0  0  0  0  0  0  0  0  0  0  0
    0.8046   -3.3111    1.2574 C   0  0  0  0  0  0  0  0  0  0  0  0
   -2.1872    2.5957    1.4538 C   0  0  0  0  0  0  0  0  0  0  0  0
   -4.1667    1.2969    0.9727 C   0  0  0  0  0  0  0  0  0  0  0  0
   -3.5528    2.3679    1.6222 C   0  0  0  0  0  0  0  0  0  0  0  0
    5.3457    1.4669    1.3060 C   0  0  0  0  0  0  0  0  0  0  0  0
    4.8028    1.9715   -0.9795 C   0  0  0  0  0  0  0  0  0  0  0  0
  1  4  1  0
  1  7  1  0
  1  9  1  0
  2 13  1  0
  2 21  1  0
  2 22  1  0
  3  4  1  0
  3  5  1  0
  3  6  1  0
  3  8  1  0
  5  7  2  0
  5 10  1  0
  6 11  1  0
  7 12  1  0
  8 14  2  0
  8 15  1  0
  9 13  1  0
 10 16  2  0
 12 17  2  0
 14 18  1  0
 15 19  2  0
 16 17  1  0
 18 20  2  0
 19 20  1  0
M  END
>  <PUBCHEM_COMPOUND_CID>  (1) 
37664

>  <PUBCHEM_CONFORMER_RMSD>  (1) 
0.8

>  <PUBCHEM_CONFORMER_DIVERSEORDER>  (1) 
3
20
5
19
12
18
15
14
21
17
16
4
13
22
10
8
7
6
11
9
2
1

>  <PUBCHEM_MMFF94_PARTIAL_CHARGES>  (1) 
29
1 -0.84
10 -0.15
12 -0.15
13 0.27
14 -0.15
15 -0.15
16 -0.15
17 -0.15
18 -0.15
19 -0.15
2 -0.81
20 -0.15
21 0.27
22 0.27
29 0.15
3 0.29
33 0.15
36 0.15
37 0.15
38 0.15
39 0.15
4 0.37
40 0.15
41 0.15
42 0.15
5 -0.14
7 0.1
8 -0.14
9 0.37

>  <PUBCHEM_EFFECTIVE_ROTOR_COUNT>  (1) 
5.6

>  <PUBCHEM_PHARMACOPHORE_FEATURES>  (1) 
6
1 1 cation
1 11 hydrophobe
1 2 cation
5 1 3 4 5 7 rings
6 5 7 10 12 16 17 rings
6 8 14 15 18 19 20 rings

>  <PUBCHEM_HEAVY_ATOM_COUNT>  (1) 
22

>  <PUBCHEM_ATOM_DEF_STEREO_COUNT>  (1) 
0

>  <PUBCHEM_ATOM_UDEF_STEREO_COUNT>  (1) 
1

>  <PUBCHEM_BOND_DEF_STEREO_COUNT>  (1) 
0

>  <PUBCHEM_BOND_UDEF_STEREO_COUNT>  (1) 
0

>  <PUBCHEM_ISOTOPIC_ATOM_COUNT>  (1) 
0

>  <PUBCHEM_COMPONENT_COUNT>  (1) 
1

>  <PUBCHEM_CACTVS_TAUTO_COUNT>  (1) 
1

>  <PUBCHEM_CONFORMER_ID>  (1) 
0000932000000003

>  <PUBCHEM_MMFF94_ENERGY>  (1) 
82.0278

>  <PUBCHEM_FEATURE_SELFOVERLAP>  (1) 
30.532

>  <PUBCHEM_SHAPE_FINGERPRINT>  (1) 
1100329 8 18122072163431152195
11578080 2 16738352945889430741
11640471 11 17985536767566505097
12160290 23 17970077853334998310
12173636 292 18412830200502902494
12390115 104 18263945369935807212
12403814 3 17313662762726230031
12633257 1 16661227891337126280
12788726 201 17685802489153598126
13140716 1 17468775433581238322
13583140 156 17757838823288046741
13994607 96 18199762494776001773
14142880 1 18336545014194177695
14251757 17 16271922723169920968
14468879 13 17774737432159006484
14787075 74 18341614888533291507
14910302 57 11314844896859235144
15475509 84 16886703860799076403
15534591 1 18273497861953102078
16945 1 17532682077750232487
17980427 23 16975039239207462129
19765921 60 18272370823916901528
204376 136 18261117374004282464
20510252 161 18046062928718895634
20600515 1 17612327641485907735
20681651 13 17679005235620122920
21524375 3 18200320905006811952
21756936 100 18343586256920945976
22079108 93 18411426128396400433
23419403 2 17474650128777284255
2748010 2 17242728684809642135
283562 15 17973724967769312114
298252 57 17417818292313285951
3380486 145 17045130360798829518
34934 24 18202281364900156021
3797600 57 17987526909793884585
392239 28 18267602358563251619
394222 165 17769389231333830353
4340502 62 18334869290292008097
469060 322 18040712610754151125
474 4 18409452466459721876
58807428 26 18186518796095024986
5939293 188 16902162491452341033
59755656 520 18335709342876990662
633830 44 18341335509400440460
7097593 13 17255695092755878099
7288768 16 18335146396754235440
81228 2 17680441227433270230
9981440 41 18060131081438817218

>  <PUBCHEM_SHAPE_MULTIPOLES>  (1) 
442.79
7.88
3.56
2.02
10.04
2.64
1.37
-8.27
-1.71
-0.2
-2.4
-1.5
-0.35
-1.42

>  <PUBCHEM_SHAPE_SELFOVERLAP>  (1) 
943.787

>  <PUBCHEM_SHAPE_VOLUME>  (1) 
246.8

>  <PUBCHEM_COORDINATE_TYPE>  (1) 
2
5
10

$$$$
