37676
     RDKit          3D

 26 29  0  0  1  0  0  0  0  0999 V2000
    0.0857    0.3171    1.3490 N   0  0  0  0  0  0  0  0  0  0  0  0
    3.2683   -0.8261    0.1089 N   0  0  0  0  0  0  0  0  0  0  0  0
   -2.2512    0.5969    0.6924 C   0  0  0  0  0  0  0  0  0  0  0  0
   -1.2791    0.0727    1.8138 C   0  0  0  0  0  0  0  0  0  0  0  0
   -1.2873    1.4324   -0.1340 C   0  0  0  0  0  0  0  0  0  0  0  0
    0.0277    1.2231    0.3048 C   0  0  0  0  0  0  0  0  0  0  0  0
   -3.2946    1.5219    1.3535 C   0  0  0  0  0  0  0  0  0  0  0  0
    1.2407    0.0978    2.1813 C   0  0  0  0  0  0  0  0  0  0  0  0
   -2.8471   -0.5528   -0.1338 C   0  0  0  0  0  0  0  0  0  0  0  0
    1.7988   -1.3177    2.0473 C   0  0  0  0  0  0  0  0  0  0  0  0
    2.2160   -1.7013    0.6246 C   0  0  0  0  0  0  0  0  0  0  0  0
   -1.5751    2.2862   -1.1916 C   0  0  0  0  0  0  0  0  0  0  0  0
    3.5964   -1.1796   -1.2793 C   0  0  0  0  0  0  0  0  0  0  0  0
    4.4582   -0.8910    0.9690 C   0  0  0  0  0  0  0  0  0  0  0  0
    1.0763    1.8816   -0.3216 C   0  0  0  0  0  0  0  0  0  0  0  0
   -4.1701    0.7599    2.3296 C   0  0  0  0  0  0  0  0  0  0  0  0
    4.6611   -0.2418   -1.8507 C   0  0  0  0  0  0  0  0  0  0  0  0
    5.5511    0.0560    0.4713 C   0  0  0  0  0  0  0  0  0  0  0  0
    5.9134   -0.2301   -0.9817 C   0  0  0  0  0  0  0  0  0  0  0  0
   -2.2034   -1.7859   -0.1661 C   0  0  0  0  0  0  0  0  0  0  0  0
   -4.0265   -0.3532   -0.8447 C   0  0  0  0  0  0  0  0  0  0  0  0
   -0.5192    2.9484   -1.8157 C   0  0  0  0  0  0  0  0  0  0  0  0
    0.7981    2.7480   -1.3830 C   0  0  0  0  0  0  0  0  0  0  0  0
   -2.7442   -2.8299   -0.9168 C   0  0  0  0  0  0  0  0  0  0  0  0
   -4.5674   -1.3971   -1.5952 C   0  0  0  0  0  0  0  0  0  0  0  0
   -3.9262   -2.6354   -1.6313 C   0  0  0  0  0  0  0  0  0  0  0  0
  1  4  1  0
  1  6  1  0
  1  8  1  0
  2 11  1  0
  2 13  1  0
  2 14  1  0
  3  4  1  0
  3  5  1  0
  3  7  1  0
  3  9  1  0
  5  6  2  0
  5 12  1  0
  6 15  1  0
  7 16  1  0
  8 10  1  0
  9 20  2  0
  9 21  1  0
 10 11  1  0
 12 22  2  0
 13 17  1  0
 14 18  1  0
 15 23  2  0
 17 19  1  0
 18 19  1  0
 20 24  1  0
 21 25  2  0
 22 23  1  0
 24 26  2  0
 25 26  1  0
M  END
>  <PUBCHEM_COMPOUND_CID>  (1) 
37676

>  <PUBCHEM_CONFORMER_RMSD>  (1) 
0.8

>  <PUBCHEM_CONFORMER_DIVERSEORDER>  (1) 
6
91
59
63
68
39
40
44
133
60
18
50
125
62
38
86
42
77
131
13
76
118
111
61
83
55
90
35
47
138
121
82
107
87
21
64
98
36
84
132
32
31
45
43
96
41
150
103
5
116
122
137
92
56
27
12
57
129
34
9
119
104
93
25
79
48
80
140
69
95
114
149
102
52
14
139
29
75
73
51
109
142
144
72
110
89
49
81
30
4
106
134
101
136
26
2
145
148
128
124
112
66
115
74
100
8
10
113
46
146
78
54
97
117
130
23
127
71
53
16
3
22
17
126
99
135
141
108
11
88
1
151
143
28
70
58
123
147
24
33
120
37
19
15
85
7
65
20
94
67
105

>  <PUBCHEM_MMFF94_PARTIAL_CHARGES>  (1) 
29
1 -0.84
11 0.27
12 -0.15
13 0.27
14 0.27
15 -0.15
2 -0.81
20 -0.15
21 -0.15
22 -0.15
23 -0.15
24 -0.15
25 -0.15
26 -0.15
3 0.29
37 0.15
4 0.37
42 0.15
5 -0.14
52 0.15
53 0.15
54 0.15
55 0.15
56 0.15
57 0.15
58 0.15
6 0.1
8 0.37
9 -0.14

>  <PUBCHEM_EFFECTIVE_ROTOR_COUNT>  (1) 
7.8

>  <PUBCHEM_PHARMACOPHORE_FEATURES>  (1) 
7
1 1 cation
1 16 hydrophobe
1 2 cation
5 1 3 4 5 6 rings
6 2 13 14 17 18 19 rings
6 5 6 12 15 22 23 rings
6 9 20 21 24 25 26 rings

>  <PUBCHEM_HEAVY_ATOM_COUNT>  (1) 
26

>  <PUBCHEM_ATOM_DEF_STEREO_COUNT>  (1) 
0

>  <PUBCHEM_ATOM_UDEF_STEREO_COUNT>  (1) 
1

>  <PUBCHEM_BOND_DEF_STEREO_COUNT>  (1) 
0

>  <PUBCHEM_BOND_UDEF_STEREO_COUNT>  (1) 
0

>  <PUBCHEM_ISOTOPIC_ATOM_COUNT>  (1) 
0

>  <PUBCHEM_COMPONENT_COUNT>  (1) 
1

>  <PUBCHEM_CACTVS_TAUTO_COUNT>  (1) 
1

>  <PUBCHEM_CONFORMER_ID>  (1) 
0000932C00000006

>  <PUBCHEM_MMFF94_ENERGY>  (1) 
73.8484

>  <PUBCHEM_FEATURE_SELFOVERLAP>  (1) 
35.609

>  <PUBCHEM_SHAPE_FINGERPRINT>  (1) 
10042902 136 17844514720495888983
107951 10 16556236492579083777
10871710 139 18188205399460214759
11578080 2 18125407987311150497
11725454 13 12468351345424305598
12035759 4 18260821635420063455
12160290 23 17608066699100382389
12403814 3 18261679151458064513
12553582 1 18186527600450609072
12596599 1 18342459257143714466
12788726 201 18042669629492512813
13009979 54 18199472232992081019
13911987 19 17095820874885971714
14747281 78 16154531221115497765
14790565 3 17029936802146721757
14840074 17 18335151872684569718
14910302 57 18129942252840866734
15849732 13 18339936926647576241
17349148 13 17095526158973162130
17357779 13 17987779912894872015
17492 54 18113902710300717406
1813 80 18263909068766791267
192875 21 17240483585851378164
20691752 17 18114177579707332840
20775530 9 18055335093107195999
21421566 26 18409724045525529055
22907989 373 18046041797363677333
23559900 14 17702932747191279753
23598288 3 17680696030388246872
26353 1 17968364710901760357
2838139 119 13118267196799118142
4280585 95 18262784285509312558
463206 1 18189903186973335556
469060 322 18408882945269661238

>  <PUBCHEM_SHAPE_MULTIPOLES>  (1) 
525.11
10.49
2.96
2.28
10.96
0.58
0.61
-5.1
-2.54
-2.33
-1.79
-0.61
0.12
-1.96

>  <PUBCHEM_SHAPE_SELFOVERLAP>  (1) 
1119.022

>  <PUBCHEM_SHAPE_VOLUME>  (1) 
290.9

>  <PUBCHEM_COORDINATE_TYPE>  (1) 
2
5
10

$$$$
