37693
     RDKit          3D

 22 24  0  0  1  0  0  0  0  0999 V2000
    0.0989    2.2793   -0.6870 O   0  0  0  0  0  0  0  0  0  0  0  0
    1.0783    0.2950    0.1290 N   0  0  0  0  0  0  0  0  0  0  0  0
    4.6739    1.2623    0.1545 N   0  0  0  0  0  0  0  0  0  0  0  0
   -1.0677    0.1110   -0.8964 C   0  0  0  0  0  0  0  0  0  0  0  0
   -0.5466   -1.2230   -0.3955 C   0  0  0  0  0  0  0  0  0  0  0  0
    0.0875    1.0719   -0.4895 C   0  0  0  0  0  0  0  0  0  0  0  0
    0.7094   -1.0549    0.1905 C   0  0  0  0  0  0  0  0  0  0  0  0
   -2.3293    0.5200   -0.2050 C   0  0  0  0  0  0  0  0  0  0  0  0
   -1.2484    0.1280   -2.4115 C   0  0  0  0  0  0  0  0  0  0  0  0
    2.3252    0.7996    0.6543 C   0  0  0  0  0  0  0  0  0  0  0  0
   -1.1356   -2.4762   -0.4600 C   0  0  0  0  0  0  0  0  0  0  0  0
    3.4329    0.7226   -0.3860 C   0  0  0  0  0  0  0  0  0  0  0  0
    1.4109   -2.1204    0.7285 C   0  0  0  0  0  0  0  0  0  0  0  0
   -2.2660    1.2801    0.9604 C   0  0  0  0  0  0  0  0  0  0  0  0
   -3.5622    0.1397   -0.7298 C   0  0  0  0  0  0  0  0  0  0  0  0
   -0.4413   -3.5619    0.0786 C   0  0  0  0  0  0  0  0  0  0  0  0
    0.8216   -3.3851    0.6681 C   0  0  0  0  0  0  0  0  0  0  0  0
   -3.4426    1.6619    1.6051 C   0  0  0  0  0  0  0  0  0  0  0  0
   -4.7387    0.5216   -0.0850 C   0  0  0  0  0  0  0  0  0  0  0  0
   -4.6789    1.2827    1.0824 C   0  0  0  0  0  0  0  0  0  0  0  0
    5.0836    0.5195    1.3481 C   0  0  0  0  0  0  0  0  0  0  0  0
    5.7350    1.2264   -0.8538 C   0  0  0  0  0  0  0  0  0  0  0  0
  1  6  2  0
  2  6  1  0
  2  7  1  0
  2 10  1  0
  3 12  1  0
  3 21  1  0
  3 22  1  0
  4  5  1  0
  4  6  1  0
  4  8  1  0
  4  9  1  0
  5  7  2  0
  5 11  1  0
  7 13  1  0
  8 14  2  0
  8 15  1  0
 10 12  1  0
 11 16  2  0
 13 17  2  0
 14 18  1  0
 15 19  2  0
 16 17  1  0
 18 20  2  0
 19 20  1  0
M  END
>  <PUBCHEM_COMPOUND_CID>  (1) 
37693

>  <PUBCHEM_CONFORMER_RMSD>  (1) 
0.8

>  <PUBCHEM_CONFORMER_DIVERSEORDER>  (1) 
8
11
3
4
12
6
1
9
2
10
7
5

>  <PUBCHEM_MMFF94_PARTIAL_CHARGES>  (1) 
30
1 -0.57
10 0.3
11 -0.15
12 0.27
13 -0.15
14 -0.15
15 -0.15
16 -0.15
17 -0.15
18 -0.15
19 -0.15
2 -0.48
20 -0.15
21 0.27
22 0.27
28 0.15
3 -0.81
31 0.15
32 0.15
33 0.15
34 0.15
35 0.15
36 0.15
37 0.15
38 0.15
4 0.35
5 -0.14
6 0.57
7 0.12
8 -0.14

>  <PUBCHEM_EFFECTIVE_ROTOR_COUNT>  (1) 
4.4

>  <PUBCHEM_PHARMACOPHORE_FEATURES>  (1) 
5
1 1 acceptor
1 3 cation
5 2 4 5 6 7 rings
6 5 7 11 13 16 17 rings
6 8 14 15 18 19 20 rings

>  <PUBCHEM_HEAVY_ATOM_COUNT>  (1) 
22

>  <PUBCHEM_ATOM_DEF_STEREO_COUNT>  (1) 
0

>  <PUBCHEM_ATOM_UDEF_STEREO_COUNT>  (1) 
1

>  <PUBCHEM_BOND_DEF_STEREO_COUNT>  (1) 
0

>  <PUBCHEM_BOND_UDEF_STEREO_COUNT>  (1) 
0

>  <PUBCHEM_ISOTOPIC_ATOM_COUNT>  (1) 
0

>  <PUBCHEM_COMPONENT_COUNT>  (1) 
1

>  <PUBCHEM_CACTVS_TAUTO_COUNT>  (1) 
1

>  <PUBCHEM_CONFORMER_ID>  (1) 
0000933D00000008

>  <PUBCHEM_MMFF94_ENERGY>  (1) 
70.8026

>  <PUBCHEM_FEATURE_SELFOVERLAP>  (1) 
25.456

>  <PUBCHEM_SHAPE_FINGERPRINT>  (1) 
10382601 240 18267035950702129593
10493431 412 18410294735078641160
1100329 8 18267585899921784849
11036077 3 18410862044756268174
12236239 1 18131628959543974885
12390115 104 18339655528378798970
12403814 3 17313093181253736980
12633257 1 18336535106443571532
12644460 14 18188206486182198378
12788726 201 17761227899981335606
12954195 1 18200313354396673462
13140716 1 18263924521616303032
13583140 156 16371266858672030144
13911987 19 18259977193220827572
14022349 108 18263639572026815818
14468879 13 17489033759592556388
14787075 74 18057313101908778631
14790565 3 18409174307103468020
14840074 17 17894636967539224748
14866123 147 18265051504103279042
14955137 171 18042140858873106388
15209289 33 18343578572728646224
15209294 21 18273494559239627321
15309172 13 18334855021793686389
15534591 1 18060134349249267023
16945 1 17822588130949870253
18785283 64 18189899721457571122
19591789 44 18338234839239117750
204376 136 18407479963725869802
20626108 58 11603123715477449897
20739085 24 18190189979082855916
21524375 3 18202566180928737365
21756936 100 18202842171184524120
22079108 93 18343020020974606505
22224240 67 18410013260571513633
23419403 2 13200845940477965605
23558518 356 17979350090383125496
23566358 27 18198623220462591751
23569917 315 18410290315600712802
25147074 1 18338215129534528354
2748010 2 17114638745564849118
283562 15 17976250563094898714
350125 39 18119817051933820403
3729539 64 18048617936471571542
4340502 62 18411707573566828859
458136 41 18337392638817319018
474 4 18410858758668638280
5104073 3 18190447454768877920
58807428 26 18335133181472584202
59755656 520 18412546518023739198
633830 44 18129948862420631741
81228 2 17538550407325282426

>  <PUBCHEM_SHAPE_MULTIPOLES>  (1) 
436.92
9.1
3.1
1.4
7.52
3.82
0.33
-7.45
-1.81
0.34
-0.61
-0.45
-0.37
-1.13

>  <PUBCHEM_SHAPE_SELFOVERLAP>  (1) 
945.407

>  <PUBCHEM_SHAPE_VOLUME>  (1) 
244.3

>  <PUBCHEM_COORDINATE_TYPE>  (1) 
2
5
10

$$$$
