37695
     RDKit          3D

 24 26  0  0  1  0  0  0  0  0999 V2000
    0.2067   -1.2349    2.1216 O   0  0  0  0  0  0  0  0  0  0  0  0
   -0.6283    0.5388    0.8107 N   0  0  0  0  0  0  0  0  0  0  0  0
   -3.9996   -0.8209    0.0409 N   0  0  0  0  0  0  0  0  0  0  0  0
    1.7420    0.3320    0.9837 C   0  0  0  0  0  0  0  0  0  0  0  0
    1.3228    1.4950    0.1043 C   0  0  0  0  0  0  0  0  0  0  0  0
    0.3634   -0.2568    1.4034 C   0  0  0  0  0  0  0  0  0  0  0  0
   -0.0701    1.5684    0.0421 C   0  0  0  0  0  0  0  0  0  0  0  0
   -2.0468    0.3234    0.9724 C   0  0  0  0  0  0  0  0  0  0  0  0
    2.5187   -0.6976    0.2260 C   0  0  0  0  0  0  0  0  0  0  0  0
    2.5096    0.7904    2.2204 C   0  0  0  0  0  0  0  0  0  0  0  0
   -2.5698   -0.5891   -0.1329 C   0  0  0  0  0  0  0  0  0  0  0  0
    2.1107    2.4103   -0.5760 C   0  0  0  0  0  0  0  0  0  0  0  0
   -0.7161    2.5456   -0.6957 C   0  0  0  0  0  0  0  0  0  0  0  0
    3.9057   -0.5994    0.1460 C   0  0  0  0  0  0  0  0  0  0  0  0
    1.8517   -1.7503   -0.3958 C   0  0  0  0  0  0  0  0  0  0  0  0
    1.4746    3.4026   -1.3256 C   0  0  0  0  0  0  0  0  0  0  0  0
    0.0727    3.4690   -1.3851 C   0  0  0  0  0  0  0  0  0  0  0  0
   -4.7297    0.4476    0.0480 C   0  0  0  0  0  0  0  0  0  0  0  0
   -4.5112   -1.6958   -1.0151 C   0  0  0  0  0  0  0  0  0  0  0  0
    4.6301   -1.5595   -0.5603 C   0  0  0  0  0  0  0  0  0  0  0  0
    2.5762   -2.7105   -1.1020 C   0  0  0  0  0  0  0  0  0  0  0  0
    3.9655   -2.6150   -1.1842 C   0  0  0  0  0  0  0  0  0  0  0  0
   -6.2126    0.2262    0.2934 C   0  0  0  0  0  0  0  0  0  0  0  0
   -3.7663   -3.0197   -1.0402 C   0  0  0  0  0  0  0  0  0  0  0  0
  1  6  2  0
  2  6  1  0
  2  7  1  0
  2  8  1  0
  3 11  1  0
  3 18  1  0
  3 19  1  0
  4  5  1  0
  4  6  1  0
  4  9  1  0
  4 10  1  0
  5  7  2  0
  5 12  1  0
  7 13  1  0
  8 11  1  0
  9 14  2  0
  9 15  1  0
 12 16  2  0
 13 17  2  0
 14 20  1  0
 15 21  2  0
 16 17  1  0
 18 23  1  0
 19 24  1  0
 20 22  2  0
 21 22  1  0
M  END
>  <PUBCHEM_COMPOUND_CID>  (1) 
37695

>  <PUBCHEM_CONFORMER_RMSD>  (1) 
0.8

>  <PUBCHEM_CONFORMER_DIVERSEORDER>  (1) 
1
35
20
33
18
5
21
31
4
9
34
16
11
28
30
6
23
26
14
25
12
27
7
13
29
15
24
22
3
17
19
32
8
10
2

>  <PUBCHEM_MMFF94_PARTIAL_CHARGES>  (1) 
30
1 -0.57
11 0.27
12 -0.15
13 -0.15
14 -0.15
15 -0.15
16 -0.15
17 -0.15
18 0.27
19 0.27
2 -0.48
20 -0.15
21 -0.15
22 -0.15
3 -0.81
32 0.15
33 0.15
34 0.15
35 0.15
36 0.15
37 0.15
4 0.35
42 0.15
43 0.15
44 0.15
5 -0.14
6 0.57
7 0.12
8 0.3
9 -0.14

>  <PUBCHEM_EFFECTIVE_ROTOR_COUNT>  (1) 
6.4

>  <PUBCHEM_PHARMACOPHORE_FEATURES>  (1) 
5
1 1 acceptor
1 3 cation
5 2 4 5 6 7 rings
6 5 7 12 13 16 17 rings
6 9 14 15 20 21 22 rings

>  <PUBCHEM_HEAVY_ATOM_COUNT>  (1) 
24

>  <PUBCHEM_ATOM_DEF_STEREO_COUNT>  (1) 
0

>  <PUBCHEM_ATOM_UDEF_STEREO_COUNT>  (1) 
1

>  <PUBCHEM_BOND_DEF_STEREO_COUNT>  (1) 
0

>  <PUBCHEM_BOND_UDEF_STEREO_COUNT>  (1) 
0

>  <PUBCHEM_ISOTOPIC_ATOM_COUNT>  (1) 
0

>  <PUBCHEM_COMPONENT_COUNT>  (1) 
1

>  <PUBCHEM_CACTVS_TAUTO_COUNT>  (1) 
1

>  <PUBCHEM_CONFORMER_ID>  (1) 
0000933F00000001

>  <PUBCHEM_MMFF94_ENERGY>  (1) 
68.9853

>  <PUBCHEM_FEATURE_SELFOVERLAP>  (1) 
25.456

>  <PUBCHEM_SHAPE_FINGERPRINT>  (1) 
10906281 52 18041850639591232232
11135609 12 18266746959923827427
11477941 20 17757877405443433382
11578080 2 17987786420087096728
116883 192 18336544924047863301
11796584 16 17418105342315783111
12403259 327 16415471671183589795
12422481 6 18126818656322947234
12553582 1 18187071833274197179
12617007 42 18334300859274761508
12969540 37 18131062745267916794
13009979 54 18130239215316276313
13149001 5 17604447308515642130
13583140 156 16916206901756321081
14790565 3 17111568896326538292
14863182 85 17984696981232727314
15163728 17 15504368078272014276
15210252 30 17458634367228479380
15420108 30 17690544704284905232
15475509 8 18192724345396396597
15664445 248 18261111855203448320
17357779 13 18267572537988221068
17492 54 18116738338167347452
17492 89 18267024049902400231
17818456 19 18059301959630232953
17980427 23 17903329826469134296
1813 80 18335141955673784841
18186145 218 17386278900476785305
19141452 34 18127700322518967393
20600515 1 18042386066998251336
20645477 70 18189052165358584393
21285901 2 18267309733371691030
21475661 188 10737293445721008638
21860390 5 18042117837579160565
22620623 9 18048327639188312180
23402539 116 18114467734823432938
23419403 2 17844224256495077152
23557571 272 18264203617740093152
23559900 14 17989196075455092707
23566358 2 18113612387285682692
238 59 17828765389016807217
26353 1 18114468881047049084
2838139 119 13045954533354321534
3380486 77 17750213916101980096
338550 245 18199747102209487599
340366 18 18411136944486286695
38695281 34 17977107082684474332
4280585 95 18408598145993758582
46194498 28 18188481501775827503
465052 167 15195559113529600635
633830 44 18040712619486484379
6443956 14 18344145890669036984
9709674 26 18191024702225393243
9971528 1 18412256255554730761

>  <PUBCHEM_SHAPE_MULTIPOLES>  (1) 
478.08
9.47
3.9
1.57
12.63
1.39
-0.57
-6.93
1.47
-1.69
2.77
-0.73
0.16
-0.03

>  <PUBCHEM_SHAPE_SELFOVERLAP>  (1) 
1023.425

>  <PUBCHEM_SHAPE_VOLUME>  (1) 
268.3

>  <PUBCHEM_COORDINATE_TYPE>  (1) 
2
5
10

$$$$
