37691
     RDKit          3D

 24 26  0  0  1  0  0  0  0  0999 V2000
    0.3488   -1.6135    1.8470 O   0  0  0  0  0  0  0  0  0  0  0  0
   -0.7524    0.0530    0.5933 N   0  0  0  0  0  0  0  0  0  0  0  0
   -4.9763   -0.6939   -0.2733 N   0  0  0  0  0  0  0  0  0  0  0  0
    1.6171    0.2328    0.8031 C   0  0  0  0  0  0  0  0  0  0  0  0
    1.0218    1.3475   -0.0363 C   0  0  0  0  0  0  0  0  0  0  0  0
    0.3501   -0.5930    1.1722 C   0  0  0  0  0  0  0  0  0  0  0  0
    2.2831    0.7577    2.0718 C   0  0  0  0  0  0  0  0  0  0  0  0
   -0.3631    1.1928   -0.1221 C   0  0  0  0  0  0  0  0  0  0  0  0
    2.5628   -0.6210    0.0193 C   0  0  0  0  0  0  0  0  0  0  0  0
   -2.1175   -0.4001    0.7190 C   0  0  0  0  0  0  0  0  0  0  0  0
    1.6555    2.4087   -0.6637 C   0  0  0  0  0  0  0  0  0  0  0  0
   -2.5680   -1.2403   -0.4745 C   0  0  0  0  0  0  0  0  0  0  0  0
    1.3249    1.5988    2.8934 C   0  0  0  0  0  0  0  0  0  0  0  0
   -1.1530    2.0809   -0.8319 C   0  0  0  0  0  0  0  0  0  0  0  0
    2.1090   -1.3054   -1.1056 C   0  0  0  0  0  0  0  0  0  0  0  0
    3.8929   -0.7282    0.4179 C   0  0  0  0  0  0  0  0  0  0  0  0
    0.8731    3.3139   -1.3846 C   0  0  0  0  0  0  0  0  0  0  0  0
   -0.5197    3.1507   -1.4681 C   0  0  0  0  0  0  0  0  0  0  0  0
   -4.0000   -1.7724   -0.3690 C   0  0  0  0  0  0  0  0  0  0  0  0
    2.9907   -2.1020   -1.8363 C   0  0  0  0  0  0  0  0  0  0  0  0
    4.7746   -1.5246   -0.3128 C   0  0  0  0  0  0  0  0  0  0  0  0
    4.3234   -2.2115   -1.4399 C   0  0  0  0  0  0  0  0  0  0  0  0
   -6.3279   -1.2248   -0.1640 C   0  0  0  0  0  0  0  0  0  0  0  0
   -7.3500   -0.1060   -0.0551 C   0  0  0  0  0  0  0  0  0  0  0  0
  1  6  2  0
  2  6  1  0
  2  8  1  0
  2 10  1  0
  3 19  1  0
  3 23  1  0
  4  5  1  0
  4  6  1  0
  4  7  1  0
  4  9  1  0
  5  8  2  0
  5 11  1  0
  7 13  1  0
  8 14  1  0
  9 15  2  0
  9 16  1  0
 10 12  1  0
 11 17  2  0
 12 19  1  0
 14 18  2  0
 15 20  1  0
 16 21  2  0
 17 18  1  0
 20 22  2  0
 21 22  1  0
 23 24  1  0
M  END
>  <PUBCHEM_COMPOUND_CID>  (1) 
37691

>  <PUBCHEM_CONFORMER_RMSD>  (1) 
0.8

>  <PUBCHEM_CONFORMER_DIVERSEORDER>  (1) 
1
94
91
46
41
78
11
76
90
86
89
81
53
88
31
72
24
60
79
15
57
73
50
29
20
83
49
68
12
93
82
71
38
36
74
42
55
3
30
67
92
64
27
80
45
17
65
85
32
44
40
75
35
56
21
39
58
66
2
70
48
52
87
84
69
16
51
95
4
61
77
59
33
13
47
43
62
19
34
9
23
22
18
26
63
6
8
14
25
37
54
5
10
28
7

>  <PUBCHEM_MMFF94_PARTIAL_CHARGES>  (1) 
30
1 -0.57
10 0.3
11 -0.15
14 -0.15
15 -0.15
16 -0.15
17 -0.15
18 -0.15
19 0.27
2 -0.48
20 -0.15
21 -0.15
22 -0.15
23 0.27
29 0.15
3 -0.9
35 0.15
36 0.15
37 0.15
38 0.15
39 0.15
4 0.35
42 0.15
43 0.15
44 0.15
45 0.36
5 -0.14
6 0.57
8 0.12
9 -0.14

>  <PUBCHEM_EFFECTIVE_ROTOR_COUNT>  (1) 
7.4

>  <PUBCHEM_PHARMACOPHORE_FEATURES>  (1) 
7
1 1 acceptor
1 13 hydrophobe
1 3 cation
1 3 donor
5 2 4 5 6 8 rings
6 5 8 11 14 17 18 rings
6 9 15 16 20 21 22 rings

>  <PUBCHEM_HEAVY_ATOM_COUNT>  (1) 
24

>  <PUBCHEM_ATOM_DEF_STEREO_COUNT>  (1) 
0

>  <PUBCHEM_ATOM_UDEF_STEREO_COUNT>  (1) 
1

>  <PUBCHEM_BOND_DEF_STEREO_COUNT>  (1) 
0

>  <PUBCHEM_BOND_UDEF_STEREO_COUNT>  (1) 
0

>  <PUBCHEM_ISOTOPIC_ATOM_COUNT>  (1) 
0

>  <PUBCHEM_COMPONENT_COUNT>  (1) 
1

>  <PUBCHEM_CACTVS_TAUTO_COUNT>  (1) 
1

>  <PUBCHEM_CONFORMER_ID>  (1) 
0000933B00000001

>  <PUBCHEM_MMFF94_ENERGY>  (1) 
57.4378

>  <PUBCHEM_FEATURE_SELFOVERLAP>  (1) 
35.605

>  <PUBCHEM_SHAPE_FINGERPRINT>  (1) 
10165383 225 17914888962986163376
10906281 52 17897450720726588860
11578080 2 18201434745131356408
116883 192 18409448081303381261
12403259 327 16200146646900094511
12617007 42 18334860545163664927
12633257 1 15410608207855741751
13149001 5 17677911203758791074
13533116 47 17703790345081617651
13583140 156 16271633491102127610
14022347 108 18113330925372611187
15081414 286 18188490310870380549
15163728 17 15577548299177405364
15238133 3 17241310409847360017
15420108 30 17475496752282869600
15475509 8 18336557001996546439
15664445 248 18333449854438771326
16945 1 17906733597168370176
17357779 13 18341880862334832039
17492 54 18116738363831623876
17844677 252 18188495783069723699
1813 80 18409173194479246975
20600515 1 18043226123830488105
21285901 2 18339366270847748750
22079108 93 8934994854853512231
22620623 9 18120384163684314564
23352939 185 18339657693380153488
23419403 2 17987777649932150184
23557571 272 18337387146049759656
23559900 14 18339923822491417643
23566358 2 18113890598050188820
3052486 1 17896022270158523520
3286 77 17846779615484959138
338550 245 17986667272232950775
340366 18 18339924922040229143
376196 1 17248367328392979653
46194498 28 18334576888686472687
465052 167 14979956990914987183
484985 159 17051918243325627630
5207 123 18413394220177507007
57527293 21 18125690574683760794
633830 44 18042397105776429067
6442390 28 17331405272495156720
6443956 14 18131351920783138843
6823239 73 18187084005232742915
9841814 1 17750498728368661785
9971528 1 18341043116743554441

>  <PUBCHEM_SHAPE_MULTIPOLES>  (1) 
478.08
10.63
3.22
1.92
23.44
2.27
-1.02
-9.05
1.94
-1.58
1.88
-1.74
0.69
1.3

>  <PUBCHEM_SHAPE_SELFOVERLAP>  (1) 
1019.977

>  <PUBCHEM_SHAPE_VOLUME>  (1) 
267.8

>  <PUBCHEM_COORDINATE_TYPE>  (1) 
2
5
10

$$$$
