37722
     RDKit          3D

 12 12  0  0  1  0  0  0  0  0999 V2000
   -2.1906    2.0533    0.0528 F   0  0  0  0  0  0  0  0  0  0  0  0
    2.3607    0.0649    1.5273 O   0  0  0  0  0  0  0  0  0  0  0  0
   -3.6364   -0.2717   -0.2289 O   0  0  0  0  0  0  0  0  0  0  0  0
    4.1417    0.3254   -0.7226 N   0  0  0  0  0  0  0  0  0  0  0  0
    1.9834   -0.4400    0.2393 C   0  0  0  0  0  0  0  0  0  0  0  0
    0.4983   -0.3945    0.1138 C   0  0  0  0  0  0  0  0  0  0  0  0
    2.6879    0.3832   -0.8575 C   0  0  0  0  0  0  0  0  0  0  0  0
   -0.1671    0.8311    0.1412 C   0  0  0  0  0  0  0  0  0  0  0  0
   -0.2258   -1.5782   -0.0291 C   0  0  0  0  0  0  0  0  0  0  0  0
   -1.5565    0.8731    0.0256 C   0  0  0  0  0  0  0  0  0  0  0  0
   -1.6152   -1.5362   -0.1446 C   0  0  0  0  0  0  0  0  0  0  0  0
   -2.2805   -0.3105   -0.1173 C   0  0  0  0  0  0  0  0  0  0  0  0
  1 10  1  0
  2  5  1  0
  3 12  1  0
  4  7  1  0
  5  6  1  0
  5  7  1  0
  6  8  2  0
  6  9  1  0
  8 10  1  0
  9 11  2  0
 10 12  2  0
 11 12  1  0
M  END
>  <PUBCHEM_COMPOUND_CID>  (1) 
37722

>  <PUBCHEM_CONFORMER_RMSD>  (1) 
0.6

>  <PUBCHEM_CONFORMER_DIVERSEORDER>  (1) 
1
9
4
8
6
7
3
2
5

>  <PUBCHEM_MMFF94_PARTIAL_CHARGES>  (1) 
19
1 -0.19
10 0.19
11 -0.15
12 0.08
16 0.15
17 0.15
18 0.15
19 0.4
2 -0.68
20 0.36
21 0.36
22 0.45
3 -0.53
4 -0.99
5 0.42
6 -0.14
7 0.27
8 -0.15
9 -0.15

>  <PUBCHEM_EFFECTIVE_ROTOR_COUNT>  (1) 
2

>  <PUBCHEM_PHARMACOPHORE_FEATURES>  (1) 
6
1 2 acceptor
1 2 donor
1 3 donor
1 4 cation
1 4 donor
6 6 8 9 10 11 12 rings

>  <PUBCHEM_HEAVY_ATOM_COUNT>  (1) 
12

>  <PUBCHEM_ATOM_DEF_STEREO_COUNT>  (1) 
0

>  <PUBCHEM_ATOM_UDEF_STEREO_COUNT>  (1) 
1

>  <PUBCHEM_BOND_DEF_STEREO_COUNT>  (1) 
0

>  <PUBCHEM_BOND_UDEF_STEREO_COUNT>  (1) 
0

>  <PUBCHEM_ISOTOPIC_ATOM_COUNT>  (1) 
0

>  <PUBCHEM_COMPONENT_COUNT>  (1) 
1

>  <PUBCHEM_CACTVS_TAUTO_COUNT>  (1) 
3

>  <PUBCHEM_CONFORMER_ID>  (1) 
0000935A00000001

>  <PUBCHEM_MMFF94_ENERGY>  (1) 
22.1682

>  <PUBCHEM_FEATURE_SELFOVERLAP>  (1) 
30.448

>  <PUBCHEM_SHAPE_FINGERPRINT>  (1) 
11206711 2 18340476807914834837
12716758 59 18343864402960437498
12897270 3 18412266168075239406
12932764 1 17775558736932160446
13024252 1 17894916264851282903
13380535 21 18056207873389381281
13538477 17 18114174293635474866
14325111 11 18337956692682447140
14993402 34 18259704514368241381
15310529 11 16733253608264432879
15775835 57 17894632547811908268
16945 1 18412536635156349811
20201158 50 17632587054134748174
20645464 45 17702929431365685802
20645476 183 17894911875126005871
21040471 1 18340200774281762867
21501502 16 18197216949443239743
23235685 24 18410572890003505511
23402539 116 18341325660528831846
23402655 69 18196634226452262597
23552423 10 18190740821539553923
23559900 14 18059296458109253934
2748010 2 18123751959315791647
369184 2 14692571043703343051
5084963 1 18131356305828489098
53812653 8 18335422356977165227
77492 1 17822004316034703890
8030462 33 18409439284978204654

>  <PUBCHEM_SHAPE_MULTIPOLES>  (1) 
222.96
5.32
1.48
0.86
2.64
0.11
0.17
0.73
-0.96
-1.03
-0.02
0.66
0.02
-0.21

>  <PUBCHEM_SHAPE_SELFOVERLAP>  (1) 
461.28

>  <PUBCHEM_SHAPE_VOLUME>  (1) 
128.9

>  <PUBCHEM_COORDINATE_TYPE>  (1) 
2
5
10

$$$$
