37737
     RDKit          3D

 16 16  0  0  0  0  0  0  0  0999 V2000
   -0.3866   -2.7505   -0.2245 O   0  0  0  0  0  0  0  0  0  0  0  0
   -4.4406   -0.5704    0.9740 O   0  0  0  0  0  0  0  0  0  0  0  0
   -2.9986    3.0457   -0.2328 O   0  0  0  0  0  0  0  0  0  0  0  0
    3.2481   -0.0069   -0.5985 C   0  0  0  0  0  0  0  0  0  0  0  0
    1.8305   -0.0479   -0.0245 C   0  0  0  0  0  0  0  0  0  0  0  0
    4.2807    0.2880    0.4907 C   0  0  0  0  0  0  0  0  0  0  0  0
    0.7954   -0.3093   -1.1207 C   0  0  0  0  0  0  0  0  0  0  0  0
    5.6935    0.3623   -0.0878 C   0  0  0  0  0  0  0  0  0  0  0  0
   -0.6017   -0.3871   -0.5604 C   0  0  0  0  0  0  0  0  0  0  0  0
   -1.1192   -1.6046   -0.1414 C   0  0  0  0  0  0  0  0  0  0  0  0
   -1.3526    0.7770   -0.4736 C   0  0  0  0  0  0  0  0  0  0  0  0
    6.7185    0.6888    0.9865 C   0  0  0  0  0  0  0  0  0  0  0  0
   -2.6472    0.7221    0.0423 C   0  0  0  0  0  0  0  0  0  0  0  0
   -2.4139   -1.6595    0.3746 C   0  0  0  0  0  0  0  0  0  0  0  0
   -3.1780   -0.4961    0.4665 C   0  0  0  0  0  0  0  0  0  0  0  0
   -3.4282    1.9484    0.1298 C   0  0  0  0  0  0  0  0  0  0  0  0
  1 10  1  0
  2 15  1  0
  3 16  2  0
  4  5  1  0
  4  6  1  0
  5  7  1  0
  6  8  1  0
  7  9  1  0
  8 12  1  0
  9 10  2  0
  9 11  1  0
 10 14  1  0
 11 13  2  0
 13 15  1  0
 13 16  1  0
 14 15  2  0
M  END
>  <PUBCHEM_COMPOUND_CID>  (1) 
37737

>  <PUBCHEM_CONFORMER_RMSD>  (1) 
0.8

>  <PUBCHEM_CONFORMER_DIVERSEORDER>  (1) 
1
18
29
23
16
30
9
20
2
3
6
25
27
19
8
14
12
22
24
21
4
26
7
17
28
13
10
11
5
15

>  <PUBCHEM_MMFF94_PARTIAL_CHARGES>  (1) 
16
1 -0.53
10 0.08
11 -0.15
13 0.09
14 -0.15
15 0.08
16 0.42
2 -0.53
27 0.15
3 -0.57
31 0.15
32 0.45
33 0.06
34 0.45
7 0.14
9 -0.14

>  <PUBCHEM_EFFECTIVE_ROTOR_COUNT>  (1) 
6

>  <PUBCHEM_PHARMACOPHORE_FEATURES>  (1) 
6
1 1 donor
1 12 hydrophobe
1 2 donor
1 3 acceptor
5 4 5 6 7 8 hydrophobe
6 9 10 11 13 14 15 rings

>  <PUBCHEM_HEAVY_ATOM_COUNT>  (1) 
16

>  <PUBCHEM_ATOM_DEF_STEREO_COUNT>  (1) 
0

>  <PUBCHEM_ATOM_UDEF_STEREO_COUNT>  (1) 
0

>  <PUBCHEM_BOND_DEF_STEREO_COUNT>  (1) 
0

>  <PUBCHEM_BOND_UDEF_STEREO_COUNT>  (1) 
0

>  <PUBCHEM_ISOTOPIC_ATOM_COUNT>  (1) 
0

>  <PUBCHEM_COMPONENT_COUNT>  (1) 
1

>  <PUBCHEM_CACTVS_TAUTO_COUNT>  (1) 
12

>  <PUBCHEM_CONFORMER_ID>  (1) 
0000936900000001

>  <PUBCHEM_MMFF94_ENERGY>  (1) 
27.4336

>  <PUBCHEM_FEATURE_SELFOVERLAP>  (1) 
30.446

>  <PUBCHEM_SHAPE_FINGERPRINT>  (1) 
10912923 1 17603304886776849284
11315181 36 18040712606643747748
12107183 9 17829036625107924602
12236239 1 17458346368370233030
12251169 10 18335142028936090438
12390115 104 18270978842159538256
12403259 415 18200889365503254310
12507560 40 18340772550762418158
12596602 18 17313106405674591896
13140716 1 18120390993072750659
13288520 33 8430599418785928810
14420673 8 17900538974491354466
14911166 2 9727354572584636275
15042514 8 18193002727759797059
16945 1 18191048792949943143
1813 80 16443350841269028918
200 152 14345787275542261126
20281389 69 18273492395515087648
20374829 77 8718826470654149988
20432913 95 15574711387748172768
20510252 161 18342185431809706729
20645477 56 18130790083484606046
21650355 55 18192435384038578907
23402539 116 18340483465304132255
23403322 49 8142086463993589468
2748010 2 17974593307530437671
2916195 48 18202557398195312512
5104073 3 18263932042209397602
5364581 5 17981873453291531456
57265010 4 18187364350474578218
5924683 9 18057596762802972822
9981440 41 18335987463225949691

>  <PUBCHEM_SHAPE_MULTIPOLES>  (1) 
311.66
11.75
2.16
0.9
22.92
0.41
-0.01
4.36
4.1
-3.19
-0.07
0.27
-0.03
0.6

>  <PUBCHEM_SHAPE_SELFOVERLAP>  (1) 
631.121

>  <PUBCHEM_SHAPE_VOLUME>  (1) 
182.5

>  <PUBCHEM_COORDINATE_TYPE>  (1) 
2
5
10

$$$$
