37733
     RDKit          3D

 21 22  0  0  0  0  0  0  0  0999 V2000
   -0.4238   -1.2581    0.4281 O   0  0  0  0  0  0  0  0  0  0  0  0
   -2.2673   -0.1712    2.0687 O   0  0  0  0  0  0  0  0  0  0  0  0
    0.3617    0.1274   -1.7755 O   0  0  0  0  0  0  0  0  0  0  0  0
   -2.5067    3.5345   -0.6376 O   0  0  0  0  0  0  0  0  0  0  0  0
   -2.3843   -1.2957   -0.7878 O   0  0  0  0  0  0  0  0  0  0  0  0
   -2.3105    1.7349    0.7817 N   0  0  0  0  0  0  0  0  0  0  0  0
   -0.9893    1.8848   -1.1550 N   0  0  0  0  0  0  0  0  0  0  0  0
   -0.4747    0.1566    0.4867 C   0  0  0  0  0  0  0  0  0  0  0  0
    0.6907    0.6756    1.3344 C   0  0  0  0  0  0  0  0  0  0  0  0
   -1.7654    0.5264    1.1884 C   0  0  0  0  0  0  0  0  0  0  0  0
   -0.3226    0.6907   -0.9226 C   0  0  0  0  0  0  0  0  0  0  0  0
    2.0148    0.3477    0.7035 C   0  0  0  0  0  0  0  0  0  0  0  0
   -1.9611    2.4683   -0.3479 C   0  0  0  0  0  0  0  0  0  0  0  0
    2.6474   -0.8485    1.0183 C   0  0  0  0  0  0  0  0  0  0  0  0
    2.5916    1.2446   -0.1869 C   0  0  0  0  0  0  0  0  0  0  0  0
   -1.4502   -1.8707   -0.2462 C   0  0  0  0  0  0  0  0  0  0  0  0
   -1.2477   -3.3674   -0.2170 C   0  0  0  0  0  0  0  0  0  0  0  0
    3.8766   -1.1527    0.4333 C   0  0  0  0  0  0  0  0  0  0  0  0
    3.8206    0.9404   -0.7721 C   0  0  0  0  0  0  0  0  0  0  0  0
    4.4631   -0.2582   -0.4620 C   0  0  0  0  0  0  0  0  0  0  0  0
   -2.3632   -4.1093   -0.9325 C   0  0  0  0  0  0  0  0  0  0  0  0
  1  8  1  0
  1 16  1  0
  2 10  2  0
  3 11  2  0
  4 13  2  0
  5 16  2  0
  6 10  1  0
  6 13  1  0
  7 11  1  0
  7 13  1  0
  8  9  1  0
  8 10  1  0
  8 11  1  0
  9 12  1  0
 12 14  2  0
 12 15  1  0
 14 18  1  0
 15 19  2  0
 16 17  1  0
 17 21  1  0
 18 20  2  0
 19 20  1  0
M  END
>  <PUBCHEM_COMPOUND_CID>  (1) 
37733

>  <PUBCHEM_CONFORMER_RMSD>  (1) 
0.8

>  <PUBCHEM_CONFORMER_DIVERSEORDER>  (1) 
1
7
4
3
2
6
5
8

>  <PUBCHEM_MMFF94_PARTIAL_CHARGES>  (1) 
27
1 -0.43
10 0.57
11 0.57
12 -0.14
13 0.69
14 -0.15
15 -0.15
16 0.66
17 0.06
18 -0.15
19 -0.15
2 -0.57
20 -0.15
24 0.37
25 0.37
26 0.15
27 0.15
3 -0.57
30 0.15
31 0.15
32 0.15
4 -0.57
5 -0.57
6 -0.49
7 -0.49
8 0.4
9 0.14

>  <PUBCHEM_EFFECTIVE_ROTOR_COUNT>  (1) 
5.6

>  <PUBCHEM_PHARMACOPHORE_FEATURES>  (1) 
9
1 2 acceptor
1 21 hydrophobe
1 3 acceptor
1 4 acceptor
1 5 acceptor
1 6 donor
1 7 donor
6 12 14 15 18 19 20 rings
6 6 7 8 10 11 13 rings

>  <PUBCHEM_HEAVY_ATOM_COUNT>  (1) 
21

>  <PUBCHEM_ATOM_DEF_STEREO_COUNT>  (1) 
0

>  <PUBCHEM_ATOM_UDEF_STEREO_COUNT>  (1) 
0

>  <PUBCHEM_BOND_DEF_STEREO_COUNT>  (1) 
0

>  <PUBCHEM_BOND_UDEF_STEREO_COUNT>  (1) 
0

>  <PUBCHEM_ISOTOPIC_ATOM_COUNT>  (1) 
0

>  <PUBCHEM_COMPONENT_COUNT>  (1) 
1

>  <PUBCHEM_CACTVS_TAUTO_COUNT>  (1) 
5

>  <PUBCHEM_CONFORMER_ID>  (1) 
0000936500000001

>  <PUBCHEM_MMFF94_ENERGY>  (1) 
52.48

>  <PUBCHEM_FEATURE_SELFOVERLAP>  (1) 
45.713

>  <PUBCHEM_SHAPE_FINGERPRINT>  (1) 
11578080 2 18053932120469889633
12173636 292 18338507548018908812
12403814 3 18335713748885741193
12423570 1 13897149989785908537
12500047 106 18340762633867281536
12553582 1 18048876591548390914
12592029 89 17980194193438428889
12633257 1 17703248302390846242
12788726 201 18335410300946118683
13004483 165 18195797685900625406
13681431 1 17474658933233211791
14178342 30 18265873861965561514
14223421 5 17985256620030120760
15309172 13 18267587896870509600
16752209 62 18268690784400641235
16945 1 18339354270582107112
18785283 64 17544767728799690481
20602899 9 18200303326027169457
21524375 3 17898843552687217681
22112679 90 17977694191685802487
22907989 373 18339637940355775796
23419403 2 16242023909217590845
23557571 272 18048288314404206176
23559900 14 18128528452606877000
23598288 3 18259985950948800090
314173 41 17690559010594088662
3729539 64 17404610795775367974
532947 4 17549544011669565982
74978 22 18341605997914462032
81228 2 18267854172036899363
84936 31 17476342912605843455
90525 40 18263364702936250402

>  <PUBCHEM_SHAPE_MULTIPOLES>  (1) 
392.86
5.9
3.71
1.4
6.85
1.61
-0.21
1.39
0.47
-5.2
1.3
-0.36
-0.2
-0.69

>  <PUBCHEM_SHAPE_SELFOVERLAP>  (1) 
843.509

>  <PUBCHEM_SHAPE_VOLUME>  (1) 
212.2

>  <PUBCHEM_COORDINATE_TYPE>  (1) 
2
5
10

$$$$
