37735
     RDKit          3D

 14 13  0  0  1  0  0  0  0  0999 V2000
    2.1255   -0.8080   -1.4000 O   0  0  0  0  0  0  0  0  0  0  0  0
   -2.2468    0.7179    0.7246 O   0  0  0  0  0  0  0  0  0  0  0  0
    1.5845    2.1875    1.1678 O   0  0  0  0  0  0  0  0  0  0  0  0
    0.3616    1.0753   -0.4690 N   0  0  0  0  0  0  0  0  0  0  0  0
    2.0904   -1.8047    0.6975 N   0  0  0  0  0  0  0  0  0  0  0  0
   -3.2872   -1.0986   -0.2838 N   0  0  0  0  0  0  0  0  0  0  0  0
    3.2096   -2.5706    0.4434 N   0  0  0  0  0  0  0  0  0  0  0  0
    0.8462    3.3133   -0.6916 N   0  0  0  0  0  0  0  0  0  0  0  0
   -4.5566   -0.6296   -0.0150 N   0  0  0  0  0  0  0  0  0  0  0  0
    0.3505   -0.2285    0.1440 C   0  0  0  0  0  0  0  0  0  0  0  0
   -0.8870   -1.0340   -0.2527 C   0  0  0  0  0  0  0  0  0  0  0  0
    1.6215   -0.9507   -0.2874 C   0  0  0  0  0  0  0  0  0  0  0  0
   -2.1938   -0.3535    0.1262 C   0  0  0  0  0  0  0  0  0  0  0  0
    0.9814    2.1841    0.0961 C   0  0  0  0  0  0  0  0  0  0  0  0
  1 12  2  0
  2 13  2  0
  3 14  2  0
  4 10  1  0
  4 14  1  0
  5  7  1  0
  5 12  1  0
  6  9  1  0
  6 13  1  0
  8 14  1  0
 10 11  1  0
 10 12  1  0
 11 13  1  0
M  END
>  <PUBCHEM_COMPOUND_CID>  (1) 
37735

>  <PUBCHEM_CONFORMER_RMSD>  (1) 
0.8

>  <PUBCHEM_CONFORMER_DIVERSEORDER>  (1) 
1
88
43
58
31
16
11
19
86
52
60
77
80
78
63
50
83
53
89
76
79
36
24
18
70
85
84
10
62
30
48
57
51
82
25
81
69
75
12
9
87
54
35
67
73
28
46
20
72
47
68
64
61
45
38
7
74
39
42
59
49
21
66
37
34
40
55
71
3
15
17
29
6
22
27
32
14
65
26
23
33
4
2
56
5
44
8
13
41

>  <PUBCHEM_MMFF94_PARTIAL_CHARGES>  (1) 
23
1 -0.57
10 0.36
11 0.06
12 0.57
13 0.57
14 0.69
18 0.37
19 0.37
2 -0.57
20 0.37
21 0.36
22 0.36
23 0.37
24 0.37
25 0.36
26 0.36
3 -0.57
4 -0.73
5 -0.42
6 -0.42
7 -0.73
8 -0.8
9 -0.73

>  <PUBCHEM_EFFECTIVE_ROTOR_COUNT>  (1) 
7

>  <PUBCHEM_PHARMACOPHORE_FEATURES>  (1) 
9
1 1 acceptor
1 2 acceptor
1 3 acceptor
1 4 donor
1 5 donor
1 6 donor
1 7 donor
1 8 donor
1 9 donor

>  <PUBCHEM_HEAVY_ATOM_COUNT>  (1) 
14

>  <PUBCHEM_ATOM_DEF_STEREO_COUNT>  (1) 
0

>  <PUBCHEM_ATOM_UDEF_STEREO_COUNT>  (1) 
1

>  <PUBCHEM_BOND_DEF_STEREO_COUNT>  (1) 
0

>  <PUBCHEM_BOND_UDEF_STEREO_COUNT>  (1) 
0

>  <PUBCHEM_ISOTOPIC_ATOM_COUNT>  (1) 
0

>  <PUBCHEM_COMPONENT_COUNT>  (1) 
1

>  <PUBCHEM_CACTVS_TAUTO_COUNT>  (1) 
12

>  <PUBCHEM_CONFORMER_ID>  (1) 
0000936700000001

>  <PUBCHEM_MMFF94_ENERGY>  (1) 
25.1603

>  <PUBCHEM_FEATURE_SELFOVERLAP>  (1) 
48.75

>  <PUBCHEM_SHAPE_FINGERPRINT>  (1) 
1 1 18123746723450133292
14817 1 15653181307513294004
15490181 8 17545879790427302884
17041 49 18340775840775724235
17841504 4 18409168809602604299
18186145 218 18335983151569290463
18410436 195 18342174427676128816
19021347 4 17472978879481631944
20097449 115 18338232665632010736
20645476 183 17252023230298492164
20645477 70 18271246135945600079
20653091 64 18341902908417766745
20671657 1 18268153234836147397
20671657 53 18411417276637705791
20711985 327 18343019947865463570
20711985 344 17764899916746710318
20871998 22 18271246002263439470
21524375 3 17766840911009375157
2255824 54 18338242668790425143
23419403 2 18044907165851508452
23532345 88 18268412694237741087
23552423 10 18267869565394938007
305870 269 18123744520042155184
58734987 33 18410853222455579482
7364860 26 18130510845811264701
81228 2 17836659525832068960
81539 233 18120086436245562861

>  <PUBCHEM_SHAPE_MULTIPOLES>  (1) 
240.62
5.14
3.04
0.9
6.15
2.1
0.05
-3.27
-0.25
-3.18
-0.11
-0.44
0.11
-0.25

>  <PUBCHEM_SHAPE_SELFOVERLAP>  (1) 
467.389

>  <PUBCHEM_SHAPE_VOLUME>  (1) 
143.8

>  <PUBCHEM_COORDINATE_TYPE>  (1) 
2
5
10

$$$$
