37747
     RDKit          3D

 26 29  0  0  1  0  0  0  0  0999 V2000
    5.4639    3.1324   -0.2287 Cl  0  0  0  0  0  0  0  0  0  0  0  0
    0.2640   -0.2931   -2.0098 O   0  0  0  0  0  0  0  0  0  0  0  0
    0.8083    2.0298    1.3089 O   0  0  0  0  0  0  0  0  0  0  0  0
   -3.2698    0.2368    0.0387 N   0  0  0  0  0  0  0  0  0  0  0  0
   -0.8167    0.1839    0.0540 C   0  0  0  0  0  0  0  0  0  0  0  0
    0.4991   -0.3898   -0.5807 C   0  0  0  0  0  0  0  0  0  0  0  0
   -2.1043   -0.5302   -0.4001 C   0  0  0  0  0  0  0  0  0  0  0  0
   -0.8194    0.2598    1.5890 C   0  0  0  0  0  0  0  0  0  0  0  0
   -3.2615    1.5759   -0.5667 C   0  0  0  0  0  0  0  0  0  0  0  0
   -4.5100   -0.4836   -0.2821 C   0  0  0  0  0  0  0  0  0  0  0  0
    1.7373    0.5119   -0.3925 C   0  0  0  0  0  0  0  0  0  0  0  0
   -4.4481    2.4089   -0.0797 C   0  0  0  0  0  0  0  0  0  0  0  0
   -5.7374    0.2822    0.2146 C   0  0  0  0  0  0  0  0  0  0  0  0
   -5.7708    1.6992   -0.3462 C   0  0  0  0  0  0  0  0  0  0  0  0
    0.7487   -1.8588   -0.1762 C   0  0  0  0  0  0  0  0  0  0  0  0
    0.3818    0.9812    2.1743 C   0  0  0  0  0  0  0  0  0  0  0  0
    1.8143    1.6233    0.4689 C   0  0  0  0  0  0  0  0  0  0  0  0
    2.8848    0.2283   -1.1715 C   0  0  0  0  0  0  0  0  0  0  0  0
    1.6684   -2.1476    0.8235 C   0  0  0  0  0  0  0  0  0  0  0  0
    0.0506   -2.8740   -0.8172 C   0  0  0  0  0  0  0  0  0  0  0  0
    2.9558    2.4388    0.4988 C   0  0  0  0  0  0  0  0  0  0  0  0
    4.0306    1.0252   -1.1186 C   0  0  0  0  0  0  0  0  0  0  0  0
    4.0623    2.1372   -0.2883 C   0  0  0  0  0  0  0  0  0  0  0  0
    1.8940   -3.4748    1.1887 C   0  0  0  0  0  0  0  0  0  0  0  0
    0.2761   -4.2012   -0.4520 C   0  0  0  0  0  0  0  0  0  0  0  0
    1.1978   -4.5016    0.5509 C   0  0  0  0  0  0  0  0  0  0  0  0
  1 23  1  0
  2  6  1  0
  3 16  1  0
  3 17  1  0
  4  7  1  0
  4  9  1  0
  4 10  1  0
  5  6  1  0
  5  7  1  0
  5  8  1  0
  6 11  1  0
  6 15  1  0
  8 16  1  0
  9 12  1  0
 10 13  1  0
 11 17  2  0
 11 18  1  0
 12 14  1  0
 13 14  1  0
 15 19  2  0
 15 20  1  0
 17 21  1  0
 18 22  2  0
 19 24  1  0
 20 25  2  0
 21 23  2  0
 22 23  1  0
 24 26  2  0
 25 26  1  0
M  END
>  <PUBCHEM_COMPOUND_CID>  (1) 
37747

>  <PUBCHEM_CONFORMER_RMSD>  (1) 
0.8

>  <PUBCHEM_CONFORMER_DIVERSEORDER>  (1) 
1
5
2
7
4
8
3
6

>  <PUBCHEM_MMFF94_PARTIAL_CHARGES>  (1) 
30
1 -0.18
10 0.27
11 -0.14
15 -0.14
16 0.28
17 0.08
18 -0.15
19 -0.15
2 -0.68
20 -0.15
21 -0.15
22 -0.15
23 0.18
24 -0.15
25 -0.15
26 -0.15
3 -0.36
4 -0.81
44 0.4
45 0.15
46 0.15
47 0.15
48 0.15
49 0.15
50 0.15
51 0.15
52 0.15
6 0.57
7 0.27
9 0.27

>  <PUBCHEM_EFFECTIVE_ROTOR_COUNT>  (1) 
5.2

>  <PUBCHEM_PHARMACOPHORE_FEATURES>  (1) 
8
1 2 acceptor
1 2 donor
1 3 acceptor
1 4 cation
6 11 17 18 21 22 23 rings
6 15 19 20 24 25 26 rings
6 4 9 10 12 13 14 rings
7 3 5 6 8 11 16 17 rings

>  <PUBCHEM_HEAVY_ATOM_COUNT>  (1) 
26

>  <PUBCHEM_ATOM_DEF_STEREO_COUNT>  (1) 
1

>  <PUBCHEM_ATOM_UDEF_STEREO_COUNT>  (1) 
1

>  <PUBCHEM_BOND_DEF_STEREO_COUNT>  (1) 
0

>  <PUBCHEM_BOND_UDEF_STEREO_COUNT>  (1) 
0

>  <PUBCHEM_ISOTOPIC_ATOM_COUNT>  (1) 
0

>  <PUBCHEM_COMPONENT_COUNT>  (1) 
1

>  <PUBCHEM_CACTVS_TAUTO_COUNT>  (1) 
1

>  <PUBCHEM_CONFORMER_ID>  (1) 
0000937300000001

>  <PUBCHEM_MMFF94_ENERGY>  (1) 
83.9816

>  <PUBCHEM_FEATURE_SELFOVERLAP>  (1) 
40.605

>  <PUBCHEM_SHAPE_FINGERPRINT>  (1) 
10165383 225 18337674212562602845
10190108 129 14739024950558660780
10721379 63 18194976131686564854
10759866 29 18341049619192282217
107951 10 18268995465249079014
1100329 8 18411133615686840874
11578080 2 16088184331020188966
12035759 4 18059022657099722360
12293681 160 17917719032194564176
12592029 89 18409166601783484682
12597179 24 18114187466358162019
12730499 353 18410020922961883713
13004483 165 17256232749294095219
131258 43 17556027879189391454
13533116 47 18337669699574886615
13955234 65 18263366893454285907
140371 6 17765998299025063891
14790565 3 18410292540540796060
14955137 171 18194677069383941938
15163728 17 18188793715306480900
15463212 79 18045770441414246776
15664445 248 17983586195537950030
15927050 60 18339078306766673926
1813 80 17759800343141553411
18681886 176 18199745834798736398
19765921 60 18271804661407063750
19784866 34 18411983576380891805
19784866 9 18412258407042922856
20197701 30 18410296947192682926
20567600 347 18260548948094387107
21033648 29 18268427008990017160
21120745 212 17188141094130156622
21421861 104 18054243041847188267
22393880 68 18343585135876258407
23419403 2 17679617504303346218
23558518 356 17693079082633235612
23559900 14 18122054317773660187
3759504 43 18264771150133306356
38695281 34 18409727365772839906
394222 165 18341615871479890026
404807 78 17899130801023491283
4058900 60 18337404785106157936
4340502 62 18409734001360083998
44802255 64 17174106154819454582
5104073 3 18190752942970972345
5895379 119 17270325275889910353
59755656 520 18337105791321428500
6442390 28 18336828696699838437
6443956 14 17905042552200341131
6669772 16 18272096019636493838
67856867 119 18336824174500111143
77188 2 17688869739984882542
81228 2 17403733848893641635
9981440 41 18334579087556864257

>  <PUBCHEM_SHAPE_MULTIPOLES>  (1) 
520.22
9.66
4.86
1.36
10.4
6.15
0.33
-11.36
-1.76
-4.18
0.55
-0.54
0
-0.41

>  <PUBCHEM_SHAPE_SELFOVERLAP>  (1) 
1110.381

>  <PUBCHEM_SHAPE_VOLUME>  (1) 
286.3

>  <PUBCHEM_COORDINATE_TYPE>  (1) 
2
5
10

$$$$
