37774
     RDKit          3D

 29 30  0  0  0  0  0  0  0  0999 V2000
   -2.1762    4.9990    0.5317 S   0  0  0  0  0  0  0  0  0  0  0  0
   -3.4274    0.2951    0.5766 O   0  0  0  0  0  0  0  0  0  0  0  0
    1.8193    2.5668   -0.4524 O   0  0  0  0  0  0  0  0  0  0  0  0
   -2.4197    0.9110   -1.4275 O   0  0  0  0  0  0  0  0  0  0  0  0
    0.3266    1.5411    1.0091 O   0  0  0  0  0  0  0  0  0  0  0  0
   -3.0902    2.4879    0.1345 N   0  0  0  0  0  0  0  0  0  0  0  0
    0.2544    3.8220    0.5936 N   0  0  0  0  0  0  0  0  0  0  0  0
   -0.8654   -3.8661    0.5582 C   0  0  0  0  0  0  0  0  0  0  0  0
    5.2408   -0.7281    0.6952 C   0  0  0  0  0  0  0  0  0  0  0  0
   -2.0815   -3.0851    0.1914 C   0  0  0  0  0  0  0  0  0  0  0  0
    4.0935   -0.2829   -0.1468 C   0  0  0  0  0  0  0  0  0  0  0  0
    0.4150   -3.2988   -0.0835 C   0  0  0  0  0  0  0  0  0  0  0  0
   -0.6778   -3.9824    2.0828 C   0  0  0  0  0  0  0  0  0  0  0  0
    6.5350   -0.9089   -0.1207 C   0  0  0  0  0  0  0  0  0  0  0  0
    4.9319   -2.0190    1.4770 C   0  0  0  0  0  0  0  0  0  0  0  0
   -2.1870   -1.7441    0.5608 C   0  0  0  0  0  0  0  0  0  0  0  0
    3.4854    0.9485    0.0978 C   0  0  0  0  0  0  0  0  0  0  0  0
   -3.1134   -3.6953   -0.5219 C   0  0  0  0  0  0  0  0  0  0  0  0
    3.6287   -1.0975   -1.1794 C   0  0  0  0  0  0  0  0  0  0  0  0
   -3.3214   -1.0521    0.2064 C   0  0  0  0  0  0  0  0  0  0  0  0
    2.4302    1.3292   -0.6974 C   0  0  0  0  0  0  0  0  0  0  0  0
   -4.2507   -2.9647   -0.8657 C   0  0  0  0  0  0  0  0  0  0  0  0
    2.5559   -0.6808   -1.9673 C   0  0  0  0  0  0  0  0  0  0  0  0
   -4.3562   -1.6238   -0.4964 C   0  0  0  0  0  0  0  0  0  0  0  0
    1.9478    0.5505   -1.7229 C   0  0  0  0  0  0  0  0  0  0  0  0
   -2.9253    1.2067   -0.3492 C   0  0  0  0  0  0  0  0  0  0  0  0
    0.7562    2.5449    0.4494 C   0  0  0  0  0  0  0  0  0  0  0  0
   -2.6716    3.6652   -0.5902 C   0  0  0  0  0  0  0  0  0  0  0  0
   -0.8570    4.1616    1.4571 C   0  0  0  0  0  0  0  0  0  0  0  0
  1 28  1  0
  1 29  1  0
  2 20  1  0
  2 26  1  0
  3 21  1  0
  3 27  1  0
  4 26  2  0
  5 27  2  0
  6 26  1  0
  6 28  1  0
  7 27  1  0
  7 29  1  0
  8 10  1  0
  8 12  1  0
  8 13  1  0
  9 11  1  0
  9 14  1  0
  9 15  1  0
 10 16  2  0
 10 18  1  0
 11 17  2  0
 11 19  1  0
 16 20  1  0
 17 21  1  0
 18 22  2  0
 19 23  2  0
 20 24  2  0
 21 25  2  0
 22 24  1  0
 23 25  1  0
M  END
>  <PUBCHEM_COMPOUND_CID>  (1) 
37774

>  <PUBCHEM_CONFORMER_RMSD>  (1) 
1.4

>  <PUBCHEM_CONFORMER_DIVERSEORDER>  (1) 
1
18
6
12
32
74
26
2
11
8
69
16
19
66
70
43
37
31
5
48
54
53
64
41
35
22
27
23
34
13
68
17
47
65
21
59
57
67
33
58
49
36
61
44
39
42
29
51
73
24
63
50
10
72
14
62
55
45
4
46
30
15
56
3
71
7
52
40
20
60
38
28
9
25

>  <PUBCHEM_MMFF94_PARTIAL_CHARGES>  (1) 
35
1 -0.46
10 -0.14
11 -0.14
16 -0.15
17 -0.15
18 -0.15
19 -0.15
2 -0.23
20 0.08
21 0.08
22 -0.15
23 -0.15
24 -0.15
25 -0.15
26 0.78
27 0.78
28 0.53
29 0.53
3 -0.23
4 -0.57
44 0.15
45 0.15
46 0.15
47 0.15
48 0.15
49 0.15
5 -0.57
50 0.15
51 0.15
56 0.37
57 0.37
6 -0.73
7 -0.73
8 0.14
9 0.14

>  <PUBCHEM_EFFECTIVE_ROTOR_COUNT>  (1) 
12

>  <PUBCHEM_PHARMACOPHORE_FEATURES>  (1) 
8
1 4 acceptor
1 5 acceptor
1 6 donor
1 7 donor
3 8 12 13 hydrophobe
3 9 14 15 hydrophobe
6 10 16 18 20 22 24 rings
6 11 17 19 21 23 25 rings

>  <PUBCHEM_HEAVY_ATOM_COUNT>  (1) 
29

>  <PUBCHEM_ATOM_DEF_STEREO_COUNT>  (1) 
0

>  <PUBCHEM_ATOM_UDEF_STEREO_COUNT>  (1) 
0

>  <PUBCHEM_BOND_DEF_STEREO_COUNT>  (1) 
0

>  <PUBCHEM_BOND_UDEF_STEREO_COUNT>  (1) 
0

>  <PUBCHEM_ISOTOPIC_ATOM_COUNT>  (1) 
0

>  <PUBCHEM_COMPONENT_COUNT>  (1) 
1

>  <PUBCHEM_CACTVS_TAUTO_COUNT>  (1) 
3

>  <PUBCHEM_CONFORMER_ID>  (1) 
0000938E00000001

>  <PUBCHEM_MMFF94_ENERGY>  (1) 
69.6748

>  <PUBCHEM_FEATURE_SELFOVERLAP>  (1) 
40.596

>  <PUBCHEM_SHAPE_FINGERPRINT>  (1) 
10483366 6 18338499873835419917
11828532 37 17973440194579750527
12156800 1 16623713585531758023
12633257 1 18270135615783614783
12712778 12 18336532842583915160
12788726 201 18337405906129292262
12990986 174 18412545418127327244
13122387 1 18410862048761202271
14251757 5 18264791967992712830
14659021 117 18410287038724438224
14725015 67 18411975888647862435
14866123 147 18413110555131569497
16120349 306 17693096262397405673
19611394 137 18272362071944963344
20764821 26 18411144670588912039
20775530 9 18195824083080525317
23559900 14 17620472850000411241
463206 1 18336550533143237891
5309563 4 17838058465685085933
653340 110 18268989796066210938
9961470 85 17762891070152807522

>  <PUBCHEM_SHAPE_MULTIPOLES>  (1) 
567.22
10.25
7.19
1.46
12.59
3.96
-0.02
-5.11
-0.59
-8.35
2.57
0.65
-0.43
-0.94

>  <PUBCHEM_SHAPE_SELFOVERLAP>  (1) 
1160.33

>  <PUBCHEM_SHAPE_VOLUME>  (1) 
332.3

>  <PUBCHEM_COORDINATE_TYPE>  (1) 
2
5
10

$$$$
