37788
     RDKit          3D

 26 29  0  0  0  0  0  0  0  0999 V2000
   -6.2338    0.3331    1.5024 Cl  0  0  0  0  0  0  0  0  0  0  0  0
    1.8129    4.0712   -0.0950 O   0  0  0  0  0  0  0  0  0  0  0  0
   -0.5636    3.7815   -0.3430 O   0  0  0  0  0  0  0  0  0  0  0  0
   -1.1772   -2.7969   -1.4391 O   0  0  0  0  0  0  0  0  0  0  0  0
    5.5921   -1.7871    1.1623 O   0  0  0  0  0  0  0  0  0  0  0  0
    3.5762   -1.3336    2.1029 O   0  0  0  0  0  0  0  0  0  0  0  0
    0.1384   -1.1318   -0.6502 N   0  0  0  0  0  0  0  0  0  0  0  0
    1.7834    0.4017   -0.3785 C   0  0  0  0  0  0  0  0  0  0  0  0
    0.3905    0.2394   -0.5165 C   0  0  0  0  0  0  0  0  0  0  0  0
    2.3628   -0.8887   -0.4253 C   0  0  0  0  0  0  0  0  0  0  0  0
    1.3474   -1.7973   -0.5837 C   0  0  0  0  0  0  0  0  0  0  0  0
    2.3376    1.6937   -0.2272 C   0  0  0  0  0  0  0  0  0  0  0  0
   -0.4794    1.3511   -0.5183 C   0  0  0  0  0  0  0  0  0  0  0  0
    3.8039   -1.2021   -0.3180 C   0  0  0  0  0  0  0  0  0  0  0  0
    1.4610    2.7621   -0.2273 C   0  0  0  0  0  0  0  0  0  0  0  0
    0.1083    2.5954   -0.3679 C   0  0  0  0  0  0  0  0  0  0  0  0
    1.4829   -3.2706   -0.6783 C   0  0  0  0  0  0  0  0  0  0  0  0
   -1.1200   -1.7572   -0.7906 C   0  0  0  0  0  0  0  0  0  0  0  0
   -2.3818   -1.2426   -0.2245 C   0  0  0  0  0  0  0  0  0  0  0  0
    0.5235    4.7113   -0.1669 C   0  0  0  0  0  0  0  0  0  0  0  0
    4.2792   -1.4396    1.1074 C   0  0  0  0  0  0  0  0  0  0  0  0
   -2.3602   -0.4984    0.9523 C   0  0  0  0  0  0  0  0  0  0  0  0
   -3.5880   -1.5020   -0.8705 C   0  0  0  0  0  0  0  0  0  0  0  0
   -3.5526   -0.0104    1.4868 C   0  0  0  0  0  0  0  0  0  0  0  0
   -4.7805   -1.0139   -0.3360 C   0  0  0  0  0  0  0  0  0  0  0  0
   -4.7628   -0.2680    0.8426 C   0  0  0  0  0  0  0  0  0  0  0  0
  1 26  1  0
  2 15  1  0
  2 20  1  0
  3 16  1  0
  3 20  1  0
  4 18  2  0
  5 21  1  0
  6 21  2  0
  7  9  1  0
  7 11  1  0
  7 18  1  0
  8  9  2  0
  8 10  1  0
  8 12  1  0
  9 13  1  0
 10 11  2  0
 10 14  1  0
 11 17  1  0
 12 15  2  0
 13 16  2  0
 14 21  1  0
 15 16  1  0
 18 19  1  0
 19 22  2  0
 19 23  1  0
 22 24  1  0
 23 25  2  0
 24 26  2  0
 25 26  1  0
M  END
>  <PUBCHEM_COMPOUND_CID>  (1) 
37788

>  <PUBCHEM_CONFORMER_RMSD>  (1) 
0.8

>  <PUBCHEM_CONFORMER_DIVERSEORDER>  (1) 
4
9
14
16
1
15
12
5
10
7
17
6
11
19
18
20
8
3
13
2

>  <PUBCHEM_MMFF94_PARTIAL_CHARGES>  (1) 
32
1 -0.18
10 -0.18
11 -0.33
12 -0.15
13 -0.15
14 0.24
15 0.08
16 0.08
17 0.18
18 0.49
19 0.09
2 -0.36
20 0.56
21 0.66
22 -0.15
23 -0.15
24 -0.15
25 -0.15
26 0.18
27 0.15
28 0.15
3 -0.36
36 0.15
37 0.15
38 0.15
39 0.15
4 -0.57
40 0.5
5 -0.65
6 -0.57
7 0.29
9 -0.15

>  <PUBCHEM_EFFECTIVE_ROTOR_COUNT>  (1) 
4.6

>  <PUBCHEM_PHARMACOPHORE_FEATURES>  (1) 
10
1 2 acceptor
1 3 acceptor
1 4 acceptor
1 5 acceptor
1 6 acceptor
3 5 6 21 anion
5 2 3 15 16 20 rings
5 7 8 9 10 11 rings
6 19 22 23 24 25 26 rings
6 8 9 12 13 15 16 rings

>  <PUBCHEM_HEAVY_ATOM_COUNT>  (1) 
26

>  <PUBCHEM_ATOM_DEF_STEREO_COUNT>  (1) 
0

>  <PUBCHEM_ATOM_UDEF_STEREO_COUNT>  (1) 
0

>  <PUBCHEM_BOND_DEF_STEREO_COUNT>  (1) 
0

>  <PUBCHEM_BOND_UDEF_STEREO_COUNT>  (1) 
0

>  <PUBCHEM_ISOTOPIC_ATOM_COUNT>  (1) 
0

>  <PUBCHEM_COMPONENT_COUNT>  (1) 
1

>  <PUBCHEM_CACTVS_TAUTO_COUNT>  (1) 
1

>  <PUBCHEM_CONFORMER_ID>  (1) 
0000939C00000004

>  <PUBCHEM_MMFF94_ENERGY>  (1) 
68.0611

>  <PUBCHEM_FEATURE_SELFOVERLAP>  (1) 
51.056

>  <PUBCHEM_SHAPE_FINGERPRINT>  (1) 
10074138 170 17613124422728596904
10162869 55 18272653442768682675
10411042 1 18410569570337028030
1100329 8 18123472945461096444
11265709 11 18335420136658486344
11640471 11 17701563877021655705
12166972 35 18200578311551220271
12293681 4 18187380795851893411
12403259 118 18272380772026802451
12403259 327 17895489097609323163
12403260 363 18270958068209816711
12553582 1 18410860932106752150
12633257 1 18334580144277535483
12788726 201 18188781530984960450
13009979 54 17987803032798700091
13134695 92 18333736848617515845
13140716 1 18339641260471457534
13540713 4 17767682751144986550
13540713 5 18056197114686585999
13583140 156 17971196065308046211
13692114 37 17258207468167398065
13782708 43 17385734625268696627
138480 1 18411423924909528597
14022347 108 18338254677767327102
14117953 113 18270967821921965877
14466204 15 18265052440727214249
14739800 52 17344055540382613008
14790565 3 17904490953856624188
14955137 171 18337685169282773974
15042514 8 18120652427515656676
15420108 30 17986104339194861348
15475509 35 17312828199400128779
15475509 8 17986419783120618700
17980427 23 17704064127455136733
1813 80 18411703166819762742
19301679 30 18118965784873854042
19319366 153 17895760711857936886
20600515 1 18272933842927643230
20642791 268 18130791152783659211
20642791 35 18269570488730466596
20715895 44 18128549176478487513
20739085 24 18411982494317970148
21033648 29 17774709858295127083
21041028 32 18335698313042408412
2132832 1 17914312818360218223
21421861 104 18261668272833768712
21796203 349 18120408477494340032
22182313 1 17983294824919419270
23419403 2 17969197054078332660
23559900 14 16988023642328073679
24771293 8 18129936897211599904
2748010 2 17838055905847576494
3091708 16 9570960094125747572
3380486 145 18339069377138775599
345986 75 17678720272734349450
4409770 3 18046328756681179108
474 4 18268718392877363019
5104073 3 18338807831248239947
513202 73 18049721824344000162
5283268 108 18338241461862150634
5939293 188 18340495555067215230
5951187 136 13969778273540181961
6086070 43 18115848786284900399
653340 110 17982455884478005249
7064713 232 17846223224294778019
79837 15 17329704324001573024
84936 182 17769942599368480353
90316 7 18339066108637014266
9777508 108 17619913850958070440
9981440 41 17330545961218089001

>  <PUBCHEM_SHAPE_MULTIPOLES>  (1) 
502.61
9.38
4.7
1.29
8.2
6.36
-0.54
-4.99
-5.38
-3.64
1.13
0.08
-0.67
-1.49

>  <PUBCHEM_SHAPE_SELFOVERLAP>  (1) 
1116.072

>  <PUBCHEM_SHAPE_VOLUME>  (1) 
270.8

>  <PUBCHEM_COORDINATE_TYPE>  (1) 
2
5
10

$$$$
