3778
     RDKit          3D

 17 18  0  0  1  0  0  0  0  0999 V2000
    0.7455    1.9374    0.2706 O   0  0  0  0  0  0  0  0  0  0  0  0
    0.3007   -1.4943    0.0901 N   0  0  0  0  0  0  0  0  0  0  0  0
   -0.2601   -0.2153    0.2185 N   0  0  0  0  0  0  0  0  0  0  0  0
    2.0367   -0.0377   -0.0789 C   0  0  0  0  0  0  0  0  0  0  0  0
    3.3486    0.6339   -0.2216 C   0  0  0  0  0  0  0  0  0  0  0  0
    1.6659   -1.3271   -0.1382 C   0  0  0  0  0  0  0  0  0  0  0  0
    0.7780    0.7198    0.1896 C   0  0  0  0  0  0  0  0  0  0  0  0
    3.3423    1.5997   -1.4107 C   0  0  0  0  0  0  0  0  0  0  0  0
    3.7403    1.3762    1.0611 C   0  0  0  0  0  0  0  0  0  0  0  0
   -1.6434    0.0497    0.0607 C   0  0  0  0  0  0  0  0  0  0  0  0
    2.5507   -2.5066   -0.3672 C   0  0  0  0  0  0  0  0  0  0  0  0
   -0.1870   -2.5573    0.9640 C   0  0  0  0  0  0  0  0  0  0  0  0
   -2.1760    1.2777    0.4651 C   0  0  0  0  0  0  0  0  0  0  0  0
   -2.4854   -0.9146   -0.5014 C   0  0  0  0  0  0  0  0  0  0  0  0
   -3.5374    1.5389    0.3089 C   0  0  0  0  0  0  0  0  0  0  0  0
   -3.8468   -0.6536   -0.6579 C   0  0  0  0  0  0  0  0  0  0  0  0
   -4.3726    0.5732   -0.2526 C   0  0  0  0  0  0  0  0  0  0  0  0
  1  7  2  0
  2  3  1  0
  2  6  1  0
  2 12  1  0
  3  7  1  0
  3 10  1  0
  4  5  1  0
  4  6  2  0
  4  7  1  0
  5  8  1  0
  5  9  1  0
  6 11  1  0
 10 13  2  0
 10 14  1  0
 13 15  1  0
 14 16  2  0
 15 17  2  0
 16 17  1  0
M  END
>  <PUBCHEM_COMPOUND_CID>  (1) 
3778

>  <PUBCHEM_CONFORMER_RMSD>  (1) 
0.6

>  <PUBCHEM_CONFORMER_DIVERSEORDER>  (1) 
2
3
4
1
5
6

>  <PUBCHEM_MMFF94_PARTIAL_CHARGES>  (1) 
20
1 -0.57
10 0.12
11 0.14
12 0.37
13 -0.15
14 -0.15
15 -0.15
16 -0.15
17 -0.15
2 -0.49
3 -0.16
31 0.15
32 0.15
33 0.15
34 0.15
35 0.15
4 -0.12
5 0.14
6 -0.04
7 0.62

>  <PUBCHEM_EFFECTIVE_ROTOR_COUNT>  (1) 
2

>  <PUBCHEM_PHARMACOPHORE_FEATURES>  (1) 
4
1 1 acceptor
3 5 8 9 hydrophobe
5 2 3 4 6 7 rings
6 10 13 14 15 16 17 rings

>  <PUBCHEM_HEAVY_ATOM_COUNT>  (1) 
17

>  <PUBCHEM_ATOM_DEF_STEREO_COUNT>  (1) 
0

>  <PUBCHEM_ATOM_UDEF_STEREO_COUNT>  (1) 
0

>  <PUBCHEM_BOND_DEF_STEREO_COUNT>  (1) 
0

>  <PUBCHEM_BOND_UDEF_STEREO_COUNT>  (1) 
0

>  <PUBCHEM_ISOTOPIC_ATOM_COUNT>  (1) 
0

>  <PUBCHEM_COMPONENT_COUNT>  (1) 
1

>  <PUBCHEM_CACTVS_TAUTO_COUNT>  (1) 
1

>  <PUBCHEM_CONFORMER_ID>  (1) 
00000EC200000002

>  <PUBCHEM_MMFF94_ENERGY>  (1) 
56.4562

>  <PUBCHEM_FEATURE_SELFOVERLAP>  (1) 
20.297

>  <PUBCHEM_SHAPE_FINGERPRINT>  (1) 
10967382 1 18411418405797171841
10980938 120 18411419479528446316
11132069 177 18409725183707972132
11543360 7 15984818289368302253
13140716 1 18266742385271369467
13380535 76 18337106864741803906
14144814 61 18343300345179617561
14251717 144 18408881811192312975
14576447 43 18058433461165605975
14897335 6 18411697694630383979
15196674 1 18341048524086203109
15342168 16 17968387826568754085
15442244 35 18126567808241013569
15536298 74 18272368629251974798
15775835 57 18412830170511984533
16945 1 18268434705502098962
18186145 218 18260831445072775999
19422 9 18200594692350674567
20645477 70 18269270180132024895
21267235 1 18270126708148179847
21501502 16 18341895143422863487
21524375 3 18335978752879214042
21634736 98 18268998583253053798
221490 88 18410582759991897587
2255824 54 18261676948214116666
22854114 111 18334860459364532499
2334 1 18411141316003253938
23402539 116 18341038718301482540
23402655 69 18342453708441808413
23493267 7 17823150067512451986
23559900 14 18128811950360456370
23598291 2 18199752436468652293
25 1 18409167726975251686
2748010 2 18336565866303169314
3071541 236 18042963370827268978
3071541 37 18408609149741733862
34934 24 18201991127952628805
474 4 18187368726740401573
4990 188 17775576337971883892
5104073 3 18340207393427675579
57096353 35 18343014519469543317
58051976 378 18411415141801453157
6333272 397 18187650236087328651
633830 44 18334580088379228319
7364860 26 18200029539131920726
84936 182 18272930497005584848
9709674 26 18412830200366181287
9981440 41 18194956564316789786

>  <PUBCHEM_SHAPE_MULTIPOLES>  (1) 
334.02
7.44
2.45
0.94
3.29
1.18
-0.06
-2.88
-1.01
-1.32
0.24
-0.48
-0.13
-0.26

>  <PUBCHEM_SHAPE_SELFOVERLAP>  (1) 
703.111

>  <PUBCHEM_SHAPE_VOLUME>  (1) 
190.3

>  <PUBCHEM_COORDINATE_TYPE>  (1) 
2
5
10

$$$$
