37798
     RDKit          3D

 17 16  0  0  0  0  0  0  0  0999 V2000
    1.1572   -0.1963    0.3171 O   0  0  0  0  0  0  0  0  0  0  0  0
    0.1326    1.2424   -1.1671 O   0  0  0  0  0  0  0  0  0  0  0  0
   -3.6553   -0.1521    0.3569 N   0  0  0  0  0  0  0  0  0  0  0  0
    4.8804   -0.0832    0.0920 N   0  0  0  0  0  0  0  0  0  0  0  0
   -2.4565    0.4115   -0.3128 C   0  0  0  0  0  0  0  0  0  0  0  0
   -3.6407   -1.6858    0.3004 C   0  0  0  0  0  0  0  0  0  0  0  0
   -4.9404    0.3384   -0.3239 C   0  0  0  0  0  0  0  0  0  0  0  0
   -3.7050    0.2706    1.8315 C   0  0  0  0  0  0  0  0  0  0  0  0
   -1.1949   -0.1374    0.3362 C   0  0  0  0  0  0  0  0  0  0  0  0
    3.5169   -0.5452    0.5852 C   0  0  0  0  0  0  0  0  0  0  0  0
   -3.5916   -2.1308   -1.1449 C   0  0  0  0  0  0  0  0  0  0  0  0
   -5.0191    1.8453   -0.2132 C   0  0  0  0  0  0  0  0  0  0  0  0
    2.4332    0.2045   -0.1643 C   0  0  0  0  0  0  0  0  0  0  0  0
    0.0782    0.4061   -0.2760 C   0  0  0  0  0  0  0  0  0  0  0  0
    5.0178    1.4165    0.3110 C   0  0  0  0  0  0  0  0  0  0  0  0
    5.9720   -0.8108    0.8636 C   0  0  0  0  0  0  0  0  0  0  0  0
    5.0152   -0.3935   -1.3918 C   0  0  0  0  0  0  0  0  0  0  0  0
  1 13  1  0
  1 14  1  0
  2 14  2  0
  3  5  1  0
  3  6  1  0
  3  7  1  0
  3  8  1  0
  4 10  1  0
  4 15  1  0
  4 16  1  0
  4 17  1  0
  5  9  1  0
  6 11  1  0
  7 12  1  0
  9 14  1  0
 10 13  1  0
M  CHG  2   3   1   4   1
M  END
>  <PUBCHEM_COMPOUND_CID>  (1) 
37798

>  <PUBCHEM_CONFORMER_RMSD>  (1) 
0.8

>  <PUBCHEM_CONFORMER_DIVERSEORDER>  (1) 
1
101
182
35
175
9
202
204
136
119
93
4
74
33
186
91
162
51
92
153
165
154
140
188
86
133
214
179
118
16
159
158
169
61
67
8
147
104
157
161
72
48
41
80
126
212
122
95
192
49
29
90
194
88
54
131
66
193
183
15
22
197
100
125
143
70
55
135
2
196
127
213
137
82
59
13
160
170
37
84
36
96
142
198
111
43
52
155
112
58
76
185
152
172
105
69
168
176
7
38
110
171
68
45
78
148
132
79
184
210
151
205
85
181
17
57
60
39
23
27
177
64
199
50
117
121
203
83
11
208
130
180
102
14
178
46
32
113
24
173
18
106
94
77
190
3
129
145
25
156
10
114
28
81
174
12
200
40
115
103
65
34
134
116
149
5
164
71
99
144
138
21
141
167
19
31
201
166
6
98
108
20
211
187
75
120
73
53
124
89
42
195
63
209
26
47
207
109
189
62
97
107
44
128
87
30
56
146
123
150
139
163
191
206

>  <PUBCHEM_MMFF94_PARTIAL_CHARGES>  (1) 
15
1 -0.43
10 0.5
13 0.28
14 0.66
15 0.5
16 0.5
17 0.5
2 -0.57
3 -1.01
4 -1.01
5 0.5
6 0.5
7 0.5
8 0.5
9 0.06

>  <PUBCHEM_EFFECTIVE_ROTOR_COUNT>  (1) 
9

>  <PUBCHEM_PHARMACOPHORE_FEATURES>  (1) 
3
1 2 acceptor
1 3 cation
1 4 cation

>  <PUBCHEM_HEAVY_ATOM_COUNT>  (1) 
17

>  <PUBCHEM_ATOM_DEF_STEREO_COUNT>  (1) 
0

>  <PUBCHEM_ATOM_UDEF_STEREO_COUNT>  (1) 
0

>  <PUBCHEM_BOND_DEF_STEREO_COUNT>  (1) 
0

>  <PUBCHEM_BOND_UDEF_STEREO_COUNT>  (1) 
0

>  <PUBCHEM_ISOTOPIC_ATOM_COUNT>  (1) 
0

>  <PUBCHEM_COMPONENT_COUNT>  (1) 
1

>  <PUBCHEM_CACTVS_TAUTO_COUNT>  (1) 
1

>  <PUBCHEM_CONFORMER_ID>  (1) 
000093A600000001

>  <PUBCHEM_MMFF94_ENERGY>  (1) 
58.6467

>  <PUBCHEM_FEATURE_SELFOVERLAP>  (1) 
15.223

>  <PUBCHEM_SHAPE_FINGERPRINT>  (1) 
10014705 185 18412261740306874497
10366900 7 16559026074001456643
10680689 15 18335424573285746121
10912923 1 18343304794823641784
11287383 113 18273214235820170826
11315181 36 17846497054097722443
11401426 45 18186518808705275537
12091667 2 18186803582369779050
124424 183 17275102834385145041
12616971 3 17458065967161733294
12916748 109 10159698005948982934
13167823 11 18411416249966565622
13288520 33 18410011065922443751
13760787 5 17095242531753748862
14251764 18 17822016389689186121
15788980 27 18040720276711474950
15880784 105 18412825824026147850
167882 2 18051970321707357079
17093844 174 18410848863195623504
17834072 33 18271243923641368112
17834076 25 17312823762155247720
17844677 252 18410859862818378024
19489759 90 17275102808546789017
200 152 18113054947663804224
20281389 69 17968093088844133973
20645477 56 18411982430352520041
21150785 3 13254504397226136960
220451 1 18335426759630055426
22485316 2 18408882932110263866
23081809 10 17821729442459695806
23402539 116 18113896065527185934
23559900 14 17988917890265152968
26918003 58 17988922271184483618
300161 21 18334850610777792994
34797466 226 17917437565744302084
4214541 1 18411698790142508553
42788 4 18334575732981651224
5104073 3 18341895242159613368
542803 24 16805045116283064572
559249 180 18409162204227966935

>  <PUBCHEM_SHAPE_MULTIPOLES>  (1) 
328.15
15.04
1.58
1.19
12.21
0.33
-0.12
-0.21
-0.81
-1.84
0.32
-0.11
0.07
-0.28

>  <PUBCHEM_SHAPE_SELFOVERLAP>  (1) 
609.361

>  <PUBCHEM_SHAPE_VOLUME>  (1) 
210.3

>  <PUBCHEM_COORDINATE_TYPE>  (1) 
2
5
10

$$$$
