37804
     RDKit          3D

 15 16  0  0  0  0  0  0  0  0999 V2000
    0.3449   -2.0643    1.5593 Cl  0  0  0  0  0  0  0  0  0  0  0  0
   -1.1174    1.7713    1.8309 Cl  0  0  0  0  0  0  0  0  0  0  0  0
    4.8886    0.1990   -0.2069 Cl  0  0  0  0  0  0  0  0  0  0  0  0
    0.3815    0.0171   -0.2174 C   0  0  0  0  0  0  0  0  0  0  0  0
   -1.0688   -0.0062   -0.2502 C   0  0  0  0  0  0  0  0  0  0  0  0
    1.1134   -0.8727    0.5688 C   0  0  0  0  0  0  0  0  0  0  0  0
    1.0431    0.9629   -1.0007 C   0  0  0  0  0  0  0  0  0  0  0  0
   -1.8371    0.7514    0.6336 C   0  0  0  0  0  0  0  0  0  0  0  0
   -1.6927   -0.8150   -1.2001 C   0  0  0  0  0  0  0  0  0  0  0  0
    2.5070   -0.8168    0.5718 C   0  0  0  0  0  0  0  0  0  0  0  0
    2.4368    1.0188   -0.9975 C   0  0  0  0  0  0  0  0  0  0  0  0
   -3.2294    0.7002    0.5677 C   0  0  0  0  0  0  0  0  0  0  0  0
   -3.0851   -0.8661   -1.2660 C   0  0  0  0  0  0  0  0  0  0  0  0
    3.1687    0.1290   -0.2113 C   0  0  0  0  0  0  0  0  0  0  0  0
   -3.8535   -0.1086   -0.3820 C   0  0  0  0  0  0  0  0  0  0  0  0
  1  6  1  0
  2  8  1  0
  3 14  1  0
  4  5  1  0
  4  6  2  0
  4  7  1  0
  5  8  2  0
  5  9  1  0
  6 10  1  0
  7 11  2  0
  8 12  1  0
  9 13  2  0
 10 14  2  0
 11 14  1  0
 12 15  2  0
 13 15  1  0
M  END
>  <PUBCHEM_COMPOUND_CID>  (1) 
37804

>  <PUBCHEM_CONFORMER_RMSD>  (1) 
0.4

>  <PUBCHEM_CONFORMER_DIVERSEORDER>  (1) 
1
2

>  <PUBCHEM_MMFF94_PARTIAL_CHARGES>  (1) 
20
1 -0.18
10 -0.15
11 -0.15
12 -0.15
13 -0.15
14 0.18
15 -0.15
16 0.15
17 0.15
18 0.15
19 0.15
2 -0.18
20 0.15
21 0.15
22 0.15
3 -0.18
6 0.18
7 -0.15
8 0.18
9 -0.15

>  <PUBCHEM_EFFECTIVE_ROTOR_COUNT>  (1) 
1

>  <PUBCHEM_PHARMACOPHORE_FEATURES>  (1) 
2
6 4 6 7 10 11 14 rings
6 5 8 9 12 13 15 rings

>  <PUBCHEM_HEAVY_ATOM_COUNT>  (1) 
15

>  <PUBCHEM_ATOM_DEF_STEREO_COUNT>  (1) 
0

>  <PUBCHEM_ATOM_UDEF_STEREO_COUNT>  (1) 
0

>  <PUBCHEM_BOND_DEF_STEREO_COUNT>  (1) 
0

>  <PUBCHEM_BOND_UDEF_STEREO_COUNT>  (1) 
0

>  <PUBCHEM_ISOTOPIC_ATOM_COUNT>  (1) 
0

>  <PUBCHEM_COMPONENT_COUNT>  (1) 
1

>  <PUBCHEM_CACTVS_TAUTO_COUNT>  (1) 
1

>  <PUBCHEM_CONFORMER_ID>  (1) 
000093AC00000001

>  <PUBCHEM_MMFF94_ENERGY>  (1) 
43.1272

>  <PUBCHEM_FEATURE_SELFOVERLAP>  (1) 
10.149

>  <PUBCHEM_SHAPE_FINGERPRINT>  (1) 
10465860 250 15554447366910341798
11578080 2 17906970146249718073
12119455 92 17022899064587052034
12236239 1 18412262830917214517
124424 183 15123507003954101798
12592029 89 17313095345869885394
13464514 151 15938630949996315263
13538477 17 18272645719293734659
13581323 91 17775564221594614198
14993402 34 18113617898070886726
15219456 202 16153702085757105755
15309172 13 17603591832771722738
15653759 3 16415474948074851054
15775835 57 18411140207917678133
15852999 172 14707204379532781483
16945 1 18187070763357841759
18175812 5 15719398360013572294
18186145 218 18259982708090203588
19049666 15 15647883804566065793
19422 9 18341892952694461759
200 152 18259980487824187527
20201158 50 16587742010256238713
20279233 1 15936411126029512418
20344682 1 16298102090421102263
204376 136 17603872238681410738
20510252 161 17131278960866404969
20645464 45 15430037647665212149
20645476 183 18411411813682093703
20645477 70 17531791459861880035
22094290 60 17275388698465088520
22802520 49 16055771840630070477
228727 97 18342177765002842073
23236772 104 18412547582980332937
23402539 116 17418370281346981853
23419403 2 17833844033098840003
23493267 7 16200158634127359250
23557571 272 16917355826687568064
23559900 14 16917076508301125596
2748010 2 17679598997589473214
4340502 62 18041578966093031009
474 4 18193552492321725712
528886 8 17894624876783896592
77492 1 18411980247833647183
8272917 22 18042120952100356095
9981440 41 17334483299889633992

>  <PUBCHEM_SHAPE_MULTIPOLES>  (1) 
314.3
6.81
1.54
1.48
3.39
0.21
-0.35
-0.49
1.46
-0.14
-0.72
-0.54
-0.02
-1.18

>  <PUBCHEM_SHAPE_SELFOVERLAP>  (1) 
655.841

>  <PUBCHEM_SHAPE_VOLUME>  (1) 
171.9

>  <PUBCHEM_COORDINATE_TYPE>  (1) 
2
5
10

$$$$
