37811
     RDKit          3D

 23 26  0  0  0  0  0  0  0  0999 V2000
    3.1738    1.7950   -0.3253 O   0  0  0  0  0  0  0  0  0  0  0  0
   -0.7491   -0.0665   -0.1691 N   0  0  0  0  0  0  0  0  0  0  0  0
   -1.7118   -3.6738    0.0635 N   0  0  0  0  0  0  0  0  0  0  0  0
    0.4770    0.5507   -0.0140 C   0  0  0  0  0  0  0  0  0  0  0  0
    0.2095    1.9109    0.1267 C   0  0  0  0  0  0  0  0  0  0  0  0
   -1.7806    0.8374   -0.1246 C   0  0  0  0  0  0  0  0  0  0  0  0
   -1.2116    2.0922    0.0584 C   0  0  0  0  0  0  0  0  0  0  0  0
   -1.0300   -1.4229   -0.6110 C   0  0  0  0  0  0  0  0  0  0  0  0
    1.1979    3.0193    0.3027 C   0  0  0  0  0  0  0  0  0  0  0  0
    1.7540   -0.1936   -0.0337 C   0  0  0  0  0  0  0  0  0  0  0  0
   -1.4142   -2.3332    0.5520 C   0  0  0  0  0  0  0  0  0  0  0  0
    2.5691    2.5340    0.7382 C   0  0  0  0  0  0  0  0  0  0  0  0
    3.0016    0.4397   -0.1962 C   0  0  0  0  0  0  0  0  0  0  0  0
   -3.1611    0.6363   -0.2375 C   0  0  0  0  0  0  0  0  0  0  0  0
   -2.0656    3.2137    0.1310 C   0  0  0  0  0  0  0  0  0  0  0  0
    1.7566   -1.5974    0.0872 C   0  0  0  0  0  0  0  0  0  0  0  0
   -3.9868    1.7607   -0.1598 C   0  0  0  0  0  0  0  0  0  0  0  0
   -3.4490    3.0323    0.0214 C   0  0  0  0  0  0  0  0  0  0  0  0
    4.1847   -0.3071   -0.2959 C   0  0  0  0  0  0  0  0  0  0  0  0
    2.9412   -2.3373    0.0154 C   0  0  0  0  0  0  0  0  0  0  0  0
    4.1548   -1.6927   -0.1848 C   0  0  0  0  0  0  0  0  0  0  0  0
   -2.7972   -3.6360   -0.9184 C   0  0  0  0  0  0  0  0  0  0  0  0
   -2.0630   -4.5615    1.1737 C   0  0  0  0  0  0  0  0  0  0  0  0
  1 12  1  0
  1 13  1  0
  2  4  1  0
  2  6  1  0
  2  8  1  0
  3 11  1  0
  3 22  1  0
  3 23  1  0
  4  5  2  0
  4 10  1  0
  5  7  1  0
  5  9  1  0
  6  7  2  0
  6 14  1  0
  7 15  1  0
  8 11  1  0
  9 12  1  0
 10 13  2  0
 10 16  1  0
 13 19  1  0
 14 17  2  0
 15 18  2  0
 16 20  2  0
 17 18  1  0
 19 21  2  0
 20 21  1  0
M  END
>  <PUBCHEM_COMPOUND_CID>  (1) 
37811

>  <PUBCHEM_CONFORMER_RMSD>  (1) 
0.6

>  <PUBCHEM_CONFORMER_DIVERSEORDER>  (1) 
1
2

>  <PUBCHEM_MMFF94_PARTIAL_CHARGES>  (1) 
30
1 -0.36
10 0.05
11 0.27
12 0.28
13 0.08
14 -0.15
15 -0.15
16 -0.15
17 -0.15
18 -0.15
19 -0.15
2 0.05
20 -0.15
21 -0.15
22 0.27
23 0.27
3 -0.81
32 0.15
33 0.15
34 0.15
35 0.15
36 0.15
37 0.15
38 0.15
39 0.15
4 -0.2
5 -0.18
6 -0.15
8 0.26
9 0.18

>  <PUBCHEM_EFFECTIVE_ROTOR_COUNT>  (1) 
3.6

>  <PUBCHEM_PHARMACOPHORE_FEATURES>  (1) 
7
1 1 acceptor
1 2 cation
1 3 cation
5 2 4 5 6 7 rings
6 10 13 16 19 20 21 rings
6 6 7 14 15 17 18 rings
7 1 4 5 9 10 12 13 rings

>  <PUBCHEM_HEAVY_ATOM_COUNT>  (1) 
23

>  <PUBCHEM_ATOM_DEF_STEREO_COUNT>  (1) 
0

>  <PUBCHEM_ATOM_UDEF_STEREO_COUNT>  (1) 
0

>  <PUBCHEM_BOND_DEF_STEREO_COUNT>  (1) 
0

>  <PUBCHEM_BOND_UDEF_STEREO_COUNT>  (1) 
0

>  <PUBCHEM_ISOTOPIC_ATOM_COUNT>  (1) 
0

>  <PUBCHEM_COMPONENT_COUNT>  (1) 
1

>  <PUBCHEM_CACTVS_TAUTO_COUNT>  (1) 
1

>  <PUBCHEM_CONFORMER_ID>  (1) 
000093B300000001

>  <PUBCHEM_MMFF94_ENERGY>  (1) 
82.1233

>  <PUBCHEM_FEATURE_SELFOVERLAP>  (1) 
35.649

>  <PUBCHEM_SHAPE_FINGERPRINT>  (1) 
10411042 1 17978230787762860030
10616163 171 18339644554848017150
10693767 8 17625518122276322423
10906281 52 18056493768109122108
10967382 1 17979354157785700628
1100329 8 18338230462477662602
11578080 2 17058634377848193859
12553582 1 17832715938306050323
12592029 89 17833837071109878945
12788726 201 18336817680330991291
12930653 34 18125432253670221880
13140716 1 18052817236837734585
138480 1 16824744761207378283
14178342 30 18266724960974366176
14223421 5 18196370540306463978
14251757 5 18123493612996894574
14790565 3 18123759642870495840
14866123 147 18337951195009160339
15196674 1 18196089945856649444
16728300 4 16740847694728671322
16945 1 18411416241281919376
17859628 97 18049441439871542899
19591789 44 18266459806741095457
19930381 70 17689435988246119411
20028762 73 18200869583596454855
20739085 24 16965770914752293249
20775438 99 17552310718349004239
20905425 154 18197785611892835236
21267235 1 18124322610092833556
21478907 32 18267582597339996943
2334 1 17907293613084375148
23402539 116 17983845701693020692
23558518 356 18115870870373714160
23559900 14 18271239427348653400
266924 87 18050280667764730877
2748010 2 17980754158157899548
283562 15 17978797040640889296
3084891 72 18051974719051734712
3091708 16 9056165451439643803
3178227 256 18266751186456164865
335352 9 18123750851056259828
34934 24 18340481167628289348
43471831 8 17689154504663610971
484989 97 18408885140340795095
5104073 3 18268147548437007592
5309563 4 17689720087437753106
54173680 148 18338518646134877453
6138700 20 17475237903631795798
6443956 14 17616532195804706575
81228 2 18115866485138245275
9709674 26 18342739619903334726

>  <PUBCHEM_SHAPE_MULTIPOLES>  (1) 
457.5
6.86
5.66
0.78
2.58
5.77
-0.06
-1.57
0.7
-4.12
-1.09
-0.13
0.41
0.22

>  <PUBCHEM_SHAPE_SELFOVERLAP>  (1) 
1005.707

>  <PUBCHEM_SHAPE_VOLUME>  (1) 
248.3

>  <PUBCHEM_COORDINATE_TYPE>  (1) 
2
5
10

$$$$
