37824
     RDKit          3D

 20 23  0  0  1  0  0  0  0  0999 V2000
    3.0711    1.0918   -1.1083 S   0  0  0  0  0  0  0  0  0  0  0  0
   -1.4181    0.0373    0.5681 N   0  0  0  0  0  0  0  0  0  0  0  0
   -3.9190   -0.8010   -0.6155 N   0  0  0  0  0  0  0  0  0  0  0  0
    3.7438   -1.4176   -0.5686 N   0  0  0  0  0  0  0  0  0  0  0  0
    2.3057   -2.7659    0.8321 N   0  0  0  0  0  0  0  0  0  0  0  0
   -0.4129    1.0410    0.9125 C   0  0  0  0  0  0  0  0  0  0  0  0
   -0.9567    2.4222    0.4789 C   0  0  0  0  0  0  0  0  0  0  0  0
    0.9098    0.7151    0.2544 C   0  0  0  0  0  0  0  0  0  0  0  0
   -2.7043    0.3481    1.2038 C   0  0  0  0  0  0  0  0  0  0  0  0
   -1.5767   -0.0636   -0.8879 C   0  0  0  0  0  0  0  0  0  0  0  0
    0.1469    3.4832    0.4174 C   0  0  0  0  0  0  0  0  0  0  0  0
    1.2025    3.1039   -0.6281 C   0  0  0  0  0  0  0  0  0  0  0  0
    1.6229    1.6794   -0.4414 C   0  0  0  0  0  0  0  0  0  0  0  0
   -3.7607   -0.7011    0.8405 C   0  0  0  0  0  0  0  0  0  0  0  0
   -2.6328   -1.1136   -1.2502 C   0  0  0  0  0  0  0  0  0  0  0  0
    1.6501   -0.5246    0.3207 C   0  0  0  0  0  0  0  0  0  0  0  0
    2.8323   -0.4388   -0.4073 C   0  0  0  0  0  0  0  0  0  0  0  0
   -4.9253   -1.8032   -0.9607 C   0  0  0  0  0  0  0  0  0  0  0  0
    1.4230   -1.7518    0.9588 C   0  0  0  0  0  0  0  0  0  0  0  0
    3.3985   -2.5409    0.0808 C   0  0  0  0  0  0  0  0  0  0  0  0
  1 13  1  0
  1 17  1  0
  2  6  1  0
  2  9  1  0
  2 10  1  0
  3 14  1  0
  3 15  1  0
  3 18  1  0
  4 17  2  0
  4 20  1  0
  5 19  1  0
  5 20  2  0
  6  7  1  0
  6  8  1  0
  7 11  1  0
  8 13  2  0
  8 16  1  0
  9 14  1  0
 10 15  1  0
 11 12  1  0
 12 13  1  0
 16 17  1  0
 16 19  2  0
M  END
>  <PUBCHEM_COMPOUND_CID>  (1) 
37824

>  <PUBCHEM_CONFORMER_RMSD>  (1) 
0.6

>  <PUBCHEM_CONFORMER_DIVERSEORDER>  (1) 
2
4
1
3

>  <PUBCHEM_MMFF94_PARTIAL_CHARGES>  (1) 
19
1 -0.08
10 0.27
12 0.18
13 -0.14
14 0.27
15 0.27
17 0.3
18 0.27
19 0.16
2 -0.81
20 0.47
3 -0.81
39 0.15
4 -0.57
40 0.15
5 -0.62
6 0.45
8 -0.18
9 0.27

>  <PUBCHEM_EFFECTIVE_ROTOR_COUNT>  (1) 
3

>  <PUBCHEM_PHARMACOPHORE_FEATURES>  (1) 
8
1 2 cation
1 3 cation
1 4 acceptor
3 4 5 20 cation
5 1 8 13 16 17 rings
6 2 3 9 10 14 15 rings
6 4 5 16 17 19 20 rings
6 6 7 8 11 12 13 rings

>  <PUBCHEM_HEAVY_ATOM_COUNT>  (1) 
20

>  <PUBCHEM_ATOM_DEF_STEREO_COUNT>  (1) 
0

>  <PUBCHEM_ATOM_UDEF_STEREO_COUNT>  (1) 
1

>  <PUBCHEM_BOND_DEF_STEREO_COUNT>  (1) 
0

>  <PUBCHEM_BOND_UDEF_STEREO_COUNT>  (1) 
0

>  <PUBCHEM_ISOTOPIC_ATOM_COUNT>  (1) 
0

>  <PUBCHEM_COMPONENT_COUNT>  (1) 
1

>  <PUBCHEM_CACTVS_TAUTO_COUNT>  (1) 
1

>  <PUBCHEM_CONFORMER_ID>  (1) 
000093C000000002

>  <PUBCHEM_MMFF94_ENERGY>  (1) 
46.5984

>  <PUBCHEM_FEATURE_SELFOVERLAP>  (1) 
40.735

>  <PUBCHEM_SHAPE_FINGERPRINT>  (1) 
10967382 1 18263940963188630800
11578080 2 18059275579123924048
12553582 1 18337961099118868194
12730499 353 17972881638324274659
13004483 165 18194387905871835555
13009979 54 17846232050315609579
13083527 12 18263062384947534624
13140716 1 17978795936728611096
13533116 47 18267304425657457875
13911987 19 17898873476262361892
14576447 43 18270401710202733879
14787075 74 18272653497981083752
15342816 4 18272660064194424934
15375462 189 18341622524579040115
16945 1 18335708307310129720
17349148 13 18040719130804500698
1813 80 18272098166550429423
200 152 18333733485499847978
20291156 8 18340769251805430999
20361792 2 18342449327200340663
20600515 1 16415209914270023401
20626108 58 18060126670343821855
20645477 70 18262510537321211663
21452121 199 18262785294736748904
21634736 98 18198909299559392886
21731516 1 18342174431939402089
22112679 90 18201452332489117993
2255824 54 18196091264094812461
23402539 116 18337392626364966242
23419403 2 17103906670649105368
23598288 3 18048896099125903113
23598291 2 18272103707279812945
23728640 28 17256233852883938546
238 59 18118118310632277843
257057 1 18338229354355040128
2838139 119 14708640488338961078
3060560 45 18118116111466675724
3323516 105 18117000086000856811
34934 24 18338524023334296624
46194498 28 17677045875734162655
59682541 52 18193530446818787039
6338986 31 18338791217597086184
7364860 26 18268987768335433184
7471813 234 18409442558006905030
7970288 3 18341892952763930383
81228 2 17758378700339401280
90525 40 17980770341562567576
9981440 41 15687291804555655520

>  <PUBCHEM_SHAPE_MULTIPOLES>  (1) 
395.52
7.09
3.53
1.19
6.41
1.57
0.06
-5.64
1.91
-2.52
-0.32
0.51
-0.13
-1.34

>  <PUBCHEM_SHAPE_SELFOVERLAP>  (1) 
845.139

>  <PUBCHEM_SHAPE_VOLUME>  (1) 
222.5

>  <PUBCHEM_COORDINATE_TYPE>  (1) 
2
5
10

$$$$
