37821
     RDKit          3D

 28 30  0  0  1  0  0  0  0  0999 V2000
    3.8464    0.4069   -3.4001 O   0  0  0  0  0  0  0  0  0  0  0  0
    4.7933    1.2196   -1.5102 O   0  0  0  0  0  0  0  0  0  0  0  0
   -3.8802   -3.5457   -0.1501 O   0  0  0  0  0  0  0  0  0  0  0  0
   -6.2899   -2.1865   -0.1801 O   0  0  0  0  0  0  0  0  0  0  0  0
    4.9025    0.4851    2.4632 O   0  0  0  0  0  0  0  0  0  0  0  0
   -2.1124    4.3107    0.9395 O   0  0  0  0  0  0  0  0  0  0  0  0
    4.5713   -1.7236    2.9555 O   0  0  0  0  0  0  0  0  0  0  0  0
   -0.3118    3.4683   -0.1627 O   0  0  0  0  0  0  0  0  0  0  0  0
   -1.7376    0.8303    0.1534 N   0  0  0  0  0  0  0  0  0  0  0  0
    4.4507   -1.0563   -0.1439 N   0  0  0  0  0  0  0  0  0  0  0  0
    3.8872   -1.0345   -1.5130 C   0  0  0  0  0  0  0  0  0  0  0  0
    2.3747   -1.2810   -1.4870 C   0  0  0  0  0  0  0  0  0  0  0  0
    1.6703   -0.7462   -0.2596 C   0  0  0  0  0  0  0  0  0  0  0  0
   -2.7380   -0.0973    0.0669 C   0  0  0  0  0  0  0  0  0  0  0  0
   -3.9396    0.6141    0.0538 C   0  0  0  0  0  0  0  0  0  0  0  0
    2.3282   -0.5095    0.8863 C   0  0  0  0  0  0  0  0  0  0  0  0
    3.7756   -0.7936    0.9178 C   0  0  0  0  0  0  0  0  0  0  0  0
    0.2492   -0.5280   -0.3660 C   0  0  0  0  0  0  0  0  0  0  0  0
   -2.2370    2.0941    0.1960 C   0  0  0  0  0  0  0  0  0  0  0  0
   -0.3677    0.5213    0.1933 C   0  0  0  0  0  0  0  0  0  0  0  0
   -3.6080    1.9954    0.1357 C   0  0  0  0  0  0  0  0  0  0  0  0
    4.2302    0.2990   -2.0979 C   0  0  0  0  0  0  0  0  0  0  0  0
   -2.6864   -1.4942   -0.0002 C   0  0  0  0  0  0  0  0  0  0  0  0
   -5.1505   -0.1016   -0.0307 C   0  0  0  0  0  0  0  0  0  0  0  0
   -3.9001   -2.1827   -0.0835 C   0  0  0  0  0  0  0  0  0  0  0  0
   -5.1144   -1.4990   -0.0986 C   0  0  0  0  0  0  0  0  0  0  0  0
    4.4574   -0.7616    2.2356 C   0  0  0  0  0  0  0  0  0  0  0  0
   -1.4634    3.2966    0.2867 C   0  0  0  0  0  0  0  0  0  0  0  0
  1 22  1  0
  2 22  2  0
  3 25  1  0
  4 26  1  0
  5 27  1  0
  6 28  1  0
  7 27  2  0
  8 28  2  0
  9 14  1  0
  9 19  1  0
  9 20  1  0
 10 11  1  0
 10 17  2  0
 11 12  1  0
 11 22  1  0
 12 13  1  0
 13 16  2  0
 13 18  1  0
 14 15  2  0
 14 23  1  0
 15 21  1  0
 15 24  1  0
 16 17  1  0
 17 27  1  0
 18 20  2  0
 19 21  2  0
 19 28  1  0
 23 25  2  0
 24 26  2  0
 25 26  1  0
M  CHG  1  10   1
M  END
>  <PUBCHEM_COMPOUND_CID>  (1) 
37821

>  <PUBCHEM_CONFORMER_RMSD>  (1) 
0.8

>  <PUBCHEM_CONFORMER_DIVERSEORDER>  (1) 
3
8
13
6
9
2
15
18
10
5
11
16
7
12
4
17
1
14

>  <PUBCHEM_MMFF94_PARTIAL_CHARGES>  (1) 
39
1 -0.65
10 -0.15
11 0.41
12 0.14
13 -0.14
14 -0.15
16 -0.14
17 0.39
18 -0.15
19 -0.24
2 -0.57
20 -0.18
21 -0.15
22 0.66
23 -0.15
24 -0.15
25 0.08
26 0.08
27 0.72
28 0.81
3 -0.53
32 0.4
33 0.15
34 0.15
35 0.15
36 0.15
37 0.15
38 0.15
39 0.5
4 -0.53
40 0.45
41 0.45
42 0.5
43 0.5
5 -0.65
6 -0.65
7 -0.57
8 -0.57
9 0.33

>  <PUBCHEM_EFFECTIVE_ROTOR_COUNT>  (1) 
5.4

>  <PUBCHEM_PHARMACOPHORE_FEATURES>  (1) 
17
1 1 acceptor
1 10 acceptor
1 10 donor
1 2 acceptor
1 3 donor
1 4 donor
1 5 acceptor
1 6 acceptor
1 7 acceptor
1 8 acceptor
1 9 cation
3 1 2 22 anion
3 5 7 27 anion
3 6 8 28 anion
5 9 14 15 19 21 rings
6 10 11 12 13 16 17 rings
6 14 15 23 24 25 26 rings

>  <PUBCHEM_HEAVY_ATOM_COUNT>  (1) 
28

>  <PUBCHEM_ATOM_DEF_STEREO_COUNT>  (1) 
0

>  <PUBCHEM_ATOM_UDEF_STEREO_COUNT>  (1) 
1

>  <PUBCHEM_BOND_DEF_STEREO_COUNT>  (1) 
0

>  <PUBCHEM_BOND_UDEF_STEREO_COUNT>  (1) 
3

>  <PUBCHEM_ISOTOPIC_ATOM_COUNT>  (1) 
0

>  <PUBCHEM_COMPONENT_COUNT>  (1) 
1

>  <PUBCHEM_CACTVS_TAUTO_COUNT>  (1) 
9

>  <PUBCHEM_CONFORMER_ID>  (1) 
000093BD00000003

>  <PUBCHEM_MMFF94_ENERGY>  (1) 
77.0978

>  <PUBCHEM_FEATURE_SELFOVERLAP>  (1) 
86.551

>  <PUBCHEM_SHAPE_FINGERPRINT>  (1) 
10319926 262 18127113188074571442
10369192 42 16915645081775288656
10670039 82 18338532850013751804
11049842 53 17835251042984525662
11056379 131 18269569251478879997
11059845 2 17616795649436078768
11370993 144 16702029634410026483
11595378 159 18335974303561893434
12166972 35 17385994058024220426
12236239 1 17822293474265191686
12342043 65 17346054280828693326
12553582 1 18411991282100814535
12616971 3 17313665953886982723
12788726 201 18334866017215978011
13782708 43 17417536825932402446
14081887 123 18341607058401820195
14178342 30 18265043627053617010
14739800 52 18334852870880611344
14790565 3 17764889995800375273
14910302 57 18200878348785890335
15842332 3 17896047555015746672
15961568 22 18340200903743471648
16992727 255 17973695036769844749
17349148 13 17676488302647512650
17844677 252 15769782316404446131
1813 80 18343303708207504129
18681886 176 18340499941014639580
19377110 9 18186525405738158432
20511986 3 17822283613046452799
21033648 29 17346596366047144595
21065201 7 18199469870396363502
2132832 1 17458616783954174548
22182313 1 17489581208930073072
23366157 5 17899414478922292061
23557571 272 18130512933197246628
23559900 14 18054514608065815430
3004659 81 18040716961176629326
335352 9 18412831305401339087
3633792 109 17095512985639000218
3882209 13 16978676913309694615
3886686 26 17402313889814414730
4015057 19 15285363920224554413
46194498 28 17560817528365672140
474 4 16951430843621470420
495365 180 13623524684399943520
5104073 3 17917427553943680395
6823239 73 18131638863838792640
7399639 24 17918266545882230262
7615 1 17895197645507440236
9658208 31 17698450931554093041

>  <PUBCHEM_SHAPE_MULTIPOLES>  (1) 
519.31
13.19
3.49
2.05
0.55
3
-0.04
-6.46
0.76
-5.3
0.5
6.02
-0.27
-1.38

>  <PUBCHEM_SHAPE_SELFOVERLAP>  (1) 
1141.43

>  <PUBCHEM_SHAPE_VOLUME>  (1) 
279.4

>  <PUBCHEM_COORDINATE_TYPE>  (1) 
2
5
10

$$$$
