37832
     RDKit          3D

 13 14  0  0  0  0  0  0  0  0999 V2000
    3.5881    0.9197    0.0002 Br  0  0  0  0  0  0  0  0  0  0  0  0
    2.6135   -1.9246   -0.0005 O   0  0  0  0  0  0  0  0  0  0  0  0
    0.3521   -1.6515    0.0001 N   0  0  0  0  0  0  0  0  0  0  0  0
   -0.6385    0.5592   -0.0001 C   0  0  0  0  0  0  0  0  0  0  0  0
   -0.7833   -0.8333    0.0000 C   0  0  0  0  0  0  0  0  0  0  0  0
    0.7296    1.1453    0.0001 C   0  0  0  0  0  0  0  0  0  0  0  0
    1.8030    0.3235    0.0003 C   0  0  0  0  0  0  0  0  0  0  0  0
   -1.8107    1.3342    0.0002 C   0  0  0  0  0  0  0  0  0  0  0  0
   -2.0458   -1.4388    0.0001 C   0  0  0  0  0  0  0  0  0  0  0  0
    1.6404   -1.1711    0.0002 C   0  0  0  0  0  0  0  0  0  0  0  0
    0.8184    2.6534   -0.0003 C   0  0  0  0  0  0  0  0  0  0  0  0
   -3.0745    0.7348   -0.0002 C   0  0  0  0  0  0  0  0  0  0  0  0
   -3.1922   -0.6509    0.0000 C   0  0  0  0  0  0  0  0  0  0  0  0
  1  7  1  0
  2 10  2  0
  3  5  1  0
  3 10  1  0
  4  5  2  0
  4  6  1  0
  4  8  1  0
  5  9  1  0
  6  7  2  0
  6 11  1  0
  7 10  1  0
  8 12  2  0
  9 13  2  0
 12 13  1  0
M  END
>  <PUBCHEM_COMPOUND_CID>  (1) 
37832

>  <PUBCHEM_CONFORMER_RMSD>  (1) 
0.4

>  <PUBCHEM_CONFORMER_DIVERSEORDER>  (1) 
1

>  <PUBCHEM_MMFF94_PARTIAL_CHARGES>  (1) 
18
1 -0.11
10 0.62
11 0.14
12 -0.15
13 -0.15
14 0.37
15 0.15
16 0.15
2 -0.57
20 0.15
21 0.15
3 -0.55
4 0.03
5 0.12
6 -0.17
7 0.12
8 -0.15
9 -0.15

>  <PUBCHEM_EFFECTIVE_ROTOR_COUNT>  (1) 
0

>  <PUBCHEM_PHARMACOPHORE_FEATURES>  (1) 
5
1 1 hydrophobe
1 2 acceptor
1 3 donor
6 3 4 5 6 7 10 rings
6 4 5 8 9 12 13 rings

>  <PUBCHEM_HEAVY_ATOM_COUNT>  (1) 
13

>  <PUBCHEM_ATOM_DEF_STEREO_COUNT>  (1) 
0

>  <PUBCHEM_ATOM_UDEF_STEREO_COUNT>  (1) 
0

>  <PUBCHEM_BOND_DEF_STEREO_COUNT>  (1) 
0

>  <PUBCHEM_BOND_UDEF_STEREO_COUNT>  (1) 
0

>  <PUBCHEM_ISOTOPIC_ATOM_COUNT>  (1) 
0

>  <PUBCHEM_COMPONENT_COUNT>  (1) 
1

>  <PUBCHEM_CACTVS_TAUTO_COUNT>  (1) 
2

>  <PUBCHEM_CONFORMER_ID>  (1) 
000093C800000001

>  <PUBCHEM_MMFF94_ENERGY>  (1) 
37.2727

>  <PUBCHEM_FEATURE_SELFOVERLAP>  (1) 
25.396

>  <PUBCHEM_SHAPE_FINGERPRINT>  (1) 
10608611 8 18409726244554409749
10967382 1 18410575114727849989
11132069 177 18410567418595088968
11471102 20 18410288095549727565
12382932 28 18411413990787212568
12524768 44 18270123387805916887
13140716 1 17906174305820034784
13380535 21 18410303509601835802
13380535 76 18336825402576057626
14144814 61 18410855464475902777
14325111 11 18410856542533922817
14790565 3 15389522461443501550
15536298 74 18343584019316785718
15775835 57 18411987970190249965
16945 1 18338799043032644231
17990270 104 18409728477953000643
193761 8 17402049392990240384
19973954 147 18410294739647824035
20201158 50 18409445929313522235
20588541 1 18335703879172200844
21501502 16 18411136913772545227
2334 1 18410575058914393634
23402539 116 18271799164376413244
23402655 69 18341317917583882141
23463225 33 18335416864014661088
23552423 10 18265052607919546381
23559900 14 18197212539240008902
241688 4 18265896852176287016
2748010 2 18339079289564286390
528886 8 18411132562844028528
53812653 166 18342736360028496672
63268167 104 18410858745952340201
7364860 26 18342176725631578576

>  <PUBCHEM_SHAPE_MULTIPOLES>  (1) 
262.63
5.08
2.27
0.61
0.37
0.27
0
0.02
0
0.73
0
0.02
0.03
0

>  <PUBCHEM_SHAPE_SELFOVERLAP>  (1) 
554.25

>  <PUBCHEM_SHAPE_VOLUME>  (1) 
151.8

>  <PUBCHEM_COORDINATE_TYPE>  (1) 
2
5
10

$$$$
