37858
     RDKit          3D

 19 21  0  0  1  0  0  0  0  0999 V2000
    0.2035   -0.0749    0.4761 O   0  0  0  0  0  0  0  0  0  0  0  0
   -0.7372   -1.6755   -0.9029 O   0  0  0  0  0  0  0  0  0  0  0  0
    6.4759    0.4471   -0.6060 O   0  0  0  0  0  0  0  0  0  0  0  0
    3.8970   -0.0659    0.4840 N   0  0  0  0  0  0  0  0  0  0  0  0
   -3.0193    0.4348   -0.7002 C   0  0  0  0  0  0  0  0  0  0  0  0
   -3.3832   -0.9261   -0.1515 C   0  0  0  0  0  0  0  0  0  0  0  0
   -2.1407   -0.2232    0.3294 C   0  0  0  0  0  0  0  0  0  0  0  0
   -3.8101    1.6615   -0.3499 C   0  0  0  0  0  0  0  0  0  0  0  0
   -4.5038   -1.0999    0.7805 C   0  0  0  0  0  0  0  0  0  0  0  0
   -0.8236   -0.7496   -0.1092 C   0  0  0  0  0  0  0  0  0  0  0  0
   -5.2842    1.5512   -0.6175 C   0  0  0  0  0  0  0  0  0  0  0  0
   -5.6774   -0.4479    0.7978 C   0  0  0  0  0  0  0  0  0  0  0  0
   -6.0837    0.5985   -0.1131 C   0  0  0  0  0  0  0  0  0  0  0  0
    1.5150   -0.5136    0.1081 C   0  0  0  0  0  0  0  0  0  0  0  0
    2.5389    0.3362    0.8435 C   0  0  0  0  0  0  0  0  0  0  0  0
    4.1096    0.0513   -0.9653 C   0  0  0  0  0  0  0  0  0  0  0  0
    4.8891    0.7435    1.2054 C   0  0  0  0  0  0  0  0  0  0  0  0
    5.5365   -0.3622   -1.3142 C   0  0  0  0  0  0  0  0  0  0  0  0
    6.2978    0.3147    0.8049 C   0  0  0  0  0  0  0  0  0  0  0  0
  1 10  1  0
  1 14  1  0
  2 10  2  0
  3 18  1  0
  3 19  1  0
  4 15  1  0
  4 16  1  0
  4 17  1  0
  5  6  1  0
  5  7  1  0
  5  8  1  0
  6  7  1  0
  6  9  1  0
  7 10  1  0
  8 11  1  0
  9 12  2  0
 11 13  2  0
 12 13  1  0
 14 15  1  0
 16 18  1  0
 17 19  1  0
M  END
>  <PUBCHEM_COMPOUND_CID>  (1) 
37858

>  <PUBCHEM_CONFORMER_RMSD>  (1) 
0.8

>  <PUBCHEM_CONFORMER_DIVERSEORDER>  (1) 
1
110
351
348
301
254
173
166
297
224
44
28
134
164
250
57
280
266
58
239
217
106
339
176
179
85
269
349
156
244
25
124
102
140
152
267
352
129
195
230
162
274
189
31
35
193
225
221
187
346
234
131
7
282
115
284
277
237
11
264
181
84
23
170
334
63
336
121
145
202
332
123
183
147
188
293
206
344
12
133
258
298
219
216
236
345
149
283
125
69
361
223
141
55
79
51
130
4
68
240
242
353
335
218
18
253
197
204
208
46
61
312
222
22
279
86
327
247
338
168
24
241
39
294
45
263
291
178
228
29
54
100
8
107
342
53
165
343
144
60
59
314
104
333
182
233
42
325
47
15
135
93
290
232
92
271
14
337
321
161
9
275
243
210
289
87
255
143
355
287
78
261
238
94
146
362
43
212
3
132
190
75
251
120
281
113
136
48
82
74
157
185
313
64
171
199
227
138
357
19
235
95
292
33
10
77
326
37
272
356
315
67
174
259
65
126
260
105
103
310
89
192
16
172
194
159
203
20
215
329
112
191
226
169
286
111
180
98
151
66
13
2
91
116
198
304
209
322
231
17
26
155
256
36
40
359
331
305
270
347
358
184
30
278
139
97
309
142
34
341
71
175
154
330
153
213
62
201
328
214
21
299
114
127
158
303
205
150
70
220
56
268
32
52
196
350
27
316
88
273
360
324
76
99
319
295
245
207
137
296
246
262
90
49
163
186
311
323
122
38
108
249
340
177
167
317
96
118
300
320
109
80
5
257
41
265
148
128
117
248
6
318
73
83
119
252
276
50
211
285
229
288
200
307
81
306
72
308
354
160
101
302

>  <PUBCHEM_MMFF94_PARTIAL_CHARGES>  (1) 
26
1 -0.43
10 0.72
11 -0.29
12 -0.15
13 -0.15
14 0.28
15 0.27
16 0.27
17 0.27
18 0.28
19 0.28
2 -0.57
20 0.1
21 0.1
22 0.1
25 0.15
26 0.15
27 0.15
28 0.15
3 -0.56
4 -0.81
5 -0.19
6 -0.06
7 -0.1
8 0.23
9 -0.19

>  <PUBCHEM_EFFECTIVE_ROTOR_COUNT>  (1) 
6.6

>  <PUBCHEM_PHARMACOPHORE_FEATURES>  (1) 
5
1 2 acceptor
1 3 acceptor
1 4 cation
6 3 4 16 17 18 19 rings
7 5 6 8 9 11 12 13 rings

>  <PUBCHEM_HEAVY_ATOM_COUNT>  (1) 
19

>  <PUBCHEM_ATOM_DEF_STEREO_COUNT>  (1) 
0

>  <PUBCHEM_ATOM_UDEF_STEREO_COUNT>  (1) 
3

>  <PUBCHEM_BOND_DEF_STEREO_COUNT>  (1) 
0

>  <PUBCHEM_BOND_UDEF_STEREO_COUNT>  (1) 
0

>  <PUBCHEM_ISOTOPIC_ATOM_COUNT>  (1) 
0

>  <PUBCHEM_COMPONENT_COUNT>  (1) 
1

>  <PUBCHEM_CACTVS_TAUTO_COUNT>  (1) 
1

>  <PUBCHEM_CONFORMER_ID>  (1) 
000093E200000001

>  <PUBCHEM_MMFF94_ENERGY>  (1) 
37.6662

>  <PUBCHEM_FEATURE_SELFOVERLAP>  (1) 
25.371

>  <PUBCHEM_SHAPE_FINGERPRINT>  (1) 
10354089 29 16660364779700062812
10638233 991 16660655076318112580
106641 1 15357707400692936073
10670039 82 18270123405329145032
10730089 173 18334296452680702260
10835480 77 16988269993616041232
10912923 1 16805037432607677784
11315181 36 16950285131151615131
12091667 2 18408602582731554403
12107183 9 16593343863107521673
12236239 1 17240483610956485092
12390115 104 18269562646209770153
12516196 113 12679460881061753874
12596602 18 16153429441491989057
12916748 109 18343022181464501664
13167372 99 17095519565903282124
13533116 47 15482678944752344102
13631057 29 16878231982405203307
13668630 136 14189576342927758756
14251752 14 18411699851300052518
14251764 18 17022623096248953900
14341114 328 17095522881100842273
14573314 32 18202285766872129164
14933364 13 18334577949406380472
15183329 4 16271928199010187790
15716309 27 15140676977559695585
17834072 33 16877944966129174618
17834072 8 17846779602542067108
17844677 252 18408889572082529744
18222031 100 10952053381668923154
19489759 90 18113899364605284497
20281389 69 18187078443065653416
20374829 77 10807929367202937663
20645477 56 18342734122403074991
20645477 70 16702030764439995942
21033648 29 18201988945676739360
21150785 3 16773788212919499189
22061861 79 17346602954431673996
221357 26 17132112425050696680
2215653 11 17203895158635505246
22224240 67 14996004345926619889
2297311 6 18410863161600810861
23081809 10 17603579746839396426
23402539 116 14620797097995681227
23536379 177 17967249784868174754
23559900 14 16486681567647846890
29717793 49 14405191677368300000
3014965 18 17988364759092669686
3545911 37 18342458136320721963
5104073 3 18188493446169529051
542803 24 17675924300294968323
54446538 1 17967816063036563924
59755656 215 18272655619051284718

>  <PUBCHEM_SHAPE_MULTIPOLES>  (1) 
368.42
18.43
1.26
1.1
12.46
0.18
-0.04
3.96
0.57
-1.93
-0.13
1.25
-0.03
0.82

>  <PUBCHEM_SHAPE_SELFOVERLAP>  (1) 
759.13

>  <PUBCHEM_SHAPE_VOLUME>  (1) 
209

>  <PUBCHEM_COORDINATE_TYPE>  (1) 
2
5
10

$$$$
