3785
     RDKit          3D

 22 24  0  0  0  0  0  0  0  0999 V2000
    0.3173    2.1829   -0.9141 O   0  0  0  0  0  0  0  0  0  0  0  0
    0.0689   -2.4685   -0.6260 O   0  0  0  0  0  0  0  0  0  0  0  0
    5.5266   -1.3069    0.8578 O   0  0  0  0  0  0  0  0  0  0  0  0
    6.5110    1.1275    1.5059 O   0  0  0  0  0  0  0  0  0  0  0  0
    0.2319   -0.1510   -0.8489 N   0  0  0  0  0  0  0  0  0  0  0  0
    5.5350    0.9772    0.5119 N   0  0  0  0  0  0  0  0  0  0  0  0
   -2.4091    0.0489    0.0668 C   0  0  0  0  0  0  0  0  0  0  0  0
    1.5879   -0.2578   -1.3769 C   0  0  0  0  0  0  0  0  0  0  0  0
   -1.6997    1.2226   -0.2240 C   0  0  0  0  0  0  0  0  0  0  0  0
   -1.8321   -1.2212   -0.0701 C   0  0  0  0  0  0  0  0  0  0  0  0
    2.6437   -0.2256   -0.2774 C   0  0  0  0  0  0  0  0  0  0  0  0
   -0.2987    1.1424   -0.6941 C   0  0  0  0  0  0  0  0  0  0  0  0
   -0.4346   -1.3505   -0.5376 C   0  0  0  0  0  0  0  0  0  0  0  0
   -3.7500    0.1496    0.5157 C   0  0  0  0  0  0  0  0  0  0  0  0
    4.0653   -0.3597   -0.8236 C   0  0  0  0  0  0  0  0  0  0  0  0
   -2.3023    2.4783   -0.0750 C   0  0  0  0  0  0  0  0  0  0  0  0
   -2.5646   -2.3764    0.2306 C   0  0  0  0  0  0  0  0  0  0  0  0
   -4.3395    1.4147    0.6589 C   0  0  0  0  0  0  0  0  0  0  0  0
   -4.4707   -1.0170    0.8120 C   0  0  0  0  0  0  0  0  0  0  0  0
   -3.6193    2.5705    0.3654 C   0  0  0  0  0  0  0  0  0  0  0  0
   -3.8809   -2.2710    0.6700 C   0  0  0  0  0  0  0  0  0  0  0  0
    5.1140   -0.3090    0.2727 C   0  0  0  0  0  0  0  0  0  0  0  0
  1 12  2  0
  2 13  2  0
  3 22  2  0
  4  6  1  0
  5  8  1  0
  5 12  1  0
  5 13  1  0
  6 22  1  0
  7  9  1  0
  7 10  2  0
  7 14  1  0
  8 11  1  0
  9 12  1  0
  9 16  2  0
 10 13  1  0
 10 17  1  0
 11 15  1  0
 14 18  1  0
 14 19  2  0
 15 22  1  0
 16 20  1  0
 17 21  2  0
 18 20  2  0
 19 21  1  0
M  END
>  <PUBCHEM_COMPOUND_CID>  (1) 
3785

>  <PUBCHEM_CONFORMER_RMSD>  (1) 
0.8

>  <PUBCHEM_CONFORMER_DIVERSEORDER>  (1) 
2
8
10
3
11
9
4
13
1
7
12
5
6

>  <PUBCHEM_MMFF94_PARTIAL_CHARGES>  (1) 
27
1 -0.57
10 0.09
12 0.54
13 0.54
15 0.06
16 -0.15
17 -0.15
18 -0.15
19 -0.15
2 -0.57
20 -0.15
21 -0.15
22 0.57
29 0.15
3 -0.57
30 0.15
31 0.15
32 0.15
33 0.15
34 0.15
35 0.37
36 0.4
4 -0.44
5 -0.42
6 -0.39
8 0.3
9 0.09

>  <PUBCHEM_EFFECTIVE_ROTOR_COUNT>  (1) 
5.2

>  <PUBCHEM_PHARMACOPHORE_FEATURES>  (1) 
7
1 1 acceptor
1 2 acceptor
1 3 acceptor
1 6 donor
6 5 7 9 10 12 13 rings
6 7 10 14 17 19 21 rings
6 7 9 14 16 18 20 rings

>  <PUBCHEM_HEAVY_ATOM_COUNT>  (1) 
22

>  <PUBCHEM_ATOM_DEF_STEREO_COUNT>  (1) 
0

>  <PUBCHEM_ATOM_UDEF_STEREO_COUNT>  (1) 
0

>  <PUBCHEM_BOND_DEF_STEREO_COUNT>  (1) 
0

>  <PUBCHEM_BOND_UDEF_STEREO_COUNT>  (1) 
0

>  <PUBCHEM_ISOTOPIC_ATOM_COUNT>  (1) 
0

>  <PUBCHEM_COMPONENT_COUNT>  (1) 
1

>  <PUBCHEM_CACTVS_TAUTO_COUNT>  (1) 
3

>  <PUBCHEM_CONFORMER_ID>  (1) 
00000EC900000002

>  <PUBCHEM_MMFF94_ENERGY>  (1) 
54.2032

>  <PUBCHEM_FEATURE_SELFOVERLAP>  (1) 
35.596

>  <PUBCHEM_SHAPE_FINGERPRINT>  (1) 
10319926 262 18339919321629416242
10411042 1 18122632923083932999
10493431 412 18196387918372437025
10967382 1 18048335366308964845
11045977 3 18272370850066759848
11132069 177 18336841792271271869
12035758 1 18337692840695453081
12107183 9 17829323588989756818
12236239 1 17603592927867012078
12403259 415 17988655073080082694
12596602 18 17895191134416134704
12838862 33 18337103485473129321
12839892 36 18408325458103423694
12892183 10 18409446990666719342
13140716 1 18266477575437465603
13403585 85 18413387665746092312
14178342 30 18263938665264914005
14341114 176 18412266129969315896
14341114 328 18113621205538680420
14420673 8 17975694996707438082
14844126 61 18335142054901775067
15099037 37 18411706482397157519
15183329 4 10087651399028475640
15685185 35 16595372862453337116
16945 1 18265638549397275815
1813 80 16805612434561514166
19377110 9 17894911876059481164
200 152 14995998848431498404
21033648 29 17774993588266493176
21065199 12 18413107247806245878
21637258 2 15575005013108275193
21859007 373 17099740436144014669
22182313 1 18055941843173570703
2334 1 17907037397500896309
23366157 5 17681006384736222828
23402539 116 18411699902929519679
23557571 272 18199210445612842246
23559900 14 18197521548877223014
2748010 2 18051713306505476381
4409770 3 17532642434965415941
5104073 3 18410284788725687994
5364581 5 18198332065178222568
53917941 68 18263916649716671069
5924683 9 18341046401924420895
9981440 41 18336554815737484523

>  <PUBCHEM_SHAPE_MULTIPOLES>  (1) 
419.31
11.97
2.74
1.04
21.68
0.17
0.03
1
6.07
-3.15
0.12
0.9
0.06
0.56

>  <PUBCHEM_SHAPE_SELFOVERLAP>  (1) 
918.567

>  <PUBCHEM_SHAPE_VOLUME>  (1) 
225.7

>  <PUBCHEM_COORDINATE_TYPE>  (1) 
2
5
10

$$$$
