37868
     RDKit          3D

 14 14  0  0  0  0  0  0  0  0999 V2000
   -3.6988    0.3878    0.0829 O   0  0  0  0  0  0  0  0  0  0  0  0
   -2.3815   -1.3377   -0.6671 O   0  0  0  0  0  0  0  0  0  0  0  0
   -0.1997    0.3796   -0.4699 N   0  0  0  0  0  0  0  0  0  0  0  0
   -1.4962    0.7445   -0.1514 N   0  0  0  0  0  0  0  0  0  0  0  0
    0.6705    0.5521    0.6853 C   0  0  0  0  0  0  0  0  0  0  0  0
    2.1047    0.2293    0.3603 C   0  0  0  0  0  0  0  0  0  0  0  0
    2.5680   -1.0684    0.5265 C   0  0  0  0  0  0  0  0  0  0  0  0
    2.9438    1.2342   -0.1007 C   0  0  0  0  0  0  0  0  0  0  0  0
    3.8969   -1.3673    0.2258 C   0  0  0  0  0  0  0  0  0  0  0  0
    4.2727    0.9353   -0.4015 C   0  0  0  0  0  0  0  0  0  0  0  0
    4.7491   -0.3655   -0.2382 C   0  0  0  0  0  0  0  0  0  0  0  0
   -4.8485   -0.4616   -0.0034 C   0  0  0  0  0  0  0  0  0  0  0  0
   -2.5102   -0.1793   -0.2826 C   0  0  0  0  0  0  0  0  0  0  0  0
   -6.0708    0.3170    0.4339 C   0  0  0  0  0  0  0  0  0  0  0  0
  1 12  1  0
  1 13  1  0
  2 13  2  0
  3  4  1  0
  3  5  1  0
  4 13  1  0
  5  6  1  0
  6  7  2  0
  6  8  1  0
  7  9  1  0
  8 10  2  0
  9 11  2  0
 10 11  1  0
 12 14  1  0
M  END
>  <PUBCHEM_COMPOUND_CID>  (1) 
37868

>  <PUBCHEM_CONFORMER_RMSD>  (1) 
0.6

>  <PUBCHEM_CONFORMER_DIVERSEORDER>  (1) 
1
54
32
33
6
5
56
59
31
52
15
50
28
24
4
14
40
29
3
35
53
46
12
61
39
34
58
2
19
51
26
16
62
44
7
42
49
36
55
43
45
60
23
27
38
20
48
10
17
30
25
21
47
57
41
22
13
8
37
9
18
11

>  <PUBCHEM_MMFF94_PARTIAL_CHARGES>  (1) 
20
1 -0.43
10 -0.15
11 -0.15
12 0.28
13 0.78
17 0.15
18 0.15
19 0.36
2 -0.57
20 0.15
21 0.15
22 0.15
23 0.37
3 -0.64
4 -0.42
5 0.41
6 -0.14
7 -0.15
8 -0.15
9 -0.15

>  <PUBCHEM_EFFECTIVE_ROTOR_COUNT>  (1) 
6

>  <PUBCHEM_PHARMACOPHORE_FEATURES>  (1) 
4
1 2 acceptor
1 3 donor
1 4 donor
6 6 7 8 9 10 11 rings

>  <PUBCHEM_HEAVY_ATOM_COUNT>  (1) 
14

>  <PUBCHEM_ATOM_DEF_STEREO_COUNT>  (1) 
0

>  <PUBCHEM_ATOM_UDEF_STEREO_COUNT>  (1) 
0

>  <PUBCHEM_BOND_DEF_STEREO_COUNT>  (1) 
0

>  <PUBCHEM_BOND_UDEF_STEREO_COUNT>  (1) 
0

>  <PUBCHEM_ISOTOPIC_ATOM_COUNT>  (1) 
0

>  <PUBCHEM_COMPONENT_COUNT>  (1) 
1

>  <PUBCHEM_CACTVS_TAUTO_COUNT>  (1) 
2

>  <PUBCHEM_CONFORMER_ID>  (1) 
000093EC00000001

>  <PUBCHEM_MMFF94_ENERGY>  (1) 
21.9657

>  <PUBCHEM_FEATURE_SELFOVERLAP>  (1) 
21.791

>  <PUBCHEM_SHAPE_FINGERPRINT>  (1) 
11287383 113 17240488034662147185
13533116 47 12607137178928488820
14123238 8 12973603339699058525
1420 363 16877949338912310409
14251764 18 18342745122531621481
14350574 20 18040436560352822318
15242433 33 18411982481032167687
15477762 27 18335138657866752230
17834072 33 18411699919792572071
17834076 25 14707208820550142033
19489759 90 15051736378846996491
20645477 70 18334856074382739154
21267235 1 18410580548468316286
22485316 2 18272646883066354572
23402539 116 16988556901853156549
23402655 69 18334574625281067572
23557571 272 14996276981501991039
300161 21 18272925050765415892
351380 180 10231757786067482491
4047638 21 17240484728138670464
42 15 18411419505762447799
4214541 1 18409728426756524717
42788 4 18408323285424478081
522135 26 18411136931205518104
77779 3 18408603660356804517

>  <PUBCHEM_SHAPE_MULTIPOLES>  (1) 
266.41
12.8
1.22
0.74
14.05
0.17
0.03
0.61
0.22
-1.03
-0.03
-0.03
0.02
-0.45

>  <PUBCHEM_SHAPE_SELFOVERLAP>  (1) 
534.345

>  <PUBCHEM_SHAPE_VOLUME>  (1) 
156.6

>  <PUBCHEM_COORDINATE_TYPE>  (1) 
2
5
10

$$$$
