37869
     RDKit          3D

 24 25  0  0  0  0  0  0  0  0999 V2000
    2.8501    1.4837    0.0584 S   0  0  0  0  0  0  0  0  0  0  0  0
   -3.8019   -0.2425   -0.9501 S   0  0  0  0  0  0  0  0  0  0  0  0
   -4.4153   -0.8257    1.5050 F   0  0  0  0  0  0  0  0  0  0  0  0
   -4.2421   -2.5352    0.1622 F   0  0  0  0  0  0  0  0  0  0  0  0
   -2.4461   -1.5199    0.8634 F   0  0  0  0  0  0  0  0  0  0  0  0
    3.2311    1.9770    1.3755 O   0  0  0  0  0  0  0  0  0  0  0  0
    3.2900    2.1933   -1.1347 O   0  0  0  0  0  0  0  0  0  0  0  0
   -5.2081    0.0168   -1.1968 O   0  0  0  0  0  0  0  0  0  0  0  0
   -2.9618   -0.8042   -1.9890 O   0  0  0  0  0  0  0  0  0  0  0  0
   -3.0978    1.1809   -0.2891 N   0  0  0  0  0  0  0  0  0  0  0  0
    1.1089    1.3945   -0.0365 C   0  0  0  0  0  0  0  0  0  0  0  0
   -1.0396    1.2055    1.0523 C   0  0  0  0  0  0  0  0  0  0  0  0
   -1.6731    1.2523   -0.1896 C   0  0  0  0  0  0  0  0  0  0  0  0
    0.3514    1.2766    1.1289 C   0  0  0  0  0  0  0  0  0  0  0  0
    0.4752    1.4413   -1.2784 C   0  0  0  0  0  0  0  0  0  0  0  0
    3.5024   -0.1627   -0.0207 C   0  0  0  0  0  0  0  0  0  0  0  0
   -0.9157    1.3702   -1.3549 C   0  0  0  0  0  0  0  0  0  0  0  0
   -1.8276    1.0796    2.3153 C   0  0  0  0  0  0  0  0  0  0  0  0
    3.8107   -0.7035   -1.2544 C   0  0  0  0  0  0  0  0  0  0  0  0
    3.6875   -0.8680    1.1529 C   0  0  0  0  0  0  0  0  0  0  0  0
   -3.7206   -1.3178    0.4511 C   0  0  0  0  0  0  0  0  0  0  0  0
    4.3235   -1.9992   -1.3168 C   0  0  0  0  0  0  0  0  0  0  0  0
    4.2004   -2.1637    1.0904 C   0  0  0  0  0  0  0  0  0  0  0  0
    4.5184   -2.7293   -0.1445 C   0  0  0  0  0  0  0  0  0  0  0  0
  1  6  2  0
  1  7  2  0
  1 11  1  0
  1 16  1  0
  2  8  2  0
  2  9  2  0
  2 10  1  0
  2 21  1  0
  3 21  1  0
  4 21  1  0
  5 21  1  0
 10 13  1  0
 11 14  2  0
 11 15  1  0
 12 13  2  0
 12 14  1  0
 12 18  1  0
 13 17  1  0
 15 17  2  0
 16 19  2  0
 16 20  1  0
 19 22  1  0
 20 23  2  0
 22 24  2  0
 23 24  1  0
M  END
>  <PUBCHEM_COMPOUND_CID>  (1) 
37869

>  <PUBCHEM_CONFORMER_RMSD>  (1) 
0.8

>  <PUBCHEM_CONFORMER_DIVERSEORDER>  (1) 
1
8
19
21
7
15
3
17
9
2
14
20
11
6
4
13
16
18
5
12
10

>  <PUBCHEM_MMFF94_PARTIAL_CHARGES>  (1) 
33
1 1.32
10 -0.76
11 -0.01
12 -0.14
13 0.2
14 -0.15
15 -0.15
16 -0.01
17 -0.15
18 0.14
19 -0.15
2 1.33
20 -0.15
21 1.13
22 -0.15
23 -0.15
24 -0.15
25 0.15
26 0.15
27 0.15
28 0.42
3 -0.34
32 0.15
33 0.15
34 0.15
35 0.15
36 0.15
4 -0.34
5 -0.34
6 -0.65
7 -0.65
8 -0.65
9 -0.65

>  <PUBCHEM_EFFECTIVE_ROTOR_COUNT>  (1) 
5

>  <PUBCHEM_PHARMACOPHORE_FEATURES>  (1) 
7
1 10 donor
1 6 acceptor
1 7 acceptor
1 8 acceptor
1 9 acceptor
6 11 12 13 14 15 17 rings
6 16 19 20 22 23 24 rings

>  <PUBCHEM_HEAVY_ATOM_COUNT>  (1) 
24

>  <PUBCHEM_ATOM_DEF_STEREO_COUNT>  (1) 
0

>  <PUBCHEM_ATOM_UDEF_STEREO_COUNT>  (1) 
0

>  <PUBCHEM_BOND_DEF_STEREO_COUNT>  (1) 
0

>  <PUBCHEM_BOND_UDEF_STEREO_COUNT>  (1) 
0

>  <PUBCHEM_ISOTOPIC_ATOM_COUNT>  (1) 
0

>  <PUBCHEM_COMPONENT_COUNT>  (1) 
1

>  <PUBCHEM_CACTVS_TAUTO_COUNT>  (1) 
1

>  <PUBCHEM_CONFORMER_ID>  (1) 
000093ED00000001

>  <PUBCHEM_MMFF94_ENERGY>  (1) 
43.4653

>  <PUBCHEM_FEATURE_SELFOVERLAP>  (1) 
35.557

>  <PUBCHEM_SHAPE_FINGERPRINT>  (1) 
10498660 4 12757448141292226070
10928967 22 18262247620592875386
11405975 8 18340768148157559353
11595378 159 15482674584700954354
11796584 16 18411979170002727271
12422481 6 17843990086399025443
12596599 1 18199194996910877290
12596602 18 15267043870293956806
12633257 1 18127708040580323800
12670546 177 16081093692196510654
13533116 47 18272087214568310633
13544653 18 18272366490352954221
13583140 156 18130780204738708617
14081887 123 14764082137823700131
14251751 18 18114454592128737282
14251757 17 18040424516758206763
14848178 5 18341888580417858310
14848178 96 9583522022878426118
15295992 7 11455626378110719652
15342168 16 9799393556038549656
15475509 35 17768536341582937555
15484559 13 13132126880169184219
17349148 13 18131356280158892709
193927 3 18342462504281480070
19862831 5 15502376699299690364
20403669 9 18339075991145876518
20645477 70 18187088373182762728
21033650 10 16298661668867375092
22182313 1 16444210761760942368
22907989 373 14996578273615917725
235170 7 17385998520168330182
23559900 14 18335696152637116964
238 59 17385733469763737906
25222932 49 17342090747494995071
2838139 119 10158884299237466779
3027735 51 18194396693739225131
312425 83 15213300764505152086
33382 64 18337116790680127099
341906 21 13686299101374109883
44062 13 18190178992561547319
4463277 69 18410291410948053404
46194498 28 16879363404948761647
463206 1 17824821127397253866
49207404 50 12247679391794459422
5486654 36 18269568139013538282
7237137 82 13046525193116534745
7808743 9 10158253269720395946
7970288 3 18052545370425752966
90316 7 16415479346227266969
960060 61 17603592893918730550
9709674 26 18041282170087136920

>  <PUBCHEM_SHAPE_MULTIPOLES>  (1) 
451.33
10.76
2.73
1.8
1.46
0.82
0.21
7.88
-0.86
-1.79
0.15
0.54
-0.18
0.08

>  <PUBCHEM_SHAPE_SELFOVERLAP>  (1) 
939.89

>  <PUBCHEM_SHAPE_VOLUME>  (1) 
258.6

>  <PUBCHEM_COORDINATE_TYPE>  (1) 
2
5
10

$$$$
