37867
     RDKit          3D

 23 24  0  0  1  0  0  0  0  0999 V2000
   -2.0072    1.1668    0.3982 O   0  0  0  0  0  0  0  0  0  0  0  0
    3.6189   -2.1529   -0.1651 O   0  0  0  0  0  0  0  0  0  0  0  0
   -4.5183    1.6325    0.6243 N   0  0  0  0  0  0  0  0  0  0  0  0
   -2.2447   -1.1727    0.2884 N   0  0  0  0  0  0  0  0  0  0  0  0
    0.8142   -2.9498   -0.0177 N   0  0  0  0  0  0  0  0  0  0  0  0
   -6.2807    2.9744   -0.2404 N   0  0  0  0  0  0  0  0  0  0  0  0
    2.9176    0.0512   -0.0039 N   0  0  0  0  0  0  0  0  0  0  0  0
    5.8599    3.8657   -0.0123 N   0  0  0  0  0  0  0  0  0  0  0  0
    6.7229    1.6692   -0.1878 N   0  0  0  0  0  0  0  0  0  0  0  0
   -4.1670    0.2056    0.4962 C   0  0  0  0  0  0  0  0  0  0  0  0
   -4.8602   -0.2794   -0.7623 C   0  0  0  0  0  0  0  0  0  0  0  0
   -6.1061    0.5724   -0.7892 C   0  0  0  0  0  0  0  0  0  0  0  0
   -5.5937    1.8026   -0.0910 C   0  0  0  0  0  0  0  0  0  0  0  0
   -2.6809    0.1417    0.3902 C   0  0  0  0  0  0  0  0  0  0  0  0
   -0.9215   -1.6154    0.1729 C   0  0  0  0  0  0  0  0  0  0  0  0
   -0.5528   -2.9245    0.0774 C   0  0  0  0  0  0  0  0  0  0  0  0
    0.2277   -0.8134    0.1373 C   0  0  0  0  0  0  0  0  0  0  0  0
    1.3006   -1.6691    0.0179 C   0  0  0  0  0  0  0  0  0  0  0  0
    1.6072   -4.1540   -0.1333 C   0  0  0  0  0  0  0  0  0  0  0  0
    2.6874   -1.3243   -0.0602 C   0  0  0  0  0  0  0  0  0  0  0  0
    4.1282    0.5037   -0.0642 C   0  0  0  0  0  0  0  0  0  0  0  0
    4.4087    1.9582   -0.0086 C   0  0  0  0  0  0  0  0  0  0  0  0
    5.6401    2.5117   -0.0669 C   0  0  0  0  0  0  0  0  0  0  0  0
  1 14  2  0
  2 20  2  0
  3 10  1  0
  3 13  2  0
  4 14  1  0
  4 15  1  0
  5 16  1  0
  5 18  1  0
  5 19  1  0
  6 13  1  0
  7 20  1  0
  7 21  2  0
  8 23  1  0
  9 23  1  0
 10 11  1  0
 10 14  1  0
 11 12  1  0
 12 13  1  0
 15 16  2  0
 15 17  1  0
 17 18  2  0
 18 20  1  0
 21 22  1  0
 22 23  2  0
M  END
>  <PUBCHEM_COMPOUND_CID>  (1) 
37867

>  <PUBCHEM_CONFORMER_RMSD>  (1) 
0.8

>  <PUBCHEM_CONFORMER_DIVERSEORDER>  (1) 
1
200
349
181
245
83
243
95
212
185
316
348
165
164
124
216
224
197
15
288
166
4
323
136
130
256
43
231
293
158
120
219
286
310
335
355
347
195
268
38
209
317
223
332
220
207
270
230
90
171
240
44
153
145
150
263
39
203
184
246
314
233
30
36
187
23
255
89
254
291
173
345
204
210
336
199
129
193
248
128
339
284
55
160
249
101
179
186
285
267
52
296
309
142
154
133
324
297
235
175
17
340
97
303
117
290
41
98
177
229
147
328
252
244
137
182
241
300
138
257
308
295
333
311
19
172
121
54
63
312
227
344
304
277
42
236
32
251
74
46
258
356
307
202
201
103
122
250
118
37
9
299
77
330
198
140
126
116
119
79
214
34
191
232
70
237
92
59
156
67
206
278
306
331
64
213
72
351
24
20
292
190
100
143
29
45
242
279
305
26
48
196
91
183
260
281
266
35
313
96
287
99
110
325
88
289
78
162
87
261
343
357
168
188
113
342
152
282
318
3
146
350
84
57
272
139
302
253
180
33
176
14
163
274
125
123
337
161
346
13
238
135
28
169
18
211
315
5
66
208
298
31
205
192
280
134
217
283
228
108
215
65
115
8
273
269
50
149
341
221
353
319
259
58
25
265
338
194
71
141
131
189
73
60
112
40
326
264
93
11
56
275
47
170
80
174
225
7
327
105
49
218
148
114
81
127
358
352
322
159
12
51
16
334
22
354
106
226
151
61
109
2
321
167
222
53
111
104
155
68
86
6
234
239
329
301
94
82
157
271
102
69
320
21
144
132
76
107
10
85
178
262
27
294
276
62
247
75

>  <PUBCHEM_MMFF94_PARTIAL_CHARGES>  (1) 
33
1 -0.57
10 0.31
12 0.06
13 0.44
14 0.57
15 0.06
16 -0.3
17 -0.15
18 -0.24
19 0.26
2 -0.57
20 0.87
21 0.38
22 -0.14
23 0.2
29 0.37
3 -0.7
30 0.15
31 0.15
32 0.4
33 0.4
37 0.06
38 0.15
39 0.4
4 -0.49
40 0.4
41 0.4
42 0.4
5 0.05
6 -0.85
7 -0.66
8 -0.9
9 -0.9

>  <PUBCHEM_EFFECTIVE_ROTOR_COUNT>  (1) 
6.6

>  <PUBCHEM_PHARMACOPHORE_FEATURES>  (1) 
14
1 1 acceptor
1 2 acceptor
1 4 donor
1 5 cation
1 6 donor
1 7 acceptor
1 7 donor
1 8 cation
1 8 donor
1 9 cation
1 9 donor
3 3 6 13 cation
5 3 10 11 12 13 rings
5 5 15 16 17 18 rings

>  <PUBCHEM_HEAVY_ATOM_COUNT>  (1) 
23

>  <PUBCHEM_ATOM_DEF_STEREO_COUNT>  (1) 
0

>  <PUBCHEM_ATOM_UDEF_STEREO_COUNT>  (1) 
1

>  <PUBCHEM_BOND_DEF_STEREO_COUNT>  (1) 
0

>  <PUBCHEM_BOND_UDEF_STEREO_COUNT>  (1) 
0

>  <PUBCHEM_ISOTOPIC_ATOM_COUNT>  (1) 
0

>  <PUBCHEM_COMPONENT_COUNT>  (1) 
1

>  <PUBCHEM_CACTVS_TAUTO_COUNT>  (1) 
24

>  <PUBCHEM_CONFORMER_ID>  (1) 
000093EB00000001

>  <PUBCHEM_MMFF94_ENERGY>  (1) 
54.9397

>  <PUBCHEM_FEATURE_SELFOVERLAP>  (1) 
71.169

>  <PUBCHEM_SHAPE_FINGERPRINT>  (1) 
10050765 1 18410293648911877474
10411042 1 17545883729050671434
10595046 47 18342171134348900991
12107183 9 18335690664628677874
12293681 160 17917719028041450144
12390115 104 18268729366392437746
12403259 118 17677342747583157231
12633257 1 15502660459277935394
12769317 202 18342167856445036776
12821665 9 18340763832611602279
13540713 4 18264791950471049874
13955234 65 18190183377818940467
14123256 34 8935008087669097176
14251740 57 9079108938911711972
14251764 30 9799693696785172013
14251764 75 18341342148882297129
14257110 125 18410293644325694496
14429114 114 18412260597688227817
14528608 73 18341048528296910999
14767858 380 18200300135167331351
14774955 27 18408882927889110623
14848178 96 18413389821587559952
14931854 50 17988651795999527800
19427546 62 18409450245941063579
20554085 129 17917132975891765546
20715895 44 18411419544823822688
21033648 144 18186794781998029951
21033648 29 16805599219062916039
21033650 10 14692307109505412923
21298829 104 18409732850626191477
22950370 63 9367347054467935603
23559900 14 18194121815774765827
245318 6 17823997816268035708
270888 7 18410009966078610504
2748736 6 18410284852538890648
2838139 119 18340203093933458820
3246875 12 18337393854788890699
335352 9 18411421696913557662
34797466 226 18059581248383888575
474 4 18410855443012005539
5104073 3 18041000630913140987
59682541 52 17418107481658104212
6327066 14 18337670927223630332
67856867 119 18337666395922642595
7288768 16 18041558152006872154
77188 2 17617377282266063462
7808743 9 18338232799224357656
9981440 41 18262525899870902763

>  <PUBCHEM_SHAPE_MULTIPOLES>  (1) 
426.72
16.32
4.52
0.69
1.12
1.13
-0.03
-21.49
-2.06
-5.1
-0.14
0.47
-0.03
0.01

>  <PUBCHEM_SHAPE_SELFOVERLAP>  (1) 
901.414

>  <PUBCHEM_SHAPE_VOLUME>  (1) 
240.8

>  <PUBCHEM_COORDINATE_TYPE>  (1) 
2
5
10

$$$$
