37875
     RDKit          3D

 32 36  0  0  0  0  0  0  0  0999 V2000
    0.0000   -2.7796    0.0004 O   0  0  0  0  0  0  0  0  0  0  0  0
   -5.6919   -0.7057    1.8345 O   0  0  0  0  0  0  0  0  0  0  0  0
    5.6946   -0.7100   -1.8315 O   0  0  0  0  0  0  0  0  0  0  0  0
   -6.5869    1.3747    0.2674 N   0  0  0  0  0  0  0  0  0  0  0  0
    6.5869    1.3743   -0.2681 N   0  0  0  0  0  0  0  0  0  0  0  0
   -6.8839    2.7189   -0.2470 C   0  0  0  0  0  0  0  0  0  0  0  0
   -7.0973    0.3350   -0.6372 C   0  0  0  0  0  0  0  0  0  0  0  0
    6.8829    2.7198    0.2435 C   0  0  0  0  0  0  0  0  0  0  0  0
    7.0958    0.3368    0.6399 C   0  0  0  0  0  0  0  0  0  0  0  0
   -8.3896    2.9224   -0.4218 C   0  0  0  0  0  0  0  0  0  0  0  0
   -8.6101    0.4605   -0.8245 C   0  0  0  0  0  0  0  0  0  0  0  0
    8.3883    2.9238    0.4203 C   0  0  0  0  0  0  0  0  0  0  0  0
    8.6083    0.4630    0.8295 C   0  0  0  0  0  0  0  0  0  0  0  0
   -8.9938    1.8498   -1.3209 C   0  0  0  0  0  0  0  0  0  0  0  0
    8.9910    1.8534    1.3231 C   0  0  0  0  0  0  0  0  0  0  0  0
   -5.1478    1.2123    0.4733 C   0  0  0  0  0  0  0  0  0  0  0  0
    5.1483    1.2113   -0.4760 C   0  0  0  0  0  0  0  0  0  0  0  0
   -4.8479   -0.1625    1.0915 C   0  0  0  0  0  0  0  0  0  0  0  0
    4.8494   -0.1650   -1.0914 C   0  0  0  0  0  0  0  0  0  0  0  0
   -3.5826   -0.8198    0.8064 C   0  0  0  0  0  0  0  0  0  0  0  0
    3.5836   -0.8217   -0.8067 C   0  0  0  0  0  0  0  0  0  0  0  0
    0.0003    0.1487   -0.0022 C   0  0  0  0  0  0  0  0  0  0  0  0
   -1.2190   -0.6812    0.2725 C   0  0  0  0  0  0  0  0  0  0  0  0
    1.2192   -0.6818   -0.2762 C   0  0  0  0  0  0  0  0  0  0  0  0
   -2.4431   -0.0573    0.5481 C   0  0  0  0  0  0  0  0  0  0  0  0
    2.4436   -0.0586   -0.5521 C   0  0  0  0  0  0  0  0  0  0  0  0
   -1.1533   -2.0774    0.2593 C   0  0  0  0  0  0  0  0  0  0  0  0
    1.1535   -2.0780   -0.2598 C   0  0  0  0  0  0  0  0  0  0  0  0
   -3.5084   -2.2109    0.7912 C   0  0  0  0  0  0  0  0  0  0  0  0
    3.5094   -2.2128   -0.7882 C   0  0  0  0  0  0  0  0  0  0  0  0
   -2.2952   -2.8408    0.5179 C   0  0  0  0  0  0  0  0  0  0  0  0
    2.2957   -2.8419   -0.5153 C   0  0  0  0  0  0  0  0  0  0  0  0
  1 27  1  0
  1 28  1  0
  2 18  2  0
  3 19  2  0
  4  6  1  0
  4  7  1  0
  4 16  1  0
  5  8  1  0
  5  9  1  0
  5 17  1  0
  6 10  1  0
  7 11  1  0
  8 12  1  0
  9 13  1  0
 10 14  1  0
 11 14  1  0
 12 15  1  0
 13 15  1  0
 16 18  1  0
 17 19  1  0
 18 20  1  0
 19 21  1  0
 20 25  1  0
 20 29  2  0
 21 26  2  0
 21 30  1  0
 22 23  1  0
 22 24  1  0
 23 25  2  0
 23 27  1  0
 24 26  1  0
 24 28  2  0
 27 31  2  0
 28 32  1  0
 29 31  1  0
 30 32  2  0
M  END
>  <PUBCHEM_COMPOUND_CID>  (1) 
37875

>  <PUBCHEM_CONFORMER_RMSD>  (1) 
1.2

>  <PUBCHEM_CONFORMER_DIVERSEORDER>  (1) 
1
36
27
29
3
33
8
28
21
2
26
30
19
24
11
35
32
20
37
7
15
16
23
22
13
6
31
25
14
10
18
4
5
34
12
9
17

>  <PUBCHEM_MMFF94_PARTIAL_CHARGES>  (1) 
32
1 -0.17
16 0.33
17 0.33
18 0.42
19 0.42
2 -0.57
20 0.09
21 0.09
22 0.29
23 -0.14
24 -0.14
25 -0.15
26 -0.15
27 0.08
28 0.08
29 -0.15
3 -0.57
30 -0.15
31 -0.15
32 -0.15
4 -0.81
5 -0.81
59 0.15
6 0.27
60 0.15
61 0.15
62 0.15
63 0.15
64 0.15
7 0.27
8 0.27
9 0.27

>  <PUBCHEM_EFFECTIVE_ROTOR_COUNT>  (1) 
8.8

>  <PUBCHEM_PHARMACOPHORE_FEATURES>  (1) 
10
1 1 acceptor
1 2 acceptor
1 3 acceptor
1 4 cation
1 5 cation
6 1 22 23 24 27 28 rings
6 20 23 25 27 29 31 rings
6 21 24 26 28 30 32 rings
6 4 6 7 10 11 14 rings
6 5 8 9 12 13 15 rings

>  <PUBCHEM_HEAVY_ATOM_COUNT>  (1) 
32

>  <PUBCHEM_ATOM_DEF_STEREO_COUNT>  (1) 
0

>  <PUBCHEM_ATOM_UDEF_STEREO_COUNT>  (1) 
0

>  <PUBCHEM_BOND_DEF_STEREO_COUNT>  (1) 
0

>  <PUBCHEM_BOND_UDEF_STEREO_COUNT>  (1) 
0

>  <PUBCHEM_ISOTOPIC_ATOM_COUNT>  (1) 
0

>  <PUBCHEM_COMPONENT_COUNT>  (1) 
1

>  <PUBCHEM_CACTVS_TAUTO_COUNT>  (1) 
3

>  <PUBCHEM_CONFORMER_ID>  (1) 
000093F300000001

>  <PUBCHEM_MMFF94_ENERGY>  (1) 
71.4263

>  <PUBCHEM_FEATURE_SELFOVERLAP>  (1) 
50.804

>  <PUBCHEM_SHAPE_FINGERPRINT>  (1) 
10 15 18335147548354187754
10076449 9 11312055465428017645
10280341 67 18041272155189624685
10835480 77 18413393132986278401
11135609 187 18412824673355252951
11409948 41 16056335917125668588
11411753 3 18265917846072433934
11456790 92 14490192700217634805
11621639 307 18120927318973317301
117089 54 10738098271675540752
12013929 2 18411703172101108574
12013929 27 11239462405729844992
12522641 68 18131072683996827294
12539745 222 11530475615772521463
12838862 33 18410566292865309829
13248334 5 18195810661498675206
13947934 56 18260265270227293171
14117953 113 18411427211482994772
14344974 52 18412260650070983749
14444916 359 8502654813975681713
15274700 208 17488726996118218744
15289351 153 18202004288296517370
15320295 198 18200597028987619992
15350500 55 18408886239108455388
15510800 12 10015860994199351773
15684393 108 12679461980489310216
15840311 113 18334292034045623474
17134984 74 11599731662804595292
195137 95 18260261936709776236
2026 5 11098114671214845520
20511986 3 18410858758663785671
20554085 129 18131059438406902138
21033648 29 18113904848920267007
21150785 3 16200432468209310357
21585481 151 8430308052922230309
21585482 111 18338238288726383532
21585482 310 7853576829042035736
21647283 7 17822300148866266608
21792934 111 18114178601983174742
21867018 265 17346309437004956413
22864921 267 16805877404331938258
23516275 100 18409446955711811461
23569943 247 9941881428868426900
24771293 8 18407759223201595853
2835820 25 15719659971547281109
2851757 15 18410294713503915650
3504750 166 11602829025650929267
3918712 181 18336823087969064993
393628 179 18334289852039103285
4169191 19 18272940414153773081
4403749 210 18270119140142004314
44880568 143 17559686031615496665
5104073 3 18335996319675945682
54039377 194 10231753405649318201
5470011 282 11815900063671448552
54728670 133 15575254529170443023
5937810 71 17988649533105794153
636775 72 18336264562085341389
9896288 288 11242510221633186943
9995097 26 9871748005768873232
999808 66 8862943862275095185

>  <PUBCHEM_SHAPE_MULTIPOLES>  (1) 
630.97
31.16
3.48
1.18
0.04
0.11
0
34.47
-0.01
-0.01
0
0
-0.06
3.39

>  <PUBCHEM_SHAPE_SELFOVERLAP>  (1) 
1361.603

>  <PUBCHEM_SHAPE_VOLUME>  (1) 
345.1

>  <PUBCHEM_COORDINATE_TYPE>  (1) 
2
5
10

$$$$
