37881
     RDKit          3D

 16 17  0  0  0  0  0  0  0  0999 V2000
   -0.7120    0.1582   -2.4159 O   0  0  0  0  0  0  0  0  0  0  0  0
    3.2849   -2.4142    0.3916 O   0  0  0  0  0  0  0  0  0  0  0  0
    3.2828    2.3507    0.6807 O   0  0  0  0  0  0  0  0  0  0  0  0
    0.7736    0.0352   -0.5843 C   0  0  0  0  0  0  0  0  0  0  0  0
   -1.7667    0.0197   -0.3533 C   0  0  0  0  0  0  0  0  0  0  0  0
   -0.5757    0.0712   -1.1858 C   0  0  0  0  0  0  0  0  0  0  0  0
    1.3884    1.2244   -0.2363 C   0  0  0  0  0  0  0  0  0  0  0  0
    1.3896   -1.1870   -0.3829 C   0  0  0  0  0  0  0  0  0  0  0  0
    2.6631   -1.2210    0.1852 C   0  0  0  0  0  0  0  0  0  0  0  0
    2.6618    1.1906    0.3320 C   0  0  0  0  0  0  0  0  0  0  0  0
   -1.6451   -0.0778    1.0329 C   0  0  0  0  0  0  0  0  0  0  0  0
   -3.0311    0.0682   -0.9407 C   0  0  0  0  0  0  0  0  0  0  0  0
    3.2993   -0.0321    0.5428 C   0  0  0  0  0  0  0  0  0  0  0  0
   -2.7876   -0.1269    1.8316 C   0  0  0  0  0  0  0  0  0  0  0  0
   -4.1736    0.0191   -0.1418 C   0  0  0  0  0  0  0  0  0  0  0  0
   -4.0517   -0.0784    1.2443 C   0  0  0  0  0  0  0  0  0  0  0  0
  1  6  2  0
  2  9  1  0
  3 10  1  0
  4  6  1  0
  4  7  2  0
  4  8  1  0
  5  6  1  0
  5 11  2  0
  5 12  1  0
  7 10  1  0
  8  9  2  0
  9 13  1  0
 10 13  2  0
 11 14  1  0
 12 15  2  0
 14 16  2  0
 15 16  1  0
M  END
>  <PUBCHEM_COMPOUND_CID>  (1) 
37881

>  <PUBCHEM_CONFORMER_RMSD>  (1) 
0.6

>  <PUBCHEM_CONFORMER_DIVERSEORDER>  (1) 
1

>  <PUBCHEM_MMFF94_PARTIAL_CHARGES>  (1) 
26
1 -0.57
10 0.08
11 -0.15
12 -0.15
13 -0.15
14 -0.15
15 -0.15
16 -0.15
17 0.15
18 0.15
19 0.15
2 -0.53
20 0.15
21 0.15
22 0.15
23 0.15
24 0.15
25 0.45
26 0.45
3 -0.53
4 0.09
5 0.09
6 0.4
7 -0.15
8 -0.15
9 0.08

>  <PUBCHEM_EFFECTIVE_ROTOR_COUNT>  (1) 
2

>  <PUBCHEM_PHARMACOPHORE_FEATURES>  (1) 
5
1 1 acceptor
1 2 donor
1 3 donor
6 4 7 8 9 10 13 rings
6 5 11 12 14 15 16 rings

>  <PUBCHEM_HEAVY_ATOM_COUNT>  (1) 
16

>  <PUBCHEM_ATOM_DEF_STEREO_COUNT>  (1) 
0

>  <PUBCHEM_ATOM_UDEF_STEREO_COUNT>  (1) 
0

>  <PUBCHEM_BOND_DEF_STEREO_COUNT>  (1) 
0

>  <PUBCHEM_BOND_UDEF_STEREO_COUNT>  (1) 
0

>  <PUBCHEM_ISOTOPIC_ATOM_COUNT>  (1) 
0

>  <PUBCHEM_COMPONENT_COUNT>  (1) 
1

>  <PUBCHEM_CACTVS_TAUTO_COUNT>  (1) 
5

>  <PUBCHEM_CONFORMER_ID>  (1) 
000093F900000001

>  <PUBCHEM_MMFF94_ENERGY>  (1) 
51.5626

>  <PUBCHEM_FEATURE_SELFOVERLAP>  (1) 
25.371

>  <PUBCHEM_SHAPE_FINGERPRINT>  (1) 
10465860 71 15430332303622507631
10498660 4 15338847443212963169
10618630 7 16370728123295973707
10751810 167 14201407070920417483
10871710 139 11805955070713266138
10980938 120 18131349726223655508
11471102 22 18408037399257787652
11640471 11 17632013173252343888
11715629 250 13326853297294036001
12202030 40 17531526477822972866
12236239 1 17632854235117185166
12251169 10 18272087184355943918
12346177 29 16805599317936983587
12390115 104 17835527398835291312
13296908 3 17458065962719157123
13538477 17 17131538544115077118
13583140 156 18270960271327196129
13764800 53 15841562894142999663
14252887 29 17748832924896433872
14289901 80 18409166649297286441
14386348 63 17530967968601978683
14739800 52 15840400727885823146
14787075 74 17051600943699055487
15219456 202 18113050541037953492
15375358 24 17313376859680512789
15669948 3 16486683783660859597
15775835 57 17489310823115913241
16752209 62 15141227803200209551
16945 1 18187933931551620964
17357990 137 17203333312198645272
17804303 29 16443071603785285765
1813 80 17844539799389997046
19049666 15 17751062627066438333
19107657 162 17385730209487843035
19107657 47 18343298137418779857
20279233 1 17749106703439391131
20281407 28 17022907813224482827
204376 136 18193837278670508608
20559304 39 17060621075184720682
20645477 70 18336533933062977287
20715346 28 17894348886622899775
20715895 44 17342110195824765121
21524375 3 16343712010352570653
23048698 100 18131068246777702921
23557571 272 16877935006580070332
23559900 14 16660918886136668390
31174 14 18335134276578104206
3286 77 18262239923773493258
4409770 3 15610791564938763831
458136 41 18262524809650348292
474 4 17985536986816046592
5902787 121 15647340796219782901
6049 1 17968089777191824732
77492 1 17632569465890015637
81228 2 16878780487824536101
9981440 41 15977195577934326152

>  <PUBCHEM_SHAPE_MULTIPOLES>  (1) 
311.66
7.34
1.53
1.52
2.56
0.22
0.2
1.72
1.79
-0.74
-0.21
-0.64
-0.24
1.92

>  <PUBCHEM_SHAPE_SELFOVERLAP>  (1) 
681.64

>  <PUBCHEM_SHAPE_VOLUME>  (1) 
169.1

>  <PUBCHEM_COORDINATE_TYPE>  (1) 
2
5
10

$$$$
