3788
     RDKit          3D

 18 20  0  0  1  0  0  0  0  0999 V2000
   -1.2956   -2.4467   -0.2973 O   0  0  0  0  0  0  0  0  0  0  0  0
   -1.0896    2.5304    0.1813 O   0  0  0  0  0  0  0  0  0  0  0  0
    0.7824   -1.4020   -0.1619 N   0  0  0  0  0  0  0  0  0  0  0  0
    0.2238    2.0595    0.1594 N   0  0  0  0  0  0  0  0  0  0  0  0
   -1.1112   -0.0172   -0.0073 C   0  0  0  0  0  0  0  0  0  0  0  0
    1.4242   -0.1084    0.0070 C   0  0  0  0  0  0  0  0  0  0  0  0
    0.1904    0.7707    0.0608 C   0  0  0  0  0  0  0  0  0  0  0  0
   -1.9251    0.4231   -1.2325 C   0  0  0  0  0  0  0  0  0  0  0  0
   -1.8746    0.1408    1.3158 C   0  0  0  0  0  0  0  0  0  0  0  0
   -0.6069   -1.4450   -0.1738 C   0  0  0  0  0  0  0  0  0  0  0  0
   -3.3526   -0.1220   -1.2413 C   0  0  0  0  0  0  0  0  0  0  0  0
   -3.3021   -0.4009    1.2605 C   0  0  0  0  0  0  0  0  0  0  0  0
    2.2186   -0.0401    1.3185 C   0  0  0  0  0  0  0  0  0  0  0  0
   -4.0738    0.1569    0.0713 C   0  0  0  0  0  0  0  0  0  0  0  0
    2.2256    0.1898   -1.2251 C   0  0  0  0  0  0  0  0  0  0  0  0
    3.6165   -0.6349    1.1493 C   0  0  0  0  0  0  0  0  0  0  0  0
    4.3874    0.0596    0.0236 C   0  0  0  0  0  0  0  0  0  0  0  0
    3.5627    0.2864   -1.2083 C   0  0  0  0  0  0  0  0  0  0  0  0
  1 10  2  0
  2  4  1  0
  3  6  1  0
  3 10  1  0
  4  7  2  0
  5  7  1  0
  5  8  1  0
  5  9  1  0
  5 10  1  0
  6  7  1  0
  6 13  1  0
  6 15  1  0
  8 11  1  0
  9 12  1  0
 11 14  1  0
 12 14  1  0
 13 16  1  0
 15 18  2  0
 16 17  1  0
 17 18  1  0
M  END
>  <PUBCHEM_COMPOUND_CID>  (1) 
3788

>  <PUBCHEM_CONFORMER_RMSD>  (1) 
0.6

>  <PUBCHEM_CONFORMER_DIVERSEORDER>  (1) 
1
2

>  <PUBCHEM_MMFF94_PARTIAL_CHARGES>  (1) 
15
1 -0.57
10 0.57
15 -0.29
17 0.14
18 -0.29
2 -0.34
29 0.37
3 -0.73
32 0.15
37 0.15
38 0.4
4 -0.51
5 0.12
6 0.5
7 0.33

>  <PUBCHEM_EFFECTIVE_ROTOR_COUNT>  (1) 
1.8

>  <PUBCHEM_PHARMACOPHORE_FEATURES>  (1) 
7
1 1 acceptor
1 2 anion
1 3 donor
1 4 acceptor
5 3 5 6 7 10 rings
6 5 8 9 11 12 14 rings
6 6 13 15 16 17 18 rings

>  <PUBCHEM_HEAVY_ATOM_COUNT>  (1) 
18

>  <PUBCHEM_ATOM_DEF_STEREO_COUNT>  (1) 
0

>  <PUBCHEM_ATOM_UDEF_STEREO_COUNT>  (1) 
1

>  <PUBCHEM_BOND_DEF_STEREO_COUNT>  (1) 
0

>  <PUBCHEM_BOND_UDEF_STEREO_COUNT>  (1) 
1

>  <PUBCHEM_ISOTOPIC_ATOM_COUNT>  (1) 
0

>  <PUBCHEM_COMPONENT_COUNT>  (1) 
1

>  <PUBCHEM_CACTVS_TAUTO_COUNT>  (1) 
4

>  <PUBCHEM_CONFORMER_ID>  (1) 
00000ECC00000001

>  <PUBCHEM_MMFF94_ENERGY>  (1) 
37.121

>  <PUBCHEM_FEATURE_SELFOVERLAP>  (1) 
35.528

>  <PUBCHEM_SHAPE_FINGERPRINT>  (1) 
10863032 1 16443344269282879853
11132069 177 17917991672143471097
11370993 70 16008748021811831370
11578080 2 17751894017072157564
12236239 1 17894631453127861022
12403814 3 17676202494201540839
12491281 212 16128389159311925347
13140716 1 18268711795243230722
13172582 1 18411699910975823163
13538477 17 18260266391007372602
13581323 91 18408038507475511642
13583140 156 17313385664120856944
13675066 3 17894343393723718634
13760787 19 17095528404428934427
14115302 16 18260267468896237262
14289901 80 15482664714808215278
14993402 34 18412826906241751031
15309172 13 18411706478118248171
15375462 189 18114184184960767626
16752209 62 18337102367715814100
16945 1 18413389838730440526
18186145 218 17489303070805204867
19026448 4 16008748008895319239
200 152 17821446859107077384
20028762 73 17914339224115300263
20510252 161 18200877271055125656
20645476 183 17894917377153126998
21501502 16 18051413164872949047
2334 1 17980478193534110582
23402539 116 18272362062347121884
23493267 7 17676765375309001529
23557571 272 17988928843202312896
23559900 14 16878213178758468202
2748010 2 18053096508447995715
296302 2 17632293518905544844
3286 77 18262796401896670319
4175511 318 18040152928848848743
465052 167 18042421273383298443
474 4 17274246374830244480
5104073 3 16298385760057867096
53812653 8 18336833004641719852
69090 78 16128656340674196687
74978 22 18268428108305575754
77492 1 17894911828381979814
81228 2 18130238059770074784
9709674 26 16298393452301577178

>  <PUBCHEM_SHAPE_MULTIPOLES>  (1) 
348.73
6.91
1.61
1.34
2.08
0.19
0.03
-0.29
0.03
-0.5
0.01
-0.03
-0.02
-0.27

>  <PUBCHEM_SHAPE_SELFOVERLAP>  (1) 
745.795

>  <PUBCHEM_SHAPE_VOLUME>  (1) 
191.7

>  <PUBCHEM_COORDINATE_TYPE>  (1) 
2
5
10

$$$$
