37880
     RDKit          3D

 21 25  0  0  0  0  0  0  0  0999 V2000
   -4.2217   -1.9880    0.0004 O   0  0  0  0  0  0  0  0  0  0  0  0
    0.4958   -0.1345   -0.0002 C   0  0  0  0  0  0  0  0  0  0  0  0
    1.9115    0.0151   -0.0001 C   0  0  0  0  0  0  0  0  0  0  0  0
   -0.3596    0.9995   -0.0001 C   0  0  0  0  0  0  0  0  0  0  0  0
   -0.0512   -1.4358   -0.0001 C   0  0  0  0  0  0  0  0  0  0  0  0
   -1.7855    0.8112   -0.0002 C   0  0  0  0  0  0  0  0  0  0  0  0
    2.4896    1.3028    0.0000 C   0  0  0  0  0  0  0  0  0  0  0  0
    2.7547   -1.1228    0.0001 C   0  0  0  0  0  0  0  0  0  0  0  0
   -2.3073   -0.5063   -0.0003 C   0  0  0  0  0  0  0  0  0  0  0  0
   -1.4388   -1.6026   -0.0003 C   0  0  0  0  0  0  0  0  0  0  0  0
    0.2643    2.2681    0.0000 C   0  0  0  0  0  0  0  0  0  0  0  0
    0.7973   -2.5513    0.0001 C   0  0  0  0  0  0  0  0  0  0  0  0
    1.6534    2.4187    0.0000 C   0  0  0  0  0  0  0  0  0  0  0  0
    2.1822   -2.3977    0.0001 C   0  0  0  0  0  0  0  0  0  0  0  0
    3.8858    1.4413    0.0001 C   0  0  0  0  0  0  0  0  0  0  0  0
    4.1475   -0.9565    0.0001 C   0  0  0  0  0  0  0  0  0  0  0  0
   -2.7302    1.8691    0.0001 C   0  0  0  0  0  0  0  0  0  0  0  0
   -3.6962   -0.7254   -0.0002 C   0  0  0  0  0  0  0  0  0  0  0  0
    4.7085    0.3180    0.0001 C   0  0  0  0  0  0  0  0  0  0  0  0
   -4.1084    1.6379    0.0003 C   0  0  0  0  0  0  0  0  0  0  0  0
   -4.5917    0.3393    0.0001 C   0  0  0  0  0  0  0  0  0  0  0  0
  1 18  1  0
  2  3  2  0
  2  4  1  0
  2  5  1  0
  3  7  1  0
  3  8  1  0
  4  6  1  0
  4 11  2  0
  5 10  2  0
  5 12  1  0
  6  9  2  0
  6 17  1  0
  7 13  2  0
  7 15  1  0
  8 14  1  0
  8 16  2  0
  9 10  1  0
  9 18  1  0
 11 13  1  0
 12 14  2  0
 15 19  2  0
 16 19  1  0
 17 20  2  0
 18 21  2  0
 20 21  1  0
M  END
>  <PUBCHEM_COMPOUND_CID>  (1) 
37880

>  <PUBCHEM_CONFORMER_RMSD>  (1) 
0.6

>  <PUBCHEM_CONFORMER_DIVERSEORDER>  (1) 
1

>  <PUBCHEM_MMFF94_PARTIAL_CHARGES>  (1) 
25
1 -0.53
10 -0.15
11 -0.15
12 -0.15
13 -0.15
14 -0.15
15 -0.15
16 -0.15
17 -0.15
18 0.08
19 -0.15
20 -0.15
21 -0.15
22 0.15
23 0.15
24 0.15
25 0.15
26 0.15
27 0.15
28 0.15
29 0.15
30 0.15
31 0.15
32 0.15
33 0.45

>  <PUBCHEM_EFFECTIVE_ROTOR_COUNT>  (1) 
0

>  <PUBCHEM_PHARMACOPHORE_FEATURES>  (1) 
6
1 1 donor
6 2 3 4 7 11 13 rings
6 2 3 5 8 12 14 rings
6 2 4 5 6 9 10 rings
6 3 7 8 15 16 19 rings
6 6 9 17 18 20 21 rings

>  <PUBCHEM_HEAVY_ATOM_COUNT>  (1) 
21

>  <PUBCHEM_ATOM_DEF_STEREO_COUNT>  (1) 
0

>  <PUBCHEM_ATOM_UDEF_STEREO_COUNT>  (1) 
0

>  <PUBCHEM_BOND_DEF_STEREO_COUNT>  (1) 
0

>  <PUBCHEM_BOND_UDEF_STEREO_COUNT>  (1) 
0

>  <PUBCHEM_ISOTOPIC_ATOM_COUNT>  (1) 
0

>  <PUBCHEM_COMPONENT_COUNT>  (1) 
1

>  <PUBCHEM_CACTVS_TAUTO_COUNT>  (1) 
3

>  <PUBCHEM_CONFORMER_ID>  (1) 
000093F800000001

>  <PUBCHEM_MMFF94_ENERGY>  (1) 
80.658

>  <PUBCHEM_FEATURE_SELFOVERLAP>  (1) 
30.6

>  <PUBCHEM_SHAPE_FINGERPRINT>  (1) 
10062212 137 18411691089102629483
10411042 1 17329991296463114799
10608611 8 18409165481039762613
10616163 171 18411702110220936599
10863032 1 18411982425192175081
10967382 1 18410856521259403492
11471102 20 18410852144455652924
11578080 2 16880182309035651494
12011746 2 18410576171595773260
12236239 1 17775003466907648561
12403259 226 18339075003530296889
12838862 33 18339059554369422368
13132413 78 18413107242793905949
13140716 1 18338791213539418050
138480 1 18050568448138709474
13862211 1 18410288095439327898
14178342 30 17907568139368224536
14790565 3 18337116782132988044
15196674 1 18410575089227071556
15442244 35 18267585693646972257
15536298 74 18342739593990897934
1601671 61 18410575063547087968
16945 1 18266741478969771110
17492 89 18411700980671606567
1813 80 17167867443426411548
19591789 44 18411136982365369478
200 152 18131346419383544373
20028762 73 18057602260039696343
20691752 17 17675926473495620595
20905425 154 18196373619950976806
21267235 1 18411145722676869654
21421861 104 17753046099003989482
221490 88 18408892849232156323
2334 1 18410855464470614852
23366157 5 18041283141140538434
23402539 116 18342731923422063038
23463225 33 18409729534530708148
23559900 14 18197212547376256270
2748010 2 18410858780607347606
335352 9 18266740186179353684
34934 24 18338793416530527959
350125 39 18410859897452052729
3545911 37 18410575067979283293
3680242 22 18190741934104557978
4214541 1 18410856542787279813
4280585 95 17623580748387017534
474 4 18040439909910225252
5104073 3 18410573980867040802
6138700 20 18338239250677192862
7364860 26 18340768156567470094
9709674 26 18410299115982738923
9981440 41 17327736704831010512

>  <PUBCHEM_SHAPE_MULTIPOLES>  (1) 
426.3
8.47
2.81
0.61
2.24
0.25
0
-0.51
0
-0.31
0
-0.02
-0.01
0

>  <PUBCHEM_SHAPE_SELFOVERLAP>  (1) 
1005.525

>  <PUBCHEM_SHAPE_VOLUME>  (1) 
215.6

>  <PUBCHEM_COORDINATE_TYPE>  (1) 
2
5
10

$$$$
