37909
     RDKit          3D

 19 18  0  0  0  0  0  0  0  0999 V2000
    0.0477   -2.0326    0.7934 O   0  0  0  0  0  0  0  0  0  0  0  0
    4.2855   -0.6446   -0.3890 N   0  0  0  0  0  0  0  0  0  0  0  0
    3.6210    0.6514   -0.6602 C   0  0  0  0  0  0  0  0  0  0  0  0
    3.3144    1.3811    0.6417 C   0  0  0  0  0  0  0  0  0  0  0  0
    2.5763    2.7175    0.4994 C   0  0  0  0  0  0  0  0  0  0  0  0
    1.2296    2.6606   -0.2281 C   0  0  0  0  0  0  0  0  0  0  0  0
    0.2352    1.6854    0.4074 C   0  0  0  0  0  0  0  0  0  0  0  0
   -1.1194    1.7371   -0.3043 C   0  0  0  0  0  0  0  0  0  0  0  0
   -2.1646    0.7997    0.3073 C   0  0  0  0  0  0  0  0  0  0  0  0
    5.5848   -0.4584    0.3971 C   0  0  0  0  0  0  0  0  0  0  0  0
    4.5793   -1.4111   -1.6799 C   0  0  0  0  0  0  0  0  0  0  0  0
   -3.5110    0.8331   -0.4193 C   0  0  0  0  0  0  0  0  0  0  0  0
    3.4259   -1.4938    0.4146 C   0  0  0  0  0  0  0  0  0  0  0  0
   -4.5378   -0.0640    0.2756 C   0  0  0  0  0  0  0  0  0  0  0  0
   -5.8955   -0.0025   -0.4263 C   0  0  0  0  0  0  0  0  0  0  0  0
    2.2403   -1.8596   -0.0888 C   0  0  0  0  0  0  0  0  0  0  0  0
   -6.9120   -0.9240    0.2474 C   0  0  0  0  0  0  0  0  0  0  0  0
    1.2726   -2.7352    0.6387 C   0  0  0  0  0  0  0  0  0  0  0  0
   -8.2721   -0.8402   -0.4269 C   0  0  0  0  0  0  0  0  0  0  0  0
  1 18  1  0
  2  3  1  0
  2 10  1  0
  2 11  1  0
  2 13  1  0
  3  4  1  0
  4  5  1  0
  5  6  1  0
  6  7  1  0
  7  8  1  0
  8  9  1  0
  9 12  1  0
 12 14  1  0
 13 16  2  0
 14 15  1  0
 15 17  1  0
 16 18  1  0
 17 19  1  0
M  CHG  1   2   1
M  END
>  <PUBCHEM_COMPOUND_CID>  (1) 
37909

>  <PUBCHEM_CONFORMER_RMSD>  (1) 
1.2

>  <PUBCHEM_CONFORMER_DIVERSEORDER>  (1) 
1
58
54
55
39
14
41
10
95
29
98
11
66
115
2
30
76
102
34
113
91
69
27
23
32
21
74
90
19
16
59
89
118
94
31
49
93
79
92
46
96
4
71
47
103
18
61
51
112
25
108
52
116
100
12
38
101
56
65
114
9
6
44
7
106
20
64
70
81
17
43
24
87
57
80
107
50
37
60
97
35
33
110
105
86
62
82
26
45
88
75
53
67
48
13
36
109
15
42
104
72
28
8
63
3
73
5
22
83
85
40
117
78
111
99
77
84
68

>  <PUBCHEM_MMFF94_PARTIAL_CHARGES>  (1) 
11
1 -0.68
10 0.5
11 0.5
13 0.21
16 -0.29
18 0.42
2 -0.87
3 0.5
42 0.15
47 0.15
55 0.4

>  <PUBCHEM_EFFECTIVE_ROTOR_COUNT>  (1) 
13

>  <PUBCHEM_PHARMACOPHORE_FEATURES>  (1) 
4
1 1 acceptor
1 1 donor
1 19 hydrophobe
1 2 cation

>  <PUBCHEM_HEAVY_ATOM_COUNT>  (1) 
19

>  <PUBCHEM_ATOM_DEF_STEREO_COUNT>  (1) 
0

>  <PUBCHEM_ATOM_UDEF_STEREO_COUNT>  (1) 
0

>  <PUBCHEM_BOND_DEF_STEREO_COUNT>  (1) 
0

>  <PUBCHEM_BOND_UDEF_STEREO_COUNT>  (1) 
1

>  <PUBCHEM_ISOTOPIC_ATOM_COUNT>  (1) 
0

>  <PUBCHEM_COMPONENT_COUNT>  (1) 
1

>  <PUBCHEM_CACTVS_TAUTO_COUNT>  (1) 
1

>  <PUBCHEM_CONFORMER_ID>  (1) 
0000941500000001

>  <PUBCHEM_MMFF94_ENERGY>  (1) 
26.8346

>  <PUBCHEM_FEATURE_SELFOVERLAP>  (1) 
20.297

>  <PUBCHEM_SHAPE_FINGERPRINT>  (1) 
10316853 100 18334295404956699539
108634 29 18337685126781383446
12596602 18 17489872618002648809
12838863 1 18262227838274002266
13402501 40 18333452053467412283
13464513 79 18343582915610365412
13533116 47 18201720699748199089
14251740 57 17989214706791107558
15110567 62 18407759222869032883
17492 54 18041861566245918036
20028762 73 18273496771100682511
20397935 70 18131353028921715485
20645477 70 18334572473007112728
21197605 99 18197217155501683527
23559900 14 18261671601760392681
2871803 45 18336548222693236980
338550 245 18190743235701200863
42630746 31 18411978096229306689
46194498 28 17749106737878927085
465052 167 18202005425566448309
484989 97 18189069727163964162
5312625 73 18408039615841006459
53794403 172 18117282660178173525
59755656 215 18114176441762311161
6025842 7 18265617756918270892

>  <PUBCHEM_SHAPE_MULTIPOLES>  (1) 
380.16
17.2
3
0.95
38.61
0.4
0.21
-7.32
2.57
-3.09
-0.4
-0.8
-0.25
0.58

>  <PUBCHEM_SHAPE_SELFOVERLAP>  (1) 
697.065

>  <PUBCHEM_SHAPE_VOLUME>  (1) 
243.7

>  <PUBCHEM_COORDINATE_TYPE>  (1) 
2
5
10

$$$$
