37901
     RDKit          3D

 28 30  0  0  0  0  0  0  0  0999 V2000
    6.5235   -0.9318    2.5475 Cl  0  0  0  0  0  0  0  0  0  0  0  0
   -9.4622   -1.8107    0.5295 O   0  0  0  0  0  0  0  0  0  0  0  0
   -3.8239    1.1573   -0.0568 O   0  0  0  0  0  0  0  0  0  0  0  0
    4.8812    1.2950    1.0515 O   0  0  0  0  0  0  0  0  0  0  0  0
   -7.2015   -0.2951   -0.3031 N   0  0  0  0  0  0  0  0  0  0  0  0
   -2.5515    0.5937   -0.2076 N   0  0  0  0  0  0  0  0  0  0  0  0
    3.7631   -0.1662   -0.4123 N   0  0  0  0  0  0  0  0  0  0  0  0
    8.1462   -1.4440    0.6104 N   0  0  0  0  0  0  0  0  0  0  0  0
   -8.5454    0.2970   -0.2475 C   0  0  0  0  0  0  0  0  0  0  0  0
   -7.0825   -1.3684    0.6934 C   0  0  0  0  0  0  0  0  0  0  0  0
   -6.1761    0.7247   -0.0923 C   0  0  0  0  0  0  0  0  0  0  0  0
   -9.5984   -0.7874   -0.4573 C   0  0  0  0  0  0  0  0  0  0  0  0
   -8.1697   -2.4138    0.4603 C   0  0  0  0  0  0  0  0  0  0  0  0
   -4.7863    0.1296   -0.2527 C   0  0  0  0  0  0  0  0  0  0  0  0
   -1.6171    1.4820   -0.0407 C   0  0  0  0  0  0  0  0  0  0  0  0
   -0.1969    1.0469   -0.1379 C   0  0  0  0  0  0  0  0  0  0  0  0
    0.7525    1.7087    0.6102 C   0  0  0  0  0  0  0  0  0  0  0  0
    0.1191   -0.0023   -0.9736 C   0  0  0  0  0  0  0  0  0  0  0  0
    2.4321    0.2420   -0.3200 C   0  0  0  0  0  0  0  0  0  0  0  0
    2.0833    1.3012    0.5180 C   0  0  0  0  0  0  0  0  0  0  0  0
    1.4499   -0.4098   -1.0657 C   0  0  0  0  0  0  0  0  0  0  0  0
   -1.9017    2.9401    0.2616 C   0  0  0  0  0  0  0  0  0  0  0  0
    4.8759    0.3632    0.2544 C   0  0  0  0  0  0  0  0  0  0  0  0
    6.1785   -0.2722   -0.0762 C   0  0  0  0  0  0  0  0  0  0  0  0
    6.5946   -0.2543   -1.3874 C   0  0  0  0  0  0  0  0  0  0  0  0
    6.9571   -0.8615    0.8835 C   0  0  0  0  0  0  0  0  0  0  0  0
    7.8126   -0.8437   -1.7077 C   0  0  0  0  0  0  0  0  0  0  0  0
    8.5439   -1.4200   -0.6815 C   0  0  0  0  0  0  0  0  0  0  0  0
  1 26  1  0
  2 12  1  0
  2 13  1  0
  3  6  1  0
  3 14  1  0
  4 23  2  0
  5  9  1  0
  5 10  1  0
  5 11  1  0
  6 15  2  0
  7 19  1  0
  7 23  1  0
  8 26  2  0
  8 28  1  0
  9 12  1  0
 10 13  1  0
 11 14  1  0
 15 16  1  0
 15 22  1  0
 16 17  2  0
 16 18  1  0
 17 20  1  0
 18 21  2  0
 19 20  2  0
 19 21  1  0
 23 24  1  0
 24 25  2  0
 24 26  1  0
 25 27  1  0
 27 28  2  0
M  END
>  <PUBCHEM_COMPOUND_CID>  (1) 
37901

>  <PUBCHEM_CONFORMER_RMSD>  (1) 
1

>  <PUBCHEM_CONFORMER_DIVERSEORDER>  (1) 
1
20
50
44
27
39
19
11
71
51
64
45
57
43
31
18
34
4
41
75
56
66
55
65
30
47
67
74
52
61
21
17
2
59
72
63
22
58
73
53
14
40
25
76
60
68
36
9
16
26
42
54
8
46
62
37
7
10
28
35
48
29
32
70
3
15
5
49
6
38
24
12
33
69
13
23

>  <PUBCHEM_MMFF94_PARTIAL_CHARGES>  (1) 
36
1 -0.18
10 0.27
11 0.27
12 0.28
13 0.28
14 0.28
15 0.3
16 0.09
17 -0.15
18 -0.15
19 0.12
2 -0.56
20 -0.15
21 -0.15
22 0.06
23 0.54
24 0.09
25 -0.15
26 0.49
27 -0.15
28 0.16
3 -0.22
4 -0.57
41 0.15
42 0.15
43 0.15
44 0.15
48 0.37
49 0.15
5 -0.81
50 0.15
51 0.15
6 -0.51
7 -0.55
8 -0.62
9 0.27

>  <PUBCHEM_EFFECTIVE_ROTOR_COUNT>  (1) 
9.2

>  <PUBCHEM_PHARMACOPHORE_FEATURES>  (1) 
9
1 2 acceptor
1 4 acceptor
1 5 cation
1 6 acceptor
1 7 donor
1 8 acceptor
6 16 17 18 19 20 21 rings
6 2 5 9 10 12 13 rings
6 8 24 25 26 27 28 rings

>  <PUBCHEM_HEAVY_ATOM_COUNT>  (1) 
28

>  <PUBCHEM_ATOM_DEF_STEREO_COUNT>  (1) 
0

>  <PUBCHEM_ATOM_UDEF_STEREO_COUNT>  (1) 
0

>  <PUBCHEM_BOND_DEF_STEREO_COUNT>  (1) 
0

>  <PUBCHEM_BOND_UDEF_STEREO_COUNT>  (1) 
1

>  <PUBCHEM_ISOTOPIC_ATOM_COUNT>  (1) 
0

>  <PUBCHEM_COMPONENT_COUNT>  (1) 
1

>  <PUBCHEM_CACTVS_TAUTO_COUNT>  (1) 
3

>  <PUBCHEM_CONFORMER_ID>  (1) 
0000940D00000001

>  <PUBCHEM_MMFF94_ENERGY>  (1) 
79.8849

>  <PUBCHEM_FEATURE_SELFOVERLAP>  (1) 
45.672

>  <PUBCHEM_SHAPE_FINGERPRINT>  (1) 
10162869 55 17095526202239300622
10299344 5 17821446850374841239
10533779 47 16558762199616310415
10625338 86 13398637126402104355
106641 1 17775280569475737888
11135609 127 11026098884240681854
11135609 99 18340490066763636367
11135926 11 17846208935234088031
11386260 185 14490481910462289318
11638347 137 16774080657126814742
12539745 222 17846222120916003441
12758862 56 18340763832416293747
13553643 46 14045743708029195867
14202775 3 18341619158169732022
14251757 52 11240001161081791747
14344974 52 11891341976359453287
15183329 4 15574710305469278633
15198563 99 13984936269669446622
15247644 1 18260266314242177266
15461852 350 17676205754472232213
15510794 2 18409447003340300008
155225 1 9223236244061058727
15690457 1 18114178623289400994
1754908 1 16272204215236939767
1754911 235 14490191618091447887
1818759 1 18408326588170134107
20105231 36 17988649567291076014
20505436 4 10159697967532823725
21150785 3 16298106484124880892
21267235 1 18272654540824745100
21781051 124 18342746230148153566
21792934 111 17203603770305115704
22224240 67 16272205293331325029
232437 2 18334859425084659159
23569917 315 18268154159225800982
23576562 1 14201978890123996135
246663 6 18343304760036732861
249057 3 15140968382859393007
3178227 256 17418374713737205428
3383291 50 18273496788744800975
3633792 109 14129063599538044004
3711267 37 9295287283235679175
54039377 194 18335424582376776047
5470011 282 16660368099013606143
5758199 1 14045743729608993885
5937810 71 12396563119800549063
59682541 35 17988637510810999360
636775 72 10231766583152794835
636775 8 18410863152451629582
9953998 17 15841548588060247597

>  <PUBCHEM_SHAPE_MULTIPOLES>  (1) 
540.56
34.6
2
1.31
38.43
0.4
-0.4
-24.76
-0.38
2.48
-0.47
-3.41
-0.41
0.76

>  <PUBCHEM_SHAPE_SELFOVERLAP>  (1) 
1131.532

>  <PUBCHEM_SHAPE_VOLUME>  (1) 
306.3

>  <PUBCHEM_COORDINATE_TYPE>  (1) 
2
5
10

$$$$
