37910
     RDKit          3D

 25 26  0  0  1  0  0  0  0  0999 V2000
    3.5814    0.3240    0.3842 O   0  0  0  0  0  0  0  0  0  0  0  0
    5.1027   -1.9330    1.6118 O   0  0  0  0  0  0  0  0  0  0  0  0
   -0.5460   -1.2105   -1.1905 O   0  0  0  0  0  0  0  0  0  0  0  0
   -5.6936    1.5350    1.3221 O   0  0  0  0  0  0  0  0  0  0  0  0
    1.6967   -2.2400    0.1921 N   0  0  0  0  0  0  0  0  0  0  0  0
   -6.6164   -0.4450    0.6245 N   0  0  0  0  0  0  0  0  0  0  0  0
    3.6841   -1.7505    1.5889 C   0  0  0  0  0  0  0  0  0  0  0  0
    3.1377   -2.4098    0.3203 C   0  0  0  0  0  0  0  0  0  0  0  0
    3.3849   -0.2552    1.6704 C   0  0  0  0  0  0  0  0  0  0  0  0
    1.2116   -2.8267   -1.0498 C   0  0  0  0  0  0  0  0  0  0  0  0
   -0.2856   -2.6080   -1.1980 C   0  0  0  0  0  0  0  0  0  0  0  0
    2.8012    1.4045    0.0703 C   0  0  0  0  0  0  0  0  0  0  0  0
    2.4368    1.6615   -1.2513 C   0  0  0  0  0  0  0  0  0  0  0  0
    2.3698    2.2527    1.0902 C   0  0  0  0  0  0  0  0  0  0  0  0
   -1.7651   -0.8118   -0.7079 C   0  0  0  0  0  0  0  0  0  0  0  0
    1.6413    2.7669   -1.5531 C   0  0  0  0  0  0  0  0  0  0  0  0
    2.8894    0.7646   -2.3558 C   0  0  0  0  0  0  0  0  0  0  0  0
    1.5742    3.3580    0.7885 C   0  0  0  0  0  0  0  0  0  0  0  0
    1.2100    3.6151   -0.5332 C   0  0  0  0  0  0  0  0  0  0  0  0
   -2.8742   -1.6478   -0.8380 C   0  0  0  0  0  0  0  0  0  0  0  0
   -1.8974    0.4311   -0.0885 C   0  0  0  0  0  0  0  0  0  0  0  0
   -4.2476    0.0019    0.2708 C   0  0  0  0  0  0  0  0  0  0  0  0
   -4.1154   -1.2410   -0.3487 C   0  0  0  0  0  0  0  0  0  0  0  0
   -3.1386    0.8379    0.4007 C   0  0  0  0  0  0  0  0  0  0  0  0
   -5.5421    0.4261    0.7802 C   0  0  0  0  0  0  0  0  0  0  0  0
  1  9  1  0
  1 12  1  0
  2  7  1  0
  3 11  1  0
  3 15  1  0
  4 25  2  0
  5  8  1  0
  5 10  1  0
  6 25  1  0
  7  8  1  0
  7  9  1  0
 10 11  1  0
 12 13  2  0
 12 14  1  0
 13 16  1  0
 13 17  1  0
 14 18  2  0
 15 20  2  0
 15 21  1  0
 16 19  2  0
 18 19  1  0
 20 23  1  0
 21 24  2  0
 22 23  2  0
 22 24  1  0
 22 25  1  0
M  END
>  <PUBCHEM_COMPOUND_CID>  (1) 
37910

>  <PUBCHEM_CONFORMER_RMSD>  (1) 
1

>  <PUBCHEM_CONFORMER_DIVERSEORDER>  (1) 
1
168
206
38
2
160
101
287
115
64
260
217
87
31
236
7
48
79
140
257
176
233
254
203
270
194
278
239
122
14
284
178
281
145
165
112
69
216
54
182
85
74
162
138
282
247
23
152
234
183
51
119
129
86
210
277
27
52
255
179
171
88
266
20
12
47
158
125
167
185
70
149
5
177
102
271
169
191
215
200
258
193
43
8
109
46
4
232
226
275
184
100
89
104
174
228
259
250
35
205
243
204
123
121
161
261
229
58
219
256
15
157
220
153
22
189
10
273
75
267
154
3
90
94
113
116
137
181
175
56
29
213
187
17
199
269
197
34
283
60
279
159
39
214
212
274
92
244
144
164
155
120
251
127
33
151
16
42
235
192
286
249
237
134
196
63
30
44
131
163
62
221
208
126
111
49
224
36
72
9
238
150
222
28
82
136
240
272
170
143
253
285
81
13
65
246
190
77
148
67
66
268
142
32
41
223
24
241
50
61
263
262
128
84
97
188
53
37
209
264
207
230
139
218
156
18
173
91
19
248
227
118
245
76
68
186
280
276
96
73
95
141
98
231
135
45
71
26
107
105
80
57
11
99
201
252
146
195
288
265
106
78
198
225
147
211
25
202
93
6
103
166
114
21
172
124
83
130
117
55
40
242
132
110
180
59
133
108

>  <PUBCHEM_MMFF94_PARTIAL_CHARGES>  (1) 
37
1 -0.36
10 0.27
11 0.28
12 0.08
13 -0.14
14 -0.15
15 0.08
16 -0.15
17 0.14
18 -0.15
19 -0.15
2 -0.68
20 -0.15
21 -0.15
22 0.09
23 -0.15
24 -0.15
25 0.54
3 -0.36
31 0.36
36 0.4
37 0.15
38 0.15
4 -0.57
42 0.15
43 0.15
44 0.15
45 0.15
46 0.15
47 0.15
48 0.37
49 0.37
5 -0.9
6 -0.8
7 0.28
8 0.27
9 0.28

>  <PUBCHEM_EFFECTIVE_ROTOR_COUNT>  (1) 
10

>  <PUBCHEM_PHARMACOPHORE_FEATURES>  (1) 
10
1 1 acceptor
1 2 acceptor
1 2 donor
1 3 acceptor
1 4 acceptor
1 5 cation
1 5 donor
1 6 donor
6 12 13 14 16 18 19 rings
6 15 20 21 22 23 24 rings

>  <PUBCHEM_HEAVY_ATOM_COUNT>  (1) 
25

>  <PUBCHEM_ATOM_DEF_STEREO_COUNT>  (1) 
0

>  <PUBCHEM_ATOM_UDEF_STEREO_COUNT>  (1) 
1

>  <PUBCHEM_BOND_DEF_STEREO_COUNT>  (1) 
0

>  <PUBCHEM_BOND_UDEF_STEREO_COUNT>  (1) 
0

>  <PUBCHEM_ISOTOPIC_ATOM_COUNT>  (1) 
0

>  <PUBCHEM_COMPONENT_COUNT>  (1) 
1

>  <PUBCHEM_CACTVS_TAUTO_COUNT>  (1) 
2

>  <PUBCHEM_CONFORMER_ID>  (1) 
0000941600000001

>  <PUBCHEM_MMFF94_ENERGY>  (1) 
73.6301

>  <PUBCHEM_FEATURE_SELFOVERLAP>  (1) 
50.748

>  <PUBCHEM_SHAPE_FINGERPRINT>  (1) 
10688039 33 17969215634439001412
11112662 9 13769639987390581846
12422481 6 18267583512120538913
12633257 1 18187078451450002979
13533116 47 18113900511456556571
13965767 371 18339348781899083684
14955137 171 18411985728576543822
151778 21 18189902087462084485
17980427 23 17988342841436623990
20465049 17 18193299557212052932
21049683 271 17700149703037237982
21421861 104 18409735045174650744
23558518 356 17762617695753273774
23559900 14 17560539334247557839
3680242 22 18342466924103482361
4409770 3 16109256222248688702
474 4 18411703192653045331
474144 1 18409177614006200476
5104073 3 18337410283639931755
513532 50 17775575234423680446
5283268 108 18265052431910393614
5312544 6 18049434044112108207
57091435 65 18336261327568051564
7064713 232 18059561495096304883
7097593 13 18265600151878024550
8509985 295 18412263926060314213

>  <PUBCHEM_SHAPE_MULTIPOLES>  (1) 
481.05
11.2
4.07
1.72
17.78
1.23
0.27
-0.75
-5.43
-4.29
0.43
-1.72
0.03
-2.29

>  <PUBCHEM_SHAPE_SELFOVERLAP>  (1) 
1001.707

>  <PUBCHEM_SHAPE_VOLUME>  (1) 
274.1

>  <PUBCHEM_COORDINATE_TYPE>  (1) 
2
5
10

$$$$
