37912
     RDKit          3D

 19 20  0  0  1  0  0  0  0  0999 V2000
    5.9917   -2.7296    0.4952 Cl  0  0  0  0  0  0  0  0  0  0  0  0
    4.0526    0.7672   -0.0722 N   0  0  0  0  0  0  0  0  0  0  0  0
   -1.4995    0.3102   -0.6298 N   0  0  0  0  0  0  0  0  0  0  0  0
   -2.0082   -0.0768    0.4486 N   0  0  0  0  0  0  0  0  0  0  0  0
    2.6539    0.6518   -0.2127 C   0  0  0  0  0  0  0  0  0  0  0  0
    4.9138   -0.3653   -0.3489 C   0  0  0  0  0  0  0  0  0  0  0  0
    4.6459    2.0156    0.3638 C   0  0  0  0  0  0  0  0  0  0  0  0
    2.0920   -0.5539   -0.6330 C   0  0  0  0  0  0  0  0  0  0  0  0
    1.8323    1.7434    0.0689 C   0  0  0  0  0  0  0  0  0  0  0  0
    4.9441   -1.3279    0.8279 C   0  0  0  0  0  0  0  0  0  0  0  0
    0.7089   -0.6678   -0.7721 C   0  0  0  0  0  0  0  0  0  0  0  0
    0.4490    1.6292   -0.0700 C   0  0  0  0  0  0  0  0  0  0  0  0
   -0.1058    0.4242   -0.4898 C   0  0  0  0  0  0  0  0  0  0  0  0
   -3.3951   -0.1901    0.3099 C   0  0  0  0  0  0  0  0  0  0  0  0
   -3.9575   -1.3954   -0.1107 C   0  0  0  0  0  0  0  0  0  0  0  0
   -4.2161    0.9019    0.5913 C   0  0  0  0  0  0  0  0  0  0  0  0
   -5.3408   -1.5086   -0.2499 C   0  0  0  0  0  0  0  0  0  0  0  0
   -5.5995    0.7886    0.4521 C   0  0  0  0  0  0  0  0  0  0  0  0
   -6.1617   -0.4167    0.0314 C   0  0  0  0  0  0  0  0  0  0  0  0
  1 10  1  0
  2  5  1  0
  2  6  1  0
  2  7  1  0
  3  4  2  0
  3 13  1  0
  4 14  1  0
  5  8  2  0
  5  9  1  0
  6 10  1  0
  8 11  1  0
  9 12  2  0
 11 13  2  0
 12 13  1  0
 14 15  2  0
 14 16  1  0
 15 17  1  0
 16 18  2  0
 17 19  2  0
 18 19  1  0
M  END
>  <PUBCHEM_COMPOUND_CID>  (1) 
37912

>  <PUBCHEM_CONFORMER_RMSD>  (1) 
0.8

>  <PUBCHEM_CONFORMER_DIVERSEORDER>  (1) 
1
8
6
3
7
4
2
5

>  <PUBCHEM_MMFF94_PARTIAL_CHARGES>  (1) 
28
1 -0.29
10 0.29
11 -0.15
12 -0.15
13 0.18
14 0.18
15 -0.15
16 -0.15
17 -0.15
18 -0.15
19 -0.15
2 -0.84
25 0.15
26 0.15
29 0.15
3 -0.18
30 0.15
31 0.15
32 0.15
33 0.15
34 0.15
35 0.15
4 -0.18
5 0.1
6 0.37
7 0.37
8 -0.15
9 -0.15

>  <PUBCHEM_EFFECTIVE_ROTOR_COUNT>  (1) 
5

>  <PUBCHEM_PHARMACOPHORE_FEATURES>  (1) 
3
1 2 cation
6 14 15 16 17 18 19 rings
6 5 8 9 11 12 13 rings

>  <PUBCHEM_HEAVY_ATOM_COUNT>  (1) 
19

>  <PUBCHEM_ATOM_DEF_STEREO_COUNT>  (1) 
0

>  <PUBCHEM_ATOM_UDEF_STEREO_COUNT>  (1) 
0

>  <PUBCHEM_BOND_DEF_STEREO_COUNT>  (1) 
0

>  <PUBCHEM_BOND_UDEF_STEREO_COUNT>  (1) 
0

>  <PUBCHEM_ISOTOPIC_ATOM_COUNT>  (1) 
0

>  <PUBCHEM_COMPONENT_COUNT>  (1) 
1

>  <PUBCHEM_CACTVS_TAUTO_COUNT>  (1) 
1

>  <PUBCHEM_CONFORMER_ID>  (1) 
0000941800000001

>  <PUBCHEM_MMFF94_ENERGY>  (1) 
62.8672

>  <PUBCHEM_FEATURE_SELFOVERLAP>  (1) 
15.223

>  <PUBCHEM_SHAPE_FINGERPRINT>  (1) 
11719270 70 17917992754591820535
12107183 9 17980487758801079201
12236239 1 18272933843022244341
12596602 18 18060133245822727666
12616971 3 17846489344568259244
13073987 5 18412265068669295233
13167823 11 18411135874606932291
13533116 47 18408040698193708394
13668630 136 16732707177451746587
13785724 45 17984430629358664270
13862211 1 18410855447285841310
13911852 28 18191863432050262466
14251764 18 18342736334601278688
14341114 176 18410016558784740753
15196674 1 18341897419639589757
15788980 27 18041000652582752749
17834072 33 18272934959508201421
1813 80 17385723612265284476
18222031 100 16805321102397046900
19489759 90 17846501426854490601
200 152 17988646333027291781
20028762 73 18343017770760845014
21130935 74 18412826901952630531
21267235 1 18340206290196293974
21637258 2 17531238423446936362
220451 1 18409458006692980399
23081809 10 18413111684175049461
23402539 116 18342174484275770253
23522609 53 18118999968613540812
23536379 177 18411420618053632065
23559900 14 18269267027968914489
23569943 247 17896314710487916187
26918003 58 18201722868795723929
29717793 49 16950284001042616070
3004659 81 18113901542248830826
314173 85 16732698363566899485
3472631 163 9294704529635968666
351380 180 18411702127548394921
3545911 37 18272657865957282309
4072396 5 17775286041026631164
4073 2 18116155652280129090
4214541 1 18342179977586440361
465052 167 18411984646392238118
5104073 3 18272657874067026867
542803 24 16559041501761172129
543368 44 9583511023815314747
559249 180 18410854331343307075
59755656 215 17313378985668654275
67856867 119 18198343055893959185
9965369 4 18412545379983960875
9971528 1 18040716999699336500

>  <PUBCHEM_SHAPE_MULTIPOLES>  (1) 
377.94
16.12
2.1
0.81
5.59
0.46
0.01
6.72
2.89
-3.11
0.31
-0.19
0.08
-0.82

>  <PUBCHEM_SHAPE_SELFOVERLAP>  (1) 
785.324

>  <PUBCHEM_SHAPE_VOLUME>  (1) 
216

>  <PUBCHEM_COORDINATE_TYPE>  (1) 
2
5
10

$$$$
