3791
     RDKit          3D

 18 19  0  0  1  0  0  0  0  0999 V2000
    2.6819   -2.3696    0.3979 O   0  0  0  0  0  0  0  0  0  0  0  0
    0.3996   -2.7737   -0.8615 O   0  0  0  0  0  0  0  0  0  0  0  0
   -4.2967    1.2379    0.4955 O   0  0  0  0  0  0  0  0  0  0  0  0
    1.6874   -1.3748    0.6227 C   0  0  0  0  0  0  0  0  0  0  0  0
    2.2239   -0.0253    0.2023 C   0  0  0  0  0  0  0  0  0  0  0  0
    0.3919   -1.7715   -0.1185 C   0  0  0  0  0  0  0  0  0  0  0  0
   -0.8244   -0.9902    0.0407 C   0  0  0  0  0  0  0  0  0  0  0  0
    2.9318    0.7366    1.1168 C   0  0  0  0  0  0  0  0  0  0  0  0
    1.9969    0.4215   -1.0887 C   0  0  0  0  0  0  0  0  0  0  0  0
   -1.0682   -0.3153    1.2367 C   0  0  0  0  0  0  0  0  0  0  0  0
   -1.7471   -0.9160   -1.0027 C   0  0  0  0  0  0  0  0  0  0  0  0
   -3.1578    0.5081    0.3459 C   0  0  0  0  0  0  0  0  0  0  0  0
   -2.2350    0.4337    1.3894 C   0  0  0  0  0  0  0  0  0  0  0  0
   -2.9138   -0.1669   -0.8503 C   0  0  0  0  0  0  0  0  0  0  0  0
    3.4270    1.9816    0.7290 C   0  0  0  0  0  0  0  0  0  0  0  0
    2.4923    1.6665   -1.4764 C   0  0  0  0  0  0  0  0  0  0  0  0
    3.2074    2.4465   -0.5675 C   0  0  0  0  0  0  0  0  0  0  0  0
   -5.1968    1.2711   -0.6112 C   0  0  0  0  0  0  0  0  0  0  0  0
  1  4  1  0
  2  6  2  0
  3 12  1  0
  3 18  1  0
  4  5  1  0
  4  6  1  0
  5  8  2  0
  5  9  1  0
  6  7  1  0
  7 10  2  0
  7 11  1  0
  8 15  1  0
  9 16  2  0
 10 13  1  0
 11 14  2  0
 12 13  2  0
 12 14  1  0
 15 17  2  0
 16 17  1  0
M  END
>  <PUBCHEM_COMPOUND_CID>  (1) 
3791

>  <PUBCHEM_CONFORMER_RMSD>  (1) 
0.6

>  <PUBCHEM_CONFORMER_DIVERSEORDER>  (1) 
1
24
55
15
19
54
29
43
26
34
44
35
23
38
53
14
18
52
22
7
50
10
46
28
49
56
41
5
3
25
37
11
40
36
6
13
12
4
8
33
30
51
32
31
9
27
48
39
17
16
2
45
42
20
21
47

>  <PUBCHEM_MMFF94_PARTIAL_CHARGES>  (1) 
28
1 -0.68
10 -0.15
11 -0.15
12 0.08
13 -0.15
14 -0.15
15 -0.15
16 -0.15
17 -0.15
18 0.28
2 -0.57
20 0.15
21 0.15
22 0.15
23 0.15
24 0.15
25 0.15
26 0.15
27 0.15
28 0.15
29 0.4
3 -0.36
4 0.48
5 -0.14
6 0.42
7 0.09
8 -0.15
9 -0.15

>  <PUBCHEM_EFFECTIVE_ROTOR_COUNT>  (1) 
4

>  <PUBCHEM_PHARMACOPHORE_FEATURES>  (1) 
6
1 1 acceptor
1 1 donor
1 2 acceptor
1 3 acceptor
6 5 8 9 15 16 17 rings
6 7 10 11 12 13 14 rings

>  <PUBCHEM_HEAVY_ATOM_COUNT>  (1) 
18

>  <PUBCHEM_ATOM_DEF_STEREO_COUNT>  (1) 
0

>  <PUBCHEM_ATOM_UDEF_STEREO_COUNT>  (1) 
1

>  <PUBCHEM_BOND_DEF_STEREO_COUNT>  (1) 
0

>  <PUBCHEM_BOND_UDEF_STEREO_COUNT>  (1) 
0

>  <PUBCHEM_ISOTOPIC_ATOM_COUNT>  (1) 
0

>  <PUBCHEM_COMPONENT_COUNT>  (1) 
1

>  <PUBCHEM_CACTVS_TAUTO_COUNT>  (1) 
3

>  <PUBCHEM_CONFORMER_ID>  (1) 
00000ECF00000001

>  <PUBCHEM_MMFF94_ENERGY>  (1) 
57.551

>  <PUBCHEM_FEATURE_SELFOVERLAP>  (1) 
30.457

>  <PUBCHEM_SHAPE_FINGERPRINT>  (1) 
10382601 240 17822561785905436616
10465860 228 18408321090485102292
10498660 4 18201442523016130329
11640471 11 18340761649876639564
12403259 327 16370721551922521945
12633257 1 16009305521520825416
13134695 92 18116711807848807026
13764800 53 18194979657918220018
13965767 371 18115851040568295720
14115302 16 17703216318075360367
14123255 52 18338802332962145500
14142880 1 17973436891089562397
14251764 38 18044650902592152269
14252887 29 7997966864812091532
15342168 16 18261675964803450989
15664445 248 14404888198773057363
15775835 57 18342175595954862016
17134986 127 18339370750693355700
1798214 55 18339083790711566188
1813 80 17910965634456519134
18186145 218 18059871583118494657
18981168 100 18192172562041355906
19765921 60 18272367619955934867
19862831 5 17703516548825735724
20510252 161 17546450432878368690
20715895 44 18050556349606545141
21475661 188 17532922819252476749
21524375 3 18337672035203853698
21756936 100 16664605772285077100
21864079 5 18118411867283816844
23557571 272 16056019389797299151
23559900 14 16660940871895057939
3060560 45 18271812250799379726
3323516 105 12319731462768461789
4028521 119 17845942942897352376
474 4 18334855009119586257
49207404 50 17895208739244331987
5262128 65 15912778291995983512
633830 44 17559698203615448145
7364860 26 18270683065342528534
960060 61 12751235913501630473
9981440 41 18054212500435272386

>  <PUBCHEM_SHAPE_MULTIPOLES>  (1) 
352.82
7.76
2.52
1.32
6.72
0.74
0.01
-6
-0.12
-1.93
-0.43
-0.13
-0.22
-0.44

>  <PUBCHEM_SHAPE_SELFOVERLAP>  (1) 
756.856

>  <PUBCHEM_SHAPE_VOLUME>  (1) 
194.8

>  <PUBCHEM_COORDINATE_TYPE>  (1) 
2
5
10

$$$$
