37923
     RDKit          3D

 25 27  0  0  0  0  0  0  0  0999 V2000
   -0.3120    0.3619   -0.1456 O   0  0  0  0  0  0  0  0  0  0  0  0
    4.4297    0.2378   -0.5078 O   0  0  0  0  0  0  0  0  0  0  0  0
   -0.4797   -3.6462    0.5427 O   0  0  0  0  0  0  0  0  0  0  0  0
    3.0770    2.4603    0.2035 N   0  0  0  0  0  0  0  0  0  0  0  0
    2.0396    0.2978   -0.3243 C   0  0  0  0  0  0  0  0  0  0  0  0
    0.8382   -0.3794   -0.1132 C   0  0  0  0  0  0  0  0  0  0  0  0
    0.8423   -1.7512    0.1170 C   0  0  0  0  0  0  0  0  0  0  0  0
   -1.6704   -1.5992    0.2992 C   0  0  0  0  0  0  0  0  0  0  0  0
    2.0443    1.7729   -0.5710 C   0  0  0  0  0  0  0  0  0  0  0  0
   -1.5210   -0.2812    0.0566 C   0  0  0  0  0  0  0  0  0  0  0  0
   -0.4385   -2.4394    0.3384 C   0  0  0  0  0  0  0  0  0  0  0  0
    3.2448   -0.4038   -0.3038 C   0  0  0  0  0  0  0  0  0  0  0  0
   -2.9609   -2.3245    0.5506 C   0  0  0  0  0  0  0  0  0  0  0  0
    2.0476   -2.4582    0.1376 C   0  0  0  0  0  0  0  0  0  0  0  0
    3.2485   -1.7797   -0.0735 C   0  0  0  0  0  0  0  0  0  0  0  0
   -2.6574    0.6481   -0.0174 C   0  0  0  0  0  0  0  0  0  0  0  0
   -3.5761   -2.8335   -0.7377 C   0  0  0  0  0  0  0  0  0  0  0  0
    2.8643    2.2535    1.6356 C   0  0  0  0  0  0  0  0  0  0  0  0
    3.0863    3.8885   -0.1108 C   0  0  0  0  0  0  0  0  0  0  0  0
   -3.1040    1.2972    1.1340 C   0  0  0  0  0  0  0  0  0  0  0  0
   -3.2898    0.8817   -1.2388 C   0  0  0  0  0  0  0  0  0  0  0  0
   -4.1825    2.1790    1.0641 C   0  0  0  0  0  0  0  0  0  0  0  0
   -4.3682    1.7635   -1.3086 C   0  0  0  0  0  0  0  0  0  0  0  0
    5.6122   -0.5583   -0.4695 C   0  0  0  0  0  0  0  0  0  0  0  0
   -4.8145    2.4122   -0.1572 C   0  0  0  0  0  0  0  0  0  0  0  0
  1  6  1  0
  1 10  1  0
  2 12  1  0
  2 24  1  0
  3 11  2  0
  4  9  1  0
  4 18  1  0
  4 19  1  0
  5  6  2  0
  5  9  1  0
  5 12  1  0
  6  7  1  0
  7 11  1  0
  7 14  2  0
  8 10  2  0
  8 11  1  0
  8 13  1  0
 10 16  1  0
 12 15  2  0
 13 17  1  0
 14 15  1  0
 16 20  2  0
 16 21  1  0
 20 22  1  0
 21 23  2  0
 22 25  2  0
 23 25  1  0
M  END
>  <PUBCHEM_COMPOUND_CID>  (1) 
37923

>  <PUBCHEM_CONFORMER_RMSD>  (1) 
0.8

>  <PUBCHEM_CONFORMER_DIVERSEORDER>  (1) 
4
1
3
2

>  <PUBCHEM_MMFF94_PARTIAL_CHARGES>  (1) 
31
1 -0.16
10 0.05
11 0.47
12 0.08
13 0.14
14 -0.15
15 -0.15
16 0.03
18 0.27
19 0.27
2 -0.36
20 -0.15
21 -0.15
22 -0.15
23 -0.15
24 0.28
25 -0.15
3 -0.57
30 0.15
31 0.15
4 -0.81
41 0.15
42 0.15
43 0.15
44 0.15
48 0.15
5 -0.14
6 0.08
7 0.09
8 -0.12
9 0.41

>  <PUBCHEM_EFFECTIVE_ROTOR_COUNT>  (1) 
5

>  <PUBCHEM_PHARMACOPHORE_FEATURES>  (1) 
8
1 1 acceptor
1 17 hydrophobe
1 2 acceptor
1 3 acceptor
1 4 cation
6 1 6 7 8 10 11 rings
6 16 20 21 22 23 25 rings
6 5 6 7 12 14 15 rings

>  <PUBCHEM_HEAVY_ATOM_COUNT>  (1) 
25

>  <PUBCHEM_ATOM_DEF_STEREO_COUNT>  (1) 
0

>  <PUBCHEM_ATOM_UDEF_STEREO_COUNT>  (1) 
0

>  <PUBCHEM_BOND_DEF_STEREO_COUNT>  (1) 
0

>  <PUBCHEM_BOND_UDEF_STEREO_COUNT>  (1) 
0

>  <PUBCHEM_ISOTOPIC_ATOM_COUNT>  (1) 
0

>  <PUBCHEM_COMPONENT_COUNT>  (1) 
1

>  <PUBCHEM_CACTVS_TAUTO_COUNT>  (1) 
1

>  <PUBCHEM_CONFORMER_ID>  (1) 
0000942300000004

>  <PUBCHEM_MMFF94_ENERGY>  (1) 
86.4159

>  <PUBCHEM_FEATURE_SELFOVERLAP>  (1) 
40.624

>  <PUBCHEM_SHAPE_FINGERPRINT>  (1) 
10165383 225 18261402087439361629
10670039 82 17902527209109780092
10967382 1 18120656837988445518
1100329 8 18338235964457239530
11405975 8 18411136956727649096
11725454 13 16951952969984381615
12236239 1 17843958140606474053
12403259 415 18339644541746993216
12403260 363 18339071722191003090
12633257 1 18335129861341336888
12769317 202 18192419771705942061
13140716 1 18408041792909267387
13583140 156 17822018571062808427
13965767 371 18041547101019407764
14178342 30 18191019204308363200
14251764 38 18340199807872325920
14466204 15 18048590430894170696
14790565 3 18121792620868510292
14848178 96 18411414024978801672
15081414 286 18196099850161659620
1601671 61 18337392648013492764
17980427 23 18054191441883851130
20510252 161 18195528318847574859
21033648 144 18411689985180406237
21033648 29 17968649411584098029
21033650 10 16629139658097832665
21279426 13 18340215107405495862
21709351 56 18413107286160076686
21756936 100 17631184000220143777
21860390 5 18129383713628746996
22393880 68 18412545431307446622
23227448 37 18410575059436860807
23558518 356 18115593801685529867
23559900 14 18343297059661511496
25147074 1 18262224535090879211
283562 15 18192708076034094155
335352 9 18336830776070924630
34934 24 18335701585987050214
350125 39 18337118946579701163
474 4 18339921502992702593
5104073 3 18333730217620664594
6328613 192 18409454704797430076
9709674 26 18340214101919340470
9981440 41 18124299756397850416

>  <PUBCHEM_SHAPE_MULTIPOLES>  (1) 
491.9
9.79
4.33
1.05
0.69
0.1
0.1
5.1
-1.35
-0.25
0.54
-0.56
0.47
0.31

>  <PUBCHEM_SHAPE_SELFOVERLAP>  (1) 
1064.389

>  <PUBCHEM_SHAPE_VOLUME>  (1) 
271.3

>  <PUBCHEM_COORDINATE_TYPE>  (1) 
2
5
10

$$$$
