3792
     RDKit          3D

 26 27  0  0  0  0  0  0  0  0999 V2000
   -4.9480    0.6137   -0.5750 O   0  0  0  0  0  0  0  0  0  0  0  0
    5.9230   -1.1176    1.5442 O   0  0  0  0  0  0  0  0  0  0  0  0
    5.9987   -2.0830   -1.0610 O   0  0  0  0  0  0  0  0  0  0  0  0
    1.4965    1.3581    1.7626 O   0  0  0  0  0  0  0  0  0  0  0  0
   -6.5111   -2.5479    0.4957 N   0  0  0  0  0  0  0  0  0  0  0  0
    1.2205    2.0764   -0.4254 N   0  0  0  0  0  0  0  0  0  0  0  0
   -6.2149   -1.4044   -0.3666 C   0  0  0  0  0  0  0  0  0  0  0  0
   -1.1921    2.3774   -0.2729 C   0  0  0  0  0  0  0  0  0  0  0  0
   -5.2189   -0.4710    0.3029 C   0  0  0  0  0  0  0  0  0  0  0  0
    0.1540    3.0096   -0.1643 C   0  0  0  0  0  0  0  0  0  0  0  0
   -3.7108    1.1948   -0.4758 C   0  0  0  0  0  0  0  0  0  0  0  0
   -1.8606    2.3657   -1.4970 C   0  0  0  0  0  0  0  0  0  0  0  0
   -1.7830    1.7977    0.8499 C   0  0  0  0  0  0  0  0  0  0  0  0
   -3.1199    1.7743   -1.5986 C   0  0  0  0  0  0  0  0  0  0  0  0
   -3.0423    1.2066    0.7485 C   0  0  0  0  0  0  0  0  0  0  0  0
    2.9155    0.4212    0.1480 C   0  0  0  0  0  0  0  0  0  0  0  0
    1.8108    1.3176    0.5759 C   0  0  0  0  0  0  0  0  0  0  0  0
   -7.4718   -2.1715    1.5321 C   0  0  0  0  0  0  0  0  0  0  0  0
   -7.0246   -3.6653   -0.2958 C   0  0  0  0  0  0  0  0  0  0  0  0
    3.9149    0.0644    1.0533 C   0  0  0  0  0  0  0  0  0  0  0  0
    2.9540   -0.0627   -1.1597 C   0  0  0  0  0  0  0  0  0  0  0  0
    4.9527   -0.7765    0.6510 C   0  0  0  0  0  0  0  0  0  0  0  0
    4.9911   -1.2604   -0.6566 C   0  0  0  0  0  0  0  0  0  0  0  0
    3.9918   -0.9035   -1.5619 C   0  0  0  0  0  0  0  0  0  0  0  0
    5.8101   -0.5805    2.8606 C   0  0  0  0  0  0  0  0  0  0  0  0
    5.9643   -2.5335   -2.4139 C   0  0  0  0  0  0  0  0  0  0  0  0
  1  9  1  0
  1 11  1  0
  2 22  1  0
  2 25  1  0
  3 23  1  0
  3 26  1  0
  4 17  2  0
  5  7  1  0
  5 18  1  0
  5 19  1  0
  6 10  1  0
  6 17  1  0
  7  9  1  0
  8 10  1  0
  8 12  2  0
  8 13  1  0
 11 14  2  0
 11 15  1  0
 12 14  1  0
 13 15  2  0
 16 17  1  0
 16 20  2  0
 16 21  1  0
 20 22  1  0
 21 24  2  0
 22 23  2  0
 23 24  1  0
M  END
>  <PUBCHEM_COMPOUND_CID>  (1) 
3792

>  <PUBCHEM_CONFORMER_RMSD>  (1) 
1

>  <PUBCHEM_CONFORMER_DIVERSEORDER>  (1) 
3
48
20
70
5
12
34
75
67
32
53
2
49
54
15
25
91
45
50
19
65
41
85
99
46
77
35
22
69
30
74
96
27
63
39
55
18
52
28
31
97
26
10
59
66
78
23
47
73
16
87
82
4
21
14
37
44
33
56
11
80
64
83
62
93
8
17
92
51
29
100
61
60
42
71
36
81
94
84
7
79
98
9
95
58
40
76
88
43
86
1
57
13
38
24
68
89
90
72
6

>  <PUBCHEM_MMFF94_PARTIAL_CHARGES>  (1) 
34
1 -0.36
10 0.44
11 0.08
12 -0.15
13 -0.15
14 -0.15
15 -0.15
16 0.09
17 0.54
18 0.27
19 0.27
2 -0.36
20 -0.15
21 -0.15
22 0.08
23 0.08
24 -0.15
25 0.28
26 0.28
3 -0.36
33 0.15
34 0.15
35 0.15
36 0.15
37 0.37
4 -0.57
44 0.15
45 0.15
46 0.15
5 -0.81
6 -0.73
7 0.27
8 -0.14
9 0.28

>  <PUBCHEM_EFFECTIVE_ROTOR_COUNT>  (1) 
10

>  <PUBCHEM_PHARMACOPHORE_FEATURES>  (1) 
8
1 1 acceptor
1 2 acceptor
1 3 acceptor
1 4 acceptor
1 5 cation
1 6 donor
6 16 20 21 22 23 24 rings
6 8 11 12 13 14 15 rings

>  <PUBCHEM_HEAVY_ATOM_COUNT>  (1) 
26

>  <PUBCHEM_ATOM_DEF_STEREO_COUNT>  (1) 
0

>  <PUBCHEM_ATOM_UDEF_STEREO_COUNT>  (1) 
0

>  <PUBCHEM_BOND_DEF_STEREO_COUNT>  (1) 
0

>  <PUBCHEM_BOND_UDEF_STEREO_COUNT>  (1) 
0

>  <PUBCHEM_ISOTOPIC_ATOM_COUNT>  (1) 
0

>  <PUBCHEM_COMPONENT_COUNT>  (1) 
1

>  <PUBCHEM_CACTVS_TAUTO_COUNT>  (1) 
2

>  <PUBCHEM_CONFORMER_ID>  (1) 
00000ED000000003

>  <PUBCHEM_MMFF94_ENERGY>  (1) 
92.0968

>  <PUBCHEM_FEATURE_SELFOVERLAP>  (1) 
40.601

>  <PUBCHEM_SHAPE_FINGERPRINT>  (1) 
10622 236 16879886587731379291
10981352 41 18200872989178479311
11796584 16 18264197015811246304
11809386 21 18040709235036632137
12633257 1 15051724309567395165
12717326 120 18338513029305182978
12778500 126 11095890333358000212
12988421 55 13182741403854352229
13103583 49 14907885068655306332
13383661 66 18272381840450844242
1361 4 17974574899422263995
1361 87 17532665714168000131
13782708 43 18411979152601311971
14123256 34 18408329895395035887
14251740 57 18339079405971924161
14251764 30 18409169939569308839
14429114 114 9510648570434690775
14765038 42 15410602731577357552
15510800 12 18413666916357258759
19438510 23 10231763275515560037
20398071 356 18410861001485579043
20621476 21 18412548704288654503
20775438 99 17317606822846876819
21095086 4 18200888287440856166
21307412 95 18336259056110647029
21315759 148 17917425381159194040
21344244 246 18262813964314266180
21585481 104 15140947419398893679
21585482 310 18263093244383125099
21781055 127 14045156629994010482
229767 8 18056774130263029854
270888 7 9367351414350085197
2748736 6 10231765457459471411
2838139 119 7853581179959807505
3388396 114 16661515989427702452
3862424 121 18200053767148135086
439807 62 17894628167557215467
5104073 3 16772097039782582808
56633871 153 18060419140494989215
5718773 13 18188197767277040779
59682541 52 14056988408744759072
636775 8 18270132214823911326
7970288 3 18411139134613723671
999808 66 18059860532357663567

>  <PUBCHEM_SHAPE_MULTIPOLES>  (1) 
501.63
20.51
3.69
2.01
14.91
1.01
0.42
25.88
2.73
5.07
-0.99
-3.61
0.68
2.95

>  <PUBCHEM_SHAPE_SELFOVERLAP>  (1) 
1043.185

>  <PUBCHEM_SHAPE_VOLUME>  (1) 
287.1

>  <PUBCHEM_COORDINATE_TYPE>  (1) 
2
5
10

$$$$
