37926
     RDKit          3D

 20 22  0  0  0  0  0  0  0  0999 V2000
   -2.6143    2.9804    0.0009 Cl  0  0  0  0  0  0  0  0  0  0  0  0
    2.6140    2.9804    0.0003 Cl  0  0  0  0  0  0  0  0  0  0  0  0
   -2.3026   -3.2679    0.0012 Cl  0  0  0  0  0  0  0  0  0  0  0  0
    2.3035   -3.2680    0.0005 Cl  0  0  0  0  0  0  0  0  0  0  0  0
   -5.2520    1.1884   -0.0003 Cl  0  0  0  0  0  0  0  0  0  0  0  0
    5.2517    1.1892   -0.0010 Cl  0  0  0  0  0  0  0  0  0  0  0  0
    0.0000   -1.4789   -0.0004 O   0  0  0  0  0  0  0  0  0  0  0  0
   -0.0001    1.4494    0.0009 C   0  0  0  0  0  0  0  0  0  0  0  0
   -1.2495    0.6192   -0.0003 C   0  0  0  0  0  0  0  0  0  0  0  0
    1.2494    0.6193    0.0000 C   0  0  0  0  0  0  0  0  0  0  0  0
   -1.1823   -0.7769   -0.0005 C   0  0  0  0  0  0  0  0  0  0  0  0
    1.1822   -0.7769   -0.0003 C   0  0  0  0  0  0  0  0  0  0  0  0
   -2.5044    1.2427   -0.0003 C   0  0  0  0  0  0  0  0  0  0  0  0
    2.5043    1.2428    0.0004 C   0  0  0  0  0  0  0  0  0  0  0  0
   -2.3528   -1.5406   -0.0005 C   0  0  0  0  0  0  0  0  0  0  0  0
    2.3530   -1.5406   -0.0002 C   0  0  0  0  0  0  0  0  0  0  0  0
   -3.6727    0.4800   -0.0004 C   0  0  0  0  0  0  0  0  0  0  0  0
    3.6726    0.4801    0.0002 C   0  0  0  0  0  0  0  0  0  0  0  0
   -3.5967   -0.9112   -0.0004 C   0  0  0  0  0  0  0  0  0  0  0  0
    3.5968   -0.9110    0.0001 C   0  0  0  0  0  0  0  0  0  0  0  0
  1 13  1  0
  2 14  1  0
  3 15  1  0
  4 16  1  0
  5 17  1  0
  6 18  1  0
  7 11  1  0
  7 12  1  0
  8  9  1  0
  8 10  1  0
  9 11  2  0
  9 13  1  0
 10 12  2  0
 10 14  1  0
 11 15  1  0
 12 16  1  0
 13 17  2  0
 14 18  2  0
 15 19  2  0
 16 20  2  0
 17 19  1  0
 18 20  1  0
M  END
>  <PUBCHEM_COMPOUND_CID>  (1) 
37926

>  <PUBCHEM_CONFORMER_RMSD>  (1) 
0.6

>  <PUBCHEM_CONFORMER_DIVERSEORDER>  (1) 
1

>  <PUBCHEM_MMFF94_PARTIAL_CHARGES>  (1) 
22
1 -0.18
10 -0.14
11 0.08
12 0.08
13 0.18
14 0.18
15 0.18
16 0.18
17 0.18
18 0.18
19 -0.15
2 -0.18
20 -0.15
23 0.15
24 0.15
3 -0.18
4 -0.18
5 -0.18
6 -0.18
7 -0.17
8 0.29
9 -0.14

>  <PUBCHEM_EFFECTIVE_ROTOR_COUNT>  (1) 
0.4

>  <PUBCHEM_PHARMACOPHORE_FEATURES>  (1) 
4
1 7 acceptor
6 10 12 14 16 18 20 rings
6 7 8 9 10 11 12 rings
6 9 11 13 15 17 19 rings

>  <PUBCHEM_HEAVY_ATOM_COUNT>  (1) 
20

>  <PUBCHEM_ATOM_DEF_STEREO_COUNT>  (1) 
0

>  <PUBCHEM_ATOM_UDEF_STEREO_COUNT>  (1) 
0

>  <PUBCHEM_BOND_DEF_STEREO_COUNT>  (1) 
0

>  <PUBCHEM_BOND_UDEF_STEREO_COUNT>  (1) 
0

>  <PUBCHEM_ISOTOPIC_ATOM_COUNT>  (1) 
0

>  <PUBCHEM_COMPONENT_COUNT>  (1) 
1

>  <PUBCHEM_CACTVS_TAUTO_COUNT>  (1) 
1

>  <PUBCHEM_CONFORMER_ID>  (1) 
0000942600000001

>  <PUBCHEM_MMFF94_ENERGY>  (1) 
54.984

>  <PUBCHEM_FEATURE_SELFOVERLAP>  (1) 
20.353

>  <PUBCHEM_SHAPE_FINGERPRINT>  (1) 
10366900 7 18131059463617198505
10411042 1 17690280404565951790
10608611 8 18410572885640083201
10616163 171 18339363079534098982
10967382 1 18338517439101393670
11471102 20 18411135818740449196
11578080 2 17058632178993697883
12173636 292 18338232661743323181
12403259 226 18118963590345440837
13140716 1 18266740370836651480
138480 1 17689997834403969315
14178342 30 18338501015563419482
14223421 5 18410576227129686887
14466204 15 18411410722929407056
14790565 3 18268435620990178729
14866123 147 16540738687159696210
15196674 1 18410575084663280295
15442244 35 18194964037185376722
15536298 74 18342176639943047358
16945 1 18410856563934834822
17492 89 18410292484717147571
200 152 17988920093920972541
20510252 161 18271244902983940033
20645477 56 18334293167473786965
20645477 70 18270680866018748919
21267235 1 18339088068525282290
21421861 104 17896591800513513490
21501502 16 18410571794734168806
221490 88 18337680831486734546
23227448 37 18411698820186077045
2334 1 17978511167216214534
23366157 5 18041847203822779258
23402539 116 18341606049005618309
23557571 272 18199758096813639935
23559900 14 18413666911893200072
238 59 16743920838455312077
2748010 2 17978508968198331203
335352 9 18410573951081954494
34934 24 18410851066376962275
350125 39 18410295821605679360
3545911 37 18410857659162226716
4214541 1 18410574019532502881
474 4 17749395909457734228
5104073 3 18409448093839935755
58051976 378 18412825806698585412
59755656 215 18410858741889598556
69090 78 18411697656529494815
7364860 26 18340206293747514670
7832392 63 18339360756267586380
9709674 26 18412548712340980030
9981440 41 18120087544726869056

>  <PUBCHEM_SHAPE_MULTIPOLES>  (1) 
416.94
8.97
3.65
0.62
0
1.18
0
-3.02
0
0
0
0
-0.01
0

>  <PUBCHEM_SHAPE_SELFOVERLAP>  (1) 
868.917

>  <PUBCHEM_SHAPE_VOLUME>  (1) 
242.4

>  <PUBCHEM_COORDINATE_TYPE>  (1) 
2
5
10

$$$$
