37938
     RDKit          3D

 25 27  0  0  1  0  0  0  0  0999 V2000
   -1.3626    0.9956    0.7034 O   0  0  0  0  0  0  0  0  0  0  0  0
   -0.7317   -1.1961    0.8724 O   0  0  0  0  0  0  0  0  0  0  0  0
    5.6306    0.6115    0.2259 O   0  0  0  0  0  0  0  0  0  0  0  0
   -4.5484   -0.4210   -0.4561 N   0  0  0  0  0  0  0  0  0  0  0  0
    0.8257    0.5286    0.5882 N   0  0  0  0  0  0  0  0  0  0  0  0
   -3.2813    0.2875   -0.5586 C   0  0  0  0  0  0  0  0  0  0  0  0
   -2.7307    0.6040    0.8419 C   0  0  0  0  0  0  0  0  0  0  0  0
   -3.4294    1.5664   -1.4005 C   0  0  0  0  0  0  0  0  0  0  0  0
   -3.5055    1.7195    1.5516 C   0  0  0  0  0  0  0  0  0  0  0  0
   -4.2122    2.6678   -0.6862 C   0  0  0  0  0  0  0  0  0  0  0  0
   -5.0702   -0.8238   -1.7618 C   0  0  0  0  0  0  0  0  0  0  0  0
   -4.4332   -1.6637    0.3065 C   0  0  0  0  0  0  0  0  0  0  0  0
   -3.6251    2.9753    0.6881 C   0  0  0  0  0  0  0  0  0  0  0  0
   -6.1369   -1.8475   -1.4020 C   0  0  0  0  0  0  0  0  0  0  0  0
   -5.7202   -2.3970   -0.0411 C   0  0  0  0  0  0  0  0  0  0  0  0
   -0.4356   -0.0154    0.7347 C   0  0  0  0  0  0  0  0  0  0  0  0
    2.0672   -0.1467    0.5633 C   0  0  0  0  0  0  0  0  0  0  0  0
    3.2506    0.5746    0.4048 C   0  0  0  0  0  0  0  0  0  0  0  0
    2.1090   -1.5345    0.6971 C   0  0  0  0  0  0  0  0  0  0  0  0
    4.4756   -0.0919    0.3803 C   0  0  0  0  0  0  0  0  0  0  0  0
    3.3340   -2.2011    0.6726 C   0  0  0  0  0  0  0  0  0  0  0  0
    4.5172   -1.4798    0.5142 C   0  0  0  0  0  0  0  0  0  0  0  0
    6.7117   -0.0509   -0.4284 C   0  0  0  0  0  0  0  0  0  0  0  0
    7.5673    0.9873   -1.1380 C   0  0  0  0  0  0  0  0  0  0  0  0
    8.7340    0.3514   -1.8723 C   0  0  0  0  0  0  0  0  0  0  0  0
  1  7  1  0
  1 16  1  0
  2 16  2  0
  3 20  1  0
  3 23  1  0
  4  6  1  0
  4 11  1  0
  4 12  1  0
  5 16  1  0
  5 17  1  0
  6  7  1  0
  6  8  1  0
  7  9  1  0
  8 10  1  0
  9 13  1  0
 10 13  1  0
 11 14  1  0
 12 15  1  0
 14 15  1  0
 17 18  2  0
 17 19  1  0
 18 20  1  0
 19 21  2  0
 20 22  2  0
 21 22  1  0
 23 24  1  0
 24 25  1  0
M  END
>  <PUBCHEM_COMPOUND_CID>  (1) 
37938

>  <PUBCHEM_CONFORMER_RMSD>  (1) 
1

>  <PUBCHEM_CONFORMER_DIVERSEORDER>  (1) 
2
33
34
51
53
59
42
32
41
55
7
58
16
38
50
17
44
21
61
47
63
10
52
48
19
20
14
39
35
46
54
18
56
37
13
24
27
8
45
23
5
57
6
30
12
60
43
40
25
49
3
9
62
4
1
31
29
11
15
22
26
36
28

>  <PUBCHEM_MMFF94_PARTIAL_CHARGES>  (1) 
22
1 -0.43
11 0.27
12 0.27
16 0.78
17 0.12
18 -0.15
19 -0.15
2 -0.57
20 0.08
21 -0.15
22 -0.15
23 0.28
3 -0.36
4 -0.81
44 0.37
45 0.15
46 0.15
47 0.15
48 0.15
5 -0.55
6 0.27
7 0.28

>  <PUBCHEM_EFFECTIVE_ROTOR_COUNT>  (1) 
10.2

>  <PUBCHEM_PHARMACOPHORE_FEATURES>  (1) 
8
1 2 acceptor
1 25 hydrophobe
1 3 acceptor
1 4 cation
1 5 donor
5 4 11 12 14 15 rings
6 17 18 19 20 21 22 rings
6 6 7 8 9 10 13 rings

>  <PUBCHEM_HEAVY_ATOM_COUNT>  (1) 
25

>  <PUBCHEM_ATOM_DEF_STEREO_COUNT>  (1) 
2

>  <PUBCHEM_ATOM_UDEF_STEREO_COUNT>  (1) 
0

>  <PUBCHEM_BOND_DEF_STEREO_COUNT>  (1) 
0

>  <PUBCHEM_BOND_UDEF_STEREO_COUNT>  (1) 
0

>  <PUBCHEM_ISOTOPIC_ATOM_COUNT>  (1) 
0

>  <PUBCHEM_COMPONENT_COUNT>  (1) 
1

>  <PUBCHEM_CACTVS_TAUTO_COUNT>  (1) 
2

>  <PUBCHEM_CONFORMER_ID>  (1) 
0000943200000002

>  <PUBCHEM_MMFF94_ENERGY>  (1) 
53.9338

>  <PUBCHEM_FEATURE_SELFOVERLAP>  (1) 
40.596

>  <PUBCHEM_SHAPE_FINGERPRINT>  (1) 
10076449 9 18412819202109730253
10291535 26 13840259265816560991
10554248 39 17458622277760911658
10595046 47 18335697217683303642
10669705 176 18260272962924754518
11089746 13 13695584472860405774
11101153 10 18261958556182073389
11135609 201 12108603184870109799
11315181 36 16153428367691752909
11315621 246 17916863637791312143
11387372 6 14404895960200792309
12082328 90 17846504712446748588
12760667 363 18272643581144157623
12895837 130 17822572694980600269
13631057 29 18411975893127563083
13668630 136 17418093251856588478
13673619 4 17775281720732734195
13690498 29 18131628993581979413
13782708 43 14908180803687973284
14118638 360 18409163303481164418
14528608 73 18410572873509367096
14767858 380 18409450314944636430
15064986 266 18261116236571334707
15183329 4 18113054939949575892
15250474 111 18264754485713777451
15352257 5 15984829254952494870
15461852 350 14634876378696616882
1577012 14 18335423435657567488
17780758 139 8934999265373176326
18335252 114 17530970207677587404
18643901 69 17846780737215157143
18927931 339 17275380993668442317
19427546 20 18410289190977787293
20101258 96 17917704726207211769
21130935 74 9151166533783453348
21150785 3 18187365458766161606
21267235 1 18059579130189629251
21403212 168 10807948072165495327
220451 1 18272091552448246328
22288116 15 18411986879537562990
2303208 19 16343699928910390026
23081809 10 18260265214513121656
23559900 14 18339906204672771793
3103668 31 17902802091597079674
329604 57 18341041986866546859
34797466 226 17060054904717932304
4073 2 17967537843613532419
4169191 19 16805619092119428396
4325135 7 18408885156850692783
445580 37 18334862736050815918
497634 4 18408879612559623261
504579 68 18411136930894620108
5104073 3 18200865180363355538
7226269 152 12035717713535327855

>  <PUBCHEM_SHAPE_MULTIPOLES>  (1) 
486.92
20.85
2.61
1.45
35.44
0.52
-0.5
-1.25
-11.57
-4.71
0.17
-0.21
0.18
-2.09

>  <PUBCHEM_SHAPE_SELFOVERLAP>  (1) 
1007.765

>  <PUBCHEM_SHAPE_VOLUME>  (1) 
278.1

>  <PUBCHEM_COORDINATE_TYPE>  (1) 
2
5
10

$$$$
