37936
     RDKit          3D

 28 29  0  0  1  0  0  0  0  0999 V2000
   -2.6638    0.0918   -0.6249 O   0  0  0  0  0  0  0  0  0  0  0  0
   -1.9747    1.8384    0.6808 O   0  0  0  0  0  0  0  0  0  0  0  0
    4.1651   -0.7021    0.7957 O   0  0  0  0  0  0  0  0  0  0  0  0
   -4.9618   -1.3667    0.4116 N   0  0  0  0  0  0  0  0  0  0  0  0
   -0.5151    0.1359    0.0088 N   0  0  0  0  0  0  0  0  0  0  0  0
   -4.9989   -0.5053   -0.7737 C   0  0  0  0  0  0  0  0  0  0  0  0
   -3.9810    0.6388   -0.6474 C   0  0  0  0  0  0  0  0  0  0  0  0
   -6.4224    0.0316   -0.9616 C   0  0  0  0  0  0  0  0  0  0  0  0
   -4.0854    1.6093   -1.8263 C   0  0  0  0  0  0  0  0  0  0  0  0
   -6.5079    0.9951   -2.1432 C   0  0  0  0  0  0  0  0  0  0  0  0
   -5.5039    2.1354   -2.0085 C   0  0  0  0  0  0  0  0  0  0  0  0
   -5.8818   -2.4906    0.2516 C   0  0  0  0  0  0  0  0  0  0  0  0
   -5.2936   -0.5975    1.6089 C   0  0  0  0  0  0  0  0  0  0  0  0
   -5.5139   -3.3334   -0.9578 C   0  0  0  0  0  0  0  0  0  0  0  0
   -5.2607   -1.4726    2.8504 C   0  0  0  0  0  0  0  0  0  0  0  0
   -1.7260    0.7960    0.0873 C   0  0  0  0  0  0  0  0  0  0  0  0
    0.7178    0.5068    0.5923 C   0  0  0  0  0  0  0  0  0  0  0  0
    7.7653   -0.1577   -0.1519 C   0  0  0  0  0  0  0  0  0  0  0  0
    6.3811   -0.8035   -0.1204 C   0  0  0  0  0  0  0  0  0  0  0  0
    8.7475   -0.8679   -1.0878 C   0  0  0  0  0  0  0  0  0  0  0  0
    1.8466   -0.2906    0.4038 C   0  0  0  0  0  0  0  0  0  0  0  0
    0.8055    1.6702    1.3568 C   0  0  0  0  0  0  0  0  0  0  0  0
    5.4312   -0.0446    0.7969 C   0  0  0  0  0  0  0  0  0  0  0  0
   10.1400   -0.2361   -1.1005 C   0  0  0  0  0  0  0  0  0  0  0  0
    3.0631    0.0756    0.9796 C   0  0  0  0  0  0  0  0  0  0  0  0
    2.0219    2.0363    1.9327 C   0  0  0  0  0  0  0  0  0  0  0  0
    3.1507    1.2390    1.7441 C   0  0  0  0  0  0  0  0  0  0  0  0
   11.0549   -0.9316   -2.0972 C   0  0  0  0  0  0  0  0  0  0  0  0
  1  7  1  0
  1 16  1  0
  2 16  2  0
  3 23  1  0
  3 25  1  0
  4  6  1  0
  4 12  1  0
  4 13  1  0
  5 16  1  0
  5 17  1  0
  6  7  1  0
  6  8  1  0
  7  9  1  0
  8 10  1  0
  9 11  1  0
 10 11  1  0
 12 14  1  0
 13 15  1  0
 17 21  2  0
 17 22  1  0
 18 19  1  0
 18 20  1  0
 19 23  1  0
 20 24  1  0
 21 25  1  0
 22 26  2  0
 24 28  1  0
 25 27  2  0
 26 27  1  0
M  END
>  <PUBCHEM_COMPOUND_CID>  (1) 
37936

>  <PUBCHEM_CONFORMER_RMSD>  (1) 
1.2

>  <PUBCHEM_CONFORMER_DIVERSEORDER>  (1) 
2
14
87
62
39
92
83
78
69
25
51
11
46
90
17
40
86
32
35
85
38
42
75
45
53
41
20
65
76
67
80
49
71
30
60
28
52
89
91
72
70
63
43
16
27
73
50
34
79
56
33
74
88
44
68
9
37
24
1
59
82
3
21
81
29
36
64
66
61
19
57
15
55
13
58
54
84
26
47
10
18
6
48
31
7
5
12
77
8
23
4
22

>  <PUBCHEM_MMFF94_PARTIAL_CHARGES>  (1) 
22
1 -0.43
12 0.27
13 0.27
16 0.78
17 0.12
2 -0.57
21 -0.15
22 -0.15
23 0.28
25 0.08
26 -0.15
27 -0.15
3 -0.36
4 -0.81
49 0.37
5 -0.55
56 0.15
57 0.15
6 0.27
62 0.15
63 0.15
7 0.28

>  <PUBCHEM_EFFECTIVE_ROTOR_COUNT>  (1) 
14.2

>  <PUBCHEM_PHARMACOPHORE_FEATURES>  (1) 
8
1 2 acceptor
1 28 hydrophobe
1 3 acceptor
1 4 cation
1 5 donor
4 18 19 20 24 hydrophobe
6 17 21 22 25 26 27 rings
6 6 7 8 9 10 11 rings

>  <PUBCHEM_HEAVY_ATOM_COUNT>  (1) 
28

>  <PUBCHEM_ATOM_DEF_STEREO_COUNT>  (1) 
2

>  <PUBCHEM_ATOM_UDEF_STEREO_COUNT>  (1) 
0

>  <PUBCHEM_BOND_DEF_STEREO_COUNT>  (1) 
0

>  <PUBCHEM_BOND_UDEF_STEREO_COUNT>  (1) 
0

>  <PUBCHEM_ISOTOPIC_ATOM_COUNT>  (1) 
0

>  <PUBCHEM_COMPONENT_COUNT>  (1) 
1

>  <PUBCHEM_CACTVS_TAUTO_COUNT>  (1) 
2

>  <PUBCHEM_CONFORMER_ID>  (1) 
0000943000000002

>  <PUBCHEM_MMFF94_ENERGY>  (1) 
60.4548

>  <PUBCHEM_FEATURE_SELFOVERLAP>  (1) 
40.594

>  <PUBCHEM_SHAPE_FINGERPRINT>  (1) 
10054150 59 16816041593898485746
10076449 9 18412553124089687554
10299344 5 15554445207000493868
10533779 47 9078841831466309068
11315181 36 16081088178059759179
11973863 73 15841279138907952846
12082328 90 17167861954700929938
13673619 4 16773792577139327600
150020 25 18333452054469738428
15021287 119 16415476082131106929
15152005 1 17836644502623699999
15183329 4 17418368091435874382
15361156 5 18113333137839846573
15419008 145 11527952248891850330
15461852 350 17022912259407242754
1577012 14 16588019087772020296
15979999 66 18260546728388307220
1754911 235 17385445415255819414
1818759 1 17060348410198829918
18927931 339 18113889495171559535
21150785 3 17894352177332719922
21267235 1 17775284963517490584
21792961 116 18412546471322463298
21867018 265 18186806894138198342
22288116 15 17312827090897431194
2303208 19 18340480157741308409
23081809 10 16588290666753944552
23559900 14 18263063510150234417
23576562 1 18189051048836244052
246663 6 16988844969820665254
24771293 8 14779269705329799142
25269216 80 17313384552325824891
2838139 119 11458427946438727914
395649 100 16588030134101105370
4073 2 17167860816465979883
4107672 100 18187640275989649893
4169191 19 13190340162861984996
444769 64 16845572023845436542
484989 97 18340488971510286330
54039377 194 17988928885961607758
5470011 282 18411141330154018886
5758199 1 14345794920900799512
636775 8 18343871030743997382
999808 66 17917713504687308382

>  <PUBCHEM_SHAPE_MULTIPOLES>  (1) 
548.66
30.39
2.28
2.26
82.69
0.8
-0.44
10.59
21.54
-6.12
0.39
-0.49
-0.29
3.5

>  <PUBCHEM_SHAPE_SELFOVERLAP>  (1) 
1100.331

>  <PUBCHEM_SHAPE_VOLUME>  (1) 
322.1

>  <PUBCHEM_COORDINATE_TYPE>  (1) 
2
5
10

$$$$
