37949
     RDKit          3D

 26 28  0  0  1  0  0  0  0  0999 V2000
   -1.1991   -0.7288   -0.6930 O   0  0  0  0  0  0  0  0  0  0  0  0
   -0.4369   -1.9424    1.0892 O   0  0  0  0  0  0  0  0  0  0  0  0
    5.7795   -0.0642   -0.3224 O   0  0  0  0  0  0  0  0  0  0  0  0
   -3.2774    1.1841   -0.0478 N   0  0  0  0  0  0  0  0  0  0  0  0
    1.0059   -0.7255   -0.2956 N   0  0  0  0  0  0  0  0  0  0  0  0
   -3.5083   -0.0316   -0.8278 C   0  0  0  0  0  0  0  0  0  0  0  0
   -2.5325   -1.1341   -0.3882 C   0  0  0  0  0  0  0  0  0  0  0  0
   -4.9663   -0.4813   -0.6723 C   0  0  0  0  0  0  0  0  0  0  0  0
   -2.8172   -2.4518   -1.1132 C   0  0  0  0  0  0  0  0  0  0  0  0
   -5.2309   -1.7949   -1.4044 C   0  0  0  0  0  0  0  0  0  0  0  0
   -4.2681   -2.8890   -0.9548 C   0  0  0  0  0  0  0  0  0  0  0  0
   -3.7712    2.3624   -0.7741 C   0  0  0  0  0  0  0  0  0  0  0  0
   -3.9072    1.0732    1.2754 C   0  0  0  0  0  0  0  0  0  0  0  0
   -3.4933    3.6480    0.0062 C   0  0  0  0  0  0  0  0  0  0  0  0
   -3.6335    2.3167    2.1229 C   0  0  0  0  0  0  0  0  0  0  0  0
   -4.0871    3.5849    1.4089 C   0  0  0  0  0  0  0  0  0  0  0  0
   -0.2151   -1.2073    0.1347 C   0  0  0  0  0  0  0  0  0  0  0  0
    2.2821   -0.9658    0.2624 C   0  0  0  0  0  0  0  0  0  0  0  0
    3.4147   -0.3894   -0.3126 C   0  0  0  0  0  0  0  0  0  0  0  0
    2.4089   -1.7796    1.3882 C   0  0  0  0  0  0  0  0  0  0  0  0
    4.6740   -0.6266    0.2382 C   0  0  0  0  0  0  0  0  0  0  0  0
    3.6682   -2.0169    1.9390 C   0  0  0  0  0  0  0  0  0  0  0  0
    4.8007   -1.4404    1.3641 C   0  0  0  0  0  0  0  0  0  0  0  0
    5.6074    1.1910   -0.9786 C   0  0  0  0  0  0  0  0  0  0  0  0
    6.9077    1.9751   -0.8888 C   0  0  0  0  0  0  0  0  0  0  0  0
    6.7948    3.3342   -1.5558 C   0  0  0  0  0  0  0  0  0  0  0  0
  1  7  1  0
  1 17  1  0
  2 17  2  0
  3 21  1  0
  3 24  1  0
  4  6  1  0
  4 12  1  0
  4 13  1  0
  5 17  1  0
  5 18  1  0
  6  7  1  0
  6  8  1  0
  7  9  1  0
  8 10  1  0
  9 11  1  0
 10 11  1  0
 12 14  1  0
 13 15  1  0
 14 16  1  0
 15 16  1  0
 18 19  2  0
 18 20  1  0
 19 21  1  0
 20 22  2  0
 21 23  2  0
 22 23  1  0
 24 25  1  0
 25 26  1  0
M  END
>  <PUBCHEM_COMPOUND_CID>  (1) 
37949

>  <PUBCHEM_CONFORMER_RMSD>  (1) 
1

>  <PUBCHEM_CONFORMER_DIVERSEORDER>  (1) 
2
61
60
43
28
21
32
24
59
85
7
102
16
96
42
51
31
57
98
36
91
93
81
62
84
66
40
73
37
99
95
65
104
49
13
80
79
10
53
39
55
52
103
20
76
105
46
54
44
68
29
45
50
70
101
5
75
87
78
48
86
11
56
89
88
23
8
18
22
77
64
58
3
19
4
90
30
33
63
74
82
83
17
6
41
71
72
25
34
35
100
47
1
9
12
92
97
67
26
15
38
69
27
94
14

>  <PUBCHEM_MMFF94_PARTIAL_CHARGES>  (1) 
22
1 -0.43
12 0.27
13 0.27
17 0.78
18 0.12
19 -0.15
2 -0.57
20 -0.15
21 0.08
22 -0.15
23 -0.15
24 0.28
3 -0.36
4 -0.81
47 0.37
48 0.15
49 0.15
5 -0.55
50 0.15
51 0.15
6 0.27
7 0.28

>  <PUBCHEM_EFFECTIVE_ROTOR_COUNT>  (1) 
10.4

>  <PUBCHEM_PHARMACOPHORE_FEATURES>  (1) 
8
1 2 acceptor
1 26 hydrophobe
1 3 acceptor
1 4 cation
1 5 donor
6 18 19 20 21 22 23 rings
6 4 12 13 14 15 16 rings
6 6 7 8 9 10 11 rings

>  <PUBCHEM_HEAVY_ATOM_COUNT>  (1) 
26

>  <PUBCHEM_ATOM_DEF_STEREO_COUNT>  (1) 
1

>  <PUBCHEM_ATOM_UDEF_STEREO_COUNT>  (1) 
1

>  <PUBCHEM_BOND_DEF_STEREO_COUNT>  (1) 
0

>  <PUBCHEM_BOND_UDEF_STEREO_COUNT>  (1) 
0

>  <PUBCHEM_ISOTOPIC_ATOM_COUNT>  (1) 
0

>  <PUBCHEM_COMPONENT_COUNT>  (1) 
1

>  <PUBCHEM_CACTVS_TAUTO_COUNT>  (1) 
2

>  <PUBCHEM_CONFORMER_ID>  (1) 
0000943D00000002

>  <PUBCHEM_MMFF94_ENERGY>  (1) 
54.8781

>  <PUBCHEM_FEATURE_SELFOVERLAP>  (1) 
40.596

>  <PUBCHEM_SHAPE_FINGERPRINT>  (1) 
100830 2 18338527343850678288
10595046 47 18335414694972306878
10670039 82 18202003248329193676
10912923 1 18334849498719250378
11101153 10 18338801246356674781
11135609 201 18261685873561898640
11273773 42 18335147543880021836
11578080 2 17202228251583834783
12107183 9 17762043350951683027
12236239 1 18187918478465615903
12390115 104 17773880801274561145
12596602 18 17967811643879304179
12788726 201 18340481257607032883
13583140 156 13695586650303310354
14202776 33 18272932751726265301
14784336 7 17976824507879566709
14790565 3 18334580123002580684
15021287 119 17897998033025716146
15183329 4 18407761456837310044
15513586 35 18261404363788327089
1768 23 18198921226895019064
17844677 252 18059847385589552874
20691028 202 18057044609996738617
21033650 10 18270135529916086310
21120745 212 18341333400856425187
21796203 349 17833852825642030939
2297311 6 17917709149807176871
249057 25 18335126580223849282
283562 15 18271515409273767487
2838139 119 18333456443820858816
341906 21 18058154060119996522
393628 179 17978789336235146420
397830 11 12901837168335935468
4258327 124 18338802217689384845
497634 4 18335412465868138247
5104073 3 17458062682018349554
5219985 9 18270109241360420527
5364581 5 12324825555679533838
543368 44 18261673778522497046
550186 7 17846496998337013975
6058803 2 18263908982382973954
7808743 9 18270963427843497537
9849439 229 17483117042932709737

>  <PUBCHEM_SHAPE_MULTIPOLES>  (1) 
507.5
17.18
4.27
1.71
24.04
3.7
0.63
9.27
-4.99
-3.09
0.12
0.09
0.24
-6.32

>  <PUBCHEM_SHAPE_SELFOVERLAP>  (1) 
1045.146

>  <PUBCHEM_SHAPE_VOLUME>  (1) 
289

>  <PUBCHEM_COORDINATE_TYPE>  (1) 
2
5
10

$$$$
