37940
     RDKit          3D

 26 28  0  0  1  0  0  0  0  0999 V2000
   -1.7410    0.8902    0.8412 O   0  0  0  0  0  0  0  0  0  0  0  0
   -1.1707   -1.3234    0.7712 O   0  0  0  0  0  0  0  0  0  0  0  0
    5.2553    0.3627    0.6037 O   0  0  0  0  0  0  0  0  0  0  0  0
   -4.9063   -0.2854   -0.6075 N   0  0  0  0  0  0  0  0  0  0  0  0
    0.4385    0.3768    0.7592 N   0  0  0  0  0  0  0  0  0  0  0  0
   -3.6193    0.3932   -0.5730 C   0  0  0  0  0  0  0  0  0  0  0  0
   -3.1228    0.5248    0.8765 C   0  0  0  0  0  0  0  0  0  0  0  0
   -3.6999    1.7669   -1.2606 C   0  0  0  0  0  0  0  0  0  0  0  0
   -3.9007    1.5700    1.6830 C   0  0  0  0  0  0  0  0  0  0  0  0
   -4.4863    2.7978   -0.4514 C   0  0  0  0  0  0  0  0  0  0  0  0
   -4.8543   -1.6128    0.0045 C   0  0  0  0  0  0  0  0  0  0  0  0
   -5.3802   -0.5148   -1.9721 C   0  0  0  0  0  0  0  0  0  0  0  0
   -3.9524    2.9225    0.9724 C   0  0  0  0  0  0  0  0  0  0  0  0
   -6.1422   -2.2618   -0.4803 C   0  0  0  0  0  0  0  0  0  0  0  0
   -6.4859   -1.5426   -1.7812 C   0  0  0  0  0  0  0  0  0  0  0  0
   -0.8406   -0.1439    0.7884 C   0  0  0  0  0  0  0  0  0  0  0  0
    1.6634   -0.3264    0.7036 C   0  0  0  0  0  0  0  0  0  0  0  0
    2.8695    0.3739    0.6806 C   0  0  0  0  0  0  0  0  0  0  0  0
    1.6659   -1.7210    0.6714 C   0  0  0  0  0  0  0  0  0  0  0  0
    4.0780   -0.3203    0.6258 C   0  0  0  0  0  0  0  0  0  0  0  0
    2.8745   -2.4152    0.6164 C   0  0  0  0  0  0  0  0  0  0  0  0
    4.0805   -1.7148    0.5937 C   0  0  0  0  0  0  0  0  0  0  0  0
    7.2580    0.8426   -0.6270 C   0  0  0  0  0  0  0  0  0  0  0  0
    6.3476   -0.2483   -0.0813 C   0  0  0  0  0  0  0  0  0  0  0  0
    8.4442    0.2580   -1.3885 C   0  0  0  0  0  0  0  0  0  0  0  0
    9.3273    1.3511   -1.9685 C   0  0  0  0  0  0  0  0  0  0  0  0
  1  7  1  0
  1 16  1  0
  2 16  2  0
  3 20  1  0
  3 24  1  0
  4  6  1  0
  4 11  1  0
  4 12  1  0
  5 16  1  0
  5 17  1  0
  6  7  1  0
  6  8  1  0
  7  9  1  0
  8 10  1  0
  9 13  1  0
 10 13  1  0
 11 14  1  0
 12 15  1  0
 14 15  1  0
 17 18  2  0
 17 19  1  0
 18 20  1  0
 19 21  2  0
 20 22  2  0
 21 22  1  0
 23 24  1  0
 23 25  1  0
 25 26  1  0
M  END
>  <PUBCHEM_COMPOUND_CID>  (1) 
37940

>  <PUBCHEM_CONFORMER_RMSD>  (1) 
1

>  <PUBCHEM_CONFORMER_DIVERSEORDER>  (1) 
2
62
89
64
96
23
38
51
95
27
72
33
69
10
73
5
83
91
42
48
90
29
58
67
20
35
87
14
21
40
82
68
88
34
31
56
84
66
41
52
46
22
75
7
25
36
65
94
92
85
74
55
80
77
78
26
79
59
39
47
70
53
63
50
43
15
86
4
11
12
60
37
19
81
76
24
44
18
57
93
30
49
16
61
97
13
54
17
71
1
45
6
8
3
28
32
9

>  <PUBCHEM_MMFF94_PARTIAL_CHARGES>  (1) 
22
1 -0.43
11 0.27
12 0.27
16 0.78
17 0.12
18 -0.15
19 -0.15
2 -0.57
20 0.08
21 -0.15
22 -0.15
24 0.28
3 -0.36
4 -0.81
45 0.37
46 0.15
47 0.15
48 0.15
49 0.15
5 -0.55
6 0.27
7 0.28

>  <PUBCHEM_EFFECTIVE_ROTOR_COUNT>  (1) 
11.2

>  <PUBCHEM_PHARMACOPHORE_FEATURES>  (1) 
8
1 2 acceptor
1 26 hydrophobe
1 3 acceptor
1 4 cation
1 5 donor
5 4 11 12 14 15 rings
6 17 18 19 20 21 22 rings
6 6 7 8 9 10 13 rings

>  <PUBCHEM_HEAVY_ATOM_COUNT>  (1) 
26

>  <PUBCHEM_ATOM_DEF_STEREO_COUNT>  (1) 
2

>  <PUBCHEM_ATOM_UDEF_STEREO_COUNT>  (1) 
0

>  <PUBCHEM_BOND_DEF_STEREO_COUNT>  (1) 
0

>  <PUBCHEM_BOND_UDEF_STEREO_COUNT>  (1) 
0

>  <PUBCHEM_ISOTOPIC_ATOM_COUNT>  (1) 
0

>  <PUBCHEM_COMPONENT_COUNT>  (1) 
1

>  <PUBCHEM_CACTVS_TAUTO_COUNT>  (1) 
2

>  <PUBCHEM_CONFORMER_ID>  (1) 
0000943400000002

>  <PUBCHEM_MMFF94_ENERGY>  (1) 
53.7173

>  <PUBCHEM_FEATURE_SELFOVERLAP>  (1) 
40.596

>  <PUBCHEM_SHAPE_FINGERPRINT>  (1) 
10291535 26 14345788306930394733
10554248 39 17822285735689127234
10595046 47 18409724028398686563
10669705 176 18261116292596073366
11089746 13 14056998330103667119
11101153 10 18335983168180064605
11315181 36 17167581600942415149
11315621 246 17774715471928243599
11387372 6 13973391526758503045
11973863 73 13038643812237941774
12082328 90 17560806511447223748
12895837 130 18041840593842172725
13631057 29 18341885321276146139
13668630 136 17060053778555772838
13690498 29 17917706907628246941
13782708 43 13829845778368444992
14118638 360 18411132519995076010
15064986 266 18335424531006285163
15183329 4 18186801388095411676
15352257 5 15698284430025878438
1577012 14 18409731725591783440
17780758 139 8286199448561097519
1818759 1 13254529665336534060
18335252 114 17894351095428262356
18643901 69 17489585689002742053
18927931 339 16917060049928574009
19427546 20 18340481189256405449
2026 5 15984280522105584974
21150785 3 18408041836201818598
21403212 168 10231766608800629647
22288116 15 18343304786054469518
23081809 10 18335136450090051826
23559900 14 18269534153502054809
23576562 1 17970918984567754332
3103668 31 17977667833879156894
3178227 256 12319739185583552358
34797466 226 16773508975989989258
4073 2 18041002804113955595
4169191 19 17386014983548310372
445580 37 18409731776915216894
497634 4 18339071610880445869
5283384 27 16950281832632640822
58260988 114 13110383729326263565
636775 8 18130793416021019382
9980921 7 17387138770658245852
999808 66 14117802414515951812

>  <PUBCHEM_SHAPE_MULTIPOLES>  (1) 
507.5
23.65
2.61
1.62
45.09
0.57
-0.62
3.16
-15.58
-3.92
0.14
-0.4
0.29
-3.29

>  <PUBCHEM_SHAPE_SELFOVERLAP>  (1) 
1045.613

>  <PUBCHEM_SHAPE_VOLUME>  (1) 
291

>  <PUBCHEM_COORDINATE_TYPE>  (1) 
2
5
10

$$$$
