37965
     RDKit          3D

 26 28  0  0  0  0  0  0  0  0999 V2000
   -1.2994   -1.2218    0.2815 O   0  0  0  0  0  0  0  0  0  0  0  0
   -0.0328    0.2843   -0.8836 O   0  0  0  0  0  0  0  0  0  0  0  0
    6.3979   -0.6107   -0.2561 O   0  0  0  0  0  0  0  0  0  0  0  0
   -6.5691    0.7030   -0.2037 N   0  0  0  0  0  0  0  0  0  0  0  0
    0.9321   -1.4118    0.4096 N   0  0  0  0  0  0  0  0  0  0  0  0
   -5.3238    0.0951    0.2409 C   0  0  0  0  0  0  0  0  0  0  0  0
   -4.9126   -1.0157   -0.7327 C   0  0  0  0  0  0  0  0  0  0  0  0
   -4.2227    1.1555    0.3688 C   0  0  0  0  0  0  0  0  0  0  0  0
   -3.5790   -1.6400   -0.3300 C   0  0  0  0  0  0  0  0  0  0  0  0
   -2.8902    0.5264    0.7677 C   0  0  0  0  0  0  0  0  0  0  0  0
   -2.4812   -0.5873   -0.1951 C   0  0  0  0  0  0  0  0  0  0  0  0
   -7.0371    1.7473    0.7071 C   0  0  0  0  0  0  0  0  0  0  0  0
   -7.6674   -0.2607   -0.2726 C   0  0  0  0  0  0  0  0  0  0  0  0
   -8.4825    1.9509    0.2776 C   0  0  0  0  0  0  0  0  0  0  0  0
   -8.8978    0.6300   -0.3629 C   0  0  0  0  0  0  0  0  0  0  0  0
   -0.1070   -0.6858   -0.1393 C   0  0  0  0  0  0  0  0  0  0  0  0
    2.3207   -1.2074    0.2417 C   0  0  0  0  0  0  0  0  0  0  0  0
    2.7798   -0.1652   -0.5636 C   0  0  0  0  0  0  0  0  0  0  0  0
    3.2318   -2.0488    0.8802 C   0  0  0  0  0  0  0  0  0  0  0  0
    4.1499    0.0359   -0.7303 C   0  0  0  0  0  0  0  0  0  0  0  0
    4.6020   -1.8479    0.7135 C   0  0  0  0  0  0  0  0  0  0  0  0
    5.0610   -0.8054   -0.0917 C   0  0  0  0  0  0  0  0  0  0  0  0
    8.2478    0.8843    0.0586 C   0  0  0  0  0  0  0  0  0  0  0  0
    6.8356    0.7275   -0.4874 C   0  0  0  0  0  0  0  0  0  0  0  0
    8.7752    2.3022   -0.1416 C   0  0  0  0  0  0  0  0  0  0  0  0
   10.1687    2.4660    0.4435 C   0  0  0  0  0  0  0  0  0  0  0  0
  1 11  1  0
  1 16  1  0
  2 16  2  0
  3 22  1  0
  3 24  1  0
  4  6  1  0
  4 12  1  0
  4 13  1  0
  5 16  1  0
  5 17  1  0
  6  7  1  0
  6  8  1  0
  7  9  1  0
  8 10  1  0
  9 11  1  0
 10 11  1  0
 12 14  1  0
 13 15  1  0
 14 15  1  0
 17 18  2  0
 17 19  1  0
 18 20  1  0
 19 21  2  0
 20 22  2  0
 21 22  1  0
 23 24  1  0
 23 25  1  0
 25 26  1  0
M  END
>  <PUBCHEM_COMPOUND_CID>  (1) 
37965

>  <PUBCHEM_CONFORMER_RMSD>  (1) 
1

>  <PUBCHEM_CONFORMER_DIVERSEORDER>  (1) 
1
33
36
21
50
7
20
37
27
52
39
47
54
22
16
42
46
2
24
34
48
55
6
26
44
10
8
19
35
5
18
32
41
4
43
40
45
28
53
38
13
17
31
15
3
51
49
29
14
11
12
30
23
25
9

>  <PUBCHEM_MMFF94_PARTIAL_CHARGES>  (1) 
22
1 -0.43
11 0.28
12 0.27
13 0.27
16 0.78
17 0.12
18 -0.15
19 -0.15
2 -0.57
20 -0.15
21 -0.15
22 0.08
24 0.28
3 -0.36
4 -0.81
45 0.37
46 0.15
47 0.15
48 0.15
49 0.15
5 -0.55
6 0.27

>  <PUBCHEM_EFFECTIVE_ROTOR_COUNT>  (1) 
11.2

>  <PUBCHEM_PHARMACOPHORE_FEATURES>  (1) 
8
1 2 acceptor
1 26 hydrophobe
1 3 acceptor
1 4 cation
1 5 donor
5 4 12 13 14 15 rings
6 17 18 19 20 21 22 rings
6 6 7 8 9 10 11 rings

>  <PUBCHEM_HEAVY_ATOM_COUNT>  (1) 
26

>  <PUBCHEM_ATOM_DEF_STEREO_COUNT>  (1) 
0

>  <PUBCHEM_ATOM_UDEF_STEREO_COUNT>  (1) 
0

>  <PUBCHEM_BOND_DEF_STEREO_COUNT>  (1) 
0

>  <PUBCHEM_BOND_UDEF_STEREO_COUNT>  (1) 
0

>  <PUBCHEM_ISOTOPIC_ATOM_COUNT>  (1) 
0

>  <PUBCHEM_COMPONENT_COUNT>  (1) 
1

>  <PUBCHEM_CACTVS_TAUTO_COUNT>  (1) 
2

>  <PUBCHEM_CONFORMER_ID>  (1) 
0000944D00000001

>  <PUBCHEM_MMFF94_ENERGY>  (1) 
52.25

>  <PUBCHEM_FEATURE_SELFOVERLAP>  (1) 
40.596

>  <PUBCHEM_SHAPE_FINGERPRINT>  (1) 
10 15 17749107790424800072
10162869 55 17749107829243400127
106641 1 17967819349546160875
11315181 36 18131918157261994779
11386260 185 14764338367294070602
11463208 3 10519690212772252037
11524674 6 14924239205513805793
11578821 258 18409727327425161269
11638347 137 11963388549168622804
12089408 11 18343300349379899135
12236239 1 18335701603604684899
12838862 33 17749380485955549445
13073987 5 15502646041025477351
13530399 1 18200600203137555953
13668630 136 11239996741729262150
14251764 18 18408603643720306327
14251764 46 15068627076050911111
14251920 17 18411417341378778261
14344974 52 17988639748119740533
14428016 248 17988931050752102641
14617042 71 18335424608284567708
15183329 4 18060137605562432523
15198563 99 14764073315998039067
15419008 47 15984813801860455403
15461852 350 17489582382020543935
155225 1 18411419518210006460
15604295 49 18410852179080187740
1577012 14 18410006632973258703
15840311 113 18407763625969790044
16989713 51 17059199506273649079
1754911 235 18131070450602607580
1818759 1 10087641511486434540
195137 175 18202287995933795089
2026 5 9006795180831120600
20505436 4 18413101775902691494
20812841 46 17967809432941389490
21150785 3 17060621101070458518
22224240 67 17530686498210580755
23524908 199 17989216928845277732
23576562 1 16127794400746586705
246663 6 11600005452987079980
24771293 8 18187644747868120236
306946 40 17022889143961750469
3178227 256 15357699699995610620
335352 9 18131063832606357605
3711267 37 18341345434532752649
4073 2 18334017202513531610
445580 126 18040714792892975316
5758199 1 18259985985762420314
5937810 71 17632588106549923073
59682541 35 17821732749146878441
636775 72 18410857634110471465
67123 10 18411982464485288239

>  <PUBCHEM_SHAPE_MULTIPOLES>  (1) 
507.5
33.19
2.19
0.83
16.81
0.56
0.02
26.78
0.14
2.83
0.43
0.04
-0.05
-1.05

>  <PUBCHEM_SHAPE_SELFOVERLAP>  (1) 
1044.373

>  <PUBCHEM_SHAPE_VOLUME>  (1) 
291.7

>  <PUBCHEM_COORDINATE_TYPE>  (1) 
2
5
10

$$$$
