37967
     RDKit          3D

 27 29  0  0  1  0  0  0  0  0999 V2000
   -2.4425   -1.4490    1.0096 O   0  0  0  0  0  0  0  0  0  0  0  0
   -1.4584    0.5743    1.4193 O   0  0  0  0  0  0  0  0  0  0  0  0
    4.7112    0.9595   -0.6077 O   0  0  0  0  0  0  0  0  0  0  0  0
   -5.0470    0.8528   -0.1930 N   0  0  0  0  0  0  0  0  0  0  0  0
   -0.3150   -1.1742    0.3630 N   0  0  0  0  0  0  0  0  0  0  0  0
   -3.9062   -0.0424   -0.3176 C   0  0  0  0  0  0  0  0  0  0  0  0
   -3.7528   -0.8800    0.9639 C   0  0  0  0  0  0  0  0  0  0  0  0
   -4.0449   -0.9316   -1.5650 C   0  0  0  0  0  0  0  0  0  0  0  0
   -4.7996   -1.9917    1.0940 C   0  0  0  0  0  0  0  0  0  0  0  0
   -5.1184   -2.0095   -1.4181 C   0  0  0  0  0  0  0  0  0  0  0  0
   -4.9341    1.7439    0.9614 C   0  0  0  0  0  0  0  0  0  0  0  0
   -5.1881    1.7413   -1.3462 C   0  0  0  0  0  0  0  0  0  0  0  0
   -4.9046   -2.8525   -0.1649 C   0  0  0  0  0  0  0  0  0  0  0  0
   -5.9835    2.8079    0.6752 C   0  0  0  0  0  0  0  0  0  0  0  0
   -6.1531    2.8037   -0.8411 C   0  0  0  0  0  0  0  0  0  0  0  0
   -1.3948   -0.5640    0.9712 C   0  0  0  0  0  0  0  0  0  0  0  0
    0.9660   -0.6306    0.1150 C   0  0  0  0  0  0  0  0  0  0  0  0
    1.9246   -1.4094   -0.5133 C   0  0  0  0  0  0  0  0  0  0  0  0
    1.2385    0.6706    0.5065 C   0  0  0  0  0  0  0  0  0  0  0  0
    7.0662    0.7906   -0.1804 C   0  0  0  0  0  0  0  0  0  0  0  0
    8.2846   -0.1294   -0.1580 C   0  0  0  0  0  0  0  0  0  0  0  0
    3.1890   -0.8730   -0.7566 C   0  0  0  0  0  0  0  0  0  0  0  0
    2.5029    1.2071    0.2632 C   0  0  0  0  0  0  0  0  0  0  0  0
    3.4783    0.4353   -0.3685 C   0  0  0  0  0  0  0  0  0  0  0  0
    5.8113    0.0509   -0.6223 C   0  0  0  0  0  0  0  0  0  0  0  0
    9.5311    0.6102    0.3272 C   0  0  0  0  0  0  0  0  0  0  0  0
   10.7392   -0.3111    0.3832 C   0  0  0  0  0  0  0  0  0  0  0  0
  1  7  1  0
  1 16  1  0
  2 16  2  0
  3 24  1  0
  3 25  1  0
  4  6  1  0
  4 11  1  0
  4 12  1  0
  5 16  1  0
  5 17  1  0
  6  7  1  0
  6  8  1  0
  7  9  1  0
  8 10  1  0
  9 13  1  0
 10 13  1  0
 11 14  1  0
 12 15  1  0
 14 15  1  0
 17 18  2  0
 17 19  1  0
 18 22  1  0
 19 23  2  0
 20 21  1  0
 20 25  1  0
 21 26  1  0
 22 24  2  0
 23 24  1  0
 26 27  1  0
M  END
>  <PUBCHEM_COMPOUND_CID>  (1) 
37967

>  <PUBCHEM_CONFORMER_RMSD>  (1) 
1

>  <PUBCHEM_CONFORMER_DIVERSEORDER>  (1) 
1
110
7
81
6
33
63
80
45
91
25
117
93
39
142
100
61
41
62
29
83
120
27
132
128
24
49
148
13
147
36
60
86
85
126
99
127
87
38
50
48
53
18
35
150
136
58
77
73
89
16
14
19
90
79
67
98
134
137
107
138
130
71
125
84
111
31
149
114
22
51
42
95
133
3
135
78
146
23
116
20
4
108
122
101
105
68
131
28
123
17
112
2
94
104
46
88
8
34
119
139
21
37
109
44
40
143
92
118
65
74
47
57
140
82
26
43
141
96
129
12
76
56
115
124
72
11
54
55
75
121
144
102
103
151
15
30
9
113
145
106
5
32
66
97
52
59
69
70
10
64

>  <PUBCHEM_MMFF94_PARTIAL_CHARGES>  (1) 
22
1 -0.43
11 0.27
12 0.27
16 0.78
17 0.12
18 -0.15
19 -0.15
2 -0.57
22 -0.15
23 -0.15
24 0.08
25 0.28
3 -0.36
4 -0.81
46 0.37
47 0.15
48 0.15
5 -0.55
53 0.15
54 0.15
6 0.27
7 0.28

>  <PUBCHEM_EFFECTIVE_ROTOR_COUNT>  (1) 
12.2

>  <PUBCHEM_PHARMACOPHORE_FEATURES>  (1) 
8
1 2 acceptor
1 27 hydrophobe
1 3 acceptor
1 4 cation
1 5 donor
5 4 11 12 14 15 rings
6 17 18 19 22 23 24 rings
6 6 7 8 9 10 13 rings

>  <PUBCHEM_HEAVY_ATOM_COUNT>  (1) 
27

>  <PUBCHEM_ATOM_DEF_STEREO_COUNT>  (1) 
1

>  <PUBCHEM_ATOM_UDEF_STEREO_COUNT>  (1) 
1

>  <PUBCHEM_BOND_DEF_STEREO_COUNT>  (1) 
0

>  <PUBCHEM_BOND_UDEF_STEREO_COUNT>  (1) 
0

>  <PUBCHEM_ISOTOPIC_ATOM_COUNT>  (1) 
0

>  <PUBCHEM_COMPONENT_COUNT>  (1) 
1

>  <PUBCHEM_CACTVS_TAUTO_COUNT>  (1) 
2

>  <PUBCHEM_CONFORMER_ID>  (1) 
0000944F00000001

>  <PUBCHEM_MMFF94_ENERGY>  (1) 
58.7261

>  <PUBCHEM_FEATURE_SELFOVERLAP>  (1) 
40.596

>  <PUBCHEM_SHAPE_FINGERPRINT>  (1) 
10076449 9 8286193964684432764
10577160 183 18261663818973814194
10670039 82 18040428910710158701
10835480 77 18341333301586867870
11135926 11 16917359129586036430
11181472 205 17895203161094995780
11273773 118 16371002988370737597
11315181 36 17749108941207211495
12082328 90 18334576866990401414
12089408 11 18040716983879989108
12091667 2 18411141363237578578
13690498 29 17917139615995847967
13885169 127 18259984882024072104
13914758 101 18259987068236272480
14040221 310 17560787836380957117
15183329 4 16950274131571610522
1577012 14 18186796964162942306
17093844 174 18412826888966968889
21095123 145 8070020078611287544
21360442 43 18335983185122946738
21709351 56 18342177799426098253
21756936 100 17458348524934562857
21792965 68 17240476975543464293
21927370 108 17313960748507006755
22224240 67 16486977319966131382
22393880 68 18130782382740177995
23523787 8 16700588128207694373
23559900 14 18131627885390837689
2838139 119 18113339730040081444
5924683 9 9367343735423203095

>  <PUBCHEM_SHAPE_MULTIPOLES>  (1) 
528.08
27.1
2.56
1.23
76.03
0.37
-0.09
6.98
-1.2
-7.68
-0.13
-1.82
-0.11
0.17

>  <PUBCHEM_SHAPE_SELFOVERLAP>  (1) 
1085.001

>  <PUBCHEM_SHAPE_VOLUME>  (1) 
304

>  <PUBCHEM_COORDINATE_TYPE>  (1) 
2
5
10

$$$$
