37969
     RDKit          3D

 28 30  0  0  1  0  0  0  0  0999 V2000
    3.0093   -1.3733    0.0862 O   0  0  0  0  0  0  0  0  0  0  0  0
    1.5770    0.1064    1.0808 O   0  0  0  0  0  0  0  0  0  0  0  0
   -4.7174   -1.4971    0.4826 O   0  0  0  0  0  0  0  0  0  0  0  0
    5.2688    1.5204   -0.0611 N   0  0  0  0  0  0  0  0  0  0  0  0
    0.8135   -1.7998   -0.0435 N   0  0  0  0  0  0  0  0  0  0  0  0
    4.3826    0.4856   -0.5727 C   0  0  0  0  0  0  0  0  0  0  0  0
    4.1164   -0.5738    0.5097 C   0  0  0  0  0  0  0  0  0  0  0  0
    4.9576   -0.1540   -1.8481 C   0  0  0  0  0  0  0  0  0  0  0  0
    5.3239   -1.4811    0.7690 C   0  0  0  0  0  0  0  0  0  0  0  0
    6.1672   -1.0486   -1.5779 C   0  0  0  0  0  0  0  0  0  0  0  0
    4.7318    2.1763    1.1308 C   0  0  0  0  0  0  0  0  0  0  0  0
    5.4820    2.5997   -1.0249 C   0  0  0  0  0  0  0  0  0  0  0  0
    5.8619   -2.1039   -0.5190 C   0  0  0  0  0  0  0  0  0  0  0  0
    5.5906    3.4269    1.2469 C   0  0  0  0  0  0  0  0  0  0  0  0
    6.0806    3.7072   -0.1703 C   0  0  0  0  0  0  0  0  0  0  0  0
    1.7632   -0.9206    0.4394 C   0  0  0  0  0  0  0  0  0  0  0  0
   -0.5916   -1.7221    0.0888 C   0  0  0  0  0  0  0  0  0  0  0  0
   -1.1692   -0.6569    0.7797 C   0  0  0  0  0  0  0  0  0  0  0  0
   -1.4007   -2.7114   -0.4703 C   0  0  0  0  0  0  0  0  0  0  0  0
   -7.3701    1.1362    0.0510 C   0  0  0  0  0  0  0  0  0  0  0  0
   -6.7019   -0.2368   -0.0011 C   0  0  0  0  0  0  0  0  0  0  0  0
   -8.8041    1.1364   -0.4861 C   0  0  0  0  0  0  0  0  0  0  0  0
   -5.2918   -0.1941    0.5728 C   0  0  0  0  0  0  0  0  0  0  0  0
   -9.4641    2.5155   -0.4566 C   0  0  0  0  0  0  0  0  0  0  0  0
   -3.3647   -1.5701    0.3522 C   0  0  0  0  0  0  0  0  0  0  0  0
   -2.5558   -0.5808    0.9115 C   0  0  0  0  0  0  0  0  0  0  0  0
   -2.7872   -2.6354   -0.3386 C   0  0  0  0  0  0  0  0  0  0  0  0
  -10.9079    2.4491   -0.9312 C   0  0  0  0  0  0  0  0  0  0  0  0
  1  7  1  0
  1 16  1  0
  2 16  2  0
  3 23  1  0
  3 25  1  0
  4  6  1  0
  4 11  1  0
  4 12  1  0
  5 16  1  0
  5 17  1  0
  6  7  1  0
  6  8  1  0
  7  9  1  0
  8 10  1  0
  9 13  1  0
 10 13  1  0
 11 14  1  0
 12 15  1  0
 14 15  1  0
 17 18  2  0
 17 19  1  0
 18 26  1  0
 19 27  2  0
 20 21  1  0
 20 22  1  0
 21 23  1  0
 22 24  1  0
 24 28  1  0
 25 26  2  0
 25 27  1  0
M  END
>  <PUBCHEM_COMPOUND_CID>  (1) 
37969

>  <PUBCHEM_CONFORMER_RMSD>  (1) 
1.2

>  <PUBCHEM_CONFORMER_DIVERSEORDER>  (1) 
1
29
26
55
12
17
34
11
50
31
49
19
38
33
37
45
15
39
13
40
3
30
36
16
35
47
5
44
20
53
51
7
28
6
21
43
27
52
32
8
46
41
48
25
9
22
24
18
42
54
2
14
10
4
23

>  <PUBCHEM_MMFF94_PARTIAL_CHARGES>  (1) 
22
1 -0.43
11 0.27
12 0.27
16 0.78
17 0.12
18 -0.15
19 -0.15
2 -0.57
23 0.28
25 0.08
26 -0.15
27 -0.15
3 -0.36
4 -0.81
47 0.37
48 0.15
49 0.15
5 -0.55
6 0.27
60 0.15
61 0.15
7 0.28

>  <PUBCHEM_EFFECTIVE_ROTOR_COUNT>  (1) 
13.2

>  <PUBCHEM_PHARMACOPHORE_FEATURES>  (1) 
9
1 2 acceptor
1 28 hydrophobe
1 3 acceptor
1 4 cation
1 5 donor
4 20 21 22 24 hydrophobe
5 4 11 12 14 15 rings
6 17 18 19 25 26 27 rings
6 6 7 8 9 10 13 rings

>  <PUBCHEM_HEAVY_ATOM_COUNT>  (1) 
28

>  <PUBCHEM_ATOM_DEF_STEREO_COUNT>  (1) 
2

>  <PUBCHEM_ATOM_UDEF_STEREO_COUNT>  (1) 
0

>  <PUBCHEM_BOND_DEF_STEREO_COUNT>  (1) 
0

>  <PUBCHEM_BOND_UDEF_STEREO_COUNT>  (1) 
0

>  <PUBCHEM_ISOTOPIC_ATOM_COUNT>  (1) 
0

>  <PUBCHEM_COMPONENT_COUNT>  (1) 
1

>  <PUBCHEM_CACTVS_TAUTO_COUNT>  (1) 
2

>  <PUBCHEM_CONFORMER_ID>  (1) 
0000945100000001

>  <PUBCHEM_MMFF94_ENERGY>  (1) 
53.5458

>  <PUBCHEM_FEATURE_SELFOVERLAP>  (1) 
45.671

>  <PUBCHEM_SHAPE_FINGERPRINT>  (1) 
10280341 67 18057314197052600304
10554248 39 18131914849251415054
11135609 127 18201150040407102424
11211813 74 18409445869880819021
11386260 185 17988934379330898012
125118 31 18334575754746729113
12539765 74 18201442450671781767
12661589 4 8430326770447475824
12664476 115 17968094196881789086
13782708 43 10880002349998151555
14117953 113 17846509097756272342
14211702 104 9727640513541266677
14251757 52 18334010601617496913
15183329 4 18202009814917626914
15347591 1 18338515356306993322
15392192 104 15068635868065205835
15510800 12 11455885910801330325
15840311 113 18260268534343512957
16994733 274 18114178662302744697
17852330 53 14129887065492709437
18335252 114 18272087167592572281
2026 5 11167946849423089765
20691028 202 18335984259243455157
20721686 124 18129664093331899071
21033648 29 17822007657371872398
212700 22 10591746685965971445
21298829 104 18335984288897276341
21585482 111 18335985375883133500
21792934 111 18411409588662057800
22149856 69 10953731180319897767
2838139 119 18336819810860954335
3004659 81 18202292416188742154
33532 11 9727630610264592833
3918712 181 18411975875926958945
406291 66 10015592700983914877
5718773 13 9583522019168735345
57359948 33 18131624591715352696
59682541 52 17060625486021194790
6898599 12 18057604467689400359

>  <PUBCHEM_SHAPE_MULTIPOLES>  (1) 
548.66
29.61
3.93
1.2
76.77
2.91
0.23
29.13
8.22
-3.27
0.08
-1.57
0.25
2.52

>  <PUBCHEM_SHAPE_SELFOVERLAP>  (1) 
1120.991

>  <PUBCHEM_SHAPE_VOLUME>  (1) 
317.7

>  <PUBCHEM_COORDINATE_TYPE>  (1) 
2
5
10

$$$$
