37961
     RDKit          3D

 28 29  0  0  1  0  0  0  0  0999 V2000
   -3.0391   -0.7258    0.3248 O   0  0  0  0  0  0  0  0  0  0  0  0
   -1.4642   -0.5338   -1.3223 O   0  0  0  0  0  0  0  0  0  0  0  0
    4.6579   -1.3919    0.7592 O   0  0  0  0  0  0  0  0  0  0  0  0
   -4.8375    1.5532    0.5574 N   0  0  0  0  0  0  0  0  0  0  0  0
   -0.8903   -0.9955    0.8999 N   0  0  0  0  0  0  0  0  0  0  0  0
   -5.2393    0.2339    0.0610 C   0  0  0  0  0  0  0  0  0  0  0  0
   -4.0625   -0.4676   -0.6347 C   0  0  0  0  0  0  0  0  0  0  0  0
   -6.4333    0.3947   -0.8867 C   0  0  0  0  0  0  0  0  0  0  0  0
   -4.4956   -1.7981   -1.2549 C   0  0  0  0  0  0  0  0  0  0  0  0
   -6.8530   -0.9425   -1.4932 C   0  0  0  0  0  0  0  0  0  0  0  0
   -5.6851   -1.6303   -2.1926 C   0  0  0  0  0  0  0  0  0  0  0  0
   -4.3979    2.3998   -0.5496 C   0  0  0  0  0  0  0  0  0  0  0  0
   -5.9417    2.1824    1.2784 C   0  0  0  0  0  0  0  0  0  0  0  0
   -3.9764    3.7736   -0.0564 C   0  0  0  0  0  0  0  0  0  0  0  0
   -6.3717    1.3402    2.4675 C   0  0  0  0  0  0  0  0  0  0  0  0
   -1.7512   -0.7337   -0.1483 C   0  0  0  0  0  0  0  0  0  0  0  0
    0.5193   -1.0946    0.8644 C   0  0  0  0  0  0  0  0  0  0  0  0
    7.5095    0.5855   -0.6952 C   0  0  0  0  0  0  0  0  0  0  0  0
    8.9246    0.9321   -0.2244 C   0  0  0  0  0  0  0  0  0  0  0  0
    6.7279   -0.2657    0.3042 C   0  0  0  0  0  0  0  0  0  0  0  0
    1.2289   -1.3679    2.0338 C   0  0  0  0  0  0  0  0  0  0  0  0
    1.2006   -0.9207   -0.3402 C   0  0  0  0  0  0  0  0  0  0  0  0
    5.3410   -0.6120   -0.2210 C   0  0  0  0  0  0  0  0  0  0  0  0
    9.6980    1.8047   -1.2139 C   0  0  0  0  0  0  0  0  0  0  0  0
    3.3010   -1.2930    0.7940 C   0  0  0  0  0  0  0  0  0  0  0  0
    2.6196   -1.4671    1.9987 C   0  0  0  0  0  0  0  0  0  0  0  0
    2.5914   -1.0199   -0.3755 C   0  0  0  0  0  0  0  0  0  0  0  0
   11.1191    2.0600   -0.7346 C   0  0  0  0  0  0  0  0  0  0  0  0
  1  7  1  0
  1 16  1  0
  2 16  2  0
  3 23  1  0
  3 25  1  0
  4  6  1  0
  4 12  1  0
  4 13  1  0
  5 16  1  0
  5 17  1  0
  6  7  1  0
  6  8  1  0
  7  9  1  0
  8 10  1  0
  9 11  1  0
 10 11  1  0
 12 14  1  0
 13 15  1  0
 17 21  2  0
 17 22  1  0
 18 19  1  0
 18 20  1  0
 19 24  1  0
 20 23  1  0
 21 26  1  0
 22 27  2  0
 24 28  1  0
 25 26  2  0
 25 27  1  0
M  END
>  <PUBCHEM_COMPOUND_CID>  (1) 
37961

>  <PUBCHEM_CONFORMER_RMSD>  (1) 
1.2

>  <PUBCHEM_CONFORMER_DIVERSEORDER>  (1) 
1
25
34
40
6
28
13
23
24
2
36
12
32
22
29
39
30
14
31
37
33
35
27
41
9
21
11
17
10
38
5
19
7
20
15
8
18
3
26
4
16

>  <PUBCHEM_MMFF94_PARTIAL_CHARGES>  (1) 
22
1 -0.43
12 0.27
13 0.27
16 0.78
17 0.12
2 -0.57
21 -0.15
22 -0.15
23 0.28
25 0.08
26 -0.15
27 -0.15
3 -0.36
4 -0.81
49 0.37
5 -0.55
56 0.15
57 0.15
6 0.27
62 0.15
63 0.15
7 0.28

>  <PUBCHEM_EFFECTIVE_ROTOR_COUNT>  (1) 
14.2

>  <PUBCHEM_PHARMACOPHORE_FEATURES>  (1) 
8
1 2 acceptor
1 28 hydrophobe
1 3 acceptor
1 4 cation
1 5 donor
4 18 19 20 24 hydrophobe
6 17 21 22 25 26 27 rings
6 6 7 8 9 10 11 rings

>  <PUBCHEM_HEAVY_ATOM_COUNT>  (1) 
28

>  <PUBCHEM_ATOM_DEF_STEREO_COUNT>  (1) 
2

>  <PUBCHEM_ATOM_UDEF_STEREO_COUNT>  (1) 
0

>  <PUBCHEM_BOND_DEF_STEREO_COUNT>  (1) 
0

>  <PUBCHEM_BOND_UDEF_STEREO_COUNT>  (1) 
0

>  <PUBCHEM_ISOTOPIC_ATOM_COUNT>  (1) 
0

>  <PUBCHEM_COMPONENT_COUNT>  (1) 
1

>  <PUBCHEM_CACTVS_TAUTO_COUNT>  (1) 
2

>  <PUBCHEM_CONFORMER_ID>  (1) 
0000944900000001

>  <PUBCHEM_MMFF94_ENERGY>  (1) 
60.3442

>  <PUBCHEM_FEATURE_SELFOVERLAP>  (1) 
40.594

>  <PUBCHEM_SHAPE_FINGERPRINT>  (1) 
10 15 14418138418047903822
11273773 42 18334012804861639188
11315181 36 18335136506067414887
12082328 90 18201998824439188750
14849402 71 18187087273814060156
14856354 85 18343297094137808151
15183329 4 18341888580523035234
15198563 99 15697731324612266880
1577012 14 18411981339235602722
16994733 274 18410290299110829840
17093844 174 14996281410298867311
1754908 1 11674878923133934196
17686467 74 18339916134378287659
17844677 252 17489294314021295931
1818759 1 11887680594017629820
195137 175 18412547613482979576
2026 5 12031251481178864044
21033648 29 15912457153687585691
21307412 95 14333405666823164836
21792961 116 16343710937223092134
23081809 10 18338224981978379202
23522609 53 18269560450811186242
23576562 1 17986102140345633860
24771293 8 18187085062185062292
3711267 37 17530972402105773748
4073 2 18408889524922941554
4098825 35 18200030634417406654
4107672 100 17703788141230632334
4169191 19 17967249806517214556
4173938 188 16877949369235421593
445580 37 17918274238263518643
5104073 3 15358529723188346616
5470011 282 16056885754544018076
5758199 1 17894631453138722530
5937810 71 18202290190910471128
59682541 35 16226051106791094528
636775 72 18260832622769969572
636775 8 16486976258033465662

>  <PUBCHEM_SHAPE_MULTIPOLES>  (1) 
548.66
30.46
2.73
1.83
79.1
2.64
0.58
20.85
-10.64
-2.4
0.02
-2.4
-0.43
-4.94

>  <PUBCHEM_SHAPE_SELFOVERLAP>  (1) 
1100.413

>  <PUBCHEM_SHAPE_VOLUME>  (1) 
322.7

>  <PUBCHEM_COORDINATE_TYPE>  (1) 
2
5
10

$$$$
