3796
     RDKit          3D

 24 26  0  0  0  0  0  0  0  0999 V2000
    4.7323   -1.6431   -2.3530 Br  0  0  0  0  0  0  0  0  0  0  0  0
    5.5182    2.3515    1.6990 Br  0  0  0  0  0  0  0  0  0  0  0  0
   -3.6705    2.4437   -0.3283 O   0  0  0  0  0  0  0  0  0  0  0  0
   -5.4862    0.3450   -0.4708 O   0  0  0  0  0  0  0  0  0  0  0  0
    6.2522    0.3801   -0.5712 O   0  0  0  0  0  0  0  0  0  0  0  0
    0.8143    0.2549    0.6071 N   0  0  0  0  0  0  0  0  0  0  0  0
   -1.9914   -2.7786    0.3716 N   0  0  0  0  0  0  0  0  0  0  0  0
    0.2770   -2.0340    0.6979 N   0  0  0  0  0  0  0  0  0  0  0  0
   -1.4860   -0.4363    0.2710 C   0  0  0  0  0  0  0  0  0  0  0  0
   -2.3928   -1.5065    0.2021 C   0  0  0  0  0  0  0  0  0  0  0  0
   -0.1587   -0.7721    0.5233 C   0  0  0  0  0  0  0  0  0  0  0  0
   -1.9171    0.8897    0.0921 C   0  0  0  0  0  0  0  0  0  0  0  0
   -3.2595    1.1573   -0.1575 C   0  0  0  0  0  0  0  0  0  0  0  0
   -3.7304   -1.2099   -0.0488 C   0  0  0  0  0  0  0  0  0  0  0  0
   -4.1670    0.1061   -0.2279 C   0  0  0  0  0  0  0  0  0  0  0  0
    2.1859    0.2866    0.3099 C   0  0  0  0  0  0  0  0  0  0  0  0
    3.0391    1.1425    1.0129 C   0  0  0  0  0  0  0  0  0  0  0  0
    2.7085   -0.5377   -0.6914 C   0  0  0  0  0  0  0  0  0  0  0  0
   -0.6785   -2.9733    0.6099 C   0  0  0  0  0  0  0  0  0  0  0  0
    4.0714   -0.5063   -0.9867 C   0  0  0  0  0  0  0  0  0  0  0  0
    4.4020    1.1739    0.7176 C   0  0  0  0  0  0  0  0  0  0  0  0
    4.9181    0.3495   -0.2822 C   0  0  0  0  0  0  0  0  0  0  0  0
   -3.6555    2.9587   -1.6587 C   0  0  0  0  0  0  0  0  0  0  0  0
   -6.3255    0.5580    0.6624 C   0  0  0  0  0  0  0  0  0  0  0  0
  1 20  1  0
  2 21  1  0
  3 13  1  0
  3 23  1  0
  4 15  1  0
  4 24  1  0
  5 22  1  0
  6 11  1  0
  6 16  1  0
  7 10  2  0
  7 19  1  0
  8 11  1  0
  8 19  2  0
  9 10  1  0
  9 11  2  0
  9 12  1  0
 10 14  1  0
 12 13  2  0
 13 15  1  0
 14 15  2  0
 16 17  2  0
 16 18  1  0
 17 21  1  0
 18 20  2  0
 20 22  1  0
 21 22  2  0
M  END
>  <PUBCHEM_COMPOUND_CID>  (1) 
3796

>  <PUBCHEM_CONFORMER_RMSD>  (1) 
0.8

>  <PUBCHEM_CONFORMER_DIVERSEORDER>  (1) 
2
16
8
10
5
13
15
4
12
11
3
14
9
1
7
6

>  <PUBCHEM_MMFF94_PARTIAL_CHARGES>  (1) 
30
1 -0.11
10 0.31
11 0.41
12 -0.15
13 0.08
14 -0.15
15 0.08
16 0.1
17 -0.15
18 -0.15
19 0.47
2 -0.11
20 0.11
21 0.11
22 0.08
23 0.28
24 0.28
25 0.15
26 0.15
27 0.4
28 0.15
29 0.15
3 -0.36
30 0.15
37 0.45
4 -0.36
5 -0.53
6 -0.6
7 -0.62
8 -0.62

>  <PUBCHEM_EFFECTIVE_ROTOR_COUNT>  (1) 
4

>  <PUBCHEM_PHARMACOPHORE_FEATURES>  (1) 
11
1 1 hydrophobe
1 2 hydrophobe
1 3 acceptor
1 4 acceptor
1 5 donor
1 6 donor
3 6 8 11 cation
3 7 8 19 cation
6 16 17 18 20 21 22 rings
6 7 8 9 10 11 19 rings
6 9 10 12 13 14 15 rings

>  <PUBCHEM_HEAVY_ATOM_COUNT>  (1) 
24

>  <PUBCHEM_ATOM_DEF_STEREO_COUNT>  (1) 
0

>  <PUBCHEM_ATOM_UDEF_STEREO_COUNT>  (1) 
0

>  <PUBCHEM_BOND_DEF_STEREO_COUNT>  (1) 
0

>  <PUBCHEM_BOND_UDEF_STEREO_COUNT>  (1) 
0

>  <PUBCHEM_ISOTOPIC_ATOM_COUNT>  (1) 
0

>  <PUBCHEM_COMPONENT_COUNT>  (1) 
1

>  <PUBCHEM_CACTVS_TAUTO_COUNT>  (1) 
8

>  <PUBCHEM_CONFORMER_ID>  (1) 
00000ED400000002

>  <PUBCHEM_MMFF94_ENERGY>  (1) 
103.3939

>  <PUBCHEM_FEATURE_SELFOVERLAP>  (1) 
55.996

>  <PUBCHEM_SHAPE_FINGERPRINT>  (1) 
10411042 1 17615124821143537603
10498660 4 18263637385988961589
10591671 39 17894641340047748055
10670039 82 17822864065260579132
10835480 77 18059291080071935792
12236239 1 16950280736993967346
12390115 104 18267029358539883353
12403259 415 18411697660418650505
12596602 18 16153717556219009816
12916748 109 18260551121210461137
13140716 1 18044379551016004769
13402501 40 18342736355533264200
13544592 145 18341339907499906790
13911987 19 16915950758676212888
14251757 17 18272091565428112992
15042514 8 18117282660821823131
15183329 4 17846787273501396434
15575132 122 17749109959478581613
17349148 13 14549023165357667358
18608769 82 18335430109699635683
200 152 16271933700968957890
20645477 56 18410576205733958907
20645477 70 17418100897420413574
21033648 29 18408598145577196201
21033650 10 17968956201377177444
21065201 7 18335985346018127450
21279426 13 18267590100674172182
21315764 268 18334847333971473324
22122407 14 14996289089294146837
221357 26 18060139808105584808
22393880 68 18412827954356696534
23366157 5 17461998765757486539
23557571 272 18410298034088531620
23559900 14 18343306981331312202
2747138 104 18188505648482905129
29717793 49 16056610850223659612
3545911 37 18412827992921380376
4015057 19 17560797753744942728
495365 180 17632285801255593642
5104073 3 18115304445992431937
5283173 99 18411980269662340400
59755656 215 18410860927885670167
633830 44 18129373822113478237
9709674 26 18271812384101510566
9981440 41 18113896040269306827

>  <PUBCHEM_SHAPE_MULTIPOLES>  (1) 
473.24
14.48
2.88
1.43
2.49
0.15
0.63
-6.5
1.83
-0.38
0
1.49
-0.13
3.87

>  <PUBCHEM_SHAPE_SELFOVERLAP>  (1) 
1003.616

>  <PUBCHEM_SHAPE_VOLUME>  (1) 
274.5

>  <PUBCHEM_COORDINATE_TYPE>  (1) 
2
5
10

$$$$
