3797
     RDKit          3D

 25 27  0  0  1  0  0  0  0  0999 V2000
   -0.3576   -1.1431   -1.2269 O   0  0  0  0  0  0  0  0  0  0  0  0
    2.7739    1.3390    0.1337 N   0  0  0  0  0  0  0  0  0  0  0  0
    2.3993    2.7172   -0.1871 C   0  0  0  0  0  0  0  0  0  0  0  0
    1.7941    0.4022   -0.4045 C   0  0  0  0  0  0  0  0  0  0  0  0
    4.1098    1.0418   -0.3858 C   0  0  0  0  0  0  0  0  0  0  0  0
    0.3872    0.7296    0.0959 C   0  0  0  0  0  0  0  0  0  0  0  0
    2.3921    2.9253   -1.6989 C   0  0  0  0  0  0  0  0  0  0  0  0
    3.3684    3.6784    0.4938 C   0  0  0  0  0  0  0  0  0  0  0  0
    4.5578   -0.3482   -0.0194 C   0  0  0  0  0  0  0  0  0  0  0  0
   -0.6939   -0.2154   -0.4625 C   0  0  0  0  0  0  0  0  0  0  0  0
   -2.0880   -0.0203   -0.0980 C   0  0  0  0  0  0  0  0  0  0  0  0
    5.2522   -0.5525    1.1648 C   0  0  0  0  0  0  0  0  0  0  0  0
    4.2704   -1.4055   -0.8712 C   0  0  0  0  0  0  0  0  0  0  0  0
   -3.0674   -0.8763   -0.6025 C   0  0  0  0  0  0  0  0  0  0  0  0
   -4.4180   -0.7013   -0.2596 C   0  0  0  0  0  0  0  0  0  0  0  0
   -2.4445    1.0199    0.7551 C   0  0  0  0  0  0  0  0  0  0  0  0
   -4.7804    0.3565    0.6079 C   0  0  0  0  0  0  0  0  0  0  0  0
   -3.7815    1.2083    1.1067 C   0  0  0  0  0  0  0  0  0  0  0  0
    5.6677   -1.8403    1.5040 C   0  0  0  0  0  0  0  0  0  0  0  0
    4.6857   -2.6932   -0.5320 C   0  0  0  0  0  0  0  0  0  0  0  0
    5.3843   -2.9105    0.6556 C   0  0  0  0  0  0  0  0  0  0  0  0
   -5.4167   -1.5535   -0.7582 C   0  0  0  0  0  0  0  0  0  0  0  0
   -6.1311    0.5313    0.9507 C   0  0  0  0  0  0  0  0  0  0  0  0
   -6.7538   -1.3650   -0.4072 C   0  0  0  0  0  0  0  0  0  0  0  0
   -7.1102   -0.3245    0.4456 C   0  0  0  0  0  0  0  0  0  0  0  0
  1 10  2  0
  2  3  1  0
  2  4  1  0
  2  5  1  0
  3  7  1  0
  3  8  1  0
  4  6  1  0
  5  9  1  0
  6 10  1  0
  9 12  2  0
  9 13  1  0
 10 11  1  0
 11 14  2  0
 11 16  1  0
 12 19  1  0
 13 20  2  0
 14 15  1  0
 15 17  2  0
 15 22  1  0
 16 18  2  0
 17 18  1  0
 17 23  1  0
 19 21  2  0
 20 21  1  0
 22 24  2  0
 23 25  2  0
 24 25  1  0
M  END
>  <PUBCHEM_COMPOUND_CID>  (1) 
3797

>  <PUBCHEM_CONFORMER_RMSD>  (1) 
0.8

>  <PUBCHEM_CONFORMER_DIVERSEORDER>  (1) 
1
205
130
18
26
124
189
219
36
29
51
233
72
138
215
53
225
180
55
173
49
56
210
184
214
204
2
54
40
143
5
3
125
239
238
50
202
126
95
86
240
131
80
61
151
142
147
232
167
179
41
120
181
30
146
57
227
9
216
132
105
235
28
171
208
231
82
141
222
195
107
13
206
236
21
122
193
229
11
108
110
47
7
140
234
144
175
185
8
22
6
203
156
4
161
24
90
201
178
154
213
77
73
62
129
68
16
152
212
168
127
237
197
87
226
64
177
123
218
128
63
38
88
230
188
113
32
187
150
224
20
223
92
60
67
69
44
106
191
116
65
23
94
135
46
19
59
207
58
170
172
217
14
104
182
211
145
119
96
153
109
139
34
158
121
97
101
98
10
149
27
81
35
31
115
186
137
162
12
136
99
84
78
15
33
25
39
241
17
117
75
192
74
209
183
52
48
169
45
111
220
103
155
85
157
166
164
83
70
43
221
176
100
134
112
198
76
159
165
71
37
114
199
200
163
194
42
228
89
118
174
79
91
66
190
133
196
148
160
102
93

>  <PUBCHEM_MMFF94_PARTIAL_CHARGES>  (1) 
33
1 -0.57
10 0.42
11 0.09
12 -0.15
13 -0.15
14 -0.15
16 -0.15
18 -0.15
19 -0.15
2 -0.81
20 -0.15
21 -0.15
22 -0.15
23 -0.15
24 -0.15
25 -0.15
3 0.27
39 0.15
4 0.27
40 0.15
41 0.15
42 0.15
43 0.15
44 0.15
45 0.15
46 0.15
47 0.15
48 0.15
49 0.15
5 0.41
50 0.15
6 0.06
9 -0.14

>  <PUBCHEM_EFFECTIVE_ROTOR_COUNT>  (1) 
7

>  <PUBCHEM_PHARMACOPHORE_FEATURES>  (1) 
6
1 1 acceptor
1 2 cation
3 3 7 8 hydrophobe
6 11 14 15 16 17 18 rings
6 15 17 22 23 24 25 rings
6 9 12 13 19 20 21 rings

>  <PUBCHEM_HEAVY_ATOM_COUNT>  (1) 
25

>  <PUBCHEM_ATOM_DEF_STEREO_COUNT>  (1) 
0

>  <PUBCHEM_ATOM_UDEF_STEREO_COUNT>  (1) 
0

>  <PUBCHEM_BOND_DEF_STEREO_COUNT>  (1) 
0

>  <PUBCHEM_BOND_UDEF_STEREO_COUNT>  (1) 
0

>  <PUBCHEM_ISOTOPIC_ATOM_COUNT>  (1) 
0

>  <PUBCHEM_COMPONENT_COUNT>  (1) 
1

>  <PUBCHEM_CACTVS_TAUTO_COUNT>  (1) 
2

>  <PUBCHEM_CONFORMER_ID>  (1) 
00000ED500000001

>  <PUBCHEM_MMFF94_ENERGY>  (1) 
77.3179

>  <PUBCHEM_FEATURE_SELFOVERLAP>  (1) 
30.472

>  <PUBCHEM_SHAPE_FINGERPRINT>  (1) 
10 15 16630518548795098010
10595046 47 18200034074712408785
11719270 70 17775005665894384335
11756154 67 17913220763012452998
12107183 9 18125731092893684145
12166972 35 18343586230755783032
12236239 1 18412546531182934529
12616971 3 18201718479286374397
13533116 47 18408886264946882824
1361 2 18409730630080646378
13673619 4 17749105552699444414
13782708 43 17894914036000795835
13785724 45 18056490452310415742
13911852 28 18190738635844292490
13914758 101 18261388906991585045
14211702 104 18335426828471514411
14251764 18 18413670223202273854
14347332 77 18410011005539869421
14739800 52 17631444747495656984
15183329 4 18342462543036308535
15250474 111 18058437875822735519
15419008 42 17770782304245436973
1577012 14 18343871034859596809
16992610 120 18196935695024618272
17844677 252 18186518800305589717
17857418 61 18412825785113141275
1813 80 18260269603901321244
1979834 28 17489308547379553542
20028762 73 18343582919336484870
21344244 78 18202555177634281384
21365058 113 16950573155473496220
21792934 111 18131632262890810225
22061861 79 17167863049727647163
22149856 69 16558490651153162479
2303208 19 17022908973408920067
23081809 10 18131072688522953869
23522609 53 18120407343259762509
23559900 14 16371018441874162605
249057 25 18130514084997691953
3004659 81 18130516304889070276
345986 75 18265041437131661832
34797466 226 15647062598192206799
3680242 22 18202012040211852977
397830 11 12823003296831255679
4073 2 18118125998497007426
5104073 3 18200885071026484673
67856867 119 18271806864846794193
8509985 295 17846780711013089728

>  <PUBCHEM_SHAPE_MULTIPOLES>  (1) 
503.64
18.53
3.21
1.19
16.83
1.67
-0.01
-10.12
-3.75
-6.57
0.25
-0.57
0.06
-1.94

>  <PUBCHEM_SHAPE_SELFOVERLAP>  (1) 
1080.897

>  <PUBCHEM_SHAPE_VOLUME>  (1) 
279.9

>  <PUBCHEM_COORDINATE_TYPE>  (1) 
2
5
10

$$$$
