37997
     RDKit          3D

 13 13  0  0  0  0  0  0  0  0999 V2000
    1.8517    0.5551   -1.4506 O   0  0  0  0  0  0  0  0  0  0  0  0
    2.1395    0.6240    0.8506 N   0  0  0  0  0  0  0  0  0  0  0  0
   -0.9644   -2.9933    0.1138 N   0  0  0  0  0  0  0  0  0  0  0  0
    1.0963   -1.9304   -0.1780 N   0  0  0  0  0  0  0  0  0  0  0  0
    3.5175    0.5985    0.7550 N   0  0  0  0  0  0  0  0  0  0  0  0
   -0.0831    0.6498   -0.1296 C   0  0  0  0  0  0  0  0  0  0  0  0
   -0.8372   -0.5156    0.0077 C   0  0  0  0  0  0  0  0  0  0  0  0
   -0.7113    1.8949   -0.0972 C   0  0  0  0  0  0  0  0  0  0  0  0
   -2.2195   -0.4359    0.1773 C   0  0  0  0  0  0  0  0  0  0  0  0
   -2.0935    1.9746    0.0725 C   0  0  0  0  0  0  0  0  0  0  0  0
   -2.8475    0.8093    0.2098 C   0  0  0  0  0  0  0  0  0  0  0  0
    1.3621    0.5997   -0.3087 C   0  0  0  0  0  0  0  0  0  0  0  0
   -0.2106   -1.8307   -0.0227 C   0  0  0  0  0  0  0  0  0  0  0  0
  1 12  2  0
  2  5  1  0
  2 12  1  0
  3 13  1  0
  4 13  2  0
  6  7  2  0
  6  8  1  0
  6 12  1  0
  7  9  1  0
  7 13  1  0
  8 10  2  0
  9 11  2  0
 10 11  1  0
M  END
>  <PUBCHEM_COMPOUND_CID>  (1) 
37997

>  <PUBCHEM_CONFORMER_RMSD>  (1) 
0.6

>  <PUBCHEM_CONFORMER_DIVERSEORDER>  (1) 
1
2

>  <PUBCHEM_MMFF94_PARTIAL_CHARGES>  (1) 
23
1 -0.57
10 -0.15
11 -0.15
12 0.54
13 0.41
14 0.15
15 0.15
16 0.15
17 0.15
18 0.37
19 0.4
2 -0.42
20 0.4
21 0.4
22 0.36
23 0.36
3 -0.85
4 -0.85
5 -0.73
6 0.09
7 0.09
8 -0.15
9 -0.15

>  <PUBCHEM_EFFECTIVE_ROTOR_COUNT>  (1) 
3

>  <PUBCHEM_PHARMACOPHORE_FEATURES>  (1) 
7
1 1 acceptor
1 2 donor
1 3 donor
1 4 donor
1 5 donor
3 3 4 13 cation
6 6 7 8 9 10 11 rings

>  <PUBCHEM_HEAVY_ATOM_COUNT>  (1) 
13

>  <PUBCHEM_ATOM_DEF_STEREO_COUNT>  (1) 
0

>  <PUBCHEM_ATOM_UDEF_STEREO_COUNT>  (1) 
0

>  <PUBCHEM_BOND_DEF_STEREO_COUNT>  (1) 
0

>  <PUBCHEM_BOND_UDEF_STEREO_COUNT>  (1) 
0

>  <PUBCHEM_ISOTOPIC_ATOM_COUNT>  (1) 
0

>  <PUBCHEM_COMPONENT_COUNT>  (1) 
1

>  <PUBCHEM_CACTVS_TAUTO_COUNT>  (1) 
2

>  <PUBCHEM_CONFORMER_ID>  (1) 
0000946D00000001

>  <PUBCHEM_MMFF94_ENERGY>  (1) 
48.9434

>  <PUBCHEM_FEATURE_SELFOVERLAP>  (1) 
37.071

>  <PUBCHEM_SHAPE_FINGERPRINT>  (1) 
1 1 18123187905255068887
12423570 1 13878018062149801468
13380535 76 18341043051691453406
14817 1 8624726249564689775
15775835 57 18201155464465572025
16945 1 18338526334263604301
193761 8 17905890275754734833
20511035 2 18193843626357501695
20645476 183 17532109347591925278
20871998 184 18055916738746547806
21040471 1 18410019831370192933
2334 1 18337961099477206799
23402539 116 18200014283265446551
23552423 10 17974862674587996421
23559900 14 18271823306894064636
241688 4 16319780813356576419
257057 1 17405130215760074006
2748010 2 18265063448501449559
305870 269 18265328408927960968
5084963 1 18200894893042008397
7364860 26 17910673159693295559
81228 2 18124320655714025835

>  <PUBCHEM_SHAPE_MULTIPOLES>  (1) 
241.74
3.75
2.54
0.81
1.27
1.87
0.11
-1.74
-0.71
-0.57
-0.03
0.44
-0.17
0.14

>  <PUBCHEM_SHAPE_SELFOVERLAP>  (1) 
509.71

>  <PUBCHEM_SHAPE_VOLUME>  (1) 
135.3

>  <PUBCHEM_COORDINATE_TYPE>  (1) 
2
5
10

$$$$
