37995
     RDKit          3D

 18 18  0  0  0  0  0  0  0  0999 V2000
    3.2118    0.8664    1.7202 S   0  0  0  0  0  0  0  0  0  0  0  0
    2.8538   -0.2755    0.1801 P   0  0  0  0  0  0  0  0  0  0  0  0
    1.4396   -1.0680    0.1656 O   0  0  0  0  0  0  0  0  0  0  0  0
   -3.2820   -1.4356   -0.0499 O   0  0  0  0  0  0  0  0  0  0  0  0
    2.8063    0.4740   -1.2650 O   0  0  0  0  0  0  0  0  0  0  0  0
    3.9154   -1.4698   -0.1264 O   0  0  0  0  0  0  0  0  0  0  0  0
    0.1302    0.8354   -0.0381 N   0  0  0  0  0  0  0  0  0  0  0  0
   -2.2697    0.6480   -0.1489 N   0  0  0  0  0  0  0  0  0  0  0  0
   -1.2254    2.8224   -0.2503 C   0  0  0  0  0  0  0  0  0  0  0  0
   -1.1143    1.3397   -0.1394 C   0  0  0  0  0  0  0  0  0  0  0  0
    0.1943   -0.5089    0.0636 C   0  0  0  0  0  0  0  0  0  0  0  0
   -2.1329   -0.6903   -0.0438 C   0  0  0  0  0  0  0  0  0  0  0  0
   -0.9154   -1.3301    0.0664 C   0  0  0  0  0  0  0  0  0  0  0  0
   -1.3398    3.5000    1.1130 C   0  0  0  0  0  0  0  0  0  0  0  0
   -4.5077   -0.7224   -0.1659 C   0  0  0  0  0  0  0  0  0  0  0  0
   -5.6548   -1.7104   -0.1695 C   0  0  0  0  0  0  0  0  0  0  0  0
    3.8856    1.3007   -1.6671 C   0  0  0  0  0  0  0  0  0  0  0  0
    4.0051   -2.5758    0.7556 C   0  0  0  0  0  0  0  0  0  0  0  0
  1  2  2  0
  2  3  1  0
  2  5  1  0
  2  6  1  0
  3 11  1  0
  4 12  1  0
  4 15  1  0
  5 17  1  0
  6 18  1  0
  7 10  2  0
  7 11  1  0
  8 10  1  0
  8 12  2  0
  9 10  1  0
  9 14  1  0
 11 13  2  0
 12 13  1  0
 15 16  1  0
M  END
>  <PUBCHEM_COMPOUND_CID>  (1) 
37995

>  <PUBCHEM_CONFORMER_RMSD>  (1) 
0.8

>  <PUBCHEM_CONFORMER_DIVERSEORDER>  (1) 
1
85
84
118
103
25
140
42
104
96
64
106
143
79
139
110
63
23
69
3
37
102
78
76
83
50
119
65
90
124
116
6
58
125
41
137
98
91
133
12
92
15
126
123
20
100
70
29
75
48
101
62
113
105
82
134
94
34
81
117
132
59
18
4
122
120
60
77
111
16
56
30
87
114
109
40
95
19
24
9
55
99
107
7
52
44
128
5
39
108
2
72
35
27
142
73
138
68
71
31
53
33
49
66
127
136
86
13
10
17
26
28
14
57
121
67
11
97
36
88
43
54
135
80
112
21
131
115
129
51
89
45
8
74
61
38
46
130
22
32
47
144
141
93

>  <PUBCHEM_MMFF94_PARTIAL_CHARGES>  (1) 
17
1 -0.68
10 0.48
11 0.39
12 0.39
13 -0.15
15 0.28
17 0.28
18 0.28
2 1.49
21 0.15
3 -0.35
4 -0.36
5 -0.55
6 -0.55
7 -0.62
8 -0.62
9 0.14

>  <PUBCHEM_EFFECTIVE_ROTOR_COUNT>  (1) 
7

>  <PUBCHEM_PHARMACOPHORE_FEATURES>  (1) 
4
1 14 hydrophobe
1 4 acceptor
3 7 8 10 cation
6 7 8 10 11 12 13 rings

>  <PUBCHEM_HEAVY_ATOM_COUNT>  (1) 
18

>  <PUBCHEM_ATOM_DEF_STEREO_COUNT>  (1) 
0

>  <PUBCHEM_ATOM_UDEF_STEREO_COUNT>  (1) 
0

>  <PUBCHEM_BOND_DEF_STEREO_COUNT>  (1) 
0

>  <PUBCHEM_BOND_UDEF_STEREO_COUNT>  (1) 
0

>  <PUBCHEM_ISOTOPIC_ATOM_COUNT>  (1) 
0

>  <PUBCHEM_COMPONENT_COUNT>  (1) 
1

>  <PUBCHEM_CACTVS_TAUTO_COUNT>  (1) 
3

>  <PUBCHEM_CONFORMER_ID>  (1) 
0000946B00000001

>  <PUBCHEM_MMFF94_ENERGY>  (1) 
30.0064

>  <PUBCHEM_FEATURE_SELFOVERLAP>  (1) 
20.297

>  <PUBCHEM_SHAPE_FINGERPRINT>  (1) 
12032990 46 18410008853871868011
12403259 226 18270109120145962864
12788726 201 18341063955360554157
14178342 30 18047175376877864330
17492 89 18337671889238860294
18186145 218 16587740940777999758
18222031 100 18130508643099788079
20281475 54 18409450306191346803
20510252 161 18340761568124802097
20559304 39 18334573564571688924
20645477 70 17822007627228239818
21029758 11 18340201986137715017
21501502 16 18336555902215990668
21524375 3 17836363752925482729
23402539 116 18343292648820074743
23557571 272 18342173367114755256
23558518 356 18048324353438266219
23559900 14 18335692802704914482
23598291 2 18042979683518870622
23845131 108 17478899281958494153
25147074 1 18189067416898248500
3004659 81 18040712571603923654
31174 14 17917137394948830664
312423 11 18261968344691439866
314194 84 18336830917847367867
3286 77 18201433658277127234
350125 39 18338800001116235016
5104073 3 18342450400826211931
5374978 207 18410566310224488466
537710 114 18261677081368184861
53777708 50 18263936457889211004
6049 1 17704075049652240808
621550 34 17774715446131708104
6992083 37 17900266295380117252
7164475 11 18335139752445291500
7364860 26 17982450705158623145
81228 2 18337402543238640105

>  <PUBCHEM_SHAPE_MULTIPOLES>  (1) 
344.69
9.26
3.11
1.16
4.88
2.2
0.01
-6.27
0.62
0.56
-0.77
-1.58
0.59
-0.93

>  <PUBCHEM_SHAPE_SELFOVERLAP>  (1) 
658.834

>  <PUBCHEM_SHAPE_VOLUME>  (1) 
215.1

>  <PUBCHEM_COORDINATE_TYPE>  (1) 
2
5
10

$$$$
