37992
     RDKit          3D

 23 23  0  0  0  0  0  0  0  0999 V2000
   -1.0164    1.3043   -0.6475 O   0  0  0  0  0  0  0  0  0  0  0  0
    2.1747   -2.4246   -1.2561 O   0  0  0  0  0  0  0  0  0  0  0  0
    4.6101    0.9281    1.1451 O   0  0  0  0  0  0  0  0  0  0  0  0
    4.4476   -1.6388    0.1177 O   0  0  0  0  0  0  0  0  0  0  0  0
    0.3215    3.1777   -0.6580 O   0  0  0  0  0  0  0  0  0  0  0  0
   -4.7141   -0.4798    0.3121 N   0  0  0  0  0  0  0  0  0  0  0  0
   -3.5468    0.3892    0.3999 C   0  0  0  0  0  0  0  0  0  0  0  0
   -3.3984    1.2071   -0.8791 C   0  0  0  0  0  0  0  0  0  0  0  0
   -4.5859   -1.6104    1.2334 C   0  0  0  0  0  0  0  0  0  0  0  0
   -5.9384    0.2708    0.5974 C   0  0  0  0  0  0  0  0  0  0  0  0
   -2.1732    2.1099   -0.8258 C   0  0  0  0  0  0  0  0  0  0  0  0
   -3.3208   -2.4044    0.9554 C   0  0  0  0  0  0  0  0  0  0  0  0
   -7.1688   -0.6072    0.4446 C   0  0  0  0  0  0  0  0  0  0  0  0
    1.2965    1.0178   -0.3948 C   0  0  0  0  0  0  0  0  0  0  0  0
    0.1709    1.9683   -0.5797 C   0  0  0  0  0  0  0  0  0  0  0  0
    2.4401    1.4173    0.2965 C   0  0  0  0  0  0  0  0  0  0  0  0
    1.2113   -0.2739   -0.9146 C   0  0  0  0  0  0  0  0  0  0  0  0
    2.2699   -1.1659   -0.7432 C   0  0  0  0  0  0  0  0  0  0  0  0
    3.4987    0.5253    0.4680 C   0  0  0  0  0  0  0  0  0  0  0  0
    3.4135   -0.7663   -0.0518 C   0  0  0  0  0  0  0  0  0  0  0  0
    0.9721   -2.7526   -1.9489 C   0  0  0  0  0  0  0  0  0  0  0  0
    4.6163    2.2642    1.6441 C   0  0  0  0  0  0  0  0  0  0  0  0
    4.4195   -2.4562    1.2854 C   0  0  0  0  0  0  0  0  0  0  0  0
  1 11  1  0
  1 15  1  0
  2 18  1  0
  2 21  1  0
  3 19  1  0
  3 22  1  0
  4 20  1  0
  4 23  1  0
  5 15  2  0
  6  7  1  0
  6  9  1  0
  6 10  1  0
  7  8  1  0
  8 11  1  0
  9 12  1  0
 10 13  1  0
 14 15  1  0
 14 16  2  0
 14 17  1  0
 16 19  1  0
 17 18  2  0
 18 20  1  0
 19 20  2  0
M  END
>  <PUBCHEM_COMPOUND_CID>  (1) 
37992

>  <PUBCHEM_CONFORMER_RMSD>  (1) 
1

>  <PUBCHEM_CONFORMER_DIVERSEORDER>  (1) 
11
18
23
16
25
15
14
33
24
10
27
5
37
4
32
1
21
41
40
12
36
47
9
43
22
39
42
19
26
34
7
2
35
46
44
6
31
13
20
38
45
8
28
29
17
30
3

>  <PUBCHEM_MMFF94_PARTIAL_CHARGES>  (1) 
22
1 -0.43
10 0.27
11 0.28
14 0.09
15 0.63
16 -0.15
17 -0.15
18 0.08
19 0.08
2 -0.36
20 0.08
21 0.28
22 0.28
23 0.28
3 -0.36
4 -0.36
40 0.15
41 0.15
5 -0.57
6 -0.81
7 0.27
9 0.27

>  <PUBCHEM_EFFECTIVE_ROTOR_COUNT>  (1) 
11

>  <PUBCHEM_PHARMACOPHORE_FEATURES>  (1) 
6
1 2 acceptor
1 3 acceptor
1 4 acceptor
1 5 acceptor
1 6 cation
6 14 16 17 18 19 20 rings

>  <PUBCHEM_HEAVY_ATOM_COUNT>  (1) 
23

>  <PUBCHEM_ATOM_DEF_STEREO_COUNT>  (1) 
0

>  <PUBCHEM_ATOM_UDEF_STEREO_COUNT>  (1) 
0

>  <PUBCHEM_BOND_DEF_STEREO_COUNT>  (1) 
0

>  <PUBCHEM_BOND_UDEF_STEREO_COUNT>  (1) 
0

>  <PUBCHEM_ISOTOPIC_ATOM_COUNT>  (1) 
0

>  <PUBCHEM_COMPONENT_COUNT>  (1) 
1

>  <PUBCHEM_CACTVS_TAUTO_COUNT>  (1) 
1

>  <PUBCHEM_CONFORMER_ID>  (1) 
000094680000000B

>  <PUBCHEM_MMFF94_ENERGY>  (1) 
80.173

>  <PUBCHEM_FEATURE_SELFOVERLAP>  (1) 
30.457

>  <PUBCHEM_SHAPE_FINGERPRINT>  (1) 
114674 6 18339372859480944503
11796584 16 17462838775471286994
12035758 1 17987780927541069930
12363563 72 17895206497335044329
12596602 18 16559032727216768007
12633257 1 18337122206734289223
13402501 40 18408326579664653963
13533116 47 18060148622290592545
13911882 115 18413395345152814150
146900 427 17846211198233784192
14790565 3 17471019541314322164
14863182 85 18411147947659723396
15352361 1 18333454240133091491
1813 80 17168147853683769013
1979834 28 18201450181143077831
20261772 1 18272929435958804038
20403669 9 18334583417184682359
21197605 99 18271527615027718239
22224240 67 18059849627356759208
23559900 14 18116145585262058276
3004659 81 17530972405688187509
316301 35 18187359879561628330
3680242 22 18187373082444005595
465052 167 18337669711948332454
5104073 3 18341041905067457600

>  <PUBCHEM_SHAPE_MULTIPOLES>  (1) 
439
13.61
3.32
1.42
17.74
0.42
-0.07
3.36
6.83
-2.22
-0.41
-0.8
0.51
2.04

>  <PUBCHEM_SHAPE_SELFOVERLAP>  (1) 
881.893

>  <PUBCHEM_SHAPE_VOLUME>  (1) 
260.6

>  <PUBCHEM_COORDINATE_TYPE>  (1) 
2
5
10

$$$$
