38003
     RDKit          3D

 23 24  0  0  0  0  0  0  0  0999 V2000
   -2.6784   -2.9031   -1.0747 Cl  0  0  0  0  0  0  0  0  0  0  0  0
    3.3240   -3.0291    0.1543 O   0  0  0  0  0  0  0  0  0  0  0  0
    1.1350   -2.9092    0.2686 O   0  0  0  0  0  0  0  0  0  0  0  0
    5.0285    2.9135   -0.2642 O   0  0  0  0  0  0  0  0  0  0  0  0
    5.9873    0.9397   -0.2064 O   0  0  0  0  0  0  0  0  0  0  0  0
   -0.1001   -0.7507    0.2174 N   0  0  0  0  0  0  0  0  0  0  0  0
   -1.2073    0.0069    0.1297 N   0  0  0  0  0  0  0  0  0  0  0  0
    2.2607   -2.3659    0.1769 N   0  0  0  0  0  0  0  0  0  0  0  0
    4.9620    1.6628   -0.1912 N   0  0  0  0  0  0  0  0  0  0  0  0
    1.1728   -0.1664    0.1162 C   0  0  0  0  0  0  0  0  0  0  0  0
    2.3343   -0.9471    0.0962 C   0  0  0  0  0  0  0  0  0  0  0  0
   -3.5854    0.2721    0.1107 C   0  0  0  0  0  0  0  0  0  0  0  0
    1.2806    1.2263    0.0330 C   0  0  0  0  0  0  0  0  0  0  0  0
   -2.3974   -0.5584    0.2270 C   0  0  0  0  0  0  0  0  0  0  0  0
    3.5873   -0.3425   -0.0053 C   0  0  0  0  0  0  0  0  0  0  0  0
    3.6869    1.0464   -0.0878 C   0  0  0  0  0  0  0  0  0  0  0  0
    2.5334    1.8307   -0.0685 C   0  0  0  0  0  0  0  0  0  0  0  0
   -4.7696   -0.2704   -0.3885 C   0  0  0  0  0  0  0  0  0  0  0  0
   -3.5410    1.6113    0.4987 C   0  0  0  0  0  0  0  0  0  0  0  0
   -2.5590   -2.0662    0.4823 C   0  0  0  0  0  0  0  0  0  0  0  0
   -5.9091    0.5262   -0.4999 C   0  0  0  0  0  0  0  0  0  0  0  0
   -4.6807    2.4077    0.3874 C   0  0  0  0  0  0  0  0  0  0  0  0
   -5.8648    1.8651   -0.1119 C   0  0  0  0  0  0  0  0  0  0  0  0
  1 20  1  0
  2  8  1  0
  3  8  2  0
  4  9  1  0
  5  9  2  0
  6  7  1  0
  6 10  1  0
  7 14  2  0
  8 11  1  0
  9 16  1  0
 10 11  2  0
 10 13  1  0
 11 15  1  0
 12 14  1  0
 12 18  2  0
 12 19  1  0
 13 17  2  0
 14 20  1  0
 15 16  2  0
 16 17  1  0
 18 21  1  0
 19 22  2  0
 21 23  2  0
 22 23  1  0
M  CHG  4   2  -1   4  -1   8   1   9   1
M  END
>  <PUBCHEM_COMPOUND_CID>  (1) 
38003

>  <PUBCHEM_CONFORMER_RMSD>  (1) 
0.8

>  <PUBCHEM_CONFORMER_DIVERSEORDER>  (1) 
1
7
6
2
5
3
4

>  <PUBCHEM_MMFF94_PARTIAL_CHARGES>  (1) 
32
1 -0.29
10 0.1
11 0.13
12 0.09
13 -0.15
14 0.3
15 -0.15
16 0.13
17 -0.15
18 -0.15
19 -0.15
2 -0.52
20 0.35
21 -0.15
22 -0.15
23 -0.15
24 0.15
25 0.15
26 0.15
27 0.4
28 0.15
29 0.15
3 -0.52
32 0.15
33 0.15
34 0.15
4 -0.52
5 -0.52
6 -0.46
7 -0.49
8 0.91
9 0.91

>  <PUBCHEM_EFFECTIVE_ROTOR_COUNT>  (1) 
6

>  <PUBCHEM_PHARMACOPHORE_FEATURES>  (1) 
10
1 2 acceptor
1 2 anion
1 3 acceptor
1 4 acceptor
1 4 anion
1 5 acceptor
1 6 donor
1 7 acceptor
6 10 11 13 15 16 17 rings
6 12 18 19 21 22 23 rings

>  <PUBCHEM_HEAVY_ATOM_COUNT>  (1) 
23

>  <PUBCHEM_ATOM_DEF_STEREO_COUNT>  (1) 
0

>  <PUBCHEM_ATOM_UDEF_STEREO_COUNT>  (1) 
0

>  <PUBCHEM_BOND_DEF_STEREO_COUNT>  (1) 
0

>  <PUBCHEM_BOND_UDEF_STEREO_COUNT>  (1) 
1

>  <PUBCHEM_ISOTOPIC_ATOM_COUNT>  (1) 
0

>  <PUBCHEM_COMPONENT_COUNT>  (1) 
1

>  <PUBCHEM_CACTVS_TAUTO_COUNT>  (1) 
1

>  <PUBCHEM_CONFORMER_ID>  (1) 
0000947300000001

>  <PUBCHEM_MMFF94_ENERGY>  (1) 
90.6995

>  <PUBCHEM_FEATURE_SELFOVERLAP>  (1) 
50.911

>  <PUBCHEM_SHAPE_FINGERPRINT>  (1) 
10411042 1 17832986040937777266
10595046 47 18413385428564048549
10616163 171 18340769350964543599
12107183 9 17620477913629768729
12730499 353 18336273395988141314
12788726 201 17489311819970527489
13533116 47 18342734084001498899
14251764 75 18341905077830237337
14528608 73 18412826888814221997
14790565 3 18192156108270039180
15196674 1 18338517444008440161
17980427 23 17314233443768549068
18335252 98 18335424599963138787
18608769 82 18265337381980176243
20157964 124 18337106770695485653
20612939 158 18337955584391104123
20645477 56 18333731330032803361
20645477 70 18272091539410701302
21033648 144 18260544490503506663
21421861 104 17896309230367387738
21709351 56 18337389469326432380
22393880 68 18201438137832986822
23402655 69 18411980282050980220
23559900 14 18200586991068488451
245318 6 17388556070178005612
25147074 1 18337372911964216530
335352 9 18409732842605170174
34934 24 18410008840549057779
3545911 37 18409731785452397361
4073 2 18113344132107162467
4214541 1 18411138060813838257
474 4 18113621213464009161
5104073 3 18187369796635678003
543358 83 18339362968017663770
59755656 215 18409735032706123276
59755656 520 17313099782787347627
67856867 119 18411692158633765730
7288768 16 17894911866889590627
8272917 22 18411420570735249118
9709674 26 18410579478979722843

>  <PUBCHEM_SHAPE_MULTIPOLES>  (1) 
431.8
13.7
3.4
0.71
1.52
1.6
-0.05
-9.17
-1.48
-1.07
-0.15
0.36
0.14
-0.98

>  <PUBCHEM_SHAPE_SELFOVERLAP>  (1) 
914.461

>  <PUBCHEM_SHAPE_VOLUME>  (1) 
242.3

>  <PUBCHEM_COORDINATE_TYPE>  (1) 
2
5
10

$$$$
