38001
     RDKit          3D

 21 21  0  0  1  0  0  0  0  0999 V2000
    3.5834   -0.9766    1.2950 F   0  0  0  0  0  0  0  0  0  0  0  0
    1.7877   -0.3301    2.3551 F   0  0  0  0  0  0  0  0  0  0  0  0
    1.8430   -2.2905    1.3960 F   0  0  0  0  0  0  0  0  0  0  0  0
    1.8026   -2.4348   -1.1699 F   0  0  0  0  0  0  0  0  0  0  0  0
    1.7144   -0.5941   -2.3403 F   0  0  0  0  0  0  0  0  0  0  0  0
    3.5432   -1.1210   -1.2709 F   0  0  0  0  0  0  0  0  0  0  0  0
    0.2667   -0.4450    0.0403 O   0  0  0  0  0  0  0  0  0  0  0  0
    2.1398    0.9675   -0.0897 O   0  0  0  0  0  0  0  0  0  0  0  0
   -0.1480    0.8717   -0.3405 C   0  0  0  0  0  0  0  0  0  0  0  0
    0.9702    1.7428    0.1967 C   0  0  0  0  0  0  0  0  0  0  0  0
    1.7027   -0.3982    0.0046 C   0  0  0  0  0  0  0  0  0  0  0  0
   -1.5129    1.1775    0.2421 C   0  0  0  0  0  0  0  0  0  0  0  0
    1.0732    3.1039   -0.4610 C   0  0  0  0  0  0  0  0  0  0  0  0
   -2.5873    0.2394   -0.3129 C   0  0  0  0  0  0  0  0  0  0  0  0
   -3.9578    0.5288    0.3038 C   0  0  0  0  0  0  0  0  0  0  0  0
    2.2409   -1.0121    1.2906 C   0  0  0  0  0  0  0  0  0  0  0  0
    2.2014   -1.1535   -1.2209 C   0  0  0  0  0  0  0  0  0  0  0  0
    2.2319    3.9152    0.0978 C   0  0  0  0  0  0  0  0  0  0  0  0
   -5.0192   -0.4375   -0.2269 C   0  0  0  0  0  0  0  0  0  0  0  0
   -6.4059   -0.2061    0.3771 C   0  0  0  0  0  0  0  0  0  0  0  0
   -7.4699   -1.1473   -0.1661 C   0  0  0  0  0  0  0  0  0  0  0  0
  1 16  1  0
  2 16  1  0
  3 16  1  0
  4 17  1  0
  5 17  1  0
  6 17  1  0
  7  9  1  0
  7 11  1  0
  8 10  1  0
  8 11  1  0
  9 10  1  0
  9 12  1  0
 10 13  1  0
 11 16  1  0
 11 17  1  0
 12 14  1  0
 13 18  1  0
 14 15  1  0
 15 19  1  0
 19 20  1  0
 20 21  1  0
M  END
>  <PUBCHEM_COMPOUND_CID>  (1) 
38001

>  <PUBCHEM_CONFORMER_RMSD>  (1) 
0.8

>  <PUBCHEM_CONFORMER_DIVERSEORDER>  (1) 
1
101
74
102
11
72
98
86
100
93
17
83
59
26
94
69
88
55
89
58
76
23
24
56
47
6
79
45
87
84
46
63
64
71
99
95
9
91
52
5
92
32
51
65
34
15
50
70
60
22
97
53
67
81
90
16
39
54
42
7
20
77
48
13
19
30
80
38
85
61
14
12
78
44
75
35
96
66
40
21
18
43
8
68
62
31
10
28
73
49
82
3
41
33
27
25
57
37
36
4
29
2

>  <PUBCHEM_MMFF94_PARTIAL_CHARGES>  (1) 
13
1 -0.34
10 0.28
11 0.56
16 1.02
17 1.02
2 -0.34
3 -0.34
4 -0.34
5 -0.34
6 -0.34
7 -0.56
8 -0.56
9 0.28

>  <PUBCHEM_EFFECTIVE_ROTOR_COUNT>  (1) 
9

>  <PUBCHEM_PHARMACOPHORE_FEATURES>  (1) 
6
1 18 hydrophobe
1 21 hydrophobe
1 7 acceptor
1 8 acceptor
5 12 14 15 19 20 hydrophobe
5 7 8 9 10 11 rings

>  <PUBCHEM_HEAVY_ATOM_COUNT>  (1) 
21

>  <PUBCHEM_ATOM_DEF_STEREO_COUNT>  (1) 
0

>  <PUBCHEM_ATOM_UDEF_STEREO_COUNT>  (1) 
2

>  <PUBCHEM_BOND_DEF_STEREO_COUNT>  (1) 
0

>  <PUBCHEM_BOND_UDEF_STEREO_COUNT>  (1) 
0

>  <PUBCHEM_ISOTOPIC_ATOM_COUNT>  (1) 
0

>  <PUBCHEM_COMPONENT_COUNT>  (1) 
1

>  <PUBCHEM_CACTVS_TAUTO_COUNT>  (1) 
1

>  <PUBCHEM_CONFORMER_ID>  (1) 
0000947100000001

>  <PUBCHEM_MMFF94_ENERGY>  (1) 
20.9881

>  <PUBCHEM_FEATURE_SELFOVERLAP>  (1) 
30.488

>  <PUBCHEM_SHAPE_FINGERPRINT>  (1) 
12553582 1 18339636755293045759
12707595 3 18335702706899278245
12730499 353 18116160050748951409
13464513 79 18343022176974446350
13533116 47 18334013926375767161
13675066 3 17489303054411429569
13955234 65 18200599206319221769
14178342 30 18055914290931674409
14252887 29 18272931579147348019
14528608 73 11386369258138505723
14863182 85 17418094333992863021
15183329 4 18410009898403424445
16945 1 17402047799863653524
17492 54 18193302834488722220
17844677 252 18334576846407173245
17980427 23 17843373397234443568
20369508 70 18260261950011045729
20645477 70 18410857702829285557
21524375 3 17905885130210458116
2255824 54 18409169943368559757
23419403 2 17469939692273141016
23558518 356 17472412635457658580
23559900 14 18273219703350513959
239999 70 18411705421735498463
3004659 81 18412266151681282261
31174 14 18187917400497182021
312423 11 18342192063698628345
3286 77 17895184477190497101
3411729 13 18264486363515985497
42630746 31 18337389456536780945
54040823 5 18335138683119598160
6025842 7 18270121343966161981
7364860 26 18342462585664773788
81228 2 17693085271760795528
8988823 20 18334569179626364261
960060 61 17095527288549736095
9841814 1 18334855004856638073
9999458 23 17969219109010093516

>  <PUBCHEM_SHAPE_MULTIPOLES>  (1) 
376.79
11.12
2.96
1.42
33.01
2.7
-0.07
-4.04
-0.26
-4.32
0.13
-1.72
-0.86
-0.13

>  <PUBCHEM_SHAPE_SELFOVERLAP>  (1) 
758.591

>  <PUBCHEM_SHAPE_VOLUME>  (1) 
222.7

>  <PUBCHEM_COORDINATE_TYPE>  (1) 
2
5
10

$$$$
