38014
     RDKit          3D

 17 18  0  0  0  0  0  0  0  0999 V2000
   -0.5142   -0.5996   -2.3259 Cl  0  0  0  0  0  0  0  0  0  0  0  0
    0.7881    2.8009   -0.4845 Cl  0  0  0  0  0  0  0  0  0  0  0  0
   -3.6451   -0.7763   -1.9013 Cl  0  0  0  0  0  0  0  0  0  0  0  0
    4.1464   -2.3556    0.5482 Cl  0  0  0  0  0  0  0  0  0  0  0  0
   -4.8452   -0.1757    0.9931 Cl  0  0  0  0  0  0  0  0  0  0  0  0
   -0.3857    0.0589    0.3018 C   0  0  0  0  0  0  0  0  0  0  0  0
    1.0561    0.1544    0.1619 C   0  0  0  0  0  0  0  0  0  0  0  0
   -1.2179   -0.2784   -0.7657 C   0  0  0  0  0  0  0  0  0  0  0  0
   -0.9334    0.3182    1.5582 C   0  0  0  0  0  0  0  0  0  0  0  0
    1.6819    1.3495   -0.1909 C   0  0  0  0  0  0  0  0  0  0  0  0
    1.8171   -0.9916    0.3907 C   0  0  0  0  0  0  0  0  0  0  0  0
   -2.5976   -0.3566   -0.5767 C   0  0  0  0  0  0  0  0  0  0  0  0
   -2.3132    0.2401    1.7471 C   0  0  0  0  0  0  0  0  0  0  0  0
    3.2055   -0.9422    0.2662 C   0  0  0  0  0  0  0  0  0  0  0  0
    3.0703    1.3987   -0.3152 C   0  0  0  0  0  0  0  0  0  0  0  0
   -3.1452   -0.0974    0.6796 C   0  0  0  0  0  0  0  0  0  0  0  0
    3.8322    0.2528   -0.0867 C   0  0  0  0  0  0  0  0  0  0  0  0
  1  8  1  0
  2 10  1  0
  3 12  1  0
  4 14  1  0
  5 16  1  0
  6  7  1  0
  6  8  2  0
  6  9  1  0
  7 10  2  0
  7 11  1  0
  8 12  1  0
  9 13  2  0
 10 15  1  0
 11 14  2  0
 12 16  2  0
 13 16  1  0
 14 17  1  0
 15 17  2  0
M  END
>  <PUBCHEM_COMPOUND_CID>  (1) 
38014

>  <PUBCHEM_CONFORMER_RMSD>  (1) 
0.6

>  <PUBCHEM_CONFORMER_DIVERSEORDER>  (1) 
2
1

>  <PUBCHEM_MMFF94_PARTIAL_CHARGES>  (1) 
20
1 -0.18
10 0.18
11 -0.15
12 0.18
13 -0.15
14 0.18
15 -0.15
16 0.18
17 -0.15
18 0.15
19 0.15
2 -0.18
20 0.15
21 0.15
22 0.15
3 -0.18
4 -0.18
5 -0.18
8 0.18
9 -0.15

>  <PUBCHEM_EFFECTIVE_ROTOR_COUNT>  (1) 
1

>  <PUBCHEM_PHARMACOPHORE_FEATURES>  (1) 
2
6 6 8 9 12 13 16 rings
6 7 10 11 14 15 17 rings

>  <PUBCHEM_HEAVY_ATOM_COUNT>  (1) 
17

>  <PUBCHEM_ATOM_DEF_STEREO_COUNT>  (1) 
0

>  <PUBCHEM_ATOM_UDEF_STEREO_COUNT>  (1) 
0

>  <PUBCHEM_BOND_DEF_STEREO_COUNT>  (1) 
0

>  <PUBCHEM_BOND_UDEF_STEREO_COUNT>  (1) 
0

>  <PUBCHEM_ISOTOPIC_ATOM_COUNT>  (1) 
0

>  <PUBCHEM_COMPONENT_COUNT>  (1) 
1

>  <PUBCHEM_CACTVS_TAUTO_COUNT>  (1) 
1

>  <PUBCHEM_CONFORMER_ID>  (1) 
0000947E00000002

>  <PUBCHEM_MMFF94_ENERGY>  (1) 
48.8154

>  <PUBCHEM_FEATURE_SELFOVERLAP>  (1) 
10.149

>  <PUBCHEM_SHAPE_FINGERPRINT>  (1) 
10062212 137 17704069625240271999
11132069 177 16128659647989028995
12236239 1 18060143149795486168
12553582 1 18337671910982410274
13134695 92 18408039628251421124
13538477 17 17703791469777226831
13544592 145 17313109630957583067
13581323 91 16630522946973243838
15219456 202 17458060490804143484
15375462 478 18271535225318889337
16752209 62 16917063416998292343
16945 1 18335420230826162780
1813 80 18197512735815405566
18186145 218 17095518461642765593
19049666 15 17313372392693115304
19422 9 18131348630753872070
200 152 18410570669442045074
20361792 2 18410570652647187134
20510252 161 15864064382404422205
20600515 1 15285633347743991172
20645476 183 18058735852358552991
20645477 70 18114183016972620026
20871999 31 14923951119733385295
21639500 275 18191023602223148316
22112679 90 17775284984327747048
22802520 49 16661193746452137094
23175994 123 17895199874194670108
23366157 5 17343481582702143257
23526113 38 17677593346203669732
23557571 272 16008752428849177444
23559900 14 16009021749401041882
23598291 2 18273496775463480814
3286 77 18041002834093894755
4072396 5 17274545326287286467
43471831 8 16917072126981245127
474 4 17983566696497189384
6049 1 17385722517212023973
6992083 37 18131352977271136660
77492 1 18060142058815783624
8272917 22 18338811034723948011

>  <PUBCHEM_SHAPE_MULTIPOLES>  (1) 
359.2
7.84
1.88
1.71
1.38
0.74
0.59
-3
-1.2
-2.42
0.19
1.86
-0.32
-1.03

>  <PUBCHEM_SHAPE_SELFOVERLAP>  (1) 
734.802

>  <PUBCHEM_SHAPE_VOLUME>  (1) 
201.2

>  <PUBCHEM_COORDINATE_TYPE>  (1) 
2
5
10

$$$$
