38018
     RDKit          3D

 18 19  0  0  0  0  0  0  0  0999 V2000
   -0.8341    1.8407   -1.5488 Cl  0  0  0  0  0  0  0  0  0  0  0  0
    0.8340   -1.8411   -1.5484 Cl  0  0  0  0  0  0  0  0  0  0  0  0
   -3.9712    1.4342   -1.4601 Cl  0  0  0  0  0  0  0  0  0  0  0  0
    3.9711   -1.4345   -1.4598 Cl  0  0  0  0  0  0  0  0  0  0  0  0
   -5.1910   -0.7178    0.5548 Cl  0  0  0  0  0  0  0  0  0  0  0  0
    5.1910    0.7179    0.5546 Cl  0  0  0  0  0  0  0  0  0  0  0  0
   -0.7221   -0.0734    0.3692 C   0  0  0  0  0  0  0  0  0  0  0  0
    0.7221    0.0735    0.3692 C   0  0  0  0  0  0  0  0  0  0  0  0
   -1.5484    0.6803   -0.4645 C   0  0  0  0  0  0  0  0  0  0  0  0
    1.5484   -0.6803   -0.4644 C   0  0  0  0  0  0  0  0  0  0  0  0
   -1.2784   -1.0078    1.2427 C   0  0  0  0  0  0  0  0  0  0  0  0
    1.2785    1.0080    1.2425 C   0  0  0  0  0  0  0  0  0  0  0  0
   -2.9309    0.4994   -0.4247 C   0  0  0  0  0  0  0  0  0  0  0  0
    2.9309   -0.4994   -0.4247 C   0  0  0  0  0  0  0  0  0  0  0  0
   -2.6609   -1.1886    1.2826 C   0  0  0  0  0  0  0  0  0  0  0  0
    2.6609    1.1890    1.2824 C   0  0  0  0  0  0  0  0  0  0  0  0
   -3.4871   -0.4351    0.4487 C   0  0  0  0  0  0  0  0  0  0  0  0
    3.4871    0.4352    0.4486 C   0  0  0  0  0  0  0  0  0  0  0  0
  1  9  1  0
  2 10  1  0
  3 13  1  0
  4 14  1  0
  5 17  1  0
  6 18  1  0
  7  8  1  0
  7  9  2  0
  7 11  1  0
  8 10  2  0
  8 12  1  0
  9 13  1  0
 10 14  1  0
 11 15  2  0
 12 16  2  0
 13 17  2  0
 14 18  2  0
 15 17  1  0
 16 18  1  0
M  END
>  <PUBCHEM_COMPOUND_CID>  (1) 
38018

>  <PUBCHEM_CONFORMER_RMSD>  (1) 
0.6

>  <PUBCHEM_CONFORMER_DIVERSEORDER>  (1) 
1
2

>  <PUBCHEM_MMFF94_PARTIAL_CHARGES>  (1) 
20
1 -0.18
10 0.18
11 -0.15
12 -0.15
13 0.18
14 0.18
15 -0.15
16 -0.15
17 0.18
18 0.18
19 0.15
2 -0.18
20 0.15
21 0.15
22 0.15
3 -0.18
4 -0.18
5 -0.18
6 -0.18
9 0.18

>  <PUBCHEM_EFFECTIVE_ROTOR_COUNT>  (1) 
1

>  <PUBCHEM_PHARMACOPHORE_FEATURES>  (1) 
2
6 7 9 11 13 15 17 rings
6 8 10 12 14 16 18 rings

>  <PUBCHEM_HEAVY_ATOM_COUNT>  (1) 
18

>  <PUBCHEM_ATOM_DEF_STEREO_COUNT>  (1) 
0

>  <PUBCHEM_ATOM_UDEF_STEREO_COUNT>  (1) 
0

>  <PUBCHEM_BOND_DEF_STEREO_COUNT>  (1) 
0

>  <PUBCHEM_BOND_UDEF_STEREO_COUNT>  (1) 
0

>  <PUBCHEM_ISOTOPIC_ATOM_COUNT>  (1) 
0

>  <PUBCHEM_COMPONENT_COUNT>  (1) 
1

>  <PUBCHEM_CACTVS_TAUTO_COUNT>  (1) 
1

>  <PUBCHEM_CONFORMER_ID>  (1) 
0000948200000001

>  <PUBCHEM_MMFF94_ENERGY>  (1) 
53.8279

>  <PUBCHEM_FEATURE_SELFOVERLAP>  (1) 
10.149

>  <PUBCHEM_SHAPE_FINGERPRINT>  (1) 
10498660 4 17749104448639908069
11471102 20 17846781801966145418
12119455 92 18272079517976275746
12403259 415 18411422786684925885
13538477 17 16153716474171854427
13583140 156 17899660640762220104
13760787 5 17131832045063448428
14386348 63 18410296921153756378
14739800 52 17096377314180994260
15219456 202 18413107242761990866
15309172 13 17989486355109562690
15375358 24 18410007723783532365
16752209 62 17385721400794716555
16945 1 18412265051220121282
18175812 5 18410856606884429843
18186145 218 18410575042008889737
19422 9 15697997426998774990
200 152 17132113533167725595
20279233 1 18409732876078724154
20344682 1 18410574002331320606
204376 136 17845652676739349554
20510252 161 18113613461438625057
20600515 1 17894916264693235445
20645476 183 15285652039980097211
20645477 70 18060143107057212598
20871999 31 17749117673107605599
21267235 1 17240205443078257993
22112679 90 16298387963296260710
23402539 116 17967803955591957823
23532345 42 18186241748939108117
23557571 272 18187365436763986164
23559900 14 18041843900945397606
3286 77 18131359587215249110
34797466 226 18042140867874004350
4340502 62 17417536916574958167
474 4 16126659722353450392
633830 44 16916801707149808504
77492 1 15769776857458671803
81228 2 17896898572747467493
8272917 22 17203062793825970519

>  <PUBCHEM_SHAPE_MULTIPOLES>  (1) 
381.65
9.23
1.69
1.62
0
0
-0.31
0
0.39
0
-0.59
0
0
2.31

>  <PUBCHEM_SHAPE_SELFOVERLAP>  (1) 
774.527

>  <PUBCHEM_SHAPE_VOLUME>  (1) 
214.2

>  <PUBCHEM_COORDINATE_TYPE>  (1) 
2
5
10

$$$$
