3802
     RDKit          3D

 23 26  0  0  0  0  0  0  0  0999 V2000
   -1.3689   -1.0647    0.3744 N   0  0  0  0  0  0  0  0  0  0  0  0
   -4.1267   -1.7736    0.2512 N   0  0  0  0  0  0  0  0  0  0  0  0
    0.8552   -1.4031    0.0776 N   0  0  0  0  0  0  0  0  0  0  0  0
    2.3093    1.1050    0.8223 N   0  0  0  0  0  0  0  0  0  0  0  0
    4.2914   -0.0227    0.3131 N   0  0  0  0  0  0  0  0  0  0  0  0
   -1.7589   -2.3990   -0.0795 C   0  0  0  0  0  0  0  0  0  0  0  0
   -2.3306   -0.4076    1.2585 C   0  0  0  0  0  0  0  0  0  0  0  0
   -3.1609   -2.3581   -0.6904 C   0  0  0  0  0  0  0  0  0  0  0  0
   -3.7203   -0.4095    0.6186 C   0  0  0  0  0  0  0  0  0  0  0  0
   -0.1270   -0.5503    0.1394 C   0  0  0  0  0  0  0  0  0  0  0  0
   -0.0249    0.9332   -0.0033 C   0  0  0  0  0  0  0  0  0  0  0  0
   -5.4703   -1.7718   -0.3256 C   0  0  0  0  0  0  0  0  0  0  0  0
    1.0836    1.6651    0.4339 C   0  0  0  0  0  0  0  0  0  0  0  0
   -1.1480    1.6170   -0.5133 C   0  0  0  0  0  0  0  0  0  0  0  0
    2.2159   -1.1620   -0.1049 C   0  0  0  0  0  0  0  0  0  0  0  0
   -1.1931    3.0099   -0.5494 C   0  0  0  0  0  0  0  0  0  0  0  0
    1.0060    3.0761    0.4089 C   0  0  0  0  0  0  0  0  0  0  0  0
    2.9282   -0.0558    0.3501 C   0  0  0  0  0  0  0  0  0  0  0  0
   -0.1187    3.7430   -0.0727 C   0  0  0  0  0  0  0  0  0  0  0  0
    2.9527   -2.2264   -0.6517 C   0  0  0  0  0  0  0  0  0  0  0  0
   -2.3877    3.7067   -1.1071 C   0  0  0  0  0  0  0  0  0  0  0  0
    4.3364   -2.1840   -0.7283 C   0  0  0  0  0  0  0  0  0  0  0  0
    4.9572   -1.0674   -0.2218 C   0  0  0  0  0  0  0  0  0  0  0  0
  1  6  1  0
  1  7  1  0
  1 10  1  0
  2  8  1  0
  2  9  1  0
  2 12  1  0
  3 10  2  0
  3 15  1  0
  4 13  1  0
  4 18  1  0
  5 18  2  0
  5 23  1  0
  6  8  1  0
  7  9  1  0
 10 11  1  0
 11 13  2  0
 11 14  1  0
 13 17  1  0
 14 16  2  0
 15 18  1  0
 15 20  2  0
 16 19  1  0
 16 21  1  0
 17 19  2  0
 20 22  1  0
 22 23  2  0
M  END
>  <PUBCHEM_COMPOUND_CID>  (1) 
3802

>  <PUBCHEM_CONFORMER_RMSD>  (1) 
0.6

>  <PUBCHEM_CONFORMER_DIVERSEORDER>  (1) 
1
7
3
8
2
6
4
5

>  <PUBCHEM_MMFF94_PARTIAL_CHARGES>  (1) 
30
1 -0.79
10 0.41
11 0.09
12 0.27
13 0.1
14 -0.15
15 0.18
16 -0.14
17 -0.15
18 0.41
19 -0.15
2 -0.81
20 -0.15
21 0.14
22 -0.15
23 0.16
3 -0.63
35 0.15
36 0.4
37 0.15
38 0.15
39 0.15
4 -0.6
43 0.15
44 0.15
5 -0.62
6 0.37
7 0.37
8 0.27
9 0.27

>  <PUBCHEM_EFFECTIVE_ROTOR_COUNT>  (1) 
2.4

>  <PUBCHEM_PHARMACOPHORE_FEATURES>  (1) 
9
1 2 cation
1 4 cation
1 4 donor
1 5 acceptor
3 1 3 10 cation
6 1 2 6 7 8 9 rings
6 11 13 14 16 17 19 rings
6 5 15 18 20 22 23 rings
7 3 4 10 11 13 15 18 rings

>  <PUBCHEM_HEAVY_ATOM_COUNT>  (1) 
23

>  <PUBCHEM_ATOM_DEF_STEREO_COUNT>  (1) 
0

>  <PUBCHEM_ATOM_UDEF_STEREO_COUNT>  (1) 
0

>  <PUBCHEM_BOND_DEF_STEREO_COUNT>  (1) 
0

>  <PUBCHEM_BOND_UDEF_STEREO_COUNT>  (1) 
0

>  <PUBCHEM_ISOTOPIC_ATOM_COUNT>  (1) 
0

>  <PUBCHEM_COMPONENT_COUNT>  (1) 
1

>  <PUBCHEM_CACTVS_TAUTO_COUNT>  (1) 
4

>  <PUBCHEM_CONFORMER_ID>  (1) 
00000EDA00000001

>  <PUBCHEM_MMFF94_ENERGY>  (1) 
98.8094

>  <PUBCHEM_FEATURE_SELFOVERLAP>  (1) 
45.69

>  <PUBCHEM_SHAPE_FINGERPRINT>  (1) 
10319926 262 18051387623784492330
10411042 1 18410575097580097043
10688039 33 18333452049272561295
10906281 52 18044943612986498488
10967382 1 18194401327671035192
11578080 2 17058052658834889385
116883 192 18409444803979512093
12403259 226 18412822495173259563
12553582 1 18337681913654988778
12788726 201 18260547788511317514
13009979 54 17987535847462929379
13140716 1 17906724062082426176
13540713 4 18200302209884279378
13583140 156 14764059000529356539
138480 1 15167984035867074128
14790565 3 17691975855864880848
15042514 8 18266175020318290882
15081414 286 18192150606348049133
15420108 30 17261293213016953176
15848702 151 18343866645028532443
16087824 20 18266178336761751717
16752209 62 18189049807094595482
17357779 13 18337378396705440989
17980427 23 17632590353033381513
1813 80 18408891766731430194
18335252 114 18338221761986751167
19141452 34 18273220776823624379
19591789 44 18339081484292568099
20739085 24 17976248363802487640
21049683 271 18118981414179878188
21267235 1 18342186604225632211
21285901 2 18343027665911301423
21478907 32 18338796710744440546
21524375 3 17250903437876699146
21641784 216 18042425602667933916
221490 88 18048602813248007243
22182313 1 18269817801294464552
23352939 185 18271536385091759304
23419403 2 17774419642817323857
23557571 272 18341058406890639942
23559900 14 18126561447611103091
2748010 2 18340753863359875512
3091708 16 9136931172947594808
3380486 145 18195829387518104097
3421961 26 18268710682836151369
352729 6 17762899870693589258
4409770 3 18192430758263394581
58779409 54 18193270797942382772
58779409 8 17974847272392570853
6443956 14 18337107994128006405
68521 5 18335704905542784183
7164475 11 18335992961111038558
7237137 82 18263660484876318428
7364860 26 18051977214295981929
81228 2 18261120629605369416
9709674 26 17983012246420599102

>  <PUBCHEM_SHAPE_MULTIPOLES>  (1) 
448.42
8.47
4.52
0.9
1.19
4.3
0.01
-8.07
-0.78
-2.57
-1.15
-0.24
0.13
1.1

>  <PUBCHEM_SHAPE_SELFOVERLAP>  (1) 
977.036

>  <PUBCHEM_SHAPE_VOLUME>  (1) 
236.8

>  <PUBCHEM_COORDINATE_TYPE>  (1) 
2
5
10

$$$$
