38020
     RDKit          3D

 12 13  0  0  1  0  0  0  0  0999 V2000
   -0.9909   -2.3569   -0.7370 O   0  0  0  0  0  0  0  0  0  0  0  0
   -1.3899    0.7196    0.0323 C   0  0  0  0  0  0  0  0  0  0  0  0
   -1.8065   -0.5984    0.7479 C   0  0  0  0  0  0  0  0  0  0  0  0
   -0.7132   -1.6403    0.4532 C   0  0  0  0  0  0  0  0  0  0  0  0
    0.1131    0.5640    0.0114 C   0  0  0  0  0  0  0  0  0  0  0  0
    0.4843   -0.7673    0.2489 C   0  0  0  0  0  0  0  0  0  0  0  0
   -1.9445    0.7860   -1.3969 C   0  0  0  0  0  0  0  0  0  0  0  0
   -1.8587    1.9391    0.8323 C   0  0  0  0  0  0  0  0  0  0  0  0
    1.0781    1.5319   -0.2303 C   0  0  0  0  0  0  0  0  0  0  0  0
    1.8164   -1.1518    0.2487 C   0  0  0  0  0  0  0  0  0  0  0  0
    2.4226    1.1534   -0.2244 C   0  0  0  0  0  0  0  0  0  0  0  0
    2.7891   -0.1791    0.0137 C   0  0  0  0  0  0  0  0  0  0  0  0
  1  4  1  0
  2  3  1  0
  2  5  1  0
  2  7  1  0
  2  8  1  0
  3  4  1  0
  4  6  1  0
  5  6  2  0
  5  9  1  0
  6 10  1  0
  9 11  2  0
 10 12  2  0
 11 12  1  0
M  END
>  <PUBCHEM_COMPOUND_CID>  (1) 
38020

>  <PUBCHEM_CONFORMER_RMSD>  (1) 
0.4

>  <PUBCHEM_CONFORMER_DIVERSEORDER>  (1) 
2
1

>  <PUBCHEM_MMFF94_PARTIAL_CHARGES>  (1) 
14
1 -0.68
10 -0.15
11 -0.15
12 -0.15
2 0.14
22 0.15
23 0.15
24 0.4
25 0.15
26 0.15
4 0.42
5 -0.14
6 -0.14
9 -0.15

>  <PUBCHEM_EFFECTIVE_ROTOR_COUNT>  (1) 
0.6

>  <PUBCHEM_PHARMACOPHORE_FEATURES>  (1) 
5
1 1 acceptor
1 1 donor
3 2 7 8 hydrophobe
5 2 3 4 5 6 rings
6 5 6 9 10 11 12 rings

>  <PUBCHEM_HEAVY_ATOM_COUNT>  (1) 
12

>  <PUBCHEM_ATOM_DEF_STEREO_COUNT>  (1) 
0

>  <PUBCHEM_ATOM_UDEF_STEREO_COUNT>  (1) 
1

>  <PUBCHEM_BOND_DEF_STEREO_COUNT>  (1) 
0

>  <PUBCHEM_BOND_UDEF_STEREO_COUNT>  (1) 
0

>  <PUBCHEM_ISOTOPIC_ATOM_COUNT>  (1) 
0

>  <PUBCHEM_COMPONENT_COUNT>  (1) 
1

>  <PUBCHEM_CACTVS_TAUTO_COUNT>  (1) 
1

>  <PUBCHEM_CONFORMER_ID>  (1) 
0000948400000002

>  <PUBCHEM_MMFF94_ENERGY>  (1) 
38.9206

>  <PUBCHEM_FEATURE_SELFOVERLAP>  (1) 
25.452

>  <PUBCHEM_SHAPE_FINGERPRINT>  (1) 
11206711 2 18118405287562068500
12423570 1 14369700970488644835
12524768 44 18265052436142115862
13024252 1 15140959582028415353
14614273 12 18043805605228997836
14817 1 9781314612697253359
15775835 57 18114187401791097308
16945 1 18341053007562568304
17844478 74 17822586013293512585
18185500 45 17762907966548907466
21040471 1 18410578353412889560
23419403 2 16394293032575081028
23552423 10 18043815501070764534
23559900 14 18341345414407363060
241688 4 16249131684860157394
25 1 17755569456810259877
2748010 2 18336835169262909030
369184 2 17846500356769447264
5084963 1 17822300075661281737
528886 8 18266177219120110944
63268167 104 18263073319311920544

>  <PUBCHEM_SHAPE_MULTIPOLES>  (1) 
241.09
3.34
2.13
0.95
1.41
0.5
0.17
-0.83
0.04
-0.5
0.02
-0.56
-0.09
-0.2

>  <PUBCHEM_SHAPE_SELFOVERLAP>  (1) 
517.052

>  <PUBCHEM_SHAPE_VOLUME>  (1) 
137.2

>  <PUBCHEM_COORDINATE_TYPE>  (1) 
2
5
10

$$$$
