38033
     RDKit          3D

 15 16  0  0  0  0  0  0  0  0999 V2000
   -0.3502   -2.8113    0.2222 Cl  0  0  0  0  0  0  0  0  0  0  0  0
   -3.8443    2.3528   -0.0136 Cl  0  0  0  0  0  0  0  0  0  0  0  0
    3.9736    0.6736    1.9838 Cl  0  0  0  0  0  0  0  0  0  0  0  0
   -0.6910   -0.1125   -0.0833 C   0  0  0  0  0  0  0  0  0  0  0  0
    0.7357    0.0323   -0.2765 C   0  0  0  0  0  0  0  0  0  0  0  0
   -1.2827   -1.3565    0.1482 C   0  0  0  0  0  0  0  0  0  0  0  0
   -1.4867    1.0343   -0.1329 C   0  0  0  0  0  0  0  0  0  0  0  0
    1.5691    0.2561    0.8194 C   0  0  0  0  0  0  0  0  0  0  0  0
    1.2774   -0.0504   -1.5593 C   0  0  0  0  0  0  0  0  0  0  0  0
   -2.8664    0.9379    0.0480 C   0  0  0  0  0  0  0  0  0  0  0  0
   -2.6624   -1.4530    0.3291 C   0  0  0  0  0  0  0  0  0  0  0  0
    2.9441    0.3972    0.6325 C   0  0  0  0  0  0  0  0  0  0  0  0
    2.6524    0.0908   -1.7462 C   0  0  0  0  0  0  0  0  0  0  0  0
   -3.4543   -0.3057    0.2789 C   0  0  0  0  0  0  0  0  0  0  0  0
    3.4858    0.3144   -0.6502 C   0  0  0  0  0  0  0  0  0  0  0  0
  1  6  1  0
  2 10  1  0
  3 12  1  0
  4  5  1  0
  4  6  2  0
  4  7  1  0
  5  8  2  0
  5  9  1  0
  6 11  1  0
  7 10  2  0
  8 12  1  0
  9 13  2  0
 10 14  1  0
 11 14  2  0
 12 15  2  0
 13 15  1  0
M  END
>  <PUBCHEM_COMPOUND_CID>  (1) 
38033

>  <PUBCHEM_CONFORMER_RMSD>  (1) 
0.4

>  <PUBCHEM_CONFORMER_DIVERSEORDER>  (1) 
1
6
4
3
2
5

>  <PUBCHEM_MMFF94_PARTIAL_CHARGES>  (1) 
20
1 -0.18
10 0.18
11 -0.15
12 0.18
13 -0.15
14 -0.15
15 -0.15
16 0.15
17 0.15
18 0.15
19 0.15
2 -0.18
20 0.15
21 0.15
22 0.15
3 -0.18
6 0.18
7 -0.15
8 -0.15
9 -0.15

>  <PUBCHEM_EFFECTIVE_ROTOR_COUNT>  (1) 
1

>  <PUBCHEM_PHARMACOPHORE_FEATURES>  (1) 
2
6 4 6 7 10 11 14 rings
6 5 8 9 12 13 15 rings

>  <PUBCHEM_HEAVY_ATOM_COUNT>  (1) 
15

>  <PUBCHEM_ATOM_DEF_STEREO_COUNT>  (1) 
0

>  <PUBCHEM_ATOM_UDEF_STEREO_COUNT>  (1) 
0

>  <PUBCHEM_BOND_DEF_STEREO_COUNT>  (1) 
0

>  <PUBCHEM_BOND_UDEF_STEREO_COUNT>  (1) 
0

>  <PUBCHEM_ISOTOPIC_ATOM_COUNT>  (1) 
0

>  <PUBCHEM_COMPONENT_COUNT>  (1) 
1

>  <PUBCHEM_CACTVS_TAUTO_COUNT>  (1) 
1

>  <PUBCHEM_CONFORMER_ID>  (1) 
0000949100000001

>  <PUBCHEM_MMFF94_ENERGY>  (1) 
41.8086

>  <PUBCHEM_FEATURE_SELFOVERLAP>  (1) 
10.149

>  <PUBCHEM_SHAPE_FINGERPRINT>  (1) 
10608611 8 18131351924993853064
11132069 177 18334011666574252669
11725454 13 17415244357036090888
12119455 92 17060327544530131368
12236239 1 17458626747813765500
12500047 106 18412829088222508486
12788726 201 17535202351163700555
13538477 17 17750801136588633442
13571099 52 18131062714738467413
13581323 91 18334575788742437946
14144814 61 17822014237008244036
14178342 30 18334292059082028851
15219456 202 17704357688295699380
15279308 16 17775281681476797552
15375358 24 17917704703988290392
15669948 3 18117003379950641990
15775835 57 18113907034968761321
15852999 172 18273221880403392334
16752209 62 18335143132769370839
16945 1 18337397157154491423
17357990 137 17749404649510206628
18186145 218 17988655059730898353
19049666 15 17988376861888106974
19422 9 17385726927921845314
200 152 16081358700521835339
20279233 1 17917713508665621542
20510252 161 18341905125032478169
20645464 45 18131067173009570259
20645476 183 17386579096699519975
20645477 70 16559038155680994716
20715346 28 17846786242740796404
212916 134 18339067216421961953
21639500 275 15769770290807156240
22096605 113 16415471658224977776
22112679 90 17748821955813671516
23382010 3 14476376262672058733
23402539 116 18271230699210295141
23557571 272 18272660072795168477
23559900 14 18270971154953659582
23598291 2 17385729122929760430
2748010 2 18264786363176806103
276578 36 18263089820576103011
305870 269 18263645078422763483
43471831 8 18333731299715422659
45790113 50 15140966114605107516
495365 180 17703218504023498294
5706482 22 18333722512343671011
6049 1 17845390958058409896
69090 78 17632296808903540375
7364860 26 17980762640892466943
7615 1 17604427517332657316
77492 1 17458347476229130790
81228 2 18052824929456327899
84936 182 17766839433952322625
88987 49 18337957891062751390
90316 7 17749380447359522357

>  <PUBCHEM_SHAPE_MULTIPOLES>  (1) 
314.3
7.01
2.03
1.39
0.65
0.91
0.07
-3.41
-1.53
-2.28
-0.27
2.02
-0.21
0.54

>  <PUBCHEM_SHAPE_SELFOVERLAP>  (1) 
654.501

>  <PUBCHEM_SHAPE_VOLUME>  (1) 
173.5

>  <PUBCHEM_COORDINATE_TYPE>  (1) 
2
5
10

$$$$
