38048
     RDKit          3D

 13 13  0  0  0  0  0  0  0  0999 V2000
    2.6091   -0.3036    0.3532 O   0  0  0  0  0  0  0  0  0  0  0  0
   -3.2618    0.5154   -0.2233 O   0  0  0  0  0  0  0  0  0  0  0  0
   -2.2823   -1.4432   -0.0706 O   0  0  0  0  0  0  0  0  0  0  0  0
   -2.2348   -0.1920   -0.1050 N   0  0  0  0  0  0  0  0  0  0  0  0
    0.1619   -2.8700    0.2020 N   0  0  0  0  0  0  0  0  0  0  0  0
    1.4374    0.3824    0.2207 C   0  0  0  0  0  0  0  0  0  0  0  0
    0.2138   -0.2808    0.1270 C   0  0  0  0  0  0  0  0  0  0  0  0
   -0.9670    0.4498   -0.0064 C   0  0  0  0  0  0  0  0  0  0  0  0
    1.4801    1.7762    0.1809 C   0  0  0  0  0  0  0  0  0  0  0  0
   -0.9241    1.8435   -0.0462 C   0  0  0  0  0  0  0  0  0  0  0  0
    0.2993    2.5067    0.0475 C   0  0  0  0  0  0  0  0  0  0  0  0
    3.2832   -0.6694   -0.8483 C   0  0  0  0  0  0  0  0  0  0  0  0
    0.1851   -1.7149    0.1685 C   0  0  0  0  0  0  0  0  0  0  0  0
  1  6  1  0
  1 12  1  0
  2  4  1  0
  3  4  2  0
  4  8  1  0
  5 13  3  0
  6  7  2  0
  6  9  1  0
  7  8  1  0
  7 13  1  0
  8 10  2  0
  9 11  2  0
 10 11  1  0
M  CHG  2   2  -1   4   1
M  END
>  <PUBCHEM_COMPOUND_CID>  (1) 
38048

>  <PUBCHEM_CONFORMER_RMSD>  (1) 
0.6

>  <PUBCHEM_CONFORMER_DIVERSEORDER>  (1) 
1

>  <PUBCHEM_MMFF94_PARTIAL_CHARGES>  (1) 
16
1 -0.36
10 -0.15
11 -0.15
12 0.28
13 0.48
14 0.15
15 0.15
16 0.15
2 -0.52
3 -0.52
4 0.91
5 -0.56
6 0.08
7 0.07
8 0.13
9 -0.15

>  <PUBCHEM_EFFECTIVE_ROTOR_COUNT>  (1) 
2

>  <PUBCHEM_PHARMACOPHORE_FEATURES>  (1) 
6
1 1 acceptor
1 2 acceptor
1 2 anion
1 3 acceptor
1 5 acceptor
6 6 7 8 9 10 11 rings

>  <PUBCHEM_HEAVY_ATOM_COUNT>  (1) 
13

>  <PUBCHEM_ATOM_DEF_STEREO_COUNT>  (1) 
0

>  <PUBCHEM_ATOM_UDEF_STEREO_COUNT>  (1) 
0

>  <PUBCHEM_BOND_DEF_STEREO_COUNT>  (1) 
0

>  <PUBCHEM_BOND_UDEF_STEREO_COUNT>  (1) 
0

>  <PUBCHEM_ISOTOPIC_ATOM_COUNT>  (1) 
0

>  <PUBCHEM_COMPONENT_COUNT>  (1) 
1

>  <PUBCHEM_CACTVS_TAUTO_COUNT>  (1) 
1

>  <PUBCHEM_CONFORMER_ID>  (1) 
000094A000000001

>  <PUBCHEM_MMFF94_ENERGY>  (1) 
51.3381

>  <PUBCHEM_FEATURE_SELFOVERLAP>  (1) 
30.531

>  <PUBCHEM_SHAPE_FINGERPRINT>  (1) 
10353120 184 18411140203722827460
10967382 1 18410571756073993563
11206711 2 18336544898109105356
12524768 44 18123467438943354962
13380535 21 17832721431679549928
13380535 76 17835228322575582320
14614273 12 17971751077855780612
15219459 52 18264209290880116660
16945 1 18338229345670004073
193761 8 17761774365839322304
20588541 1 18335140834940372173
20645476 183 17676781941230204590
21040471 1 18049437346736262673
21501502 16 17834111227267176954
2334 1 18194117636633598545
23402539 116 18341038662878357974
23419403 2 14944396383748538104
23552423 10 18261954175256772228
23559900 14 18341060726621684612
241688 4 18411700971806696608
2748010 2 18337103596197708613
5084963 1 18130787866964937856
5255222 1 17907294352013987496
528886 8 18410849945490400217
53812653 11 18411420634885231134
66348 1 18410289173000982379
7364860 26 17983578790861064512

>  <PUBCHEM_SHAPE_MULTIPOLES>  (1) 
239.96
3.74
2.69
0.67
0.05
0.28
0.04
0.62
0.76
0
-0.19
0.23
0.01
0.17

>  <PUBCHEM_SHAPE_SELFOVERLAP>  (1) 
507.136

>  <PUBCHEM_SHAPE_VOLUME>  (1) 
132.9

>  <PUBCHEM_COORDINATE_TYPE>  (1) 
2
5
10

$$$$
