38047
     RDKit          3D

 18 20  0  0  0  0  0  0  0  0999 V2000
    2.3168   -1.4897   -0.0088 O   0  0  0  0  0  0  0  0  0  0  0  0
    1.2525   -3.4962   -0.0269 O   0  0  0  0  0  0  0  0  0  0  0  0
   -1.4061    0.4462    0.0164 N   0  0  0  0  0  0  0  0  0  0  0  0
   -1.2183   -2.4074   -0.0082 N   0  0  0  0  0  0  0  0  0  0  0  0
   -2.0826    0.8158    1.2608 C   0  0  0  0  0  0  0  0  0  0  0  0
   -2.0435    0.9279   -1.2103 C   0  0  0  0  0  0  0  0  0  0  0  0
   -3.5265    0.3178    1.2357 C   0  0  0  0  0  0  0  0  0  0  0  0
   -3.4869    0.4326   -1.2760 C   0  0  0  0  0  0  0  0  0  0  0  0
   -4.2602    0.8051   -0.0124 C   0  0  0  0  0  0  0  0  0  0  0  0
   -0.2143   -0.2183    0.0053 C   0  0  0  0  0  0  0  0  0  0  0  0
    1.0304    0.5796    0.0067 C   0  0  0  0  0  0  0  0  0  0  0  0
   -0.1356   -1.5672   -0.0057 C   0  0  0  0  0  0  0  0  0  0  0  0
    2.2538   -0.0873    0.0005 C   0  0  0  0  0  0  0  0  0  0  0  0
    1.0739    1.9838    0.0131 C   0  0  0  0  0  0  0  0  0  0  0  0
    1.1754   -2.2710   -0.0152 C   0  0  0  0  0  0  0  0  0  0  0  0
    3.4803    0.5834    0.0018 C   0  0  0  0  0  0  0  0  0  0  0  0
    2.2942    2.6723    0.0145 C   0  0  0  0  0  0  0  0  0  0  0  0
    3.4968    1.9724    0.0089 C   0  0  0  0  0  0  0  0  0  0  0  0
  1 13  1  0
  1 15  1  0
  2 15  2  0
  3  5  1  0
  3  6  1  0
  3 10  1  0
  4 12  1  0
  5  7  1  0
  6  8  1  0
  7  9  1  0
  8  9  1  0
 10 11  1  0
 10 12  2  0
 11 13  2  0
 11 14  1  0
 12 15  1  0
 13 16  1  0
 14 17  2  0
 16 18  2  0
 17 18  1  0
M  END
>  <PUBCHEM_COMPOUND_CID>  (1) 
38047

>  <PUBCHEM_CONFORMER_RMSD>  (1) 
0.6

>  <PUBCHEM_CONFORMER_DIVERSEORDER>  (1) 
1
2

>  <PUBCHEM_MMFF94_PARTIAL_CHARGES>  (1) 
21
1 -0.23
10 0.07
11 0.03
12 0.11
13 0.08
14 -0.15
15 0.71
16 -0.15
17 -0.15
18 -0.15
2 -0.57
29 0.15
3 -0.84
30 0.15
31 0.4
32 0.4
33 0.15
34 0.15
4 -0.9
5 0.37
6 0.37

>  <PUBCHEM_EFFECTIVE_ROTOR_COUNT>  (1) 
2.2

>  <PUBCHEM_PHARMACOPHORE_FEATURES>  (1) 
7
1 2 acceptor
1 3 cation
1 4 cation
1 4 donor
6 1 10 11 12 13 15 rings
6 11 13 14 16 17 18 rings
6 3 5 6 7 8 9 rings

>  <PUBCHEM_HEAVY_ATOM_COUNT>  (1) 
18

>  <PUBCHEM_ATOM_DEF_STEREO_COUNT>  (1) 
0

>  <PUBCHEM_ATOM_UDEF_STEREO_COUNT>  (1) 
0

>  <PUBCHEM_BOND_DEF_STEREO_COUNT>  (1) 
0

>  <PUBCHEM_BOND_UDEF_STEREO_COUNT>  (1) 
0

>  <PUBCHEM_ISOTOPIC_ATOM_COUNT>  (1) 
0

>  <PUBCHEM_COMPONENT_COUNT>  (1) 
1

>  <PUBCHEM_CACTVS_TAUTO_COUNT>  (1) 
2

>  <PUBCHEM_CONFORMER_ID>  (1) 
0000949F00000001

>  <PUBCHEM_MMFF94_ENERGY>  (1) 
62.2186

>  <PUBCHEM_FEATURE_SELFOVERLAP>  (1) 
35.549

>  <PUBCHEM_SHAPE_FINGERPRINT>  (1) 
10411042 1 17690280408982082479
10871710 139 16527807949275641140
10967382 1 18410855438938291844
10980938 120 18410012109040210616
11471102 20 18410572855596437212
11582403 64 16739401029637073229
11725454 13 16953059172833737861
12236239 1 17703789198219867397
12390115 104 17980499054618295264
12553582 1 17690849955962910067
12592029 89 18408600361985334867
12730499 353 18335139783069153541
13009979 54 17487339227105990083
13140716 1 18338513144614094026
13380535 76 18410288155252125066
13583140 156 16951387966319661553
14251717 144 18411696556616959933
14787075 74 17914903269257734699
14790565 3 18267041487522479828
15219456 202 18114464470548093477
15309172 13 18409452526367724505
16945 1 18410856521238284992
1813 80 17483125851251146750
18186145 218 18342742926722340260
18219364 16 18335703866229491137
19049666 15 17824539669468270045
19591789 44 18266182905683379218
204376 136 18337393849955839880
20510252 161 17765998676565013072
20645477 70 18335690590849199527
21041028 32 17834965169686574921
21499 59 18411416254150685269
21501502 16 18193836174731615868
21524375 3 18263077872061578978
21639500 275 18410846647076966045
22112679 90 17203320058066882481
2255824 54 18342178817254206646
22854114 111 18411700967537992277
2334 1 18122343742491976140
23558518 356 17829607619492899208
23598291 2 17917147174483809997
238 59 17902470923182798125
25 1 18410008844944284444
2748010 2 18337963410243543078
3060560 45 18411134732203452924
3091708 16 9188468590293224626
31174 14 18263095318413927251
33824 294 18408604751526281259
350125 39 18049449437084901784
4340502 62 18341063990579908563
458136 41 18337405888690823533
474 4 18413390942748415609
49207404 50 18188788243791757275
6333272 397 18411704317680957721
633830 44 18130240310259136701
7364860 26 18339643334871693478
77492 1 17631727175986046881
81228 2 17471566006860611400
8272917 22 18269560451259688781
84936 182 18202273697766660081

>  <PUBCHEM_SHAPE_MULTIPOLES>  (1) 
348.73
6.33
2.98
0.96
2.99
2.22
0
-3.43
0.02
-2.33
-0.04
1.02
-0.25
0.06

>  <PUBCHEM_SHAPE_SELFOVERLAP>  (1) 
754.621

>  <PUBCHEM_SHAPE_VOLUME>  (1) 
189.3

>  <PUBCHEM_COORDINATE_TYPE>  (1) 
2
5
10

$$$$
