38052
     RDKit          3D

 14 15  0  0  0  0  0  0  0  0999 V2000
   -3.4221    1.5821   -0.0010 S   0  0  0  0  0  0  0  0  0  0  0  0
    1.1187    0.5086    0.0001 O   0  0  0  0  0  0  0  0  0  0  0  0
    4.5347   -0.2395    0.0008 O   0  0  0  0  0  0  0  0  0  0  0  0
    3.4607    1.6750    0.0009 O   0  0  0  0  0  0  0  0  0  0  0  0
   -2.3998   -0.7922   -0.0001 N   0  0  0  0  0  0  0  0  0  0  0  0
    3.4467    0.4086    0.0008 N   0  0  0  0  0  0  0  0  0  0  0  0
   -4.7627   -0.7151    0.0028 N   0  0  0  0  0  0  0  0  0  0  0  0
    0.0505   -0.3314   -0.0008 C   0  0  0  0  0  0  0  0  0  0  0  0
   -1.3558    0.1121   -0.0012 C   0  0  0  0  0  0  0  0  0  0  0  0
    0.4667   -1.6423   -0.0011 C   0  0  0  0  0  0  0  0  0  0  0  0
    2.2290   -0.2746    0.0000 C   0  0  0  0  0  0  0  0  0  0  0  0
    1.8815   -1.6055   -0.0007 C   0  0  0  0  0  0  0  0  0  0  0  0
   -1.7126    1.4443   -0.0009 C   0  0  0  0  0  0  0  0  0  0  0  0
   -3.5355   -0.1302    0.0003 C   0  0  0  0  0  0  0  0  0  0  0  0
  1 13  1  0
  1 14  1  0
  2  8  1  0
  2 11  1  0
  3  6  1  0
  4  6  2  0
  5  9  1  0
  5 14  2  0
  6 11  1  0
  7 14  1  0
  8  9  1  0
  8 10  2  0
  9 13  2  0
 10 12  1  0
 11 12  2  0
M  CHG  2   3  -1   6   1
M  END
>  <PUBCHEM_COMPOUND_CID>  (1) 
38052

>  <PUBCHEM_CONFORMER_RMSD>  (1) 
0.6

>  <PUBCHEM_CONFORMER_DIVERSEORDER>  (1) 
1
3
2
4

>  <PUBCHEM_MMFF94_PARTIAL_CHARGES>  (1) 
19
1 -0.08
10 -0.15
11 0.22
12 -0.15
13 -0.11
14 0.46
15 0.15
16 0.15
17 0.15
18 0.4
19 0.4
2 -0.28
3 -0.52
4 -0.52
5 -0.57
6 0.96
7 -0.88
8 0.14
9 0.23

>  <PUBCHEM_EFFECTIVE_ROTOR_COUNT>  (1) 
2

>  <PUBCHEM_PHARMACOPHORE_FEATURES>  (1) 
8
1 2 acceptor
1 3 acceptor
1 3 anion
1 4 acceptor
1 7 donor
3 5 7 14 cation
5 1 5 9 13 14 rings
5 2 8 10 11 12 rings

>  <PUBCHEM_HEAVY_ATOM_COUNT>  (1) 
14

>  <PUBCHEM_ATOM_DEF_STEREO_COUNT>  (1) 
0

>  <PUBCHEM_ATOM_UDEF_STEREO_COUNT>  (1) 
0

>  <PUBCHEM_BOND_DEF_STEREO_COUNT>  (1) 
0

>  <PUBCHEM_BOND_UDEF_STEREO_COUNT>  (1) 
0

>  <PUBCHEM_ISOTOPIC_ATOM_COUNT>  (1) 
0

>  <PUBCHEM_COMPONENT_COUNT>  (1) 
1

>  <PUBCHEM_CACTVS_TAUTO_COUNT>  (1) 
2

>  <PUBCHEM_CONFORMER_ID>  (1) 
000094A400000001

>  <PUBCHEM_MMFF94_ENERGY>  (1) 
16.2424

>  <PUBCHEM_FEATURE_SELFOVERLAP>  (1) 
40.687

>  <PUBCHEM_SHAPE_FINGERPRINT>  (1) 
10608611 8 18336825269453274429
11615757 297 17918278657710974433
11806522 49 18336826498182984847
12346645 44 18411136926525526411
124424 183 7997967973129931531
12932764 1 17532939290203499695
13081056 2 18413389851858227840
13380535 76 18408605868017876770
14144814 61 18337673018819643995
14325111 11 18410573950807537029
14415576 193 18410015424981868564
14445660 50 18271534087574484089
14897335 6 18410853226808601391
15196674 1 18410856542507717957
15442244 35 17979073777967504898
15536298 74 18342176605441066134
15775835 57 18343302552428726333
170605 34 18408604742878564674
17802600 8 18410288116629301768
18186145 218 18200884971799202420
200 152 18271798017635897925
20279233 1 15864075347376658123
20510252 161 18271247123624197033
20645477 70 18269550534006434639
21267235 1 18410864252032049567
21501502 16 18266737987477903211
21524375 3 18410574002758822114
23402539 116 18261666047871676847
23402655 69 18270111319422575437
23557571 272 18271815592241484373
23559900 14 18196647393782800354
25610 137 18412827984458039849
3312278 4 18341895156529396073
4990 188 18060428988738629166
5104073 3 18337673010213924979
57096353 35 18412260653532300151
58051976 378 18343580728913070295
6333272 397 18335702792687932312
7364860 26 18196372516055314854
77779 3 18412546470583815959
9709674 26 18410580548125925111

>  <PUBCHEM_SHAPE_MULTIPOLES>  (1) 
259.41
8.07
1.66
0.58
0.16
0.16
0
1.21
0.01
0.03
0
-0.07
0
0

>  <PUBCHEM_SHAPE_SELFOVERLAP>  (1) 
549.825

>  <PUBCHEM_SHAPE_VOLUME>  (1) 
148.3

>  <PUBCHEM_COORDINATE_TYPE>  (1) 
2
5
10

$$$$
