38058
     RDKit          3D

 23 25  0  0  0  0  0  0  0  0999 V2000
   -1.7746    1.8698   -1.3807 O   0  0  0  0  0  0  0  0  0  0  0  0
   -2.9010   -1.8371    2.2988 O   0  0  0  0  0  0  0  0  0  0  0  0
    3.3997    0.6272   -0.1748 N   0  0  0  0  0  0  0  0  0  0  0  0
    5.4763   -1.3284   -0.6453 N   0  0  0  0  0  0  0  0  0  0  0  0
    0.0577    1.4388    0.5931 N   0  0  0  0  0  0  0  0  0  0  0  0
    3.9149    0.3728   -1.5258 C   0  0  0  0  0  0  0  0  0  0  0  0
    4.4386    0.3625    0.8278 C   0  0  0  0  0  0  0  0  0  0  0  0
    4.4384   -1.0623   -1.6488 C   0  0  0  0  0  0  0  0  0  0  0  0
    4.9612   -1.0730    0.7055 C   0  0  0  0  0  0  0  0  0  0  0  0
    2.9025    1.9966   -0.0582 C   0  0  0  0  0  0  0  0  0  0  0  0
    2.2655    2.2129    1.3158 C   0  0  0  0  0  0  0  0  0  0  0  0
    1.1003    1.2605    1.5755 C   0  0  0  0  0  0  0  0  0  0  0  0
    5.9716   -2.6987   -0.7615 C   0  0  0  0  0  0  0  0  0  0  0  0
   -1.0918    0.7178    0.5771 C   0  0  0  0  0  0  0  0  0  0  0  0
   -2.0363    1.0179   -0.5378 C   0  0  0  0  0  0  0  0  0  0  0  0
   -3.3039    0.2624   -0.6050 C   0  0  0  0  0  0  0  0  0  0  0  0
   -1.4066   -0.2168    1.4825 C   0  0  0  0  0  0  0  0  0  0  0  0
   -3.6073   -0.7064    0.3520 C   0  0  0  0  0  0  0  0  0  0  0  0
   -2.6637   -0.9909    1.4456 C   0  0  0  0  0  0  0  0  0  0  0  0
   -4.2087    0.5233   -1.6413 C   0  0  0  0  0  0  0  0  0  0  0  0
   -4.8125   -1.4143    0.2770 C   0  0  0  0  0  0  0  0  0  0  0  0
   -5.4094   -0.1840   -1.7145 C   0  0  0  0  0  0  0  0  0  0  0  0
   -5.7109   -1.1505   -0.7571 C   0  0  0  0  0  0  0  0  0  0  0  0
  1 15  2  0
  2 19  2  0
  3  6  1  0
  3  7  1  0
  3 10  1  0
  4  8  1  0
  4  9  1  0
  4 13  1  0
  5 12  1  0
  5 14  1  0
  6  8  1  0
  7  9  1  0
 10 11  1  0
 11 12  1  0
 14 15  1  0
 14 17  2  0
 15 16  1  0
 16 18  2  0
 16 20  1  0
 17 19  1  0
 18 19  1  0
 18 21  1  0
 20 22  2  0
 21 23  2  0
 22 23  1  0
M  END
>  <PUBCHEM_COMPOUND_CID>  (1) 
38058

>  <PUBCHEM_CONFORMER_RMSD>  (1) 
0.8

>  <PUBCHEM_CONFORMER_DIVERSEORDER>  (1) 
2
54
43
62
39
25
29
41
9
31
24
61
72
1
79
15
82
89
36
84
6
80
37
58
7
22
78
52
38
17
63
45
69
10
46
32
83
18
91
4
92
34
27
94
59
28
65
75
73
93
57
26
20
74
64
33
77
48
56
5
70
76
11
42
16
44
40
51
81
55
35
85
14
21
66
90
23
8
12
13
88
47
68
86
50
49
60
67
53
3
19
30
87
71

>  <PUBCHEM_MMFF94_PARTIAL_CHARGES>  (1) 
28
1 -0.57
10 0.27
12 0.37
13 0.27
14 0.11
15 0.47
16 0.09
17 -0.14
18 0.09
19 0.47
2 -0.57
20 -0.15
21 -0.15
22 -0.15
23 -0.15
3 -0.81
4 -0.81
41 0.4
42 0.15
43 0.15
44 0.15
45 0.15
46 0.15
5 -0.87
6 0.27
7 0.27
8 0.27
9 0.27

>  <PUBCHEM_EFFECTIVE_ROTOR_COUNT>  (1) 
6.2

>  <PUBCHEM_PHARMACOPHORE_FEATURES>  (1) 
9
1 1 acceptor
1 2 acceptor
1 3 cation
1 4 cation
1 5 cation
1 5 donor
6 14 15 16 17 18 19 rings
6 16 18 20 21 22 23 rings
6 3 4 6 7 8 9 rings

>  <PUBCHEM_HEAVY_ATOM_COUNT>  (1) 
23

>  <PUBCHEM_ATOM_DEF_STEREO_COUNT>  (1) 
0

>  <PUBCHEM_ATOM_UDEF_STEREO_COUNT>  (1) 
0

>  <PUBCHEM_BOND_DEF_STEREO_COUNT>  (1) 
0

>  <PUBCHEM_BOND_UDEF_STEREO_COUNT>  (1) 
0

>  <PUBCHEM_ISOTOPIC_ATOM_COUNT>  (1) 
0

>  <PUBCHEM_COMPONENT_COUNT>  (1) 
1

>  <PUBCHEM_CACTVS_TAUTO_COUNT>  (1) 
3

>  <PUBCHEM_CONFORMER_ID>  (1) 
000094AA00000002

>  <PUBCHEM_MMFF94_ENERGY>  (1) 
53.835

>  <PUBCHEM_FEATURE_SELFOVERLAP>  (1) 
45.695

>  <PUBCHEM_SHAPE_FINGERPRINT>  (1) 
10319926 262 13110700310874592412
10670039 82 16298376925251448308
10730089 88 18113620075345122477
11991303 11 17911539609375042841
12363563 72 18201166472999664000
12390115 104 17822842093094479445
12523318 42 14117801310587998135
12596602 18 15554446310174391626
12839892 36 14476974397535931773
12892183 10 13542473025069799228
12925494 130 13109312679776714827
12954195 1 18188765046848075213
13533116 47 17274818111975367408
13692114 37 15981761458681950809
13782708 43 18199184174015842927
13828863 39 9150588215946300002
13914758 101 17203891847759259657
13955234 65 17701527640098477480
1420 369 17489591147484259708
14251740 57 16343433834348574196
14251764 75 11386666112945217286
14341114 328 13614226097705537594
14528608 73 14273452595731004461
14848178 5 17847059986734371118
14910302 57 18187074079051469484
15183329 4 17313100830648526054
15188451 53 16128369363701980991
15475509 8 18186801370963320949
15510800 12 18411703150067687874
17349148 13 17203615912182357591
17857418 61 16773794831305898533
17870717 6 17967252001171688395
1813 80 17203615907993489760
19377110 9 15626215841077199202
20645477 70 18271523195289566464
21315764 119 17604144818248244807
22061861 79 18410853287032991775
22849339 104 17241049928592158811
23366157 5 16011247100768884219
23559900 14 17967812790450864716
3004659 81 17167850959921976736
3298306 158 18187076256674430603
34797466 226 17822571741344457093
3729539 64 18339359669620554047
3886686 26 14761015496577364519
44062 13 18198909115002665868
56616090 284 18260825995086337769
6034566 193 12252197276266798379
633830 44 13767926832125760240
6608658 132 15502648270102656797
7808743 9 8862069742378902354
7970288 3 17988927721925926270
960060 61 18334580178578894284

>  <PUBCHEM_SHAPE_MULTIPOLES>  (1) 
446.65
14.91
2.23
1.89
5.77
0.08
-0.24
10.5
3.96
3.19
-0.14
-1.39
0.2
1.3

>  <PUBCHEM_SHAPE_SELFOVERLAP>  (1) 
945.715

>  <PUBCHEM_SHAPE_VOLUME>  (1) 
249.4

>  <PUBCHEM_COORDINATE_TYPE>  (1) 
2
5
10

$$$$
