38056
     RDKit          3D

 17 17  0  0  1  0  0  0  0  0999 V2000
    2.1034   -1.6032   -2.3565 Cl  0  0  0  0  0  0  0  0  0  0  0  0
    2.3627    1.0528    0.1547 O   0  0  0  0  0  0  0  0  0  0  0  0
    3.8836   -0.5786    0.7143 O   0  0  0  0  0  0  0  0  0  0  0  0
   -0.9940   -2.0036    1.3017 O   0  0  0  0  0  0  0  0  0  0  0  0
    0.3272   -0.5437    0.0761 N   0  0  0  0  0  0  0  0  0  0  0  0
    1.5835   -1.2071    0.3193 C   0  0  0  0  0  0  0  0  0  0  0  0
    1.8465   -2.2871   -0.7279 C   0  0  0  0  0  0  0  0  0  0  0  0
    2.7446   -0.2272    0.4241 C   0  0  0  0  0  0  0  0  0  0  0  0
   -0.8738   -1.0055    0.5961 C   0  0  0  0  0  0  0  0  0  0  0  0
   -2.0840   -0.2246    0.2315 C   0  0  0  0  0  0  0  0  0  0  0  0
   -3.3058   -0.8642    0.2022 C   0  0  0  0  0  0  0  0  0  0  0  0
   -1.9470    1.1152   -0.0664 C   0  0  0  0  0  0  0  0  0  0  0  0
    3.3981    2.0385    0.2250 C   0  0  0  0  0  0  0  0  0  0  0  0
   -4.4418   -0.1309   -0.1405 C   0  0  0  0  0  0  0  0  0  0  0  0
   -3.0830    1.8486   -0.4089 C   0  0  0  0  0  0  0  0  0  0  0  0
   -4.3304    1.2254   -0.4460 C   0  0  0  0  0  0  0  0  0  0  0  0
    2.8101    3.3954   -0.0989 C   0  0  0  0  0  0  0  0  0  0  0  0
  1  7  1  0
  2  8  1  0
  2 13  1  0
  3  8  2  0
  4  9  2  0
  5  6  1  0
  5  9  1  0
  6  7  1  0
  6  8  1  0
  9 10  1  0
 10 11  2  0
 10 12  1  0
 11 14  1  0
 12 15  2  0
 13 17  1  0
 14 16  2  0
 15 16  1  0
M  END
>  <PUBCHEM_COMPOUND_CID>  (1) 
38056

>  <PUBCHEM_CONFORMER_RMSD>  (1) 
0.8

>  <PUBCHEM_CONFORMER_DIVERSEORDER>  (1) 
1
33
65
76
24
73
91
95
40
69
26
3
53
18
59
86
58
25
77
12
29
88
71
72
51
48
63
94
17
21
60
22
7
68
80
43
34
49
11
62
45
93
56
90
15
30
55
84
61
46
47
52
57
74
38
85
92
9
81
36
5
31
2
16
42
64
70
83
6
14
82
44
39
19
79
23
4
37
27
66
78
54
10
89
32
28
50
20
13
75
8
87
67
35
41

>  <PUBCHEM_MMFF94_PARTIAL_CHARGES>  (1) 
22
1 -0.29
10 0.09
11 -0.15
12 -0.15
13 0.28
14 -0.15
15 -0.15
16 -0.15
19 0.37
2 -0.43
24 0.15
25 0.15
26 0.15
27 0.15
28 0.15
3 -0.57
4 -0.57
5 -0.73
6 0.36
7 0.29
8 0.66
9 0.54

>  <PUBCHEM_EFFECTIVE_ROTOR_COUNT>  (1) 
7

>  <PUBCHEM_PHARMACOPHORE_FEATURES>  (1) 
4
1 3 acceptor
1 4 acceptor
1 5 donor
6 10 11 12 14 15 16 rings

>  <PUBCHEM_HEAVY_ATOM_COUNT>  (1) 
17

>  <PUBCHEM_ATOM_DEF_STEREO_COUNT>  (1) 
0

>  <PUBCHEM_ATOM_UDEF_STEREO_COUNT>  (1) 
1

>  <PUBCHEM_BOND_DEF_STEREO_COUNT>  (1) 
0

>  <PUBCHEM_BOND_UDEF_STEREO_COUNT>  (1) 
0

>  <PUBCHEM_ISOTOPIC_ATOM_COUNT>  (1) 
0

>  <PUBCHEM_COMPONENT_COUNT>  (1) 
1

>  <PUBCHEM_CACTVS_TAUTO_COUNT>  (1) 
2

>  <PUBCHEM_CONFORMER_ID>  (1) 
000094A800000001

>  <PUBCHEM_MMFF94_ENERGY>  (1) 
34.3648

>  <PUBCHEM_FEATURE_SELFOVERLAP>  (1) 
20.297

>  <PUBCHEM_SHAPE_FINGERPRINT>  (1) 
10608611 8 18407758144594682761
10871710 139 16897086639183428228
11221954 11 18263931093090170304
11759241 127 18341607174518963831
12633257 1 18041544889411261952
13899415 180 17839175217269520422
14026960 21 18337674238279204153
14250199 8 18342461391890088589
14415576 193 18413106177789546968
15196674 1 18335416893947907689
15806764 133 18124622819727289445
17802600 8 18261103045930215969
18186145 218 18198632038293746091
20645477 56 18261395503844859405
20645477 70 17488460772090158967
20671657 53 17700144192213855806
21524375 3 18127129899675638466
21618674 68 18413107256037504005
21709351 56 18341602724785197462
21860390 5 18341611482250277836
23114952 82 18200890495021734878
23227448 37 18339356491291241183
23402539 116 18336814338703503231
23557571 272 17970928853627627083
23559900 14 18339919303579303842
3060560 45 18131075935396884806
345986 75 16810076323026365322
351380 180 18335411353165393105
474 4 18410289216008879097
5104073 3 18261109694919483705
5262128 65 17986967244857448135
5281201 14 18200600185471311103
58051976 378 18272644636851511783
5939293 188 18409160000888723072
6049 1 18191895411922782115
6333272 397 18261107491405769585
633830 44 18340769226752805207
9709674 26 18411140233946178607

>  <PUBCHEM_SHAPE_MULTIPOLES>  (1) 
329.13
8.16
2.93
1.18
4.35
1.88
0.63
3.25
0.5
-2.93
0.46
-0.73
-0.8
1.11

>  <PUBCHEM_SHAPE_SELFOVERLAP>  (1) 
661.143

>  <PUBCHEM_SHAPE_VOLUME>  (1) 
193.2

>  <PUBCHEM_COORDINATE_TYPE>  (1) 
2
5
10

$$$$
