38055
     RDKit          3D

 19 22  0  0  1  0  0  0  0  0999 V2000
    2.8746   -1.8294   -0.4754 N   0  0  0  0  0  0  0  0  0  0  0  0
    0.3802   -1.2908   -0.7217 C   0  0  0  0  0  0  0  0  0  0  0  0
    1.8641   -0.8892   -0.9528 C   0  0  0  0  0  0  0  0  0  0  0  0
   -0.4043    0.0483   -0.9240 C   0  0  0  0  0  0  0  0  0  0  0  0
    0.1646   -1.9351    0.6645 C   0  0  0  0  0  0  0  0  0  0  0  0
    1.8868    0.5020   -0.3722 C   0  0  0  0  0  0  0  0  0  0  0  0
    0.5903    1.0507   -0.3749 C   0  0  0  0  0  0  0  0  0  0  0  0
    1.2379   -2.9694    0.9722 C   0  0  0  0  0  0  0  0  0  0  0  0
    2.6186   -2.3363    0.8703 C   0  0  0  0  0  0  0  0  0  0  0  0
   -1.8247    0.0518   -0.4067 C   0  0  0  0  0  0  0  0  0  0  0  0
    2.9811    1.2544    0.0274 C   0  0  0  0  0  0  0  0  0  0  0  0
    0.3839    2.3712   -0.0029 C   0  0  0  0  0  0  0  0  0  0  0  0
   -2.8746   -0.3390   -1.2403 C   0  0  0  0  0  0  0  0  0  0  0  0
   -2.0910    0.4451    0.9065 C   0  0  0  0  0  0  0  0  0  0  0  0
    2.7679    2.5708    0.4396 C   0  0  0  0  0  0  0  0  0  0  0  0
    1.4801    3.1261    0.4206 C   0  0  0  0  0  0  0  0  0  0  0  0
   -4.1852   -0.3362   -0.7629 C   0  0  0  0  0  0  0  0  0  0  0  0
   -3.4017    0.4478    1.3837 C   0  0  0  0  0  0  0  0  0  0  0  0
   -4.4488    0.0571    0.5490 C   0  0  0  0  0  0  0  0  0  0  0  0
  1  3  1  0
  1  9  1  0
  2  3  1  0
  2  4  1  0
  2  5  1  0
  3  6  1  0
  4  7  1  0
  4 10  1  0
  5  8  1  0
  6  7  2  0
  6 11  1  0
  7 12  1  0
  8  9  1  0
 10 13  2  0
 10 14  1  0
 11 15  2  0
 12 16  2  0
 13 17  1  0
 14 18  2  0
 15 16  1  0
 17 19  2  0
 18 19  1  0
M  END
>  <PUBCHEM_COMPOUND_CID>  (1) 
38055

>  <PUBCHEM_CONFORMER_RMSD>  (1) 
0.6

>  <PUBCHEM_CONFORMER_DIVERSEORDER>  (1) 
1
3
2

>  <PUBCHEM_MMFF94_PARTIAL_CHARGES>  (1) 
26
1 -0.9
10 -0.14
11 -0.15
12 -0.15
13 -0.15
14 -0.15
15 -0.15
16 -0.15
17 -0.15
18 -0.15
19 -0.15
27 0.36
3 0.41
30 0.15
31 0.15
32 0.15
33 0.15
34 0.15
35 0.15
36 0.15
37 0.15
38 0.15
4 0.29
6 -0.14
7 -0.14
9 0.27

>  <PUBCHEM_EFFECTIVE_ROTOR_COUNT>  (1) 
2

>  <PUBCHEM_PHARMACOPHORE_FEATURES>  (1) 
6
1 1 cation
1 1 donor
5 2 3 4 6 7 rings
6 1 2 3 5 8 9 rings
6 10 13 14 17 18 19 rings
6 6 7 11 12 15 16 rings

>  <PUBCHEM_HEAVY_ATOM_COUNT>  (1) 
19

>  <PUBCHEM_ATOM_DEF_STEREO_COUNT>  (1) 
3

>  <PUBCHEM_ATOM_UDEF_STEREO_COUNT>  (1) 
0

>  <PUBCHEM_BOND_DEF_STEREO_COUNT>  (1) 
0

>  <PUBCHEM_BOND_UDEF_STEREO_COUNT>  (1) 
0

>  <PUBCHEM_ISOTOPIC_ATOM_COUNT>  (1) 
0

>  <PUBCHEM_COMPONENT_COUNT>  (1) 
1

>  <PUBCHEM_CACTVS_TAUTO_COUNT>  (1) 
1

>  <PUBCHEM_CONFORMER_ID>  (1) 
000094A700000001

>  <PUBCHEM_MMFF94_ENERGY>  (1) 
53.0351

>  <PUBCHEM_FEATURE_SELFOVERLAP>  (1) 
30.699

>  <PUBCHEM_SHAPE_FINGERPRINT>  (1) 
10382601 240 18341058475140780584
10980938 120 18342459257006668469
1100329 8 18409160043870122658
11578080 2 17823973446602336908
11640471 11 17703240610431375385
11725454 13 16665099341009088645
12553582 1 18195247715385799983
12592029 89 18264196071171168369
12716301 132 17683825558893896412
13009979 54 17417821582232308843
13134695 92 18336257925537105079
13140716 1 18122902298799745168
13965767 371 16764536668506222889
14787075 74 18260835843784243406
14790565 3 18337686316234740620
15309172 13 18191020312336267405
15375462 189 18263370178830031843
16945 1 18411699928213942116
1813 80 17986118396486158654
18186145 218 18342744060852097965
19049666 15 18041271055176277869
19078846 21 18124323709462062497
204376 136 18118684550277583220
20645477 70 18340760477746363127
21041028 32 18267586793111315576
21421861 104 18262237690337934169
21524375 3 18127408084111736725
21639500 275 18410283744468262423
21731228 192 18048874396846034584
22112679 90 17917983945734611165
2255824 54 18412831295424112110
22854114 111 18341054102974680397
2334 1 17690841589587858420
23419403 2 17462531002346532734
23558518 356 17835237131405768190
23598291 2 18131072597880202333
25 1 18268995456527437780
2748010 2 18117856596768590470
298252 57 17058657480498358236
31174 14 18335701624377550743
3286 77 18260269603558533503
33824 294 18336826493560846401
350125 39 17615699865207191340
4340502 62 18265059205670107099
458136 41 18261684777965462036
474 4 18197777906547887321
495365 180 17969482876031243391
5104073 3 18411990148477018259
58807428 26 18194385909139454040
5895379 119 16986611753650514569
633830 44 18200040679971398245
7364860 26 18412823590284470446
7471813 234 18126543675035990437
7615 1 17775558737443740117
77492 1 17846779611606703581
81228 2 17184175146502065494
8272917 22 18411140246973304029
84936 182 18059010708638212521
9981440 41 16263179659951115896

>  <PUBCHEM_SHAPE_MULTIPOLES>  (1) 
386.03
6.27
3.2
1.18
6.71
0.11
-0.05
0.45
-0.5
-4.03
-1.03
0.56
-0.27
-0.29

>  <PUBCHEM_SHAPE_SELFOVERLAP>  (1) 
852.429

>  <PUBCHEM_SHAPE_VOLUME>  (1) 
205.8

>  <PUBCHEM_COORDINATE_TYPE>  (1) 
2
5
10

$$$$
