38065
     RDKit          3D

 17 17  0  0  1  0  0  0  0  0999 V2000
   -0.4221    1.3065    0.4277 O   0  0  0  0  0  0  0  0  0  0  0  0
    1.7902    2.8519    1.2126 O   0  0  0  0  0  0  0  0  0  0  0  0
    2.5602   -0.1172   -0.8605 N   0  0  0  0  0  0  0  0  0  0  0  0
   -0.8303   -1.3542    2.8034 N   0  0  0  0  0  0  0  0  0  0  0  0
    2.4387    0.7194    0.3258 C   0  0  0  0  0  0  0  0  0  0  0  0
    1.8123    2.0795    0.0089 C   0  0  0  0  0  0  0  0  0  0  0  0
    3.2099   -1.3814   -0.5422 C   0  0  0  0  0  0  0  0  0  0  0  0
    0.3882    1.9769   -0.5328 C   0  0  0  0  0  0  0  0  0  0  0  0
    3.3192   -2.2496   -1.7925 C   0  0  0  0  0  0  0  0  0  0  0  0
    2.4237   -2.0947    0.5532 C   0  0  0  0  0  0  0  0  0  0  0  0
   -1.4820    0.5872   -0.0563 C   0  0  0  0  0  0  0  0  0  0  0  0
   -1.9454   -0.5441    0.6095 C   0  0  0  0  0  0  0  0  0  0  0  0
   -2.0917    1.0103   -1.2344 C   0  0  0  0  0  0  0  0  0  0  0  0
   -3.0270   -1.2579    0.0934 C   0  0  0  0  0  0  0  0  0  0  0  0
   -3.1733    0.2965   -1.7503 C   0  0  0  0  0  0  0  0  0  0  0  0
   -3.6409   -0.8375   -1.0866 C   0  0  0  0  0  0  0  0  0  0  0  0
   -1.3296   -0.9915    1.8212 C   0  0  0  0  0  0  0  0  0  0  0  0
  1  8  1  0
  1 11  1  0
  2  6  1  0
  3  5  1  0
  3  7  1  0
  4 17  3  0
  5  6  1  0
  6  8  1  0
  7  9  1  0
  7 10  1  0
 11 12  2  0
 11 13  1  0
 12 14  1  0
 12 17  1  0
 13 15  2  0
 14 16  2  0
 15 16  1  0
M  END
>  <PUBCHEM_COMPOUND_CID>  (1) 
38065

>  <PUBCHEM_CONFORMER_RMSD>  (1) 
0.8

>  <PUBCHEM_CONFORMER_DIVERSEORDER>  (1) 
3
99
118
133
109
86
120
63
105
129
34
87
137
125
50
25
115
95
75
14
111
135
46
97
127
126
98
11
92
103
106
101
12
82
102
69
59
114
61
56
83
121
117
132
33
93
81
62
60
47
19
130
66
39
73
80
57
16
48
29
7
49
124
100
37
112
45
116
52
53
108
54
79
123
64
94
113
74
67
44
131
28
27
107
70
32
72
41
22
5
43
23
119
128
122
78
4
110
104
134
9
8
84
35
13
85
18
51
26
2
10
76
71
6
68
89
36
30
42
58
65
90
20
21
40
55
88
96
77
1
17
31
136
91
15
24
38

>  <PUBCHEM_MMFF94_PARTIAL_CHARGES>  (1) 
21
1 -0.36
11 0.08
12 0.07
13 -0.15
14 -0.15
15 -0.15
16 -0.15
17 0.48
2 -0.68
22 0.36
3 -0.9
31 0.4
32 0.15
33 0.15
34 0.15
35 0.15
4 -0.56
5 0.27
6 0.28
7 0.27
8 0.28

>  <PUBCHEM_EFFECTIVE_ROTOR_COUNT>  (1) 
6

>  <PUBCHEM_PHARMACOPHORE_FEATURES>  (1) 
8
1 1 acceptor
1 2 acceptor
1 2 donor
1 3 cation
1 3 donor
1 4 acceptor
3 7 9 10 hydrophobe
6 11 12 13 14 15 16 rings

>  <PUBCHEM_HEAVY_ATOM_COUNT>  (1) 
17

>  <PUBCHEM_ATOM_DEF_STEREO_COUNT>  (1) 
0

>  <PUBCHEM_ATOM_UDEF_STEREO_COUNT>  (1) 
1

>  <PUBCHEM_BOND_DEF_STEREO_COUNT>  (1) 
0

>  <PUBCHEM_BOND_UDEF_STEREO_COUNT>  (1) 
0

>  <PUBCHEM_ISOTOPIC_ATOM_COUNT>  (1) 
0

>  <PUBCHEM_COMPONENT_COUNT>  (1) 
1

>  <PUBCHEM_CACTVS_TAUTO_COUNT>  (1) 
1

>  <PUBCHEM_CONFORMER_ID>  (1) 
000094B100000003

>  <PUBCHEM_MMFF94_ENERGY>  (1) 
33.6218

>  <PUBCHEM_FEATURE_SELFOVERLAP>  (1) 
40.599

>  <PUBCHEM_SHAPE_FINGERPRINT>  (1) 
10764073 3 17251503831798320945
107951 10 16031043622590397478
11137873 295 18412267207562787807
11582403 64 16751205433485745621
12363563 72 18269559343068585894
12553582 1 18195254317061516770
12596599 1 17201940149430888582
12824470 246 17058918052280618223
13583140 156 17557169468864006131
14817 1 11390368090906200146
15207287 21 17755839154865137009
15415430 2 17967253083208060877
15635459 17 18410856589952812054
15852999 172 17898833897505544121
18186145 218 18040704871170342445
18981168 100 8646491773689326606
20201158 50 18334571390759113496
20645476 183 14129329719874854689
20645477 70 18270950345283300653
20671657 53 18272645697597644718
21330990 113 16807324361375777873
21731516 1 18129678417046596076
22802520 49 18040997396950173505
23526113 38 18260547835724003584
23559900 14 18042108986147740420
23728640 28 17119178624981156094
238 59 18338796848473362718
2748010 2 17681004190012546347
3323516 105 18259697909231065039
5262128 65 18412260610361126050
81228 2 17835808500049308624
9709674 26 18188767387235440607

>  <PUBCHEM_SHAPE_MULTIPOLES>  (1) 
328.15
6.18
2.69
1.93
0.4
0.95
0.72
-3.05
-3.08
2.37
0.35
-0.51
-0.91
1.52

>  <PUBCHEM_SHAPE_SELFOVERLAP>  (1) 
661.062

>  <PUBCHEM_SHAPE_VOLUME>  (1) 
191.7

>  <PUBCHEM_COORDINATE_TYPE>  (1) 
2
5
10

$$$$
