38062
     RDKit          3D

 14 15  0  0  0  0  0  0  0  0999 V2000
    0.2572    2.1067   -0.3063 S   0  0  0  0  0  0  0  0  0  0  0  0
    2.2784    1.8316   -0.3752 S   0  0  0  0  0  0  0  0  0  0  0  0
   -4.1545   -0.5499   -0.0812 O   0  0  0  0  0  0  0  0  0  0  0  0
   -1.4251    0.0191    0.2230 N   0  0  0  0  0  0  0  0  0  0  0  0
    3.3128   -0.5708    0.0520 N   0  0  0  0  0  0  0  0  0  0  0  0
   -1.8607   -1.3385   -0.1047 C   0  0  0  0  0  0  0  0  0  0  0  0
   -2.4269    0.8319    0.9130 C   0  0  0  0  0  0  0  0  0  0  0  0
   -3.1902   -1.2760   -0.8475 C   0  0  0  0  0  0  0  0  0  0  0  0
   -3.7312    0.8000    0.1254 C   0  0  0  0  0  0  0  0  0  0  0  0
   -0.1356    0.4324    0.0591 C   0  0  0  0  0  0  0  0  0  0  0  0
    0.9009   -0.4180    0.1685 C   0  0  0  0  0  0  0  0  0  0  0  0
    2.2482    0.1339   -0.0268 C   0  0  0  0  0  0  0  0  0  0  0  0
    4.6612    0.0248   -0.1522 C   0  0  0  0  0  0  0  0  0  0  0  0
    3.2654   -2.0274    0.3531 C   0  0  0  0  0  0  0  0  0  0  0  0
  1  2  1  0
  1 10  1  0
  2 12  1  0
  3  8  1  0
  3  9  1  0
  4  6  1  0
  4  7  1  0
  4 10  1  0
  5 12  2  3
  5 13  1  0
  5 14  1  0
  6  8  1  0
  7  9  1  0
 10 11  2  0
 11 12  1  0
M  CHG  1   5   1
M  END
>  <PUBCHEM_COMPOUND_CID>  (1) 
38062

>  <PUBCHEM_CONFORMER_RMSD>  (1) 
0.6

>  <PUBCHEM_CONFORMER_DIVERSEORDER>  (1) 
2
3
1

>  <PUBCHEM_MMFF94_PARTIAL_CHARGES>  (1) 
15
1 -0.1
10 0.2
11 -0.14
12 0.53
13 0.35
14 0.35
2 -0.14
23 0.15
3 -0.56
4 -0.84
5 -0.09
6 0.37
7 0.37
8 0.28
9 0.28

>  <PUBCHEM_EFFECTIVE_ROTOR_COUNT>  (1) 
2.2

>  <PUBCHEM_PHARMACOPHORE_FEATURES>  (1) 
4
1 3 acceptor
1 4 cation
5 1 2 10 11 12 rings
6 3 4 6 7 8 9 rings

>  <PUBCHEM_HEAVY_ATOM_COUNT>  (1) 
14

>  <PUBCHEM_ATOM_DEF_STEREO_COUNT>  (1) 
0

>  <PUBCHEM_ATOM_UDEF_STEREO_COUNT>  (1) 
0

>  <PUBCHEM_BOND_DEF_STEREO_COUNT>  (1) 
0

>  <PUBCHEM_BOND_UDEF_STEREO_COUNT>  (1) 
0

>  <PUBCHEM_ISOTOPIC_ATOM_COUNT>  (1) 
0

>  <PUBCHEM_COMPONENT_COUNT>  (1) 
1

>  <PUBCHEM_CACTVS_TAUTO_COUNT>  (1) 
1

>  <PUBCHEM_CONFORMER_ID>  (1) 
000094AE00000002

>  <PUBCHEM_MMFF94_ENERGY>  (1) 
38.8699

>  <PUBCHEM_FEATURE_SELFOVERLAP>  (1) 
20.297

>  <PUBCHEM_SHAPE_FINGERPRINT>  (1) 
10062212 137 18273492382144719911
10130415 120 18408321090253123784
10616163 171 18271527605825853927
11132069 177 18341609300385369560
11401426 45 18408880741666419368
11471102 20 18333450971673834180
11769659 78 18272082824990310871
11806522 49 18340484577426023540
12251169 10 18342460335185767448
12932764 1 16515954960650894281
13690532 89 18411418410609188267
14144814 61 18411139129885973347
14251717 144 18335982051603878054
14252887 29 18202292385712209198
14289901 80 15626222411855000168
14576447 43 18340199807946062294
14993402 34 18410855468776157783
15375462 189 18260547792800691634
15442244 35 18411420579124833961
15477762 27 18408603677921756606
15536298 74 18271245031769629096
17834072 33 18272372018424426028
18186145 218 17313098678838236153
19422 9 18412266163843523591
200 152 18343299292464165606
20279233 1 16370728132049438874
20281475 54 18411417276669178854
20645477 70 18335700567699882614
20871998 22 18340491050168670086
21267235 1 18411710901713010367
21501502 16 18341054115706672941
21501925 9 18412820313551451736
221490 88 18118410771876907938
22485316 2 18411979139784851754
2255824 54 18262522606147548076
23402539 116 18341887472310631620
23402655 69 18408322159578830156
23463225 33 18412265016913286246
23557571 272 15338849629209073841
23559900 14 18059568118152166304
5104073 3 18341332274852256161
58051976 100 18411138064997984143
6992083 37 18341345387614640217
7364860 26 18198340847990488960
74978 22 18335705004490516747
83771 10 18335419045831758116
93112 12 18337390538620190959
9709674 26 18412832407895118334
9981440 41 17401482040500994137

>  <PUBCHEM_SHAPE_MULTIPOLES>  (1) 
279.98
7.97
2
0.76
0.4
0.25
0
-2.16
-0.24
0.79
-0.15
-0.26
0.02
-0.77

>  <PUBCHEM_SHAPE_SELFOVERLAP>  (1) 
545.328

>  <PUBCHEM_SHAPE_VOLUME>  (1) 
172.7

>  <PUBCHEM_COORDINATE_TYPE>  (1) 
2
5
10

$$$$
