38060
     RDKit          3D

 11 11  0  0  0  0  0  0  0  0999 V2000
   -0.9509   -1.9908    0.2684 S   0  0  0  0  0  0  0  0  0  0  0  0
    1.0795   -1.9488    0.2118 S   0  0  0  0  0  0  0  0  0  0  0  0
   -2.4525    0.2237   -0.1765 N   0  0  0  0  0  0  0  0  0  0  0  0
    2.3976    0.2976   -0.1727 N   0  0  0  0  0  0  0  0  0  0  0  0
   -0.0635    0.4672   -0.2241 C   0  0  0  0  0  0  0  0  0  0  0  0
    0.0076    1.9363   -0.5131 C   0  0  0  0  0  0  0  0  0  0  0  0
   -1.1809   -0.2782   -0.0773 C   0  0  0  0  0  0  0  0  0  0  0  0
    1.2319   -0.2434   -0.0860 C   0  0  0  0  0  0  0  0  0  0  0  0
    0.0344    2.7579    0.7610 C   0  0  0  0  0  0  0  0  0  0  0  0
   -3.6120   -0.5931    0.0061 C   0  0  0  0  0  0  0  0  0  0  0  0
    3.5087   -0.6284    0.0023 C   0  0  0  0  0  0  0  0  0  0  0  0
  1  2  1  0
  1  7  1  0
  2  8  1  0
  3  7  1  0
  3 10  1  0
  4  8  2  0
  4 11  1  0
  5  6  1  0
  5  7  2  0
  5  8  1  0
  6  9  1  0
M  END
>  <PUBCHEM_COMPOUND_CID>  (1) 
38060

>  <PUBCHEM_CONFORMER_RMSD>  (1) 
0.4

>  <PUBCHEM_CONFORMER_DIVERSEORDER>  (1) 
1
4
7
8
3
6
5
2

>  <PUBCHEM_MMFF94_PARTIAL_CHARGES>  (1) 
11
1 -0.1
10 0.37
11 0.25
17 0.4
2 -0.14
3 -0.87
4 -0.7
5 -0.12
6 0.14
7 0.2
8 0.58

>  <PUBCHEM_EFFECTIVE_ROTOR_COUNT>  (1) 
2

>  <PUBCHEM_PHARMACOPHORE_FEATURES>  (1) 
5
1 3 cation
1 3 donor
1 4 acceptor
1 9 hydrophobe
5 1 2 5 7 8 rings

>  <PUBCHEM_HEAVY_ATOM_COUNT>  (1) 
11

>  <PUBCHEM_ATOM_DEF_STEREO_COUNT>  (1) 
0

>  <PUBCHEM_ATOM_UDEF_STEREO_COUNT>  (1) 
0

>  <PUBCHEM_BOND_DEF_STEREO_COUNT>  (1) 
0

>  <PUBCHEM_BOND_UDEF_STEREO_COUNT>  (1) 
0

>  <PUBCHEM_ISOTOPIC_ATOM_COUNT>  (1) 
0

>  <PUBCHEM_COMPONENT_COUNT>  (1) 
1

>  <PUBCHEM_CACTVS_TAUTO_COUNT>  (1) 
2

>  <PUBCHEM_CONFORMER_ID>  (1) 
000094AC00000001

>  <PUBCHEM_MMFF94_ENERGY>  (1) 
24.4749

>  <PUBCHEM_FEATURE_SELFOVERLAP>  (1) 
25.371

>  <PUBCHEM_SHAPE_FINGERPRINT>  (1) 
10219947 1 18412266150895454591
108231 29 18411138056101912424
12032990 46 18409455777536804151
12423570 1 17603585231248811470
13380535 21 17830466329162627621
13380535 220 18118404187744680303
14648413 74 18049160265589996393
14993402 34 18412543232236776647
16945 1 18040435490299291334
193761 8 17689717879792407774
20201158 50 18333450932597258675
20510252 161 18269551659419332192
20511035 2 17976546335785031455
20588541 1 18407762542567561583
23402539 116 18271515429709094550
23526114 1 18049163559624249052
23552423 10 17900264104482650510
2748010 2 17831018292616183543
53812653 166 18266738158928403035
68250623 7 17835244445745797806
7364860 26 18054227914629635769
81228 2 18267600021732004152

>  <PUBCHEM_SHAPE_MULTIPOLES>  (1) 
224.11
4.26
2.61
0.72
0.38
1.25
-0.05
-1.47
0.16
-0.05
-0.53
0
0.15
0.01

>  <PUBCHEM_SHAPE_SELFOVERLAP>  (1) 
420.425

>  <PUBCHEM_SHAPE_VOLUME>  (1) 
143.1

>  <PUBCHEM_COORDINATE_TYPE>  (1) 
2
5
10

$$$$
