38076
     RDKit          3D

 32 34  0  0  1  0  0  0  0  0999 V2000
   -2.1280   -0.0456    0.3688 P   0  0  0  0  0  0  0  0  0  0  0  0
   -1.2253    1.1325   -0.2834 O   0  0  0  0  0  0  0  0  0  0  0  0
   -3.5052    0.0346   -0.4744 O   0  0  0  0  0  0  0  0  0  0  0  0
   -1.4319   -1.3901   -0.1989 O   0  0  0  0  0  0  0  0  0  0  0  0
   -2.2830    0.0179    1.8626 O   0  0  0  0  0  0  0  0  0  0  0  0
    5.1148    0.5430   -0.9382 C   0  0  0  0  0  0  0  0  0  0  0  0
    5.0957    1.9617   -0.3167 C   0  0  0  0  0  0  0  0  0  0  0  0
    5.9658   -0.3775   -0.0295 C   0  0  0  0  0  0  0  0  0  0  0  0
    4.2210    2.1427    0.9453 C   0  0  0  0  0  0  0  0  0  0  0  0
    6.0922   -1.8499   -0.4716 C   0  0  0  0  0  0  0  0  0  0  0  0
    5.6413    0.5605   -2.3755 C   0  0  0  0  0  0  0  0  0  0  0  0
    2.7590    1.8710    0.6156 C   0  0  0  0  0  0  0  0  0  0  0  0
    4.3947    3.5223    1.5900 C   0  0  0  0  0  0  0  0  0  0  0  0
    6.9950   -2.6649    0.4549 C   0  0  0  0  0  0  0  0  0  0  0  0
    4.7015   -2.4901   -0.5301 C   0  0  0  0  0  0  0  0  0  0  0  0
    2.0943    2.6701   -0.3146 C   0  0  0  0  0  0  0  0  0  0  0  0
    2.0848    0.8238    1.2436 C   0  0  0  0  0  0  0  0  0  0  0  0
    0.7554    2.4219   -0.6169 C   0  0  0  0  0  0  0  0  0  0  0  0
    0.7459    0.5755    0.9413 C   0  0  0  0  0  0  0  0  0  0  0  0
    0.0812    1.3745    0.0110 C   0  0  0  0  0  0  0  0  0  0  0  0
   -4.3875    1.0801   -0.4391 C   0  0  0  0  0  0  0  0  0  0  0  0
   -1.9154   -2.6583   -0.0241 C   0  0  0  0  0  0  0  0  0  0  0  0
   -4.1262    2.1860    0.3699 C   0  0  0  0  0  0  0  0  0  0  0  0
   -3.0955   -2.8625    0.6910 C   0  0  0  0  0  0  0  0  0  0  0  0
   -5.5483    1.0396   -1.2111 C   0  0  0  0  0  0  0  0  0  0  0  0
   -1.2275   -3.7470   -0.5600 C   0  0  0  0  0  0  0  0  0  0  0  0
   -5.0259    3.2514    0.4068 C   0  0  0  0  0  0  0  0  0  0  0  0
   -3.5879   -4.1554    0.8701 C   0  0  0  0  0  0  0  0  0  0  0  0
   -6.4480    2.1050   -1.1743 C   0  0  0  0  0  0  0  0  0  0  0  0
   -1.7199   -5.0398   -0.3811 C   0  0  0  0  0  0  0  0  0  0  0  0
   -6.1867    3.2109   -0.3654 C   0  0  0  0  0  0  0  0  0  0  0  0
   -2.9000   -5.2439    0.3341 C   0  0  0  0  0  0  0  0  0  0  0  0
  1  2  1  0
  1  3  1  0
  1  4  1  0
  1  5  2  0
  2 20  1  0
  3 21  1  0
  4 22  1  0
  6  7  1  0
  6  8  1  0
  6 11  1  0
  7  9  1  0
  8 10  1  0
  9 12  1  0
  9 13  1  0
 10 14  1  0
 10 15  1  0
 12 16  2  0
 12 17  1  0
 16 18  1  0
 17 19  2  0
 18 20  2  0
 19 20  1  0
 21 23  2  0
 21 25  1  0
 22 24  2  0
 22 26  1  0
 23 27  1  0
 24 28  1  0
 25 29  2  0
 26 30  2  0
 27 31  2  0
 28 32  2  0
 29 31  1  0
 30 32  1  0
M  END
>  <PUBCHEM_COMPOUND_CID>  (1) 
38076

>  <PUBCHEM_CONFORMER_RMSD>  (1) 
1

>  <PUBCHEM_CONFORMER_DIVERSEORDER>  (1) 
1
81
10
87
165
132
27
112
77
157
123
96
115
86
181
5
160
74
101
127
55
108
91
134
130
179
169
20
44
29
178
118
35
167
125
70
138
24
14
83
6
92
19
164
131
166
50
42
13
17
147
120
151
49
65
82
159
161
175
121
137
107
57
12
98
170
114
111
99
117
48
36
182
143
89
78
67
174
66
88
155
76
145
56
32
7
152
64
54
22
62
61
53
162
116
15
26
100
39
68
106
28
58
63
79
186
95
124
38
94
119
144
51
176
97
156
47
75
71
184
30
177
80
180
25
33
173
153
18
85
122
171
40
43
16
148
52
133
90
41
109
102
11
187
23
69
21
140
8
158
129
93
183
104
45
139
3
31
150
46
149
185
72
142
172
34
103
163
9
128
146
113
2
136
135
126
4
73
37
84
168
141
105
60
59
110
154

>  <PUBCHEM_MMFF94_PARTIAL_CHARGES>  (1) 
38
1 1.51
12 -0.14
16 -0.15
17 -0.15
18 -0.15
19 -0.15
2 -0.35
20 0.08
21 0.08
22 0.08
23 -0.15
24 -0.15
25 -0.15
26 -0.15
27 -0.15
28 -0.15
29 -0.15
3 -0.35
30 -0.15
31 -0.15
32 -0.15
4 -0.35
5 -0.7
52 0.15
53 0.15
54 0.15
55 0.15
56 0.15
57 0.15
58 0.15
59 0.15
60 0.15
61 0.15
62 0.15
63 0.15
64 0.15
65 0.15
9 0.14

>  <PUBCHEM_EFFECTIVE_ROTOR_COUNT>  (1) 
11

>  <PUBCHEM_PHARMACOPHORE_FEATURES>  (1) 
8
1 11 hydrophobe
1 13 hydrophobe
1 5 acceptor
3 10 14 15 hydrophobe
5 6 7 8 9 10 hydrophobe
6 12 16 17 18 19 20 rings
6 21 23 25 27 29 31 rings
6 22 24 26 28 30 32 rings

>  <PUBCHEM_HEAVY_ATOM_COUNT>  (1) 
32

>  <PUBCHEM_ATOM_DEF_STEREO_COUNT>  (1) 
0

>  <PUBCHEM_ATOM_UDEF_STEREO_COUNT>  (1) 
2

>  <PUBCHEM_BOND_DEF_STEREO_COUNT>  (1) 
0

>  <PUBCHEM_BOND_UDEF_STEREO_COUNT>  (1) 
0

>  <PUBCHEM_ISOTOPIC_ATOM_COUNT>  (1) 
0

>  <PUBCHEM_COMPONENT_COUNT>  (1) 
1

>  <PUBCHEM_CACTVS_TAUTO_COUNT>  (1) 
1

>  <PUBCHEM_CONFORMER_ID>  (1) 
000094BC00000001

>  <PUBCHEM_MMFF94_ENERGY>  (1) 
80.5886

>  <PUBCHEM_FEATURE_SELFOVERLAP>  (1) 
40.667

>  <PUBCHEM_SHAPE_FINGERPRINT>  (1) 
10254770 206 18047175368626241674
10864689 126 18339929200044004758
10940486 97 18261121823548710709
11796584 16 18412271644865495212
11991303 11 18186802487374872751
12202916 173 17916021249250847574
12643181 29 18409446965102461866
12925494 130 18411133628218081022
13583140 156 17559111210351305392
1361 87 17986138299833892814
13690498 29 18049460419294951660
14068700 686 17764865089052514632
14117953 113 18197219149163100958
14347332 77 18121785190247897579
14790565 3 18266460901852585689
15183329 4 18271528593953090428
15230672 131 18335704897639203918
15361156 5 17822019748169255412
15439362 3 18121778319286654645
15927050 60 18411131434017462895
15961568 22 9078818706744500274
19301676 85 18197222438628573278
19301679 30 17976262657617413211
19319366 153 17387689410381406906
19958102 18 18410000049072938709
21307412 95 18199767894177270750
23559900 14 18342168999239062808
249057 3 18336265631483932846
32027 91 18341895178310148674
3534868 343 17468764438817960149
4058900 60 18266181630684481161
4073 2 18339919437409170128
44062 13 18337956800004063918
463206 1 18410859829107297850
513202 73 18117288149711101363
59755656 520 18409724050575325117
6371380 46 18341045203675894484
6698420 124 18272378551376015793
70251023 43 17686909727595942401
9981440 41 18408882924501914433

>  <PUBCHEM_SHAPE_MULTIPOLES>  (1) 
638.92
17.16
6.79
1.32
9.86
9.26
0.15
-5.77
4.07
-6.58
-0.83
0.92
-0.5
2.13

>  <PUBCHEM_SHAPE_SELFOVERLAP>  (1) 
1321.087

>  <PUBCHEM_SHAPE_VOLUME>  (1) 
365.8

>  <PUBCHEM_COORDINATE_TYPE>  (1) 
2
5
10

$$$$
