38075
     RDKit          3D

 17 18  0  0  0  0  0  0  0  0999 V2000
    2.6840    0.3143   -0.6655 C   0  0  0  0  0  0  0  0  0  0  0  0
    1.2928    0.4503   -0.0390 C   0  0  0  0  0  0  0  0  0  0  0  0
    3.7492    0.0535    0.4016 C   0  0  0  0  0  0  0  0  0  0  0  0
    0.1882    0.6824   -1.0764 C   0  0  0  0  0  0  0  0  0  0  0  0
    5.1341   -0.1159   -0.2253 C   0  0  0  0  0  0  0  0  0  0  0  0
   -1.1783    0.8940   -0.4748 C   0  0  0  0  0  0  0  0  0  0  0  0
    6.1929   -0.4102    0.8370 C   0  0  0  0  0  0  0  0  0  0  0  0
   -2.0461   -0.1756   -0.2291 C   0  0  0  0  0  0  0  0  0  0  0  0
   -3.3155    0.0895    0.3374 C   0  0  0  0  0  0  0  0  0  0  0  0
   -1.5383    2.2032   -0.1747 C   0  0  0  0  0  0  0  0  0  0  0  0
    7.5766   -0.5463    0.2216 C   0  0  0  0  0  0  0  0  0  0  0  0
   -1.6911   -1.5009   -0.5292 C   0  0  0  0  0  0  0  0  0  0  0  0
   -3.6704    1.4148    0.6378 C   0  0  0  0  0  0  0  0  0  0  0  0
   -2.7865    2.4637    0.3828 C   0  0  0  0  0  0  0  0  0  0  0  0
   -4.1926   -0.9784    0.5874 C   0  0  0  0  0  0  0  0  0  0  0  0
   -2.5752   -2.5496   -0.2743 C   0  0  0  0  0  0  0  0  0  0  0  0
   -3.8237   -2.2889    0.2828 C   0  0  0  0  0  0  0  0  0  0  0  0
  1  2  1  0
  1  3  1  0
  2  4  1  0
  3  5  1  0
  4  6  1  0
  5  7  1  0
  6  8  2  0
  6 10  1  0
  7 11  1  0
  8  9  1  0
  8 12  1  0
  9 13  2  0
  9 15  1  0
 10 14  2  0
 12 16  2  0
 13 14  1  0
 15 17  2  0
 16 17  1  0
M  END
>  <PUBCHEM_COMPOUND_CID>  (1) 
38075

>  <PUBCHEM_CONFORMER_RMSD>  (1) 
0.8

>  <PUBCHEM_CONFORMER_DIVERSEORDER>  (1) 
1
29
19
22
5
34
16
24
38
31
41
37
4
3
23
15
35
18
25
7
28
13
40
10
2
17
14
33
12
21
39
9
8
11
26
6
36
20
27
30
32

>  <PUBCHEM_MMFF94_PARTIAL_CHARGES>  (1) 
16
10 -0.15
12 -0.15
13 -0.15
14 -0.15
15 -0.15
16 -0.15
17 -0.15
30 0.15
34 0.15
35 0.15
36 0.15
37 0.15
38 0.15
39 0.15
4 0.14
6 -0.14

>  <PUBCHEM_EFFECTIVE_ROTOR_COUNT>  (1) 
6

>  <PUBCHEM_PHARMACOPHORE_FEATURES>  (1) 
5
1 11 hydrophobe
3 1 2 4 hydrophobe
3 3 5 7 hydrophobe
6 6 8 9 10 13 14 rings
6 8 9 12 15 16 17 rings

>  <PUBCHEM_HEAVY_ATOM_COUNT>  (1) 
17

>  <PUBCHEM_ATOM_DEF_STEREO_COUNT>  (1) 
0

>  <PUBCHEM_ATOM_UDEF_STEREO_COUNT>  (1) 
0

>  <PUBCHEM_BOND_DEF_STEREO_COUNT>  (1) 
0

>  <PUBCHEM_BOND_UDEF_STEREO_COUNT>  (1) 
0

>  <PUBCHEM_ISOTOPIC_ATOM_COUNT>  (1) 
0

>  <PUBCHEM_COMPONENT_COUNT>  (1) 
1

>  <PUBCHEM_CACTVS_TAUTO_COUNT>  (1) 
1

>  <PUBCHEM_CONFORMER_ID>  (1) 
000094BB00000001

>  <PUBCHEM_MMFF94_ENERGY>  (1) 
33.399

>  <PUBCHEM_FEATURE_SELFOVERLAP>  (1) 
25.411

>  <PUBCHEM_SHAPE_FINGERPRINT>  (1) 
10319926 262 18271231769284886712
10912923 1 18040436586491904252
11046707 91 18261109707429526549
11089746 13 11599998852693412922
11315181 36 18333449850676813852
12091667 2 17704065184544690196
12236239 1 17894354397013329572
12616971 3 17458352931491828764
12633257 1 17845669143316954305
13167823 11 18333729105376848746
13288520 33 18334294283690283318
13403585 85 18272366490880533608
13675066 3 17847061078188729980
13862211 1 18268152127573770799
14251732 16 18337389444316400384
14341114 176 18342457067349008960
14420673 8 18195251006043119614
14844126 61 18410856598680189219
15042514 8 18410020961653486467
15183329 4 9511193954050356072
15348495 7 18131060563972631034
15537594 2 17821728291603737250
15716309 27 17894630336642092544
17780758 139 18410007732800864856
17844677 252 18342179981918532552
1813 80 17168435869990506686
18927931 339 18413392055007704550
19784866 240 17313107496501300319
200 152 16153423948239094028
21650355 55 18412548734390751277
220451 1 18187367580996866522
2297311 6 18271257079184335276
23402539 116 18040713671431523412
23466295 7 15431750793875870043
23522609 53 17896908499103035772
23559900 14 18338789147338934225
2748010 2 18051162228026232039
2838139 119 13971470507987830939
351380 3 17676483943877997882
4214541 1 18411418397687538488
4409770 3 17970054552821121437
5104073 3 18341338893534528760
5364581 5 17986092227772566512
559249 180 18187080642014672719
573450 72 18334856113031812696
5924683 9 18131061679657052998
67856867 119 18189340229100607372

>  <PUBCHEM_SHAPE_MULTIPOLES>  (1) 
349.85
13.97
2.38
0.87
35.83
0.2
0.04
4.31
-3.76
-4.32
-0.06
0.11
-0.04
-0.4

>  <PUBCHEM_SHAPE_SELFOVERLAP>  (1) 
723.949

>  <PUBCHEM_SHAPE_VOLUME>  (1) 
193

>  <PUBCHEM_COORDINATE_TYPE>  (1) 
2
5
10

$$$$
