38070
     RDKit          3D

 22 23  0  0  0  0  0  0  0  0999 V2000
    6.1352   -0.9228    0.2006 F   0  0  0  0  0  0  0  0  0  0  0  0
    6.2003    0.6448   -1.3259 F   0  0  0  0  0  0  0  0  0  0  0  0
    6.5006    1.1430    0.7682 F   0  0  0  0  0  0  0  0  0  0  0  0
    3.8366    1.7100   -0.1148 O   0  0  0  0  0  0  0  0  0  0  0  0
   -4.3346    0.0684   -0.0315 N   0  0  0  0  0  0  0  0  0  0  0  0
    3.5066   -0.5048    0.5015 N   0  0  0  0  0  0  0  0  0  0  0  0
   -7.1683    0.3974    0.4058 C   0  0  0  0  0  0  0  0  0  0  0  0
   -6.6333   -0.5795   -0.6338 C   0  0  0  0  0  0  0  0  0  0  0  0
   -6.1975    1.5583    0.5847 C   0  0  0  0  0  0  0  0  0  0  0  0
   -5.2298   -1.0678   -0.2782 C   0  0  0  0  0  0  0  0  0  0  0  0
   -4.7980    1.0646    0.9449 C   0  0  0  0  0  0  0  0  0  0  0  0
   -2.9517   -0.1014   -0.1728 C   0  0  0  0  0  0  0  0  0  0  0  0
   -2.3462   -1.3488    0.0741 C   0  0  0  0  0  0  0  0  0  0  0  0
   -2.1270    0.9706   -0.5652 C   0  0  0  0  0  0  0  0  0  0  0  0
   -0.1704   -0.4422   -0.4556 C   0  0  0  0  0  0  0  0  0  0  0  0
    1.3025   -0.6230   -0.6056 C   0  0  0  0  0  0  0  0  0  0  0  0
   -0.9685   -1.5176   -0.0658 C   0  0  0  0  0  0  0  0  0  0  0  0
   -0.7495    0.8019   -0.7053 C   0  0  0  0  0  0  0  0  0  0  0  0
    2.0887   -0.3425    0.6811 C   0  0  0  0  0  0  0  0  0  0  0  0
    4.0343   -1.8505    0.7629 C   0  0  0  0  0  0  0  0  0  0  0  0
    4.2963    0.5849    0.1009 C   0  0  0  0  0  0  0  0  0  0  0  0
    5.7738    0.3570   -0.0701 C   0  0  0  0  0  0  0  0  0  0  0  0
  1 22  1  0
  2 22  1  0
  3 22  1  0
  4 21  2  0
  5 10  1  0
  5 11  1  0
  5 12  1  0
  6 19  1  0
  6 20  1  0
  6 21  1  0
  7  8  1  0
  7  9  1  0
  8 10  1  0
  9 11  1  0
 12 13  2  0
 12 14  1  0
 13 17  1  0
 14 18  2  0
 15 16  1  0
 15 17  2  0
 15 18  1  0
 16 19  1  0
 21 22  1  0
M  END
>  <PUBCHEM_COMPOUND_CID>  (1) 
38070

>  <PUBCHEM_CONFORMER_RMSD>  (1) 
0.8

>  <PUBCHEM_CONFORMER_DIVERSEORDER>  (1) 
1
67
14
3
18
74
10
24
51
45
59
64
52
38
4
54
36
61
75
62
37
17
9
70
47
50
43
39
58
21
6
22
73
26
11
42
48
41
40
30
25
19
7
44
46
63
57
8
49
23
5
13
33
65
27
20
72
12
71
35
68
55
15
2
29
16
53
69
34
66
31
32
60
56
28

>  <PUBCHEM_MMFF94_PARTIAL_CHARGES>  (1) 
23
1 -0.34
10 0.37
11 0.37
12 0.1
13 -0.15
14 -0.15
15 -0.14
16 0.14
17 -0.15
18 -0.15
19 0.3
2 -0.34
20 0.3
21 0.57
22 1.08
3 -0.34
33 0.15
34 0.15
37 0.15
38 0.15
4 -0.57
5 -0.84
6 -0.66

>  <PUBCHEM_EFFECTIVE_ROTOR_COUNT>  (1) 
7.2

>  <PUBCHEM_PHARMACOPHORE_FEATURES>  (1) 
4
1 4 acceptor
1 5 cation
6 12 13 14 15 17 18 rings
6 5 7 8 9 10 11 rings

>  <PUBCHEM_HEAVY_ATOM_COUNT>  (1) 
22

>  <PUBCHEM_ATOM_DEF_STEREO_COUNT>  (1) 
0

>  <PUBCHEM_ATOM_UDEF_STEREO_COUNT>  (1) 
0

>  <PUBCHEM_BOND_DEF_STEREO_COUNT>  (1) 
0

>  <PUBCHEM_BOND_UDEF_STEREO_COUNT>  (1) 
0

>  <PUBCHEM_ISOTOPIC_ATOM_COUNT>  (1) 
0

>  <PUBCHEM_COMPONENT_COUNT>  (1) 
1

>  <PUBCHEM_CACTVS_TAUTO_COUNT>  (1) 
1

>  <PUBCHEM_CONFORMER_ID>  (1) 
000094B600000001

>  <PUBCHEM_MMFF94_ENERGY>  (1) 
60.2458

>  <PUBCHEM_FEATURE_SELFOVERLAP>  (1) 
20.297

>  <PUBCHEM_SHAPE_FINGERPRINT>  (1) 
10 15 16153429467261305414
10299344 5 18410293601228523402
10354089 29 18407759240328262336
106641 1 18187370952319308393
10670039 82 15697728016701321835
10906281 52 18261128369236812871
10968037 39 17967250914555525087
11315181 36 18410574003465418019
11991303 11 15554157168691868037
12091667 2 16008745815074450863
12107183 9 17688303491459207058
12236239 1 18411418410086890342
12516196 113 16660364775109644573
12596602 18 18259988154641433425
13167372 99 18342176631131826744
13533116 47 18114457860398616978
13668630 136 11818990760323110600
13685833 64 8214137461003760485
13785724 45 17693377737780713450
1420 363 16370727015210131712
14251764 18 18409449193937092543
14251764 46 18410854364916795559
14341114 176 18260830371858186660
14933364 13 18272934920779577777
15048467 5 18342457045082543809
15183329 4 17918000455631095088
15716309 27 18186519887005875987
17093844 174 15502373427420659005
17834072 8 13470687048694510856
18006028 8 13118001111117198151
20281389 69 18410008827664298920
21150785 3 14549015490071929737
21267235 1 18262236621908967618
220451 1 18335419071470004919
22224240 67 18040996258572980251
23081809 10 18343292648603822639
23402539 116 18202557385473791567
23559900 14 18262513814011902569
23622692 88 17313107466404835447
3014965 18 15410623532183016044
347723 3 11383832671311152655
34797466 226 16988850518306728805
3545911 37 18333447647384776406
397830 11 16009893781816761857
4073 2 18114467850492761882
4325135 7 18131631193137647335
4340502 62 15285356210927024450
4463277 17 18335419058669083333
5104073 3 18188484804531695208
542803 24 18272367568516371975
54446538 1 18273214209438970161
5758199 1 18334859419808542755
59682541 35 17385730235046975145
59755656 215 15339125619311950812
59755656 520 18413101775897007591

>  <PUBCHEM_SHAPE_MULTIPOLES>  (1) 
415.1
19.74
1.55
0.89
3.23
0.08
0.02
-4.24
-1.68
0.15
-0.16
0.14
-0.07
-1.04

>  <PUBCHEM_SHAPE_SELFOVERLAP>  (1) 
858.411

>  <PUBCHEM_SHAPE_VOLUME>  (1) 
238.7

>  <PUBCHEM_COORDINATE_TYPE>  (1) 
2
5
10

$$$$
