38097
     RDKit          3D

 17 17  0  0  0  0  0  0  0  0999 V2000
   -1.2495    1.1938   -0.5005 O   0  0  0  0  0  0  0  0  0  0  0  0
    0.7286   -0.4321    0.5814 O   0  0  0  0  0  0  0  0  0  0  0  0
    1.2443   -1.1808   -1.5507 O   0  0  0  0  0  0  0  0  0  0  0  0
    4.4071    0.9234    1.0444 O   0  0  0  0  0  0  0  0  0  0  0  0
    2.8910   -0.1276   -0.2988 N   0  0  0  0  0  0  0  0  0  0  0  0
    3.2363    0.5320    0.9896 N   0  0  0  0  0  0  0  0  0  0  0  0
   -1.9853    2.2289    0.1487 C   0  0  0  0  0  0  0  0  0  0  0  0
   -1.5300   -0.0880   -0.1347 C   0  0  0  0  0  0  0  0  0  0  0  0
   -1.0210    3.1284    0.9070 C   0  0  0  0  0  0  0  0  0  0  0  0
   -2.7843    3.0020   -0.8894 C   0  0  0  0  0  0  0  0  0  0  0  0
   -0.5372   -0.9042    0.4076 C   0  0  0  0  0  0  0  0  0  0  0  0
   -2.8227   -0.5831   -0.3067 C   0  0  0  0  0  0  0  0  0  0  0  0
   -0.8373   -2.2152    0.7779 C   0  0  0  0  0  0  0  0  0  0  0  0
   -3.1228   -1.8939    0.0637 C   0  0  0  0  0  0  0  0  0  0  0  0
   -2.1301   -2.7099    0.6059 C   0  0  0  0  0  0  0  0  0  0  0  0
    1.6045   -0.6241   -0.5142 C   0  0  0  0  0  0  0  0  0  0  0  0
    3.9084   -0.2496   -1.3313 C   0  0  0  0  0  0  0  0  0  0  0  0
  1  7  1  0
  1  8  1  0
  2 11  1  0
  2 16  1  0
  3 16  2  0
  4  6  2  0
  5  6  1  0
  5 16  1  0
  5 17  1  0
  7  9  1  0
  7 10  1  0
  8 11  2  0
  8 12  1  0
 11 13  1  0
 12 14  2  0
 13 15  2  0
 14 15  1  0
M  END
>  <PUBCHEM_COMPOUND_CID>  (1) 
38097

>  <PUBCHEM_CONFORMER_RMSD>  (1) 
0.8

>  <PUBCHEM_CONFORMER_DIVERSEORDER>  (1) 
1
38
83
94
76
53
91
67
8
65
27
41
22
80
81
70
29
13
78
58
75
77
84
51
69
82
66
47
45
34
85
9
6
74
24
63
12
5
79
54
60
23
37
61
52
44
4
39
11
10
7
87
57
16
86
26
50
46
72
35
25
92
40
48
90
21
36
19
68
49
14
18
71
59
93
17
62
89
31
33
2
3
28
43
73
56
30
95
32
20
55
42
88
15
64

>  <PUBCHEM_MMFF94_PARTIAL_CHARGES>  (1) 
19
1 -0.36
11 0.08
12 -0.15
13 -0.15
14 -0.15
15 -0.15
16 0.78
17 0.3
2 -0.23
25 0.15
26 0.15
27 0.15
28 0.15
3 -0.57
4 -0.16
5 -0.18
6 -0.02
7 0.28
8 0.08

>  <PUBCHEM_EFFECTIVE_ROTOR_COUNT>  (1) 
6

>  <PUBCHEM_PHARMACOPHORE_FEATURES>  (1) 
4
1 1 acceptor
1 3 acceptor
3 7 9 10 hydrophobe
6 8 11 12 13 14 15 rings

>  <PUBCHEM_HEAVY_ATOM_COUNT>  (1) 
17

>  <PUBCHEM_ATOM_DEF_STEREO_COUNT>  (1) 
0

>  <PUBCHEM_ATOM_UDEF_STEREO_COUNT>  (1) 
0

>  <PUBCHEM_BOND_DEF_STEREO_COUNT>  (1) 
0

>  <PUBCHEM_BOND_UDEF_STEREO_COUNT>  (1) 
0

>  <PUBCHEM_ISOTOPIC_ATOM_COUNT>  (1) 
0

>  <PUBCHEM_COMPONENT_COUNT>  (1) 
1

>  <PUBCHEM_CACTVS_TAUTO_COUNT>  (1) 
1

>  <PUBCHEM_CONFORMER_ID>  (1) 
000094D100000001

>  <PUBCHEM_MMFF94_ENERGY>  (1) 
52.7784

>  <PUBCHEM_FEATURE_SELFOVERLAP>  (1) 
20.297

>  <PUBCHEM_SHAPE_FINGERPRINT>  (1) 
12173636 292 18336541595553268989
12532896 13 18193558870226087509
13294875 104 17689713065392531898
14614273 12 18041552530189606567
15490181 7 17977677411501960051
16945 1 18334300889455745935
17134986 127 17685218279080127757
1741750 31 18266176136714375769
19049666 15 18271532979304226870
20344682 1 17916866953506031655
20510252 161 18410854360780051673
20671657 1 17689431586083774763
21029758 11 18266452303792263271
21524375 3 17906453229813070149
22182937 141 18201165338448102121
22802520 49 17987807276284008004
2297311 6 18266470965319520022
23402539 116 18340475785565223983
23419403 2 17686309355455288805
23557571 272 18341343248593891156
23558518 356 18114743724589382395
23559900 14 18410014343098632878
350125 39 17975140846677081075
526903 126 18269828723211870241
6049 1 18131082532303062164
7364860 26 17476087194885733915
81228 2 18265074512284469547
84936 182 17474939931326790393

>  <PUBCHEM_SHAPE_MULTIPOLES>  (1) 
316.41
6.2
3.46
1.14
7.71
1.9
-0.13
0.81
-0.39
-4.32
0.56
0.76
0.15
1

>  <PUBCHEM_SHAPE_SELFOVERLAP>  (1) 
641.086

>  <PUBCHEM_SHAPE_VOLUME>  (1) 
183.9

>  <PUBCHEM_COORDINATE_TYPE>  (1) 
2
5
10

$$$$
