38094
     RDKit          3D

 26 27  0  0  1  0  0  0  0  0999 V2000
    5.7748    3.5977   -0.5171 Cl  0  0  0  0  0  0  0  0  0  0  0  0
   -5.6097   -1.7960   -1.3198 O   0  0  0  0  0  0  0  0  0  0  0  0
   -2.8867   -1.7528   -0.7526 O   0  0  0  0  0  0  0  0  0  0  0  0
    5.1575   -2.0358    0.9149 O   0  0  0  0  0  0  0  0  0  0  0  0
   -4.4287    1.0523    0.7304 N   0  0  0  0  0  0  0  0  0  0  0  0
    2.4784   -1.5332    0.6940 N   0  0  0  0  0  0  0  0  0  0  0  0
   -4.2585    2.4660    0.4235 C   0  0  0  0  0  0  0  0  0  0  0  0
   -4.9522    0.3289   -0.4204 C   0  0  0  0  0  0  0  0  0  0  0  0
   -5.1315   -1.1630   -0.1294 C   0  0  0  0  0  0  0  0  0  0  0  0
   -3.6973    3.1708    1.6630 C   0  0  0  0  0  0  0  0  0  0  0  0
   -3.2764    2.5968   -0.7455 C   0  0  0  0  0  0  0  0  0  0  0  0
   -5.6148    3.0708    0.0425 C   0  0  0  0  0  0  0  0  0  0  0  0
   -3.8404   -1.8540    0.3037 C   0  0  0  0  0  0  0  0  0  0  0  0
   -1.5736   -1.6990   -0.3987 C   0  0  0  0  0  0  0  0  0  0  0  0
   -1.1378   -2.3362    0.7631 C   0  0  0  0  0  0  0  0  0  0  0  0
   -0.6637   -1.0065   -1.1975 C   0  0  0  0  0  0  0  0  0  0  0  0
    1.1319   -1.5879    0.3309 C   0  0  0  0  0  0  0  0  0  0  0  0
    0.2080   -2.2809    1.1260 C   0  0  0  0  0  0  0  0  0  0  0  0
    0.6819   -0.9512   -0.8348 C   0  0  0  0  0  0  0  0  0  0  0  0
    3.3850   -0.5369    0.4386 C   0  0  0  0  0  0  0  0  0  0  0  0
    4.7958   -1.0186    0.3230 C   0  0  0  0  0  0  0  0  0  0  0  0
    3.0185    0.7499    0.3243 C   0  0  0  0  0  0  0  0  0  0  0  0
    5.7423   -0.3635   -0.6106 C   0  0  0  0  0  0  0  0  0  0  0  0
    3.8285    1.9302    0.1619 C   0  0  0  0  0  0  0  0  0  0  0  0
    5.8224    0.9327   -0.9258 C   0  0  0  0  0  0  0  0  0  0  0  0
    5.0461    2.0194   -0.3874 C   0  0  0  0  0  0  0  0  0  0  0  0
  1 26  1  0
  2  9  1  0
  3 13  1  0
  3 14  1  0
  4 21  2  0
  5  7  1  0
  5  8  1  0
  6 17  1  0
  6 20  1  0
  7 10  1  0
  7 11  1  0
  7 12  1  0
  8  9  1  0
  9 13  1  0
 14 15  2  0
 14 16  1  0
 15 18  1  0
 16 19  2  0
 17 18  2  0
 17 19  1  0
 20 21  1  0
 20 22  2  0
 21 23  1  0
 22 24  1  0
 23 25  2  0
 24 26  2  0
 25 26  1  0
M  END
>  <PUBCHEM_COMPOUND_CID>  (1) 
38094

>  <PUBCHEM_CONFORMER_RMSD>  (1) 
1

>  <PUBCHEM_CONFORMER_DIVERSEORDER>  (1) 
2
658
581
200
559
263
12
671
66
724
538
747
402
311
202
422
58
691
37
562
293
634
101
96
301
545
569
97
767
62
406
502
238
557
50
585
456
321
452
158
252
465
246
165
40
594
443
86
602
541
455
92
122
87
9
761
720
511
222
100
757
25
299
323
14
719
334
618
721
150
102
5
346
362
518
278
295
110
535
284
85
665
616
574
21
48
290
38
36
635
104
204
425
20
140
112
319
237
180
45
451
433
655
31
359
42
177
138
446
142
394
43
11
458
131
382
56
23
15
307
266
4
28
10
324
7
107
111
1
125
13
195
339
464
44
220
304
733
305
385
46
745
214
16
6
188
24
196
3
609
22
281
400
172
51

>  <PUBCHEM_MMFF94_PARTIAL_CHARGES>  (1) 
34
1 -0.14
13 0.28
14 0.08
15 -0.15
16 -0.15
17 0.1
18 -0.15
19 -0.15
2 -0.68
20 0.11
21 0.54
22 -0.15
23 -0.14
24 -0.15
25 -0.15
26 0.14
27 0.36
3 -0.36
4 -0.57
42 0.4
43 0.15
44 0.15
45 0.15
46 0.15
47 0.4
48 0.15
49 0.15
5 -0.9
50 0.15
51 0.15
6 -0.6
7 0.27
8 0.27
9 0.28

>  <PUBCHEM_EFFECTIVE_ROTOR_COUNT>  (1) 
8

>  <PUBCHEM_PHARMACOPHORE_FEATURES>  (1) 
11
1 2 acceptor
1 2 donor
1 3 acceptor
1 4 acceptor
1 5 cation
1 5 donor
1 6 cation
1 6 donor
4 7 10 11 12 hydrophobe
6 14 15 16 17 18 19 rings
7 20 21 22 23 24 25 26 rings

>  <PUBCHEM_HEAVY_ATOM_COUNT>  (1) 
26

>  <PUBCHEM_ATOM_DEF_STEREO_COUNT>  (1) 
0

>  <PUBCHEM_ATOM_UDEF_STEREO_COUNT>  (1) 
1

>  <PUBCHEM_BOND_DEF_STEREO_COUNT>  (1) 
0

>  <PUBCHEM_BOND_UDEF_STEREO_COUNT>  (1) 
0

>  <PUBCHEM_ISOTOPIC_ATOM_COUNT>  (1) 
0

>  <PUBCHEM_COMPONENT_COUNT>  (1) 
1

>  <PUBCHEM_CACTVS_TAUTO_COUNT>  (1) 
2

>  <PUBCHEM_CONFORMER_ID>  (1) 
000094CE00000002

>  <PUBCHEM_MMFF94_ENERGY>  (1) 
92.3677

>  <PUBCHEM_FEATURE_SELFOVERLAP>  (1) 
55.824

>  <PUBCHEM_SHAPE_FINGERPRINT>  (1) 
10595046 47 18338794623527699158
10670039 82 18412261752680177356
11101153 10 18338516460482061053
11135609 149 14763239830597509412
12107183 9 18120930612394970994
12390115 104 18410019805737669231
12596602 18 17821726156931255147
13167372 99 18410009932066836970
13785724 45 17834110849970613970
14251764 38 18341899541343066553
14251764 75 18125732188675145921
14347329 18 18341892987090838264
14429114 114 18339077219696803832
14739800 52 18267285681644127864
14790565 3 18408324376082563570
15163728 17 17988092088640458759
15183329 4 18342178881968788350
15289351 153 18338791326153294048
15419008 145 18188756307085578256
15575132 122 18341894108715566341
17844677 252 18410579500111524998
21236236 1 18411699881285618021
22122407 14 18336272301188205994
2838139 119 18410577288187062642
4197921 191 18408887355852777652
469060 322 17095521799275421549
50677037 204 18335702805420847452
5104073 3 17749102335932788682
54446538 1 18411414020635874450
6299153 45 18191583056363387082
636775 72 18195244649644723168
7808743 9 18198902518549584217

>  <PUBCHEM_SHAPE_MULTIPOLES>  (1) 
509.37
16.74
4.23
1.13
4.71
3.27
0.06
9.96
-1.9
-1.96
0.64
-0.49
0
-2.31

>  <PUBCHEM_SHAPE_SELFOVERLAP>  (1) 
1048.215

>  <PUBCHEM_SHAPE_VOLUME>  (1) 
292.5

>  <PUBCHEM_COORDINATE_TYPE>  (1) 
2
5
10

$$$$
