38096
     RDKit          3D

 27 29  0  0  1  0  0  0  0  0999 V2000
   -3.7190   -3.5186   -0.6466 O   0  0  0  0  0  0  0  0  0  0  0  0
   -1.0465   -2.7872   -0.2216 O   0  0  0  0  0  0  0  0  0  0  0  0
    6.8373   -0.5431    0.2296 O   0  0  0  0  0  0  0  0  0  0  0  0
   -4.2291    0.0655    0.1230 N   0  0  0  0  0  0  0  0  0  0  0  0
    4.1518   -0.9470    0.4972 N   0  0  0  0  0  0  0  0  0  0  0  0
   -5.2897    0.9981   -0.2533 C   0  0  0  0  0  0  0  0  0  0  0  0
   -4.9425    2.4076    0.2381 C   0  0  0  0  0  0  0  0  0  0  0  0
   -6.6283    0.5254    0.3247 C   0  0  0  0  0  0  0  0  0  0  0  0
   -6.0651    3.3968   -0.0707 C   0  0  0  0  0  0  0  0  0  0  0  0
   -7.7489    1.5170    0.0164 C   0  0  0  0  0  0  0  0  0  0  0  0
   -7.4021    2.9244    0.4933 C   0  0  0  0  0  0  0  0  0  0  0  0
   -4.5047   -1.2656   -0.3954 C   0  0  0  0  0  0  0  0  0  0  0  0
   -3.3827   -2.2540   -0.0687 C   0  0  0  0  0  0  0  0  0  0  0  0
   -2.0201   -1.8211   -0.6053 C   0  0  0  0  0  0  0  0  0  0  0  0
    0.2334   -2.3341   -0.0447 C   0  0  0  0  0  0  0  0  0  0  0  0
    1.0669   -2.9638    0.8733 C   0  0  0  0  0  0  0  0  0  0  0  0
    0.6883   -1.2480   -0.7847 C   0  0  0  0  0  0  0  0  0  0  0  0
    2.8333   -1.4132    0.3149 C   0  0  0  0  0  0  0  0  0  0  0  0
    2.3707   -2.5021    1.0537 C   0  0  0  0  0  0  0  0  0  0  0  0
    1.9921   -0.7861   -0.6044 C   0  0  0  0  0  0  0  0  0  0  0  0
    4.6366    0.3279    0.3541 C   0  0  0  0  0  0  0  0  0  0  0  0
    6.0764    0.3829   -0.0532 C   0  0  0  0  0  0  0  0  0  0  0  0
    3.8727    1.4089    0.5838 C   0  0  0  0  0  0  0  0  0  0  0  0
    6.5838    1.4797   -0.9131 C   0  0  0  0  0  0  0  0  0  0  0  0
    4.2264    2.8038    0.5823 C   0  0  0  0  0  0  0  0  0  0  0  0
    6.1851    2.7543   -0.9393 C   0  0  0  0  0  0  0  0  0  0  0  0
    5.2240    3.3914   -0.0833 C   0  0  0  0  0  0  0  0  0  0  0  0
  1 13  1  0
  2 14  1  0
  2 15  1  0
  3 22  2  0
  4  6  1  0
  4 12  1  0
  5 18  1  0
  5 21  1  0
  6  7  1  0
  6  8  1  0
  7  9  1  0
  8 10  1  0
  9 11  1  0
 10 11  1  0
 12 13  1  0
 13 14  1  0
 15 16  2  0
 15 17  1  0
 16 19  1  0
 17 20  2  0
 18 19  2  0
 18 20  1  0
 21 22  1  0
 21 23  2  0
 22 24  1  0
 23 25  1  0
 24 26  2  0
 25 27  2  0
 26 27  1  0
M  END
>  <PUBCHEM_COMPOUND_CID>  (1) 
38096

>  <PUBCHEM_CONFORMER_RMSD>  (1) 
1.2

>  <PUBCHEM_CONFORMER_DIVERSEORDER>  (1) 
1
437
94
432
40
170
361
195
4
137
53
75
179
532
181
146
335
253
556
225
45
315
55
418
56
74
300
118
409
490
32
116
250
85
12
476
492
389
80
114
309
236
107
222
436
61
221
229
41
487
392
535
495
167
23
10
34
343
249
526
365
9
132
157
68
570
38
364
443
303
512
30
528
257
73
182
82
3
331
42
78
83
552
214
277
29
336
2
265
473
20
106
16
381
150
63
28
486
39
420
247
11
159
382
18
153
19
99
177
356
147
7
44
217
268
14
59
64

>  <PUBCHEM_MMFF94_PARTIAL_CHARGES>  (1) 
34
1 -0.68
12 0.27
13 0.28
14 0.28
15 0.08
16 -0.15
17 -0.15
18 0.1
19 -0.15
2 -0.36
20 -0.15
21 0.11
22 0.54
23 -0.15
24 -0.14
25 -0.15
26 -0.15
27 -0.15
3 -0.57
39 0.36
4 -0.9
45 0.4
46 0.15
47 0.15
48 0.15
49 0.15
5 -0.6
50 0.4
51 0.15
52 0.15
53 0.15
54 0.15
55 0.15
6 0.27

>  <PUBCHEM_EFFECTIVE_ROTOR_COUNT>  (1) 
9.2

>  <PUBCHEM_PHARMACOPHORE_FEATURES>  (1) 
11
1 1 acceptor
1 1 donor
1 2 acceptor
1 3 acceptor
1 4 cation
1 4 donor
1 5 cation
1 5 donor
6 15 16 17 18 19 20 rings
6 6 7 8 9 10 11 rings
7 21 22 23 24 25 26 27 rings

>  <PUBCHEM_HEAVY_ATOM_COUNT>  (1) 
27

>  <PUBCHEM_ATOM_DEF_STEREO_COUNT>  (1) 
0

>  <PUBCHEM_ATOM_UDEF_STEREO_COUNT>  (1) 
1

>  <PUBCHEM_BOND_DEF_STEREO_COUNT>  (1) 
0

>  <PUBCHEM_BOND_UDEF_STEREO_COUNT>  (1) 
0

>  <PUBCHEM_ISOTOPIC_ATOM_COUNT>  (1) 
0

>  <PUBCHEM_COMPONENT_COUNT>  (1) 
1

>  <PUBCHEM_CACTVS_TAUTO_COUNT>  (1) 
2

>  <PUBCHEM_CONFORMER_ID>  (1) 
000094D000000001

>  <PUBCHEM_MMFF94_ENERGY>  (1) 
83.7148

>  <PUBCHEM_FEATURE_SELFOVERLAP>  (1) 
55.825

>  <PUBCHEM_SHAPE_FINGERPRINT>  (1) 
10050765 1 18411419497194833567
10816530 90 18339647746357020742
10883706 163 18261670385968533493
12107183 9 18265040354442044850
12895837 130 18410577314500419255
13167372 99 18410008875610364110
13885169 86 18340491076139031449
13944108 23 18268994176579723720
14251764 75 18410292489216881713
14429114 114 18196365042516885936
14617042 71 18199756843960511401
14790565 3 18337672035361985806
14951699 99 18334580144197979037
15519825 34 16516262850531096651
16126227 98 18412829075827976531
19438510 23 18187083957850972651
20058555 10 18410291394201194469
20691028 202 18410008870666686861
21315764 268 18118398437474372389
21585481 104 13614241460925025011
21585482 111 18261673649969611605
22122407 14 18408889546233338731
23569914 152 17914921768077680732
2748736 6 18411127035669771181
2838139 119 18343015627070224798
3472631 163 18343300341038001567
4144715 1 18263091075108324602
4169191 19 18337669720913151357
4366758 26 18410301280879111773
44555599 121 18410852157361842106
5104073 3 17967523597281215434
5874358 3 13110413287032368556
636775 72 17979070810989973152
7808743 9 18413101763064722979

>  <PUBCHEM_SHAPE_MULTIPOLES>  (1) 
528.08
22.97
4.91
0.87
15.93
0.68
0.01
24.68
0.28
1.77
-0.13
-0.53
-0.09
-1.9

>  <PUBCHEM_SHAPE_SELFOVERLAP>  (1) 
1101.919

>  <PUBCHEM_SHAPE_VOLUME>  (1) 
294.5

>  <PUBCHEM_COORDINATE_TYPE>  (1) 
2
5
10

$$$$
