38109
     RDKit          3D

 17 18  0  0  0  0  0  0  0  0999 V2000
   -1.1479    0.3057    0.9116 O   0  0  0  0  0  0  0  0  0  0  0  0
   -0.7841    2.2245   -0.3248 O   0  0  0  0  0  0  0  0  0  0  0  0
    4.8988   -0.6065   -0.1471 O   0  0  0  0  0  0  0  0  0  0  0  0
   -2.5225    0.3316    0.4449 N   0  0  0  0  0  0  0  0  0  0  0  0
   -4.7133   -1.2162   -0.6722 C   0  0  0  0  0  0  0  0  0  0  0  0
   -4.6683   -0.8133    0.7999 C   0  0  0  0  0  0  0  0  0  0  0  0
   -3.8702   -0.2672   -1.5211 C   0  0  0  0  0  0  0  0  0  0  0  0
   -3.2274   -0.6417    1.2833 C   0  0  0  0  0  0  0  0  0  0  0  0
   -2.4600   -0.1169   -0.9486 C   0  0  0  0  0  0  0  0  0  0  0  0
   -0.4018    1.1843    0.1899 C   0  0  0  0  0  0  0  0  0  0  0  0
    1.0035    0.7093    0.1001 C   0  0  0  0  0  0  0  0  0  0  0  0
    2.0159    1.6408    0.0014 C   0  0  0  0  0  0  0  0  0  0  0  0
    1.2503   -0.6475    0.1191 C   0  0  0  0  0  0  0  0  0  0  0  0
    3.3350    1.1953   -0.0822 C   0  0  0  0  0  0  0  0  0  0  0  0
    2.5694   -1.0932    0.0355 C   0  0  0  0  0  0  0  0  0  0  0  0
    3.6118   -0.1718   -0.0653 C   0  0  0  0  0  0  0  0  0  0  0  0
    5.1105   -2.0174   -0.1244 C   0  0  0  0  0  0  0  0  0  0  0  0
  1  4  1  0
  1 10  1  0
  2 10  2  0
  3 16  1  0
  3 17  1  0
  4  8  1  0
  4  9  1  0
  5  6  1  0
  5  7  1  0
  6  8  1  0
  7  9  1  0
 10 11  1  0
 11 12  2  0
 11 13  1  0
 12 14  1  0
 13 15  2  0
 14 16  2  0
 15 16  1  0
M  END
>  <PUBCHEM_COMPOUND_CID>  (1) 
38109

>  <PUBCHEM_CONFORMER_RMSD>  (1) 
0.6

>  <PUBCHEM_CONFORMER_DIVERSEORDER>  (1) 
1
56
45
55
40
38
18
21
22
13
20
23
39
29
51
52
15
41
42
12
14
6
5
35
44
48
49
26
4
25
2
10
54
9
50
47
11
53
30
16
3
7
17
8
46
33
36
43
34
57
24
58
32
27
28
31
37
19
59

>  <PUBCHEM_MMFF94_PARTIAL_CHARGES>  (1) 
18
1 -0.05
10 0.63
11 0.09
12 -0.15
13 -0.15
14 -0.15
15 -0.15
16 0.08
17 0.28
2 -0.57
28 0.15
29 0.15
3 -0.36
30 0.15
31 0.15
4 -0.64
8 0.27
9 0.27

>  <PUBCHEM_EFFECTIVE_ROTOR_COUNT>  (1) 
5.2

>  <PUBCHEM_PHARMACOPHORE_FEATURES>  (1) 
4
1 2 acceptor
1 3 acceptor
6 11 12 13 14 15 16 rings
6 4 5 6 7 8 9 rings

>  <PUBCHEM_HEAVY_ATOM_COUNT>  (1) 
17

>  <PUBCHEM_ATOM_DEF_STEREO_COUNT>  (1) 
0

>  <PUBCHEM_ATOM_UDEF_STEREO_COUNT>  (1) 
0

>  <PUBCHEM_BOND_DEF_STEREO_COUNT>  (1) 
0

>  <PUBCHEM_BOND_UDEF_STEREO_COUNT>  (1) 
0

>  <PUBCHEM_ISOTOPIC_ATOM_COUNT>  (1) 
0

>  <PUBCHEM_COMPONENT_COUNT>  (1) 
1

>  <PUBCHEM_CACTVS_TAUTO_COUNT>  (1) 
1

>  <PUBCHEM_CONFORMER_ID>  (1) 
000094DD00000001

>  <PUBCHEM_MMFF94_ENERGY>  (1) 
48.1129

>  <PUBCHEM_FEATURE_SELFOVERLAP>  (1) 
20.298

>  <PUBCHEM_SHAPE_FINGERPRINT>  (1) 
10014705 185 9367053446287501242
11046707 91 18131630067059721335
11543360 7 15719402754007663494
11806522 49 18410293593128958784
12032990 46 18334580152481971296
12236239 1 17846501461087686707
12633257 1 14907899435605702271
12892183 10 14405194940725631239
13296908 3 18260828219831839905
13675066 3 12895356590344918352
13690532 89 18411981351851427106
13760787 5 18341615944504643133
13862211 1 18410572843582259162
1420 369 18202003209574397838
14350574 20 18187089467951036874
14386348 63 18040719199080995651
14576447 43 18410853248853338510
15188451 53 15769480020138343967
15375462 189 17989489636264019555
17862501 102 17846499223014151602
17870717 6 17313106341360871403
1813 80 18200607950556287996
18186145 218 17385721409094799481
193927 3 18341906172756753718
19784866 170 12103844566541462218
19784866 240 18272367624973588879
200 152 18342454837479903073
20112054 13 10879994661705803193
20281475 54 18273213135849723941
20325693 3 16225765216709498219
20645477 70 18334576867111499746
20671657 53 18408608062746048132
20871999 31 16805321085291108509
21267235 1 18412272734974980170
21713013 43 17676204710484000799
221490 88 18117847817765643410
22646028 1 18059856181439585227
22646028 28 18131350825656064719
23175994 123 18186803604066479933
23402539 116 18410293579632179256
23403322 49 18334012770153974995
23557571 272 16878222073303844509
23559900 14 17822291314413379192
2871803 45 18187362116959799930
312423 11 18339093622287345660
3268164 11 15792000225820184567
3286 77 17775281677440299840
351380 3 18272933816888983038
4259306 186 18408323259438623990
465052 167 18342746242479401390
5104073 3 18341048528191631040
5281201 14 17749108915173625044
542803 24 12829485952415428235
573450 72 17132119052374819635
602551 16 15267056003560237382
76465 3 18338230462894270546
83771 10 18343020008195296873

>  <PUBCHEM_SHAPE_MULTIPOLES>  (1) 
327.26
10.81
1.74
1.03
0.42
0.27
-0.07
-6.25
-0.9
1.5
-0.08
-1.41
-0.13
0.09

>  <PUBCHEM_SHAPE_SELFOVERLAP>  (1) 
681.711

>  <PUBCHEM_SHAPE_VOLUME>  (1) 
185.5

>  <PUBCHEM_COORDINATE_TYPE>  (1) 
2
5
10

$$$$
