38110
     RDKit          3D

 18 19  0  0  0  0  0  0  0  0999 V2000
   -1.4857   -0.2997   -0.9161 O   0  0  0  0  0  0  0  0  0  0  0  0
   -1.0949   -2.2155    0.3166 O   0  0  0  0  0  0  0  0  0  0  0  0
    5.5463   -0.1477    0.1898 O   0  0  0  0  0  0  0  0  0  0  0  0
    4.8300    1.9250    0.0890 O   0  0  0  0  0  0  0  0  0  0  0  0
   -2.8562   -0.3380   -0.4385 N   0  0  0  0  0  0  0  0  0  0  0  0
    4.6147    0.6888    0.1058 N   0  0  0  0  0  0  0  0  0  0  0  0
   -5.0518    1.1899    0.6967 C   0  0  0  0  0  0  0  0  0  0  0  0
   -5.0149    0.7878   -0.7760 C   0  0  0  0  0  0  0  0  0  0  0  0
   -4.1935    0.2482    1.5384 C   0  0  0  0  0  0  0  0  0  0  0  0
   -3.5764    0.6292   -1.2709 C   0  0  0  0  0  0  0  0  0  0  0  0
   -2.7866    0.1105    0.9546 C   0  0  0  0  0  0  0  0  0  0  0  0
   -0.7260   -1.1717   -0.2007 C   0  0  0  0  0  0  0  0  0  0  0  0
    0.6756   -0.6843   -0.1220 C   0  0  0  0  0  0  0  0  0  0  0  0
    1.6977   -1.6059   -0.0318 C   0  0  0  0  0  0  0  0  0  0  0  0
    0.9088    0.6749   -0.1404 C   0  0  0  0  0  0  0  0  0  0  0  0
    3.0129   -1.1474    0.0435 C   0  0  0  0  0  0  0  0  0  0  0  0
    2.2240    1.1335   -0.0651 C   0  0  0  0  0  0  0  0  0  0  0  0
    3.2761    0.2223    0.0270 C   0  0  0  0  0  0  0  0  0  0  0  0
  1  5  1  0
  1 12  1  0
  2 12  2  0
  3  6  1  0
  4  6  2  0
  5 10  1  0
  5 11  1  0
  6 18  1  0
  7  8  1  0
  7  9  1  0
  8 10  1  0
  9 11  1  0
 12 13  1  0
 13 14  2  0
 13 15  1  0
 14 16  1  0
 15 17  2  0
 16 18  2  0
 17 18  1  0
M  CHG  2   3  -1   6   1
M  END
>  <PUBCHEM_COMPOUND_CID>  (1) 
38110

>  <PUBCHEM_CONFORMER_RMSD>  (1) 
0.6

>  <PUBCHEM_CONFORMER_DIVERSEORDER>  (1) 
1
26
12
27
19
10
2
8
9
30
3
20
23
11
24
6
15
14
29
22
13
25
17
5
7
16
28
18
4
21

>  <PUBCHEM_MMFF94_PARTIAL_CHARGES>  (1) 
19
1 -0.05
10 0.27
11 0.27
12 0.63
13 0.09
14 -0.15
15 -0.15
16 -0.15
17 -0.15
18 0.13
2 -0.57
29 0.15
3 -0.52
30 0.15
31 0.15
32 0.15
4 -0.52
5 -0.64
6 0.91

>  <PUBCHEM_EFFECTIVE_ROTOR_COUNT>  (1) 
5.2

>  <PUBCHEM_PHARMACOPHORE_FEATURES>  (1) 
6
1 2 acceptor
1 3 acceptor
1 3 anion
1 4 acceptor
6 13 14 15 16 17 18 rings
6 5 7 8 9 10 11 rings

>  <PUBCHEM_HEAVY_ATOM_COUNT>  (1) 
18

>  <PUBCHEM_ATOM_DEF_STEREO_COUNT>  (1) 
0

>  <PUBCHEM_ATOM_UDEF_STEREO_COUNT>  (1) 
0

>  <PUBCHEM_BOND_DEF_STEREO_COUNT>  (1) 
0

>  <PUBCHEM_BOND_UDEF_STEREO_COUNT>  (1) 
0

>  <PUBCHEM_ISOTOPIC_ATOM_COUNT>  (1) 
0

>  <PUBCHEM_COMPONENT_COUNT>  (1) 
1

>  <PUBCHEM_CACTVS_TAUTO_COUNT>  (1) 
1

>  <PUBCHEM_CONFORMER_ID>  (1) 
000094DE00000001

>  <PUBCHEM_MMFF94_ENERGY>  (1) 
45.92

>  <PUBCHEM_FEATURE_SELFOVERLAP>  (1) 
30.528

>  <PUBCHEM_SHAPE_FINGERPRINT>  (1) 
10 15 17895191164518257464
10014705 185 18410288159372889295
10354089 29 18411143527969433705
10803635 8 13830131663675494045
11046707 91 11818991898515531435
11089746 13 17561078116620548616
11471102 20 18411979135563887014
11543360 7 15625936581755006166
12236239 1 17775002358800668597
12507557 5 18409171026069551153
12507560 40 17531525378353510531
12596602 18 15068346717412666132
12644460 14 18187921738561740402
13583140 156 16009295591698394327
13675066 3 17675925395738572998
14848178 96 18057878241979802872
15188451 53 15792024432482211993
17870717 6 13542467574946289205
18186145 218 18341335504852590119
193927 3 8646491863857493201
19489759 90 15267342911654733003
19784866 170 17749107777139004126
20112054 13 18260831484070184455
20300324 65 16558749014409121913
20325693 3 15195565693962940477
204376 136 18409731755382572339
20645477 56 18186799188391563982
20645477 70 18338228246148184374
20871999 31 14261354639690037923
21033648 29 18115290233487115733
22854114 59 18187087235026855339
231179 274 18333730199886575478
23402539 116 16845852377819786697
23402655 69 18131628980512162463
23559900 14 12319445593808066190
293599 30 18410856586005731396
335352 9 18410854357302956870
34797466 226 14764062423786953800
350125 39 18194688300533010275
3545911 37 18413390942827341863
4325135 7 18272087223991805655
465052 167 8142078788470475793
474 4 18343021086231932243
5104073 3 18262793099082690234
542803 24 17704072889035517589
602551 16 16009042708171254529
633830 44 18058177133132768247
76465 3 9439137424652582300

>  <PUBCHEM_SHAPE_MULTIPOLES>  (1) 
336.99
11.66
1.6
1.01
1.04
0.31
-0.07
-5.41
-1.11
0.98
-0.05
-1.49
-0.1
0.07

>  <PUBCHEM_SHAPE_SELFOVERLAP>  (1) 
708.533

>  <PUBCHEM_SHAPE_VOLUME>  (1) 
188.9

>  <PUBCHEM_COORDINATE_TYPE>  (1) 
2
5
10

$$$$
