38114
     RDKit          3D

 22 23  0  0  1  0  0  0  0  0999 V2000
    5.7782    1.5285   -0.3223 F   0  0  0  0  0  0  0  0  0  0  0  0
    3.9146    2.6064   -0.5850 F   0  0  0  0  0  0  0  0  0  0  0  0
    4.4697    1.8634    1.3818 F   0  0  0  0  0  0  0  0  0  0  0  0
    0.1929   -1.1310    1.6459 O   0  0  0  0  0  0  0  0  0  0  0  0
   -1.9516   -0.3454   -0.1064 N   0  0  0  0  0  0  0  0  0  0  0  0
    0.3136   -1.2447    0.2285 C   0  0  0  0  0  0  0  0  0  0  0  0
   -0.5517   -0.1856   -0.4654 C   0  0  0  0  0  0  0  0  0  0  0  0
    1.7743   -1.0920   -0.1353 C   0  0  0  0  0  0  0  0  0  0  0  0
   -2.7706    0.6845   -0.7479 C   0  0  0  0  0  0  0  0  0  0  0  0
    2.4133    0.1084    0.1227 C   0  0  0  0  0  0  0  0  0  0  0  0
    2.4399   -2.1564   -0.7183 C   0  0  0  0  0  0  0  0  0  0  0  0
    3.7599    0.2488   -0.2127 C   0  0  0  0  0  0  0  0  0  0  0  0
   -4.2178    0.5497   -0.4129 C   0  0  0  0  0  0  0  0  0  0  0  0
    3.7865   -2.0161   -1.0538 C   0  0  0  0  0  0  0  0  0  0  0  0
    4.4465   -0.8135   -0.8008 C   0  0  0  0  0  0  0  0  0  0  0  0
    4.4659    1.5342    0.0572 C   0  0  0  0  0  0  0  0  0  0  0  0
   -5.0494   -0.2326   -1.2141 C   0  0  0  0  0  0  0  0  0  0  0  0
   -4.7398    1.2062    0.7016 C   0  0  0  0  0  0  0  0  0  0  0  0
    0.9465   -2.1334    2.3101 C   0  0  0  0  0  0  0  0  0  0  0  0
   -6.4029   -0.3584   -0.9011 C   0  0  0  0  0  0  0  0  0  0  0  0
   -6.0932    1.0805    1.0148 C   0  0  0  0  0  0  0  0  0  0  0  0
   -6.9247    0.2982    0.2133 C   0  0  0  0  0  0  0  0  0  0  0  0
  1 16  1  0
  2 16  1  0
  3 16  1  0
  4  6  1  0
  4 19  1  0
  5  7  1  0
  5  9  1  0
  6  7  1  0
  6  8  1  0
  8 10  2  0
  8 11  1  0
  9 13  1  0
 10 12  1  0
 11 14  2  0
 12 15  2  0
 12 16  1  0
 13 17  2  0
 13 18  1  0
 14 15  1  0
 17 20  1  0
 18 21  2  0
 20 22  2  0
 21 22  1  0
M  END
>  <PUBCHEM_COMPOUND_CID>  (1) 
38114

>  <PUBCHEM_CONFORMER_RMSD>  (1) 
0.8

>  <PUBCHEM_CONFORMER_DIVERSEORDER>  (1) 
1
28
65
60
8
62
29
15
56
69
11
55
10
33
38
72
64
40
17
9
37
30
35
74
22
66
2
21
57
25
46
47
13
31
52
39
51
54
18
19
49
48
70
42
44
68
61
26
71
59
73
16
20
36
45
23
14
34
67
27
58
63
24
7
50
12
32
43
53
6
5
41
4
3

>  <PUBCHEM_MMFF94_PARTIAL_CHARGES>  (1) 
32
1 -0.34
10 -0.15
11 -0.15
12 -0.14
13 -0.14
14 -0.15
15 -0.15
16 1.16
17 -0.15
18 -0.15
19 0.28
2 -0.34
20 -0.15
21 -0.15
22 -0.15
26 0.36
29 0.15
3 -0.34
30 0.15
31 0.15
32 0.15
33 0.15
34 0.15
38 0.15
39 0.15
4 -0.56
40 0.15
5 -0.9
6 0.42
7 0.27
8 -0.14
9 0.41

>  <PUBCHEM_EFFECTIVE_ROTOR_COUNT>  (1) 
7

>  <PUBCHEM_PHARMACOPHORE_FEATURES>  (1) 
5
1 4 acceptor
1 5 cation
1 5 donor
6 13 17 18 20 21 22 rings
6 8 10 11 12 14 15 rings

>  <PUBCHEM_HEAVY_ATOM_COUNT>  (1) 
22

>  <PUBCHEM_ATOM_DEF_STEREO_COUNT>  (1) 
0

>  <PUBCHEM_ATOM_UDEF_STEREO_COUNT>  (1) 
1

>  <PUBCHEM_BOND_DEF_STEREO_COUNT>  (1) 
0

>  <PUBCHEM_BOND_UDEF_STEREO_COUNT>  (1) 
0

>  <PUBCHEM_ISOTOPIC_ATOM_COUNT>  (1) 
0

>  <PUBCHEM_COMPONENT_COUNT>  (1) 
1

>  <PUBCHEM_CACTVS_TAUTO_COUNT>  (1) 
1

>  <PUBCHEM_CONFORMER_ID>  (1) 
000094E200000001

>  <PUBCHEM_MMFF94_ENERGY>  (1) 
51.4939

>  <PUBCHEM_FEATURE_SELFOVERLAP>  (1) 
25.371

>  <PUBCHEM_SHAPE_FINGERPRINT>  (1) 
10 15 16805608104770138741
10595046 47 18131350791734065879
10638233 991 17918274255839299553
10912923 1 18059852831993010751
11128504 68 18343581824525135575
11719270 70 15357694172204071635
12107183 9 17122559653665251171
12236239 1 18059858342478132677
12596602 18 18411985741872213993
12616971 3 17917701366861842999
12730499 353 18336272275207885778
12788726 201 16343713097042769235
13631057 29 18190175888308494939
13911852 28 8645953060469107976
13955234 65 18263078816765305426
14251758 9 12103843467309298711
14251764 75 17754468068493474172
14366163 111 17489585675442730064
14461889 52 18335139847156482171
14528608 73 18131069342115676429
14681490 219 18343022172637930817
146900 427 18187645774059329161
14933364 13 18202568363199274805
15081414 286 18409168800860260932
15183329 4 16128661838548937729
17834072 33 18131069316641284663
17844677 252 18270407070865381141
1813 80 12751239207335397106
20567600 254 17822003229133651860
21285901 2 12535358886867013984
21641784 216 16056614131114379761
22061861 79 10231754466506064849
22079108 93 18040436607333685991
22149856 69 16879086157206541249
22950370 63 17775564213632355413
22956985 138 15070287231050114050
23081809 10 17489301967710701671
23522609 53 17131290025219157049
23536379 177 17846500292661520343
3004659 81 17131837508594711014
34797466 226 17775292672625039013
4072396 5 15357694180340474231
4073 2 18409172146739913331
4340502 62 17748543736364415387
465052 167 11746934274534256072
474 4 18334858354999596540
5312625 73 18412543215146415661
53794403 172 17823993426864252252
542803 24 17775002371696126695
543368 44 18273210928853972077
6913067 236 16298381362559514679
7495541 125 16988835069225020971

>  <PUBCHEM_SHAPE_MULTIPOLES>  (1) 
420.08
16.79
2.13
1.38
20.22
0.32
-0.72
6.49
2.02
-3.85
-0.31
0.04
-0.6
-0.15

>  <PUBCHEM_SHAPE_SELFOVERLAP>  (1) 
885.415

>  <PUBCHEM_SHAPE_VOLUME>  (1) 
237.7

>  <PUBCHEM_COORDINATE_TYPE>  (1) 
2
5
10

$$$$
