3811
     RDKit          3D

 21 21  0  0  0  0  0  0  0  0999 V2000
    1.0815   -3.0386   -0.4509 O   0  0  0  0  0  0  0  0  0  0  0  0
   -4.5898    1.9046    0.8566 O   0  0  0  0  0  0  0  0  0  0  0  0
   -7.2566    1.4822    0.8842 O   0  0  0  0  0  0  0  0  0  0  0  0
   -0.1358   -1.5442    0.8399 N   0  0  0  0  0  0  0  0  0  0  0  0
    5.3362    1.6937   -0.0516 N   0  0  0  0  0  0  0  0  0  0  0  0
   -6.4764    1.1268   -0.2240 N   0  0  0  0  0  0  0  0  0  0  0  0
   -2.8468   -0.6942   -0.1454 C   0  0  0  0  0  0  0  0  0  0  0  0
   -2.3317   -2.1366   -0.1110 C   0  0  0  0  0  0  0  0  0  0  0  0
   -3.8639   -0.4973   -1.2744 C   0  0  0  0  0  0  0  0  0  0  0  0
   -1.3057   -2.3645    0.9947 C   0  0  0  0  0  0  0  0  0  0  0  0
   -4.3735    0.9408   -1.3546 C   0  0  0  0  0  0  0  0  0  0  0  0
    0.9792   -1.9551    0.1185 C   0  0  0  0  0  0  0  0  0  0  0  0
    2.1178   -1.0019    0.0747 C   0  0  0  0  0  0  0  0  0  0  0  0
   -5.1324    1.3917   -0.1185 C   0  0  0  0  0  0  0  0  0  0  0  0
    4.2556    0.7884   -0.0084 C   0  0  0  0  0  0  0  0  0  0  0  0
    3.4180   -1.4758   -0.1003 C   0  0  0  0  0  0  0  0  0  0  0  0
    1.8865    0.3673    0.2079 C   0  0  0  0  0  0  0  0  0  0  0  0
    4.4870   -0.5807   -0.1417 C   0  0  0  0  0  0  0  0  0  0  0  0
    2.9554    1.2624    0.1664 C   0  0  0  0  0  0  0  0  0  0  0  0
    5.1047    3.1193    0.0720 C   0  0  0  0  0  0  0  0  0  0  0  0
    6.6908    1.2117   -0.2342 C   0  0  0  0  0  0  0  0  0  0  0  0
  1 12  2  0
  2 14  2  0
  3  6  1  0
  4 10  1  0
  4 12  1  0
  5 15  1  0
  5 20  1  0
  5 21  1  0
  6 14  1  0
  7  8  1  0
  7  9  1  0
  8 10  1  0
  9 11  1  0
 11 14  1  0
 12 13  1  0
 13 16  2  0
 13 17  1  0
 15 18  2  0
 15 19  1  0
 16 18  1  0
 17 19  2  0
M  END
>  <PUBCHEM_COMPOUND_CID>  (1) 
3811

>  <PUBCHEM_CONFORMER_RMSD>  (1) 
1

>  <PUBCHEM_CONFORMER_DIVERSEORDER>  (1) 
1
67
4
63
15
23
53
52
35
42
37
65
38
30
36
19
21
58
12
62
39
9
18
71
51
69
11
29
72
66
34
2
43
60
6
16
57
40
33
54
26
68
10
56
73
5
20
14
44
8
45
70
61
3
47
27
7
17
24
59
31
41
32
22
25
64
46
28
55
13
49
48
50

>  <PUBCHEM_MMFF94_PARTIAL_CHARGES>  (1) 
25
1 -0.57
10 0.3
11 0.06
12 0.54
13 0.09
14 0.57
15 0.1
16 -0.15
17 -0.15
18 -0.15
19 -0.15
2 -0.57
20 0.37
21 0.37
3 -0.44
32 0.37
33 0.15
34 0.15
35 0.15
36 0.15
37 0.37
4 -0.73
44 0.4
5 -0.84
6 -0.39

>  <PUBCHEM_EFFECTIVE_ROTOR_COUNT>  (1) 
10

>  <PUBCHEM_PHARMACOPHORE_FEATURES>  (1) 
7
1 1 acceptor
1 2 acceptor
1 4 donor
1 5 cation
1 6 donor
4 7 8 9 11 hydrophobe
6 13 15 16 17 18 19 rings

>  <PUBCHEM_HEAVY_ATOM_COUNT>  (1) 
21

>  <PUBCHEM_ATOM_DEF_STEREO_COUNT>  (1) 
0

>  <PUBCHEM_ATOM_UDEF_STEREO_COUNT>  (1) 
0

>  <PUBCHEM_BOND_DEF_STEREO_COUNT>  (1) 
0

>  <PUBCHEM_BOND_UDEF_STEREO_COUNT>  (1) 
0

>  <PUBCHEM_ISOTOPIC_ATOM_COUNT>  (1) 
0

>  <PUBCHEM_COMPONENT_COUNT>  (1) 
1

>  <PUBCHEM_CACTVS_TAUTO_COUNT>  (1) 
6

>  <PUBCHEM_CONFORMER_ID>  (1) 
00000EE300000001

>  <PUBCHEM_MMFF94_ENERGY>  (1) 
53.6038

>  <PUBCHEM_FEATURE_SELFOVERLAP>  (1) 
35.52

>  <PUBCHEM_SHAPE_FINGERPRINT>  (1) 
12788726 201 17203052872557363489
13103583 49 11747204711160530519
13885169 86 18335708268887747045
14251764 75 18409731789351725741
14848178 96 18410566305924181208
14931854 50 18202280265209433501
14950920 106 13334735738813189439
15188451 53 12468640534658093429
15519825 34 15792304829269456177
15778101 99 18409168843709303839
16760501 71 18335145302081088269
17780758 139 11458690708374740527
17834072 32 18336263526327511126
18608769 82 18338237189066374355
20238998 120 17544197538160272931
20403669 9 9511461151912151233
20621476 66 18335423504029053340
21033648 29 18268422607032777296
21033650 10 15123521268073644859
21304253 335 18187928456196306236
21401589 2 18040432213772053171
21421861 104 17531788192414804210
23402655 69 18343297093857914486
270888 7 18409445903501565925
2838139 119 18336254682857837206
5104073 3 17967808375266819538
7062679 13 10087654697146458772
7970288 3 9439400229153671789

>  <PUBCHEM_SHAPE_MULTIPOLES>  (1) 
399.62
17.1
3.17
0.92
10.65
0.37
-0.09
-16.35
-0.29
-0.79
0.36
1.11
0
-0.24

>  <PUBCHEM_SHAPE_SELFOVERLAP>  (1) 
801.126

>  <PUBCHEM_SHAPE_VOLUME>  (1) 
234.2

>  <PUBCHEM_COORDINATE_TYPE>  (1) 
2
5
10

$$$$
