38118
     RDKit          3D

 25 27  0  0  0  0  0  0  0  0999 V2000
   -1.2105    1.5947   -2.3746 O   0  0  0  0  0  0  0  0  0  0  0  0
   -1.9002   -0.8009   -0.9597 O   0  0  0  0  0  0  0  0  0  0  0  0
   -1.9245    2.0411   -0.2055 N   0  0  0  0  0  0  0  0  0  0  0  0
    0.2994   -0.2942   -0.3949 N   0  0  0  0  0  0  0  0  0  0  0  0
   -4.2181    1.9914    1.5700 C   0  0  0  0  0  0  0  0  0  0  0  0
   -4.3795    1.9191    0.0540 C   0  0  0  0  0  0  0  0  0  0  0  0
   -2.8699    1.4169    1.9957 C   0  0  0  0  0  0  0  0  0  0  0  0
   -3.2074    2.5922   -0.6524 C   0  0  0  0  0  0  0  0  0  0  0  0
   -1.7123    2.0800    1.2497 C   0  0  0  0  0  0  0  0  0  0  0  0
   -1.0185    1.5787   -1.1574 C   0  0  0  0  0  0  0  0  0  0  0  0
    0.2673    1.0341   -0.6774 C   0  0  0  0  0  0  0  0  0  0  0  0
    1.2806    1.8963   -0.5463 C   0  0  0  0  0  0  0  0  0  0  0  0
    2.6350    1.5548   -0.0881 C   0  0  0  0  0  0  0  0  0  0  0  0
   -0.7922   -1.1420   -0.5528 C   0  0  0  0  0  0  0  0  0  0  0  0
   -0.5590   -2.5699   -0.2135 C   0  0  0  0  0  0  0  0  0  0  0  0
    2.9253    1.5894    1.2679 C   0  0  0  0  0  0  0  0  0  0  0  0
    3.6015    1.2029   -1.0190 C   0  0  0  0  0  0  0  0  0  0  0  0
    4.2104    1.2648    1.7028 C   0  0  0  0  0  0  0  0  0  0  0  0
    4.8866    0.8782   -0.5842 C   0  0  0  0  0  0  0  0  0  0  0  0
   -1.6263   -3.3384    0.2017 C   0  0  0  0  0  0  0  0  0  0  0  0
    0.7174   -3.0801   -0.3244 C   0  0  0  0  0  0  0  0  0  0  0  0
    5.1909    0.9093    0.7768 C   0  0  0  0  0  0  0  0  0  0  0  0
   -1.4071   -4.6786    0.5206 C   0  0  0  0  0  0  0  0  0  0  0  0
    0.9367   -4.4203   -0.0057 C   0  0  0  0  0  0  0  0  0  0  0  0
   -0.1257   -5.2195    0.4168 C   0  0  0  0  0  0  0  0  0  0  0  0
  1 10  2  0
  2 14  2  0
  3  8  1  0
  3  9  1  0
  3 10  1  0
  4 11  1  0
  4 14  1  0
  5  6  1  0
  5  7  1  0
  6  8  1  0
  7  9  1  0
 10 11  1  0
 11 12  2  0
 12 13  1  0
 13 16  2  0
 13 17  1  0
 14 15  1  0
 15 20  2  0
 15 21  1  0
 16 18  1  0
 17 19  2  0
 18 22  2  0
 19 22  1  0
 20 23  1  0
 21 24  2  0
 23 25  2  0
 24 25  1  0
M  END
>  <PUBCHEM_COMPOUND_CID>  (1) 
38118

>  <PUBCHEM_CONFORMER_RMSD>  (1) 
0.8

>  <PUBCHEM_CONFORMER_DIVERSEORDER>  (1) 
1
13
8
9
10
11
5
6
4
12
7
2
3

>  <PUBCHEM_MMFF94_PARTIAL_CHARGES>  (1) 
34
1 -0.57
10 0.62
11 0.12
12 -0.18
13 0.03
14 0.54
15 0.09
16 -0.15
17 -0.15
18 -0.15
19 -0.15
2 -0.57
20 -0.15
21 -0.15
22 -0.15
23 -0.15
24 -0.15
25 -0.15
3 -0.66
36 0.15
37 0.37
38 0.15
39 0.15
4 -0.54
40 0.15
41 0.15
42 0.15
43 0.15
44 0.15
45 0.15
46 0.15
47 0.15
8 0.3
9 0.3

>  <PUBCHEM_EFFECTIVE_ROTOR_COUNT>  (1) 
7.2

>  <PUBCHEM_PHARMACOPHORE_FEATURES>  (1) 
6
1 1 acceptor
1 2 acceptor
1 4 donor
6 13 16 17 18 19 22 rings
6 15 20 21 23 24 25 rings
6 3 5 6 7 8 9 rings

>  <PUBCHEM_HEAVY_ATOM_COUNT>  (1) 
25

>  <PUBCHEM_ATOM_DEF_STEREO_COUNT>  (1) 
0

>  <PUBCHEM_ATOM_UDEF_STEREO_COUNT>  (1) 
0

>  <PUBCHEM_BOND_DEF_STEREO_COUNT>  (1) 
0

>  <PUBCHEM_BOND_UDEF_STEREO_COUNT>  (1) 
1

>  <PUBCHEM_ISOTOPIC_ATOM_COUNT>  (1) 
0

>  <PUBCHEM_COMPONENT_COUNT>  (1) 
1

>  <PUBCHEM_CACTVS_TAUTO_COUNT>  (1) 
2

>  <PUBCHEM_CONFORMER_ID>  (1) 
000094E600000001

>  <PUBCHEM_MMFF94_ENERGY>  (1) 
72.2424

>  <PUBCHEM_FEATURE_SELFOVERLAP>  (1) 
30.45

>  <PUBCHEM_SHAPE_FINGERPRINT>  (1) 
1100329 8 18196373611451459846
11070050 100 18057903380343654889
12160290 23 18128265681875254069
12549972 3 17775282816123383784
12553582 1 17329144084452103358
12788726 201 17831306364852467522
12839892 36 18334871527896421673
13004483 165 17834112326631241882
13052359 8 18338517546676146601
13140716 1 18267295448510807222
133893 2 17764561258438173389
138480 1 17473259877664543646
14866123 147 18410576214656852378
15230672 131 18335990767000409542
15927050 60 18341333284170213383
16728300 4 17895470431750079003
17868525 174 17041768058958291635
17980427 23 16332991497384429409
18915476 22 18046614608694145325
19591789 44 18337400331124903806
20028762 73 18270680991147605847
20600515 1 17327411171920949641
20602899 9 18119215532857856533
20642791 268 17266100896412600859
21033648 29 18341035334010815192
21120745 212 17616837851278839660
21796203 349 17260502191937091627
22956985 138 17900831452646477275
23419403 2 17610907781490770669
23559900 14 17391934556277870541
24893989 43 14436529003514664888
3027735 51 18340192090048165047
3091708 16 9482888112796661030
345986 75 17756974980515494570
5385378 56 18196097638333104377
58807428 26 18412263900221880176
59755656 520 18413669098005634604
6679774 75 17968948461936411810
79837 15 18410577322531360307
81228 2 18124868212346474244

>  <PUBCHEM_SHAPE_MULTIPOLES>  (1) 
492.79
7.77
6.45
1.55
7.41
13.23
-0.18
-8.43
-2.61
-4.42
-0.88
-0.27
-1.23
-0.03

>  <PUBCHEM_SHAPE_SELFOVERLAP>  (1) 
1057.345

>  <PUBCHEM_SHAPE_VOLUME>  (1) 
268.1

>  <PUBCHEM_COORDINATE_TYPE>  (1) 
2
5
10

$$$$
