38131
     RDKit          3D

 10 10  0  0  0  0  0  0  0  0999 V2000
   -1.7682   -1.0051   -0.3252 O   0  0  0  0  0  0  0  0  0  0  0  0
    1.9136    0.2792   -0.2868 N   0  0  0  0  0  0  0  0  0  0  0  0
    1.5475   -0.2601    1.0224 C   0  0  0  0  0  0  0  0  0  0  0  0
    0.2781   -1.1075    0.9303 C   0  0  0  0  0  0  0  0  0  0  0  0
   -0.8858   -0.3055    0.4048 C   0  0  0  0  0  0  0  0  0  0  0  0
    2.2010   -0.8059   -1.2243 C   0  0  0  0  0  0  0  0  0  0  0  0
    3.0666    1.1710   -0.1681 C   0  0  0  0  0  0  0  0  0  0  0  0
   -1.2127    0.9976    0.5301 C   0  0  0  0  0  0  0  0  0  0  0  0
   -2.4220    1.1412   -0.1911 C   0  0  0  0  0  0  0  0  0  0  0  0
   -2.7180   -0.1050   -0.6921 C   0  0  0  0  0  0  0  0  0  0  0  0
  1  5  1  0
  1 10  1  0
  2  3  1  0
  2  6  1  0
  2  7  1  0
  3  4  1  0
  4  5  1  0
  5  8  2  0
  8  9  1  0
  9 10  2  0
M  END
>  <PUBCHEM_COMPOUND_CID>  (1) 
38131

>  <PUBCHEM_CONFORMER_RMSD>  (1) 
0.6

>  <PUBCHEM_CONFORMER_DIVERSEORDER>  (1) 
5
2
7
10
3
6
1
9
8
4

>  <PUBCHEM_MMFF94_PARTIAL_CHARGES>  (1) 
13
1 -0.28
10 -0.01
2 -0.81
21 0.15
22 0.15
23 0.15
3 0.27
4 0.18
5 -0.04
6 0.27
7 0.27
8 -0.15
9 -0.15

>  <PUBCHEM_EFFECTIVE_ROTOR_COUNT>  (1) 
3

>  <PUBCHEM_PHARMACOPHORE_FEATURES>  (1) 
3
1 1 acceptor
1 2 cation
5 1 5 8 9 10 rings

>  <PUBCHEM_HEAVY_ATOM_COUNT>  (1) 
10

>  <PUBCHEM_ATOM_DEF_STEREO_COUNT>  (1) 
0

>  <PUBCHEM_ATOM_UDEF_STEREO_COUNT>  (1) 
0

>  <PUBCHEM_BOND_DEF_STEREO_COUNT>  (1) 
0

>  <PUBCHEM_BOND_UDEF_STEREO_COUNT>  (1) 
0

>  <PUBCHEM_ISOTOPIC_ATOM_COUNT>  (1) 
0

>  <PUBCHEM_COMPONENT_COUNT>  (1) 
1

>  <PUBCHEM_CACTVS_TAUTO_COUNT>  (1) 
1

>  <PUBCHEM_CONFORMER_ID>  (1) 
000094F300000005

>  <PUBCHEM_MMFF94_ENERGY>  (1) 
13.1982

>  <PUBCHEM_FEATURE_SELFOVERLAP>  (1) 
15.223

>  <PUBCHEM_SHAPE_FINGERPRINT>  (1) 
12897270 3 17917993914279994844
12932764 1 17968378952991973697
14390081 3 18114179730942570229
15310529 11 17561366175207058932
15775835 57 17894628149670516444
20361792 2 13686296859501421320
20653085 51 18268160776809346713
20711985 344 14188754930184167194
21028194 46 17530686502273075458
22802520 49 18268731440597852054
230 275 17676489440977200668
23552423 10 18194392304256249003
29004967 10 15123494930711394419
305870 269 17531236228301708938
3248919 1 17989484091397949746
369184 2 12107790726479045421

>  <PUBCHEM_SHAPE_MULTIPOLES>  (1) 
194.94
4.53
1.28
1.08
0.71
0.13
-0.05
1.25
-1.24
0.1
0.04
0.35
-0.23
-0.02

>  <PUBCHEM_SHAPE_SELFOVERLAP>  (1) 
389.207

>  <PUBCHEM_SHAPE_VOLUME>  (1) 
118.4

>  <PUBCHEM_COORDINATE_TYPE>  (1) 
2
5
10

$$$$
