38145
     RDKit          3D

 24 26  0  0  0  0  0  0  0  0999 V2000
    5.9417    2.1213   -0.1437 Cl  0  0  0  0  0  0  0  0  0  0  0  0
   -5.4531    1.3650   -0.8859 Cl  0  0  0  0  0  0  0  0  0  0  0  0
   -2.9243    2.8257    0.0026 O   0  0  0  0  0  0  0  0  0  0  0  0
   -2.6386   -3.6273    0.0790 O   0  0  0  0  0  0  0  0  0  0  0  0
   -0.7199    1.0589   -0.0593 N   0  0  0  0  0  0  0  0  0  0  0  0
    2.5090   -1.6132   -0.0164 N   0  0  0  0  0  0  0  0  0  0  0  0
    0.3749    0.1527   -0.0460 C   0  0  0  0  0  0  0  0  0  0  0  0
    0.1346   -1.2245   -0.0077 C   0  0  0  0  0  0  0  0  0  0  0  0
    1.6833    0.6461   -0.0694 C   0  0  0  0  0  0  0  0  0  0  0  0
    1.2468   -2.0831    0.0061 C   0  0  0  0  0  0  0  0  0  0  0  0
    2.7349   -0.2857   -0.0533 C   0  0  0  0  0  0  0  0  0  0  0  0
   -0.5869    2.4263    0.3164 C   0  0  0  0  0  0  0  0  0  0  0  0
   -1.1698   -1.7482    0.0168 C   0  0  0  0  0  0  0  0  0  0  0  0
    1.9539    2.0251   -0.1078 C   0  0  0  0  0  0  0  0  0  0  0  0
    1.0141   -3.4554    0.0442 C   0  0  0  0  0  0  0  0  0  0  0  0
   -1.8710    2.9359    0.9509 C   0  0  0  0  0  0  0  0  0  0  0  0
    4.0398    0.1994   -0.0765 C   0  0  0  0  0  0  0  0  0  0  0  0
   -1.3754   -3.1241    0.0547 C   0  0  0  0  0  0  0  0  0  0  0  0
   -0.2808   -3.9791    0.0684 C   0  0  0  0  0  0  0  0  0  0  0  0
    3.2674    2.4841   -0.1303 C   0  0  0  0  0  0  0  0  0  0  0  0
    4.3123    1.5692   -0.1146 C   0  0  0  0  0  0  0  0  0  0  0  0
   -4.1574    3.2881    0.5367 C   0  0  0  0  0  0  0  0  0  0  0  0
   -5.2635    3.0906   -0.4834 C   0  0  0  0  0  0  0  0  0  0  0  0
   -2.7721   -5.0479    0.1185 C   0  0  0  0  0  0  0  0  0  0  0  0
  1 21  1  0
  2 23  1  0
  3 16  1  0
  3 22  1  0
  4 18  1  0
  4 24  1  0
  5  7  1  0
  5 12  1  0
  6 10  2  0
  6 11  1  0
  7  8  2  0
  7  9  1  0
  8 10  1  0
  8 13  1  0
  9 11  2  0
  9 14  1  0
 10 15  1  0
 11 17  1  0
 12 16  1  0
 13 18  2  0
 14 20  2  0
 15 19  2  0
 17 21  2  0
 18 19  1  0
 20 21  1  0
 22 23  1  0
M  END
>  <PUBCHEM_COMPOUND_CID>  (1) 
38145

>  <PUBCHEM_CONFORMER_RMSD>  (1) 
0.8

>  <PUBCHEM_CONFORMER_DIVERSEORDER>  (1) 
2
23
20
14
12
21
1
11
19
9
15
5
29
27
3
18
10
17
26
6
24
7
16
25
22
8
28
13
4

>  <PUBCHEM_MMFF94_PARTIAL_CHARGES>  (1) 
29
1 -0.18
10 0.31
11 0.31
12 0.37
13 -0.15
14 -0.15
15 -0.15
16 0.28
17 -0.15
18 0.08
19 -0.15
2 -0.29
20 -0.15
21 0.18
22 0.28
23 0.29
24 0.28
25 0.4
28 0.15
29 0.15
3 -0.56
32 0.15
33 0.15
34 0.15
35 0.15
4 -0.36
5 -0.87
6 -0.62
7 0.1

>  <PUBCHEM_EFFECTIVE_ROTOR_COUNT>  (1) 
7

>  <PUBCHEM_PHARMACOPHORE_FEATURES>  (1) 
8
1 3 acceptor
1 4 acceptor
1 5 cation
1 5 donor
1 6 acceptor
6 6 7 8 9 10 11 rings
6 8 10 13 15 18 19 rings
6 9 11 14 17 20 21 rings

>  <PUBCHEM_HEAVY_ATOM_COUNT>  (1) 
24

>  <PUBCHEM_ATOM_DEF_STEREO_COUNT>  (1) 
0

>  <PUBCHEM_ATOM_UDEF_STEREO_COUNT>  (1) 
0

>  <PUBCHEM_BOND_DEF_STEREO_COUNT>  (1) 
0

>  <PUBCHEM_BOND_UDEF_STEREO_COUNT>  (1) 
0

>  <PUBCHEM_ISOTOPIC_ATOM_COUNT>  (1) 
0

>  <PUBCHEM_COMPONENT_COUNT>  (1) 
1

>  <PUBCHEM_CACTVS_TAUTO_COUNT>  (1) 
2

>  <PUBCHEM_CONFORMER_ID>  (1) 
0000950100000002

>  <PUBCHEM_MMFF94_ENERGY>  (1) 
112.9148

>  <PUBCHEM_FEATURE_SELFOVERLAP>  (1) 
40.656

>  <PUBCHEM_SHAPE_FINGERPRINT>  (1) 
10050765 1 18338800135083699564
10090160 65 18267017259158197953
10411042 1 17690845979018203874
10693767 8 17625820461829909430
10967382 1 17690003336667960530
1100329 8 18266739074352964634
12788726 201 18046904055324823058
13052359 8 18410856598342481321
13140716 1 18339071722111869106
13540713 4 18130796715705765716
13540713 5 18114740547405242256
13590594 115 17760655059003107323
1361 2 18337391531080175697
13692114 37 18271224084781219987
138480 1 17329713115477439009
14790565 3 18410576149910609101
14866123 147 18411141333842844066
15927050 60 18411703145450694246
16087824 20 18194970866938167163
16993438 75 18261678168775730307
17138139 8 17915994972598504869
19319366 153 18197766722938157245
19427546 62 18337393729871186201
19591789 44 18050579443455129102
20028762 73 17983566412828614863
20642791 105 18266454485467078736
21197605 99 18337685135502713163
21796203 349 17187039413195399283
2255824 54 17907581324237347217
23559900 14 17688867536877727857
23845131 108 18410286982747555185
23929065 36 18054772143369558896
283562 15 18119527884960911098
3091708 16 8980172713844198256
335352 9 17762339515196541726
3886686 26 18122310581756451154
4409770 3 18337673143516146409
5309563 4 17185876086953776055
5312544 6 18267020544813032013
59755656 520 18335698338949622372
6443956 14 17256252540255163381
9777508 108 18340763853132078936

>  <PUBCHEM_SHAPE_MULTIPOLES>  (1) 
475.95
9.66
6.87
0.71
0.72
6.74
0.01
-11.73
-1.66
8.17
0.6
0.35
-0.26
0.02

>  <PUBCHEM_SHAPE_SELFOVERLAP>  (1) 
1010.586

>  <PUBCHEM_SHAPE_VOLUME>  (1) 
269

>  <PUBCHEM_COORDINATE_TYPE>  (1) 
2
5
10

$$$$
