3815
     RDKit          3D

 24 29  0  0  0  0  0  0  0  0999 V2000
   -2.3973    3.2066   -0.0011 O   0  0  0  0  0  0  0  0  0  0  0  0
    1.5964   -1.9949   -0.0009 N   0  0  0  0  0  0  0  0  0  0  0  0
   -1.1882   -2.1421   -0.0013 N   0  0  0  0  0  0  0  0  0  0  0  0
   -0.1215    3.7798    0.0007 N   0  0  0  0  0  0  0  0  0  0  0  0
    0.7272    1.6600   -0.0004 C   0  0  0  0  0  0  0  0  0  0  0  0
    1.4038    0.4405   -0.0005 C   0  0  0  0  0  0  0  0  0  0  0  0
   -1.2585    0.3038   -0.0009 C   0  0  0  0  0  0  0  0  0  0  0  0
    0.8381   -0.8743   -0.0010 C   0  0  0  0  0  0  0  0  0  0  0  0
   -0.6681    1.5681   -0.0007 C   0  0  0  0  0  0  0  0  0  0  0  0
   -0.5570   -0.9471   -0.0012 C   0  0  0  0  0  0  0  0  0  0  0  0
    1.1546    3.0888    0.0008 C   0  0  0  0  0  0  0  0  0  0  0  0
    2.7980   -0.0148    0.0001 C   0  0  0  0  0  0  0  0  0  0  0  0
   -2.5992   -0.3019   -0.0004 C   0  0  0  0  0  0  0  0  0  0  0  0
    2.8715   -1.4468   -0.0003 C   0  0  0  0  0  0  0  0  0  0  0  0
   -2.5140   -1.7356   -0.0004 C   0  0  0  0  0  0  0  0  0  0  0  0
   -1.2161    2.9194   -0.0001 C   0  0  0  0  0  0  0  0  0  0  0  0
    4.0158    0.7059    0.0009 C   0  0  0  0  0  0  0  0  0  0  0  0
   -3.8961    0.2663    0.0004 C   0  0  0  0  0  0  0  0  0  0  0  0
    4.1032   -2.1181    0.0002 C   0  0  0  0  0  0  0  0  0  0  0  0
   -3.6608   -2.5443    0.0007 C   0  0  0  0  0  0  0  0  0  0  0  0
    5.2377    0.0262    0.0012 C   0  0  0  0  0  0  0  0  0  0  0  0
   -5.0330   -0.5494    0.0016 C   0  0  0  0  0  0  0  0  0  0  0  0
    5.2783   -1.3633    0.0009 C   0  0  0  0  0  0  0  0  0  0  0  0
   -4.9151   -1.9329    0.0019 C   0  0  0  0  0  0  0  0  0  0  0  0
  1 16  2  0
  2  8  1  0
  2 14  1  0
  3 10  1  0
  3 15  1  0
  4 11  1  0
  4 16  1  0
  5  6  1  0
  5  9  2  0
  5 11  1  0
  6  8  2  0
  6 12  1  0
  7  9  1  0
  7 10  2  0
  7 13  1  0
  8 10  1  0
  9 16  1  0
 12 14  2  0
 12 17  1  0
 13 15  2  0
 13 18  1  0
 14 19  1  0
 15 20  1  0
 17 21  2  0
 18 22  2  0
 19 23  2  0
 20 24  2  0
 21 23  1  0
 22 24  1  0
M  END
>  <PUBCHEM_COMPOUND_CID>  (1) 
3815

>  <PUBCHEM_CONFORMER_RMSD>  (1) 
0.6

>  <PUBCHEM_CONFORMER_DIVERSEORDER>  (1) 
1

>  <PUBCHEM_MMFF94_PARTIAL_CHARGES>  (1) 
33
1 -0.57
10 -0.05
11 0.44
14 -0.15
15 -0.15
16 0.54
17 -0.15
18 -0.15
19 -0.15
2 -0.05
20 -0.15
21 -0.15
22 -0.15
23 -0.15
24 -0.15
27 0.27
28 0.27
29 0.37
3 -0.05
30 0.15
31 0.15
32 0.15
33 0.15
34 0.15
35 0.15
36 0.15
37 0.15
4 -0.73
5 -0.14
6 -0.01
7 -0.01
8 -0.05
9 0.09

>  <PUBCHEM_EFFECTIVE_ROTOR_COUNT>  (1) 
0.4

>  <PUBCHEM_PHARMACOPHORE_FEATURES>  (1) 
12
1 1 acceptor
1 2 cation
1 2 donor
1 3 cation
1 3 donor
1 4 donor
5 2 6 8 12 14 rings
5 3 7 10 13 15 rings
5 4 5 9 11 16 rings
6 12 14 17 19 21 23 rings
6 13 15 18 20 22 24 rings
6 5 6 7 8 9 10 rings

>  <PUBCHEM_HEAVY_ATOM_COUNT>  (1) 
24

>  <PUBCHEM_ATOM_DEF_STEREO_COUNT>  (1) 
0

>  <PUBCHEM_ATOM_UDEF_STEREO_COUNT>  (1) 
0

>  <PUBCHEM_BOND_DEF_STEREO_COUNT>  (1) 
0

>  <PUBCHEM_BOND_UDEF_STEREO_COUNT>  (1) 
0

>  <PUBCHEM_ISOTOPIC_ATOM_COUNT>  (1) 
0

>  <PUBCHEM_COMPONENT_COUNT>  (1) 
1

>  <PUBCHEM_CACTVS_TAUTO_COUNT>  (1) 
15

>  <PUBCHEM_CONFORMER_ID>  (1) 
00000EE700000001

>  <PUBCHEM_MMFF94_ENERGY>  (1) 
89.0642

>  <PUBCHEM_FEATURE_SELFOVERLAP>  (1) 
61.366

>  <PUBCHEM_SHAPE_FINGERPRINT>  (1) 
10050765 1 18194401096845581554
10319926 262 18052233139562516314
10369192 42 16984590001344428944
10411042 1 18410575110438183427
10616163 171 18339643322245475390
10688039 33 18186522107446114893
10906281 52 18266480800198645735
10967382 1 18122625212836063909
1100329 8 18265897041339847419
11045515 52 18187081754295528517
11265709 11 18410296925406402033
11578080 2 17488439992795541329
12107183 9 17542499440949863410
12166972 35 17749111101929105318
12293681 4 18188217584214252003
12403259 226 18341326700628413328
12516196 113 18411417344951247467
12553582 1 18338784693431201542
12788726 201 18261952947101880570
13004483 165 18338506469998006602
13140716 1 18194401323333720657
13544653 18 18334019410089012010
138480 1 15168263311926167169
13862211 1 18410852178815910838
14178342 30 17975394847096399650
14787075 74 18115027519127591514
14790565 3 17691973661157704593
14866123 147 18196093235975106673
15042514 8 18266458694254875560
15131766 46 14906457971851480658
15196674 1 18410573998099942374
15352361 1 18410855481661260911
16087824 20 18266179431973221845
17357779 13 18338500998193633301
17492 89 18266176120173660962
17980427 23 17489601060490513753
19591789 44 18411136922367832568
20510252 161 18270117890479821776
20775438 99 17119394559332086967
21029758 11 18409728490932919443
21049683 271 18044667626671861709
21236236 1 18341612551564998665
21267235 1 18410582798509316710
21478907 32 18410011000848867010
21641784 216 18041858250188476380
221490 88 18119253019675534107
22182313 1 18266715022029977576
2297311 6 18340779165165099862
23352939 185 18272376394626745024
23366157 5 17826509156528042125
23402539 116 18342170059837145119
23557571 272 18200318715105968430
23558518 356 18046074765537896130
23559900 14 18340198704123305161
23845131 108 17404032422552370377
3004659 81 18113899368958644190
3091708 16 9136931185790389632
335352 9 18410573986069310397
3421961 26 18268147741525581089
34934 24 18410568496194231595
350125 39 18411981365216428992
352729 6 17835513826010024973
4409770 3 18117831110754416253
5104073 3 18412262830917611546
5283173 99 18114733829095131997
6443956 14 18336828713842862132
68521 5 18410014308126639788
7164475 11 18337113367728244766
7364860 26 18123188180249072193
8863177 126 17752218442201986731
9709674 26 18126566709130624518

>  <PUBCHEM_SHAPE_MULTIPOLES>  (1) 
473.1
9.78
3.75
0.6
2.21
3.36
0
-6.73
0.01
-1.18
0
0.01
-0.01
0

>  <PUBCHEM_SHAPE_SELFOVERLAP>  (1) 
1114.838

>  <PUBCHEM_SHAPE_VOLUME>  (1) 
238.5

>  <PUBCHEM_COORDINATE_TYPE>  (1) 
2
5
10

$$$$
