38153
     RDKit          3D

 25 27  0  0  0  0  0  0  0  0999 V2000
    6.0042    3.5243   -0.2395 Cl  0  0  0  0  0  0  0  0  0  0  0  0
   -8.3969    2.2124    0.6618 Cl  0  0  0  0  0  0  0  0  0  0  0  0
   -5.1988    1.7058   -0.2079 S   0  0  0  0  0  0  0  0  0  0  0  0
   -0.9400   -3.9808    0.1662 O   0  0  0  0  0  0  0  0  0  0  0  0
   -0.1446    0.8216    0.5222 N   0  0  0  0  0  0  0  0  0  0  0  0
    3.5643   -0.9271   -0.2831 N   0  0  0  0  0  0  0  0  0  0  0  0
    0.0776   -1.8973    0.2068 N   0  0  0  0  0  0  0  0  0  0  0  0
    1.1215    0.2344    0.2485 C   0  0  0  0  0  0  0  0  0  0  0  0
   -1.3724    0.1570    0.2430 C   0  0  0  0  0  0  0  0  0  0  0  0
    2.2615    1.0402    0.1383 C   0  0  0  0  0  0  0  0  0  0  0  0
   -2.5254    1.1567    0.1695 C   0  0  0  0  0  0  0  0  0  0  0  0
    1.1892   -1.1427    0.0962 C   0  0  0  0  0  0  0  0  0  0  0  0
    3.4830    0.4067   -0.1330 C   0  0  0  0  0  0  0  0  0  0  0  0
    2.4534   -1.6828   -0.1728 C   0  0  0  0  0  0  0  0  0  0  0  0
   -3.8611    0.4790   -0.1342 C   0  0  0  0  0  0  0  0  0  0  0  0
    2.2027    2.4367    0.2913 C   0  0  0  0  0  0  0  0  0  0  0  0
    4.6236    1.1980   -0.2446 C   0  0  0  0  0  0  0  0  0  0  0  0
    2.5278   -3.0620   -0.3265 C   0  0  0  0  0  0  0  0  0  0  0  0
    3.3563    3.2067    0.1752 C   0  0  0  0  0  0  0  0  0  0  0  0
    4.5694    2.5856   -0.0933 C   0  0  0  0  0  0  0  0  0  0  0  0
    0.2003   -3.2319    0.0496 C   0  0  0  0  0  0  0  0  0  0  0  0
    1.3964   -3.8605   -0.2169 C   0  0  0  0  0  0  0  0  0  0  0  0
   -6.5657    0.5806   -0.5708 C   0  0  0  0  0  0  0  0  0  0  0  0
   -7.8812    1.3150   -0.7880 C   0  0  0  0  0  0  0  0  0  0  0  0
   -2.1449   -3.2755    0.4421 C   0  0  0  0  0  0  0  0  0  0  0  0
  1 20  1  0
  2 24  1  0
  3 15  1  0
  3 23  1  0
  4 21  1  0
  4 25  1  0
  5  8  1  0
  5  9  1  0
  6 13  2  0
  6 14  1  0
  7 12  1  0
  7 21  2  0
  8 10  2  0
  8 12  1  0
  9 11  1  0
 10 13  1  0
 10 16  1  0
 11 15  1  0
 12 14  2  0
 13 17  1  0
 14 18  1  0
 16 19  2  0
 17 20  2  0
 18 22  2  0
 19 20  1  0
 21 22  1  0
 23 24  1  0
M  END
>  <PUBCHEM_COMPOUND_CID>  (1) 
38153

>  <PUBCHEM_CONFORMER_RMSD>  (1) 
0.8

>  <PUBCHEM_CONFORMER_DIVERSEORDER>  (1) 
1
36
49
51
32
56
57
20
61
52
29
35
62
12
66
39
31
15
24
55
65
63
11
9
54
25
23
59
2
26
18
8
50
5
22
19
46
40
27
6
7
33
42
10
13
45
64
47
38
58
41
14
28
16
44
53
3
43
60
4
21
17
34
48
37
30

>  <PUBCHEM_MMFF94_PARTIAL_CHARGES>  (1) 
29
1 -0.18
12 0.31
13 0.31
14 0.31
15 0.23
16 -0.15
17 -0.15
18 -0.15
19 -0.15
2 -0.29
20 0.18
21 0.39
22 -0.15
23 0.23
24 0.29
25 0.28
3 -0.46
30 0.4
33 0.15
34 0.15
35 0.15
36 0.15
37 0.15
4 -0.36
5 -0.87
6 -0.62
7 -0.62
8 0.1
9 0.37

>  <PUBCHEM_EFFECTIVE_ROTOR_COUNT>  (1) 
8

>  <PUBCHEM_PHARMACOPHORE_FEATURES>  (1) 
7
1 5 cation
1 5 donor
1 6 acceptor
4 3 11 15 23 hydrophobe
6 10 13 16 17 19 20 rings
6 6 8 10 12 13 14 rings
6 7 12 14 18 21 22 rings

>  <PUBCHEM_HEAVY_ATOM_COUNT>  (1) 
25

>  <PUBCHEM_ATOM_DEF_STEREO_COUNT>  (1) 
0

>  <PUBCHEM_ATOM_UDEF_STEREO_COUNT>  (1) 
0

>  <PUBCHEM_BOND_DEF_STEREO_COUNT>  (1) 
0

>  <PUBCHEM_BOND_UDEF_STEREO_COUNT>  (1) 
0

>  <PUBCHEM_ISOTOPIC_ATOM_COUNT>  (1) 
0

>  <PUBCHEM_COMPONENT_COUNT>  (1) 
1

>  <PUBCHEM_CACTVS_TAUTO_COUNT>  (1) 
2

>  <PUBCHEM_CONFORMER_ID>  (1) 
0000950900000001

>  <PUBCHEM_MMFF94_ENERGY>  (1) 
89.5872

>  <PUBCHEM_FEATURE_SELFOVERLAP>  (1) 
35.587

>  <PUBCHEM_SHAPE_FINGERPRINT>  (1) 
10165383 225 18260836990545507668
10411042 1 17762619491166576534
10595046 47 18343017762745429333
10693767 8 17915465995762737166
10835480 77 18407758132675430609
1100329 8 18410292480970416842
11135609 187 18412543228374767921
12107183 9 18335125506956629888
12730499 353 18408326566726803281
12788726 201 17758669341229957090
13140716 1 18410007763403855746
13533116 47 18271803463823598009
1361 2 18408884040755541477
138480 1 17978793402766503746
14790565 3 18049728717275100445
15483637 11 18266177408964432635
16728300 4 17245237749718600042
16993427 108 17174037722367484298
16993438 75 18190182485230711907
17844677 252 18196094344541522477
19427546 62 18409167740108274669
20157964 124 18410855439197111997
20554085 129 17987783216225714080
20645477 70 18263640663449272499
21049683 118 18194094512524448728
21197605 99 18410859902058905915
23081809 10 17703217431384532717
23516275 137 17345495755351197575
23845131 108 18334576871338499603
255183 451 17770506330578903095
335352 9 18411140217451559878
350125 39 17907304608828329104
4073 2 18335143103411072563
44555599 121 17985269574322288713
6025842 7 18412260597655617869
6327066 14 18264208178842880916

>  <PUBCHEM_SHAPE_MULTIPOLES>  (1) 
501.26
16.38
5.38
0.72
40.85
4.32
-0.01
-21.05
-1.89
-5.1
0.12
0.44
-0.09
0.11

>  <PUBCHEM_SHAPE_SELFOVERLAP>  (1) 
1040.664

>  <PUBCHEM_SHAPE_VOLUME>  (1) 
291

>  <PUBCHEM_COORDINATE_TYPE>  (1) 
2
5
10

$$$$
