3818
     RDKit          3D

 23 24  0  0  1  0  0  0  0  0999 V2000
   -3.3274   -1.2070   -2.0687 O   0  0  0  0  0  0  0  0  0  0  0  0
    5.3712    1.4963   -1.2309 O   0  0  0  0  0  0  0  0  0  0  0  0
    6.4538    0.6791    1.1953 O   0  0  0  0  0  0  0  0  0  0  0  0
   -7.8022    1.7980    1.1104 O   0  0  0  0  0  0  0  0  0  0  0  0
   -0.8511   -1.3357   -0.6027 N   0  0  0  0  0  0  0  0  0  0  0  0
   -1.9993   -0.5601   -0.1392 C   0  0  0  0  0  0  0  0  0  0  0  0
    0.3944   -0.7380   -0.1458 C   0  0  0  0  0  0  0  0  0  0  0  0
   -3.3285   -1.1632   -0.6355 C   0  0  0  0  0  0  0  0  0  0  0  0
    1.5995   -1.5438   -0.6321 C   0  0  0  0  0  0  0  0  0  0  0  0
    2.8965   -0.9472   -0.1464 C   0  0  0  0  0  0  0  0  0  0  0  0
   -4.5107   -0.3805   -0.1736 C   0  0  0  0  0  0  0  0  0  0  0  0
    3.5392    0.0069   -0.9207 C   0  0  0  0  0  0  0  0  0  0  0  0
    3.4255   -1.3636    1.0658 C   0  0  0  0  0  0  0  0  0  0  0  0
   -5.5077   -1.0012    0.5789 C   0  0  0  0  0  0  0  0  0  0  0  0
   -4.6199    0.9725   -0.4952 C   0  0  0  0  0  0  0  0  0  0  0  0
    4.7394    0.5579   -0.4718 C   0  0  0  0  0  0  0  0  0  0  0  0
    4.6256   -0.8127    1.5147 C   0  0  0  0  0  0  0  0  0  0  0  0
    5.2826    0.1482    0.7459 C   0  0  0  0  0  0  0  0  0  0  0  0
   -6.6139   -0.2688    1.0099 C   0  0  0  0  0  0  0  0  0  0  0  0
   -5.7260    1.7047   -0.0640 C   0  0  0  0  0  0  0  0  0  0  0  0
   -6.7230    1.0842    0.6885 C   0  0  0  0  0  0  0  0  0  0  0  0
    5.0261    2.8600   -0.9954 C   0  0  0  0  0  0  0  0  0  0  0  0
    7.6560    0.0140    0.8127 C   0  0  0  0  0  0  0  0  0  0  0  0
  1  8  1  0
  2 16  1  0
  2 22  1  0
  3 18  1  0
  3 23  1  0
  4 21  1  0
  5  6  1  0
  5  7  1  0
  6  8  1  0
  7  9  1  0
  8 11  1  0
  9 10  1  0
 10 12  2  0
 10 13  1  0
 11 14  2  0
 11 15  1  0
 12 16  1  0
 13 17  2  0
 14 19  1  0
 15 20  2  0
 16 18  2  0
 17 18  1  0
 19 21  2  0
 20 21  1  0
M  END
>  <PUBCHEM_COMPOUND_CID>  (1) 
3818

>  <PUBCHEM_CONFORMER_RMSD>  (1) 
0.8

>  <PUBCHEM_CONFORMER_DIVERSEORDER>  (1) 
1
171
34
98
201
179
109
70
95
58
203
31
101
229
38
177
225
235
198
51
16
37
104
241
194
156
66
248
244
246
254
163
151
115
5
86
250
15
44
39
49
221
119
25
74
14
169
232
4
223
11
247
116
83
153
204
110
189
87
140
23
35
211
253
164
7
54
210
118
215
219
141
123
2
13
67
233
17
184
226
94
26
127
161
227
43
30
124
145
157
6
174
214
59
126
202
93
146
89
199
132
191
239
165
68
20
106
243
45
53
29
143
3
150
46
208
170
32
249
159
24
148
142
256
56
72
224
162
168
108
238
113
78
114
155
135
216
120
236
47
206
139
144
205
97
50
255
195
121
217
69
85
131
8
63
28
61
42
183
130
55
228
172
180
134
75
218
138
178
166
160
71
88
175
133
10
105
136
196
19
213
52
230
200
36
122
92
182
152
82
240
33
209
96
187
99
137
100
167
79
242
40
251
192
186
21
73
22
176
112
220
27
57
18
128
207
90
117
258
91
102
231
48
80
107
41
173
234
125
245
257
9
103
222
193
185
129
237
181
77
76
154
149
158
65
60
252
62
147
64
81
197
190
84
12
188
212
111

>  <PUBCHEM_MMFF94_PARTIAL_CHARGES>  (1) 
33
1 -0.68
10 -0.14
11 -0.14
12 -0.15
13 -0.15
14 -0.15
15 -0.15
16 0.08
17 -0.15
18 0.08
19 -0.15
2 -0.36
20 -0.15
21 0.08
22 0.28
23 0.28
3 -0.36
31 0.36
32 0.15
33 0.15
34 0.15
35 0.15
36 0.15
37 0.4
38 0.15
39 0.15
4 -0.53
43 0.45
5 -0.9
6 0.27
7 0.27
8 0.42
9 0.14

>  <PUBCHEM_EFFECTIVE_ROTOR_COUNT>  (1) 
8

>  <PUBCHEM_PHARMACOPHORE_FEATURES>  (1) 
9
1 1 acceptor
1 1 donor
1 2 acceptor
1 3 acceptor
1 4 donor
1 5 cation
1 5 donor
6 10 12 13 16 17 18 rings
6 11 14 15 19 20 21 rings

>  <PUBCHEM_HEAVY_ATOM_COUNT>  (1) 
23

>  <PUBCHEM_ATOM_DEF_STEREO_COUNT>  (1) 
0

>  <PUBCHEM_ATOM_UDEF_STEREO_COUNT>  (1) 
1

>  <PUBCHEM_BOND_DEF_STEREO_COUNT>  (1) 
0

>  <PUBCHEM_BOND_UDEF_STEREO_COUNT>  (1) 
0

>  <PUBCHEM_ISOTOPIC_ATOM_COUNT>  (1) 
0

>  <PUBCHEM_COMPONENT_COUNT>  (1) 
1

>  <PUBCHEM_CACTVS_TAUTO_COUNT>  (1) 
2

>  <PUBCHEM_CONFORMER_ID>  (1) 
00000EEA00000001

>  <PUBCHEM_MMFF94_ENERGY>  (1) 
72.409

>  <PUBCHEM_FEATURE_SELFOVERLAP>  (1) 
45.678

>  <PUBCHEM_SHAPE_FINGERPRINT>  (1) 
10 15 18187653492442626849
11524674 6 13912330084201601777
12596602 18 17822010904620076857
12616971 3 18335692854139137798
13167372 99 18408602561314746652
13533116 47 17167859725797331610
13668630 136 10665223735658901586
13685833 64 13551191074272939642
14251740 57 11819532819988569112
14251764 18 18113337530858212759
14251764 75 18044102482502232004
14528608 73 13686291370707433199
14849402 71 17604154834803270740
15183329 4 18343867723397743569
15188451 53 12901545749935337031
15348495 7 17603871134384166683
15419008 145 18114171987755462688
15716309 27 14996286916262369771
16110190 28 18407479964432992221
16989713 51 17273970436657833255
17844677 252 14562529561424053783
18222031 100 7997965782312119023
20281389 69 18201718431931152339
20567600 247 9799696995530883308
21150785 3 13901902319574843961
22061861 79 12967133804332632785
221357 26 14045745915599927498
2215653 11 13901911115335745270
23081809 10 18130777950318533415
23559900 14 14764339470378413155
29717793 49 12679467477867665654
300161 21 17704351065419647783
312425 54 16805606932760720171
3178227 256 17385999577874860626
3663271 9 18040155128220361643
4340502 62 17313103060042832962
465052 167 12035451623105045618
5104073 3 17531803696930107938
5718773 13 12613338494378615521
960060 61 12751518487641737582

>  <PUBCHEM_SHAPE_MULTIPOLES>  (1) 
444.87
23.83
1.96
1.33
9.57
1.26
0.09
10.14
-8.52
-0.68
0.33
-0.24
-0.12
-2.04

>  <PUBCHEM_SHAPE_SELFOVERLAP>  (1) 
926.724

>  <PUBCHEM_SHAPE_VOLUME>  (1) 
254.1

>  <PUBCHEM_COORDINATE_TYPE>  (1) 
2
5
10

$$$$
