38183
     RDKit          3D

 25 26  0  0  1  0  0  0  0  0999 V2000
    0.9035    0.6154    1.9946 O   0  0  0  0  0  0  0  0  0  0  0  0
   -4.0825   -0.1719   -0.1448 N   0  0  0  0  0  0  0  0  0  0  0  0
   -2.9562   -1.0232    0.3051 C   0  0  0  0  0  0  0  0  0  0  0  0
   -5.4279   -0.7635    0.3004 C   0  0  0  0  0  0  0  0  0  0  0  0
   -4.0997   -0.0513   -1.6757 C   0  0  0  0  0  0  0  0  0  0  0  0
   -3.9680    1.2426    0.4421 C   0  0  0  0  0  0  0  0  0  0  0  0
   -1.6236   -0.4313   -0.1396 C   0  0  0  0  0  0  0  0  0  0  0  0
   -0.4128   -1.2732    0.2877 C   0  0  0  0  0  0  0  0  0  0  0  0
   -5.4730   -0.8169    1.8119 C   0  0  0  0  0  0  0  0  0  0  0  0
   -4.2121   -1.4326   -2.2831 C   0  0  0  0  0  0  0  0  0  0  0  0
   -5.1556    2.0659   -0.0065 C   0  0  0  0  0  0  0  0  0  0  0  0
    0.9399   -0.6228   -0.0913 C   0  0  0  0  0  0  0  0  0  0  0  0
    2.0827   -1.6221   -0.0344 C   0  0  0  0  0  0  0  0  0  0  0  0
    1.2242    0.5905    0.8073 C   0  0  0  0  0  0  0  0  0  0  0  0
    2.3663   -2.4210   -1.1422 C   0  0  0  0  0  0  0  0  0  0  0  0
    2.8488   -1.7403    1.1253 C   0  0  0  0  0  0  0  0  0  0  0  0
    1.9308    1.7758    0.2429 C   0  0  0  0  0  0  0  0  0  0  0  0
    3.4158   -3.3385   -1.0901 C   0  0  0  0  0  0  0  0  0  0  0  0
    3.8984   -2.6577    1.1772 C   0  0  0  0  0  0  0  0  0  0  0  0
    2.8513    1.6114   -0.7923 C   0  0  0  0  0  0  0  0  0  0  0  0
    1.6711    3.0493    0.7495 C   0  0  0  0  0  0  0  0  0  0  0  0
    4.1817   -3.4568    0.0694 C   0  0  0  0  0  0  0  0  0  0  0  0
    3.5122    2.7204   -1.3206 C   0  0  0  0  0  0  0  0  0  0  0  0
    2.3321    4.1582    0.2210 C   0  0  0  0  0  0  0  0  0  0  0  0
    3.2526    3.9937   -0.8140 C   0  0  0  0  0  0  0  0  0  0  0  0
  1 14  2  0
  2  3  1  0
  2  4  1  0
  2  5  1  0
  2  6  1  0
  3  7  1  0
  4  9  1  0
  5 10  1  0
  6 11  1  0
  7  8  1  0
  8 12  1  0
 12 13  1  0
 12 14  1  0
 13 15  2  0
 13 16  1  0
 14 17  1  0
 15 18  1  0
 16 19  2  0
 17 20  2  0
 17 21  1  0
 18 22  2  0
 19 22  1  0
 20 23  1  0
 21 24  2  0
 23 25  2  0
 24 25  1  0
M  CHG  1   2   1
M  END
>  <PUBCHEM_COMPOUND_CID>  (1) 
38183

>  <PUBCHEM_CONFORMER_RMSD>  (1) 
1

>  <PUBCHEM_CONFORMER_DIVERSEORDER>  (1) 
1
109
102
68
61
25
119
77
75
31
113
112
24
12
103
110
41
66
4
89
63
80
79
91
14
22
115
84
87
62
83
90
20
39
100
92
74
49
13
48
65
104
72
38
10
47
106
33
114
96
59
51
116
67
15
81
27
70
16
2
76
121
56
8
26
86
5
40
71
50
120
9
69
11
101
36
108
45
82
88
7
23
58
98
73
28
6
107
30
85
43
53
117
52
19
78
21
94
99
32
37
46
3
118
55
64
35
42
105
111
97
29
44
93
95
60
17
18
34
57
54

>  <PUBCHEM_MMFF94_PARTIAL_CHARGES>  (1) 
30
1 -0.57
12 0.2
13 -0.14
14 0.42
15 -0.15
16 -0.15
17 0.09
18 -0.15
19 -0.15
2 -1.01
20 -0.15
21 -0.15
22 -0.15
23 -0.15
24 -0.15
25 -0.15
3 0.5
4 0.5
48 0.15
49 0.15
5 0.5
50 0.15
51 0.15
52 0.15
53 0.15
54 0.15
55 0.15
56 0.15
57 0.15
6 0.5

>  <PUBCHEM_EFFECTIVE_ROTOR_COUNT>  (1) 
10

>  <PUBCHEM_PHARMACOPHORE_FEATURES>  (1) 
4
1 1 acceptor
1 2 cation
6 13 15 16 18 19 22 rings
6 17 20 21 23 24 25 rings

>  <PUBCHEM_HEAVY_ATOM_COUNT>  (1) 
25

>  <PUBCHEM_ATOM_DEF_STEREO_COUNT>  (1) 
0

>  <PUBCHEM_ATOM_UDEF_STEREO_COUNT>  (1) 
1

>  <PUBCHEM_BOND_DEF_STEREO_COUNT>  (1) 
0

>  <PUBCHEM_BOND_UDEF_STEREO_COUNT>  (1) 
0

>  <PUBCHEM_ISOTOPIC_ATOM_COUNT>  (1) 
0

>  <PUBCHEM_COMPONENT_COUNT>  (1) 
1

>  <PUBCHEM_CACTVS_TAUTO_COUNT>  (1) 
2

>  <PUBCHEM_CONFORMER_ID>  (1) 
0000952700000001

>  <PUBCHEM_MMFF94_ENERGY>  (1) 
88.5246

>  <PUBCHEM_FEATURE_SELFOVERLAP>  (1) 
20.297

>  <PUBCHEM_SHAPE_FINGERPRINT>  (1) 
10369192 42 17680441235928130260
10721379 63 18339096933854583668
10940486 97 18131058312613904118
11488393 25 18261099773698107452
11578080 2 16953137259581307448
12293681 160 17628657528637774832
12730499 353 18192727845414688251
12788726 201 17684092375021139050
13004483 165 18049714119235766546
13009979 54 17915751885406197448
13533116 47 18409728495961096751
13590594 115 18120379761105888024
13899415 180 18194669389612787926
13955234 65 18337114561191154538
14556957 393 17902544522576254734
15081414 286 18410853235883702960
15163728 17 17826817002920702300
15664445 248 18265903454227420478
15842332 3 17846212310957211999
16991981 162 16675874777773046676
17539 30 17691682286776384918
17818456 19 17630891499788291945
17844677 252 18336553724915640939
1813 80 18198627635926166602
18785283 64 18335703875014416082
20739085 24 18270673178512507618
21304303 282 16974454818928364108
21860390 5 18412821365807909782
23559900 14 18338508656526406355
24771293 8 18200859743979204546
312423 11 18272083916476785919
340366 18 18129373813871476295
5081480 168 18260549970175050941
5281201 14 18408604743147466583
57724786 102 18409733941805782145
5912855 24 18127129908588378991
5969126 39 18051691045769895110
6086070 43 17971729113957368855
6823239 73 16732983115619357991
7495541 125 18041287581915332483
81228 2 17835531418781807642
9841814 1 18187354394809309146
9925002 15 17834699114418332748
9971528 1 18200582588874611986
9981440 41 17978500159236329608

>  <PUBCHEM_SHAPE_MULTIPOLES>  (1) 
503.64
11.59
5.12
1.6
17.38
3.27
0.25
-2.4
0.39
-9.84
0.72
0.94
-0.45
-0.95

>  <PUBCHEM_SHAPE_SELFOVERLAP>  (1) 
1034.591

>  <PUBCHEM_SHAPE_VOLUME>  (1) 
291

>  <PUBCHEM_COORDINATE_TYPE>  (1) 
2
5
10

$$$$
