38191
     RDKit          3D

 27 29  0  0  0  0  0  0  0  0999 V2000
   -2.3859    5.0188    0.7313 Cl  0  0  0  0  0  0  0  0  0  0  0  0
   10.0149    0.1243    0.5975 Cl  0  0  0  0  0  0  0  0  0  0  0  0
   -4.1113   -0.3746   -0.8737 O   0  0  0  0  0  0  0  0  0  0  0  0
    0.2178    0.9105    1.3598 O   0  0  0  0  0  0  0  0  0  0  0  0
    3.5866   -0.1443   -1.5762 O   0  0  0  0  0  0  0  0  0  0  0  0
   -1.1185    0.1429   -0.4119 N   0  0  0  0  0  0  0  0  0  0  0  0
    1.1758   -0.4150   -0.2447 N   0  0  0  0  0  0  0  0  0  0  0  0
    2.3885   -0.3753    0.4003 N   0  0  0  0  0  0  0  0  0  0  0  0
   -1.4173   -1.0521   -1.2178 C   0  0  0  0  0  0  0  0  0  0  0  0
   -2.3490   -1.9466   -0.4583 C   0  0  0  0  0  0  0  0  0  0  0  0
   -2.1913    1.1064   -0.2330 C   0  0  0  0  0  0  0  0  0  0  0  0
   -3.6636   -1.5220   -0.2718 C   0  0  0  0  0  0  0  0  0  0  0  0
   -3.5561    0.8251   -0.4725 C   0  0  0  0  0  0  0  0  0  0  0  0
    6.0353   -0.0792   -0.3752 C   0  0  0  0  0  0  0  0  0  0  0  0
    0.1011    0.2719    0.3086 C   0  0  0  0  0  0  0  0  0  0  0  0
   -1.9301   -3.1493    0.1175 C   0  0  0  0  0  0  0  0  0  0  0  0
    4.7918   -0.2332    0.4969 C   0  0  0  0  0  0  0  0  0  0  0  0
   -1.8684    2.4305    0.1353 C   0  0  0  0  0  0  0  0  0  0  0  0
    7.3070   -0.0319    0.4724 C   0  0  0  0  0  0  0  0  0  0  0  0
   -4.5753   -2.3030    0.4368 C   0  0  0  0  0  0  0  0  0  0  0  0
   -4.5283    1.8348   -0.3401 C   0  0  0  0  0  0  0  0  0  0  0  0
   -2.8328   -3.9265    0.8457 C   0  0  0  0  0  0  0  0  0  0  0  0
   -2.8446    3.4211    0.2816 C   0  0  0  0  0  0  0  0  0  0  0  0
    3.5385   -0.2376   -0.3514 C   0  0  0  0  0  0  0  0  0  0  0  0
   -4.1539   -3.5051    1.0025 C   0  0  0  0  0  0  0  0  0  0  0  0
   -4.1769    3.1228    0.0454 C   0  0  0  0  0  0  0  0  0  0  0  0
    8.5461    0.0866   -0.4049 C   0  0  0  0  0  0  0  0  0  0  0  0
  1 23  1  0
  2 27  1  0
  3 12  1  0
  3 13  1  0
  4 15  2  0
  5 24  2  0
  6  9  1  0
  6 11  1  0
  6 15  1  0
  7  8  1  0
  7 15  1  0
  8 24  1  0
  9 10  1  0
 10 12  2  0
 10 16  1  0
 11 13  2  0
 11 18  1  0
 12 20  1  0
 13 21  1  0
 14 17  1  0
 14 19  1  0
 16 22  2  0
 17 24  1  0
 18 23  2  0
 19 27  1  0
 20 25  2  0
 21 26  2  0
 22 25  1  0
 23 26  1  0
M  END
>  <PUBCHEM_COMPOUND_CID>  (1) 
38191

>  <PUBCHEM_CONFORMER_RMSD>  (1) 
1

>  <PUBCHEM_CONFORMER_DIVERSEORDER>  (1) 
1
41
3
114
24
7
119
57
67
31
63
27
112
93
74
97
45
60
12
92
36
51
29
46
66
72
62
37
113
58
33
61
76
64
95
121
101
88
47
82
26
107
2
18
32
91
96
5
42
118
15
104
21
115
98
48
14
89
102
105
78
9
4
19
80
39
73
117
79
22
11
6
71
109
53
38
40
59
100
69
110
77
87
120
8
20
43
84
68
56
25
94
85
99
70
83
10
35
16
50
34
86
23
116
75
90
55
65
54
103
111
108
30
106
28
17
52
13
44
81
49

>  <PUBCHEM_MMFF94_PARTIAL_CHARGES>  (1) 
34
1 -0.18
10 -0.14
11 0.12
12 0.08
13 0.08
15 0.69
16 -0.15
17 0.06
18 -0.15
2 -0.29
20 -0.15
21 -0.15
22 -0.15
23 0.18
24 0.57
25 -0.15
26 -0.15
27 0.29
3 -0.17
34 0.15
35 0.15
38 0.15
39 0.15
4 -0.57
40 0.37
41 0.15
42 0.15
43 0.15
44 0.37
5 -0.57
6 -0.48
7 -0.43
8 -0.43
9 0.44

>  <PUBCHEM_EFFECTIVE_ROTOR_COUNT>  (1) 
8.6

>  <PUBCHEM_PHARMACOPHORE_FEATURES>  (1) 
8
1 3 acceptor
1 4 acceptor
1 5 acceptor
1 7 donor
1 8 donor
6 10 12 16 20 22 25 rings
6 11 13 18 21 23 26 rings
7 3 6 9 10 11 12 13 rings

>  <PUBCHEM_HEAVY_ATOM_COUNT>  (1) 
27

>  <PUBCHEM_ATOM_DEF_STEREO_COUNT>  (1) 
0

>  <PUBCHEM_ATOM_UDEF_STEREO_COUNT>  (1) 
0

>  <PUBCHEM_BOND_DEF_STEREO_COUNT>  (1) 
0

>  <PUBCHEM_BOND_UDEF_STEREO_COUNT>  (1) 
0

>  <PUBCHEM_ISOTOPIC_ATOM_COUNT>  (1) 
0

>  <PUBCHEM_COMPONENT_COUNT>  (1) 
1

>  <PUBCHEM_CACTVS_TAUTO_COUNT>  (1) 
4

>  <PUBCHEM_CONFORMER_ID>  (1) 
0000952F00000001

>  <PUBCHEM_MMFF94_ENERGY>  (1) 
87.1968

>  <PUBCHEM_FEATURE_SELFOVERLAP>  (1) 
42.158

>  <PUBCHEM_SHAPE_FINGERPRINT>  (1) 
100830 39 18410855452308737304
10319926 262 18341034282185640386
10411042 1 18122343747209677207
11315181 36 18113335340773051550
12082328 90 18411135841091070230
12107183 9 17902503797416817442
12741549 16 17560528421200123011
12788726 201 18117860977656318551
13140716 1 18340211886264419529
13631057 29 18261671574993777722
13885169 127 18411417298861544034
14790565 3 17762340210801206737
14844126 61 18336549412615871883
15439362 3 17836086671800114140
17780758 139 18334009514632211358
17844677 252 18337396041006138028
20101258 96 18339083799565219297
21792961 116 17704076167161109790
23366157 5 17182786468418468105
23559900 14 18342449353387057824
249057 25 17894640288187053460
283562 15 18268708304432448441
3418910 222 18263933314359233764
4073 2 18411416212097934514
4409770 3 18335136506225586031
44802255 64 17313651665063994167
497634 4 18040713697148846630
5028188 123 10231757821830286200
57634706 229 17914351086055017968
58260988 114 16298684870544257683

>  <PUBCHEM_SHAPE_MULTIPOLES>  (1) 
526.84
19.33
4.95
0.99
75.79
2.48
-0.05
-0.52
1.48
-12.81
1.85
0.04
-0.17
0.57

>  <PUBCHEM_SHAPE_SELFOVERLAP>  (1) 
1100.371

>  <PUBCHEM_SHAPE_VOLUME>  (1) 
297.5

>  <PUBCHEM_COORDINATE_TYPE>  (1) 
2
5
10

$$$$
