38217
     RDKit          3D

 16 16  0  0  0  0  0  0  0  0999 V2000
    0.9988   -1.9978    0.3308 O   0  0  0  0  0  0  0  0  0  0  0  0
   -4.5760    0.9175    0.0179 O   0  0  0  0  0  0  0  0  0  0  0  0
    1.7030    0.1752   -0.0496 N   0  0  0  0  0  0  0  0  0  0  0  0
    3.1225   -0.1186   -0.0227 C   0  0  0  0  0  0  0  0  0  0  0  0
    3.4565   -1.1247   -1.1299 C   0  0  0  0  0  0  0  0  0  0  0  0
    3.4890   -0.7073    1.3433 C   0  0  0  0  0  0  0  0  0  0  0  0
    0.7550   -0.8102    0.1331 C   0  0  0  0  0  0  0  0  0  0  0  0
   -0.6573   -0.3515    0.1017 C   0  0  0  0  0  0  0  0  0  0  0  0
    3.8768    1.1315   -0.2472 C   0  0  0  0  0  0  0  0  0  0  0  0
   -1.6381   -1.2417   -0.2846 C   0  0  0  0  0  0  0  0  0  0  0  0
   -0.9446    0.9495    0.4604 C   0  0  0  0  0  0  0  0  0  0  0  0
   -3.2814    0.4985    0.0444 C   0  0  0  0  0  0  0  0  0  0  0  0
   -2.9647   -0.8120   -0.3136 C   0  0  0  0  0  0  0  0  0  0  0  0
   -2.2713    1.3791    0.4314 C   0  0  0  0  0  0  0  0  0  0  0  0
    4.4905    2.1476   -0.4296 C   0  0  0  0  0  0  0  0  0  0  0  0
   -5.5588   -0.0351   -0.3856 C   0  0  0  0  0  0  0  0  0  0  0  0
  1  7  2  0
  2 12  1  0
  2 16  1  0
  3  4  1  0
  3  7  1  0
  4  5  1  0
  4  6  1  0
  4  9  1  0
  7  8  1  0
  8 10  2  0
  8 11  1  0
  9 15  3  0
 10 13  1  0
 11 14  2  0
 12 13  2  0
 12 14  1  0
M  END
>  <PUBCHEM_COMPOUND_CID>  (1) 
38217

>  <PUBCHEM_CONFORMER_RMSD>  (1) 
0.6

>  <PUBCHEM_CONFORMER_DIVERSEORDER>  (1) 
1
9
5
7
4
8
6
3
2

>  <PUBCHEM_MMFF94_PARTIAL_CHARGES>  (1) 
20
1 -0.57
10 -0.15
11 -0.15
12 0.08
13 -0.15
14 -0.15
15 -0.18
16 0.28
17 0.37
2 -0.36
24 0.15
25 0.15
26 0.15
27 0.15
28 0.18
3 -0.73
4 0.5
7 0.54
8 0.09
9 -0.2

>  <PUBCHEM_EFFECTIVE_ROTOR_COUNT>  (1) 
4

>  <PUBCHEM_PHARMACOPHORE_FEATURES>  (1) 
6
1 1 acceptor
1 15 hydrophobe
1 2 acceptor
1 3 donor
3 4 5 6 hydrophobe
6 8 10 11 12 13 14 rings

>  <PUBCHEM_HEAVY_ATOM_COUNT>  (1) 
16

>  <PUBCHEM_ATOM_DEF_STEREO_COUNT>  (1) 
0

>  <PUBCHEM_ATOM_UDEF_STEREO_COUNT>  (1) 
0

>  <PUBCHEM_BOND_DEF_STEREO_COUNT>  (1) 
0

>  <PUBCHEM_BOND_UDEF_STEREO_COUNT>  (1) 
0

>  <PUBCHEM_ISOTOPIC_ATOM_COUNT>  (1) 
0

>  <PUBCHEM_COMPONENT_COUNT>  (1) 
1

>  <PUBCHEM_CACTVS_TAUTO_COUNT>  (1) 
2

>  <PUBCHEM_CONFORMER_ID>  (1) 
0000954900000001

>  <PUBCHEM_MMFF94_ENERGY>  (1) 
50.4718

>  <PUBCHEM_FEATURE_SELFOVERLAP>  (1) 
30.446

>  <PUBCHEM_SHAPE_FINGERPRINT>  (1) 
10014705 185 18333729139525629557
10498660 4 18411422829835396652
12616999 72 17132120130406265060
12670546 56 16878213174247547337
13081056 2 18335986389141169005
13533116 47 17240757329069467522
14528608 73 18410855473324508213
15196674 1 18411138056191589535
15342168 16 17823143483058874012
15669948 3 18200305640772299862
17834072 33 18131346449390221909
17959699 21 18409729547579647101
18186145 218 18259983769226797894
20279233 1 16773791502732832146
20645477 70 17917156005010748694
20871999 31 17916297410972951215
21267235 1 18340776948371183023
212847 35 18413385436758448432
21652331 79 18334012795860780645
23048698 100 18113335297643965616
23402539 116 18272360996994915318
23402655 69 18273218616460186828
23557571 272 17845382213515720647
23559900 14 18201720613843454854
34797466 226 16056596624922853297
3545911 37 18411985784315737996
4047638 21 18259705596984868730
4340502 62 17167865245120340467
4463277 17 18341897390424144729
474 4 17968383454371323452
4990 188 17775289317981338967
5104073 3 18407761447361146219
5374978 207 18410849958459821712
537710 114 18342738524470617129
6333272 397 18408606967745262712
633830 44 18410575071952575518
7364860 26 18127690422693729070
90127 26 18261685787214269705

>  <PUBCHEM_SHAPE_MULTIPOLES>  (1) 
312.55
10.29
1.73
0.87
4.35
0.23
-0.07
3.26
1.43
-1.31
0.08
-0.67
-0.15
-0.52

>  <PUBCHEM_SHAPE_SELFOVERLAP>  (1) 
646.196

>  <PUBCHEM_SHAPE_VOLUME>  (1) 
179.1

>  <PUBCHEM_COORDINATE_TYPE>  (1) 
2
5
10

$$$$
