38228
     RDKit          3D

 20 21  0  0  0  0  0  0  0  0999 V2000
    4.2253   -1.4447    0.4187 O   0  0  0  0  0  0  0  0  0  0  0  0
    4.2308    0.5976   -0.6434 O   0  0  0  0  0  0  0  0  0  0  0  0
    0.8289    3.4420    0.0792 O   0  0  0  0  0  0  0  0  0  0  0  0
   -0.7801    1.7201    0.0535 N   0  0  0  0  0  0  0  0  0  0  0  0
   -0.6142   -0.7075   -0.0540 C   0  0  0  0  0  0  0  0  0  0  0  0
   -0.0129    0.5527   -0.0169 C   0  0  0  0  0  0  0  0  0  0  0  0
   -2.0527   -0.8585   -0.0214 C   0  0  0  0  0  0  0  0  0  0  0  0
    0.1816   -1.8531   -0.1245 C   0  0  0  0  0  0  0  0  0  0  0  0
    1.3768    0.6665   -0.0502 C   0  0  0  0  0  0  0  0  0  0  0  0
    2.1689   -0.4795   -0.1207 C   0  0  0  0  0  0  0  0  0  0  0  0
    1.5713   -1.7393   -0.1578 C   0  0  0  0  0  0  0  0  0  0  0  0
   -2.7138   -0.9828    1.2006 C   0  0  0  0  0  0  0  0  0  0  0  0
   -2.7787   -0.8778   -1.2121 C   0  0  0  0  0  0  0  0  0  0  0  0
   -4.1009   -1.1263    1.2317 C   0  0  0  0  0  0  0  0  0  0  0  0
   -4.1659   -1.0212   -1.1809 C   0  0  0  0  0  0  0  0  0  0  0  0
    3.6181   -0.3616   -0.1562 C   0  0  0  0  0  0  0  0  0  0  0  0
   -4.8270   -1.1455    0.0410 C   0  0  0  0  0  0  0  0  0  0  0  0
   -0.3315    3.0447    0.0973 C   0  0  0  0  0  0  0  0  0  0  0  0
   -1.4803    4.0190    0.1701 C   0  0  0  0  0  0  0  0  0  0  0  0
    5.6566   -1.4451    0.4459 C   0  0  0  0  0  0  0  0  0  0  0  0
  1 16  1  0
  1 20  1  0
  2 16  2  0
  3 18  2  0
  4  6  1  0
  4 18  1  0
  5  6  2  0
  5  7  1  0
  5  8  1  0
  6  9  1  0
  7 12  2  0
  7 13  1  0
  8 11  2  0
  9 10  2  0
 10 11  1  0
 10 16  1  0
 12 14  1  0
 13 15  2  0
 14 17  2  0
 15 17  1  0
 18 19  1  0
M  END
>  <PUBCHEM_COMPOUND_CID>  (1) 
38228

>  <PUBCHEM_CONFORMER_RMSD>  (1) 
0.8

>  <PUBCHEM_CONFORMER_DIVERSEORDER>  (1) 
2
4
6
1
3
5

>  <PUBCHEM_MMFF94_PARTIAL_CHARGES>  (1) 
27
1 -0.43
10 0.09
11 -0.15
12 -0.15
13 -0.15
14 -0.15
15 -0.15
16 0.63
17 -0.15
18 0.57
19 0.06
2 -0.57
20 0.28
21 0.15
22 0.15
23 0.15
24 0.37
25 0.15
26 0.15
27 0.15
28 0.15
29 0.15
3 -0.57
4 -0.55
6 0.12
8 -0.15
9 -0.15

>  <PUBCHEM_EFFECTIVE_ROTOR_COUNT>  (1) 
5

>  <PUBCHEM_PHARMACOPHORE_FEATURES>  (1) 
5
1 2 acceptor
1 3 acceptor
1 4 donor
6 5 6 8 9 10 11 rings
6 7 12 13 14 15 17 rings

>  <PUBCHEM_HEAVY_ATOM_COUNT>  (1) 
20

>  <PUBCHEM_ATOM_DEF_STEREO_COUNT>  (1) 
0

>  <PUBCHEM_ATOM_UDEF_STEREO_COUNT>  (1) 
0

>  <PUBCHEM_BOND_DEF_STEREO_COUNT>  (1) 
0

>  <PUBCHEM_BOND_UDEF_STEREO_COUNT>  (1) 
0

>  <PUBCHEM_ISOTOPIC_ATOM_COUNT>  (1) 
0

>  <PUBCHEM_COMPONENT_COUNT>  (1) 
1

>  <PUBCHEM_CACTVS_TAUTO_COUNT>  (1) 
2

>  <PUBCHEM_CONFORMER_ID>  (1) 
0000955400000002

>  <PUBCHEM_MMFF94_ENERGY>  (1) 
69.379

>  <PUBCHEM_FEATURE_SELFOVERLAP>  (1) 
25.371

>  <PUBCHEM_SHAPE_FINGERPRINT>  (1) 
104564 63 18339643330608361701
10670039 82 18335719217529226236
11578080 2 17416659428785986089
12236239 1 17775569771294234367
12403259 226 18117556443464334727
12553582 1 18412549837849037502
12788726 201 18338249201789038868
13134695 92 18338515364948993485
13140716 1 18265895942155416794
13760787 5 18409730690083029086
13862211 1 18411696595393673526
13911987 19 18335144236417815046
13965767 371 17268108694997573611
14347332 77 18198916816606989414
15042514 8 18194124010439185264
15238133 3 18262539008912618021
17357779 13 18411125940347590061
17980427 23 16988283178954681873
1813 80 18201453483545387967
18222031 100 18272933859775138134
18785283 64 17756432917056526765
200 152 18333726905836972678
20510252 161 18342175519230766586
20671657 1 17981329203108205773
21029758 11 18410008870787804741
21029758 27 18410300245632451693
21041028 32 18410301323980797585
21236236 1 18340768122661483912
21267235 1 18408892819558041566
21339142 126 18343016657904593247
21641784 216 18115043934508714508
221490 88 17976540838543923107
22182313 1 18266434642401854676
23175994 123 18335142007529974935
23402539 116 18343297054818294790
23557571 272 18129391418910637556
23558518 356 17973454204208656138
23559900 14 17530963614117154586
23845131 108 17406846081081331297
26918003 58 17967813846939167938
283562 15 18337106761604540730
3091708 16 8993376748755683728
312423 11 18188223005074493062
314173 85 18342745100181429286
3286 77 18189623924580359487
34934 24 18266462006070273929
352729 6 17765428751537301540
3886686 26 16184360129242296921
5104073 3 18193828251192552698
68521 5 18410576141272727492
7164475 11 18338520725373841678
7471813 234 18059003008304818597
7495541 125 18117004479858162027
81228 2 18265059028801026721

>  <PUBCHEM_SHAPE_MULTIPOLES>  (1) 
389
9.05
3.46
0.95
5.53
5.93
0.01
-6.75
0.49
-0.55
0.26
-0.9
-0.32
-0.3

>  <PUBCHEM_SHAPE_SELFOVERLAP>  (1) 
834.461

>  <PUBCHEM_SHAPE_VOLUME>  (1) 
215.4

>  <PUBCHEM_COORDINATE_TYPE>  (1) 
2
5
10

$$$$
