38238
     RDKit          3D

 26 29  0  0  1  0  0  0  0  0999 V2000
   -3.9267   -1.4621   -3.2138 Cl  0  0  0  0  0  0  0  0  0  0  0  0
    1.1050   -2.0491    3.0797 O   0  0  0  0  0  0  0  0  0  0  0  0
    0.4704    0.3489    0.9310 N   0  0  0  0  0  0  0  0  0  0  0  0
   -0.6392   -2.3626    1.6421 N   0  0  0  0  0  0  0  0  0  0  0  0
    1.2154   -0.8965    0.9630 C   0  0  0  0  0  0  0  0  0  0  0  0
    2.6569   -0.5618    1.3334 C   0  0  0  0  0  0  0  0  0  0  0  0
   -0.7068    0.3703    0.4065 C   0  0  0  0  0  0  0  0  0  0  0  0
   -1.4114   -0.8211   -0.1534 C   0  0  0  0  0  0  0  0  0  0  0  0
    0.5629   -1.7891    2.0043 C   0  0  0  0  0  0  0  0  0  0  0  0
   -1.4236   -2.0577    0.5108 C   0  0  0  0  0  0  0  0  0  0  0  0
    3.4407   -0.0847    0.1411 C   0  0  0  0  0  0  0  0  0  0  0  0
   -1.4091    1.6860    0.4010 C   0  0  0  0  0  0  0  0  0  0  0  0
   -2.1751   -0.6523   -1.3201 C   0  0  0  0  0  0  0  0  0  0  0  0
   -2.2837   -3.0685    0.0557 C   0  0  0  0  0  0  0  0  0  0  0  0
    4.1228   -1.0058   -0.6426 C   0  0  0  0  0  0  0  0  0  0  0  0
    3.4714    1.2703   -0.1604 C   0  0  0  0  0  0  0  0  0  0  0  0
   -2.9873   -1.6840   -1.7891 C   0  0  0  0  0  0  0  0  0  0  0  0
   -3.0556   -2.8851   -1.0915 C   0  0  0  0  0  0  0  0  0  0  0  0
   -2.7946    1.7240    0.4944 C   0  0  0  0  0  0  0  0  0  0  0  0
   -0.6698    2.8578    0.3029 C   0  0  0  0  0  0  0  0  0  0  0  0
    4.8494   -0.5636   -1.7481 C   0  0  0  0  0  0  0  0  0  0  0  0
    4.1978    1.7123   -1.2661 C   0  0  0  0  0  0  0  0  0  0  0  0
    4.8868    0.7953   -2.0599 C   0  0  0  0  0  0  0  0  0  0  0  0
   -3.4517    2.9545    0.4896 C   0  0  0  0  0  0  0  0  0  0  0  0
   -1.3269    4.0883    0.2980 C   0  0  0  0  0  0  0  0  0  0  0  0
   -2.7179    4.1365    0.3914 C   0  0  0  0  0  0  0  0  0  0  0  0
  1 17  1  0
  2  9  2  0
  3  5  1  0
  3  7  2  0
  4  9  1  0
  4 10  1  0
  5  6  1  0
  5  9  1  0
  6 11  1  0
  7  8  1  0
  7 12  1  0
  8 10  2  0
  8 13  1  0
 10 14  1  0
 11 15  2  0
 11 16  1  0
 12 19  2  0
 12 20  1  0
 13 17  2  0
 14 18  2  0
 15 21  1  0
 16 22  2  0
 17 18  1  0
 19 24  1  0
 20 25  2  0
 21 23  2  0
 22 23  1  0
 24 26  2  0
 25 26  1  0
M  END
>  <PUBCHEM_COMPOUND_CID>  (1) 
38238

>  <PUBCHEM_CONFORMER_RMSD>  (1) 
0.8

>  <PUBCHEM_CONFORMER_DIVERSEORDER>  (1) 
1
4
3
2
5

>  <PUBCHEM_MMFF94_PARTIAL_CHARGES>  (1) 
40
1 -0.18
10 0.12
11 -0.14
12 0.09
13 -0.15
14 -0.15
15 -0.15
16 -0.15
17 0.18
18 -0.15
19 -0.15
2 -0.57
20 -0.15
21 -0.15
22 -0.15
23 -0.15
24 -0.15
25 -0.15
26 -0.15
3 -0.7
30 0.37
31 0.15
32 0.15
33 0.15
34 0.15
35 0.15
36 0.15
37 0.15
38 0.15
39 0.15
4 -0.55
40 0.15
41 0.15
42 0.15
43 0.15
5 0.31
6 0.14
7 0.28
8 0.09
9 0.57

>  <PUBCHEM_EFFECTIVE_ROTOR_COUNT>  (1) 
3.4

>  <PUBCHEM_PHARMACOPHORE_FEATURES>  (1) 
7
1 2 acceptor
1 3 acceptor
1 4 donor
6 11 15 16 21 22 23 rings
6 12 19 20 24 25 26 rings
6 8 10 13 14 17 18 rings
7 3 4 5 7 8 9 10 rings

>  <PUBCHEM_HEAVY_ATOM_COUNT>  (1) 
26

>  <PUBCHEM_ATOM_DEF_STEREO_COUNT>  (1) 
1

>  <PUBCHEM_ATOM_UDEF_STEREO_COUNT>  (1) 
0

>  <PUBCHEM_BOND_DEF_STEREO_COUNT>  (1) 
0

>  <PUBCHEM_BOND_UDEF_STEREO_COUNT>  (1) 
0

>  <PUBCHEM_ISOTOPIC_ATOM_COUNT>  (1) 
0

>  <PUBCHEM_COMPONENT_COUNT>  (1) 
1

>  <PUBCHEM_CACTVS_TAUTO_COUNT>  (1) 
3

>  <PUBCHEM_CONFORMER_ID>  (1) 
0000955E00000001

>  <PUBCHEM_MMFF94_ENERGY>  (1) 
96.0654

>  <PUBCHEM_FEATURE_SELFOVERLAP>  (1) 
35.533

>  <PUBCHEM_SHAPE_FINGERPRINT>  (1) 
10764073 3 16970054208079380730
11488393 25 17264716624390585379
11578080 2 16916776435556938944
12035759 4 18264188267279011965
12160290 23 18058432249995118051
12173636 292 18187664504316832746
12293681 160 18043518615471853898
12553582 1 18268142235599125123
12714826 92 17418381319676637654
12788726 201 18410009948771809699
13583140 156 16665147457506905033
13911987 19 16895415368603689108
14537116 161 17981849135270474575
1454969 45 18339932498784675089
14790565 3 18269278963499056777
14955137 171 18121798363646058227
15419009 47 18052825750354134214
15420108 30 17470982815243438552
15475509 8 18059850706226935895
15842332 3 18116137896980441866
1813 80 17772185564313014607
20642791 239 18041825329459265885
21756936 100 18042424477449584176
22620623 9 17917710201577785503
22907989 373 18410011069626444503
23419403 2 16961279379065799251
23536364 44 18337657720372983141
23557571 272 17988065760606901168
23558518 356 18333455339702956322
25265897 201 17695673651134152340
26353 1 17984971850460020717
266924 78 17024301925323262859
340366 18 17837776625689175534
3610482 184 17898607283100712780
394222 165 16155082024321215714
44062 13 18058464127295370662
6034566 193 16878524430400557540
633830 44 17968952885625241734
6786 2 17125400885783642377
6913067 236 17630028594030466938

>  <PUBCHEM_SHAPE_MULTIPOLES>  (1) 
521.11
8.39
4.68
2.35
10.04
4.26
-0.38
0.14
-6.67
-6.41
0.62
0.11
-2.03
-2.46

>  <PUBCHEM_SHAPE_SELFOVERLAP>  (1) 
1143.298

>  <PUBCHEM_SHAPE_VOLUME>  (1) 
279.9

>  <PUBCHEM_COORDINATE_TYPE>  (1) 
2
5
10

$$$$
