38237
     RDKit          3D

 20 22  0  0  1  0  0  0  0  0999 V2000
   -0.0916   -4.4769    1.1009 Cl  0  0  0  0  0  0  0  0  0  0  0  0
    2.9666    2.6828   -1.0564 O   0  0  0  0  0  0  0  0  0  0  0  0
    2.4846    0.4544   -0.9586 N   0  0  0  0  0  0  0  0  0  0  0  0
    0.2386    1.7970    0.5382 N   0  0  0  0  0  0  0  0  0  0  0  0
    1.6551    1.9318    0.8244 C   0  0  0  0  0  0  0  0  0  0  0  0
    0.5546   -0.6238    0.1851 C   0  0  0  0  0  0  0  0  0  0  0  0
   -0.2463    0.6334    0.2697 C   0  0  0  0  0  0  0  0  0  0  0  0
    1.7897   -0.6752   -0.4801 C   0  0  0  0  0  0  0  0  0  0  0  0
    2.4022    1.7482   -0.4852 C   0  0  0  0  0  0  0  0  0  0  0  0
   -1.7106    0.5698   -0.0059 C   0  0  0  0  0  0  0  0  0  0  0  0
   -0.0111   -1.8057    0.6909 C   0  0  0  0  0  0  0  0  0  0  0  0
    1.8773    3.3236    1.4079 C   0  0  0  0  0  0  0  0  0  0  0  0
    2.3839   -1.9231   -0.7208 C   0  0  0  0  0  0  0  0  0  0  0  0
    0.6167   -3.0338    0.4870 C   0  0  0  0  0  0  0  0  0  0  0  0
    1.8045   -3.0946   -0.2337 C   0  0  0  0  0  0  0  0  0  0  0  0
   -2.2013   -0.3817   -0.8911 C   0  0  0  0  0  0  0  0  0  0  0  0
   -2.5670    1.4625    0.6263 C   0  0  0  0  0  0  0  0  0  0  0  0
   -3.5708   -0.4415   -1.1487 C   0  0  0  0  0  0  0  0  0  0  0  0
   -3.9367    1.4025    0.3687 C   0  0  0  0  0  0  0  0  0  0  0  0
   -4.4384    0.4505   -0.5188 C   0  0  0  0  0  0  0  0  0  0  0  0
  1 14  1  0
  2  9  2  0
  3  8  1  0
  3  9  1  0
  4  5  1  0
  4  7  2  0
  5  9  1  0
  5 12  1  0
  6  7  1  0
  6  8  2  0
  6 11  1  0
  7 10  1  0
  8 13  1  0
 10 16  2  0
 10 17  1  0
 11 14  2  0
 13 15  2  0
 14 15  1  0
 16 18  1  0
 17 19  2  0
 18 20  2  0
 19 20  1  0
M  END
>  <PUBCHEM_COMPOUND_CID>  (1) 
38237

>  <PUBCHEM_CONFORMER_RMSD>  (1) 
0.6

>  <PUBCHEM_CONFORMER_DIVERSEORDER>  (1) 
1
2

>  <PUBCHEM_MMFF94_PARTIAL_CHARGES>  (1) 
28
1 -0.18
10 0.09
11 -0.15
13 -0.15
14 0.18
15 -0.15
16 -0.15
17 -0.15
18 -0.15
19 -0.15
2 -0.57
20 -0.15
22 0.37
23 0.15
27 0.15
28 0.15
29 0.15
3 -0.55
30 0.15
31 0.15
32 0.15
33 0.15
4 -0.7
5 0.31
6 0.09
7 0.28
8 0.12
9 0.57

>  <PUBCHEM_EFFECTIVE_ROTOR_COUNT>  (1) 
1.4

>  <PUBCHEM_PHARMACOPHORE_FEATURES>  (1) 
6
1 2 acceptor
1 3 donor
1 4 acceptor
6 10 16 17 18 19 20 rings
6 6 8 11 13 14 15 rings
7 3 4 5 6 7 8 9 rings

>  <PUBCHEM_HEAVY_ATOM_COUNT>  (1) 
20

>  <PUBCHEM_ATOM_DEF_STEREO_COUNT>  (1) 
0

>  <PUBCHEM_ATOM_UDEF_STEREO_COUNT>  (1) 
1

>  <PUBCHEM_BOND_DEF_STEREO_COUNT>  (1) 
0

>  <PUBCHEM_BOND_UDEF_STEREO_COUNT>  (1) 
0

>  <PUBCHEM_ISOTOPIC_ATOM_COUNT>  (1) 
0

>  <PUBCHEM_COMPONENT_COUNT>  (1) 
1

>  <PUBCHEM_CACTVS_TAUTO_COUNT>  (1) 
3

>  <PUBCHEM_CONFORMER_ID>  (1) 
0000955D00000001

>  <PUBCHEM_MMFF94_ENERGY>  (1) 
76.5637

>  <PUBCHEM_FEATURE_SELFOVERLAP>  (1) 
30.458

>  <PUBCHEM_SHAPE_FINGERPRINT>  (1) 
1100329 8 18409163308098086546
12553582 1 17834673799538328491
12716301 132 17835231625658660416
12730499 353 18336553802282788697
12788726 201 17331970417260684555
13004483 165 17255670898867651771
13140716 1 18410285939201949083
13533116 47 18412261706590525925
13583140 156 17974593311899589673
15375462 189 18050573945754650011
16945 1 18116158761630807095
20291156 8 17762618391459347703
20567600 347 18265317581579372731
20645477 70 18342731880830956567
21452121 199 17612296468576220515
21524375 3 18338790234149691844
21634736 98 18270121210284066671
22112679 90 17698734605342529905
22182313 1 17337041846404677436
2255824 54 18336828589315242735
22907989 373 17470457694771279172
23388829 49 17833556699976985050
23419403 2 17391684013412513066
23559900 14 18269539569276206819
23598291 2 18129947763315503757
238 59 18408328774129146283
25 1 18410860987835779796
257057 1 17543624236664722098
2748010 2 17406559585408312472
3091708 16 9692027314843182563
34934 24 17907856202123023323
352729 6 17908135830343112960
4409770 3 17258195897181981182
458136 41 18336277811546993121
474 4 18407760352244971597
5845 1 9942990891058993089
6442390 28 18192445271179719803
7097593 13 18124594172495943643
7364860 26 18343012255594522873
81228 2 17325203425533708530
84936 182 18343020003668565513
9981440 41 17554587866764173544

>  <PUBCHEM_SHAPE_MULTIPOLES>  (1) 
397.63
5.71
4.69
1.15
7.45
2.08
0.04
-1.09
-1.61
-4.75
1.88
-0.16
-0.14
-0.49

>  <PUBCHEM_SHAPE_SELFOVERLAP>  (1) 
863.762

>  <PUBCHEM_SHAPE_VOLUME>  (1) 
216.5

>  <PUBCHEM_COORDINATE_TYPE>  (1) 
2
5
10

$$$$
