38247
     RDKit          3D

 23 23  0  0  1  0  0  0  0  0999 V2000
    4.2295   -1.5401   -1.2390 F   0  0  0  0  0  0  0  0  0  0  0  0
    3.4001   -3.3095   -0.2702 F   0  0  0  0  0  0  0  0  0  0  0  0
    4.9075   -2.1123    0.7514 F   0  0  0  0  0  0  0  0  0  0  0  0
   -0.0115   -0.3155   -1.4399 O   0  0  0  0  0  0  0  0  0  0  0  0
    3.6388    3.5677   -0.9413 O   0  0  0  0  0  0  0  0  0  0  0  0
    3.5488    2.4772    1.0497 O   0  0  0  0  0  0  0  0  0  0  0  0
    2.2199   -1.4707    1.6440 O   0  0  0  0  0  0  0  0  0  0  0  0
    2.4074   -0.1055   -0.2330 N   0  0  0  0  0  0  0  0  0  0  0  0
   -0.9819    0.6977    0.4403 N   0  0  0  0  0  0  0  0  0  0  0  0
   -7.5558   -0.7895   -0.2550 N   0  0  0  0  0  0  0  0  0  0  0  0
    1.4014    0.8659    0.1214 C   0  0  0  0  0  0  0  0  0  0  0  0
    1.7145    2.2242   -0.5021 C   0  0  0  0  0  0  0  0  0  0  0  0
    0.0676    0.3218   -0.3931 C   0  0  0  0  0  0  0  0  0  0  0  0
   -2.3547    0.3874    0.2951 C   0  0  0  0  0  0  0  0  0  0  0  0
    3.0522    2.7453   -0.0369 C   0  0  0  0  0  0  0  0  0  0  0  0
    2.7299   -1.1929    0.5623 C   0  0  0  0  0  0  0  0  0  0  0  0
   -3.2598    0.8632    1.2294 C   0  0  0  0  0  0  0  0  0  0  0  0
   -2.7646   -0.3864   -0.7781 C   0  0  0  0  0  0  0  0  0  0  0  0
    3.8120   -2.0355   -0.0462 C   0  0  0  0  0  0  0  0  0  0  0  0
   -4.6131    0.5565    1.0866 C   0  0  0  0  0  0  0  0  0  0  0  0
   -4.1178   -0.6929   -0.9211 C   0  0  0  0  0  0  0  0  0  0  0  0
   -5.0420   -0.2214    0.0114 C   0  0  0  0  0  0  0  0  0  0  0  0
   -6.4285   -0.5348   -0.1356 C   0  0  0  0  0  0  0  0  0  0  0  0
  1 19  1  0
  2 19  1  0
  3 19  1  0
  4 13  2  0
  5 15  1  0
  6 15  2  0
  7 16  2  0
  8 11  1  0
  8 16  1  0
  9 13  1  0
  9 14  1  0
 10 23  3  0
 11 12  1  0
 11 13  1  0
 12 15  1  0
 14 17  2  0
 14 18  1  0
 16 19  1  0
 17 20  1  0
 18 21  2  0
 20 22  2  0
 21 22  1  0
 22 23  1  0
M  END
>  <PUBCHEM_COMPOUND_CID>  (1) 
38247

>  <PUBCHEM_CONFORMER_RMSD>  (1) 
0.8

>  <PUBCHEM_CONFORMER_DIVERSEORDER>  (1) 
1
21
20
30
34
10
14
19
3
18
26
23
13
24
6
7
27
2
16
8
31
25
4
15
32
33
29
9
17
12
11
35
28
22
5

>  <PUBCHEM_MMFF94_PARTIAL_CHARGES>  (1) 
30
1 -0.34
10 -0.56
11 0.36
12 0.06
13 0.57
14 0.12
15 0.66
16 0.57
17 -0.15
18 -0.15
19 1.08
2 -0.34
20 -0.15
21 -0.15
22 0.07
23 0.48
27 0.37
28 0.37
29 0.15
3 -0.34
30 0.15
31 0.15
32 0.15
33 0.5
4 -0.57
5 -0.65
6 -0.57
7 -0.57
8 -0.73
9 -0.55

>  <PUBCHEM_EFFECTIVE_ROTOR_COUNT>  (1) 
8

>  <PUBCHEM_PHARMACOPHORE_FEATURES>  (1) 
9
1 10 acceptor
1 4 acceptor
1 5 acceptor
1 6 acceptor
1 7 acceptor
1 8 donor
1 9 donor
3 5 6 15 anion
6 14 17 18 20 21 22 rings

>  <PUBCHEM_HEAVY_ATOM_COUNT>  (1) 
23

>  <PUBCHEM_ATOM_DEF_STEREO_COUNT>  (1) 
1

>  <PUBCHEM_ATOM_UDEF_STEREO_COUNT>  (1) 
0

>  <PUBCHEM_BOND_DEF_STEREO_COUNT>  (1) 
0

>  <PUBCHEM_BOND_UDEF_STEREO_COUNT>  (1) 
0

>  <PUBCHEM_ISOTOPIC_ATOM_COUNT>  (1) 
0

>  <PUBCHEM_COMPONENT_COUNT>  (1) 
1

>  <PUBCHEM_CACTVS_TAUTO_COUNT>  (1) 
4

>  <PUBCHEM_CONFORMER_ID>  (1) 
0000956700000001

>  <PUBCHEM_MMFF94_ENERGY>  (1) 
46.6903

>  <PUBCHEM_FEATURE_SELFOVERLAP>  (1) 
45.731

>  <PUBCHEM_SHAPE_FINGERPRINT>  (1) 
10554248 39 18202276980113094029
10912923 1 17988652913028037385
12107183 9 17982741779313478913
12236239 1 18272089405639811705
12553582 1 18266173938203206382
12616971 3 17989481927541482997
12788726 201 17489320706610926913
12916754 54 18410856534608840873
13009979 54 17774169989495869704
13073987 5 18341617044987130825
13167823 11 18413670214828643107
13533116 47 18342175592171337921
13911852 28 18122343471614423455
13955234 65 18411698828834196424
14739800 52 17417801911456316928
17349148 13 17775563122636809591
17818456 19 17844256120494027761
17844677 252 18408887309214935333
1813 80 18198350563401340822
18335252 98 18190184684432730571
20369508 70 18186796955166864474
20554085 129 18057033838914962648
20645477 70 18334853926724524045
21065198 48 18272377477459858121
21344244 78 18130212800988292848
2255824 54 18410578396605090662
23559900 14 18408885173988130177
239999 70 18261108590859641434
25147074 1 18131084718399737865
3004659 81 18131639980087041749
312423 11 18342749498344199577
3421961 26 18410008815095557248
3633792 109 18408876327278705205
42630746 31 18334289911461224368
4340502 62 18189610708517252817
465052 167 18412830166154149191
474 4 18191589863480654573
5104073 3 18201730557003566377
59755656 215 18336551603043846628
6025842 7 18337674212636098492
67856867 119 18273210928194602329
70251023 43 18335984164348044809
7970288 3 18266176132547048307
8272917 22 18335419122872430012
90127 26 17967814934214649193
9841814 1 18114734954777171920

>  <PUBCHEM_SHAPE_MULTIPOLES>  (1) 
413.09
13.95
2.98
1.14
19.68
0.78
-0.11
-4.26
0.04
-7.52
0.21
-0.11
-0.02
-1.01

>  <PUBCHEM_SHAPE_SELFOVERLAP>  (1) 
863.457

>  <PUBCHEM_SHAPE_VOLUME>  (1) 
231.7

>  <PUBCHEM_COORDINATE_TYPE>  (1) 
2
5
10

$$$$
