38284
     RDKit          3D

 15 16  0  0  0  0  0  0  0  0999 V2000
    0.5688    1.4214   -0.7467 O   0  0  0  0  0  0  0  0  0  0  0  0
   -2.0313   -2.9360   -0.4220 O   0  0  0  0  0  0  0  0  0  0  0  0
   -0.6853    1.0674   -0.3541 C   0  0  0  0  0  0  0  0  0  0  0  0
    1.6266    0.6504   -0.2947 C   0  0  0  0  0  0  0  0  0  0  0  0
   -1.0781   -0.2704   -0.3964 C   0  0  0  0  0  0  0  0  0  0  0  0
   -2.3639   -0.6328    0.0050 C   0  0  0  0  0  0  0  0  0  0  0  0
   -1.5785    2.0427    0.0896 C   0  0  0  0  0  0  0  0  0  0  0  0
   -3.2569    0.3427    0.4487 C   0  0  0  0  0  0  0  0  0  0  0  0
   -2.8642    1.6804    0.4911 C   0  0  0  0  0  0  0  0  0  0  0  0
    1.6679    0.2773    1.0365 C   0  0  0  0  0  0  0  0  0  0  0  0
    2.6145    0.2739   -1.1864 C   0  0  0  0  0  0  0  0  0  0  0  0
    2.7338   -0.4987    1.4917 C   0  0  0  0  0  0  0  0  0  0  0  0
    3.6804   -0.5023   -0.7310 C   0  0  0  0  0  0  0  0  0  0  0  0
    3.7400   -0.8885    0.6080 C   0  0  0  0  0  0  0  0  0  0  0  0
   -2.7737   -2.0275   -0.0395 C   0  0  0  0  0  0  0  0  0  0  0  0
  1  3  1  0
  1  4  1  0
  2 15  2  0
  3  5  2  0
  3  7  1  0
  4 10  2  0
  4 11  1  0
  5  6  1  0
  6  8  2  0
  6 15  1  0
  7  9  2  0
  8  9  1  0
 10 12  1  0
 11 13  2  0
 12 14  2  0
 13 14  1  0
M  END
>  <PUBCHEM_COMPOUND_CID>  (1) 
38284

>  <PUBCHEM_CONFORMER_RMSD>  (1) 
0.6

>  <PUBCHEM_CONFORMER_DIVERSEORDER>  (1) 
1
3
6
7
8
12
9
2
11
4
5
10

>  <PUBCHEM_MMFF94_PARTIAL_CHARGES>  (1) 
25
1 -0.17
10 -0.15
11 -0.15
12 -0.15
13 -0.15
14 -0.15
15 0.42
16 0.15
17 0.15
18 0.15
19 0.15
2 -0.57
20 0.15
21 0.15
22 0.15
23 0.15
24 0.15
25 0.06
3 0.08
4 0.08
5 -0.15
6 0.09
7 -0.15
8 -0.15
9 -0.15

>  <PUBCHEM_EFFECTIVE_ROTOR_COUNT>  (1) 
3

>  <PUBCHEM_PHARMACOPHORE_FEATURES>  (1) 
4
1 1 acceptor
1 2 acceptor
6 3 5 6 7 8 9 rings
6 4 10 11 12 13 14 rings

>  <PUBCHEM_HEAVY_ATOM_COUNT>  (1) 
15

>  <PUBCHEM_ATOM_DEF_STEREO_COUNT>  (1) 
0

>  <PUBCHEM_ATOM_UDEF_STEREO_COUNT>  (1) 
0

>  <PUBCHEM_BOND_DEF_STEREO_COUNT>  (1) 
0

>  <PUBCHEM_BOND_UDEF_STEREO_COUNT>  (1) 
0

>  <PUBCHEM_ISOTOPIC_ATOM_COUNT>  (1) 
0

>  <PUBCHEM_COMPONENT_COUNT>  (1) 
1

>  <PUBCHEM_CACTVS_TAUTO_COUNT>  (1) 
1

>  <PUBCHEM_CONFORMER_ID>  (1) 
0000958C00000001

>  <PUBCHEM_MMFF94_ENERGY>  (1) 
50.0498

>  <PUBCHEM_FEATURE_SELFOVERLAP>  (1) 
20.297

>  <PUBCHEM_SHAPE_FINGERPRINT>  (1) 
10366900 7 17561078086139065272
10616163 171 18410580586817528198
11471102 22 16272207470832316168
11578080 2 17823673417219500204
12346177 29 18271514343388025039
124424 183 17203042976709723296
12500047 106 18270113500764853616
12553582 1 18051699033733767319
12932764 1 17894629240645165108
13538477 17 18334013886724133205
14965852 173 18411419526778367816
15279307 12 18188492358899367338
15375462 189 17967536752918419264
15653759 3 17703789206461389224
15669948 3 18408609166552266453
16752209 62 18263066769924501205
16945 1 18411981330265963757
17804303 29 18343306946106566480
18186145 218 12613026159170079092
18522851 12 18114469993533222970
19049666 15 17273145578843690068
19107657 47 15267058108342092706
19422 9 18041007215071293352
20279233 1 17561078073317389028
20291156 8 18191026905253439611
20361792 2 17385437722083214084
20442098 301 18409448094040459866
20510252 161 18129666279469576425
212916 134 18056188069253501625
21634736 98 18116158942367417902
21650355 55 18341322344993784385
21731516 1 18187078498551672426
22169311 14 17917988356592281656
22445834 79 18114179692235019896
23184049 29 18267861855654296073
232386 152 18409167722843860220
23402539 116 18201431459829034093
23559900 14 18201442424869666348
23598291 2 17895208691846925436
465052 167 17968962858824036425
474 4 17387993090702852532
568465 68 17203610389234443902
58807428 26 18125172537144974041
5902787 121 18413105086994707848
603831 33 17894916247792642356
6338986 31 17911224341758391335
74978 22 18409163324734370381
77492 1 17894918407955535132
90525 40 18188209780226558251

>  <PUBCHEM_SHAPE_MULTIPOLES>  (1) 
296.95
6.61
2.15
1.09
2.8
1.07
-0.15
1.55
-0.62
-2.48
0.21
0.92
-0.01
-0.6

>  <PUBCHEM_SHAPE_SELFOVERLAP>  (1) 
643.66

>  <PUBCHEM_SHAPE_VOLUME>  (1) 
162.3

>  <PUBCHEM_COORDINATE_TYPE>  (1) 
2
5
10

$$$$
