3829
     RDKit          3D

 16 17  0  0  1  0  0  0  0  0999 V2000
   -1.5798    2.3849   -1.1458 O   0  0  0  0  0  0  0  0  0  0  0  0
   -1.5380   -0.5513    2.0671 O   0  0  0  0  0  0  0  0  0  0  0  0
   -3.3770    0.8344    0.5464 O   0  0  0  0  0  0  0  0  0  0  0  0
    0.6473   -2.7691   -1.5638 O   0  0  0  0  0  0  0  0  0  0  0  0
    2.4663   -1.0994    1.1329 O   0  0  0  0  0  0  0  0  0  0  0  0
    3.4200    1.4454    0.3973 O   0  0  0  0  0  0  0  0  0  0  0  0
    0.5315   -0.4081   -0.0401 N   0  0  0  0  0  0  0  0  0  0  0  0
    1.2923    1.6639   -0.5985 N   0  0  0  0  0  0  0  0  0  0  0  0
    0.1587    0.7893   -0.7618 C   0  0  0  0  0  0  0  0  0  0  0  0
   -0.4214   -1.4999    0.1549 C   0  0  0  0  0  0  0  0  0  0  0  0
   -1.1399    1.3885   -0.2226 C   0  0  0  0  0  0  0  0  0  0  0  0
   -1.7393   -0.9214    0.6975 C   0  0  0  0  0  0  0  0  0  0  0  0
   -2.2227    0.3013   -0.1016 C   0  0  0  0  0  0  0  0  0  0  0  0
   -0.6142   -2.2883   -1.1382 C   0  0  0  0  0  0  0  0  0  0  0  0
    1.8035   -0.3227    0.4787 C   0  0  0  0  0  0  0  0  0  0  0  0
    2.3128    1.0524    0.0977 C   0  0  0  0  0  0  0  0  0  0  0  0
  1 11  1  0
  2 12  1  0
  3 13  1  0
  4 14  1  0
  5 15  2  0
  6 16  2  0
  7  9  1  0
  7 10  1  0
  7 15  1  0
  8  9  1  0
  8 16  1  0
  9 11  1  0
 10 12  1  0
 10 14  1  0
 11 13  1  0
 12 13  1  0
 15 16  1  0
M  END
>  <PUBCHEM_COMPOUND_CID>  (1) 
3829

>  <PUBCHEM_CONFORMER_RMSD>  (1) 
0.6

>  <PUBCHEM_CONFORMER_DIVERSEORDER>  (1) 
1
35
3
24
21
23
26
11
39
41
8
16
19
38
36
22
14
13
2
33
43
25
30
27
28
15
6
17
12
44
29
5
18
9
31
42
10
4
37
20
32
7
34
40

>  <PUBCHEM_MMFF94_PARTIAL_CHARGES>  (1) 
21
1 -0.68
10 0.3
11 0.28
12 0.28
13 0.28
14 0.28
15 0.63
16 0.63
2 -0.68
22 0.37
25 0.4
26 0.4
27 0.4
28 0.4
3 -0.68
4 -0.68
5 -0.57
6 -0.57
7 -0.66
8 -0.73
9 0.6

>  <PUBCHEM_EFFECTIVE_ROTOR_COUNT>  (1) 
2

>  <PUBCHEM_PHARMACOPHORE_FEATURES>  (1) 
13
1 1 acceptor
1 1 donor
1 2 acceptor
1 2 donor
1 3 acceptor
1 3 donor
1 4 acceptor
1 4 donor
1 5 acceptor
1 6 acceptor
1 8 donor
5 7 8 9 15 16 rings
6 7 9 10 11 12 13 rings

>  <PUBCHEM_HEAVY_ATOM_COUNT>  (1) 
16

>  <PUBCHEM_ATOM_DEF_STEREO_COUNT>  (1) 
0

>  <PUBCHEM_ATOM_UDEF_STEREO_COUNT>  (1) 
5

>  <PUBCHEM_BOND_DEF_STEREO_COUNT>  (1) 
0

>  <PUBCHEM_BOND_UDEF_STEREO_COUNT>  (1) 
0

>  <PUBCHEM_ISOTOPIC_ATOM_COUNT>  (1) 
0

>  <PUBCHEM_COMPONENT_COUNT>  (1) 
1

>  <PUBCHEM_CACTVS_TAUTO_COUNT>  (1) 
2

>  <PUBCHEM_CONFORMER_ID>  (1) 
00000EF500000001

>  <PUBCHEM_MMFF94_ENERGY>  (1) 
32.5581

>  <PUBCHEM_FEATURE_SELFOVERLAP>  (1) 
66.107

>  <PUBCHEM_SHAPE_FINGERPRINT>  (1) 
1 1 18200314312163493070
12382932 28 18188214311290884049
12423570 1 10553190656209517987
12524768 44 18335997371662467655
13024252 1 16734090401000659103
14251711 518 17832433372386047396
14761567 1 15595546432640312476
14817 1 15460053305485541277
15076042 46 18261948561866495760
15309172 13 18343309179536935848
15775835 57 18341050808418156032
16945 1 17968097546576724637
20511035 2 18188484675466482236
20871998 184 18339083812354753119
22112679 90 16903861795415906215
23388829 49 17329139685867515324
23419403 2 16244431595138030158
241688 4 16899057457635160521
2748010 2 18190735345603827908
81228 2 17838321235852277886
84936 31 17201352949939016303

>  <PUBCHEM_SHAPE_MULTIPOLES>  (1) 
284.09
3.8
2.52
1.29
1.22
0.79
-0.19
-1.66
-1.2
-0.2
1.29
-0.32
0.49
0.09

>  <PUBCHEM_SHAPE_SELFOVERLAP>  (1) 
598.291

>  <PUBCHEM_SHAPE_VOLUME>  (1) 
157.6

>  <PUBCHEM_COORDINATE_TYPE>  (1) 
2
5
10

$$$$
