38295
     RDKit          3D

 15 16  0  0  1  0  0  0  0  0999 V2000
    1.9811   -1.6759   -0.1535 O   0  0  0  0  0  0  0  0  0  0  0  0
   -2.4386   -1.2269    0.7251 O   0  0  0  0  0  0  0  0  0  0  0  0
    3.0342    0.3405    0.2492 O   0  0  0  0  0  0  0  0  0  0  0  0
   -1.3916   -1.3603   -1.3299 O   0  0  0  0  0  0  0  0  0  0  0  0
    0.7680    1.8265   -0.3888 C   0  0  0  0  0  0  0  0  0  0  0  0
   -0.9393    1.2542    0.9397 C   0  0  0  0  0  0  0  0  0  0  0  0
    0.7491    0.2809   -0.5067 C   0  0  0  0  0  0  0  0  0  0  0  0
   -0.3932   -0.1203    0.4760 C   0  0  0  0  0  0  0  0  0  0  0  0
    0.3699    2.0374    1.0795 C   0  0  0  0  0  0  0  0  0  0  0  0
   -0.4937    2.3421   -1.0398 C   0  0  0  0  0  0  0  0  0  0  0  0
   -1.5176    2.0000   -0.2441 C   0  0  0  0  0  0  0  0  0  0  0  0
    2.0591   -0.3161   -0.0904 C   0  0  0  0  0  0  0  0  0  0  0  0
   -1.4438   -0.9704   -0.1713 C   0  0  0  0  0  0  0  0  0  0  0  0
    3.1709   -2.3780    0.2197 C   0  0  0  0  0  0  0  0  0  0  0  0
   -3.5144   -2.0338    0.2354 C   0  0  0  0  0  0  0  0  0  0  0  0
  1 12  1  0
  1 14  1  0
  2 13  1  0
  2 15  1  0
  3 12  2  0
  4 13  2  0
  5  7  1  0
  5  9  1  0
  5 10  1  0
  6  8  1  0
  6  9  1  0
  6 11  1  0
  7  8  1  0
  7 12  1  0
  8 13  1  0
 10 11  2  0
M  END
>  <PUBCHEM_COMPOUND_CID>  (1) 
38295

>  <PUBCHEM_CONFORMER_RMSD>  (1) 
0.6

>  <PUBCHEM_CONFORMER_DIVERSEORDER>  (1) 
3
17
22
18
21
25
5
7
19
4
20
15
11
27
32
16
31
2
30
13
6
14
28
1
8
33
10
29
9
26
12
23
24

>  <PUBCHEM_MMFF94_PARTIAL_CHARGES>  (1) 
16
1 -0.43
10 -0.29
11 -0.29
12 0.66
13 0.66
14 0.28
15 0.28
2 -0.43
22 0.15
23 0.15
3 -0.57
4 -0.57
5 0.14
6 0.14
7 0.06
8 0.06

>  <PUBCHEM_EFFECTIVE_ROTOR_COUNT>  (1) 
4.6

>  <PUBCHEM_PHARMACOPHORE_FEATURES>  (1) 
3
1 3 acceptor
1 4 acceptor
7 5 6 7 8 9 10 11 rings

>  <PUBCHEM_HEAVY_ATOM_COUNT>  (1) 
15

>  <PUBCHEM_ATOM_DEF_STEREO_COUNT>  (1) 
0

>  <PUBCHEM_ATOM_UDEF_STEREO_COUNT>  (1) 
4

>  <PUBCHEM_BOND_DEF_STEREO_COUNT>  (1) 
0

>  <PUBCHEM_BOND_UDEF_STEREO_COUNT>  (1) 
0

>  <PUBCHEM_ISOTOPIC_ATOM_COUNT>  (1) 
0

>  <PUBCHEM_COMPONENT_COUNT>  (1) 
1

>  <PUBCHEM_CACTVS_TAUTO_COUNT>  (1) 
1

>  <PUBCHEM_CONFORMER_ID>  (1) 
0000959700000003

>  <PUBCHEM_MMFF94_ENERGY>  (1) 
47.9232

>  <PUBCHEM_FEATURE_SELFOVERLAP>  (1) 
15.223

>  <PUBCHEM_SHAPE_FINGERPRINT>  (1) 
1 1 17544759387941585429
11086676 242 18269295580378371649
12326174 3 17610038432691106137
12423570 1 10679119556589337664
13024252 1 14926511796351819688
14713566 1 17905600008842611704
15001771 113 18409739447331064592
15309172 13 17401493641460016688
15490181 8 17552647945784181500
16945 1 18199177571774967340
20645476 183 17249519191519122918
20645477 70 17829320638458610867
20708731 107 17830178265764055279
20871998 184 18128818547271857262
20871998 22 18410296946923689995
21296965 67 18410008849154966027
21501502 16 18336831875487197130
22802520 49 18116975849579429605
2334 1 18411702067186763598
23388829 49 18269273637290372100
23419403 2 17772720889004951353
23526113 38 17971158582922680511
23559900 14 17836358252011743746
257057 1 18410288112133932954
2748010 2 18342451492037983214
3250762 1 18339624690382264640
369184 2 17910949150213352360
528886 8 17543636786627953613
69090 78 18049153367814561484
81228 2 18334293124107304889

>  <PUBCHEM_SHAPE_MULTIPOLES>  (1) 
285.22
4.1
3.03
1
1.1
0.02
-0.03
-4.09
0.38
-0.64
-0.11
-0.25
0.27
0.09

>  <PUBCHEM_SHAPE_SELFOVERLAP>  (1) 
608.759

>  <PUBCHEM_SHAPE_VOLUME>  (1) 
163.5

>  <PUBCHEM_COORDINATE_TYPE>  (1) 
2
5
10

$$$$
