38309
     RDKit          3D

  8  8  0  0  1  0  0  0  0  0999 V2000
   -1.8104    1.6363   -0.7362 Br  0  0  0  0  0  0  0  0  0  0  0  0
   -1.7277   -1.5438    0.0469 O   0  0  0  0  0  0  0  0  0  0  0  0
    2.5790    0.0295   -0.3386 O   0  0  0  0  0  0  0  0  0  0  0  0
    0.5192   -1.0468   -0.2761 N   0  0  0  0  0  0  0  0  0  0  0  0
   -0.8156    0.6359    0.5969 C   0  0  0  0  0  0  0  0  0  0  0  0
    0.6368    1.0831    0.6512 C   0  0  0  0  0  0  0  0  0  0  0  0
   -0.7724   -0.7841    0.1115 C   0  0  0  0  0  0  0  0  0  0  0  0
    1.3910   -0.0101   -0.0555 C   0  0  0  0  0  0  0  0  0  0  0  0
  1  5  1  0
  2  7  2  0
  3  8  2  0
  4  7  1  0
  4  8  1  0
  5  6  1  0
  5  7  1  0
  6  8  1  0
M  END
>  <PUBCHEM_COMPOUND_CID>  (1) 
38309

>  <PUBCHEM_CONFORMER_RMSD>  (1) 
0.4

>  <PUBCHEM_CONFORMER_DIVERSEORDER>  (1) 
1
2

>  <PUBCHEM_MMFF94_PARTIAL_CHARGES>  (1) 
9
1 -0.23
12 0.37
2 -0.57
3 -0.57
4 -0.49
5 0.29
6 0.06
7 0.57
8 0.57

>  <PUBCHEM_EFFECTIVE_ROTOR_COUNT>  (1) 
0.6

>  <PUBCHEM_PHARMACOPHORE_FEATURES>  (1) 
5
1 1 hydrophobe
1 2 acceptor
1 3 acceptor
1 4 donor
5 4 5 6 7 8 rings

>  <PUBCHEM_HEAVY_ATOM_COUNT>  (1) 
8

>  <PUBCHEM_ATOM_DEF_STEREO_COUNT>  (1) 
0

>  <PUBCHEM_ATOM_UDEF_STEREO_COUNT>  (1) 
1

>  <PUBCHEM_BOND_DEF_STEREO_COUNT>  (1) 
0

>  <PUBCHEM_BOND_UDEF_STEREO_COUNT>  (1) 
0

>  <PUBCHEM_ISOTOPIC_ATOM_COUNT>  (1) 
0

>  <PUBCHEM_COMPONENT_COUNT>  (1) 
1

>  <PUBCHEM_CACTVS_TAUTO_COUNT>  (1) 
8

>  <PUBCHEM_CONFORMER_ID>  (1) 
000095A500000001

>  <PUBCHEM_MMFF94_ENERGY>  (1) 
11.3648

>  <PUBCHEM_FEATURE_SELFOVERLAP>  (1) 
25.371

>  <PUBCHEM_SHAPE_FINGERPRINT>  (1) 
137420 1 14277634961800755531
21040471 1 18265605481605586033
23552423 10 18335714823155280438
23552449 1 18408603686116273236
29004967 10 17903358456599485035

>  <PUBCHEM_SHAPE_MULTIPOLES>  (1) 
153.86
2.62
1.64
0.81
0.54
0.43
-0.02
-0.82
0.67
-0.84
0.05
-0.12
-0.19
0.26

>  <PUBCHEM_SHAPE_SELFOVERLAP>  (1) 
300.891

>  <PUBCHEM_SHAPE_VOLUME>  (1) 
95

>  <PUBCHEM_COORDINATE_TYPE>  (1) 
2
5
10

$$$$
