3831
     RDKit          3D

 27 30  0  0  1  0  0  0  0  0999 V2000
   -3.2112   -1.0383    0.3325 O   0  0  0  0  0  0  0  0  0  0  0  0
   -2.8280    0.0624   -2.3461 O   0  0  0  0  0  0  0  0  0  0  0  0
   -4.8547    2.0566   -0.0836 O   0  0  0  0  0  0  0  0  0  0  0  0
   -6.6645   -0.0461   -0.4393 O   0  0  0  0  0  0  0  0  0  0  0  0
   -4.5292   -2.7350    2.0436 O   0  0  0  0  0  0  0  0  0  0  0  0
    5.9769   -0.4360   -1.2091 O   0  0  0  0  0  0  0  0  0  0  0  0
   -1.0935   -0.0568   -0.0145 N   0  0  0  0  0  0  0  0  0  0  0  0
    0.8134   -1.1252   -0.4407 N   0  0  0  0  0  0  0  0  0  0  0  0
   -0.2190    2.0052    0.9242 N   0  0  0  0  0  0  0  0  0  0  0  0
    3.5097    0.1337    0.1840 N   0  0  0  0  0  0  0  0  0  0  0  0
    2.2209    1.9873    0.9776 N   0  0  0  0  0  0  0  0  0  0  0  0
   -3.0941    0.8753   -1.2048 C   0  0  0  0  0  0  0  0  0  0  0  0
   -4.6077    1.0641   -1.0790 C   0  0  0  0  0  0  0  0  0  0  0  0
   -2.5387    0.1960    0.0609 C   0  0  0  0  0  0  0  0  0  0  0  0
   -5.2792   -0.2584   -0.6831 C   0  0  0  0  0  0  0  0  0  0  0  0
   -4.6144   -0.8646    0.5597 C   0  0  0  0  0  0  0  0  0  0  0  0
   -5.1944   -2.2343    0.8983 C   0  0  0  0  0  0  0  0  0  0  0  0
   -0.0954    0.7836    0.3841 C   0  0  0  0  0  0  0  0  0  0  0  0
   -0.5004   -1.1894   -0.5020 C   0  0  0  0  0  0  0  0  0  0  0  0
    1.0802    0.1026    0.1110 C   0  0  0  0  0  0  0  0  0  0  0  0
    2.2702    0.7498    0.4284 C   0  0  0  0  0  0  0  0  0  0  0  0
    0.9974    2.5302    1.1883 C   0  0  0  0  0  0  0  0  0  0  0  0
    4.7645    0.7536    0.4907 C   0  0  0  0  0  0  0  0  0  0  0  0
    5.9301   -0.1130    0.0937 C   0  0  0  0  0  0  0  0  0  0  0  0
    6.9521   -0.6356    0.8060 C   0  0  0  0  0  0  0  0  0  0  0  0
    7.7218   -1.3602   -0.1351 C   0  0  0  0  0  0  0  0  0  0  0  0
    7.0872   -1.2076   -1.3459 C   0  0  0  0  0  0  0  0  0  0  0  0
  1 14  1  0
  1 16  1  0
  2 12  1  0
  3 13  1  0
  4 15  1  0
  5 17  1  0
  6 24  1  0
  6 27  1  0
  7 14  1  0
  7 18  1  0
  7 19  1  0
  8 19  2  0
  8 20  1  0
  9 18  1  0
  9 22  2  0
 10 21  1  0
 10 23  1  0
 11 21  2  0
 11 22  1  0
 12 13  1  0
 12 14  1  0
 13 15  1  0
 15 16  1  0
 16 17  1  0
 18 20  2  0
 20 21  1  0
 23 24  1  0
 24 25  2  0
 25 26  1  0
 26 27  2  0
M  END
>  <PUBCHEM_COMPOUND_CID>  (1) 
3831

>  <PUBCHEM_CONFORMER_RMSD>  (1) 
1

>  <PUBCHEM_CONFORMER_DIVERSEORDER>  (1) 
1
186
358
259
252
312
6
203
250
39
389
295
247
137
279
117
254
8
85
207
392
59
171
352
278
221
31
136
373
89
178
349
365
149
33
410
51
412
347
147
305
224
163
233
331
325
324
143
213
393
406
280
103
322
195
68
271
364
311
341
408
354
300
346
97
384
81
53
380
256
397
265
9
77
45
102
245
110
237
146
157
200
180
368
50
340
304
378
333
209
76
40
131
284
198
303
337
411
133
27
323
15
159
377
413
418
390
44
335
267
396
25
314
125
140
161
275
162
75
160
172
371
87
266
309
353
273
370
283
166
139
135
394
398
226
308
95
2
386
80
155
120
289
109
407
188
150
391
342
366
130
420
82
363
236
35
47
234
126
282
339
38
306
107
242
55
158
261
350
238
132
22
329
285
122
251
293
173
170
88
169
269
201
187
17
385
11
111
399
177
52
93
48
69
144
176
291
301
192
288
334
318
100
231
54
228
151
145
42
175
264
18
98
223
21
367
167
105
57
212
23
361
90
330
310
215
183
239
286
409
13
214
379
307
168
34
351
382
128
281
248
26
14
219
360
369
211
297
268
359
60
416
134
64
63
336
315
148
235
124
262
67
299
79
164
16
387
108
70
46
243
84
49
101
191
276
225
404
355
321
319
274
287
104
72
12
91
156
417
388
402
415
118
232
127
114
220
113
36
202
61
165
141
272
258
174
206
199
115
362
154
41
227
194
99
249
142
7
290
3
230
94
4
294
10
86
121
343
326
123
73
277
327
344
24
66
204
400
317
30
244
270
320
129
222
419
92
229
292
71
19
217
255
182
58
190
253
216
37
153
78
189
260
179
32
74
43
395
205
345
316
414
374
208
381
65
20
241
328
357
375
356
29
376
112
106
302
193
296
181
152
184
197
96
313
332
116
240
210
56
5
348
403
338
196
401
257
263
28
62
218
138
298
421
383
405
83
372
119
185
246

>  <PUBCHEM_MMFF94_PARTIAL_CHARGES>  (1) 
37
1 -0.56
10 -0.87
11 -0.62
12 0.28
13 0.28
14 0.54
15 0.28
16 0.28
17 0.28
18 0.11
19 0.04
2 -0.68
20 0.23
21 0.41
22 0.47
23 0.55
24 -0.04
25 -0.15
26 -0.15
27 -0.01
3 -0.68
35 0.4
36 0.4
37 0.4
38 0.15
39 0.4
4 -0.68
40 0.4
41 0.15
44 0.15
45 0.15
46 0.15
5 -0.68
6 -0.28
7 0.05
8 -0.57
9 -0.57

>  <PUBCHEM_EFFECTIVE_ROTOR_COUNT>  (1) 
6.2

>  <PUBCHEM_PHARMACOPHORE_FEATURES>  (1) 
19
1 1 acceptor
1 10 cation
1 10 donor
1 2 acceptor
1 2 donor
1 3 acceptor
1 3 donor
1 4 acceptor
1 4 donor
1 5 acceptor
1 5 donor
1 6 acceptor
3 7 8 19 cation
3 7 9 18 cation
3 9 11 22 cation
5 6 24 25 26 27 rings
5 7 8 18 19 20 rings
6 1 12 13 14 15 16 rings
6 9 11 18 20 21 22 rings

>  <PUBCHEM_HEAVY_ATOM_COUNT>  (1) 
27

>  <PUBCHEM_ATOM_DEF_STEREO_COUNT>  (1) 
0

>  <PUBCHEM_ATOM_UDEF_STEREO_COUNT>  (1) 
5

>  <PUBCHEM_BOND_DEF_STEREO_COUNT>  (1) 
0

>  <PUBCHEM_BOND_UDEF_STEREO_COUNT>  (1) 
0

>  <PUBCHEM_ISOTOPIC_ATOM_COUNT>  (1) 
0

>  <PUBCHEM_COMPONENT_COUNT>  (1) 
1

>  <PUBCHEM_CACTVS_TAUTO_COUNT>  (1) 
3

>  <PUBCHEM_CONFORMER_ID>  (1) 
00000EF700000001

>  <PUBCHEM_MMFF94_ENERGY>  (1) 
57.0684

>  <PUBCHEM_FEATURE_SELFOVERLAP>  (1) 
97.046

>  <PUBCHEM_SHAPE_FINGERPRINT>  (1) 
10165383 225 18042122077746064037
11273773 46 18336831888610222894
11315181 36 17967817154343099381
11393246 34 18339641265236157239
11524674 6 18201438103558547743
11545043 162 18261954145487264241
11578080 2 17170377521562295287
11646440 116 17846502539172055010
12166972 35 18186808002234499116
12236239 1 18113057130335352588
12516196 113 17774999081846311792
12760667 363 17917711280068302704
13673619 4 18188215406844758363
13685833 64 18273496780380927178
13782708 43 18336267967208001434
13862211 1 18131911559749064214
14251752 14 18261109656322559052
14840074 17 17060335202546485134
14856354 85 18040721359486462503
14955137 171 18343022237183239896
15183329 4 17385723574158879564
18927931 339 17967532415587265963
21150785 3 17530970194302068150
21236236 1 17917713440163053120
21267235 1 18273215300349873233
21279426 13 18342451526477368952
21682296 61 18273500091115137463
21792934 111 18060126636168960304
21792961 116 18337388244996852670
220451 1 17312818256260330256
22224240 67 10737291233575357316
2297311 6 17894910737360287493
2303208 19 18409168848436515314
23081809 10 15267342955189981704
23198884 109 16370727015600554156
23402539 116 17775558728748459876
23536379 177 17240480282863232860
23559900 14 18113612422066627609
23569943 247 17274264920700307518
24771750 20 17687751949604750492
249057 25 14979955921272634049
3004659 81 18408322182098002372
335352 9 18201434791832086301
3383291 50 18272087210696161674
444769 64 17703789193756076054
5265222 85 17749681799956425730
5758199 1 12179844974500372061
58902169 19 16298391271212960558
59755656 215 18341332206718789414
6138700 20 18272369737801904190
636775 8 18339094743928087318
8863177 126 18264774448589575626

>  <PUBCHEM_SHAPE_MULTIPOLES>  (1) 
495.53
19.39
2.13
1.35
23.45
0.22
-0.21
-9.15
-2.32
-1.5
1.02
-0.84
-0.28
2.53

>  <PUBCHEM_SHAPE_SELFOVERLAP>  (1) 
1078.334

>  <PUBCHEM_SHAPE_VOLUME>  (1) 
264.6

>  <PUBCHEM_COORDINATE_TYPE>  (1) 
2
5
10

$$$$
