3832
     RDKit          3D

 25 28  0  0  1  0  0  0  0  0999 V2000
    3.8413   -0.2710    0.7838 O   0  0  0  0  0  0  0  0  0  0  0  0
    3.6037    2.7421   -0.4796 O   0  0  0  0  0  0  0  0  0  0  0  0
    4.0125   -0.3618   -2.2178 O   0  0  0  0  0  0  0  0  0  0  0  0
    6.2669   -1.6547    1.0945 O   0  0  0  0  0  0  0  0  0  0  0  0
   -5.2897   -0.7666   -1.2386 O   0  0  0  0  0  0  0  0  0  0  0  0
    1.5317   -0.0545    0.2945 N   0  0  0  0  0  0  0  0  0  0  0  0
    0.1151   -1.7015   -0.2057 N   0  0  0  0  0  0  0  0  0  0  0  0
   -0.0369    1.6110    1.1104 N   0  0  0  0  0  0  0  0  0  0  0  0
   -2.8801   -1.4031    0.2247 N   0  0  0  0  0  0  0  0  0  0  0  0
   -2.3316    0.7848    1.0241 N   0  0  0  0  0  0  0  0  0  0  0  0
    3.2336    1.4081   -0.8204 C   0  0  0  0  0  0  0  0  0  0  0  0
    2.7998    0.6620    0.4447 C   0  0  0  0  0  0  0  0  0  0  0  0
    4.4479    0.6398   -1.3074 C   0  0  0  0  0  0  0  0  0  0  0  0
    4.9934    0.0313   -0.0203 C   0  0  0  0  0  0  0  0  0  0  0  0
    5.8298   -1.2242   -0.1845 C   0  0  0  0  0  0  0  0  0  0  0  0
    0.2860    0.4106    0.6061 C   0  0  0  0  0  0  0  0  0  0  0  0
    1.3771   -1.3265   -0.1897 C   0  0  0  0  0  0  0  0  0  0  0  0
   -0.5780   -0.6255    0.2892 C   0  0  0  0  0  0  0  0  0  0  0  0
   -1.9331   -0.4062    0.5160 C   0  0  0  0  0  0  0  0  0  0  0  0
   -1.3729    1.7058    1.2860 C   0  0  0  0  0  0  0  0  0  0  0  0
   -4.1938   -1.4240    0.7963 C   0  0  0  0  0  0  0  0  0  0  0  0
   -5.1366   -0.5024    0.0694 C   0  0  0  0  0  0  0  0  0  0  0  0
   -5.8684    0.5542    0.4853 C   0  0  0  0  0  0  0  0  0  0  0  0
   -6.5516    1.0042   -0.6696 C   0  0  0  0  0  0  0  0  0  0  0  0
   -6.1661    0.1680   -1.6914 C   0  0  0  0  0  0  0  0  0  0  0  0
  1 12  1  0
  1 14  1  0
  2 11  1  0
  3 13  1  0
  4 15  1  0
  5 22  1  0
  5 25  1  0
  6 12  1  0
  6 16  1  0
  6 17  1  0
  7 17  2  0
  7 18  1  0
  8 16  1  0
  8 20  2  0
  9 19  1  0
  9 21  1  0
 10 19  2  0
 10 20  1  0
 11 12  1  0
 11 13  1  0
 13 14  1  0
 14 15  1  0
 16 18  2  0
 18 19  1  0
 21 22  1  0
 22 23  2  0
 23 24  1  0
 24 25  2  0
M  END
>  <PUBCHEM_COMPOUND_CID>  (1) 
3832

>  <PUBCHEM_CONFORMER_RMSD>  (1) 
1

>  <PUBCHEM_CONFORMER_DIVERSEORDER>  (1) 
3
206
187
104
33
194
74
97
63
90
257
44
176
198
158
228
250
180
18
254
40
109
237
209
46
215
9
219
221
5
1
53
246
186
216
82
24
98
25
208
217
249
36
211
95
139
7
93
171
240
41
148
245
125
142
34
229
39
100
234
185
6
172
52
256
147
13
94
112
137
22
196
169
77
231
79
92
121
35
48
150
30
4
191
28
243
128
60
255
202
62
190
251
45
29
58
192
31
252
201
57
178
66
157
200
213
20
116
122
225
111
117
17
138
179
70
51
55
72
232
223
205
99
155
64
146
37
184
253
59
96
54
84
183
204
91
170
165
47
144
19
8
49
160
161
85
23
140
42
61
193
11
226
10
210
32
124
149
73
129
106
247
156
14
239
27
56
212
71
199
123
224
86
162
105
143
115
67
21
131
141
81
87
2
65
214
220
248
80
166
227
151
244
130
16
103
189
153
69
68
12
177
113
136
88
168
127
159
83
43
119
110
218
133
38
222
76
107
118
163
235
182
195
26
242
230
241
120
135
101
89
175
152
164
108
173
78
50
181
233
236
132
102
126
167
174
145
114
75
15
238
154
188
207
134
197
203

>  <PUBCHEM_MMFF94_PARTIAL_CHARGES>  (1) 
34
1 -0.56
10 -0.62
11 0.28
12 0.54
13 0.28
14 0.28
15 0.28
16 0.11
17 0.04
18 0.23
19 0.41
2 -0.68
20 0.47
21 0.55
22 -0.04
23 -0.15
24 -0.15
25 -0.01
3 -0.68
32 0.4
33 0.4
34 0.15
35 0.4
36 0.4
37 0.15
4 -0.68
40 0.15
41 0.15
42 0.15
5 -0.28
6 0.05
7 -0.57
8 -0.57
9 -0.87

>  <PUBCHEM_EFFECTIVE_ROTOR_COUNT>  (1) 
6

>  <PUBCHEM_PHARMACOPHORE_FEATURES>  (1) 
17
1 1 acceptor
1 2 acceptor
1 2 donor
1 3 acceptor
1 3 donor
1 4 acceptor
1 4 donor
1 5 acceptor
1 9 cation
1 9 donor
3 6 7 17 cation
3 6 8 16 cation
3 8 10 20 cation
5 1 11 12 13 14 rings
5 5 22 23 24 25 rings
5 6 7 16 17 18 rings
6 8 10 16 18 19 20 rings

>  <PUBCHEM_HEAVY_ATOM_COUNT>  (1) 
25

>  <PUBCHEM_ATOM_DEF_STEREO_COUNT>  (1) 
0

>  <PUBCHEM_ATOM_UDEF_STEREO_COUNT>  (1) 
4

>  <PUBCHEM_BOND_DEF_STEREO_COUNT>  (1) 
0

>  <PUBCHEM_BOND_UDEF_STEREO_COUNT>  (1) 
0

>  <PUBCHEM_ISOTOPIC_ATOM_COUNT>  (1) 
0

>  <PUBCHEM_COMPONENT_COUNT>  (1) 
1

>  <PUBCHEM_CACTVS_TAUTO_COUNT>  (1) 
3

>  <PUBCHEM_CONFORMER_ID>  (1) 
00000EF800000003

>  <PUBCHEM_MMFF94_ENERGY>  (1) 
51.6049

>  <PUBCHEM_FEATURE_SELFOVERLAP>  (1) 
86.884

>  <PUBCHEM_SHAPE_FINGERPRINT>  (1) 
10 15 9295287249038594031
10763959 59 17603871125921222716
11724838 91 12103554291292826138
11796584 16 18113337526795906770
12166972 35 18334295366265291292
12236239 1 18259705618475744034
12516196 113 14476960090920552491
12596602 18 12463578360942575623
12670543 26 18413108351306632493
13533116 47 18343018862014295354
13862211 1 18059853978258746379
13914758 101 17895189944319770736
14251732 16 12535621682835716682
14251752 14 18260825969284658105
14294032 229 18053956056170143393
14849402 71 12468940692379396791
14933364 13 16588026805622477367
15183329 4 18335420162581361861
15685185 35 11813884714925536466
17857418 61 17846781788691236686
1813 80 14404914603947175897
18222031 100 17275389823604297009
19377110 9 11959723859137140826
200 152 17561365093555730531
20281389 69 17749105608776696525
21033648 29 15430327987470642332
21623969 137 12103847860380822093
21637258 2 14692574290888399749
21641784 216 18336277747302559805
21792961 116 18334579032207806747
21859007 373 18115286930873653348
22079108 93 12895065219937631118
22224240 67 15697991947670557366
22393880 68 18059563742208160983
23402539 116 17989485229949482887
23536379 177 17240482511619080251
23559900 14 18336826493471364552
23569914 152 16693586270104280677
23929065 36 17702654441763719377
25147074 1 18127695928973087379
2838139 119 18333444331844285925
29717793 49 18413111649915388446
3004659 81 18334010592800559634
3009799 131 18272365386562274465
5283173 99 18260544486019128485
542803 24 15357696405238872739
59755656 215 18271528602611486526
6913067 236 16917351424155945237
7495541 125 11743835876484512251
8988823 20 16343701054144199640

>  <PUBCHEM_SHAPE_MULTIPOLES>  (1) 
460.24
16.48
1.8
1.35
7.9
0.45
0.48
-1.39
4.69
-1.13
-0.18
0.12
0.18
-0.53

>  <PUBCHEM_SHAPE_SELFOVERLAP>  (1) 
1007.585

>  <PUBCHEM_SHAPE_VOLUME>  (1) 
245.5

>  <PUBCHEM_COORDINATE_TYPE>  (1) 
2
5
10

$$$$
