38327
     RDKit          3D

 17 17  0  0  0  0  0  0  0  0999 V2000
   -1.4057    1.5440    1.1013 O   0  0  0  0  0  0  0  0  0  0  0  0
   -3.4946   -0.7604   -1.4278 O   0  0  0  0  0  0  0  0  0  0  0  0
    5.1877    0.8145   -0.8698 O   0  0  0  0  0  0  0  0  0  0  0  0
    5.0913   -1.2933   -0.2642 O   0  0  0  0  0  0  0  0  0  0  0  0
   -5.9223    0.4023   -1.2111 O   0  0  0  0  0  0  0  0  0  0  0  0
   -1.7472   -0.7152    0.7059 N   0  0  0  0  0  0  0  0  0  0  0  0
    4.5492   -0.1747   -0.4355 N   0  0  0  0  0  0  0  0  0  0  0  0
   -5.1315    0.1563   -0.0806 N   0  0  0  0  0  0  0  0  0  0  0  0
    0.4641    0.2746    0.4762 C   0  0  0  0  0  0  0  0  0  0  0  0
   -0.9470    0.4301    0.7916 C   0  0  0  0  0  0  0  0  0  0  0  0
    1.1941    1.3601   -0.0079 C   0  0  0  0  0  0  0  0  0  0  0  0
    1.0876   -0.9599    0.6581 C   0  0  0  0  0  0  0  0  0  0  0  0
   -3.1690   -0.7176    0.9654 C   0  0  0  0  0  0  0  0  0  0  0  0
    3.1713   -0.0233   -0.1280 C   0  0  0  0  0  0  0  0  0  0  0  0
    2.5477    1.2111   -0.3100 C   0  0  0  0  0  0  0  0  0  0  0  0
    2.4413   -1.1089    0.3561 C   0  0  0  0  0  0  0  0  0  0  0  0
   -3.9171   -0.4398   -0.3196 C   0  0  0  0  0  0  0  0  0  0  0  0
  1 10  2  0
  2 17  2  0
  3  7  1  0
  4  7  2  0
  5  8  1  0
  6 10  1  0
  6 13  1  0
  7 14  1  0
  8 17  1  0
  9 10  1  0
  9 11  2  0
  9 12  1  0
 11 15  1  0
 12 16  2  0
 13 17  1  0
 14 15  2  0
 14 16  1  0
M  CHG  2   3  -1   7   1
M  END
>  <PUBCHEM_COMPOUND_CID>  (1) 
38327

>  <PUBCHEM_CONFORMER_RMSD>  (1) 
0.8

>  <PUBCHEM_CONFORMER_DIVERSEORDER>  (1) 
1
2
4
3

>  <PUBCHEM_MMFF94_PARTIAL_CHARGES>  (1) 
24
1 -0.57
10 0.54
11 -0.15
12 -0.15
13 0.36
14 0.13
15 -0.15
16 -0.15
17 0.57
18 0.15
19 0.15
2 -0.57
22 0.37
23 0.15
24 0.15
25 0.37
26 0.4
3 -0.52
4 -0.52
5 -0.44
6 -0.73
7 0.91
8 -0.39
9 0.09

>  <PUBCHEM_EFFECTIVE_ROTOR_COUNT>  (1) 
6

>  <PUBCHEM_PHARMACOPHORE_FEATURES>  (1) 
8
1 1 acceptor
1 2 acceptor
1 3 acceptor
1 3 anion
1 4 acceptor
1 6 donor
1 8 donor
6 9 11 12 14 15 16 rings

>  <PUBCHEM_HEAVY_ATOM_COUNT>  (1) 
17

>  <PUBCHEM_ATOM_DEF_STEREO_COUNT>  (1) 
0

>  <PUBCHEM_ATOM_UDEF_STEREO_COUNT>  (1) 
0

>  <PUBCHEM_BOND_DEF_STEREO_COUNT>  (1) 
0

>  <PUBCHEM_BOND_UDEF_STEREO_COUNT>  (1) 
0

>  <PUBCHEM_ISOTOPIC_ATOM_COUNT>  (1) 
0

>  <PUBCHEM_COMPONENT_COUNT>  (1) 
1

>  <PUBCHEM_CACTVS_TAUTO_COUNT>  (1) 
6

>  <PUBCHEM_CONFORMER_ID>  (1) 
000095B700000001

>  <PUBCHEM_MMFF94_ENERGY>  (1) 
46.7584

>  <PUBCHEM_FEATURE_SELFOVERLAP>  (1) 
40.679

>  <PUBCHEM_SHAPE_FINGERPRINT>  (1) 
100836 57 15285358409907983967
10354089 29 7925913694411097862
106641 1 10159684807482996455
11046707 91 17203610393450166515
11401426 45 18334858346414683424
11471102 20 18334017207298037066
12236239 1 18202286900701102291
12251169 10 9871746897208329561
12596602 18 9439403531888064407
12670543 26 18261110738205905327
12815109 37 18060699494041720299
12916748 109 13334734600805117191
13760787 5 18341906206973872601
14251764 18 8790598179401139228
14252887 29 11023839374517023196
14576447 43 18343298188789783670
14911166 2 18334859428335128266
17834072 8 18410851054267254309
18186145 218 17822566200788769681
18222031 100 16487254382803445752
200 152 18343866619137058721
20645477 56 16370443363186233355
20645477 70 18114181895912491234
21029758 11 18341618135249493072
21119208 17 18411138047712483211
21637258 2 16630531683448479126
221357 26 18260539014214917653
23402539 116 18131636659824179208
23402655 69 18334292054902937021
23557571 272 16343434916079309632
23559900 14 18342174531056369048
2871803 45 18334016064762974274
2916195 48 15285357349056356437
29717793 49 18060143111151447044
3009799 131 18335133198668114904
32948 21 17675923187998659028
4047638 21 12973604430652341896
4072396 5 17968363607701547202
42 15 11959735970960817835
449060 50 8790887371748285240
602551 16 15913324715031138342

>  <PUBCHEM_SHAPE_MULTIPOLES>  (1) 
305.56
11.52
1.3
1.04
4.77
0.12
0.08
-0.42
4.95
-0.76
-0.13
0.9
0.04
-0.05

>  <PUBCHEM_SHAPE_SELFOVERLAP>  (1) 
635.579

>  <PUBCHEM_SHAPE_VOLUME>  (1) 
173.8

>  <PUBCHEM_COORDINATE_TYPE>  (1) 
2
5
10

$$$$
