38325
     RDKit          3D

 20 21  0  0  0  0  0  0  0  0999 V2000
   -0.6040   -0.4152   -1.8710 O   0  0  0  0  0  0  0  0  0  0  0  0
    3.6223    0.0879   -0.1430 N   0  0  0  0  0  0  0  0  0  0  0  0
    0.0059   -0.6393    0.3558 N   0  0  0  0  0  0  0  0  0  0  0  0
   -6.2285    0.6829    0.8667 N   0  0  0  0  0  0  0  0  0  0  0  0
    4.1653   -0.7575    0.9295 C   0  0  0  0  0  0  0  0  0  0  0  0
    4.3900    1.3337   -0.2779 C   0  0  0  0  0  0  0  0  0  0  0  0
    5.6286   -1.1146    0.6635 C   0  0  0  0  0  0  0  0  0  0  0  0
    5.8606    1.0452   -0.5832 C   0  0  0  0  0  0  0  0  0  0  0  0
    6.4787    0.1365    0.4734 C   0  0  0  0  0  0  0  0  0  0  0  0
    2.2103    0.3811    0.1019 C   0  0  0  0  0  0  0  0  0  0  0  0
    1.3995   -0.9063    0.1259 C   0  0  0  0  0  0  0  0  0  0  0  0
   -0.8953   -0.4121   -0.6778 C   0  0  0  0  0  0  0  0  0  0  0  0
   -2.2955   -0.1245   -0.2733 C   0  0  0  0  0  0  0  0  0  0  0  0
   -2.6743    1.1857   -0.0523 C   0  0  0  0  0  0  0  0  0  0  0  0
   -3.1810   -1.1753   -0.1279 C   0  0  0  0  0  0  0  0  0  0  0  0
   -3.9887    1.4556    0.3286 C   0  0  0  0  0  0  0  0  0  0  0  0
   -4.4955   -0.9055    0.2529 C   0  0  0  0  0  0  0  0  0  0  0  0
   -4.8994    0.4100    0.4812 C   0  0  0  0  0  0  0  0  0  0  0  0
   -1.7219    2.3263   -0.2093 C   0  0  0  0  0  0  0  0  0  0  0  0
   -2.7769   -2.5945   -0.3640 C   0  0  0  0  0  0  0  0  0  0  0  0
  1 12  2  0
  2  5  1  0
  2  6  1  0
  2 10  1  0
  3 11  1  0
  3 12  1  0
  4 18  1  0
  5  7  1  0
  6  8  1  0
  7  9  1  0
  8  9  1  0
 10 11  1  0
 12 13  1  0
 13 14  2  0
 13 15  1  0
 14 16  1  0
 14 19  1  0
 15 17  2  0
 15 20  1  0
 16 18  2  0
 17 18  1  0
M  END
>  <PUBCHEM_COMPOUND_CID>  (1) 
38325

>  <PUBCHEM_CONFORMER_RMSD>  (1) 
0.8

>  <PUBCHEM_CONFORMER_DIVERSEORDER>  (1) 
2
7
9
5
1
6
10
3
15
4
8
11
14
12
13

>  <PUBCHEM_MMFF94_PARTIAL_CHARGES>  (1) 
22
1 -0.57
10 0.27
11 0.3
12 0.54
13 0.09
14 -0.14
15 -0.14
16 -0.15
17 -0.15
18 0.1
19 0.14
2 -0.81
20 0.14
3 -0.73
35 0.37
36 0.15
37 0.15
4 -0.9
44 0.4
45 0.4
5 0.27
6 0.27

>  <PUBCHEM_EFFECTIVE_ROTOR_COUNT>  (1) 
6.2

>  <PUBCHEM_PHARMACOPHORE_FEATURES>  (1) 
7
1 1 acceptor
1 2 cation
1 3 donor
1 4 cation
1 4 donor
6 13 14 15 16 17 18 rings
6 2 5 6 7 8 9 rings

>  <PUBCHEM_HEAVY_ATOM_COUNT>  (1) 
20

>  <PUBCHEM_ATOM_DEF_STEREO_COUNT>  (1) 
0

>  <PUBCHEM_ATOM_UDEF_STEREO_COUNT>  (1) 
0

>  <PUBCHEM_BOND_DEF_STEREO_COUNT>  (1) 
0

>  <PUBCHEM_BOND_UDEF_STEREO_COUNT>  (1) 
0

>  <PUBCHEM_ISOTOPIC_ATOM_COUNT>  (1) 
0

>  <PUBCHEM_COMPONENT_COUNT>  (1) 
1

>  <PUBCHEM_CACTVS_TAUTO_COUNT>  (1) 
3

>  <PUBCHEM_CONFORMER_ID>  (1) 
000095B500000002

>  <PUBCHEM_MMFF94_ENERGY>  (1) 
48.0083

>  <PUBCHEM_FEATURE_SELFOVERLAP>  (1) 
35.52

>  <PUBCHEM_SHAPE_FINGERPRINT>  (1) 
10354089 29 18187085053489515072
10595046 47 18335419114777945202
10730089 173 18413392038228781056
10912923 1 18187639228687626794
11315181 36 18260546761755352143
12107183 9 17686048397690383904
12236239 1 18113900472131885686
12390115 104 17915756288275657449
12516196 113 12179845013571705166
12596602 18 17749110001874190936
12616971 3 17385726936633170942
12916748 109 18335987489222404792
13167823 11 18334008398331149818
13533116 47 17894627020526693338
13897977 58 18411139143061109885
1420 363 15430036556722348618
14251764 18 18341614832709396211
14341114 176 18333734598291776132
14341114 328 18407760330790928832
14844126 61 18264490762153516171
14849402 71 18188208836342257260
14933364 13 18412829092923527600
15250474 111 18336811074914188466
17834072 33 18260828220206165394
17844677 252 18409733941852982016
1813 80 16878234060552260710
19784866 170 18342462534515062679
200 152 8430597215462502662
20281389 69 18412261727142696832
20645477 56 18272369763313206023
220451 1 18259704515049080270
23198884 109 12463570673335886489
23402539 116 18411414042115875494
23536379 177 18410573977231540330
23559900 14 18339916120971367544
3545911 37 18343303647856409322
4073 2 18041284370007587890
4214541 1 18410008836644253200
5104073 3 18337104670192669554
5283173 99 9295299326133819694
542803 24 18409446999198209330
59755656 215 18131078087080931214
59755656 520 17385442141694492802
9996256 80 18411135852989677522

>  <PUBCHEM_SHAPE_MULTIPOLES>  (1) 
390.78
15.62
1.9
0.93
14.64
0.07
0.18
-1.75
-3.48
-1.41
0.13
0.04
0.08
-1.07

>  <PUBCHEM_SHAPE_SELFOVERLAP>  (1) 
806.511

>  <PUBCHEM_SHAPE_VOLUME>  (1) 
226.4

>  <PUBCHEM_COORDINATE_TYPE>  (1) 
2
5
10

$$$$
