38320
     RDKit          3D

 18 19  0  0  0  0  0  0  0  0999 V2000
   -6.6391    0.3925   -0.1966 O   0  0  0  0  0  0  0  0  0  0  0  0
   -4.7855    1.6555    0.1547 O   0  0  0  0  0  0  0  0  0  0  0  0
    1.0932   -0.1803    0.3449 N   0  0  0  0  0  0  0  0  0  0  0  0
    1.9483    0.0183   -0.7841 C   0  0  0  0  0  0  0  0  0  0  0  0
   -0.3055   -0.3223    0.2310 C   0  0  0  0  0  0  0  0  0  0  0  0
   -3.0720   -0.6035    0.0065 C   0  0  0  0  0  0  0  0  0  0  0  0
    3.3969    0.1027   -0.3827 C   0  0  0  0  0  0  0  0  0  0  0  0
   -0.9121   -0.2712   -1.0240 C   0  0  0  0  0  0  0  0  0  0  0  0
   -1.0820   -0.5136    1.3737 C   0  0  0  0  0  0  0  0  0  0  0  0
   -2.2953   -0.4119   -1.1362 C   0  0  0  0  0  0  0  0  0  0  0  0
   -2.4653   -0.6542    1.2615 C   0  0  0  0  0  0  0  0  0  0  0  0
   -4.5508   -0.7536   -0.1134 C   0  0  0  0  0  0  0  0  0  0  0  0
    3.9486    1.3373   -0.0704 C   0  0  0  0  0  0  0  0  0  0  0  0
    4.1603   -1.0552   -0.3307 C   0  0  0  0  0  0  0  0  0  0  0  0
    5.2906    1.4157    0.3015 C   0  0  0  0  0  0  0  0  0  0  0  0
    5.5025   -0.9768    0.0411 C   0  0  0  0  0  0  0  0  0  0  0  0
    6.0677    0.2587    0.3573 C   0  0  0  0  0  0  0  0  0  0  0  0
   -5.3004    0.5618   -0.0337 C   0  0  0  0  0  0  0  0  0  0  0  0
  1 18  1  0
  2 18  2  0
  3  4  1  0
  3  5  1  0
  4  7  1  0
  5  8  2  0
  5  9  1  0
  6 10  2  0
  6 11  1  0
  6 12  1  0
  7 13  2  0
  7 14  1  0
  8 10  1  0
  9 11  2  0
 12 18  1  0
 13 15  1  0
 14 16  2  0
 15 17  2  0
 16 17  1  0
M  END
>  <PUBCHEM_COMPOUND_CID>  (1) 
38320

>  <PUBCHEM_CONFORMER_RMSD>  (1) 
0.6

>  <PUBCHEM_CONFORMER_DIVERSEORDER>  (1) 
1
29
56
46
64
19
37
61
39
5
8
45
15
32
22
58
13
54
2
65
52
63
41
38
12
11
21
27
42
18
48
6
60
31
24
30
3
50
4
9
49
55
28
14
33
59
57
44
17
10
7
23
16
43
53
40
62
25
51
34
47
20
35
36
26

>  <PUBCHEM_MMFF94_PARTIAL_CHARGES>  (1) 
29
1 -0.65
10 -0.15
11 -0.15
12 0.2
13 -0.15
14 -0.15
15 -0.15
16 -0.15
17 -0.15
18 0.66
2 -0.57
21 0.4
22 0.15
23 0.15
24 0.15
25 0.15
28 0.15
29 0.15
3 -0.87
30 0.15
31 0.15
32 0.15
33 0.5
4 0.51
5 0.1
6 -0.14
7 -0.14
8 -0.15
9 -0.15

>  <PUBCHEM_EFFECTIVE_ROTOR_COUNT>  (1) 
5

>  <PUBCHEM_PHARMACOPHORE_FEATURES>  (1) 
7
1 1 acceptor
1 2 acceptor
1 3 cation
1 3 donor
3 1 2 18 anion
6 5 6 8 9 10 11 rings
6 7 13 14 15 16 17 rings

>  <PUBCHEM_HEAVY_ATOM_COUNT>  (1) 
18

>  <PUBCHEM_ATOM_DEF_STEREO_COUNT>  (1) 
0

>  <PUBCHEM_ATOM_UDEF_STEREO_COUNT>  (1) 
0

>  <PUBCHEM_BOND_DEF_STEREO_COUNT>  (1) 
0

>  <PUBCHEM_BOND_UDEF_STEREO_COUNT>  (1) 
0

>  <PUBCHEM_ISOTOPIC_ATOM_COUNT>  (1) 
0

>  <PUBCHEM_COMPONENT_COUNT>  (1) 
1

>  <PUBCHEM_CACTVS_TAUTO_COUNT>  (1) 
1

>  <PUBCHEM_CONFORMER_ID>  (1) 
000095B000000001

>  <PUBCHEM_MMFF94_ENERGY>  (1) 
51.5329

>  <PUBCHEM_FEATURE_SELFOVERLAP>  (1) 
35.578

>  <PUBCHEM_SHAPE_FINGERPRINT>  (1) 
10968037 39 15123508129446321719
11405975 8 17168715244427444080
117890 112 18413109454717867928
12236239 1 17846778516258388678
12390115 104 17096641012050280485
12916748 109 15357694180735821068
13167372 99 18343304721498461488
13533116 47 17968371243969211986
13862211 1 15357695323023282171
14123238 8 14045744820119210378
14123256 10 14477243764477237845
1420 363 11671781580759603165
14251718 22 10664100056081300052
14251752 14 18060135414380044416
14251764 18 16660651798809684958
15048467 5 18272369763613879925
15183329 4 18272653428470179705
15537594 2 14634866466096603616
15716309 27 10953458531390125753
19141452 34 17749392606480352842
19489759 90 18409450284795410881
200 152 18344145899459372954
20157964 124 18201722838361967262
20281389 69 18408322172891201117
20645477 56 16950277416625720343
20645477 70 18410573960284247318
21150785 3 17131826595277522437
21267235 1 13407070376070281274
22224240 67 16877663466295140777
23035841 295 8502655904886078205
23402539 116 18410289233341638215
23536379 177 18413388726550299163
23559900 14 17168433757087934822
26918003 58 18408042935803065250
2838139 119 18342452600541154285
29717793 49 16988571186792875644
300161 21 17632291302887056006
3009799 131 15913324668160862425
34797466 226 12895071860078306048
351380 180 18410012152174649272
351380 3 13839981131812800492
3545911 37 17022619766974280626
4073 2 18041846224475342738
42788 4 18412825793586810518
4325135 7 11600001064073894184
5104073 3 16154282748235199384
5283173 99 18271525290959742345
5385378 56 16950840293649042475
542803 24 18040998462170511396
59755656 215 17168423766593538994
59755656 520 17967247611763039731

>  <PUBCHEM_SHAPE_MULTIPOLES>  (1) 
353.71
15.92
1.2
1.02
0.13
0.32
-0.09
3.34
-0.37
-0.5
-0.06
0.4
-0.15
0.25

>  <PUBCHEM_SHAPE_SELFOVERLAP>  (1) 
750.318

>  <PUBCHEM_SHAPE_VOLUME>  (1) 
196.7

>  <PUBCHEM_COORDINATE_TYPE>  (1) 
2
5
10

$$$$
