38324
     RDKit          3D

 20 21  0  0  0  0  0  0  0  0999 V2000
    6.3827    0.1783    0.5252 O   0  0  0  0  0  0  0  0  0  0  0  0
   -0.6086   -0.4443   -1.8719 O   0  0  0  0  0  0  0  0  0  0  0  0
    3.6236    0.0765   -0.1664 N   0  0  0  0  0  0  0  0  0  0  0  0
    0.0091   -0.6379    0.3556 N   0  0  0  0  0  0  0  0  0  0  0  0
   -6.2213    0.7012    0.8705 N   0  0  0  0  0  0  0  0  0  0  0  0
    4.1765   -0.7544    0.9122 C   0  0  0  0  0  0  0  0  0  0  0  0
    4.4039    1.3147   -0.2986 C   0  0  0  0  0  0  0  0  0  0  0  0
    2.2142    0.3752    0.0793 C   0  0  0  0  0  0  0  0  0  0  0  0
    5.6504   -1.0423    0.6406 C   0  0  0  0  0  0  0  0  0  0  0  0
    5.8721    0.9775   -0.5425 C   0  0  0  0  0  0  0  0  0  0  0  0
    1.4015   -0.9104    0.1244 C   0  0  0  0  0  0  0  0  0  0  0  0
   -2.2937   -0.1284   -0.2723 C   0  0  0  0  0  0  0  0  0  0  0  0
   -0.8955   -0.4239   -0.6779 C   0  0  0  0  0  0  0  0  0  0  0  0
   -2.6697    1.1854   -0.0684 C   0  0  0  0  0  0  0  0  0  0  0  0
   -3.1803   -1.1757   -0.1090 C   0  0  0  0  0  0  0  0  0  0  0  0
   -3.9822    1.4627    0.3135 C   0  0  0  0  0  0  0  0  0  0  0  0
   -4.4930   -0.8985    0.2729 C   0  0  0  0  0  0  0  0  0  0  0  0
   -4.8941    0.4208    0.4841 C   0  0  0  0  0  0  0  0  0  0  0  0
   -1.7161    2.3222   -0.2450 C   0  0  0  0  0  0  0  0  0  0  0  0
   -2.7794   -2.5986   -0.3265 C   0  0  0  0  0  0  0  0  0  0  0  0
  1  9  1  0
  1 10  1  0
  2 13  2  0
  3  6  1  0
  3  7  1  0
  3  8  1  0
  4 11  1  0
  4 13  1  0
  5 18  1  0
  6  9  1  0
  7 10  1  0
  8 11  1  0
 12 13  1  0
 12 14  2  0
 12 15  1  0
 14 16  1  0
 14 19  1  0
 15 17  2  0
 15 20  1  0
 16 18  2  0
 17 18  1  0
M  END
>  <PUBCHEM_COMPOUND_CID>  (1) 
38324

>  <PUBCHEM_CONFORMER_RMSD>  (1) 
0.8

>  <PUBCHEM_CONFORMER_DIVERSEORDER>  (1) 
2
7
9
5
6
4
8
11
1
3
10

>  <PUBCHEM_MMFF94_PARTIAL_CHARGES>  (1) 
25
1 -0.56
10 0.28
11 0.3
12 0.09
13 0.54
14 -0.14
15 -0.14
16 -0.15
17 -0.15
18 0.1
19 0.14
2 -0.57
20 0.14
3 -0.81
33 0.37
34 0.15
35 0.15
4 -0.73
42 0.4
43 0.4
5 -0.9
6 0.27
7 0.27
8 0.27
9 0.28

>  <PUBCHEM_EFFECTIVE_ROTOR_COUNT>  (1) 
6.2

>  <PUBCHEM_PHARMACOPHORE_FEATURES>  (1) 
8
1 1 acceptor
1 2 acceptor
1 3 cation
1 4 donor
1 5 cation
1 5 donor
6 1 3 6 7 9 10 rings
6 12 14 15 16 17 18 rings

>  <PUBCHEM_HEAVY_ATOM_COUNT>  (1) 
20

>  <PUBCHEM_ATOM_DEF_STEREO_COUNT>  (1) 
0

>  <PUBCHEM_ATOM_UDEF_STEREO_COUNT>  (1) 
0

>  <PUBCHEM_BOND_DEF_STEREO_COUNT>  (1) 
0

>  <PUBCHEM_BOND_UDEF_STEREO_COUNT>  (1) 
0

>  <PUBCHEM_ISOTOPIC_ATOM_COUNT>  (1) 
0

>  <PUBCHEM_COMPONENT_COUNT>  (1) 
1

>  <PUBCHEM_CACTVS_TAUTO_COUNT>  (1) 
3

>  <PUBCHEM_CONFORMER_ID>  (1) 
000095B400000002

>  <PUBCHEM_MMFF94_ENERGY>  (1) 
56.4901

>  <PUBCHEM_FEATURE_SELFOVERLAP>  (1) 
40.596

>  <PUBCHEM_SHAPE_FINGERPRINT>  (1) 
10354089 29 18186803578486437128
10595046 47 18335419114751584442
10912923 1 18187639232977312842
11315181 36 18260265286768059487
12107183 9 17613709328649358560
12236239 1 18113618997149900286
12390115 104 17987532407336868209
12516196 113 12179846113062233942
12596602 18 17748548151427122648
12616971 3 17313387867592184574
12916748 109 18335987489201299280
13167823 11 18333726923333333682
13533116 47 17822287951485681002
13897977 58 18410857668089667493
1420 363 15357697487681336266
14341114 176 18333734598281220124
14341114 328 18335421261713012728
14844126 61 18264210386688426819
14849402 71 18115869767327618700
14933364 13 18412829092928795832
15183329 4 10807939262623068784
15250474 111 18336811074898364226
17834072 33 18260546745192531506
17844677 252 18409453566382598412
1813 80 16878232965346149742
19784866 170 18342181055248672463
200 152 12035447241958445239
20281389 69 18411980251986631608
20645477 56 18344145882416601799
220451 1 18187365446023898670
23198884 109 12751236995748700329
23402539 116 18411132567133903079
23557571 272 18059586796743143580
23559900 14 18339071696025411297
3545911 37 18343022172869162158
4073 2 18041284370002332610
4214541 1 18410008836612578696
5104073 3 18336541720197056730
542803 24 18408602574225879346
59755656 215 18130515137111698638
59755656 520 17385443241211414810

>  <PUBCHEM_SHAPE_MULTIPOLES>  (1) 
384.91
15.17
1.9
0.92
14.78
0.08
0.19
-1.82
-3.48
-1.44
0.13
0.03
0.08
-1.01

>  <PUBCHEM_SHAPE_SELFOVERLAP>  (1) 
796.943

>  <PUBCHEM_SHAPE_VOLUME>  (1) 
222.2

>  <PUBCHEM_COORDINATE_TYPE>  (1) 
2
5
10

$$$$
