38331
     RDKit          3D

 18 19  0  0  1  0  0  0  0  0999 V2000
   -1.9670    0.1640   -2.6009 O   0  0  0  0  0  0  0  0  0  0  0  0
    0.1882   -0.0063   -0.6667 N   0  0  0  0  0  0  0  0  0  0  0  0
    2.2057   -1.2374   -0.3682 N   0  0  0  0  0  0  0  0  0  0  0  0
   -1.9527    0.9934   -1.4314 C   0  0  0  0  0  0  0  0  0  0  0  0
   -0.4937    1.2422   -1.0000 C   0  0  0  0  0  0  0  0  0  0  0  0
   -2.7547    0.3369   -0.3588 C   0  0  0  0  0  0  0  0  0  0  0  0
    1.5056   -0.0613   -0.2727 C   0  0  0  0  0  0  0  0  0  0  0  0
    2.1115    1.1048    0.2235 C   0  0  0  0  0  0  0  0  0  0  0  0
   -2.8171   -1.0549   -0.2875 C   0  0  0  0  0  0  0  0  0  0  0  0
   -3.4420    1.1145    0.5732 C   0  0  0  0  0  0  0  0  0  0  0  0
    3.4425    1.0648    0.6239 C   0  0  0  0  0  0  0  0  0  0  0  0
    3.4976   -1.2378    0.0307 C   0  0  0  0  0  0  0  0  0  0  0  0
    4.1558   -0.1250    0.5288 C   0  0  0  0  0  0  0  0  0  0  0  0
   -3.5668   -1.6690    0.7156 C   0  0  0  0  0  0  0  0  0  0  0  0
   -4.1917    0.5002    1.5764 C   0  0  0  0  0  0  0  0  0  0  0  0
    4.1007    2.2937    1.1523 C   0  0  0  0  0  0  0  0  0  0  0  0
   -4.2541   -0.8915    1.6475 C   0  0  0  0  0  0  0  0  0  0  0  0
    4.2321   -2.5315   -0.0857 C   0  0  0  0  0  0  0  0  0  0  0  0
  1  4  1  0
  2  5  1  0
  2  7  1  0
  3  7  2  0
  3 12  1  0
  4  5  1  0
  4  6  1  0
  6  9  2  0
  6 10  1  0
  7  8  1  0
  8 11  2  0
  9 14  1  0
 10 15  2  0
 11 13  1  0
 11 16  1  0
 12 13  2  0
 12 18  1  0
 14 17  2  0
 15 17  1  0
M  END
>  <PUBCHEM_COMPOUND_CID>  (1) 
38331

>  <PUBCHEM_CONFORMER_RMSD>  (1) 
0.6

>  <PUBCHEM_CONFORMER_DIVERSEORDER>  (1) 
19
43
38
51
48
63
25
61
59
37
55
42
18
2
31
41
40
58
39
45
36
7
34
44
20
26
53
46
67
9
29
32
14
27
35
60
54
23
24
16
62
64
1
52
11
10
50
4
3
6
30
49
13
47
57
65
28
21
33
8
5
69
12
22
70
15
68
56
17
66

>  <PUBCHEM_MMFF94_PARTIAL_CHARGES>  (1) 
27
1 -0.68
10 -0.15
11 -0.14
12 0.17
13 -0.15
14 -0.15
15 -0.15
16 0.14
17 -0.15
18 0.14
2 -0.87
22 0.4
23 0.15
24 0.15
25 0.15
26 0.15
27 0.4
28 0.15
29 0.15
3 -0.62
33 0.15
4 0.42
5 0.37
6 -0.14
7 0.41
8 -0.15
9 -0.15

>  <PUBCHEM_EFFECTIVE_ROTOR_COUNT>  (1) 
4

>  <PUBCHEM_PHARMACOPHORE_FEATURES>  (1) 
7
1 1 acceptor
1 1 donor
1 2 cation
1 2 donor
1 3 acceptor
6 3 7 8 11 12 13 rings
6 6 9 10 14 15 17 rings

>  <PUBCHEM_HEAVY_ATOM_COUNT>  (1) 
18

>  <PUBCHEM_ATOM_DEF_STEREO_COUNT>  (1) 
0

>  <PUBCHEM_ATOM_UDEF_STEREO_COUNT>  (1) 
1

>  <PUBCHEM_BOND_DEF_STEREO_COUNT>  (1) 
0

>  <PUBCHEM_BOND_UDEF_STEREO_COUNT>  (1) 
0

>  <PUBCHEM_ISOTOPIC_ATOM_COUNT>  (1) 
0

>  <PUBCHEM_COMPONENT_COUNT>  (1) 
1

>  <PUBCHEM_CACTVS_TAUTO_COUNT>  (1) 
2

>  <PUBCHEM_CONFORMER_ID>  (1) 
000095BB00000013

>  <PUBCHEM_MMFF94_ENERGY>  (1) 
53.0557

>  <PUBCHEM_FEATURE_SELFOVERLAP>  (1) 
35.522

>  <PUBCHEM_SHAPE_FINGERPRINT>  (1) 
11132069 177 18040433317420255915
11370993 144 18339646642059730713
11405975 8 18335697179002302272
11552529 35 17987232416323633991
11796584 16 16953362496684051770
12363563 72 16588026857130546665
12390115 104 17767116885056613712
12553582 1 16298113081474215889
12633257 1 18130235860857452515
12670546 177 8142080940438637945
12714826 92 16877941612123791725
12892183 10 18270691960256403833
13296908 3 17968087603906626772
13533116 47 18272364296089071431
13583140 156 18130783503563333129
13675066 3 18334577927757496621
14123260 362 14908185256962378169
14251751 18 17242162462782354858
14251758 9 16056326012202822764
14252887 29 18259985998299032728
14289901 80 18201431523388113776
15239191 94 17603587400233663018
15527383 91 18341900636675524488
15842332 3 17202746207459934684
16126227 98 17617101747630316192
17349148 13 14490465374969859936
1741750 31 14261632820189397445
1813 80 16877952663074449421
18785283 64 18336542824610630896
19078846 21 16200141097981371480
193927 3 17096102362868689315
20645477 70 18197475395037243110
20671657 53 14779547932677860973
21065198 48 18059859488796511859
21065198 57 18411700950263125753
21065199 12 18411703192362577033
21065201 7 17168414961846843060
21503847 285 17632305575047738256
21618674 53 17203045304471150140
21756936 100 17416401189840958272
21864079 5 15984813900043523616
221490 88 18337106770732324350
22646028 28 14345790543664363256
22943178 12 18187914046143229932
23503953 91 17917988352207857778
23557571 272 17531513309384873676
23559900 14 17822848676603747086
314173 85 17385446531498929477
316301 35 17967532350973061002
341906 21 13901896800499898010
458136 41 18340766065736373324
49207404 50 18336543932173739904
5104073 3 18411418405871097210
5352402 22 18335708242753543698
5924683 9 18272650195124956403
602551 16 17312823788362914890
6049 1 18187920638939264820
633830 44 17774723173052563692
7495541 125 18259987055356781574
7615 1 16916201365269182692

>  <PUBCHEM_SHAPE_MULTIPOLES>  (1) 
354.6
10.42
2.09
1.57
1.51
0.49
0.5
1.76
-4.69
2.24
-0.35
-1.71
-0.35
1.32

>  <PUBCHEM_SHAPE_SELFOVERLAP>  (1) 
745.664

>  <PUBCHEM_SHAPE_VOLUME>  (1) 
199.7

>  <PUBCHEM_COORDINATE_TYPE>  (1) 
2
5
10

$$$$
