38338
     RDKit          3D

 16 17  0  0  0  0  0  0  0  0999 V2000
    1.5563    2.4760   -0.0093 Cl  0  0  0  0  0  0  0  0  0  0  0  0
   -1.2587    1.7444    0.0014 S   0  0  0  0  0  0  0  0  0  0  0  0
   -1.6197    2.3304    1.2751 O   0  0  0  0  0  0  0  0  0  0  0  0
   -1.6307    2.3330   -1.2678 O   0  0  0  0  0  0  0  0  0  0  0  0
    1.7333   -0.7743   -0.0136 N   0  0  0  0  0  0  0  0  0  0  0  0
    5.4555   -0.5532    0.0262 N   0  0  0  0  0  0  0  0  0  0  0  0
   -1.8173    0.0938    0.0020 C   0  0  0  0  0  0  0  0  0  0  0  0
   -0.7309   -0.7838   -0.0036 C   0  0  0  0  0  0  0  0  0  0  0  0
    0.5659   -0.0803   -0.0085 C   0  0  0  0  0  0  0  0  0  0  0  0
    0.3922    1.2490   -0.0064 C   0  0  0  0  0  0  0  0  0  0  0  0
   -0.9905   -2.1484   -0.0040 C   0  0  0  0  0  0  0  0  0  0  0  0
   -3.1396   -0.3034    0.0077 C   0  0  0  0  0  0  0  0  0  0  0  0
    3.0340   -0.1492    0.0149 C   0  0  0  0  0  0  0  0  0  0  0  0
   -2.3212   -2.5892    0.0014 C   0  0  0  0  0  0  0  0  0  0  0  0
   -3.3863   -1.6734    0.0072 C   0  0  0  0  0  0  0  0  0  0  0  0
    4.1577   -1.1714   -0.0227 C   0  0  0  0  0  0  0  0  0  0  0  0
  1 10  1  0
  2  3  2  0
  2  4  2  0
  2  7  1  0
  2 10  1  0
  5  9  1  0
  5 13  1  0
  6 16  1  0
  7  8  2  0
  7 12  1  0
  8  9  1  0
  8 11  1  0
  9 10  2  0
 11 14  2  0
 12 15  2  0
 13 16  1  0
 14 15  1  0
M  END
>  <PUBCHEM_COMPOUND_CID>  (1) 
38338

>  <PUBCHEM_CONFORMER_RMSD>  (1) 
0.6

>  <PUBCHEM_CONFORMER_DIVERSEORDER>  (1) 
1
10
8
9
7
5
2
3
6
4

>  <PUBCHEM_MMFF94_PARTIAL_CHARGES>  (1) 
23
1 -0.14
10 0.12
11 -0.15
12 -0.15
13 0.37
14 -0.15
15 -0.15
16 0.27
17 0.4
2 1.33
20 0.15
21 0.15
22 0.15
23 0.15
26 0.36
27 0.36
3 -0.65
4 -0.65
5 -0.87
6 -0.99
7 -0.01
8 0.03
9 0.07

>  <PUBCHEM_EFFECTIVE_ROTOR_COUNT>  (1) 
3

>  <PUBCHEM_PHARMACOPHORE_FEATURES>  (1) 
8
1 3 acceptor
1 4 acceptor
1 5 cation
1 5 donor
1 6 cation
1 6 donor
5 2 7 8 9 10 rings
6 7 8 11 12 14 15 rings

>  <PUBCHEM_HEAVY_ATOM_COUNT>  (1) 
16

>  <PUBCHEM_ATOM_DEF_STEREO_COUNT>  (1) 
0

>  <PUBCHEM_ATOM_UDEF_STEREO_COUNT>  (1) 
0

>  <PUBCHEM_BOND_DEF_STEREO_COUNT>  (1) 
0

>  <PUBCHEM_BOND_UDEF_STEREO_COUNT>  (1) 
0

>  <PUBCHEM_ISOTOPIC_ATOM_COUNT>  (1) 
0

>  <PUBCHEM_COMPONENT_COUNT>  (1) 
1

>  <PUBCHEM_CACTVS_TAUTO_COUNT>  (1) 
1

>  <PUBCHEM_CONFORMER_ID>  (1) 
000095C200000001

>  <PUBCHEM_MMFF94_ENERGY>  (1) 
27.4743

>  <PUBCHEM_FEATURE_SELFOVERLAP>  (1) 
40.675

>  <PUBCHEM_SHAPE_FINGERPRINT>  (1) 
10493431 412 18054800485463268633
10967382 1 17906453586200494439
10989021 7 18337953505864322592
11680986 33 18266737080923396585
12032990 46 18264490753141022763
12553582 1 18335410300983477314
13024252 1 15502665866599595513
13140716 1 18267593574949241203
14614273 12 18117559531218448429
14790565 3 17907304251850970240
15536298 74 18198061580753172648
16752209 62 18262780892226685851
16945 1 18410856547118917047
17804303 29 18341897411075989954
20510252 161 18271525291027631890
20711985 365 18411138060396860029
20871998 184 18201720634911960206
20871999 31 18335417937708993012
21029758 11 18342730814951365209
21029758 27 18261402190571187407
21041028 32 18268445692561270467
21267235 1 18337962288867195339
21339142 51 18338510838164220140
21501502 16 18339371862842400548
2297311 6 18342471339446114894
2334 1 18050850223557246639
23366157 5 17897723399931803364
23402539 116 18342730810825281303
23463225 33 18267024049194868815
23557571 272 18201731609302117462
23559900 14 18340761633155940216
2748010 2 18193551396909314887
3286 77 17131264796143507275
335352 9 18410575076489869661
4214541 1 18338516336102134466
43471831 8 17690278639655587912
559249 180 17971183730483926898
7364860 26 17981044433416656457
81228 2 18337967721963511923
8809292 202 18335422408459127466

>  <PUBCHEM_SHAPE_MULTIPOLES>  (1) 
313.29
6.63
2.99
0.75
9.1
1.01
0
-4.14
0.03
-1.27
0
-0.24
0.37
0

>  <PUBCHEM_SHAPE_SELFOVERLAP>  (1) 
648.938

>  <PUBCHEM_SHAPE_VOLUME>  (1) 
181

>  <PUBCHEM_COORDINATE_TYPE>  (1) 
2
5
10

$$$$
