38337
     RDKit          3D

 13 13  0  0  1  0  0  0  0  0999 V2000
   -0.4514   -0.4929    0.6416 P   0  0  0  0  0  0  0  0  0  0  0  0
    0.3369    0.9086    0.8728 O   0  0  0  0  0  0  0  0  0  0  0  0
    1.6722   -1.8734    0.3331 O   0  0  0  0  0  0  0  0  0  0  0  0
   -1.7043   -0.0579   -0.2815 O   0  0  0  0  0  0  0  0  0  0  0  0
   -0.7894   -1.2750    1.8727 O   0  0  0  0  0  0  0  0  0  0  0  0
    0.7247   -1.2136   -0.4958 C   0  0  0  0  0  0  0  0  0  0  0  0
    1.4155    1.1345   -0.0592 C   0  0  0  0  0  0  0  0  0  0  0  0
    1.3524    0.0262   -1.1454 C   0  0  0  0  0  0  0  0  0  0  0  0
    0.1692   -2.2066   -1.4962 C   0  0  0  0  0  0  0  0  0  0  0  0
    1.2195    2.5167   -0.6801 C   0  0  0  0  0  0  0  0  0  0  0  0
    2.7246    1.0998    0.7306 C   0  0  0  0  0  0  0  0  0  0  0  0
   -2.8050    0.5521    0.3684 C   0  0  0  0  0  0  0  0  0  0  0  0
   -3.8649    0.8814   -0.6610 C   0  0  0  0  0  0  0  0  0  0  0  0
  1  2  1  0
  1  4  1  0
  1  5  2  0
  1  6  1  0
  2  7  1  0
  3  6  1  0
  4 12  1  0
  6  8  1  0
  6  9  1  0
  7  8  1  0
  7 10  1  0
  7 11  1  0
 12 13  1  0
M  END
>  <PUBCHEM_COMPOUND_CID>  (1) 
38337

>  <PUBCHEM_CONFORMER_RMSD>  (1) 
0.6

>  <PUBCHEM_CONFORMER_DIVERSEORDER>  (1) 
2
9
5
8
3
10
4
7
1
6
11

>  <PUBCHEM_MMFF94_PARTIAL_CHARGES>  (1) 
9
1 1.24
12 0.28
2 -0.55
25 0.4
3 -0.68
4 -0.55
5 -0.7
6 0.28
7 0.28

>  <PUBCHEM_EFFECTIVE_ROTOR_COUNT>  (1) 
2.8

>  <PUBCHEM_PHARMACOPHORE_FEATURES>  (1) 
5
1 3 acceptor
1 3 donor
1 5 acceptor
3 7 10 11 hydrophobe
5 1 2 6 7 8 rings

>  <PUBCHEM_HEAVY_ATOM_COUNT>  (1) 
13

>  <PUBCHEM_ATOM_DEF_STEREO_COUNT>  (1) 
0

>  <PUBCHEM_ATOM_UDEF_STEREO_COUNT>  (1) 
2

>  <PUBCHEM_BOND_DEF_STEREO_COUNT>  (1) 
0

>  <PUBCHEM_BOND_UDEF_STEREO_COUNT>  (1) 
0

>  <PUBCHEM_ISOTOPIC_ATOM_COUNT>  (1) 
0

>  <PUBCHEM_COMPONENT_COUNT>  (1) 
1

>  <PUBCHEM_CACTVS_TAUTO_COUNT>  (1) 
1

>  <PUBCHEM_CONFORMER_ID>  (1) 
000095C100000002

>  <PUBCHEM_MMFF94_ENERGY>  (1) 
28.8543

>  <PUBCHEM_FEATURE_SELFOVERLAP>  (1) 
25.373

>  <PUBCHEM_SHAPE_FINGERPRINT>  (1) 
1 1 18342458161805663324
10702982 57 18127678534218374958
12138202 97 17629769130386796892
12423570 1 12405498961465677146
12725867 57 18192708938731215740
13380536 55 17471571504604009716
13571099 52 18270677692011400136
13839132 238 17677061251342509099
14614273 12 17194054769768775244
14817 1 13825367269154157650
15775835 57 18060133284313902333
16945 1 18334015007726291652
20511035 2 18117561953374709900
21028194 46 18263363753796308009
21040471 1 17985274207694337708
21524375 3 18263919015721430549
21947302 44 18334865991345869205
230 275 18412549820616427185
23419403 2 17754993342987382526
241688 4 17690577281389383248
2748010 2 18198365019944578870
3060560 45 18202002092798154591
5084963 1 17840888574144102546
81228 2 16974777009593615226

>  <PUBCHEM_SHAPE_MULTIPOLES>  (1) 
247.91
3.99
2.32
1.34
4.25
0.28
0.18
-2.22
-0.25
-1.08
-0.66
0.02
0.45
0.23

>  <PUBCHEM_SHAPE_SELFOVERLAP>  (1) 
472.295

>  <PUBCHEM_SHAPE_VOLUME>  (1) 
155.8

>  <PUBCHEM_COORDINATE_TYPE>  (1) 
2
5
10

$$$$
