38345
     RDKit          3D

 22 24  0  0  1  0  0  0  0  0999 V2000
   -0.4345    0.3340   -0.7583 O   0  0  0  0  0  0  0  0  0  0  0  0
   -1.5653   -1.4209   -1.7282 O   0  0  0  0  0  0  0  0  0  0  0  0
    1.7412   -2.5304    0.0263 N   0  0  0  0  0  0  0  0  0  0  0  0
    0.7056   -1.5262    0.2824 C   0  0  0  0  0  0  0  0  0  0  0  0
    0.8091   -0.3720   -0.7307 C   0  0  0  0  0  0  0  0  0  0  0  0
    0.7792   -0.9825    1.7150 C   0  0  0  0  0  0  0  0  0  0  0  0
    2.0735   -0.2147    1.9837 C   0  0  0  0  0  0  0  0  0  0  0  0
    1.8834    0.6410   -0.4087 C   0  0  0  0  0  0  0  0  0  0  0  0
    2.4492    0.7372    0.8763 C   0  0  0  0  0  0  0  0  0  0  0  0
    2.2992    1.5346   -1.4098 C   0  0  0  0  0  0  0  0  0  0  0  0
    3.4338    1.7066    1.1251 C   0  0  0  0  0  0  0  0  0  0  0  0
    1.6416   -3.0256   -1.3453 C   0  0  0  0  0  0  0  0  0  0  0  0
    1.6277   -3.6326    0.9794 C   0  0  0  0  0  0  0  0  0  0  0  0
    3.2714    2.4988   -1.1466 C   0  0  0  0  0  0  0  0  0  0  0  0
    3.8396    2.5839    0.1204 C   0  0  0  0  0  0  0  0  0  0  0  0
   -1.5324   -0.4160   -1.0350 C   0  0  0  0  0  0  0  0  0  0  0  0
   -2.7312    0.1546   -0.3704 C   0  0  0  0  0  0  0  0  0  0  0  0
   -3.7489   -0.6947    0.0126 C   0  0  0  0  0  0  0  0  0  0  0  0
   -2.7905    1.5165   -0.1567 C   0  0  0  0  0  0  0  0  0  0  0  0
   -4.8754   -0.1588    0.6367 C   0  0  0  0  0  0  0  0  0  0  0  0
   -3.9169    2.0524    0.4674 C   0  0  0  0  0  0  0  0  0  0  0  0
   -4.9593    1.2148    0.8642 C   0  0  0  0  0  0  0  0  0  0  0  0
  1  5  1  0
  1 16  1  0
  2 16  2  0
  3  4  1  0
  3 12  1  0
  3 13  1  0
  4  5  1  0
  4  6  1  0
  5  8  1  0
  6  7  1  0
  7  9  1  0
  8  9  2  0
  8 10  1  0
  9 11  1  0
 10 14  2  0
 11 15  2  0
 14 15  1  0
 16 17  1  0
 17 18  2  0
 17 19  1  0
 18 20  1  0
 19 21  2  0
 20 22  2  0
 21 22  1  0
M  END
>  <PUBCHEM_COMPOUND_CID>  (1) 
38345

>  <PUBCHEM_CONFORMER_RMSD>  (1) 
0.8

>  <PUBCHEM_CONFORMER_DIVERSEORDER>  (1) 
4
10
12
9
2
8
5
15
16
13
3
17
20
6
18
1
14
19
7
11

>  <PUBCHEM_MMFF94_PARTIAL_CHARGES>  (1) 
30
1 -0.43
10 -0.15
11 -0.15
12 0.27
13 0.27
14 -0.15
15 -0.15
16 0.63
17 0.09
18 -0.15
19 -0.15
2 -0.57
20 -0.15
21 -0.15
22 -0.15
29 0.15
3 -0.81
30 0.15
37 0.15
38 0.15
39 0.15
4 0.27
40 0.15
41 0.15
42 0.15
43 0.15
5 0.42
7 0.14
8 -0.14
9 -0.14

>  <PUBCHEM_EFFECTIVE_ROTOR_COUNT>  (1) 
4.8

>  <PUBCHEM_PHARMACOPHORE_FEATURES>  (1) 
5
1 2 acceptor
1 3 cation
6 17 18 19 20 21 22 rings
6 4 5 6 7 8 9 rings
6 8 9 10 11 14 15 rings

>  <PUBCHEM_HEAVY_ATOM_COUNT>  (1) 
22

>  <PUBCHEM_ATOM_DEF_STEREO_COUNT>  (1) 
0

>  <PUBCHEM_ATOM_UDEF_STEREO_COUNT>  (1) 
2

>  <PUBCHEM_BOND_DEF_STEREO_COUNT>  (1) 
0

>  <PUBCHEM_BOND_UDEF_STEREO_COUNT>  (1) 
0

>  <PUBCHEM_ISOTOPIC_ATOM_COUNT>  (1) 
0

>  <PUBCHEM_COMPONENT_COUNT>  (1) 
1

>  <PUBCHEM_CACTVS_TAUTO_COUNT>  (1) 
1

>  <PUBCHEM_CONFORMER_ID>  (1) 
000095C900000004

>  <PUBCHEM_MMFF94_ENERGY>  (1) 
70.6872

>  <PUBCHEM_FEATURE_SELFOVERLAP>  (1) 
25.392

>  <PUBCHEM_SHAPE_FINGERPRINT>  (1) 
10382601 240 18260824882684383952
10465860 228 18411417280584506964
10498660 4 17775284971907432825
10692045 39 18271513270284634848
10759866 29 18272094863947471081
11582403 64 14904753745781664034
12363563 72 12757147978907847461
12422481 6 17908388435251423634
12633257 1 16950557813507942721
12788726 201 17398394616508662582
13533116 47 18263085432000605051
13878862 14 18194108622173231493
13965767 371 18336813234881493212
14223421 5 18260264101731827221
14251757 17 16199601314670321672
14289901 80 18410577271529426643
14341114 328 18114184193788462249
14787075 74 17900264405683917899
14955137 171 18338510821279672394
15163728 17 18192733317218990284
15238133 3 16628567869839856945
16945 1 17242144990590980648
17349148 13 11963381951940743577
17868525 174 17832707872716067337
1813 80 17909834232490718342
18785283 64 18260828190078435386
19784866 9 18342454824895733824
201361 129 18412542102380542832
20157964 124 18189321408827872197
20600515 1 17264984891767789782
20739085 24 18113617880886269204
21503847 285 18335987462867253041
21524375 3 18115302431410124212
21756936 100 18120937463062992964
21864079 5 17346039966130054289
2255824 54 18337676291332107079
23419403 2 17392812121244080634
23559900 14 18194967344811263647
23566358 27 18409449163413885951
2637199 183 18336836389334652316
312423 11 18130498653095638959
4340502 62 17822296825172697417
458136 41 18335140907844195858
474 4 18334013933984760149
5104073 3 18267035973037069561
59755656 520 18189335852412524172
6049 1 17678173785511632733
6287921 2 18408042892405168063
633830 44 18342458192108000012
6442390 28 18266468787196230938
7097593 13 18194113015512811547
7364860 26 18342176605404006590
7808743 9 18058446684853302569
81228 2 17399498521914115670

>  <PUBCHEM_SHAPE_MULTIPOLES>  (1) 
436.03
8.3
3.44
1.59
10.04
2.2
0.15
-5.92
1.73
-3.55
-0.21
-0.88
0.32
-0.77

>  <PUBCHEM_SHAPE_SELFOVERLAP>  (1) 
939.888

>  <PUBCHEM_SHAPE_VOLUME>  (1) 
239.1

>  <PUBCHEM_COORDINATE_TYPE>  (1) 
2
5
10

$$$$
