38346
     RDKit          3D

 28 32  0  0  1  0  0  0  0  0999 V2000
    5.7728    1.2126    1.3145 O   0  0  0  0  0  0  0  0  0  0  0  0
    6.2494   -1.6209   -0.1450 O   0  0  0  0  0  0  0  0  0  0  0  0
   -4.9896   -0.1766   -0.4481 O   0  0  0  0  0  0  0  0  0  0  0  0
    3.4534    0.5999    0.6740 C   0  0  0  0  0  0  0  0  0  0  0  0
    2.9225   -0.6308   -0.1007 C   0  0  0  0  0  0  0  0  0  0  0  0
    1.4119   -0.8172    0.0592 C   0  0  0  0  0  0  0  0  0  0  0  0
    4.9865    0.4465    0.4132 C   0  0  0  0  0  0  0  0  0  0  0  0
    0.6865    0.4407   -0.5078 C   0  0  0  0  0  0  0  0  0  0  0  0
    3.8579   -1.7688    0.3170 C   0  0  0  0  0  0  0  0  0  0  0  0
    2.7668    1.8544    0.1026 C   0  0  0  0  0  0  0  0  0  0  0  0
    5.2004   -1.0787    0.6436 C   0  0  0  0  0  0  0  0  0  0  0  0
    1.2292    1.7435    0.1378 C   0  0  0  0  0  0  0  0  0  0  0  0
    0.8942   -2.0590   -0.6703 C   0  0  0  0  0  0  0  0  0  0  0  0
    3.1626    0.5470    2.2026 C   0  0  0  0  0  0  0  0  0  0  0  0
   -0.8304    0.2765   -0.4542 C   0  0  0  0  0  0  0  0  0  0  0  0
   -0.5826   -2.2692   -0.3498 C   0  0  0  0  0  0  0  0  0  0  0  0
   -1.4116   -1.0102   -0.4228 C   0  0  0  0  0  0  0  0  0  0  0  0
    5.3771    0.8481   -0.9544 C   0  0  0  0  0  0  0  0  0  0  0  0
   -1.6862    1.3902   -0.5255 C   0  0  0  0  0  0  0  0  0  0  0  0
   -2.8111   -1.1468   -0.4085 C   0  0  0  0  0  0  0  0  0  0  0  0
   -3.0747    1.2399   -0.5200 C   0  0  0  0  0  0  0  0  0  0  0  0
   -3.6376   -0.0281   -0.4567 C   0  0  0  0  0  0  0  0  0  0  0  0
    5.6940    1.1747   -2.0652 C   0  0  0  0  0  0  0  0  0  0  0  0
   -5.7019    0.4354    0.6200 C   0  0  0  0  0  0  0  0  0  0  0  0
   -6.5195   -0.6179    1.3515 C   0  0  0  0  0  0  0  0  0  0  0  0
   -6.7649    1.3782    0.0765 C   0  0  0  0  0  0  0  0  0  0  0  0
   -7.7578   -0.8164    0.4786 C   0  0  0  0  0  0  0  0  0  0  0  0
   -7.8972    0.4530   -0.3621 C   0  0  0  0  0  0  0  0  0  0  0  0
  1  7  1  0
  2 11  1  0
  3 22  1  0
  3 24  1  0
  4  5  1  0
  4  7  1  0
  4 10  1  0
  4 14  1  0
  5  6  1  0
  5  9  1  0
  6  8  1  0
  6 13  1  0
  7 11  1  0
  7 18  1  0
  8 12  1  0
  8 15  1  0
  9 11  1  0
 10 12  1  0
 13 16  1  0
 15 17  2  0
 15 19  1  0
 16 17  1  0
 17 20  1  0
 18 23  3  0
 19 21  2  0
 20 22  2  0
 21 22  1  0
 24 25  1  0
 24 26  1  0
 25 27  1  0
 26 28  1  0
 27 28  1  0
M  END
>  <PUBCHEM_COMPOUND_CID>  (1) 
38346

>  <PUBCHEM_CONFORMER_RMSD>  (1) 
0.8

>  <PUBCHEM_CONFORMER_DIVERSEORDER>  (1) 
1
2
3
4

>  <PUBCHEM_MMFF94_PARTIAL_CHARGES>  (1) 
22
1 -0.68
11 0.28
15 -0.14
16 0.14
17 -0.14
18 -0.2
19 -0.15
2 -0.68
20 -0.15
21 -0.15
22 0.08
23 -0.18
24 0.28
3 -0.36
46 0.4
47 0.4
48 0.15
49 0.15
50 0.15
51 0.18
7 0.48
8 0.14

>  <PUBCHEM_EFFECTIVE_ROTOR_COUNT>  (1) 
4.4

>  <PUBCHEM_PHARMACOPHORE_FEATURES>  (1) 
11
1 1 acceptor
1 1 donor
1 2 acceptor
1 2 donor
1 23 hydrophobe
1 3 acceptor
5 24 25 26 27 28 rings
5 4 5 7 9 11 rings
6 15 17 19 20 21 22 rings
6 4 5 6 8 10 12 rings
6 6 8 13 15 16 17 rings

>  <PUBCHEM_HEAVY_ATOM_COUNT>  (1) 
28

>  <PUBCHEM_ATOM_DEF_STEREO_COUNT>  (1) 
6

>  <PUBCHEM_ATOM_UDEF_STEREO_COUNT>  (1) 
0

>  <PUBCHEM_BOND_DEF_STEREO_COUNT>  (1) 
0

>  <PUBCHEM_BOND_UDEF_STEREO_COUNT>  (1) 
0

>  <PUBCHEM_ISOTOPIC_ATOM_COUNT>  (1) 
0

>  <PUBCHEM_COMPONENT_COUNT>  (1) 
1

>  <PUBCHEM_CACTVS_TAUTO_COUNT>  (1) 
1

>  <PUBCHEM_CONFORMER_ID>  (1) 
000095CA00000001

>  <PUBCHEM_MMFF94_ENERGY>  (1) 
103.009

>  <PUBCHEM_FEATURE_SELFOVERLAP>  (1) 
55.916

>  <PUBCHEM_SHAPE_FINGERPRINT>  (1) 
10 15 18333728039613127201
10299344 5 18334017189849278957
10411042 1 17910113504708752206
10906281 52 18336842934822470623
11089746 13 16773791507264975185
11135609 127 11959431410561902347
11646440 116 17917994983975064377
11719270 70 18410011014272332791
11796584 16 13973963220864555124
12166972 35 18413389852038108929
12236239 1 17676207970221682429
12403259 415 18339912740890290108
12516196 113 11963390743580452111
12596602 18 17022621979072433057
13533116 47 17704073949697592270
13914758 101 14620527696214282779
14251764 18 18410293631973627183
14341114 176 18410573976566797816
14617045 38 18410858771890935942
14849402 71 18130786832374400329
15131766 46 13541023967892610506
15183329 4 9079122163706671271
15475509 35 17096350771082203410
18608769 82 18408323315278518987
20157964 124 9871746901803964008
2026 5 13263774277166577440
20281389 69 18342454837949499017
21130935 74 18272366481979940571
21267235 1 18338800018644588566
21623969 137 18411140221472447543
21781051 124 18262254286186777231
21792934 111 18339349773778040272
22224240 67 18341608235629268363
23198884 109 14692574317249046939
23516275 137 16589155909743982777
23522609 53 18192459457188400621
23559900 14 18129653226979327240
24771293 8 18129084801338560736
2838139 119 16056879131271743377
29717793 49 12107784086412165827
3009799 131 9295286140752558223
3178227 256 18410864274113171137
335352 9 18413387639870917174
350125 39 18410575080753701405
397830 11 16299248945747603953
4073 2 18041003976940830987
4093350 32 16630527371407139904
465052 167 18113336405481686274
5104073 3 18269261521024379786
54039377 194 18189333481997096434
5758199 1 18272937120441201811
58260988 393 15791720885257383516
59755656 215 18060425689950479717
59755656 520 17775559854325245575
6081469 158 11743847967244393976

>  <PUBCHEM_SHAPE_MULTIPOLES>  (1) 
558.62
19.77
1.95
1.24
26.4
0.42
0.23
-1.84
2.13
-1.2
-0.22
-1.4
-0.27
0

>  <PUBCHEM_SHAPE_SELFOVERLAP>  (1) 
1212.401

>  <PUBCHEM_SHAPE_VOLUME>  (1) 
304.2

>  <PUBCHEM_COORDINATE_TYPE>  (1) 
2
5
10

$$$$
