38356
     RDKit          3D

 28 31  0  0  1  0  0  0  0  0999 V2000
   -1.4189    0.8833    1.8539 S   0  0  0  0  0  0  0  0  0  0  0  0
    4.3908    0.8114   -0.6443 S   0  0  0  0  0  0  0  0  0  0  0  0
    4.2835    0.7045   -2.0956 O   0  0  0  0  0  0  0  0  0  0  0  0
    5.1337    1.9356   -0.0842 O   0  0  0  0  0  0  0  0  0  0  0  0
   -1.4141   -1.4402   -0.2827 N   0  0  0  0  0  0  0  0  0  0  0  0
   -2.2986   -4.1767    0.0137 N   0  0  0  0  0  0  0  0  0  0  0  0
    5.0585   -0.6604   -0.0262 N   0  0  0  0  0  0  0  0  0  0  0  0
   -0.6960   -0.3723   -0.9755 C   0  0  0  0  0  0  0  0  0  0  0  0
   -2.4718   -1.9962   -1.1355 C   0  0  0  0  0  0  0  0  0  0  0  0
   -0.4902   -2.4984    0.1439 C   0  0  0  0  0  0  0  0  0  0  0  0
   -1.6415    0.6906   -1.5588 C   0  0  0  0  0  0  0  0  0  0  0  0
   -3.2232   -3.1190   -0.4121 C   0  0  0  0  0  0  0  0  0  0  0  0
   -1.2425   -3.6203    0.8680 C   0  0  0  0  0  0  0  0  0  0  0  0
    0.4146    0.2533   -0.1572 C   0  0  0  0  0  0  0  0  0  0  0  0
   -2.4479    1.6499   -0.7029 C   0  0  0  0  0  0  0  0  0  0  0  0
    0.1853    0.8692    1.0844 C   0  0  0  0  0  0  0  0  0  0  0  0
    1.7220    0.2498   -0.6772 C   0  0  0  0  0  0  0  0  0  0  0  0
   -3.0161   -5.2460    0.7051 C   0  0  0  0  0  0  0  0  0  0  0  0
   -2.4067    1.8150    0.6937 C   0  0  0  0  0  0  0  0  0  0  0  0
    2.7771    0.8351    0.0221 C   0  0  0  0  0  0  0  0  0  0  0  0
    1.2540    1.4497    1.7845 C   0  0  0  0  0  0  0  0  0  0  0  0
   -3.3229    2.4837   -1.4418 C   0  0  0  0  0  0  0  0  0  0  0  0
    2.5428    1.4353    1.2534 C   0  0  0  0  0  0  0  0  0  0  0  0
   -3.2423    2.7797    1.2978 C   0  0  0  0  0  0  0  0  0  0  0  0
   -4.1359    3.4362   -0.8307 C   0  0  0  0  0  0  0  0  0  0  0  0
   -4.0960    3.5835    0.5450 C   0  0  0  0  0  0  0  0  0  0  0  0
    5.1447   -0.8090    1.4489 C   0  0  0  0  0  0  0  0  0  0  0  0
    4.6577   -1.9271   -0.6897 C   0  0  0  0  0  0  0  0  0  0  0  0
  1 16  1  0
  1 19  1  0
  2  3  2  0
  2  4  2  0
  2  7  1  0
  2 20  1  0
  5  8  1  0
  5  9  1  0
  5 10  1  0
  6 12  1  0
  6 13  1  0
  6 18  1  0
  7 27  1  0
  7 28  1  0
  8 11  1  0
  8 14  1  0
  9 12  1  0
 10 13  1  0
 11 15  1  0
 14 16  2  0
 14 17  1  0
 15 19  2  0
 15 22  1  0
 16 21  1  0
 17 20  2  0
 19 24  1  0
 20 23  1  0
 21 23  2  0
 22 25  2  0
 24 26  2  0
 25 26  1  0
M  END
>  <PUBCHEM_COMPOUND_CID>  (1) 
38356

>  <PUBCHEM_CONFORMER_RMSD>  (1) 
0.8

>  <PUBCHEM_CONFORMER_DIVERSEORDER>  (1) 
1
39
10
25
5
49
38
28
47
2
8
26
23
30
36
46
19
32
15
42
22
4
17
43
16
33
41
31
14
13
48
18
7
40
20
37
29
27
6
34
44
12
21
3
24
11
35
9
45

>  <PUBCHEM_MMFF94_PARTIAL_CHARGES>  (1) 
35
1 -0.2
10 0.27
11 0.14
12 0.27
13 0.27
14 -0.14
15 -0.14
16 0.1
17 -0.15
18 0.27
19 0.1
2 1.45
20 -0.01
21 -0.15
22 -0.15
23 -0.15
24 -0.15
25 -0.15
26 -0.15
27 0.36
28 0.36
3 -0.65
4 -0.65
40 0.15
44 0.15
45 0.15
46 0.15
47 0.15
48 0.15
49 0.15
5 -0.81
6 -0.81
7 -0.85
8 0.41
9 0.27

>  <PUBCHEM_EFFECTIVE_ROTOR_COUNT>  (1) 
4.8

>  <PUBCHEM_PHARMACOPHORE_FEATURES>  (1) 
8
1 3 acceptor
1 4 acceptor
1 5 cation
1 6 cation
6 14 16 17 20 21 23 rings
6 15 19 22 24 25 26 rings
6 5 6 9 10 12 13 rings
7 1 8 11 14 15 16 19 rings

>  <PUBCHEM_HEAVY_ATOM_COUNT>  (1) 
28

>  <PUBCHEM_ATOM_DEF_STEREO_COUNT>  (1) 
0

>  <PUBCHEM_ATOM_UDEF_STEREO_COUNT>  (1) 
1

>  <PUBCHEM_BOND_DEF_STEREO_COUNT>  (1) 
0

>  <PUBCHEM_BOND_UDEF_STEREO_COUNT>  (1) 
0

>  <PUBCHEM_ISOTOPIC_ATOM_COUNT>  (1) 
0

>  <PUBCHEM_COMPONENT_COUNT>  (1) 
1

>  <PUBCHEM_CACTVS_TAUTO_COUNT>  (1) 
1

>  <PUBCHEM_CONFORMER_ID>  (1) 
000095D400000001

>  <PUBCHEM_MMFF94_ENERGY>  (1) 
77.2947

>  <PUBCHEM_FEATURE_SELFOVERLAP>  (1) 
40.629

>  <PUBCHEM_SHAPE_FINGERPRINT>  (1) 
10165383 225 18267026051051276645
10764073 3 17486531245453165659
107951 10 18342738464646770653
1100329 8 17980197487410111915
11582403 64 16012367494475269573
11991303 11 18334304145452179311
12160290 23 18123435467433650813
12549972 3 17917130784962319066
12714826 92 18129105687489571454
12788726 201 18190451851850095899
13052359 8 18412263908890734827
13540713 4 17917429891181264688
13631057 29 18122067761306029350
13681431 1 17255684621498963977
13690498 29 18127709320923696566
14713325 29 18340491169863245500
14790565 3 18122058706792263357
14866123 147 18411136909562740819
15463212 79 18334849498466029705
15664445 248 17184763926431555541
15775530 1 17772449425412872369
17349148 13 17274537603925889480
1813 80 17763476409981856263
19958102 18 18410288086675106127
21033648 29 18267010670504663008
21033650 10 17201096798527845560
21120745 212 17903662987198355429
22182313 1 17559949004047026944
22907989 373 18267588085833370149
23558518 356 18260831561405878680
23559900 14 18194390320075868620
24893989 43 14870565561229137473
283562 15 18191301778575395890
3380486 145 17481965140681530855
340366 18 18188498965197346268
350125 39 18339077091184634859
3729539 64 17690299118075694710
3759504 43 18339927021846453217
38695281 34 18120370947853595313
394222 165 17554331315799179193
4058900 60 17981052912263114193
59755656 520 18340205181303512653
6679774 75 17827067407951546139
7226269 152 17844799301134751160
7399639 24 17695334164255940784
79837 15 18339081484551024515
81228 2 18266734878122112409

>  <PUBCHEM_SHAPE_MULTIPOLES>  (1) 
557.24
9.73
5.61
1.66
12.84
7.93
-0.12
-4.44
1.3
-9.53
-0.97
0.13
-0.68
0.23

>  <PUBCHEM_SHAPE_SELFOVERLAP>  (1) 
1159.57

>  <PUBCHEM_SHAPE_VOLUME>  (1) 
317.9

>  <PUBCHEM_COORDINATE_TYPE>  (1) 
2
5
10

$$$$
