38363
     RDKit          3D

 16 17  0  0  0  0  0  0  0  0999 V2000
    5.6446   -0.1208   -0.2175 O   0  0  0  0  0  0  0  0  0  0  0  0
    3.8167   -1.0619   -1.1805 O   0  0  0  0  0  0  0  0  0  0  0  0
   -2.1383    0.0290    0.0452 N   0  0  0  0  0  0  0  0  0  0  0  0
   -4.9750   -0.2714   -0.3932 C   0  0  0  0  0  0  0  0  0  0  0  0
   -4.3909    1.0168    0.1731 C   0  0  0  0  0  0  0  0  0  0  0  0
   -4.1014   -1.4588   -0.0071 C   0  0  0  0  0  0  0  0  0  0  0  0
   -2.9408    1.2179   -0.2644 C   0  0  0  0  0  0  0  0  0  0  0  0
   -2.6547   -1.2545   -0.4513 C   0  0  0  0  0  0  0  0  0  0  0  0
   -0.7509    0.1535    0.1899 C   0  0  0  0  0  0  0  0  0  0  0  0
   -0.0343    1.1379   -0.5179 C   0  0  0  0  0  0  0  0  0  0  0  0
   -0.0328   -0.7027    1.0469 C   0  0  0  0  0  0  0  0  0  0  0  0
    2.0393    0.4025    0.4800 C   0  0  0  0  0  0  0  0  0  0  0  0
    1.3478    1.2612   -0.3743 C   0  0  0  0  0  0  0  0  0  0  0  0
    1.3491   -0.5795    1.1907 C   0  0  0  0  0  0  0  0  0  0  0  0
    3.5169    0.5347    0.6337 C   0  0  0  0  0  0  0  0  0  0  0  0
    4.3047   -0.3040   -0.3535 C   0  0  0  0  0  0  0  0  0  0  0  0
  1 16  1  0
  2 16  2  0
  3  7  1  0
  3  8  1  0
  3  9  1  0
  4  5  1  0
  4  6  1  0
  5  7  1  0
  6  8  1  0
  9 10  2  0
  9 11  1  0
 10 13  1  0
 11 14  2  0
 12 13  2  0
 12 14  1  0
 12 15  1  0
 15 16  1  0
M  END
>  <PUBCHEM_COMPOUND_CID>  (1) 
38363

>  <PUBCHEM_CONFORMER_RMSD>  (1) 
0.6

>  <PUBCHEM_CONFORMER_DIVERSEORDER>  (1) 
1
9
15
4
2
13
5
12
11
6
14
3
16
7
10
8

>  <PUBCHEM_MMFF94_PARTIAL_CHARGES>  (1) 
18
1 -0.65
10 -0.15
11 -0.15
12 -0.14
13 -0.15
14 -0.15
15 0.2
16 0.66
2 -0.57
27 0.15
28 0.15
29 0.15
3 -0.84
30 0.15
33 0.5
7 0.37
8 0.37
9 0.1

>  <PUBCHEM_EFFECTIVE_ROTOR_COUNT>  (1) 
4.2

>  <PUBCHEM_PHARMACOPHORE_FEATURES>  (1) 
6
1 1 acceptor
1 2 acceptor
1 3 cation
3 1 2 16 anion
6 3 4 5 6 7 8 rings
6 9 10 11 12 13 14 rings

>  <PUBCHEM_HEAVY_ATOM_COUNT>  (1) 
16

>  <PUBCHEM_ATOM_DEF_STEREO_COUNT>  (1) 
0

>  <PUBCHEM_ATOM_UDEF_STEREO_COUNT>  (1) 
0

>  <PUBCHEM_BOND_DEF_STEREO_COUNT>  (1) 
0

>  <PUBCHEM_BOND_UDEF_STEREO_COUNT>  (1) 
0

>  <PUBCHEM_ISOTOPIC_ATOM_COUNT>  (1) 
0

>  <PUBCHEM_COMPONENT_COUNT>  (1) 
1

>  <PUBCHEM_CACTVS_TAUTO_COUNT>  (1) 
1

>  <PUBCHEM_CONFORMER_ID>  (1) 
000095DB00000001

>  <PUBCHEM_MMFF94_ENERGY>  (1) 
41.3291

>  <PUBCHEM_FEATURE_SELFOVERLAP>  (1) 
30.504

>  <PUBCHEM_SHAPE_FINGERPRINT>  (1) 
106641 1 12751224931191022790
10680689 15 18334014991037085057
11128504 68 17603874424740487686
11287383 113 18272930553124911456
11401426 45 18187362138513751104
11796584 16 17346883342507722543
12236239 1 17894629244781558285
124424 183 16200431377398406531
13288520 33 18343585144086403997
13675066 3 18201716297052675473
13705890 14 18060138756318222888
13760787 5 16732977609492246696
14251718 22 18410857685311676252
14573314 32 18060420187886441581
14911166 2 17749108911242387792
14993402 34 17385442137335798944
15536298 74 18336824307159196913
15788980 27 16630524033621198525
17834072 33 18340490062136580268
17834072 8 18408879634007832565
18186145 218 17968086564398089853
19026448 4 17917423250523144704
19784866 240 17560252327738123862
1986462 14 18410855456118102709
200 152 17060338513322717330
20279233 1 16343708759352562261
20374829 77 18411419471592834446
204376 136 15068623785852619049
20645477 70 17561086878264233254
20681677 155 18408323268133709523
21267235 1 18334018328532622579
22485316 2 17846495945954085262
2297311 6 18343026592559509757
23175994 123 16988847189580441665
23402539 116 18260544515962080188
23402655 69 17821999870849249013
23557571 272 18342740689081386677
23559900 14 18130782404114976552
26918003 58 16989126460990996174
29717793 49 18342170107645826845
3545911 37 18408319978500029305
4047638 21 12396297050174520456
42 15 17775005695399485373
4214541 1 18343019986815470905
465052 167 15554448526356112340
4990 188 18410294696645455526
633830 44 18040996284189549645
77779 3 18343301487329740369
9981440 41 17254557621612008816

>  <PUBCHEM_SHAPE_MULTIPOLES>  (1) 
312.55
10.62
1.35
0.94
2.5
0.03
0.06
-1.4
-1.92
-0.9
-0.12
0.5
-0.16
0.08

>  <PUBCHEM_SHAPE_SELFOVERLAP>  (1) 
648.755

>  <PUBCHEM_SHAPE_VOLUME>  (1) 
177.8

>  <PUBCHEM_COORDINATE_TYPE>  (1) 
2
5
10

$$$$
