38367
     RDKit          3D

 19 19  0  0  1  0  0  0  0  0999 V2000
    1.7591   -3.2541    1.3688 Cl  0  0  0  0  0  0  0  0  0  0  0  0
   -2.1628    1.4161    1.0589 S   0  0  0  0  0  0  0  0  0  0  0  0
   -3.5622    0.6790   -0.3194 P   0  0  0  0  0  0  0  0  0  0  0  0
   -3.3126   -0.8920   -0.6384 O   0  0  0  0  0  0  0  0  0  0  0  0
   -3.5549    1.5085   -1.5762 O   0  0  0  0  0  0  0  0  0  0  0  0
    1.8454    1.8000    0.3267 N   0  0  0  0  0  0  0  0  0  0  0  0
    0.5641    1.8590    1.0716 C   0  0  0  0  0  0  0  0  0  0  0  0
    2.2732    0.3645   -0.0636 C   0  0  0  0  0  0  0  0  0  0  0  0
    1.7253    2.6086   -0.9787 C   0  0  0  0  0  0  0  0  0  0  0  0
    2.9752    2.3917    1.1905 C   0  0  0  0  0  0  0  0  0  0  0  0
   -0.5763    1.3532    0.2033 C   0  0  0  0  0  0  0  0  0  0  0  0
    1.8550   -0.6239    0.7500 C   0  0  0  0  0  0  0  0  0  0  0  0
    3.0220    0.2489   -1.1771 C   0  0  0  0  0  0  0  0  0  0  0  0
    2.2418   -1.9171    0.3985 C   0  0  0  0  0  0  0  0  0  0  0  0
    3.4089   -1.0443   -1.5285 C   0  0  0  0  0  0  0  0  0  0  0  0
    3.0187   -2.1273   -0.7406 C   0  0  0  0  0  0  0  0  0  0  0  0
   -5.1817    0.7044    0.4497 C   0  0  0  0  0  0  0  0  0  0  0  0
   -3.2954   -1.8538    0.4011 C   0  0  0  0  0  0  0  0  0  0  0  0
   -3.0430   -3.2215   -0.1966 C   0  0  0  0  0  0  0  0  0  0  0  0
  1 14  1  0
  2  3  1  0
  2 11  1  0
  3  4  1  0
  3  5  2  0
  3 17  1  0
  4 18  1  0
  6  7  1  0
  6  8  1  0
  6  9  1  0
  6 10  1  0
  7 11  1  0
  8 12  2  0
  8 13  1  0
 12 14  1  0
 13 15  2  0
 14 16  2  0
 15 16  1  0
 18 19  1  0
M  CHG  1   6   1
M  END
>  <PUBCHEM_COMPOUND_CID>  (1) 
38367

>  <PUBCHEM_CONFORMER_RMSD>  (1) 
0.8

>  <PUBCHEM_CONFORMER_DIVERSEORDER>  (1) 
73
166
120
182
131
172
144
161
171
124
147
149
54
125
136
101
8
170
40
122
111
83
139
138
50
1
153
21
55
104
18
180
184
82
56
174
183
71
5
190
14
103
84
67
191
96
3
43
140
165
119
7
64
107
86
179
146
23
78
90
80
34
57
177
151
49
58
42
113
6
97
52
12
79
4
187
92
75
70
48
16
168
194
74
152
91
157
89
39
108
2
85
156
41
19
29
145
33
77
160
132
59
98
117
105
60
129
181
44
10
27
76
112
154
116
47
193
106
164
114
45
13
94
176
99
88
102
158
36
72
175
115
186
128
123
118
93
35
66
189
167
192
173
63
28
126
22
26
110
159
24
68
25
32
121
38
100
150
178
133
109
46
143
61
155
20
95
37
188
127
148
65
142
169
62
130
185
17
141
9
53
30
15
81
135
87
162
163
134
69
51
31
11
137

>  <PUBCHEM_MMFF94_PARTIAL_CHARGES>  (1) 
21
1 -0.18
10 0.5
11 0.23
12 -0.15
13 -0.15
14 0.18
15 -0.15
16 -0.15
18 0.28
2 -0.48
3 1.22
30 0.15
31 0.15
32 0.15
33 0.15
4 -0.55
5 -0.7
6 -0.87
7 0.5
8 0.36
9 0.5

>  <PUBCHEM_EFFECTIVE_ROTOR_COUNT>  (1) 
7

>  <PUBCHEM_PHARMACOPHORE_FEATURES>  (1) 
2
1 6 cation
6 8 12 13 14 15 16 rings

>  <PUBCHEM_HEAVY_ATOM_COUNT>  (1) 
19

>  <PUBCHEM_ATOM_DEF_STEREO_COUNT>  (1) 
0

>  <PUBCHEM_ATOM_UDEF_STEREO_COUNT>  (1) 
1

>  <PUBCHEM_BOND_DEF_STEREO_COUNT>  (1) 
0

>  <PUBCHEM_BOND_UDEF_STEREO_COUNT>  (1) 
0

>  <PUBCHEM_ISOTOPIC_ATOM_COUNT>  (1) 
0

>  <PUBCHEM_COMPONENT_COUNT>  (1) 
1

>  <PUBCHEM_CACTVS_TAUTO_COUNT>  (1) 
1

>  <PUBCHEM_CONFORMER_ID>  (1) 
000095DF00000049

>  <PUBCHEM_MMFF94_ENERGY>  (1) 
57.5702

>  <PUBCHEM_FEATURE_SELFOVERLAP>  (1) 
10.148

>  <PUBCHEM_SHAPE_FINGERPRINT>  (1) 
10616163 171 18268431415942278543
108634 29 17903642122316036914
12553582 1 18125725590823793106
12596599 1 18058747865166191707
12633257 1 18270401586213301519
12788726 201 17702956816314990497
13533116 47 18130785694587224641
14178342 30 18268702982234590233
14251705 54 18196937884117255439
14617045 38 18334870415505094995
17921350 177 18343304751389432815
18186145 218 18408039606997812189
20291156 8 18270686346322937873
20645477 70 18202560687734189757
21315764 21 17171780481172476023
21634736 98 18411991273062402598
221490 88 18341622558965216938
2255824 54 18408892840789966636
23559900 14 18343580767541648976
238 59 18114761377041553914
314173 41 18412270514571710301
9709674 26 18342735260680184597

>  <PUBCHEM_SHAPE_MULTIPOLES>  (1) 
383.86
8.47
3.89
1.39
9.22
2.07
-0.12
1.19
-1.64
-1.01
0.79
-0.64
-0.12
0.18

>  <PUBCHEM_SHAPE_SELFOVERLAP>  (1) 
724.51

>  <PUBCHEM_SHAPE_VOLUME>  (1) 
243.8

>  <PUBCHEM_COORDINATE_TYPE>  (1) 
2
5
10

$$$$
