38361
     RDKit          3D

 23 26  0  0  0  0  0  0  0  0999 V2000
   -1.3286   -2.7259   -0.9904 O   0  0  0  0  0  0  0  0  0  0  0  0
    2.4871    2.3767   -1.1624 O   0  0  0  0  0  0  0  0  0  0  0  0
    4.7443    2.5038    0.4539 O   0  0  0  0  0  0  0  0  0  0  0  0
    0.0745   -1.6986    0.5572 N   0  0  0  0  0  0  0  0  0  0  0  0
   -1.9706   -0.6165   -0.0692 C   0  0  0  0  0  0  0  0  0  0  0  0
   -4.1640    0.4160   -0.7727 C   0  0  0  0  0  0  0  0  0  0  0  0
   -2.1766    1.8901   -0.2848 C   0  0  0  0  0  0  0  0  0  0  0  0
   -3.3462    0.6860    1.5982 C   0  0  0  0  0  0  0  0  0  0  0  0
   -3.2213   -0.7863   -0.9547 C   0  0  0  0  0  0  0  0  0  0  0  0
   -1.2417    0.6819   -0.4687 C   0  0  0  0  0  0  0  0  0  0  0  0
   -2.4064   -0.5173    1.4059 C   0  0  0  0  0  0  0  0  0  0  0  0
   -3.4223    1.7045   -1.1684 C   0  0  0  0  0  0  0  0  0  0  0  0
   -4.5857    0.5078    0.7041 C   0  0  0  0  0  0  0  0  0  0  0  0
   -2.6094    1.9735    1.1894 C   0  0  0  0  0  0  0  0  0  0  0  0
   -1.0551   -1.7951   -0.2371 C   0  0  0  0  0  0  0  0  0  0  0  0
    1.1017   -2.7142    0.5975 C   0  0  0  0  0  0  0  0  0  0  0  0
    2.1822   -2.4422   -0.4498 C   0  0  0  0  0  0  0  0  0  0  0  0
    2.8645   -1.1190   -0.2103 C   0  0  0  0  0  0  0  0  0  0  0  0
    2.3552    0.0265   -0.8028 C   0  0  0  0  0  0  0  0  0  0  0  0
    3.9902   -1.0699    0.5981 C   0  0  0  0  0  0  0  0  0  0  0  0
    2.9868    1.2505   -0.5817 C   0  0  0  0  0  0  0  0  0  0  0  0
    4.6216    0.1538    0.8192 C   0  0  0  0  0  0  0  0  0  0  0  0
    4.1199    1.3140    0.2294 C   0  0  0  0  0  0  0  0  0  0  0  0
  1 15  2  0
  2 21  1  0
  3 23  1  0
  4 15  1  0
  4 16  1  0
  5  9  1  0
  5 10  1  0
  5 11  1  0
  5 15  1  0
  6  9  1  0
  6 12  1  0
  6 13  1  0
  7 10  1  0
  7 12  1  0
  7 14  1  0
  8 11  1  0
  8 13  1  0
  8 14  1  0
 16 17  1  0
 17 18  1  0
 18 19  2  0
 18 20  1  0
 19 21  1  0
 20 22  2  0
 21 23  2  0
 22 23  1  0
M  END
>  <PUBCHEM_COMPOUND_CID>  (1) 
38361

>  <PUBCHEM_CONFORMER_RMSD>  (1) 
0.8

>  <PUBCHEM_CONFORMER_DIVERSEORDER>  (1) 
1
11
9
3
21
5
4
20
12
10
22
19
6
13
23
2
7
8
24
15
14
16
17
18

>  <PUBCHEM_MMFF94_PARTIAL_CHARGES>  (1) 
20
1 -0.57
15 0.57
16 0.3
17 0.14
18 -0.14
19 -0.15
2 -0.53
20 -0.15
21 0.08
22 -0.15
23 0.08
3 -0.53
39 0.37
4 -0.73
44 0.15
45 0.15
46 0.15
47 0.45
48 0.45
5 0.06

>  <PUBCHEM_EFFECTIVE_ROTOR_COUNT>  (1) 
6.2

>  <PUBCHEM_PHARMACOPHORE_FEATURES>  (1) 
9
1 1 acceptor
1 2 donor
1 3 donor
1 4 donor
6 18 19 20 21 22 23 rings
6 5 6 7 9 10 12 rings
6 5 6 8 9 11 13 rings
6 5 7 8 10 11 14 rings
6 6 7 8 12 13 14 rings

>  <PUBCHEM_HEAVY_ATOM_COUNT>  (1) 
23

>  <PUBCHEM_ATOM_DEF_STEREO_COUNT>  (1) 
0

>  <PUBCHEM_ATOM_UDEF_STEREO_COUNT>  (1) 
0

>  <PUBCHEM_BOND_DEF_STEREO_COUNT>  (1) 
0

>  <PUBCHEM_BOND_UDEF_STEREO_COUNT>  (1) 
0

>  <PUBCHEM_ISOTOPIC_ATOM_COUNT>  (1) 
0

>  <PUBCHEM_COMPONENT_COUNT>  (1) 
1

>  <PUBCHEM_CACTVS_TAUTO_COUNT>  (1) 
36

>  <PUBCHEM_CONFORMER_ID>  (1) 
000095D900000001

>  <PUBCHEM_MMFF94_ENERGY>  (1) 
55.7419

>  <PUBCHEM_FEATURE_SELFOVERLAP>  (1) 
58.222

>  <PUBCHEM_SHAPE_FINGERPRINT>  (1) 
10366900 7 17604730858040905139
10498660 4 18412542123860621630
10670039 82 18119824753295875772
11370993 70 18409160026447159916
11640471 11 18201998807058936862
12173636 292 17774443785287228523
12633257 1 18336256908304959032
12788726 201 17763190536879896910
12978246 48 18410009935940025552
13224815 77 18411140212196574377
13583140 156 17530962449679825355
15342168 16 18272381832334727931
15840311 113 18053676776907923777
17492 89 18410007771477669878
18186145 218 18200320909386207982
19930381 70 18410575054925660793
20715895 44 18121769531303649197
21033648 29 17168422658375613879
21033650 10 15625961806430674354
21475661 188 17750229218917428893
21623110 236 18412826923627511065
21864079 5 17985835834739673499
22749437 52 18410855456075969528
23227448 37 18410290341353854559
23557571 272 17845370118967241534
23559900 14 18047184159885836211
469060 322 17974583681960367939
474 4 18408322185601899906
49207404 50 18115610199897007563
5048184 11 18337958994985663708
5081480 168 17199127521319253550
5104073 3 18408321103243761738
6287921 2 18058178219411451743
6328613 192 18335707187394453212
633830 44 17774171071922437063
9709674 26 18408325458103326302
9981440 41 18265324183245170914

>  <PUBCHEM_SHAPE_MULTIPOLES>  (1) 
450.74
9.75
2.93
1.26
4.26
0.51
-0.18
-4.5
-1.2
1.77
0.3
-0.87
-0.19
-0.3

>  <PUBCHEM_SHAPE_SELFOVERLAP>  (1) 
984.593

>  <PUBCHEM_SHAPE_VOLUME>  (1) 
238.1

>  <PUBCHEM_COORDINATE_TYPE>  (1) 
2
5
10

$$$$
