38362
     RDKit          3D

 15 16  0  0  0  0  0  0  0  0999 V2000
   -4.5868   -0.1052    0.1862 O   0  0  0  0  0  0  0  0  0  0  0  0
    4.5268    1.0835   -0.3017 O   0  0  0  0  0  0  0  0  0  0  0  0
   -1.7890    0.0112   -0.0542 N   0  0  0  0  0  0  0  0  0  0  0  0
   -2.4970    0.9391    0.8383 C   0  0  0  0  0  0  0  0  0  0  0  0
   -2.5083   -1.2296   -0.3628 C   0  0  0  0  0  0  0  0  0  0  0  0
   -3.9217    1.1487    0.3380 C   0  0  0  0  0  0  0  0  0  0  0  0
   -3.9326   -0.9045   -0.7987 C   0  0  0  0  0  0  0  0  0  0  0  0
   -0.3904    0.0225   -0.0434 C   0  0  0  0  0  0  0  0  0  0  0  0
    0.3423   -1.1322    0.2976 C   0  0  0  0  0  0  0  0  0  0  0  0
    0.3288    1.1889   -0.3732 C   0  0  0  0  0  0  0  0  0  0  0  0
    2.4277    0.0450   -0.0215 C   0  0  0  0  0  0  0  0  0  0  0  0
    1.7370   -1.1210    0.3086 C   0  0  0  0  0  0  0  0  0  0  0  0
    1.7236    1.1999   -0.3624 C   0  0  0  0  0  0  0  0  0  0  0  0
    3.8818    0.0564   -0.0108 C   0  0  0  0  0  0  0  0  0  0  0  0
    4.6578   -1.2028    0.3601 C   0  0  0  0  0  0  0  0  0  0  0  0
  1  6  1  0
  1  7  1  0
  2 14  2  0
  3  4  1  0
  3  5  1  0
  3  8  1  0
  4  6  1  0
  5  7  1  0
  8  9  2  0
  8 10  1  0
  9 12  1  0
 10 13  2  0
 11 12  2  0
 11 13  1  0
 11 14  1  0
 14 15  1  0
M  END
>  <PUBCHEM_COMPOUND_CID>  (1) 
38362

>  <PUBCHEM_CONFORMER_RMSD>  (1) 
0.6

>  <PUBCHEM_CONFORMER_DIVERSEORDER>  (1) 
1
8
10
9
2
7
4
3
5
6

>  <PUBCHEM_MMFF94_PARTIAL_CHARGES>  (1) 
19
1 -0.56
10 -0.15
11 0.09
12 -0.15
13 -0.15
14 0.42
15 0.06
2 -0.57
24 0.15
25 0.15
26 0.15
27 0.15
3 -0.84
4 0.37
5 0.37
6 0.28
7 0.28
8 0.1
9 -0.15

>  <PUBCHEM_EFFECTIVE_ROTOR_COUNT>  (1) 
3.2

>  <PUBCHEM_PHARMACOPHORE_FEATURES>  (1) 
5
1 1 acceptor
1 2 acceptor
1 3 cation
6 1 3 4 5 6 7 rings
6 8 9 10 11 12 13 rings

>  <PUBCHEM_HEAVY_ATOM_COUNT>  (1) 
15

>  <PUBCHEM_ATOM_DEF_STEREO_COUNT>  (1) 
0

>  <PUBCHEM_ATOM_UDEF_STEREO_COUNT>  (1) 
0

>  <PUBCHEM_BOND_DEF_STEREO_COUNT>  (1) 
0

>  <PUBCHEM_BOND_UDEF_STEREO_COUNT>  (1) 
0

>  <PUBCHEM_ISOTOPIC_ATOM_COUNT>  (1) 
0

>  <PUBCHEM_COMPONENT_COUNT>  (1) 
1

>  <PUBCHEM_CACTVS_TAUTO_COUNT>  (1) 
2

>  <PUBCHEM_CONFORMER_ID>  (1) 
000095DA00000001

>  <PUBCHEM_MMFF94_ENERGY>  (1) 
52.4812

>  <PUBCHEM_FEATURE_SELFOVERLAP>  (1) 
25.371

>  <PUBCHEM_SHAPE_FINGERPRINT>  (1) 
10062212 137 18412821395614412239
10465860 250 17203605977933551755
11132069 177 18411696569644280176
11401426 45 18408880750261524756
11471102 20 18259983782169598508
11806522 49 18338795722933370687
12236239 1 18412826885099197907
13167823 11 18413106156299198046
13675066 3 18260553320207401416
13690532 89 18335419062821723186
13760787 5 17967254191567956342
13862211 1 18261668199650474058
14144814 61 18410012117962344171
14993402 34 18408323310914681126
15196674 1 18409729555931626628
15536298 74 18342459218763347806
17834072 33 18343301496019888820
17862501 102 18342735208802967042
18186145 218 17313103059952823890
18522853 276 18342176678439588481
19026448 4 16630809902576078948
19422 9 18413389830504587318
200 152 18341889719142919327
20279233 1 15936411134967639347
20281475 54 18408316696707392654
20300324 65 18131631214359405747
20645477 70 18260546693547961586
21267235 1 18410582781387248947
22485316 2 18411134740650884342
23402539 116 17846210047530474397
23402655 69 18410289177786774557
23557571 272 16200167468669528057
23559900 14 17846778516648440992
265663 24 18273213101431989390
42 15 18341895177561023258
4214541 1 18341894069623147089
4990 188 18059864943626498102
5104073 3 18411419522493963970
53655031 270 18409730625594884728
573450 72 18272645723346219491
77779 3 18342177764902686518
9981440 41 17329140781211238096

>  <PUBCHEM_SHAPE_MULTIPOLES>  (1) 
291.97
9.37
1.46
0.76
0.96
0
-0.01
0.43
-0.09
0.07
0.03
-0.24
-0.01
-0.85

>  <PUBCHEM_SHAPE_SELFOVERLAP>  (1) 
609.287

>  <PUBCHEM_SHAPE_VOLUME>  (1) 
166.3

>  <PUBCHEM_COORDINATE_TYPE>  (1) 
2
5
10

$$$$
