38369
     RDKit          3D

 15 15  0  0  1  0  0  0  0  0999 V2000
   -6.1824   -0.1099   -0.0686 Br  0  0  0  0  0  0  0  0  0  0  0  0
    0.0539    0.3305    0.1146 O   0  0  0  0  0  0  0  0  0  0  0  0
   -1.5117    1.5838   -1.0047 O   0  0  0  0  0  0  0  0  0  0  0  0
   -2.0957    0.1717    0.7409 N   0  0  0  0  0  0  0  0  0  0  0  0
   -3.5184    0.4229    0.7453 C   0  0  0  0  0  0  0  0  0  0  0  0
   -4.2699   -0.5346   -0.1710 C   0  0  0  0  0  0  0  0  0  0  0  0
    2.4018    0.2891   -0.3221 C   0  0  0  0  0  0  0  0  0  0  0  0
    1.0799    0.8747   -0.7233 C   0  0  0  0  0  0  0  0  0  0  0  0
   -4.0845   -1.9978    0.2045 C   0  0  0  0  0  0  0  0  0  0  0  0
   -1.2149    0.7734   -0.1333 C   0  0  0  0  0  0  0  0  0  0  0  0
    3.1700    0.9238    0.6476 C   0  0  0  0  0  0  0  0  0  0  0  0
    2.8465   -0.8832   -0.9232 C   0  0  0  0  0  0  0  0  0  0  0  0
    4.3988    0.3795    1.0209 C   0  0  0  0  0  0  0  0  0  0  0  0
    4.0754   -1.4276   -0.5497 C   0  0  0  0  0  0  0  0  0  0  0  0
    4.8514   -0.7962    0.4222 C   0  0  0  0  0  0  0  0  0  0  0  0
  1  6  1  0
  2  8  1  0
  2 10  1  0
  3 10  2  0
  4  5  1  0
  4 10  1  0
  5  6  1  0
  6  9  1  0
  7  8  1  0
  7 11  2  0
  7 12  1  0
 11 13  1  0
 12 14  2  0
 13 15  2  0
 14 15  1  0
M  END
>  <PUBCHEM_COMPOUND_CID>  (1) 
38369

>  <PUBCHEM_CONFORMER_RMSD>  (1) 
0.6

>  <PUBCHEM_CONFORMER_DIVERSEORDER>  (1) 
1
212
211
93
243
11
209
181
90
240
226
53
3
84
184
107
8
155
177
106
4
166
228
20
229
203
172
6
45
75
214
33
183
85
122
161
2
192
103
9
174
241
101
230
14
167
87
237
198
220
12
74
21
186
118
235
18
210
96
10
114
179
180
123
117
169
7
88
199
222
100
5
170
109
232
120
54
148
113
121
191
225
19
104
99
231
56
190
215
29
57
182
213
79
217
175
105
207
65
80
234
15
162
140
116
196
73
28
89
242
201
227
25
205
195
47
189
202
244
153
60
158
61
145
157
178
82
136
83
13
224
151
41
94
115
223
64
16
218
44
188
164
173
112
95
238
233
58
102
144
59
236
239
219
176
127
216
72
139
168
146
38
78
165
66
70
37
39
156
86
197
160
132
26
31
81
133
36
187
48
119
130
23
24
200
62
159
51
111
147
34
17
131
92
40
126
128
55
77
171
129
193
68
149
135
208
46
63
71
134
163
42
27
150
152
143
125
142
52
124
69
22
194
67
141
138
98
185
154
206
43
30
50
76
110
137
221
49
97
108
35
32
204
91

>  <PUBCHEM_MMFF94_PARTIAL_CHARGES>  (1) 
20
1 -0.23
10 0.78
11 -0.15
12 -0.15
13 -0.15
14 -0.15
15 -0.15
2 -0.43
21 0.37
25 0.15
26 0.15
27 0.15
28 0.15
29 0.15
3 -0.57
4 -0.73
5 0.3
6 0.23
7 -0.14
8 0.42

>  <PUBCHEM_EFFECTIVE_ROTOR_COUNT>  (1) 
6

>  <PUBCHEM_PHARMACOPHORE_FEATURES>  (1) 
5
1 1 hydrophobe
1 3 acceptor
1 4 donor
3 1 6 9 hydrophobe
6 7 11 12 13 14 15 rings

>  <PUBCHEM_HEAVY_ATOM_COUNT>  (1) 
15

>  <PUBCHEM_ATOM_DEF_STEREO_COUNT>  (1) 
0

>  <PUBCHEM_ATOM_UDEF_STEREO_COUNT>  (1) 
1

>  <PUBCHEM_BOND_DEF_STEREO_COUNT>  (1) 
0

>  <PUBCHEM_BOND_UDEF_STEREO_COUNT>  (1) 
0

>  <PUBCHEM_ISOTOPIC_ATOM_COUNT>  (1) 
0

>  <PUBCHEM_COMPONENT_COUNT>  (1) 
1

>  <PUBCHEM_CACTVS_TAUTO_COUNT>  (1) 
2

>  <PUBCHEM_CONFORMER_ID>  (1) 
000095E100000001

>  <PUBCHEM_MMFF94_ENERGY>  (1) 
23.3707

>  <PUBCHEM_FEATURE_SELFOVERLAP>  (1) 
26.307

>  <PUBCHEM_SHAPE_FINGERPRINT>  (1) 
10354089 29 13830130598380939226
11858739 19 18413388713860576295
12596602 18 15123787401121186207
12916748 109 9799694805202914167
13081056 2 8286204941998543807
13533116 47 17775288231296863439
13897977 58 8862946070278707651
14123238 8 14189574139572157483
1420 369 18336271227394004291
14251752 14 16515674517025504053
14252887 29 17418101988141594502
14848160 23 18342453755681024311
15239154 128 9295296031877702555
16752209 62 16805594854796101937
17834072 8 17676481749255042415
17834076 25 10447927273904199712
17959699 21 8502654809405829542
18222031 100 18114186324097113116
19141452 34 18412263965279444439
200 152 18412823577832137093
20369508 70 16660360411512867292
20374829 77 18113898273609809475
20432913 95 18343306954701808514
20645477 56 9223224148673328953
20645477 70 13045934677878397760
21065199 12 17917430887175437480
212847 35 10591768671058546694
21354914 88 18333450949903442573
21673915 165 18343300396371656710
22224240 67 18272359915591409218
22289505 5 11241962690337895222
22485316 2 18342458153547979431
22646028 1 18040436585557987344
23402539 116 17894624855673089637
23402655 69 12251906992823833722
23557571 272 18410291367793067941
23559900 14 18340767151862017561
26918003 58 18202563981979010211
29717793 49 16153708679107028538
314173 85 18187652392435568533
316301 35 18337390431874587522
32948 21 14562522981618064655
351380 3 17675924300542992411
3545911 37 8286198357486430023
4047638 21 10303812081849991588
42 15 18201441359000410472
5104073 3 17987792995908107170
522135 26 12396295959215962520
5374978 207 17275386499299375984

>  <PUBCHEM_SHAPE_MULTIPOLES>  (1) 
297.92
13.56
1.46
0.97
9.5
0.46
-0.02
4.09
1.84
0.13
-0.13
-0.39
-0.11
0.61

>  <PUBCHEM_SHAPE_SELFOVERLAP>  (1) 
584.381

>  <PUBCHEM_SHAPE_VOLUME>  (1) 
182.5

>  <PUBCHEM_COORDINATE_TYPE>  (1) 
2
5
10

$$$$
