38384
     RDKit          3D

 10 10  0  0  0  0  0  0  0  0999 V2000
    4.0259   -0.3890    0.0469 Br  0  0  0  0  0  0  0  0  0  0  0  0
    1.7217    1.4692   -0.0247 O   0  0  0  0  0  0  0  0  0  0  0  0
   -0.6225   -1.1560   -0.0094 N   0  0  0  0  0  0  0  0  0  0  0  0
   -0.2003    0.1282   -0.0043 C   0  0  0  0  0  0  0  0  0  0  0  0
    1.2399    0.3180   -0.0142 C   0  0  0  0  0  0  0  0  0  0  0  0
   -1.0487    1.2236    0.0078 C   0  0  0  0  0  0  0  0  0  0  0  0
   -2.4186    0.9856    0.0158 C   0  0  0  0  0  0  0  0  0  0  0  0
    2.1547   -0.9092   -0.0276 C   0  0  0  0  0  0  0  0  0  0  0  0
   -2.8915   -0.3221    0.0112 C   0  0  0  0  0  0  0  0  0  0  0  0
   -1.9606   -1.3482   -0.0015 C   0  0  0  0  0  0  0  0  0  0  0  0
  1  8  1  0
  2  5  2  0
  3  4  2  0
  3 10  1  0
  4  5  1  0
  4  6  1  0
  5  8  1  0
  6  7  2  0
  7  9  1  0
  9 10  2  0
M  END
>  <PUBCHEM_COMPOUND_CID>  (1) 
38384

>  <PUBCHEM_CONFORMER_RMSD>  (1) 
0.4

>  <PUBCHEM_CONFORMER_DIVERSEORDER>  (1) 
1
20
26
17
6
19
8
24
22
14
11
13
25
10
2
16
23
15
12
7
4
18
21
3
5
9

>  <PUBCHEM_MMFF94_PARTIAL_CHARGES>  (1) 
14
1 -0.23
10 0.16
11 0.15
14 0.15
15 0.15
16 0.15
2 -0.57
3 -0.62
4 0.4
5 0.42
6 -0.15
7 -0.15
8 0.29
9 -0.15

>  <PUBCHEM_EFFECTIVE_ROTOR_COUNT>  (1) 
2

>  <PUBCHEM_PHARMACOPHORE_FEATURES>  (1) 
4
1 1 hydrophobe
1 2 acceptor
1 3 acceptor
6 3 4 6 7 9 10 rings

>  <PUBCHEM_HEAVY_ATOM_COUNT>  (1) 
10

>  <PUBCHEM_ATOM_DEF_STEREO_COUNT>  (1) 
0

>  <PUBCHEM_ATOM_UDEF_STEREO_COUNT>  (1) 
0

>  <PUBCHEM_BOND_DEF_STEREO_COUNT>  (1) 
0

>  <PUBCHEM_BOND_UDEF_STEREO_COUNT>  (1) 
0

>  <PUBCHEM_ISOTOPIC_ATOM_COUNT>  (1) 
0

>  <PUBCHEM_COMPONENT_COUNT>  (1) 
1

>  <PUBCHEM_CACTVS_TAUTO_COUNT>  (1) 
2

>  <PUBCHEM_CONFORMER_ID>  (1) 
000095F000000001

>  <PUBCHEM_MMFF94_ENERGY>  (1) 
23.5375

>  <PUBCHEM_FEATURE_SELFOVERLAP>  (1) 
20.297

>  <PUBCHEM_SHAPE_FINGERPRINT>  (1) 
11062470 55 17060336297330589138
12932764 1 17458334239182252344
13024252 1 15285361704348307945
14144814 61 18409446956000649154
14325111 11 18410292497442962312
16945 1 18410857624986909791
20201158 50 18343021068936239510
20645464 45 18060703870460479158
20871998 184 18202004364799398207
21040471 1 18410856521386146949
23402539 116 18059565868032239325
23402655 69 18124296230921140997
23463225 33 18263360300848362730
23552423 10 18188491388173253255
2748010 2 18338514269573745909
369184 2 18201718474690778249
5084963 1 18343018882845137777
7364860 26 18269836591808188824

>  <PUBCHEM_SHAPE_MULTIPOLES>  (1) 
200.89
5.6
1.44
0.61
4.34
0.06
0
-0.7
0.08
-0.4
-0.01
0.05
-0.01
-0.01

>  <PUBCHEM_SHAPE_SELFOVERLAP>  (1) 
399.187

>  <PUBCHEM_SHAPE_VOLUME>  (1) 
121.8

>  <PUBCHEM_COORDINATE_TYPE>  (1) 
2
5
10

$$$$
