38387
     RDKit          3D

  9  8  0  0  1  0  0  0  0  0999 V2000
   -1.2311    0.6245    0.1235 O   0  0  0  0  0  0  0  0  0  0  0  0
    2.5294   -1.3447    0.1674 O   0  0  0  0  0  0  0  0  0  0  0  0
    1.1644    0.6557    0.1645 C   0  0  0  0  0  0  0  0  0  0  0  0
    2.4578   -0.0055   -0.3145 C   0  0  0  0  0  0  0  0  0  0  0  0
   -0.0793   -0.0596   -0.3515 C   0  0  0  0  0  0  0  0  0  0  0  0
   -2.4283    0.0040   -0.3251 C   0  0  0  0  0  0  0  0  0  0  0  0
    3.6861    0.7541    0.1678 C   0  0  0  0  0  0  0  0  0  0  0  0
   -2.4792   -1.4288    0.1804 C   0  0  0  0  0  0  0  0  0  0  0  0
   -3.6199    0.8003    0.1874 C   0  0  0  0  0  0  0  0  0  0  0  0
  1  5  1  0
  1  6  1  0
  2  4  1  0
  3  4  1  0
  3  5  1  0
  4  7  1  0
  6  8  1  0
  6  9  1  0
M  END
>  <PUBCHEM_COMPOUND_CID>  (1) 
38387

>  <PUBCHEM_CONFORMER_RMSD>  (1) 
0.6

>  <PUBCHEM_CONFORMER_DIVERSEORDER>  (1) 
2
56
34
36
11
48
13
7
16
43
51
33
3
40
31
14
52
6
28
41
55
45
27
10
20
57
35
5
25
54
58
38
15
21
37
53
32
49
9
47
42
17
19
30
12
18
46
4
22
44
1
26
8
29
23
50
24
39

>  <PUBCHEM_MMFF94_PARTIAL_CHARGES>  (1) 
6
1 -0.56
2 -0.68
25 0.4
4 0.28
5 0.28
6 0.28

>  <PUBCHEM_EFFECTIVE_ROTOR_COUNT>  (1) 
4

>  <PUBCHEM_PHARMACOPHORE_FEATURES>  (1) 
4
1 1 acceptor
1 2 acceptor
1 2 donor
3 6 8 9 hydrophobe

>  <PUBCHEM_HEAVY_ATOM_COUNT>  (1) 
9

>  <PUBCHEM_ATOM_DEF_STEREO_COUNT>  (1) 
0

>  <PUBCHEM_ATOM_UDEF_STEREO_COUNT>  (1) 
1

>  <PUBCHEM_BOND_DEF_STEREO_COUNT>  (1) 
0

>  <PUBCHEM_BOND_UDEF_STEREO_COUNT>  (1) 
0

>  <PUBCHEM_ISOTOPIC_ATOM_COUNT>  (1) 
0

>  <PUBCHEM_COMPONENT_COUNT>  (1) 
1

>  <PUBCHEM_CACTVS_TAUTO_COUNT>  (1) 
1

>  <PUBCHEM_CONFORMER_ID>  (1) 
000095F300000002

>  <PUBCHEM_MMFF94_ENERGY>  (1) 
13.9754

>  <PUBCHEM_FEATURE_SELFOVERLAP>  (1) 
20.297

>  <PUBCHEM_SHAPE_FINGERPRINT>  (1) 
11062470 55 18413107259952617469
12932764 1 17240473710951483237
14325111 11 18411138043206441350
190213 19 17385726885235896725
20201158 50 18411418414455912074
20279233 1 18413390942537185086
20645477 70 18342454781656287358
3248919 1 17530969115416041438

>  <PUBCHEM_SHAPE_MULTIPOLES>  (1) 
173.48
6.74
1.21
0.65
0.79
0.39
0.02
-0.72
-0.43
-0.26
-0.11
-0.02
0
0.02

>  <PUBCHEM_SHAPE_SELFOVERLAP>  (1) 
309.916

>  <PUBCHEM_SHAPE_VOLUME>  (1) 
114.2

>  <PUBCHEM_COORDINATE_TYPE>  (1) 
2
5
10

$$$$
