38408
     RDKit          3D

 27 30  0  0  0  0  0  0  0  0999 V2000
    0.0252   -0.3999    0.0012 Si  0  0  0  0  0  4  0  0  0  0  0  0
   -2.1410   -0.2493   -2.2801 Si  0  0  0  0  0  4  0  0  0  0  0  0
   -2.1303   -0.1855    2.2876 Si  0  0  0  0  0  4  0  0  0  0  0  0
   -4.2801    0.2971    0.0015 Si  0  0  0  0  0  4  0  0  0  0  0  0
   -0.8345   -0.7631   -1.3702 O   0  0  0  0  0  0  0  0  0  0  0  0
   -0.8280   -0.7243    1.3862 O   0  0  0  0  0  0  0  0  0  0  0  0
   -3.5361   -0.3271   -1.3605 O   0  0  0  0  0  0  0  0  0  0  0  0
   -3.5297   -0.2882    1.3773 O   0  0  0  0  0  0  0  0  0  0  0  0
    0.6104    1.1462   -0.0222 O   0  0  0  0  0  0  0  0  0  0  0  0
    1.5675   -1.4398    0.0126 C   0  0  0  0  0  0  0  0  0  0  0  0
    2.8503   -0.8259    0.0060 C   0  0  0  0  0  0  0  0  0  0  0  0
   -1.8523    1.5012   -2.9079 C   0  0  0  0  0  0  0  0  0  0  0  0
   -2.3256   -1.3601   -3.7905 C   0  0  0  0  0  0  0  0  0  0  0  0
   -1.8384    1.5812    2.8662 C   0  0  0  0  0  0  0  0  0  0  0  0
   -2.3082   -1.2544    3.8288 C   0  0  0  0  0  0  0  0  0  0  0  0
    3.0195    0.6703   -0.0081 C   0  0  0  0  0  0  0  0  0  0  0  0
   -4.2584    2.1778   -0.0250 C   0  0  0  0  0  0  0  0  0  0  0  0
   -6.0907   -0.2325    0.0131 C   0  0  0  0  0  0  0  0  0  0  0  0
    1.9192    1.5611   -0.0216 C   0  0  0  0  0  0  0  0  0  0  0  0
    1.4368   -2.8450    0.0274 C   0  0  0  0  0  0  0  0  0  0  0  0
    3.9610   -1.6998    0.0135 C   0  0  0  0  0  0  0  0  0  0  0  0
    4.2927    1.2806   -0.0080 C   0  0  0  0  0  0  0  0  0  0  0  0
    2.5584   -3.6651    0.0353 C   0  0  0  0  0  0  0  0  0  0  0  0
    2.0814    2.9547   -0.0350 C   0  0  0  0  0  0  0  0  0  0  0  0
    3.8198   -3.0921    0.0280 C   0  0  0  0  0  0  0  0  0  0  0  0
    4.4584    2.6723   -0.0209 C   0  0  0  0  0  0  0  0  0  0  0  0
    3.3528    3.5097   -0.0345 C   0  0  0  0  0  0  0  0  0  0  0  0
  1  5  1  0
  1  6  1  0
  1  9  1  0
  1 10  1  0
  2  5  1  0
  2  7  1  0
  2 12  1  0
  2 13  1  0
  3  6  1  0
  3  8  1  0
  3 14  1  0
  3 15  1  0
  4  7  1  0
  4  8  1  0
  4 17  1  0
  4 18  1  0
  9 19  1  0
 10 11  2  0
 10 20  1  0
 11 16  1  0
 11 21  1  0
 16 19  2  0
 16 22  1  0
 19 24  1  0
 20 23  2  0
 21 25  2  0
 22 26  2  0
 23 25  1  0
 24 27  2  0
 26 27  1  0
M  END
>  <PUBCHEM_COMPOUND_CID>  (1) 
38408

>  <PUBCHEM_CONFORMER_RMSD>  (1) 
0.6

>  <PUBCHEM_CONFORMER_DIVERSEORDER>  (1) 
7
2
3
6
4
5
1
8
9

>  <PUBCHEM_MMFF94_PARTIAL_CHARGES>  (1) 
33
1 1.11
10 -0.22
12 -0.08
13 -0.08
14 -0.08
15 -0.08
17 -0.08
18 -0.08
19 0.08
2 0.76
20 -0.15
21 -0.15
22 -0.15
23 -0.15
24 -0.15
25 -0.15
26 -0.15
27 -0.15
3 0.76
4 0.76
46 0.15
47 0.15
48 0.15
49 0.15
5 -0.59
50 0.15
51 0.15
52 0.15
53 0.15
6 -0.59
7 -0.59
8 -0.59
9 -0.38

>  <PUBCHEM_EFFECTIVE_ROTOR_COUNT>  (1) 
1.6

>  <PUBCHEM_PHARMACOPHORE_FEATURES>  (1) 
3
6 1 9 10 11 16 19 rings
6 10 11 20 21 23 25 rings
6 16 19 22 24 26 27 rings

>  <PUBCHEM_HEAVY_ATOM_COUNT>  (1) 
27

>  <PUBCHEM_ATOM_DEF_STEREO_COUNT>  (1) 
0

>  <PUBCHEM_ATOM_UDEF_STEREO_COUNT>  (1) 
0

>  <PUBCHEM_BOND_DEF_STEREO_COUNT>  (1) 
0

>  <PUBCHEM_BOND_UDEF_STEREO_COUNT>  (1) 
0

>  <PUBCHEM_ISOTOPIC_ATOM_COUNT>  (1) 
0

>  <PUBCHEM_COMPONENT_COUNT>  (1) 
1

>  <PUBCHEM_CACTVS_TAUTO_COUNT>  (1) 
1

>  <PUBCHEM_CONFORMER_ID>  (1) 
0000960800000007

>  <PUBCHEM_MMFF94_ENERGY>  (1) 
42.4304

>  <PUBCHEM_FEATURE_SELFOVERLAP>  (1) 
15.254

>  <PUBCHEM_SHAPE_FINGERPRINT>  (1) 
10366900 7 17894918377774894935
10369192 42 17607549096002068700
11578080 2 17532681016397613500
11640471 11 17846226582558373944
11725454 13 17532631598530253538
12107698 1 18267304223572364585
12236239 1 17775286066596046143
12633257 1 16515964895048062637
12655364 131 18343014468489508114
12788726 201 17203616986377810673
13009979 54 17632281363937640230
13583140 156 18338534000674615985
13726171 33 14419278512542066495
13782708 43 17531530875880579699
13947920 75 16558758948589622504
14279260 333 17324073737994309690
14790565 3 18192720162130529260
15219462 58 17905090003193635201
15328829 1 17775566429688066414
15444296 8 16541584220492844591
16752209 62 16128379242411650291
17818456 19 17273975744355655760
17980427 23 17700145304541411249
1813 80 17914344476727817294
18915476 22 18334852840039899422
19319366 153 18130223873513818003
20101258 96 17835801894437106046
20511986 3 17703780431827723656
20715895 44 17483685494902799889
20739085 24 18129097810662495214
21033648 29 17313682472848681473
22122407 14 18270415888502091457
229495 10 18340753893556392405
23419403 2 18041290889103083570
23557571 272 17095532819781791591
23559900 14 17458923568861995274
23598288 3 17632574972581700695
238 59 18118092944761052550
3493558 16 18339367336517108961
469060 322 17833552671450525595
474 4 18341333387538876920
50150288 127 17487916702976844887
513202 73 17190958051236510654
57527295 17 17608628549457461999
57527358 35 18411704245373388825
6034566 193 17902238050373045676

>  <PUBCHEM_SHAPE_MULTIPOLES>  (1) 
599.15
9.58
3.6
3.12
1.7
0.11
-0.05
1.87
0.04
-6.07
0.04
4.91
-0.7
-0.21

>  <PUBCHEM_SHAPE_SELFOVERLAP>  (1) 
1207.855

>  <PUBCHEM_SHAPE_VOLUME>  (1) 
349.8

>  <PUBCHEM_COORDINATE_TYPE>  (1) 
2
5
10

$$$$
