38403
     RDKit          3D

 17 17  0  0  0  0  0  0  0  0999 V2000
   -2.3704    3.9968    0.2993 Cl  0  0  0  0  0  0  0  0  0  0  0  0
   -5.5485   -2.0986   -0.3149 Cl  0  0  0  0  0  0  0  0  0  0  0  0
    4.6788    0.3122   -1.4037 O   0  0  0  0  0  0  0  0  0  0  0  0
    5.0541   -0.0462    0.7292 O   0  0  0  0  0  0  0  0  0  0  0  0
   -2.1154   -0.0010   -0.1208 N   0  0  0  0  0  0  0  0  0  0  0  0
    4.2741    0.0243   -0.2513 N   0  0  0  0  0  0  0  0  0  0  0  0
   -1.2773   -0.9923    0.5527 C   0  0  0  0  0  0  0  0  0  0  0  0
   -1.8298    1.3402    0.3878 C   0  0  0  0  0  0  0  0  0  0  0  0
   -3.5309   -0.3239    0.0556 C   0  0  0  0  0  0  0  0  0  0  0  0
    0.1889   -0.7242    0.3408 C   0  0  0  0  0  0  0  0  0  0  0  0
   -2.7252    2.3589   -0.3002 C   0  0  0  0  0  0  0  0  0  0  0  0
   -3.8233   -1.7057   -0.5081 C   0  0  0  0  0  0  0  0  0  0  0  0
    0.6479   -0.4047   -0.9293 C   0  0  0  0  0  0  0  0  0  0  0  0
    1.0604   -0.8000    1.4182 C   0  0  0  0  0  0  0  0  0  0  0  0
    2.0062   -0.1559   -1.1260 C   0  0  0  0  0  0  0  0  0  0  0  0
    2.4187   -0.5510    1.2214 C   0  0  0  0  0  0  0  0  0  0  0  0
    2.8917   -0.2291   -0.0507 C   0  0  0  0  0  0  0  0  0  0  0  0
  1 11  1  0
  2 12  1  0
  3  6  1  0
  4  6  2  0
  5  7  1  0
  5  8  1  0
  5  9  1  0
  6 17  1  0
  7 10  1  0
  8 11  1  0
  9 12  1  0
 10 13  2  0
 10 14  1  0
 13 15  1  0
 14 16  2  0
 15 17  2  0
 16 17  1  0
M  CHG  2   3  -1   6   1
M  END
>  <PUBCHEM_COMPOUND_CID>  (1) 
38403

>  <PUBCHEM_CONFORMER_RMSD>  (1) 
0.8

>  <PUBCHEM_CONFORMER_DIVERSEORDER>  (1) 
1
11
9
2
7
4
8
6
10
5
12
3

>  <PUBCHEM_MMFF94_PARTIAL_CHARGES>  (1) 
21
1 -0.29
10 -0.14
11 0.29
12 0.29
13 -0.15
14 -0.15
15 -0.15
16 -0.15
17 0.13
2 -0.29
28 0.15
29 0.15
3 -0.52
30 0.15
31 0.15
4 -0.52
5 -0.81
6 0.91
7 0.41
8 0.27
9 0.27

>  <PUBCHEM_EFFECTIVE_ROTOR_COUNT>  (1) 
7

>  <PUBCHEM_PHARMACOPHORE_FEATURES>  (1) 
5
1 3 acceptor
1 3 anion
1 4 acceptor
1 5 cation
6 10 13 14 15 16 17 rings

>  <PUBCHEM_HEAVY_ATOM_COUNT>  (1) 
17

>  <PUBCHEM_ATOM_DEF_STEREO_COUNT>  (1) 
0

>  <PUBCHEM_ATOM_UDEF_STEREO_COUNT>  (1) 
0

>  <PUBCHEM_BOND_DEF_STEREO_COUNT>  (1) 
0

>  <PUBCHEM_BOND_UDEF_STEREO_COUNT>  (1) 
0

>  <PUBCHEM_ISOTOPIC_ATOM_COUNT>  (1) 
0

>  <PUBCHEM_COMPONENT_COUNT>  (1) 
1

>  <PUBCHEM_CACTVS_TAUTO_COUNT>  (1) 
1

>  <PUBCHEM_CONFORMER_ID>  (1) 
0000960300000001

>  <PUBCHEM_MMFF94_ENERGY>  (1) 
45.3876

>  <PUBCHEM_FEATURE_SELFOVERLAP>  (1) 
25.453

>  <PUBCHEM_SHAPE_FINGERPRINT>  (1) 
11640471 11 17898014533799378425
12236239 1 17894907451626156623
124424 183 13262394466406623655
12788726 201 18334287665768452267
13583140 156 17630296715579788858
15842332 3 17897435104145756387
1741750 31 18052819152730485705
18186145 218 16343692223586067094
18222031 100 18200018686092630663
187816 3 18114461258039475107
192875 21 18041001786058694773
200 152 17822286920693711055
20300324 65 18408605868133421021
20344682 1 17846222197739831775
20645477 70 15358240624929944962
20671657 1 17614566934707618227
20871999 31 18336536180227379511
21426921 1 18412262801105884709
22094290 60 18342739615365663523
23402539 116 18409444804322455623
23402655 69 16805588288260877791
23557571 272 18273217491194462461
23558518 356 18045496422728044307
23559900 14 17769654196783932270
3268164 11 18341607109983697397
621550 5 17703512194229967289
68521 5 18411134741167965933
7615 1 17823685387371610961
7808743 9 18267306426073293329

>  <PUBCHEM_SHAPE_MULTIPOLES>  (1) 
331.89
9.85
2.79
1.13
2.68
4.17
0.02
-3.6
-1.61
-5.59
0.15
1.01
-0.16
-0.67

>  <PUBCHEM_SHAPE_SELFOVERLAP>  (1) 
653.251

>  <PUBCHEM_SHAPE_VOLUME>  (1) 
202.1

>  <PUBCHEM_COORDINATE_TYPE>  (1) 
2
5
10

$$$$
