38400
     RDKit          3D

 27 28  0  0  0  0  0  0  0  0999 V2000
    4.4157   -4.3569   -1.0869 Cl  0  0  0  0  0  0  0  0  0  0  0  0
    5.0436    4.0997    1.5347 Cl  0  0  0  0  0  0  0  0  0  0  0  0
   -5.2595   -1.7122    2.2358 O   0  0  0  0  0  0  0  0  0  0  0  0
   -3.2702   -2.0499    1.1893 O   0  0  0  0  0  0  0  0  0  0  0  0
    3.7369   -0.0182    0.0706 N   0  0  0  0  0  0  0  0  0  0  0  0
   -1.7229    0.7644   -0.8514 N   0  0  0  0  0  0  0  0  0  0  0  0
   -2.3842    0.3560    0.1313 N   0  0  0  0  0  0  0  0  0  0  0  0
    4.4042   -1.2364   -0.3203 C   0  0  0  0  0  0  0  0  0  0  0  0
    4.5241    1.0377    0.7104 C   0  0  0  0  0  0  0  0  0  0  0  0
    2.3673    0.1729   -0.1617 C   0  0  0  0  0  0  0  0  0  0  0  0
    4.2214   -2.3186    0.7429 C   0  0  0  0  0  0  0  0  0  0  0  0
    4.9768    2.0737   -0.3177 C   0  0  0  0  0  0  0  0  0  0  0  0
    1.6192   -0.8261   -0.7847 C   0  0  0  0  0  0  0  0  0  0  0  0
    1.7534    1.3629    0.2288 C   0  0  0  0  0  0  0  0  0  0  0  0
    0.2572   -0.6349   -1.0173 C   0  0  0  0  0  0  0  0  0  0  0  0
    4.9407   -3.6340    0.4509 C   0  0  0  0  0  0  0  0  0  0  0  0
    5.8568    3.1903    0.2403 C   0  0  0  0  0  0  0  0  0  0  0  0
   -0.3566    0.5553   -0.6267 C   0  0  0  0  0  0  0  0  0  0  0  0
    0.3917    1.5542   -0.0036 C   0  0  0  0  0  0  0  0  0  0  0  0
   -0.5237   -1.7191   -1.6852 C   0  0  0  0  0  0  0  0  0  0  0  0
   -3.7554    0.5660   -0.0937 C   0  0  0  0  0  0  0  0  0  0  0  0
   -4.7114   -0.2832    0.4639 C   0  0  0  0  0  0  0  0  0  0  0  0
   -4.1559    1.6413   -0.8870 C   0  0  0  0  0  0  0  0  0  0  0  0
   -6.0675   -0.0570    0.2283 C   0  0  0  0  0  0  0  0  0  0  0  0
   -5.5119    1.8675   -1.1224 C   0  0  0  0  0  0  0  0  0  0  0  0
   -6.4677    1.0184   -0.5649 C   0  0  0  0  0  0  0  0  0  0  0  0
   -4.3222   -1.4140    1.2962 C   0  0  0  0  0  0  0  0  0  0  0  0
  1 16  1  0
  2 17  1  0
  3 27  1  0
  4 27  2  0
  5  8  1  0
  5  9  1  0
  5 10  1  0
  6  7  2  0
  6 18  1  0
  7 21  1  0
  8 11  1  0
  9 12  1  0
 10 13  2  0
 10 14  1  0
 11 16  1  0
 12 17  1  0
 13 15  1  0
 14 19  2  0
 15 18  2  0
 15 20  1  0
 18 19  1  0
 21 22  2  0
 21 23  1  0
 22 24  1  0
 22 27  1  0
 23 25  2  0
 24 26  2  0
 25 26  1  0
M  END
>  <PUBCHEM_COMPOUND_CID>  (1) 
38400

>  <PUBCHEM_CONFORMER_RMSD>  (1) 
1

>  <PUBCHEM_CONFORMER_DIVERSEORDER>  (1) 
1
6
30
40
15
47
28
42
10
3
25
37
23
38
39
2
18
19
36
16
45
17
7
46
14
21
12
11
13
43
22
44
33
20
4
32
41
29
34
48
27
24
26
49
31
8
35
9
5

>  <PUBCHEM_MMFF94_PARTIAL_CHARGES>  (1) 
33
1 -0.29
10 0.1
13 -0.15
14 -0.15
15 -0.14
16 0.29
17 0.29
18 0.18
19 -0.15
2 -0.29
20 0.14
21 0.18
22 0.09
23 -0.15
24 -0.15
25 -0.15
26 -0.15
27 0.63
3 -0.65
36 0.15
37 0.15
4 -0.57
42 0.15
46 0.15
47 0.15
48 0.15
49 0.15
5 -0.84
50 0.5
6 -0.18
7 -0.18
8 0.37
9 0.37

>  <PUBCHEM_EFFECTIVE_ROTOR_COUNT>  (1) 
10

>  <PUBCHEM_PHARMACOPHORE_FEATURES>  (1) 
6
1 3 acceptor
1 4 acceptor
1 5 cation
3 3 4 27 anion
6 10 13 14 15 18 19 rings
6 21 22 23 24 25 26 rings

>  <PUBCHEM_HEAVY_ATOM_COUNT>  (1) 
27

>  <PUBCHEM_ATOM_DEF_STEREO_COUNT>  (1) 
0

>  <PUBCHEM_ATOM_UDEF_STEREO_COUNT>  (1) 
0

>  <PUBCHEM_BOND_DEF_STEREO_COUNT>  (1) 
0

>  <PUBCHEM_BOND_UDEF_STEREO_COUNT>  (1) 
0

>  <PUBCHEM_ISOTOPIC_ATOM_COUNT>  (1) 
0

>  <PUBCHEM_COMPONENT_COUNT>  (1) 
1

>  <PUBCHEM_CACTVS_TAUTO_COUNT>  (1) 
1

>  <PUBCHEM_CONFORMER_ID>  (1) 
0000960000000001

>  <PUBCHEM_MMFF94_ENERGY>  (1) 
82.6035

>  <PUBCHEM_FEATURE_SELFOVERLAP>  (1) 
30.503

>  <PUBCHEM_SHAPE_FINGERPRINT>  (1) 
10 15 18263639726904419664
10411042 1 17981323392603400142
10673678 19 18117288167044217532
10835480 77 18408035213215165661
11045977 3 18334013848254212695
117089 54 17693102864364266782
11796584 16 17894913971117473915
12236239 1 15985386668951514317
12730499 353 18410298051600677648
12788726 201 17203619181090853128
13533116 47 18340765962171608336
13540713 5 17915434268944634574
13785724 45 17841157654246559318
13911987 19 17703791453083128693
13955234 65 18413383238336365256
14341114 176 18261116257666453805
14461889 52 18115023125355053248
14790565 3 17907014329121299348
15348495 7 18334011687737599697
15475509 35 17096352948767733370
15927050 60 18340484590733847942
16991971 28 18198913501251231750
17844677 252 18337394846356857580
1813 80 15863791694519537631
21049683 271 18335425609480608326
21130935 74 18410578375473574595
21279426 13 18187646843432871595
21315759 148 18113905987007239091
21344244 78 18057304121422326824
21682296 61 17914055283088415726
23559900 14 18041285369869557439
239999 70 18260265223113871978
25147074 1 17916566748566976478
3004659 81 17822577084289138698
3178227 256 18411697708812842880
32027 91 18189895314409707858
4073 2 18113621217774801081
4144715 1 18187089433955769489
4340502 62 17967528000107431416
465052 167 18340768118398613702
5104073 3 18408890607301465305
5364581 5 17899414465832194409
57307002 103 18413110546293805730
59755656 215 17823981126246590719
6695519 79 17982468275801052634
6697151 62 17905015111944151926

>  <PUBCHEM_SHAPE_MULTIPOLES>  (1) 
532.71
17.12
4.42
1.36
11
1.18
0.33
-3.47
3.06
-11.49
0.65
1.1
0.46
3.34

>  <PUBCHEM_SHAPE_SELFOVERLAP>  (1) 
1092.42

>  <PUBCHEM_SHAPE_VOLUME>  (1) 
309.9

>  <PUBCHEM_COORDINATE_TYPE>  (1) 
2
5
10

$$$$
