38409
     RDKit          3D

 20 21  0  0  0  0  0  0  0  0999 V2000
    1.1718   -2.1234   -1.6241 Cl  0  0  0  0  0  0  0  0  0  0  0  0
   -2.0139   -1.9104   -1.6876 Cl  0  0  0  0  0  0  0  0  0  0  0  0
    4.9958    0.1952    0.2104 S   0  0  0  0  0  0  0  0  0  0  0  0
   -3.1188   -0.3284    0.5573 O   0  0  0  0  0  0  0  0  0  0  0  0
    2.9727   -1.6205    1.3441 O   0  0  0  0  0  0  0  0  0  0  0  0
   -5.5379    2.1911   -0.2568 O   0  0  0  0  0  0  0  0  0  0  0  0
   -5.5421   -0.0513   -0.6555 O   0  0  0  0  0  0  0  0  0  0  0  0
    1.0235   -0.6194    0.6193 C   0  0  0  0  0  0  0  0  0  0  0  0
   -1.7596   -0.4381    0.5565 C   0  0  0  0  0  0  0  0  0  0  0  0
    0.3068   -1.2418   -0.4029 C   0  0  0  0  0  0  0  0  0  0  0  0
    0.3486    0.0935    1.6101 C   0  0  0  0  0  0  0  0  0  0  0  0
    2.4784   -0.6808    0.7025 C   0  0  0  0  0  0  0  0  0  0  0  0
   -1.0847   -1.1512   -0.4342 C   0  0  0  0  0  0  0  0  0  0  0  0
   -1.0430    0.1842    1.5787 C   0  0  0  0  0  0  0  0  0  0  0  0
    3.3204    0.3486    0.0614 C   0  0  0  0  0  0  0  0  0  0  0  0
    2.9043    1.4185   -0.6437 C   0  0  0  0  0  0  0  0  0  0  0  0
   -3.6615    0.9875    0.4792 C   0  0  0  0  0  0  0  0  0  0  0  0
    4.0202    2.1767   -1.1017 C   0  0  0  0  0  0  0  0  0  0  0  0
    5.2186    1.6232   -0.7077 C   0  0  0  0  0  0  0  0  0  0  0  0
   -4.9996    0.9466   -0.2052 C   0  0  0  0  0  0  0  0  0  0  0  0
  1 10  1  0
  2 13  1  0
  3 15  1  0
  3 19  1  0
  4  9  1  0
  4 17  1  0
  5 12  2  0
  6 20  1  0
  7 20  2  0
  8 10  2  0
  8 11  1  0
  8 12  1  0
  9 13  2  0
  9 14  1  0
 10 13  1  0
 11 14  2  0
 12 15  1  0
 15 16  2  0
 16 18  1  0
 17 20  1  0
 18 19  2  0
M  END
>  <PUBCHEM_COMPOUND_CID>  (1) 
38409

>  <PUBCHEM_CONFORMER_RMSD>  (1) 
0.8

>  <PUBCHEM_CONFORMER_DIVERSEORDER>  (1) 
1
48
58
30
27
59
32
60
40
41
24
7
45
23
56
26
5
50
8
21
42
52
20
12
34
14
11
39
22
61
51
53
19
44
4
49
29
2
16
18
33
54
25
13
47
17
35
55
10
15
37
9
46
38
6
31
57
3
36
43
28

>  <PUBCHEM_MMFF94_PARTIAL_CHARGES>  (1) 
26
1 -0.18
10 0.18
11 -0.15
12 0.57
13 0.18
14 -0.15
15 -0.05
16 -0.15
17 0.34
18 -0.15
19 -0.11
2 -0.18
20 0.66
21 0.15
22 0.15
23 0.15
26 0.15
27 0.15
28 0.5
3 -0.08
4 -0.36
5 -0.57
6 -0.65
7 -0.57
8 0.09
9 0.08

>  <PUBCHEM_EFFECTIVE_ROTOR_COUNT>  (1) 
5

>  <PUBCHEM_PHARMACOPHORE_FEATURES>  (1) 
7
1 4 acceptor
1 5 acceptor
1 6 acceptor
1 7 acceptor
3 6 7 20 anion
5 3 15 16 18 19 rings
6 8 9 10 11 13 14 rings

>  <PUBCHEM_HEAVY_ATOM_COUNT>  (1) 
20

>  <PUBCHEM_ATOM_DEF_STEREO_COUNT>  (1) 
0

>  <PUBCHEM_ATOM_UDEF_STEREO_COUNT>  (1) 
0

>  <PUBCHEM_BOND_DEF_STEREO_COUNT>  (1) 
0

>  <PUBCHEM_BOND_UDEF_STEREO_COUNT>  (1) 
0

>  <PUBCHEM_ISOTOPIC_ATOM_COUNT>  (1) 
0

>  <PUBCHEM_COMPONENT_COUNT>  (1) 
1

>  <PUBCHEM_CACTVS_TAUTO_COUNT>  (1) 
1

>  <PUBCHEM_CONFORMER_ID>  (1) 
0000960900000001

>  <PUBCHEM_MMFF94_ENERGY>  (1) 
54.5156

>  <PUBCHEM_FEATURE_SELFOVERLAP>  (1) 
35.585

>  <PUBCHEM_SHAPE_FINGERPRINT>  (1) 
10498660 4 17775007933425606344
10759866 29 18341610408492687255
11089746 13 18334010609980571460
11796584 16 10159702391485599769
11961588 58 18131062792058623040
12236239 1 18412259562995929906
12616999 72 17917429796090324223
12633257 1 15502937557725520460
12895836 83 18200593712776579132
13103583 49 10953742166994005341
13583140 156 18186811300441997083
13675066 3 16153432714494016763
14178342 30 15068916307374556097
14251751 18 10952051139247809197
14251764 38 18118121373050117837
14420673 8 12327840335670900600
14911166 2 17203608194295003395
15209294 21 16587739841587924097
15342168 16 17677057952929010396
15475509 35 9367051247459970645
16752209 62 17418099775737500306
16945 1 17275108322915941475
1813 80 18050004390617034794
193927 3 10519713327193630764
19784866 140 15698006210618397099
20567600 247 11312049933542354245
20645476 183 18270682085968873734
20871999 31 17774439519888955079
21344244 181 14979674429459056413
21637258 2 11527947811736426581
22079108 93 17313106384241589697
22713019 99 15051737494810415260
23227448 37 18262523701079268109
23402655 69 18409449210942953360
23559900 14 17916868984967897767
2838139 119 18334010605390711981
3060560 45 17632856430262315336
316301 35 9294128355278100789
33382 64 11384110860500972253
3472631 163 18043243536677971205
351380 3 9439405717974105160
3759504 43 18411699919824889663
4325135 7 18334015034408692495
474 4 17822294629885590384
4990 188 15195566788414619187
5104073 3 17095524015062185440
56616090 13 18115590481929199648
56616090 284 16056887935152677343
633830 44 18114466764271619846
76465 3 13110699198515070596
8272917 22 18187645765512073250

>  <PUBCHEM_SHAPE_MULTIPOLES>  (1) 
395.7
11.32
2.15
1.48
5.97
0.24
0.12
-7.99
-3.01
0.15
-1.1
-0.4
0.29
-1.2

>  <PUBCHEM_SHAPE_SELFOVERLAP>  (1) 
821.018

>  <PUBCHEM_SHAPE_VOLUME>  (1) 
228.1

>  <PUBCHEM_COORDINATE_TYPE>  (1) 
2
5
10

$$$$
