38407
     RDKit          3D

 20 20  0  0  0  0  0  0  0  0999 V2000
    1.0107    4.1009    1.2235 Cl  0  0  0  0  0  0  0  0  0  0  0  0
   -1.0852    2.6483   -0.0212 O   0  0  0  0  0  0  0  0  0  0  0  0
   -3.8756   -1.2435   -1.4810 O   0  0  0  0  0  0  0  0  0  0  0  0
   -0.1261    0.5172   -0.2289 N   0  0  0  0  0  0  0  0  0  0  0  0
   -2.4842   -0.0695   -0.0370 N   0  0  0  0  0  0  0  0  0  0  0  0
    1.0596   -0.2785    0.0213 C   0  0  0  0  0  0  0  0  0  0  0  0
    1.1580   -0.9335    1.2210 C   0  0  0  0  0  0  0  0  0  0  0  0
    2.0199   -0.3331   -0.9548 C   0  0  0  0  0  0  0  0  0  0  0  0
    0.1029   -0.8644    2.2772 C   0  0  0  0  0  0  0  0  0  0  0  0
    1.8993    0.3865   -2.2591 C   0  0  0  0  0  0  0  0  0  0  0  0
   -1.2949   -0.1161   -0.8660 C   0  0  0  0  0  0  0  0  0  0  0  0
    2.2995   -1.6982    1.4621 C   0  0  0  0  0  0  0  0  0  0  0  0
    3.1613   -1.0980   -0.7136 C   0  0  0  0  0  0  0  0  0  0  0  0
    3.3009   -1.7805    0.4949 C   0  0  0  0  0  0  0  0  0  0  0  0
   -0.1321    1.8837    0.1454 C   0  0  0  0  0  0  0  0  0  0  0  0
   -0.9416   -1.9652    2.1230 C   0  0  0  0  0  0  0  0  0  0  0  0
    1.2161   -0.4627   -3.3262 C   0  0  0  0  0  0  0  0  0  0  0  0
    1.1632    2.3943    0.7550 C   0  0  0  0  0  0  0  0  0  0  0  0
   -3.6805   -0.6452   -0.4263 C   0  0  0  0  0  0  0  0  0  0  0  0
   -4.7711   -0.4424    0.5904 C   0  0  0  0  0  0  0  0  0  0  0  0
  1 18  1  0
  2 15  2  0
  3 19  2  0
  4  6  1  0
  4 11  1  0
  4 15  1  0
  5 11  1  0
  5 19  1  0
  6  7  2  0
  6  8  1  0
  7  9  1  0
  7 12  1  0
  8 10  1  0
  8 13  2  0
  9 16  1  0
 10 17  1  0
 12 14  2  0
 13 14  1  0
 15 18  1  0
 19 20  1  0
M  END
>  <PUBCHEM_COMPOUND_CID>  (1) 
38407

>  <PUBCHEM_CONFORMER_RMSD>  (1) 
0.8

>  <PUBCHEM_CONFORMER_DIVERSEORDER>  (1) 
1
40
74
61
49
37
60
48
82
79
44
63
50
25
36
52
65
68
35
81
62
16
8
29
55
30
13
72
10
69
6
67
24
23
17
22
43
21
45
58
12
4
59
42
77
27
28
38
53
51
64
70
11
66
19
54
31
14
75
18
57
7
56
46
34
2
20
15
9
26
71
5
3
80
47
33
76
78
73
41
39
32

>  <PUBCHEM_MMFF94_PARTIAL_CHARGES>  (1) 
22
1 -0.29
10 0.14
11 0.6
12 -0.15
13 -0.15
14 -0.15
15 0.57
18 0.35
19 0.57
2 -0.57
20 0.06
27 0.15
28 0.15
29 0.15
3 -0.57
36 0.37
4 -0.48
5 -0.73
6 0.12
7 -0.14
8 -0.14
9 0.14

>  <PUBCHEM_EFFECTIVE_ROTOR_COUNT>  (1) 
8

>  <PUBCHEM_PHARMACOPHORE_FEATURES>  (1) 
6
1 16 hydrophobe
1 17 hydrophobe
1 2 acceptor
1 3 acceptor
1 5 donor
6 6 7 8 12 13 14 rings

>  <PUBCHEM_HEAVY_ATOM_COUNT>  (1) 
20

>  <PUBCHEM_ATOM_DEF_STEREO_COUNT>  (1) 
0

>  <PUBCHEM_ATOM_UDEF_STEREO_COUNT>  (1) 
0

>  <PUBCHEM_BOND_DEF_STEREO_COUNT>  (1) 
0

>  <PUBCHEM_BOND_UDEF_STEREO_COUNT>  (1) 
0

>  <PUBCHEM_ISOTOPIC_ATOM_COUNT>  (1) 
0

>  <PUBCHEM_COMPONENT_COUNT>  (1) 
1

>  <PUBCHEM_CACTVS_TAUTO_COUNT>  (1) 
2

>  <PUBCHEM_CONFORMER_ID>  (1) 
0000960700000001

>  <PUBCHEM_MMFF94_ENERGY>  (1) 
66.5884

>  <PUBCHEM_FEATURE_SELFOVERLAP>  (1) 
30.446

>  <PUBCHEM_SHAPE_FINGERPRINT>  (1) 
10764073 3 17319246074324872584
11578080 2 17610655232886683233
12553582 1 18341326717439270767
12788726 201 18194136130767913528
13009979 54 17682385958465053442
13538477 17 17902788566000181008
14004458 79 18055930787558445996
14115302 16 17822021925036925847
14787075 74 18261946431995077752
14817 1 7894492585873916588
16945 1 18125975360679355432
1813 80 17917161523737385239
19078846 21 18340494365936377921
20600515 1 17989767804179560006
21524375 3 17409073043230706345
22112679 90 18268443338397134433
23419403 2 17537670609160590468
23557571 272 17916311524235212604
23559900 14 17968109668002803158
298252 57 17052450861734577477
394222 165 17628349682007400168
4175511 376 18197219363293792952
54040823 5 18272375329321835542
6442390 28 16763966008770883825
81228 2 17629209203932492361

>  <PUBCHEM_SHAPE_MULTIPOLES>  (1) 
391.76
5.6
3.12
2.5
7.41
4.59
1.3
-3.46
1.18
-1.32
-2.09
-1.03
-0.87
-0.09

>  <PUBCHEM_SHAPE_SELFOVERLAP>  (1) 
785.778

>  <PUBCHEM_SHAPE_VOLUME>  (1) 
232.2

>  <PUBCHEM_COORDINATE_TYPE>  (1) 
2
5
10

$$$$
