38418
     RDKit          3D

 45 52  0  0  1  0  0  0  0  0999 V2000
    5.6417   -0.5451   -1.3277 O   0  0  0  0  0  0  0  0  0  0  0  0
   -0.4756   -2.4433   -0.7098 O   0  0  0  0  0  0  0  0  0  0  0  0
   -2.3682   -0.4385    0.0128 O   0  0  0  0  0  0  0  0  0  0  0  0
    1.4217   -3.6627    0.5584 O   0  0  0  0  0  0  0  0  0  0  0  0
    9.9470    0.5583    0.2153 O   0  0  0  0  0  0  0  0  0  0  0  0
   -3.8378    1.2847   -0.7206 O   0  0  0  0  0  0  0  0  0  0  0  0
   -6.6199   -1.4448    0.3407 O   0  0  0  0  0  0  0  0  0  0  0  0
   -6.7352    0.8799    0.0725 O   0  0  0  0  0  0  0  0  0  0  0  0
   10.1699    0.3566   -2.0663 O   0  0  0  0  0  0  0  0  0  0  0  0
    4.7163    0.0765   -0.4229 C   0  0  0  0  0  0  0  0  0  0  0  0
    3.4253   -0.7867   -0.3836 C   0  0  0  0  0  0  0  0  0  0  0  0
    5.3816    0.2827    0.9645 C   0  0  0  0  0  0  0  0  0  0  0  0
    2.4051   -0.3370    0.6987 C   0  0  0  0  0  0  0  0  0  0  0  0
    1.1335   -1.2652    0.7348 C   0  0  0  0  0  0  0  0  0  0  0  0
    0.4927   -1.3812   -0.6891 C   0  0  0  0  0  0  0  0  0  0  0  0
    6.3633    1.4703    0.7099 C   0  0  0  0  0  0  0  0  0  0  0  0
    4.3186    0.7280    2.0042 C   0  0  0  0  0  0  0  0  0  0  0  0
    3.1020   -0.1930    2.0672 C   0  0  0  0  0  0  0  0  0  0  0  0
    4.5157    1.5131   -0.9398 C   0  0  0  0  0  0  0  0  0  0  0  0
    2.7610   -0.8638   -1.7702 C   0  0  0  0  0  0  0  0  0  0  0  0
    1.5279   -1.7561   -1.7657 C   0  0  0  0  0  0  0  0  0  0  0  0
    5.6276    2.3628   -0.3075 C   0  0  0  0  0  0  0  0  0  0  0  0
    0.0632   -0.7725    1.7487 C   0  0  0  0  0  0  0  0  0  0  0  0
   -0.2388   -0.0736   -1.0971 C   0  0  0  0  0  0  0  0  0  0  0  0
    6.0992   -0.9738    1.4976 C   0  0  0  0  0  0  0  0  0  0  0  0
   -0.6160    0.5312    1.3328 C   0  0  0  0  0  0  0  0  0  0  0  0
   -1.2408    0.4316   -0.0540 C   0  0  0  0  0  0  0  0  0  0  0  0
    1.5475   -2.6411    1.2254 C   0  0  0  0  0  0  0  0  0  0  0  0
    7.7234    1.1025    0.1902 C   0  0  0  0  0  0  0  0  0  0  0  0
    8.8672    0.8807    1.0980 C   0  0  0  0  0  0  0  0  0  0  0  0
    8.0781    0.9333   -1.0807 C   0  0  0  0  0  0  0  0  0  0  0  0
   -3.3768   -0.0540   -0.9151 C   0  0  0  0  0  0  0  0  0  0  0  0
    9.4999    0.5853   -1.0740 C   0  0  0  0  0  0  0  0  0  0  0  0
   -4.5501   -1.0206   -0.8366 C   0  0  0  0  0  0  0  0  0  0  0  0
   -5.3124   -0.8757    0.4819 C   0  0  0  0  0  0  0  0  0  0  0  0
   -5.5764    0.5684    0.8527 C   0  0  0  0  0  0  0  0  0  0  0  0
   -4.4080    1.5115    0.5721 C   0  0  0  0  0  0  0  0  0  0  0  0
   -7.5013   -0.3381    0.0746 C   0  0  0  0  0  0  0  0  0  0  0  0
   -8.5632   -0.2880    1.1824 C   0  0  0  0  0  0  0  0  0  0  0  0
   -8.1662   -0.5195   -1.2927 C   0  0  0  0  0  0  0  0  0  0  0  0
   -4.8251    2.9761    0.6355 C   0  0  0  0  0  0  0  0  0  0  0  0
   -9.6194    0.7842    0.9198 C   0  0  0  0  0  0  0  0  0  0  0  0
   -9.2262    0.5475   -1.5663 C   0  0  0  0  0  0  0  0  0  0  0  0
  -10.2796    0.5986   -0.4525 C   0  0  0  0  0  0  0  0  0  0  0  0
  -11.2925    1.7106   -0.7187 C   0  0  0  0  0  0  0  0  0  0  0  0
  1 10  1  0
  2 15  1  0
  3 27  1  0
  3 32  1  0
  4 28  2  0
  5 30  1  0
  5 33  1  0
  6 32  1  0
  6 37  1  0
  7 35  1  0
  7 38  1  0
  8 36  1  0
  8 38  1  0
  9 33  2  0
 10 11  1  0
 10 12  1  0
 10 19  1  0
 11 13  1  0
 11 20  1  0
 12 16  1  0
 12 17  1  0
 12 25  1  0
 13 14  1  0
 13 18  1  0
 14 15  1  0
 14 23  1  0
 14 28  1  0
 15 21  1  0
 15 24  1  0
 16 22  1  0
 16 29  1  0
 17 18  1  0
 19 22  1  0
 20 21  1  0
 23 26  1  0
 24 27  1  0
 26 27  1  0
 29 30  1  0
 29 31  2  0
 31 33  1  0
 32 34  1  0
 34 35  1  0
 35 36  1  0
 36 37  1  0
 37 41  1  0
 38 39  1  0
 38 40  1  0
 39 42  1  0
 40 43  1  0
 42 44  1  0
 43 44  1  0
 44 45  1  0
M  END
>  <PUBCHEM_COMPOUND_CID>  (1) 
38418

>  <PUBCHEM_CONFORMER_RMSD>  (1) 
1.2

>  <PUBCHEM_CONFORMER_DIVERSEORDER>  (1) 
4
24
240
269
221
275
129
219
213
169
41
123
165
242
140
265
159
98
116
66
196
94
130
42
226
111
34
35
185
206
174
142
10
52
54
61
117
132
148
102
201
151
270
30
200
154
227
233
239
81
86
133
32
31
16
150
152
162
48
149
183
112
255
145
23
103
267
137
71
74
72
260
50
44
170
263
175
67
127
191
57
232
217
110
225
56
254
195
246
59
210
3
6
89
55
20
19
79
51
231
258
33
68
216
143
39
194
22
146
160
138
139
173
13
27
181
250
274
245
91
224
107
104
141
125
155
272
88
188
215
131
234
121
78
8
167
273
153
11
248
190
49
12
134
236
115
15
38
228
69
21
249
63
176
106
80
58
77
182
244
177
120
144
163
179
109
256
84
192
247
64
238
26
257
199
203
17
100
211
105
157
243
193
266
262
126
101
85
1
113
253
259
40
171
128
36
29
9
189
218
235
204
252
97
14
95
261
25
212
114
90
46
2
220
156
241
83
93
135
76
28
184
161
168
136
37
205
92
65
164
251
118
202
122
271
53
119
229
186
209
7
223
198
222
60
172
208
147
73
268
108
75
207
18
82
180
43
214
47
99
62
178
158
87
5
96
237
166
264
197
124
70
45
230
187

>  <PUBCHEM_MMFF94_PARTIAL_CHARGES>  (1) 
28
1 -0.68
10 0.28
14 0.06
15 0.28
16 0.14
2 -0.68
27 0.28
28 0.45
29 -0.28
3 -0.56
30 0.42
31 -0.14
32 0.56
33 0.71
35 0.28
36 0.28
37 0.28
38 0.56
4 -0.57
5 -0.43
6 -0.56
7 -0.56
71 0.4
72 0.06
73 0.4
76 0.15
8 -0.56
9 -0.57

>  <PUBCHEM_EFFECTIVE_ROTOR_COUNT>  (1) 
8.8

>  <PUBCHEM_PHARMACOPHORE_FEATURES>  (1) 
18
1 1 acceptor
1 1 donor
1 2 acceptor
1 2 donor
1 3 acceptor
1 4 acceptor
1 6 acceptor
1 7 acceptor
1 8 acceptor
1 9 acceptor
5 10 12 16 19 22 rings
5 5 29 30 31 33 rings
5 7 8 35 36 38 rings
6 10 11 12 13 17 18 rings
6 11 13 14 15 20 21 rings
6 14 15 23 24 26 27 rings
6 38 39 40 42 43 44 rings
6 6 32 34 35 36 37 rings

>  <PUBCHEM_HEAVY_ATOM_COUNT>  (1) 
45

>  <PUBCHEM_ATOM_DEF_STEREO_COUNT>  (1) 
8

>  <PUBCHEM_ATOM_UDEF_STEREO_COUNT>  (1) 
4

>  <PUBCHEM_BOND_DEF_STEREO_COUNT>  (1) 
0

>  <PUBCHEM_BOND_UDEF_STEREO_COUNT>  (1) 
0

>  <PUBCHEM_ISOTOPIC_ATOM_COUNT>  (1) 
0

>  <PUBCHEM_COMPONENT_COUNT>  (1) 
1

>  <PUBCHEM_CACTVS_TAUTO_COUNT>  (1) 
1

>  <PUBCHEM_CONFORMER_ID>  (1) 
0000961200000004

>  <PUBCHEM_MMFF94_ENERGY>  (1) 
145.8443

>  <PUBCHEM_FEATURE_SELFOVERLAP>  (1) 
91.918

>  <PUBCHEM_SHAPE_FINGERPRINT>  (1) 
10 15 18408884036338767723
10076449 9 13326859932786672971
10165383 225 18114181952437655418
10533779 47 16009017359780935912
10674148 151 13470690334423925411
11146851 88 14273455894334673909
11534866 41 11025793185020928009
12522641 24 18337383856189740362
12522641 33 18410013225774659126
12664476 115 17846776308323731201
13150687 139 18202290208301291630
13553643 46 16226042264107918477
13811026 1 17894627019983159332
13947947 74 18060703892958637443
14068700 675 9007063473651177918
14118638 360 18272652295405779353
14856354 85 18272085054574580311
150020 25 18060138756244369995
15150948 74 10880000151070309156
15183329 4 15339122342278303330
15247644 1 11024110949199426812
15347591 1 18122906430969376601
15510794 2 14908179772009592501
15773216 30 17489034747536191014
15840311 113 18334857203584423095
16728433 110 8430312428797514350
16992610 120 18335711563749902302
1754911 235 17489586771197597197
19315958 150 16008744697786803874
20105231 36 14979953701518346933
20156587 128 17988366962152065697
21057603 130 11383827161301057384
21057603 238 18124627330245824230
21792961 116 16988850470740348054
21895431 317 13109865761093251052
24771293 8 18187087217837080213
24893992 56 18340486763305927704
249057 3 14692568844817192196
335507 130 18131632292238396517
3918712 181 18410571825273823721
4017518 198 16128655267723690743
4625314 4 18341331188494762767
5028188 123 17916861443089078999
54039377 194 10519987076204437107
58083652 198 11743837010688765750
6126387 218 15140958444579610701
6523845 18 17346595283393502464
6691757 9 17313115167280970577
9663363 56 10807934852261296582
9962374 69 12829495890932970818

>  <PUBCHEM_SHAPE_MULTIPOLES>  (1) 
873.26
36.53
2.17
1.72
32.46
0.58
0.04
-17.58
-7.16
-0.01
0.18
-1.61
0.22
-0.27

>  <PUBCHEM_SHAPE_SELFOVERLAP>  (1) 
1901.721

>  <PUBCHEM_SHAPE_VOLUME>  (1) 
469

>  <PUBCHEM_COORDINATE_TYPE>  (1) 
2
5
10

$$$$
