38426
     RDKit          3D

 14 14  0  0  0  0  0  0  0  0999 V2000
   -2.1108   -2.3961   -0.6400 S   0  0  0  0  0  0  0  0  0  0  0  0
    3.7415   -1.0575    0.0127 O   0  0  0  0  0  0  0  0  0  0  0  0
    1.3725    0.5056    0.2284 N   0  0  0  0  0  0  0  0  0  0  0  0
   -2.1364    0.8324    0.3240 N   0  0  0  0  0  0  0  0  0  0  0  0
   -3.9469   -0.3364    1.3919 N   0  0  0  0  0  0  0  0  0  0  0  0
    0.6685    1.7772    0.3795 C   0  0  0  0  0  0  0  0  0  0  0  0
    2.1798    0.4989   -0.9995 C   0  0  0  0  0  0  0  0  0  0  0  0
    2.2270    0.2404    1.3942 C   0  0  0  0  0  0  0  0  0  0  0  0
    2.9136   -0.8328   -1.1291 C   0  0  0  0  0  0  0  0  0  0  0  0
    2.9607   -1.0846    1.2082 C   0  0  0  0  0  0  0  0  0  0  0  0
   -0.2928    1.9920   -0.7907 C   0  0  0  0  0  0  0  0  0  0  0  0
   -1.3325    0.8813   -0.8984 C   0  0  0  0  0  0  0  0  0  0  0  0
   -3.0608   -0.0672    0.3728 C   0  0  0  0  0  0  0  0  0  0  0  0
   -3.1834   -0.9532   -0.8541 C   0  0  0  0  0  0  0  0  0  0  0  0
  1 14  1  0
  2  9  1  0
  2 10  1  0
  3  6  1  0
  3  7  1  0
  3  8  1  0
  4 12  1  0
  4 13  2  0
  5 13  1  0
  6 11  1  0
  7  9  1  0
  8 10  1  0
 11 12  1  0
 13 14  1  0
M  END
>  <PUBCHEM_COMPOUND_CID>  (1) 
38426

>  <PUBCHEM_CONFORMER_RMSD>  (1) 
0.6

>  <PUBCHEM_CONFORMER_DIVERSEORDER>  (1) 
1
25
112
17
122
126
95
18
137
59
12
113
108
42
89
38
117
118
103
65
116
71
74
52
91
101
88
2
109
127
102
86
111
35
93
33
81
123
34
69
78
11
115
87
130
73
82
125
5
132
31
100
4
15
22
67
30
107
131
47
120
19
9
57
83
75
136
61
114
124
14
96
99
128
29
39
28
32
66
104
106
44
23
24
3
98
84
8
37
134
138
27
63
129
135
60
10
94
36
45
68
90
6
79
85
77
7
121
16
53
110
56
80
49
20
76
50
54
133
70
55
64
13
41
43
139
62
97
58
105
92
119
21
72
48
46
26
51
40

>  <PUBCHEM_MMFF94_PARTIAL_CHARGES>  (1) 
16
1 -0.41
10 0.28
12 0.25
13 0.44
14 0.29
2 -0.56
3 -0.81
31 0.4
32 0.4
33 0.18
4 -0.7
5 -0.85
6 0.27
7 0.27
8 0.27
9 0.28

>  <PUBCHEM_EFFECTIVE_ROTOR_COUNT>  (1) 
6.2

>  <PUBCHEM_PHARMACOPHORE_FEATURES>  (1) 
5
1 2 acceptor
1 3 cation
1 5 donor
3 4 5 13 cation
6 2 3 7 8 9 10 rings

>  <PUBCHEM_HEAVY_ATOM_COUNT>  (1) 
14

>  <PUBCHEM_ATOM_DEF_STEREO_COUNT>  (1) 
0

>  <PUBCHEM_ATOM_UDEF_STEREO_COUNT>  (1) 
0

>  <PUBCHEM_BOND_DEF_STEREO_COUNT>  (1) 
0

>  <PUBCHEM_BOND_UDEF_STEREO_COUNT>  (1) 
0

>  <PUBCHEM_ISOTOPIC_ATOM_COUNT>  (1) 
0

>  <PUBCHEM_COMPONENT_COUNT>  (1) 
1

>  <PUBCHEM_CACTVS_TAUTO_COUNT>  (1) 
2

>  <PUBCHEM_CONFORMER_ID>  (1) 
0000961A00000001

>  <PUBCHEM_MMFF94_ENERGY>  (1) 
34.6078

>  <PUBCHEM_FEATURE_SELFOVERLAP>  (1) 
25.371

>  <PUBCHEM_SHAPE_FINGERPRINT>  (1) 
10366900 7 16988837302233299713
11471102 22 16558741304847808468
11715629 250 11314295153465706535
12006461 19 18202284714320292062
12162725 195 9006788565789362333
12346177 29 18131340904766868909
12553582 1 18409168817933933183
13296908 3 18040992973107595357
13705890 14 16153428350627934656
14123260 362 10015579544928926707
15239191 94 18335140890511417339
15276787 5 16917075429763238985
15375462 189 18334581264846722472
16752209 62 18189883250146779389
18522851 12 18262528094693843655
18522851 268 14851601098488793091
19766037 51 17749113304946530385
20281407 28 18411413986386834468
20291156 8 18333734649646884283
20361792 2 18186796998016382157
20442098 301 18200875205006771679
20621476 91 18121747708822433426
20645477 70 18190169260635081693
20671657 53 16588021273657088388
20767249 462 10952052247106382339
21713013 43 16008753528292538707
21731516 1 18260543446161938453
22169311 14 16988848267442983859
232386 152 18410007749738043702
23402539 116 17168142287690684164
449060 23 18411979161017043105
465052 167 18115609152737481083
568465 68 17132110238986039622
94968 8 17822019756204769369

>  <PUBCHEM_SHAPE_MULTIPOLES>  (1) 
271.15
6.74
2.07
1.37
1.09
0.28
0.2
3.19
1.21
0.51
-0.44
-0.26
0.09
-0.31

>  <PUBCHEM_SHAPE_SELFOVERLAP>  (1) 
514.267

>  <PUBCHEM_SHAPE_VOLUME>  (1) 
168.8

>  <PUBCHEM_COORDINATE_TYPE>  (1) 
2
5
10

$$$$
