38443
     RDKit          3D

 15 15  0  0  0  0  0  0  0  0999 V2000
   -4.7876    0.4749   -0.8174 O   0  0  0  0  0  0  0  0  0  0  0  0
   -2.6293    0.8511    1.1578 O   0  0  0  0  0  0  0  0  0  0  0  0
    4.6961   -0.1174   -0.1085 O   0  0  0  0  0  0  0  0  0  0  0  0
    3.5452   -1.9878    0.0125 O   0  0  0  0  0  0  0  0  0  0  0  0
   -2.4581   -0.2596    0.5594 N   0  0  0  0  0  0  0  0  0  0  0  0
    3.6071   -0.7369   -0.0527 N   0  0  0  0  0  0  0  0  0  0  0  0
   -0.0172    0.0768   -0.0132 C   0  0  0  0  0  0  0  0  0  0  0  0
   -3.6131   -1.1712    0.4726 C   0  0  0  0  0  0  0  0  0  0  0  0
   -1.2963   -0.6123    0.0479 C   0  0  0  0  0  0  0  0  0  0  0  0
    1.1705   -0.6546   -0.0025 C   0  0  0  0  0  0  0  0  0  0  0  0
    0.0219    1.4694   -0.0841 C   0  0  0  0  0  0  0  0  0  0  0  0
    2.3973    0.0067   -0.0627 C   0  0  0  0  0  0  0  0  0  0  0  0
   -4.3212   -0.8689   -0.8311 C   0  0  0  0  0  0  0  0  0  0  0  0
    1.2485    2.1306   -0.1443 C   0  0  0  0  0  0  0  0  0  0  0  0
    2.4362    1.3993   -0.1337 C   0  0  0  0  0  0  0  0  0  0  0  0
  1 13  1  0
  2  5  1  0
  3  6  1  0
  4  6  2  0
  5  8  1  0
  5  9  2  0
  6 12  1  0
  7  9  1  0
  7 10  2  0
  7 11  1  0
  8 13  1  0
 10 12  1  0
 11 14  2  0
 12 15  2  0
 14 15  1  0
M  CHG  4   2  -1   3  -1   5   1   6   1
M  END
>  <PUBCHEM_COMPOUND_CID>  (1) 
38443

>  <PUBCHEM_CONFORMER_RMSD>  (1) 
0.6

>  <PUBCHEM_CONFORMER_DIVERSEORDER>  (1) 
2
9
8
7
18
10
19
1
4
3
16
14
13
17
11
12
6
5
15

>  <PUBCHEM_MMFF94_PARTIAL_CHARGES>  (1) 
21
1 -0.68
10 -0.15
11 -0.15
12 0.13
13 0.28
14 -0.15
15 -0.15
18 0.06
19 0.15
2 -0.63
20 0.15
23 0.15
24 0.15
25 0.4
3 -0.52
4 -0.52
5 0.53
6 0.91
7 0.09
8 0.1
9 -0.14

>  <PUBCHEM_EFFECTIVE_ROTOR_COUNT>  (1) 
4

>  <PUBCHEM_PHARMACOPHORE_FEATURES>  (1) 
7
1 1 acceptor
1 1 donor
1 2 anion
1 3 acceptor
1 3 anion
1 4 acceptor
6 7 10 11 12 14 15 rings

>  <PUBCHEM_HEAVY_ATOM_COUNT>  (1) 
15

>  <PUBCHEM_ATOM_DEF_STEREO_COUNT>  (1) 
0

>  <PUBCHEM_ATOM_UDEF_STEREO_COUNT>  (1) 
0

>  <PUBCHEM_BOND_DEF_STEREO_COUNT>  (1) 
0

>  <PUBCHEM_BOND_UDEF_STEREO_COUNT>  (1) 
1

>  <PUBCHEM_ISOTOPIC_ATOM_COUNT>  (1) 
0

>  <PUBCHEM_COMPONENT_COUNT>  (1) 
1

>  <PUBCHEM_CACTVS_TAUTO_COUNT>  (1) 
1

>  <PUBCHEM_CONFORMER_ID>  (1) 
0000962B00000002

>  <PUBCHEM_MMFF94_ENERGY>  (1) 
44.29

>  <PUBCHEM_FEATURE_SELFOVERLAP>  (1) 
35.602

>  <PUBCHEM_SHAPE_FINGERPRINT>  (1) 
11401426 45 18409443695861917539
11471102 20 18336264634661143092
11806522 49 18413107290154434642
12032990 46 18409736140459493194
124424 183 18187085057172409801
13237642 15 11455886996931768095
13571099 22 18335701671596005445
13581323 91 16487256573125808421
13690532 89 18413670223070541511
14251717 144 18410855477508848374
14252887 29 18130798845502960382
14993402 34 18341898506203044710
15375462 478 17989489619179323013
15442244 35 18412270505908052753
15848700 24 18410007732784995196
17041 50 17967807280197663181
17834072 33 18271525407081464964
18186145 218 17676477385267575919
18222031 100 18273210885550774014
200 152 18131063849242797383
20645477 70 18408885165440750719
20671657 53 18411422817045323341
20871998 22 18270410386601148198
21501925 9 18342174479511148592
221490 88 18118691147605819355
22485316 2 18408321090189943538
22854114 59 10375874091087900151
23402539 116 17489586753843576449
23402655 69 18411417332488144101
23557571 272 14907913656210368641
23559900 14 18341607174234243920
32948 21 17749382633729289461
4463277 69 17845940619673376302
7364860 26 18269839886079734000

>  <PUBCHEM_SHAPE_MULTIPOLES>  (1) 
275.25
8.7
1.73
0.78
3.94
0.34
-0.03
-2.82
1.26
-1.15
0.02
0.68
0.05
-0.07

>  <PUBCHEM_SHAPE_SELFOVERLAP>  (1) 
567.96

>  <PUBCHEM_SHAPE_VOLUME>  (1) 
157.3

>  <PUBCHEM_COORDINATE_TYPE>  (1) 
2
5
10

$$$$
