38449
     RDKit          3D

 18 19  0  0  0  0  0  0  0  0999 V2000
   -0.6455   -0.9457    0.4700 O   0  0  0  0  0  0  0  0  0  0  0  0
   -2.5271    0.1978   -0.5110 O   0  0  0  0  0  0  0  0  0  0  0  0
    1.8785    0.3578    0.9927 O   0  0  0  0  0  0  0  0  0  0  0  0
    2.5917   -0.2183   -1.1439 O   0  0  0  0  0  0  0  0  0  0  0  0
    3.7939   -0.8852    0.7248 N   0  0  0  0  0  0  0  0  0  0  0  0
   -2.0176   -1.0518    0.0165 C   0  0  0  0  0  0  0  0  0  0  0  0
   -2.8870   -1.4641    1.2036 C   0  0  0  0  0  0  0  0  0  0  0  0
   -2.0794   -2.1035   -1.0905 C   0  0  0  0  0  0  0  0  0  0  0  0
   -0.3733    0.3611    0.2003 C   0  0  0  0  0  0  0  0  0  0  0  0
   -1.4474    1.0140   -0.3596 C   0  0  0  0  0  0  0  0  0  0  0  0
   -2.8359   -0.4297    2.3109 C   0  0  0  0  0  0  0  0  0  0  0  0
   -1.2211   -1.7081   -2.2760 C   0  0  0  0  0  0  0  0  0  0  0  0
    0.8230    1.0048    0.4405 C   0  0  0  0  0  0  0  0  0  0  0  0
   -1.3850    2.3467   -0.7105 C   0  0  0  0  0  0  0  0  0  0  0  0
    0.9130    2.3551    0.0943 C   0  0  0  0  0  0  0  0  0  0  0  0
   -0.1846    3.0222   -0.4778 C   0  0  0  0  0  0  0  0  0  0  0  0
    2.7549   -0.2543    0.0721 C   0  0  0  0  0  0  0  0  0  0  0  0
    4.8489   -1.5988    0.0436 C   0  0  0  0  0  0  0  0  0  0  0  0
  1  6  1  0
  1  9  1  0
  2  6  1  0
  2 10  1  0
  3 13  1  0
  3 17  1  0
  4 17  2  0
  5 17  1  0
  5 18  1  0
  6  7  1  0
  6  8  1  0
  7 11  1  0
  8 12  1  0
  9 10  2  0
  9 13  1  0
 10 14  1  0
 13 15  2  0
 14 16  2  0
 15 16  1  0
M  END
>  <PUBCHEM_COMPOUND_CID>  (1) 
38449

>  <PUBCHEM_CONFORMER_RMSD>  (1) 
0.8

>  <PUBCHEM_CONFORMER_DIVERSEORDER>  (1) 
1
21
34
25
2
24
26
14
9
23
11
13
31
18
29
32
30
33
6
10
3
5
20
19
22
4
17
15
16
12
8
27
28
7

>  <PUBCHEM_MMFF94_PARTIAL_CHARGES>  (1) 
18
1 -0.36
10 0.08
13 0.08
14 -0.15
15 -0.15
16 -0.15
17 0.78
18 0.3
2 -0.36
29 0.15
3 -0.23
30 0.15
31 0.15
32 0.37
4 -0.57
5 -0.73
6 0.56
9 0.08

>  <PUBCHEM_EFFECTIVE_ROTOR_COUNT>  (1) 
5.6

>  <PUBCHEM_PHARMACOPHORE_FEATURES>  (1) 
8
1 1 acceptor
1 11 hydrophobe
1 12 hydrophobe
1 2 acceptor
1 4 acceptor
1 5 donor
5 1 2 6 9 10 rings
6 9 10 13 14 15 16 rings

>  <PUBCHEM_HEAVY_ATOM_COUNT>  (1) 
18

>  <PUBCHEM_ATOM_DEF_STEREO_COUNT>  (1) 
0

>  <PUBCHEM_ATOM_UDEF_STEREO_COUNT>  (1) 
0

>  <PUBCHEM_BOND_DEF_STEREO_COUNT>  (1) 
0

>  <PUBCHEM_BOND_UDEF_STEREO_COUNT>  (1) 
0

>  <PUBCHEM_ISOTOPIC_ATOM_COUNT>  (1) 
0

>  <PUBCHEM_COMPONENT_COUNT>  (1) 
1

>  <PUBCHEM_CACTVS_TAUTO_COUNT>  (1) 
2

>  <PUBCHEM_CONFORMER_ID>  (1) 
0000963100000001

>  <PUBCHEM_MMFF94_ENERGY>  (1) 
41.9077

>  <PUBCHEM_FEATURE_SELFOVERLAP>  (1) 
40.748

>  <PUBCHEM_SHAPE_FINGERPRINT>  (1) 
107951 10 17610349242109974763
11578080 2 17701232940943738705
12553582 1 18337956795988885750
12714826 92 18341339885982644614
14817 1 14280991002249201493
14863182 85 15227979635377584715
15061688 2 13038640478931856995
15163728 17 16232801841307266013
15279308 51 18200027490142084637
16945 1 17988938776844054741
18927931 339 18335976477179751554
20361792 2 18337387248648913842
20602899 9 17273390830287636431
20645476 183 17388252342901276197
20871998 184 18341331080993869308
20871998 22 18263084477510498193
21330990 113 17265864595548513673
21731516 1 18339363075396965070
23114952 82 17608346254162791989
23419403 2 12780106889839395361
23559900 14 18195794178024888898
23598288 3 18261967245021608820
23598291 2 17984436383965331647
23728640 28 18051672370481679362
2748010 2 18189881179677461741
559249 180 17685764732576355186
576247 118 18115889527379358089
5845 1 8428031097099898893
6992083 37 18131078168384265371
81228 2 18190159248529010865
9709674 26 18124029027909595398

>  <PUBCHEM_SHAPE_MULTIPOLES>  (1) 
341.97
5.77
2.82
1.59
7.58
1.79
0.02
-4.5
1.55
-0.4
-0.93
-1.39
-0.82
-0.01

>  <PUBCHEM_SHAPE_SELFOVERLAP>  (1) 
723.496

>  <PUBCHEM_SHAPE_VOLUME>  (1) 
191

>  <PUBCHEM_COORDINATE_TYPE>  (1) 
2
5
10

$$$$
