38444
     RDKit          3D

 14 15  0  0  1  0  0  0  0  0999 V2000
    0.2480   -1.6360   -0.3938 O   0  0  0  0  0  0  0  0  0  0  0  0
   -3.0060    1.6925    0.4237 O   0  0  0  0  0  0  0  0  0  0  0  0
   -3.5374   -0.1088   -0.7268 O   0  0  0  0  0  0  0  0  0  0  0  0
   -2.7314    0.6186   -0.1299 N   0  0  0  0  0  0  0  0  0  0  0  0
   -1.1301   -1.2840   -0.1302 C   0  0  0  0  0  0  0  0  0  0  0  0
   -1.3787    0.1847   -0.0751 C   0  0  0  0  0  0  0  0  0  0  0  0
    0.9258    0.6794   -0.0042 C   0  0  0  0  0  0  0  0  0  0  0  0
    1.2106   -0.6802   -0.1920 C   0  0  0  0  0  0  0  0  0  0  0  0
   -0.4568    1.1419   -0.0207 C   0  0  0  0  0  0  0  0  0  0  0  0
   -1.5352   -1.9896    1.1638 C   0  0  0  0  0  0  0  0  0  0  0  0
    1.9783    1.5852    0.1707 C   0  0  0  0  0  0  0  0  0  0  0  0
    2.5351   -1.1240   -0.2125 C   0  0  0  0  0  0  0  0  0  0  0  0
    3.3000    1.1363    0.1596 C   0  0  0  0  0  0  0  0  0  0  0  0
    3.5778   -0.2160   -0.0327 C   0  0  0  0  0  0  0  0  0  0  0  0
  1  5  1  0
  1  8  1  0
  2  4  1  0
  3  4  2  0
  4  6  1  0
  5  6  1  0
  5 10  1  0
  6  9  2  0
  7  8  2  0
  7  9  1  0
  7 11  1  0
  8 12  1  0
 11 13  2  0
 12 14  2  0
 13 14  1  0
M  CHG  2   2  -1   4   1
M  END
>  <PUBCHEM_COMPOUND_CID>  (1) 
38444

>  <PUBCHEM_CONFORMER_RMSD>  (1) 
0.6

>  <PUBCHEM_CONFORMER_DIVERSEORDER>  (1) 
1
2

>  <PUBCHEM_MMFF94_PARTIAL_CHARGES>  (1) 
18
1 -0.36
11 -0.15
12 -0.15
13 -0.15
14 -0.15
16 0.15
2 -0.52
20 0.15
21 0.15
22 0.15
23 0.15
3 -0.52
4 0.84
5 0.42
6 0.07
7 0.03
8 0.08
9 -0.18

>  <PUBCHEM_EFFECTIVE_ROTOR_COUNT>  (1) 
1.4

>  <PUBCHEM_PHARMACOPHORE_FEATURES>  (1) 
6
1 1 acceptor
1 2 acceptor
1 2 anion
1 3 acceptor
6 1 5 6 7 8 9 rings
6 7 8 11 12 13 14 rings

>  <PUBCHEM_HEAVY_ATOM_COUNT>  (1) 
14

>  <PUBCHEM_ATOM_DEF_STEREO_COUNT>  (1) 
0

>  <PUBCHEM_ATOM_UDEF_STEREO_COUNT>  (1) 
1

>  <PUBCHEM_BOND_DEF_STEREO_COUNT>  (1) 
0

>  <PUBCHEM_BOND_UDEF_STEREO_COUNT>  (1) 
0

>  <PUBCHEM_ISOTOPIC_ATOM_COUNT>  (1) 
0

>  <PUBCHEM_COMPONENT_COUNT>  (1) 
1

>  <PUBCHEM_CACTVS_TAUTO_COUNT>  (1) 
1

>  <PUBCHEM_CONFORMER_ID>  (1) 
0000962C00000001

>  <PUBCHEM_MMFF94_ENERGY>  (1) 
44.0882

>  <PUBCHEM_FEATURE_SELFOVERLAP>  (1) 
30.556

>  <PUBCHEM_SHAPE_FINGERPRINT>  (1) 
10130415 120 18335696097123996914
10608611 8 18411697724880050744
10967382 1 18411418393154960532
11471102 20 18340199696223970148
12138202 97 18114174280766351631
12382932 28 18411699924124631784
12491281 212 18130515149532097353
12932764 1 16660633086011664196
13380535 21 18335997440381918380
13380535 76 18410570690990942246
13897977 150 18411135857210616452
14144814 61 18411136922346792112
14325111 11 18413106151851133052
14648413 74 18338236084785025424
14897335 6 18341043103510453980
15219456 202 18338521944812289618
15775835 57 18336267855527860404
16945 1 18335144154855152946
17844478 74 18118697753138822706
18186145 218 18339360751719600133
20201158 50 18412825776681332334
20511035 2 18340208587069900062
20588541 1 18410015394890509246
21501502 16 18410009983221257646
21524375 3 18409726227622213583
2334 1 18266180728287544710
23402539 116 18339349851556612295
23402655 69 18271798000255926181
23463225 33 18409164385907446180
23559900 14 18412832374689875254
25 1 18266458707071368157
2748010 2 18339366386901185286
528886 8 18412257346381127512
53812653 166 18413385449759238832
6333449 129 18409167752866517587
69090 78 18342451565084205687
81228 2 17751934754952712059
8809292 202 18334299764432725434
9709674 26 18413392050844703302

>  <PUBCHEM_SHAPE_MULTIPOLES>  (1) 
265.52
5.46
1.92
0.75
0.21
0.26
-0.09
-1.18
0.14
-0.43
-0.32
-0.24
0.18
0.33

>  <PUBCHEM_SHAPE_SELFOVERLAP>  (1) 
575.217

>  <PUBCHEM_SHAPE_VOLUME>  (1) 
146.3

>  <PUBCHEM_COORDINATE_TYPE>  (1) 
2
5
10

$$$$
