38441
     RDKit          3D

 16 18  0  0  0  0  0  0  0  0999 V2000
    1.5237   -0.0837    0.0005 N   0  0  0  0  0  0  0  0  0  0  0  0
   -0.5551    1.1234    0.0003 N   0  0  0  0  0  0  0  0  0  0  0  0
   -0.6225   -1.0982   -0.0001 N   0  0  0  0  0  0  0  0  0  0  0  0
    2.1819    1.0935    0.0006 N   0  0  0  0  0  0  0  0  0  0  0  0
    0.1596   -0.0420    0.0004 C   0  0  0  0  0  0  0  0  0  0  0  0
    2.3616   -1.1682    0.0002 C   0  0  0  0  0  0  0  0  0  0  0  0
   -1.8872    0.7976    0.0001 C   0  0  0  0  0  0  0  0  0  0  0  0
   -1.9029   -0.5945   -0.0002 C   0  0  0  0  0  0  0  0  0  0  0  0
    3.6396   -0.6650   -0.0005 C   0  0  0  0  0  0  0  0  0  0  0  0
    3.4678    0.7322    0.0000 C   0  0  0  0  0  0  0  0  0  0  0  0
    1.8745   -2.5612    0.0004 C   0  0  0  0  0  0  0  0  0  0  0  0
   -3.0444    1.5771    0.0002 C   0  0  0  0  0  0  0  0  0  0  0  0
   -3.1375   -1.2655   -0.0006 C   0  0  0  0  0  0  0  0  0  0  0  0
    4.5175    1.7648   -0.0009 C   0  0  0  0  0  0  0  0  0  0  0  0
   -4.2644    0.8929    0.0001 C   0  0  0  0  0  0  0  0  0  0  0  0
   -4.3122   -0.5031   -0.0005 C   0  0  0  0  0  0  0  0  0  0  0  0
  1  4  1  0
  1  5  1  0
  1  6  1  0
  2  5  1  0
  2  7  1  0
  3  5  2  0
  3  8  1  0
  4 10  2  0
  6  9  2  0
  6 11  1  0
  7  8  2  0
  7 12  1  0
  8 13  1  0
  9 10  1  0
 10 14  1  0
 12 15  2  0
 13 16  2  0
 15 16  1  0
M  END
>  <PUBCHEM_COMPOUND_CID>  (1) 
38441

>  <PUBCHEM_CONFORMER_RMSD>  (1) 
0.6

>  <PUBCHEM_CONFORMER_DIVERSEORDER>  (1) 
1
2

>  <PUBCHEM_MMFF94_PARTIAL_CHARGES>  (1) 
22
1 0.65
10 0.11
11 0.18
12 -0.15
13 -0.15
14 0.18
15 -0.15
16 -0.15
17 0.27
18 0.15
2 0.03
22 0.15
23 0.15
27 0.15
28 0.15
3 -0.57
4 -0.71
5 0.11
6 -0.33
7 -0.15
8 0.23
9 -0.15

>  <PUBCHEM_EFFECTIVE_ROTOR_COUNT>  (1) 
1

>  <PUBCHEM_PHARMACOPHORE_FEATURES>  (1) 
6
1 2 donor
1 4 acceptor
4 1 2 3 5 cation
5 1 4 6 9 10 rings
5 2 3 5 7 8 rings
6 7 8 12 13 15 16 rings

>  <PUBCHEM_HEAVY_ATOM_COUNT>  (1) 
16

>  <PUBCHEM_ATOM_DEF_STEREO_COUNT>  (1) 
0

>  <PUBCHEM_ATOM_UDEF_STEREO_COUNT>  (1) 
0

>  <PUBCHEM_BOND_DEF_STEREO_COUNT>  (1) 
0

>  <PUBCHEM_BOND_UDEF_STEREO_COUNT>  (1) 
0

>  <PUBCHEM_ISOTOPIC_ATOM_COUNT>  (1) 
0

>  <PUBCHEM_COMPONENT_COUNT>  (1) 
1

>  <PUBCHEM_CACTVS_TAUTO_COUNT>  (1) 
1

>  <PUBCHEM_CONFORMER_ID>  (1) 
0000962900000001

>  <PUBCHEM_MMFF94_ENERGY>  (1) 
23.1635

>  <PUBCHEM_FEATURE_SELFOVERLAP>  (1) 
30.553

>  <PUBCHEM_SHAPE_FINGERPRINT>  (1) 
10014705 185 18260261933037184333
10608611 8 18409445847624961973
10616163 171 18340207491790592063
10967382 1 18410575067488516966
11132069 177 18333447651300091421
11471102 20 18411416202748000380
11615757 297 17704076208997693521
13380535 76 18335139821291537522
13675066 3 17967823708600330057
14144814 61 18410012104824241219
14325111 11 18410575059093800161
14415576 193 18409452483702602468
14445660 50 18342464712000139329
15196674 1 18410856559639809063
15219456 202 18410857629297811831
15375358 24 18260548939303862315
15375462 6 18410573963718864837
15442244 35 18051412872778353490
15536298 74 18413108329647368030
18186145 218 17967532328970209367
19050596 39 18410291389230578330
19591789 44 15667621601905935303
200 152 18131347501324945243
20510252 161 18342741789035964025
20645477 56 18114744811801417261
20645477 70 18272089353209167630
21267235 1 18411146809272024974
21501502 16 18340484461303858907
221490 88 18409739430362783194
22854114 111 18409167701490284398
23402539 116 18337100258812804598
23402655 69 18342737403378410949
23463225 33 18338516335463785615
23559900 14 18269269054671329370
3312278 4 18413392055197355043
34934 24 18411131446553503567
3545911 37 18409451383832434317
4214541 1 18410573942370830081
449060 50 18408325492621034349
449060 62 18341896294421299288
474 4 17822296850568422388
4990 188 18060150829671726468
5104073 3 18409449171887185619
57096353 35 18340484559961363775
58051976 378 18412262869429514998
69090 78 18412541003280586167
7364860 26 18341332176532594846
77779 3 18411420592062126023
9709674 26 18410299094513274639

>  <PUBCHEM_SHAPE_MULTIPOLES>  (1) 
309.35
8.83
1.99
0.6
0.3
0.53
0
-2.37
0
-1.07
0
0.01
0.01
0

>  <PUBCHEM_SHAPE_SELFOVERLAP>  (1) 
687.439

>  <PUBCHEM_SHAPE_VOLUME>  (1) 
166.7

>  <PUBCHEM_COORDINATE_TYPE>  (1) 
2
5
10

$$$$
