38455
     RDKit          3D

 21 23  0  0  1  0  0  0  0  0999 V2000
    0.0783   -0.5951   -1.6531 S   0  0  0  0  0  0  0  0  0  0  0  0
   -1.6973    0.3663   -2.0422 S   0  0  0  0  0  0  0  0  0  0  0  0
    0.8656    1.2891    1.2314 O   0  0  0  0  0  0  0  0  0  0  0  0
   -3.5760   -1.3841    0.3862 O   0  0  0  0  0  0  0  0  0  0  0  0
   -4.5390    0.4689   -1.2619 O   0  0  0  0  0  0  0  0  0  0  0  0
   -1.2496   -1.3988    0.6013 N   0  0  0  0  0  0  0  0  0  0  0  0
   -1.3570    1.2913    0.5113 N   0  0  0  0  0  0  0  0  0  0  0  0
   -0.0058   -0.7200    0.1819 C   0  0  0  0  0  0  0  0  0  0  0  0
   -2.3418    0.5807   -0.3309 C   0  0  0  0  0  0  0  0  0  0  0  0
   -0.0980    0.7070    0.7359 C   0  0  0  0  0  0  0  0  0  0  0  0
   -2.4893   -0.8170    0.2829 C   0  0  0  0  0  0  0  0  0  0  0  0
    1.2876   -1.3903    0.6619 C   0  0  0  0  0  0  0  0  0  0  0  0
   -3.7131    1.2604   -0.4321 C   0  0  0  0  0  0  0  0  0  0  0  0
   -1.1920   -2.6565    1.3364 C   0  0  0  0  0  0  0  0  0  0  0  0
   -1.6870    2.5828    1.1022 C   0  0  0  0  0  0  0  0  0  0  0  0
    2.4998   -0.6316    0.2044 C   0  0  0  0  0  0  0  0  0  0  0  0
    3.0869   -0.9451   -1.0159 C   0  0  0  0  0  0  0  0  0  0  0  0
    3.0226    0.3770    1.0052 C   0  0  0  0  0  0  0  0  0  0  0  0
    4.2130   -0.2402   -1.4412 C   0  0  0  0  0  0  0  0  0  0  0  0
    4.1486    1.0820    0.5798 C   0  0  0  0  0  0  0  0  0  0  0  0
    4.7437    0.7733   -0.6435 C   0  0  0  0  0  0  0  0  0  0  0  0
  1  2  1  0
  1  8  1  0
  2  9  1  0
  3 10  2  0
  4 11  2  0
  5 13  1  0
  6  8  1  0
  6 11  1  0
  6 14  1  0
  7  9  1  0
  7 10  1  0
  7 15  1  0
  8 10  1  0
  8 12  1  0
  9 11  1  0
  9 13  1  0
 12 16  1  0
 16 17  2  0
 16 18  1  0
 17 19  1  0
 18 20  2  0
 19 21  2  0
 20 21  1  0
M  END
>  <PUBCHEM_COMPOUND_CID>  (1) 
38455

>  <PUBCHEM_CONFORMER_RMSD>  (1) 
0.6

>  <PUBCHEM_CONFORMER_DIVERSEORDER>  (1) 
1
2

>  <PUBCHEM_MMFF94_PARTIAL_CHARGES>  (1) 
27
1 -0.23
10 0.57
11 0.57
12 0.14
13 0.28
14 0.3
15 0.3
16 -0.14
17 -0.15
18 -0.15
19 -0.15
2 -0.23
20 -0.15
21 -0.15
3 -0.57
32 0.15
33 0.15
34 0.4
35 0.15
36 0.15
37 0.15
4 -0.57
5 -0.68
6 -0.66
7 -0.66
8 0.59
9 0.59

>  <PUBCHEM_EFFECTIVE_ROTOR_COUNT>  (1) 
3.8

>  <PUBCHEM_PHARMACOPHORE_FEATURES>  (1) 
6
1 3 acceptor
1 4 acceptor
1 5 acceptor
1 5 donor
6 16 17 18 19 20 21 rings
8 1 2 6 7 8 9 10 11 rings

>  <PUBCHEM_HEAVY_ATOM_COUNT>  (1) 
21

>  <PUBCHEM_ATOM_DEF_STEREO_COUNT>  (1) 
0

>  <PUBCHEM_ATOM_UDEF_STEREO_COUNT>  (1) 
2

>  <PUBCHEM_BOND_DEF_STEREO_COUNT>  (1) 
0

>  <PUBCHEM_BOND_UDEF_STEREO_COUNT>  (1) 
0

>  <PUBCHEM_ISOTOPIC_ATOM_COUNT>  (1) 
0

>  <PUBCHEM_COMPONENT_COUNT>  (1) 
1

>  <PUBCHEM_CACTVS_TAUTO_COUNT>  (1) 
1

>  <PUBCHEM_CONFORMER_ID>  (1) 
0000963700000001

>  <PUBCHEM_MMFF94_ENERGY>  (1) 
96.9482

>  <PUBCHEM_FEATURE_SELFOVERLAP>  (1) 
30.454

>  <PUBCHEM_SHAPE_FINGERPRINT>  (1) 
10366900 7 18202004330713439858
10498660 4 18334860515331320508
10863032 1 18335700499064736875
10948715 1 17969215647207800295
11132069 177 17385723582131765894
11370993 70 18186516588049187934
11640471 11 17386012762659496362
12173636 292 18188485779125384509
12236239 1 16732698385294813218
12251169 10 11242259541175829488
12403814 3 17203328905366962565
12592029 89 16950843596600114419
12969540 114 18272357690028275239
13027679 85 18266462186248014145
13224815 77 18202565085991327024
13764800 53 18408046225431561338
14787075 74 18265613380187599947
14790565 3 18196097638444114641
15163728 17 17606680223590593029
15375358 24 18271801358925275384
15775835 57 17385724686249434572
16752209 62 17631727158379026904
16945 1 18131058303970701739
18186145 218 18335140834956255038
19862831 5 18341334405562222454
200 152 16343704313913581160
20510252 161 18408890641676813331
21452121 199 16886966673789314243
23227448 37 18115590499071950836
23402539 116 18342447171728079806
23419403 2 17109283531089467207
23493267 7 18409171008826333138
23557571 272 18337118967954395302
23559900 14 18410015408234730254
2748010 2 17982439700935245224
296302 2 17821730532948788006
4028521 119 18411981347239903324
4340502 62 18187647943260458349
633830 44 18269271266457862429
9709674 26 18273218607975610696

>  <PUBCHEM_SHAPE_MULTIPOLES>  (1) 
412.3
7.79
2.03
1.61
4.16
0.18
0.61
-1.9
2.07
-1.2
-1.05
-0.08
0
0.6

>  <PUBCHEM_SHAPE_SELFOVERLAP>  (1) 
867.468

>  <PUBCHEM_SHAPE_VOLUME>  (1) 
234.4

>  <PUBCHEM_COORDINATE_TYPE>  (1) 
2
5
10

$$$$
