38466
     RDKit          3D

 17 16  0  0  1  0  0  0  0  0999 V2000
   -3.0412   -2.5117    1.3327 Cl  0  0  0  0  0  0  0  0  0  0  0  0
   -4.6005    0.9137    1.0789 Cl  0  0  0  0  0  0  0  0  0  0  0  0
    1.8010    2.6384   -0.8551 O   0  0  0  0  0  0  0  0  0  0  0  0
   -2.2575   -0.2287   -0.6028 N   0  0  0  0  0  0  0  0  0  0  0  0
    2.2503    1.6621    0.0901 C   0  0  0  0  0  0  0  0  0  0  0  0
    2.6479    0.3809   -0.6803 C   0  0  0  0  0  0  0  0  0  0  0  0
    3.1935   -0.7517    0.2015 C   0  0  0  0  0  0  0  0  0  0  0  0
    1.1144    1.3894    1.1032 C   0  0  0  0  0  0  0  0  0  0  0  0
    3.4472    2.2631    0.8409 C   0  0  0  0  0  0  0  0  0  0  0  0
    3.5325   -1.9875   -0.6349 C   0  0  0  0  0  0  0  0  0  0  0  0
    4.0357   -3.1282    0.2353 C   0  0  0  0  0  0  0  0  0  0  0  0
   -0.0914    0.8083    0.4885 C   0  0  0  0  0  0  0  0  0  0  0  0
   -2.1868   -1.5964   -1.0955 C   0  0  0  0  0  0  0  0  0  0  0  0
   -3.1960    0.6748   -1.2523 C   0  0  0  0  0  0  0  0  0  0  0  0
   -1.0779    0.3367   -0.0074 C   0  0  0  0  0  0  0  0  0  0  0  0
   -1.8332   -2.5621    0.0245 C   0  0  0  0  0  0  0  0  0  0  0  0
   -3.7379    1.6989   -0.2674 C   0  0  0  0  0  0  0  0  0  0  0  0
  1 16  1  0
  2 17  1  0
  3  5  1  0
  4 13  1  0
  4 14  1  0
  4 15  1  0
  5  6  1  0
  5  8  1  0
  5  9  1  0
  6  7  1  0
  7 10  1  0
  8 12  1  0
 10 11  1  0
 12 15  3  0
 13 16  1  0
 14 17  1  0
M  END
>  <PUBCHEM_COMPOUND_CID>  (1) 
38466

>  <PUBCHEM_CONFORMER_RMSD>  (1) 
0.8

>  <PUBCHEM_CONFORMER_DIVERSEORDER>  (1) 
22
279
165
36
379
98
287
84
131
342
357
75
369
111
358
356
221
8
105
119
305
333
360
281
201
196
93
274
351
268
282
228
202
316
191
323
166
271
361
82
312
263
208
341
133
129
376
375
148
101
230
128
335
86
275
322
362
172
307
313
110
354
160
217
367
265
378
132
353
352
183
365
185
102
100
299
113
298
273
280
57
158
90
233
63
340
241
109
124
211
339
45
207
197
377
87
327
278
218
246
252
89
344
355
373
284
318
315
331
314
69
293
343
283
83
144
161
168
215
349
223
44
294
146
370
155
42
350
231
345
260
291
234
288
177
311
134
47
104
117
123
43
371
254
194
149
94
308
372
136
19
292
364
11
99
125
159
330
328
240
121
179
336
6
180
186
245
226
257
272
366
374
310
199
91
277
79
189
41
206
347
154
304
306
224
326
106
266
71
289
212
317
348
248
182
332
184
338
173
80
40
320
249
222
209
130
122
324
325
321
264
285
239
334
48
300
59
126
329
204
195
188
140
31
181
190
203
170
145
192
242
267
152
210
227
116
309
46
286
290
56
237
238
214
301
193
225
205
150
220
251
229
176
200
103
142
115
232
236
67
259
216
368
244
167
10
235
108
147
107
50
258
256
337
175
346
92
250
27
163
15
162
151
16
118
363
297
270
76
51
359
295
255
187
54
114
49
24
253
198
77
153
62
88
157
261
138
9
276
135
14
53
303
269
141
38
296
85
18
32
4
156
247
243
64
262
35
137
60
112
26
178
319
1
169
81
25
139
39
73
213
174
33
164
3
127
13
12
219
95
65
61
28
302
55
97
78
143
7
30
37
52
120
74
21
171
29
66
2
58
23
34
96
17
72
5
70
68
20

>  <PUBCHEM_MMFF94_PARTIAL_CHARGES>  (1) 
13
1 -0.29
12 -0.2
13 0.37
14 0.37
15 0.06
16 0.29
17 0.29
2 -0.29
29 0.4
3 -0.68
4 -0.8
5 0.28
8 0.2

>  <PUBCHEM_EFFECTIVE_ROTOR_COUNT>  (1) 
8

>  <PUBCHEM_PHARMACOPHORE_FEATURES>  (1) 
4
1 11 hydrophobe
1 3 acceptor
1 3 donor
1 4 cation

>  <PUBCHEM_HEAVY_ATOM_COUNT>  (1) 
17

>  <PUBCHEM_ATOM_DEF_STEREO_COUNT>  (1) 
0

>  <PUBCHEM_ATOM_UDEF_STEREO_COUNT>  (1) 
1

>  <PUBCHEM_BOND_DEF_STEREO_COUNT>  (1) 
0

>  <PUBCHEM_BOND_UDEF_STEREO_COUNT>  (1) 
0

>  <PUBCHEM_ISOTOPIC_ATOM_COUNT>  (1) 
0

>  <PUBCHEM_COMPONENT_COUNT>  (1) 
1

>  <PUBCHEM_CACTVS_TAUTO_COUNT>  (1) 
1

>  <PUBCHEM_CONFORMER_ID>  (1) 
0000964200000016

>  <PUBCHEM_MMFF94_ENERGY>  (1) 
19.9145

>  <PUBCHEM_FEATURE_SELFOVERLAP>  (1) 
20.297

>  <PUBCHEM_SHAPE_FINGERPRINT>  (1) 
10062212 137 17703495615650962351
11265709 11 18126845998227021818
11458722 120 18057606465070517865
12553582 1 18198066872364170278
12596599 1 17168421683402187279
12788726 201 17702676423506469016
13533116 47 18272642489758123991
14178342 30 18266731570670448392
15295992 7 17989209252815819841
18186145 218 18260822683476622533
20645477 56 18335692888652097053
20645477 70 17917993905795607812
20681651 13 17273973725895496267
23559900 14 18342728616745618608
314173 41 18338806594044560902
58051976 100 18337399326176039197
81228 2 17626398822426297826
9709674 26 18338228362048731351

>  <PUBCHEM_SHAPE_MULTIPOLES>  (1) 
342.74
8.84
3.63
1.21
0.8
1.79
0.06
1.36
0.75
-2.22
0.48
0.75
0.03
0.72

>  <PUBCHEM_SHAPE_SELFOVERLAP>  (1) 
622.174

>  <PUBCHEM_SHAPE_VOLUME>  (1) 
219.4

>  <PUBCHEM_COORDINATE_TYPE>  (1) 
2
5
10

$$$$
