38477
     RDKit          3D

 10  9  0  0  1  0  0  0  0  0999 V2000
    1.1259   -2.9595    0.1219 S   0  0  0  0  0  0  0  0  0  0  0  0
    2.2090    1.4897    0.5842 O   0  0  0  0  0  0  0  0  0  0  0  0
    0.5240    1.9474   -0.8641 O   0  0  0  0  0  0  0  0  0  0  0  0
   -0.6460   -0.4304   -0.5262 N   0  0  0  0  0  0  0  0  0  0  0  0
   -2.9479   -0.1957   -0.5572 N   0  0  0  0  0  0  0  0  0  0  0  0
   -1.8619    0.5208    1.3142 N   0  0  0  0  0  0  0  0  0  0  0  0
    0.6085   -0.2372    0.2116 C   0  0  0  0  0  0  0  0  0  0  0  0
    1.6431   -1.2566   -0.2548 C   0  0  0  0  0  0  0  0  0  0  0  0
    1.0770    1.1702   -0.0969 C   0  0  0  0  0  0  0  0  0  0  0  0
   -1.7316   -0.0488    0.0672 C   0  0  0  0  0  0  0  0  0  0  0  0
  1  8  1  0
  2  9  1  0
  3  9  2  0
  4  7  1  0
  4 10  2  3
  5 10  1  0
  6 10  1  0
  7  8  1  0
  7  9  1  0
M  END
>  <PUBCHEM_COMPOUND_CID>  (1) 
38477

>  <PUBCHEM_CONFORMER_RMSD>  (1) 
0.6

>  <PUBCHEM_CONFORMER_DIVERSEORDER>  (1) 
1
14
12
9
6
13
5
4
11
3
10
7
2
8

>  <PUBCHEM_MMFF94_PARTIAL_CHARGES>  (1) 
16
1 -0.41
10 0.55
14 0.18
15 0.4
16 0.4
17 0.4
18 0.4
19 0.5
2 -0.65
3 -0.57
4 -0.7
5 -0.85
6 -0.85
7 0.31
8 0.23
9 0.66

>  <PUBCHEM_EFFECTIVE_ROTOR_COUNT>  (1) 
3

>  <PUBCHEM_PHARMACOPHORE_FEATURES>  (1) 
6
1 2 acceptor
1 3 acceptor
1 5 donor
1 6 donor
3 2 3 9 anion
4 4 5 6 10 cation

>  <PUBCHEM_HEAVY_ATOM_COUNT>  (1) 
10

>  <PUBCHEM_ATOM_DEF_STEREO_COUNT>  (1) 
1

>  <PUBCHEM_ATOM_UDEF_STEREO_COUNT>  (1) 
0

>  <PUBCHEM_BOND_DEF_STEREO_COUNT>  (1) 
0

>  <PUBCHEM_BOND_UDEF_STEREO_COUNT>  (1) 
0

>  <PUBCHEM_ISOTOPIC_ATOM_COUNT>  (1) 
0

>  <PUBCHEM_COMPONENT_COUNT>  (1) 
1

>  <PUBCHEM_CACTVS_TAUTO_COUNT>  (1) 
2

>  <PUBCHEM_CONFORMER_ID>  (1) 
0000964D00000001

>  <PUBCHEM_MMFF94_ENERGY>  (1) 
23.6826

>  <PUBCHEM_FEATURE_SELFOVERLAP>  (1) 
30.561

>  <PUBCHEM_SHAPE_FINGERPRINT>  (1) 
161256 15 18337950061353259932
20653091 64 18272375230548306019
21040471 1 18050569843860350668
23552423 10 18341894082661101327
23595355 12 18263092174460898022
29004967 10 18189065200225761698
5084963 1 18198349652435718061

>  <PUBCHEM_SHAPE_MULTIPOLES>  (1) 
182.96
3.11
2.52
0.88
1.24
0.35
-0.13
-1.85
-0.13
-1.72
0.09
0.3
0.09
0.01

>  <PUBCHEM_SHAPE_SELFOVERLAP>  (1) 
340.416

>  <PUBCHEM_SHAPE_VOLUME>  (1) 
116

>  <PUBCHEM_COORDINATE_TYPE>  (1) 
2
5
10

$$$$
