38483
     RDKit          3D

 23 25  0  0  1  0  0  0  0  0999 V2000
   -1.3190    0.8949   -1.3589 O   0  0  0  0  0  0  0  0  0  0  0  0
   -0.8281    2.4316    0.2907 O   0  0  0  0  0  0  0  0  0  0  0  0
   -4.7751    0.5816    0.0446 N   0  0  0  0  0  0  0  0  0  0  0  0
   -3.3433    0.2835   -0.1901 C   0  0  0  0  0  0  0  0  0  0  0  0
   -3.1708   -1.1726   -0.6677 C   0  0  0  0  0  0  0  0  0  0  0  0
   -3.7887   -2.1677    0.3060 C   0  0  0  0  0  0  0  0  0  0  0  0
   -5.2380   -1.7999    0.5826 C   0  0  0  0  0  0  0  0  0  0  0  0
   -5.3568   -0.3453    1.0315 C   0  0  0  0  0  0  0  0  0  0  0  0
    3.0706    0.3284    0.3005 C   0  0  0  0  0  0  0  0  0  0  0  0
   -2.7104    1.2086   -1.2394 C   0  0  0  0  0  0  0  0  0  0  0  0
    1.5684    0.5424    0.4745 C   0  0  0  0  0  0  0  0  0  0  0  0
    3.9057    1.4695    0.8585 C   0  0  0  0  0  0  0  0  0  0  0  0
    5.3726    1.4566    0.4360 C   0  0  0  0  0  0  0  0  0  0  0  0
    3.6539   -0.7487   -0.2763 C   0  0  0  0  0  0  0  0  0  0  0  0
    5.9414    0.0521    0.5261 C   0  0  0  0  0  0  0  0  0  0  0  0
    5.1593   -0.8948   -0.3806 C   0  0  0  0  0  0  0  0  0  0  0  0
    0.9274    1.1361   -0.7826 C   0  0  0  0  0  0  0  0  0  0  0  0
   -4.9958    1.9601    0.4916 C   0  0  0  0  0  0  0  0  0  0  0  0
    0.8074   -0.6610    0.9750 C   0  0  0  0  0  0  0  0  0  0  0  0
   -0.4863    1.5876   -0.5262 C   0  0  0  0  0  0  0  0  0  0  0  0
    2.9369   -1.8523   -0.8989 C   0  0  0  0  0  0  0  0  0  0  0  0
    0.9159   -1.9244    0.5437 C   0  0  0  0  0  0  0  0  0  0  0  0
    1.7529   -2.3661   -0.5406 C   0  0  0  0  0  0  0  0  0  0  0  0
  1 10  1  0
  1 20  1  0
  2 20  2  0
  3  4  1  0
  3  8  1  0
  3 18  1  0
  4  5  1  0
  4 10  1  0
  5  6  1  0
  6  7  1  0
  7  8  1  0
  9 11  1  0
  9 12  1  0
  9 14  2  0
 11 17  1  0
 11 19  1  0
 12 13  1  0
 13 15  1  0
 14 16  1  0
 14 21  1  0
 15 16  1  0
 17 20  1  0
 19 22  2  0
 21 23  2  0
 22 23  1  0
M  END
>  <PUBCHEM_COMPOUND_CID>  (1) 
38483

>  <PUBCHEM_CONFORMER_RMSD>  (1) 
1

>  <PUBCHEM_CONFORMER_DIVERSEORDER>  (1) 
2
169
50
239
345
14
184
194
170
361
1
129
328
227
323
145
369
68
300
180
15
9
312
25
158
127
117
195
347
51
139
30
260
77
147
33
85
254
329
174
41
164
273
29
301
182
95
228
224
314
334
91
149
108
214
22
21
69
212
43
315
52
140
325
47
276
76
251
61
360
141
246
12
84
308
368
294
318
64
206
248
229
93
282
86
150
189
167
238
343
222
100
104
56
240
89
122
40
201
106
382
324
88
220
17
305
39
277
378
293
6
132
20
190
322
187
36
154
166
351
213
53
58
35
28
136
74
62
280
383
137
101
171
350
192
327
272
63
78
245
266
279
49
198
120
125
335
289
138
151
377
177
268
27
310
256
118
134
161
284
247
186
70
175
113
183
105
225
26
65
42
304
7
285
231
379
38
262
309
371
243
204
290
148
281
179
193
92
302
135
250
381
24
216
99
338
387
297
37
181
94
144
121
207
354
109
319
116
5
3
244
367
307
271
348
217
57
8
364
259
263
288
337
79
81
34
176
346
393
163
165
67
119
233
373
202
286
386
44
54
317
90
332
155
59
366
384
11
339
391
241
394
205
298
370
185
283
385
380
157
303
131
253
75
156
82
236
45
221
270
255
173
18
97
230
72
153
219
353
73
197
211
13
111
267
356
389
10
311
203
32
218
87
55
112
168
130
199
103
226
242
146
152
330
128
66
349
392
115
320
191
23
326
31
278
316
46
344
196
355
291
336
257
96
372
331
80
223
388
390
235
200
110
60
215
143
376
352
126
363
341
275
395
374
358
375
48
209
292
359
365
188
133
252
287
306
249
159
114
265
102
4
237
274
107
160
258
16
234
264
232
124
208
296
162
178
210
295
269
342
261
321
142
362
340
98
83
172
333
357
19
71
123
299
313

>  <PUBCHEM_MMFF94_PARTIAL_CHARGES>  (1) 
22
1 -0.43
10 0.28
11 0.28
12 0.14
14 -0.14
16 0.14
17 0.06
18 0.27
19 -0.29
2 -0.57
20 0.66
21 -0.15
22 -0.15
23 -0.15
3 -0.81
4 0.27
49 0.15
50 0.15
51 0.15
52 0.15
8 0.27
9 -0.28

>  <PUBCHEM_EFFECTIVE_ROTOR_COUNT>  (1) 
7.2

>  <PUBCHEM_PHARMACOPHORE_FEATURES>  (1) 
5
1 2 acceptor
1 3 cation
6 3 4 5 6 7 8 rings
6 9 12 13 14 15 16 rings
7 9 11 14 19 21 22 23 rings

>  <PUBCHEM_HEAVY_ATOM_COUNT>  (1) 
23

>  <PUBCHEM_ATOM_DEF_STEREO_COUNT>  (1) 
0

>  <PUBCHEM_ATOM_UDEF_STEREO_COUNT>  (1) 
2

>  <PUBCHEM_BOND_DEF_STEREO_COUNT>  (1) 
0

>  <PUBCHEM_BOND_UDEF_STEREO_COUNT>  (1) 
0

>  <PUBCHEM_ISOTOPIC_ATOM_COUNT>  (1) 
0

>  <PUBCHEM_COMPONENT_COUNT>  (1) 
1

>  <PUBCHEM_CACTVS_TAUTO_COUNT>  (1) 
1

>  <PUBCHEM_CONFORMER_ID>  (1) 
0000965300000002

>  <PUBCHEM_MMFF94_ENERGY>  (1) 
33.7308

>  <PUBCHEM_FEATURE_SELFOVERLAP>  (1) 
25.378

>  <PUBCHEM_SHAPE_FINGERPRINT>  (1) 
11014199 57 17763459917366150695
11370993 144 18200035036721493861
11488393 25 17845102766365564846
11552529 35 17560229358021293063
12035758 1 18270381898510283832
12166972 35 17167865253757734716
12236239 1 16343983611373521242
12467345 10 17988650674722328881
12596602 18 17418381319945702147
12616971 3 16950572077104492373
12730499 353 18342460344466765994
12788726 201 16987437499852175057
128620 24 18040715835878847316
13402501 40 18409167739865798683
13464513 79 18187083983256642382
13583140 156 17917705829797346529
13911882 115 18411989069586132038
14341114 176 18271812306364753361
14787075 74 18261953067434810724
14790565 3 18268149932286170404
15196674 1 18410292514475235919
15537594 2 17603587396476577865
15788980 27 15936404524664830439
15927050 60 17477205393927401068
17349148 13 15719395001570640720
1813 80 17385731292083372157
21623969 137 18342740723636024470
21673915 165 18410293622877316243
221490 88 18268991990931954566
23402539 116 18187642509699768842
23557571 272 18335425664023108762
23559900 14 18338789139624621537
350125 39 18412262835966549120
3737641 26 18270124508755867174
4325135 7 17967535700899306300
439807 62 13624112958129538873
474229 33 18408598189059021366
5104073 3 18410849928447772538
59755656 215 18411985728549858358
6442390 28 18408884057808887978

>  <PUBCHEM_SHAPE_MULTIPOLES>  (1) 
456.61
13.61
2.54
1.06
1.88
0.36
-0.1
0.09
2.95
0.93
-0.06
0.23
-0.06
1.08

>  <PUBCHEM_SHAPE_SELFOVERLAP>  (1) 
942.542

>  <PUBCHEM_SHAPE_VOLUME>  (1) 
257.6

>  <PUBCHEM_COORDINATE_TYPE>  (1) 
2
5
10

$$$$
