38482
     RDKit          3D

 20 21  0  0  1  0  0  0  0  0999 V2000
   -1.1164   -1.5528   -0.9613 O   0  0  0  0  0  0  0  0  0  0  0  0
   -1.1278   -2.0735    1.2864 O   0  0  0  0  0  0  0  0  0  0  0  0
   -4.3121    0.2488   -0.5823 N   0  0  0  0  0  0  0  0  0  0  0  0
    1.7211   -1.0266    0.9049 C   0  0  0  0  0  0  0  0  0  0  0  0
    3.2374   -1.2786    0.9360 C   0  0  0  0  0  0  0  0  0  0  0  0
    3.9606   -1.2862   -0.4062 C   0  0  0  0  0  0  0  0  0  0  0  0
    1.3429    0.4181    0.6253 C   0  0  0  0  0  0  0  0  0  0  0  0
    4.0080    0.0728   -1.0933 C   0  0  0  0  0  0  0  0  0  0  0  0
    2.6495    0.5603   -1.5842 C   0  0  0  0  0  0  0  0  0  0  0  0
    1.7728    1.1442   -0.5034 C   0  0  0  0  0  0  0  0  0  0  0  0
    0.9480   -2.0096    0.0219 C   0  0  0  0  0  0  0  0  0  0  0  0
    0.4961    1.0566    1.5566 C   0  0  0  0  0  0  0  0  0  0  0  0
    1.3454    2.4786   -0.6607 C   0  0  0  0  0  0  0  0  0  0  0  0
   -0.5392   -1.8930    0.2293 C   0  0  0  0  0  0  0  0  0  0  0  0
    0.0880    2.3785    1.3857 C   0  0  0  0  0  0  0  0  0  0  0  0
    0.5143    3.0912    0.2753 C   0  0  0  0  0  0  0  0  0  0  0  0
   -2.5395   -1.4020   -0.9354 C   0  0  0  0  0  0  0  0  0  0  0  0
   -2.8715    0.0439   -0.6027 C   0  0  0  0  0  0  0  0  0  0  0  0
   -4.6323    1.6508   -0.3032 C   0  0  0  0  0  0  0  0  0  0  0  0
   -4.9455   -0.6216    0.4114 C   0  0  0  0  0  0  0  0  0  0  0  0
  1 14  1  0
  1 17  1  0
  2 14  2  0
  3 18  1  0
  3 19  1  0
  3 20  1  0
  4  5  1  0
  4  7  1  0
  4 11  1  0
  5  6  1  0
  6  8  1  0
  7 10  2  0
  7 12  1  0
  8  9  1  0
  9 10  1  0
 10 13  1  0
 11 14  1  0
 12 15  2  0
 13 16  2  0
 15 16  1  0
 17 18  1  0
M  END
>  <PUBCHEM_COMPOUND_CID>  (1) 
38482

>  <PUBCHEM_CONFORMER_RMSD>  (1) 
0.8

>  <PUBCHEM_CONFORMER_DIVERSEORDER>  (1) 
1
108
17
125
159
122
273
224
261
16
142
226
182
48
36
86
35
165
238
193
173
13
66
97
256
3
29
166
259
231
294
140
112
255
295
279
47
100
252
20
25
223
146
258
101
9
232
18
297
22
39
123
228
119
233
272
65
41
26
251
283
49
8
195
268
93
44
265
248
43
250
210
171
106
196
181
298
117
128
271
211
296
282
24
280
198
14
212
191
134
15
83
284
68
215
102
145
188
175
239
178
148
151
174
194
127
147
150
94
163
170
149
114
299
52
277
237
186
113
286
301
4
75
121
141
138
32
131
129
21
176
81
168
292
57
270
23
10
225
133
46
156
77
172
55
90
73
30
5
153
207
28
267
54
64
95
88
33
143
257
192
220
290
169
135
254
214
91
247
242
71
6
199
79
202
160
19
289
2
291
230
285
110
240
209
227
72
137
80
264
152
179
263
27
40
155
11
208
162
293
164
274
184
78
217
31
136
58
118
107
269
300
221
105
219
96
7
180
167
12
69
204
126
235
203
45
115
201
244
213
104
278
262
187
62
139
50
74
185
109
206
63
245
130
241
61
200
34
53
92
87
99
243
120
275
287
157
216
67
222
161
89
85
236
276
60
218
260
281
82
177
154
103
158
132
116
98
38
189
249
288
234
246
266
51
183
205
190
229
42
197
124
253
76
84
144
56
70
37
111
59

>  <PUBCHEM_MMFF94_PARTIAL_CHARGES>  (1) 
21
1 -0.43
10 -0.14
11 0.06
12 -0.15
13 -0.15
14 0.66
15 -0.15
16 -0.15
17 0.28
18 0.27
19 0.27
2 -0.57
20 0.27
3 -0.81
32 0.15
33 0.15
34 0.15
35 0.15
4 0.14
7 -0.14
9 0.14

>  <PUBCHEM_EFFECTIVE_ROTOR_COUNT>  (1) 
7

>  <PUBCHEM_PHARMACOPHORE_FEATURES>  (1) 
4
1 2 acceptor
1 3 cation
6 7 10 12 13 15 16 rings
7 4 5 6 7 8 9 10 rings

>  <PUBCHEM_HEAVY_ATOM_COUNT>  (1) 
20

>  <PUBCHEM_ATOM_DEF_STEREO_COUNT>  (1) 
0

>  <PUBCHEM_ATOM_UDEF_STEREO_COUNT>  (1) 
1

>  <PUBCHEM_BOND_DEF_STEREO_COUNT>  (1) 
0

>  <PUBCHEM_BOND_UDEF_STEREO_COUNT>  (1) 
0

>  <PUBCHEM_ISOTOPIC_ATOM_COUNT>  (1) 
0

>  <PUBCHEM_COMPONENT_COUNT>  (1) 
1

>  <PUBCHEM_CACTVS_TAUTO_COUNT>  (1) 
1

>  <PUBCHEM_CONFORMER_ID>  (1) 
0000965200000001

>  <PUBCHEM_MMFF94_ENERGY>  (1) 
45.7558

>  <PUBCHEM_FEATURE_SELFOVERLAP>  (1) 
20.304

>  <PUBCHEM_SHAPE_FINGERPRINT>  (1) 
10366900 7 18113334220198238779
104564 63 18127690418224142881
10764073 3 17841393099958441632
116883 192 18199193876024847790
12035759 4 18263094223439950918
12293681 160 18266197174308600048
12617007 42 18130795567867751476
12788726 201 18270128911661613956
128993 33 18117268362627300525
13132413 78 18269257127710503488
13464514 151 18123468543035228380
14386348 128 18188759669506420061
14713325 29 17029112602506787900
15163728 17 17320154425701816620
15238133 3 18334572404334491587
1601671 61 18342456989432617639
16945 1 17531515551753232462
17834072 14 11599738246292757083
18769570 83 18335693953914275536
18981168 100 17606663984266180359
20233049 118 18410853261236794660
20600515 1 18198317698353822690
20691752 17 17969201486605634567
21285901 2 17845101670720714118
221357 26 18411982490297290119
22802520 49 18046632483999325438
23419403 2 17688818282514244904
23559900 14 18272090543901434844
238 59 17551219001458973054
25 1 18261109677380988895
2637199 183 18260835920755538055
3797600 57 12468629543209068478
427121 178 12468356864568154908
6442390 28 14635162242992591728
7495541 125 18187368774370449779
7832392 63 18271793645011375263
81228 2 18341337674201218178

>  <PUBCHEM_SHAPE_MULTIPOLES>  (1) 
394.87
7.75
3.01
1.37
8.39
1.45
-0.12
-1.09
2.07
-0.2
-0.47
-0.55
0.16
-0.31

>  <PUBCHEM_SHAPE_SELFOVERLAP>  (1) 
806.457

>  <PUBCHEM_SHAPE_VOLUME>  (1) 
228.1

>  <PUBCHEM_COORDINATE_TYPE>  (1) 
2
5
10

$$$$
