38485
     RDKit          3D

 20 21  0  0  0  0  0  0  0  0999 V2000
   -2.9796    0.3430    0.6009 O   0  0  0  0  0  0  0  0  0  0  0  0
   -1.4690   -0.0229   -1.1035 O   0  0  0  0  0  0  0  0  0  0  0  0
   -6.4926   -0.2054   -0.3789 N   0  0  0  0  0  0  0  0  0  0  0  0
    4.7331    0.8189   -0.9465 C   0  0  0  0  0  0  0  0  0  0  0  0
    5.7847    0.3556    0.0547 C   0  0  0  0  0  0  0  0  0  0  0  0
    3.3339    0.7170   -0.3912 C   0  0  0  0  0  0  0  0  0  0  0  0
    2.8082   -0.4679    0.1573 C   0  0  0  0  0  0  0  0  0  0  0  0
    6.0131   -1.1502    0.0164 C   0  0  0  0  0  0  0  0  0  0  0  0
    0.6955    0.6934    0.5819 C   0  0  0  0  0  0  0  0  0  0  0  0
    1.4818   -0.4576    0.6357 C   0  0  0  0  0  0  0  0  0  0  0  0
    2.5219    1.8680   -0.4478 C   0  0  0  0  0  0  0  0  0  0  0  0
    3.5128   -1.7602    0.2259 C   0  0  0  0  0  0  0  0  0  0  0  0
    4.8215   -2.0422    0.1650 C   0  0  0  0  0  0  0  0  0  0  0  0
    1.2161    1.8581    0.0378 C   0  0  0  0  0  0  0  0  0  0  0  0
   -0.7029    0.6696    1.0995 C   0  0  0  0  0  0  0  0  0  0  0  0
   -5.3656    0.1155    0.4842 C   0  0  0  0  0  0  0  0  0  0  0  0
   -4.0558    0.0031   -0.2794 C   0  0  0  0  0  0  0  0  0  0  0  0
   -1.7296    0.2870    0.0512 C   0  0  0  0  0  0  0  0  0  0  0  0
   -7.7579   -0.0568    0.3443 C   0  0  0  0  0  0  0  0  0  0  0  0
   -6.3697   -1.5660   -0.9077 C   0  0  0  0  0  0  0  0  0  0  0  0
  1 17  1  0
  1 18  1  0
  2 18  2  0
  3 16  1  0
  3 19  1  0
  3 20  1  0
  4  5  1  0
  4  6  1  0
  5  8  1  0
  6  7  2  0
  6 11  1  0
  7 10  1  0
  7 12  1  0
  8 13  1  0
  9 10  2  0
  9 14  1  0
  9 15  1  0
 11 14  2  0
 12 13  2  0
 15 18  1  0
 16 17  1  0
M  END
>  <PUBCHEM_COMPOUND_CID>  (1) 
38485

>  <PUBCHEM_CONFORMER_RMSD>  (1) 
0.8

>  <PUBCHEM_CONFORMER_DIVERSEORDER>  (1) 
1
149
159
72
46
58
213
82
298
202
95
265
75
107
212
228
220
106
85
26
35
288
302
9
262
257
132
134
42
176
199
172
53
236
238
148
196
189
139
225
111
242
190
268
101
59
36
28
267
233
195
188
126
164
31
135
154
258
289
112
209
144
152
253
68
162
69
158
48
254
119
284
110
74
201
24
91
23
211
38
116
99
321
219
245
309
145
40
235
39
170
246
88
151
283
128
186
204
256
115
207
240
294
117
51
325
33
17
168
140
301
234
78
200
243
143
6
27
266
122
142
247
104
49
241
255
313
175
230
295
60
153
21
57
32
105
305
328
169
174
271
274
264
269
141
73
251
237
296
92
166
12
87
8
79
178
249
160
2
34
287
56
16
279
63
223
184
66
248
121
29
76
306
41
161
304
124
300
13
130
310
5
273
127
146
323
84
252
183
316
222
259
94
179
123
192
155
61
45
80
322
282
52
125
193
263
216
215
229
326
329
15
109
182
7
47
113
210
297
163
187
250
118
293
71
10
18
103
22
43
62
137
98
270
108
231
133
291
311
239
286
114
3
37
4
198
136
180
86
64
227
81
221
120
327
281
307
173
217
44
280
147
194
177
54
191
308
156
278
90
65
197
77
318
20
277
11
319
96
303
275
55
165
30
97
181
131
138
83
102
317
67
70
226
171
320
157
205
214
272
167
19
244
218
100
299
315
150
276
312
129
206
285
25
185
50
314
203
208
89
261
224
93
324
14
292
290
260
232

>  <PUBCHEM_MMFF94_PARTIAL_CHARGES>  (1) 
24
1 -0.43
10 -0.15
11 -0.15
12 -0.18
13 -0.29
14 -0.15
15 0.2
16 0.27
17 0.28
18 0.66
19 0.27
2 -0.57
20 0.27
27 0.15
28 0.15
29 0.15
3 -0.81
30 0.15
31 0.15
4 0.14
6 -0.14
7 0.03
8 0.14
9 -0.14

>  <PUBCHEM_EFFECTIVE_ROTOR_COUNT>  (1) 
6.6

>  <PUBCHEM_PHARMACOPHORE_FEATURES>  (1) 
4
1 2 acceptor
1 3 cation
6 6 7 9 10 11 14 rings
7 4 5 6 7 8 12 13 rings

>  <PUBCHEM_HEAVY_ATOM_COUNT>  (1) 
20

>  <PUBCHEM_ATOM_DEF_STEREO_COUNT>  (1) 
0

>  <PUBCHEM_ATOM_UDEF_STEREO_COUNT>  (1) 
0

>  <PUBCHEM_BOND_DEF_STEREO_COUNT>  (1) 
0

>  <PUBCHEM_BOND_UDEF_STEREO_COUNT>  (1) 
0

>  <PUBCHEM_ISOTOPIC_ATOM_COUNT>  (1) 
0

>  <PUBCHEM_COMPONENT_COUNT>  (1) 
1

>  <PUBCHEM_CACTVS_TAUTO_COUNT>  (1) 
1

>  <PUBCHEM_CONFORMER_ID>  (1) 
0000965500000001

>  <PUBCHEM_MMFF94_ENERGY>  (1) 
44.8985

>  <PUBCHEM_FEATURE_SELFOVERLAP>  (1) 
20.304

>  <PUBCHEM_SHAPE_FINGERPRINT>  (1) 
10299344 5 18341896303670850691
106641 1 17489862744621726242
10670039 82 15285631050247821631
11524674 6 16271926039427927671
11646440 116 14620799327427008299
11796584 16 17775289408344541927
12236239 1 18130792247763157425
125118 31 10951778477902926859
12516196 113 18272649038981954760
12730499 353 17312823779408911931
13533116 47 18341612603231090114
13668630 136 17988931076015224735
13685833 64 18408042896842404331
13836976 161 18409736179256676022
14170010 4 18334012813415040160
14251752 14 18343581811904211521
14251764 18 18202848747312217209
14251764 46 18113618989546344346
15183329 4 18410571782650866867
15348495 7 13901613182672285855
17492 89 18050567344654166666
17857418 61 18272369780719986947
19784866 240 18343587313192653051
200 152 18411700950869806648
20028762 73 18272369733280980214
20157964 124 18041001761016708972
20567600 247 18342170085902536115
20612939 158 18186809092718276940
20645477 70 18334576807013768482
21267235 1 18341054017576429494
21285901 2 17603585180268301894
220451 1 18343024415406573623
221357 26 18113334202374973397
22224240 67 12247673864066340428
22956985 138 17127912153473656270
23035841 295 18272653463747666187
23522609 53 18126596533442173865
23536379 177 18410012122452698193
23559900 14 18187645868659678241
29717793 49 18409733949683287525
3004659 81 18407757032119109858
335352 9 18261399949626848822
3411729 13 16199289062427519416
3472631 163 12757449253741886218
34797466 226 16805611390931511551
351380 3 18131910455610374223
4073 2 17968101987973822915
4325135 7 18335140895244176238
46194498 28 17603305972797018420
465052 167 18272937141457083103
59682541 35 18272358798989732890
59755656 215 17167578271889210427

>  <PUBCHEM_SHAPE_MULTIPOLES>  (1) 
394.87
18.64
1.69
0.91
30.14
0.25
-0.03
6.68
-1.99
-2.1
-0.12
0.27
-0.03
-1.07

>  <PUBCHEM_SHAPE_SELFOVERLAP>  (1) 
811.25

>  <PUBCHEM_SHAPE_VOLUME>  (1) 
226.4

>  <PUBCHEM_COORDINATE_TYPE>  (1) 
2
5
10

$$$$
