38496
     RDKit          3D

 29 31  0  0  0  0  0  0  0  0999 V2000
    8.3454   -1.5553    0.9842 F   0  0  0  0  0  0  0  0  0  0  0  0
    7.3984   -2.9715   -0.3580 F   0  0  0  0  0  0  0  0  0  0  0  0
    8.3174   -1.1694   -1.1556 F   0  0  0  0  0  0  0  0  0  0  0  0
   -7.8636   -3.8343   -0.6285 F   0  0  0  0  0  0  0  0  0  0  0  0
   -4.5744    0.9391    1.7708 O   0  0  0  0  0  0  0  0  0  0  0  0
   -1.3379    2.9190   -0.3521 N   0  0  0  0  0  0  0  0  0  0  0  0
    2.5378    1.2232    0.3950 C   0  0  0  0  0  0  0  0  0  0  0  0
   -0.0988    2.1742   -0.5690 C   0  0  0  0  0  0  0  0  0  0  0  0
    1.3281    0.2770    0.3029 C   0  0  0  0  0  0  0  0  0  0  0  0
    2.4218    2.3671   -0.6272 C   0  0  0  0  0  0  0  0  0  0  0  0
    0.0101    1.0380    0.4531 C   0  0  0  0  0  0  0  0  0  0  0  0
    1.1010    3.1222   -0.4731 C   0  0  0  0  0  0  0  0  0  0  0  0
    3.8515    0.4751    0.2586 C   0  0  0  0  0  0  0  0  0  0  0  0
   -2.4937    2.0467   -0.4884 C   0  0  0  0  0  0  0  0  0  0  0  0
    4.7594    0.4697    1.3148 C   0  0  0  0  0  0  0  0  0  0  0  0
    4.1436   -0.2038   -0.9222 C   0  0  0  0  0  0  0  0  0  0  0  0
   -3.7823    2.8331   -0.2399 C   0  0  0  0  0  0  0  0  0  0  0  0
    5.9664   -0.2183    1.1896 C   0  0  0  0  0  0  0  0  0  0  0  0
    5.3504   -0.8919   -1.0473 C   0  0  0  0  0  0  0  0  0  0  0  0
   -5.0316    1.9571   -0.3690 C   0  0  0  0  0  0  0  0  0  0  0  0
    6.2619   -0.8991    0.0086 C   0  0  0  0  0  0  0  0  0  0  0  0
   -5.0953    0.8395    0.6625 C   0  0  0  0  0  0  0  0  0  0  0  0
    7.5523   -1.6344   -0.1253 C   0  0  0  0  0  0  0  0  0  0  0  0
   -5.8351   -0.4082    0.3185 C   0  0  0  0  0  0  0  0  0  0  0  0
   -6.9031   -0.3261   -0.5467 C   0  0  0  0  0  0  0  0  0  0  0  0
   -5.4222   -1.5970    0.8777 C   0  0  0  0  0  0  0  0  0  0  0  0
   -7.5944   -1.4939   -0.8696 C   0  0  0  0  0  0  0  0  0  0  0  0
   -6.1134   -2.7647    0.5547 C   0  0  0  0  0  0  0  0  0  0  0  0
   -7.1996   -2.7131   -0.3190 C   0  0  0  0  0  0  0  0  0  0  0  0
  1 23  1  0
  2 23  1  0
  3 23  1  0
  4 29  1  0
  5 22  2  0
  6  8  1  0
  6 14  1  0
  7  9  1  0
  7 10  1  0
  7 13  1  0
  8 11  1  0
  8 12  1  0
  9 11  1  0
 10 12  1  0
 13 15  2  0
 13 16  1  0
 14 17  1  0
 15 18  1  0
 16 19  2  0
 17 20  1  0
 18 21  2  0
 19 21  1  0
 20 22  1  0
 21 23  1  0
 22 24  1  0
 24 25  2  0
 24 26  1  0
 25 27  1  0
 26 28  2  0
 27 29  2  0
 28 29  1  0
M  END
>  <PUBCHEM_COMPOUND_CID>  (1) 
38496

>  <PUBCHEM_CONFORMER_RMSD>  (1) 
1

>  <PUBCHEM_CONFORMER_DIVERSEORDER>  (1) 
1
108
67
76
111
44
24
48
53
2
85
95
116
91
124
106
12
27
10
105
94
107
74
98
9
14
117
88
59
83
127
26
46
8
15
109
5
73
7
66
35
112
63
49
37
22
30
92
125
39
29
103
40
121
119
68
13
97
90
50
71
3
87
45
101
28
4
25
110
77
123
128
32
115
70
58
100
126
43
6
61
102
86
80
96
55
41
17
11
104
62
113
81
38
93
82
20
79
56
78
64
114
23
65
51
99
118
89
47
31
54
19
120
72
42
18
75
36
34
33
84
122
52
60
16
21
57
69

>  <PUBCHEM_MMFF94_PARTIAL_CHARGES>  (1) 
33
1 -0.34
13 -0.14
14 0.27
15 -0.15
16 -0.15
18 -0.15
19 -0.15
2 -0.34
20 0.06
21 -0.14
22 0.42
23 1.16
24 0.09
25 -0.15
26 -0.15
27 -0.15
28 -0.15
29 0.19
3 -0.34
4 -0.19
40 0.36
43 0.15
44 0.15
47 0.15
48 0.15
5 -0.57
51 0.15
52 0.15
53 0.15
54 0.15
6 -0.9
7 0.14
8 0.27

>  <PUBCHEM_EFFECTIVE_ROTOR_COUNT>  (1) 
9.2

>  <PUBCHEM_PHARMACOPHORE_FEATURES>  (1) 
6
1 5 acceptor
1 6 cation
1 6 donor
6 13 15 16 18 19 21 rings
6 24 25 26 27 28 29 rings
6 7 8 9 10 11 12 rings

>  <PUBCHEM_HEAVY_ATOM_COUNT>  (1) 
29

>  <PUBCHEM_ATOM_DEF_STEREO_COUNT>  (1) 
0

>  <PUBCHEM_ATOM_UDEF_STEREO_COUNT>  (1) 
0

>  <PUBCHEM_BOND_DEF_STEREO_COUNT>  (1) 
0

>  <PUBCHEM_BOND_UDEF_STEREO_COUNT>  (1) 
0

>  <PUBCHEM_ISOTOPIC_ATOM_COUNT>  (1) 
0

>  <PUBCHEM_COMPONENT_COUNT>  (1) 
1

>  <PUBCHEM_CACTVS_TAUTO_COUNT>  (1) 
2

>  <PUBCHEM_CONFORMER_ID>  (1) 
0000966000000001

>  <PUBCHEM_MMFF94_ENERGY>  (1) 
52.1328

>  <PUBCHEM_FEATURE_SELFOVERLAP>  (1) 
30.446

>  <PUBCHEM_SHAPE_FINGERPRINT>  (1) 
10 15 11743841370106204653
10369192 42 8214147370126744345
10669705 251 18272938219294012342
10740516 88 17773047363077371942
11181472 205 11095880481035189162
11273773 46 18260829350516359123
11393246 34 18410856555998995469
11463208 1 18127981806397850014
117089 54 18408610283529080635
11761917 87 16127827253726459398
11963148 33 18261668156674797770
12120059 9 18192406642269934424
12124843 1 17750227175315115719
12498461 61 18413106140094859489
125118 31 10015566321642669698
12522641 126 18042132106146859556
12539765 74 8286197280293989800
12645989 146 18408608093242933001
12838863 1 18201150075305580639
12895837 130 7853570202408326265
12988421 55 13039189174311562637
13690498 29 17749106665434220909
13782708 43 18342739619608065521
14178184 131 18202277030956726607
14344974 204 18342458166497029871
14671636 106 18411702101978921276
14931854 50 17458057166916110459
15183329 4 18040716965323611571
15352257 5 18340770351528217738
15510800 12 18342739606844255815
16126227 98 9583523131676041357
16989713 51 18260544485676224805
16992779 147 16198442459943895472
16994733 274 11169917212270483284
18603816 31 17632283606954372559
18608769 82 18337954489691408244
19301676 85 18046905155243723747
19841028 212 18263360455799157307
20028762 73 18411701006245627339
2026 5 18413386558267866631
208703 8 18337385050200762191
20982279 24 16772403816844723286
21130935 74 18343582915541969496
21585482 111 10087653589013949635
21623969 137 17561367257538921740
21781051 124 18060147522847641254
22002106 203 18270670000184389775
23389318 12 18186808006708606508
23522609 53 18047789011277128836
23559900 14 18119521288530110353
23569914 152 11749420227148859640
25025965 108 18131053953929344343
3504750 166 18411703154457711089
3627633 1 18337389327393357005
397830 11 18272358802636470640
406291 66 18339360877017774847
437795 150 17603874425073388507
44802255 64 13045950101338333201
4516262 110 10303544866798031673
474113 269 18270108137474379775
504579 68 16950283992178367909
5718773 13 18410011043798533413
5758199 1 10231757790330665065
57676310 51 18188487965312445771
5874358 3 17314203636827345202
5937810 71 11891332015771560679
6009941 240 17845656924425875201
636775 8 18341621365729115822
6712543 237 16701753734976164815
9896288 288 17987239928596013737
999808 66 18272086076264866501

>  <PUBCHEM_SHAPE_MULTIPOLES>  (1) 
556.86
27.98
3.88
1.11
6.82
0.4
-0.18
30.81
1.71
-4.79
0.79
0.4
0.1
-0.06

>  <PUBCHEM_SHAPE_SELFOVERLAP>  (1) 
1179.911

>  <PUBCHEM_SHAPE_VOLUME>  (1) 
311.4

>  <PUBCHEM_COORDINATE_TYPE>  (1) 
2
5
10

$$$$
