38492
     RDKit          3D

 23 26  0  0  1  0  0  0  0  0999 V2000
   -1.3029   -2.1088   -1.5918 O   0  0  0  0  0  0  0  0  0  0  0  0
   -3.2151   -2.5716    0.3771 O   0  0  0  0  0  0  0  0  0  0  0  0
    1.9661   -3.2184    0.9969 O   0  0  0  0  0  0  0  0  0  0  0  0
    0.0814   -0.8618   -0.1232 C   0  0  0  0  0  0  0  0  0  0  0  0
   -0.9652   -1.9440   -0.2142 C   0  0  0  0  0  0  0  0  0  0  0  0
   -0.3168    0.4897   -0.0364 C   0  0  0  0  0  0  0  0  0  0  0  0
   -2.2126   -1.5855    0.6079 C   0  0  0  0  0  0  0  0  0  0  0  0
   -1.7645    0.8233   -0.0192 C   0  0  0  0  0  0  0  0  0  0  0  0
   -2.7109   -0.1880    0.2861 C   0  0  0  0  0  0  0  0  0  0  0  0
    1.4413   -1.2092   -0.1623 C   0  0  0  0  0  0  0  0  0  0  0  0
    0.6962    1.4634    0.0468 C   0  0  0  0  0  0  0  0  0  0  0  0
    2.4394   -0.2292   -0.0902 C   0  0  0  0  0  0  0  0  0  0  0  0
    2.0629    1.1255    0.0201 C   0  0  0  0  0  0  0  0  0  0  0  0
    1.8269   -2.6552   -0.2975 C   0  0  0  0  0  0  0  0  0  0  0  0
   -2.2512    2.1119   -0.3080 C   0  0  0  0  0  0  0  0  0  0  0  0
   -4.0802    0.1208    0.3494 C   0  0  0  0  0  0  0  0  0  0  0  0
    0.3895    2.9056    0.3487 C   0  0  0  0  0  0  0  0  0  0  0  0
    3.8029   -0.5669   -0.1219 C   0  0  0  0  0  0  0  0  0  0  0  0
    3.0635    2.1088    0.1001 C   0  0  0  0  0  0  0  0  0  0  0  0
   -3.6175    2.4004   -0.2646 C   0  0  0  0  0  0  0  0  0  0  0  0
   -4.5300    1.4083    0.0707 C   0  0  0  0  0  0  0  0  0  0  0  0
    4.7830    0.4222   -0.0432 C   0  0  0  0  0  0  0  0  0  0  0  0
    4.4137    1.7588    0.0687 C   0  0  0  0  0  0  0  0  0  0  0  0
  1  5  1  0
  2  7  1  0
  3 14  1  0
  4  5  1  0
  4  6  2  0
  4 10  1  0
  5  7  1  0
  6  8  1  0
  6 11  1  0
  7  9  1  0
  8  9  2  0
  8 15  1  0
  9 16  1  0
 10 12  2  0
 10 14  1  0
 11 13  2  0
 11 17  1  0
 12 13  1  0
 12 18  1  0
 13 19  1  0
 15 20  2  0
 16 21  2  0
 18 22  2  0
 19 23  2  0
 20 21  1  0
 22 23  1  0
M  END
>  <PUBCHEM_COMPOUND_CID>  (1) 
38492

>  <PUBCHEM_CONFORMER_RMSD>  (1) 
0.6

>  <PUBCHEM_CONFORMER_DIVERSEORDER>  (1) 
1
2

>  <PUBCHEM_MMFF94_PARTIAL_CHARGES>  (1) 
30
1 -0.68
10 -0.14
11 -0.14
14 0.42
15 -0.15
16 -0.15
17 0.14
18 -0.15
19 -0.15
2 -0.68
20 -0.15
21 -0.15
22 -0.15
23 -0.15
28 0.15
29 0.15
3 -0.68
33 0.15
34 0.15
35 0.4
36 0.4
37 0.15
38 0.15
39 0.15
4 -0.14
40 0.15
41 0.4
5 0.42
7 0.42
9 -0.14

>  <PUBCHEM_EFFECTIVE_ROTOR_COUNT>  (1) 
1.4

>  <PUBCHEM_PHARMACOPHORE_FEATURES>  (1) 
10
1 1 acceptor
1 1 donor
1 2 acceptor
1 2 donor
1 3 acceptor
1 3 donor
6 12 13 18 19 22 23 rings
6 4 5 6 7 8 9 rings
6 4 6 10 11 12 13 rings
6 8 9 15 16 20 21 rings

>  <PUBCHEM_HEAVY_ATOM_COUNT>  (1) 
23

>  <PUBCHEM_ATOM_DEF_STEREO_COUNT>  (1) 
0

>  <PUBCHEM_ATOM_UDEF_STEREO_COUNT>  (1) 
2

>  <PUBCHEM_BOND_DEF_STEREO_COUNT>  (1) 
0

>  <PUBCHEM_BOND_UDEF_STEREO_COUNT>  (1) 
0

>  <PUBCHEM_ISOTOPIC_ATOM_COUNT>  (1) 
0

>  <PUBCHEM_COMPONENT_COUNT>  (1) 
1

>  <PUBCHEM_CACTVS_TAUTO_COUNT>  (1) 
1

>  <PUBCHEM_CONFORMER_ID>  (1) 
0000965C00000001

>  <PUBCHEM_MMFF94_ENERGY>  (1) 
101.7068

>  <PUBCHEM_FEATURE_SELFOVERLAP>  (1) 
50.823

>  <PUBCHEM_SHAPE_FINGERPRINT>  (1) 
10411042 1 17113820146842935958
10608611 8 18410575084716092777
10616163 171 18410013272881317787
10759866 29 18187373099518151852
10863032 1 18409449150422871731
10948715 1 18410293592511780327
10967382 1 18339080384828614336
1100329 8 17187285665066381792
11112241 14 16556755711397440064
11370993 70 18410571773254070601
11578080 2 16662319590587891014
11680986 33 18338807701665808862
12011746 2 18410572877488050869
12035759 4 18056454340029965503
12390115 104 18197796581408750664
12403259 226 18125439971356752561
12592029 89 18409169883312598256
13132413 78 18340488962450768780
13140716 1 18410846681821897928
13583140 156 16950273005958376193
138480 1 17762056532290521474
14178342 30 18267567169442559840
14223421 5 18409736144490885307
14466204 15 18410848889429982424
14790565 3 18192158307335557660
15196674 1 18411139181784354840
15475509 35 16589724339779968947
16945 1 18408889550865766091
19591789 44 18339363075497204684
19784866 9 18410011009850394944
20510252 161 18270122464519875744
20739085 24 17833298340372408577
20905425 154 18267590108767851156
21267235 1 18410866463860786914
21421861 104 17897160217907269290
22182313 1 18200051589050933183
23227448 37 18412825815145958887
2334 1 18267865171801649700
23366157 5 18041001683464931834
23559900 14 18341332176706401806
238 59 17396380989895910517
2748010 2 18340778035145244871
335352 9 18339080368133821420
34934 24 18410571764695687138
350125 39 18195251246028128897
4214541 1 18410013251433277352
4340502 62 17167870729513976593
5104073 3 18410574024149205024
59755656 215 18337112271978918820
69090 78 18413105065451163029
7364860 26 18340207363199678622
9709674 26 18411986827697482791

>  <PUBCHEM_SHAPE_MULTIPOLES>  (1) 
455.72
8.08
3.48
0.77
0.75
1
0.08
-3.04
-0.36
-0.13
-0.15
-0.12
0.28
0.17

>  <PUBCHEM_SHAPE_SELFOVERLAP>  (1) 
1028.001

>  <PUBCHEM_SHAPE_VOLUME>  (1) 
239.5

>  <PUBCHEM_COORDINATE_TYPE>  (1) 
2
5
10

$$$$
