38502
     RDKit          3D

 16 18  0  0  0  0  0  0  0  0999 V2000
   -0.1553    1.0941    0.0000 N   0  0  0  0  0  0  0  0  0  0  0  0
   -2.5375    2.5274    0.0005 N   0  0  0  0  0  0  0  0  0  0  0  0
    4.6472    1.2107   -0.0004 N   0  0  0  0  0  0  0  0  0  0  0  0
   -1.3629   -0.9868   -0.0001 C   0  0  0  0  0  0  0  0  0  0  0  0
    1.0664   -0.9786    0.0000 C   0  0  0  0  0  0  0  0  0  0  0  0
   -1.3201    0.4176   -0.0001 C   0  0  0  0  0  0  0  0  0  0  0  0
    1.0141    0.4255    0.0000 C   0  0  0  0  0  0  0  0  0  0  0  0
   -0.1459   -1.6759    0.0000 C   0  0  0  0  0  0  0  0  0  0  0  0
   -2.5285    1.1094   -0.0002 C   0  0  0  0  0  0  0  0  0  0  0  0
    2.3040   -1.6454    0.0002 C   0  0  0  0  0  0  0  0  0  0  0  0
    2.2178    1.1254    0.0000 C   0  0  0  0  0  0  0  0  0  0  0  0
   -2.5960   -1.6620    0.0000 C   0  0  0  0  0  0  0  0  0  0  0  0
    3.4494    0.4661    0.0002 C   0  0  0  0  0  0  0  0  0  0  0  0
    3.4930   -0.9222    0.0002 C   0  0  0  0  0  0  0  0  0  0  0  0
   -3.7557    0.4417   -0.0002 C   0  0  0  0  0  0  0  0  0  0  0  0
   -3.7899   -0.9469   -0.0001 C   0  0  0  0  0  0  0  0  0  0  0  0
  1  6  2  0
  1  7  1  0
  2  9  1  0
  3 13  1  0
  4  6  1  0
  4  8  2  0
  4 12  1  0
  5  7  2  0
  5  8  1  0
  5 10  1  0
  6  9  1  0
  7 11  1  0
  9 15  2  0
 10 14  2  0
 11 13  2  0
 12 16  2  0
 13 14  1  0
 15 16  1  0
M  END
>  <PUBCHEM_COMPOUND_CID>  (1) 
38502

>  <PUBCHEM_CONFORMER_RMSD>  (1) 
0.4

>  <PUBCHEM_CONFORMER_DIVERSEORDER>  (1) 
1

>  <PUBCHEM_MMFF94_PARTIAL_CHARGES>  (1) 
25
1 -0.62
10 -0.15
11 -0.15
12 -0.15
13 0.1
14 -0.15
15 -0.15
16 -0.15
17 0.15
18 0.15
19 0.15
2 -0.9
20 0.15
21 0.15
22 0.15
23 0.15
24 0.4
25 0.4
26 0.4
27 0.4
3 -0.9
6 0.31
7 0.31
8 -0.15
9 0.1

>  <PUBCHEM_EFFECTIVE_ROTOR_COUNT>  (1) 
0

>  <PUBCHEM_PHARMACOPHORE_FEATURES>  (1) 
8
1 1 acceptor
1 2 cation
1 2 donor
1 3 cation
1 3 donor
6 1 4 5 6 7 8 rings
6 4 6 9 12 15 16 rings
6 5 7 10 11 13 14 rings

>  <PUBCHEM_HEAVY_ATOM_COUNT>  (1) 
16

>  <PUBCHEM_ATOM_DEF_STEREO_COUNT>  (1) 
0

>  <PUBCHEM_ATOM_UDEF_STEREO_COUNT>  (1) 
0

>  <PUBCHEM_BOND_DEF_STEREO_COUNT>  (1) 
0

>  <PUBCHEM_BOND_UDEF_STEREO_COUNT>  (1) 
0

>  <PUBCHEM_ISOTOPIC_ATOM_COUNT>  (1) 
0

>  <PUBCHEM_COMPONENT_COUNT>  (1) 
1

>  <PUBCHEM_CACTVS_TAUTO_COUNT>  (1) 
3

>  <PUBCHEM_CONFORMER_ID>  (1) 
0000966600000001

>  <PUBCHEM_MMFF94_ENERGY>  (1) 
70.9544

>  <PUBCHEM_FEATURE_SELFOVERLAP>  (1) 
40.656

>  <PUBCHEM_SHAPE_FINGERPRINT>  (1) 
10411042 1 16825308326021975178
10608611 8 18411697664644818648
10616163 171 18339927116077413942
10967382 1 18410575058898601862
11132069 177 18410289220229791835
11471102 20 18411133641113084286
12173636 292 18411134697717146477
13140716 1 18192997019404538139
13221675 6 18411136960885472607
13380535 76 18409449202068429034
14144814 61 18410293592527656690
14325111 11 18410855434411157504
15196674 1 18410573972266640199
15219456 202 18413392016410962366
15442244 35 18193837046473060890
15536298 74 18341895173656621510
15775835 57 18412830191606902362
16945 1 18338517567987524199
17802600 8 18412820304613312017
18186145 218 18200602393021177932
18522853 276 18410854382128332809
200 152 18131061663152033575
20510252 161 18343304751626217969
20645477 70 18341892952689460158
21267235 1 18410583867966657970
21501502 16 18410008793241101026
221490 88 18410583859730235722
2334 1 18410855447269698635
23366157 5 18041284249542872090
23402539 116 18339915021734020415
23402655 69 18342451522086949637
23463225 33 18408040697634532374
23559900 14 18127125278428543014
2748010 2 18411139095547444463
3312278 4 18412547630066750003
335352 9 17978509732760584534
4028521 119 18334005073999660357
4214541 1 18410856525580958916
474 4 17169277138204279756
4990 188 18131082511033941462
5104073 3 18410012113271816826
53812653 166 18343016722603208040
57096353 35 18338516442674386254
58051976 378 18411981386031837236
69090 78 18343578542996262527
77779 3 18411139125770412438
8809292 202 18261116304784623715
9709674 26 18411425015900144174

>  <PUBCHEM_SHAPE_MULTIPOLES>  (1) 
314.33
7.34
2.04
0.6
2.36
0.28
0
1.14
0
-0.6
0
-0.01
-0.03
0

>  <PUBCHEM_SHAPE_SELFOVERLAP>  (1) 
712.469

>  <PUBCHEM_SHAPE_VOLUME>  (1) 
163.7

>  <PUBCHEM_COORDINATE_TYPE>  (1) 
2
5
10

$$$$
