38513
     RDKit          3D

 23 26  0  0  1  0  0  0  0  0999 V2000
    3.9952   -1.0695   -1.1485 O   0  0  0  0  0  0  0  0  0  0  0  0
   -6.0019    0.8846   -0.7306 O   0  0  0  0  0  0  0  0  0  0  0  0
    2.2263   -0.2480    0.3562 C   0  0  0  0  0  0  0  0  0  0  0  0
    1.2050   -1.1950   -0.3414 C   0  0  0  0  0  0  0  0  0  0  0  0
   -0.1380   -1.2859    0.4146 C   0  0  0  0  0  0  0  0  0  0  0  0
    3.1956    0.0714   -0.8217 C   0  0  0  0  0  0  0  0  0  0  0  0
    1.0918   -0.6711   -1.7923 C   0  0  0  0  0  0  0  0  0  0  0  0
    2.2502    0.3083   -2.0018 C   0  0  0  0  0  0  0  0  0  0  0  0
    2.9224   -0.9537    1.5332 C   0  0  0  0  0  0  0  0  0  0  0  0
   -0.7688    0.0877    0.6424 C   0  0  0  0  0  0  0  0  0  0  0  0
    1.5192    0.9826    0.9083 C   0  0  0  0  0  0  0  0  0  0  0  0
   -1.0914   -2.2863   -0.2600 C   0  0  0  0  0  0  0  0  0  0  0  0
    0.1886    1.1218    1.0139 C   0  0  0  0  0  0  0  0  0  0  0  0
   -2.1049    0.2948    0.5384 C   0  0  0  0  0  0  0  0  0  0  0  0
   -2.4714   -2.2092    0.3796 C   0  0  0  0  0  0  0  0  0  0  0  0
   -3.0224   -0.8134    0.2331 C   0  0  0  0  0  0  0  0  0  0  0  0
    4.0804    1.2236   -0.5999 C   0  0  0  0  0  0  0  0  0  0  0  0
    3.9079   -0.0295    2.2124 C   0  0  0  0  0  0  0  0  0  0  0  0
   -2.7987    1.6261    0.7500 C   0  0  0  0  0  0  0  0  0  0  0  0
   -4.2917   -0.6288   -0.1661 C   0  0  0  0  0  0  0  0  0  0  0  0
   -3.8687    1.8919   -0.3018 C   0  0  0  0  0  0  0  0  0  0  0  0
   -4.8282    0.7331   -0.3999 C   0  0  0  0  0  0  0  0  0  0  0  0
    4.8033    2.1646   -0.4183 C   0  0  0  0  0  0  0  0  0  0  0  0
  1  6  1  0
  2 22  2  0
  3  4  1  0
  3  6  1  0
  3  9  1  0
  3 11  1  0
  4  5  1  0
  4  7  1  0
  5 10  1  0
  5 12  1  0
  6  8  1  0
  6 17  1  0
  7  8  1  0
  9 18  1  0
 10 13  1  0
 10 14  2  0
 11 13  2  0
 12 15  1  0
 14 16  1  0
 14 19  1  0
 15 16  1  0
 16 20  2  0
 17 23  3  0
 19 21  1  0
 20 22  1  0
 21 22  1  0
M  END
>  <PUBCHEM_COMPOUND_CID>  (1) 
38513

>  <PUBCHEM_CONFORMER_RMSD>  (1) 
0.6

>  <PUBCHEM_CONFORMER_DIVERSEORDER>  (1) 
1
4
2
11
7
6
10
15
3
12
13
14
9
5
8

>  <PUBCHEM_MMFF94_PARTIAL_CHARGES>  (1) 
22
1 -0.68
10 -0.14
11 -0.29
13 -0.15
14 -0.14
15 0.14
16 -0.14
17 -0.2
19 0.14
2 -0.57
20 -0.14
21 0.06
22 0.49
23 -0.18
3 0.14
32 0.15
35 0.15
41 0.4
44 0.15
47 0.18
5 0.14
6 0.48

>  <PUBCHEM_EFFECTIVE_ROTOR_COUNT>  (1) 
2.4

>  <PUBCHEM_PHARMACOPHORE_FEATURES>  (1) 
9
1 1 acceptor
1 1 donor
1 18 hydrophobe
1 2 acceptor
1 23 hydrophobe
5 3 4 6 7 8 rings
6 14 16 19 20 21 22 rings
6 3 4 5 10 11 13 rings
6 5 10 12 14 15 16 rings

>  <PUBCHEM_HEAVY_ATOM_COUNT>  (1) 
23

>  <PUBCHEM_ATOM_DEF_STEREO_COUNT>  (1) 
1

>  <PUBCHEM_ATOM_UDEF_STEREO_COUNT>  (1) 
3

>  <PUBCHEM_BOND_DEF_STEREO_COUNT>  (1) 
0

>  <PUBCHEM_BOND_UDEF_STEREO_COUNT>  (1) 
0

>  <PUBCHEM_ISOTOPIC_ATOM_COUNT>  (1) 
0

>  <PUBCHEM_COMPONENT_COUNT>  (1) 
1

>  <PUBCHEM_CACTVS_TAUTO_COUNT>  (1) 
5

>  <PUBCHEM_CONFORMER_ID>  (1) 
0000967100000001

>  <PUBCHEM_MMFF94_ENERGY>  (1) 
59.2237

>  <PUBCHEM_FEATURE_SELFOVERLAP>  (1) 
45.956

>  <PUBCHEM_SHAPE_FINGERPRINT>  (1) 
10366900 7 16773806908569325146
10498660 4 18411426123959190117
10646746 165 18411702071196653950
10759866 29 18334012804650792178
10863032 1 18340780311936906094
11089746 13 18186800283977385532
11370993 70 18410018727553354055
11552529 35 15937561271501625441
11578080 2 17534026874702385676
11640471 11 17895206527125223062
11961588 58 18341893047500221028
12236239 1 17894346700690404506
12670546 177 18060421330611759549
12670546 56 17676200273408036244
12788726 201 18130791122883062329
12969540 114 16988559151962339100
13224815 77 17561083609250626331
13583140 156 17458636647924847601
13911987 19 17059508464144458644
13965767 371 17749389209097593772
14739800 52 18265039405612812744
14790565 3 17983030959678270617
15375358 24 17918268762153790563
15527383 91 16877935002385290458
15788980 27 18187086152399619954
16752209 62 18342460292378428739
16945 1 18273214239514141354
17349148 13 18272083842892363355
18186145 218 17917436389112907283
19862831 5 18343589512200227115
200 152 15841552951240773563
20511986 3 17896021273778786888
20645476 183 17967539016588016099
20645477 70 16200432446760867252
20715895 44 17826218598360639357
20739085 24 16877940512738913470
22149856 69 18265636320810390275
22950370 63 10807927198255106717
23227448 37 18266463285490818165
23557571 272 18129106787138687087
23559900 14 18272377434531258110
238 59 16487260950082527158
2748010 2 17984700284352838899
2838139 119 18051416472742514116
296302 2 18259985989629833767
341906 21 18411694409059478600
3472631 163 18334860553790925701
34934 24 18113336448616280748
4028521 119 18342178869147047167
4280585 95 16908928950555855174
4340502 62 16805327703830430905
465052 167 10159685933334289405
474 4 16879081934430691612
5104073 3 17603586326892805289
70251023 43 14333140658487244744
7970288 3 10303517408613743981
9709674 26 17988354979346297011

>  <PUBCHEM_SHAPE_MULTIPOLES>  (1) 
461.59
10.06
2.05
1.55
5.37
0.12
0
-4.4
-1.32
0.62
-0.03
-1.85
0.06
-0.13

>  <PUBCHEM_SHAPE_SELFOVERLAP>  (1) 
1006.9

>  <PUBCHEM_SHAPE_VOLUME>  (1) 
248.4

>  <PUBCHEM_COORDINATE_TYPE>  (1) 
2
5
10

$$$$
