3851
     RDKit          3D

 30 34  0  0  1  0  0  0  0  0999 V2000
   -4.2187   -2.6786   -1.2931 I   0  0  0  0  0  0  0  0  0  0  0  0
    1.9306   -2.1860   -0.0351 N   0  0  0  0  0  0  0  0  0  0  0  0
   -1.3574   -0.5327    0.1012 N   0  0  0  0  0  0  0  0  0  0  0  0
   -0.4428   -2.7219    0.8935 C   0  0  0  0  0  0  0  0  0  0  0  0
    1.0928   -0.9536   -0.0218 C   0  0  0  0  0  0  0  0  0  0  0  0
   -0.2301   -1.1971    0.7551 C   0  0  0  0  0  0  0  0  0  0  0  0
    0.6553   -3.2311    1.8446 C   0  0  0  0  0  0  0  0  0  0  0  0
   -0.2105   -3.4013   -0.4689 C   0  0  0  0  0  0  0  0  0  0  0  0
    2.0265   -2.7698    1.3230 C   0  0  0  0  0  0  0  0  0  0  0  0
    1.2493   -3.1773   -0.9060 C   0  0  0  0  0  0  0  0  0  0  0  0
    1.8604    0.2551    0.5220 C   0  0  0  0  0  0  0  0  0  0  0  0
    1.0799    1.5633    0.4635 C   0  0  0  0  0  0  0  0  0  0  0  0
    3.2452    0.3976   -0.0982 C   0  0  0  0  0  0  0  0  0  0  0  0
   -2.5802   -0.7222    0.8654 C   0  0  0  0  0  0  0  0  0  0  0  0
    1.1830    2.3487   -0.6649 C   0  0  0  0  0  0  0  0  0  0  0  0
    4.2532    0.9691    0.6494 C   0  0  0  0  0  0  0  0  0  0  0  0
    0.2967    1.9186    1.5410 C   0  0  0  0  0  0  0  0  0  0  0  0
    3.4457   -0.0493   -1.3871 C   0  0  0  0  0  0  0  0  0  0  0  0
   -3.7583   -0.0464    0.2154 C   0  0  0  0  0  0  0  0  0  0  0  0
    0.4692    3.5460   -0.7184 C   0  0  0  0  0  0  0  0  0  0  0  0
    5.5205    1.0999    0.0816 C   0  0  0  0  0  0  0  0  0  0  0  0
   -0.4172    3.1158    1.4876 C   0  0  0  0  0  0  0  0  0  0  0  0
    4.7131    0.0813   -1.9550 C   0  0  0  0  0  0  0  0  0  0  0  0
   -4.5624   -0.6987   -0.7109 C   0  0  0  0  0  0  0  0  0  0  0  0
   -4.0171    1.2701    0.5788 C   0  0  0  0  0  0  0  0  0  0  0  0
   -0.3309    3.9294    0.3578 C   0  0  0  0  0  0  0  0  0  0  0  0
    5.7504    0.6560   -1.2205 C   0  0  0  0  0  0  0  0  0  0  0  0
   -5.6415   -0.0250   -1.2829 C   0  0  0  0  0  0  0  0  0  0  0  0
   -5.0962    1.9438    0.0068 C   0  0  0  0  0  0  0  0  0  0  0  0
   -5.9084    1.2963   -0.9241 C   0  0  0  0  0  0  0  0  0  0  0  0
  1 24  1  0
  2  5  1  0
  2  9  1  0
  2 10  1  0
  3  6  1  0
  3 14  1  0
  4  6  1  0
  4  7  1  0
  4  8  1  0
  5  6  1  0
  5 11  1  0
  7  9  1  0
  8 10  1  0
 11 12  1  0
 11 13  1  0
 12 15  2  0
 12 17  1  0
 13 16  2  0
 13 18  1  0
 14 19  1  0
 15 20  1  0
 16 21  1  0
 17 22  2  0
 18 23  2  0
 19 24  2  0
 19 25  1  0
 20 26  2  0
 21 27  2  0
 22 26  1  0
 23 27  1  0
 24 28  1  0
 25 29  2  0
 28 30  2  0
 29 30  1  0
M  END
>  <PUBCHEM_COMPOUND_CID>  (1) 
3851

>  <PUBCHEM_CONFORMER_RMSD>  (1) 
0.8

>  <PUBCHEM_CONFORMER_DIVERSEORDER>  (1) 
1
7
3
8
9
5
4
2
6
10

>  <PUBCHEM_MMFF94_PARTIAL_CHARGES>  (1) 
42
1 -0.08
10 0.27
11 0.29
12 -0.14
13 -0.14
14 0.41
15 -0.15
16 -0.15
17 -0.15
18 -0.15
19 -0.14
2 -0.81
20 -0.15
21 -0.15
22 -0.15
23 -0.15
24 0.08
25 -0.15
26 -0.15
27 -0.15
28 -0.15
29 -0.15
3 -0.9
30 -0.15
43 0.36
46 0.15
47 0.15
48 0.15
49 0.15
5 0.27
50 0.15
51 0.15
52 0.15
53 0.15
54 0.15
55 0.15
56 0.15
57 0.15
58 0.15
59 0.15
6 0.27
9 0.27

>  <PUBCHEM_EFFECTIVE_ROTOR_COUNT>  (1) 
7.2

>  <PUBCHEM_PHARMACOPHORE_FEATURES>  (1) 
8
1 1 hydrophobe
1 2 cation
1 3 cation
1 3 donor
6 12 15 17 20 22 26 rings
6 13 16 18 21 23 27 rings
6 19 24 25 28 29 30 rings
8 2 4 5 6 7 8 9 10 rings

>  <PUBCHEM_HEAVY_ATOM_COUNT>  (1) 
30

>  <PUBCHEM_ATOM_DEF_STEREO_COUNT>  (1) 
0

>  <PUBCHEM_ATOM_UDEF_STEREO_COUNT>  (1) 
2

>  <PUBCHEM_BOND_DEF_STEREO_COUNT>  (1) 
0

>  <PUBCHEM_BOND_UDEF_STEREO_COUNT>  (1) 
0

>  <PUBCHEM_ISOTOPIC_ATOM_COUNT>  (1) 
0

>  <PUBCHEM_COMPONENT_COUNT>  (1) 
1

>  <PUBCHEM_CACTVS_TAUTO_COUNT>  (1) 
1

>  <PUBCHEM_CONFORMER_ID>  (1) 
00000F0B00000001

>  <PUBCHEM_MMFF94_ENERGY>  (1) 
101.2559

>  <PUBCHEM_FEATURE_SELFOVERLAP>  (1) 
40.597

>  <PUBCHEM_SHAPE_FINGERPRINT>  (1) 
10675989 125 17829886543396263929
10930396 42 18123438792408966264
11513181 2 17842281367930249773
11578080 2 17532634756001116943
11646440 116 18270695254259242145
12107698 1 18056754554081058767
12788726 201 18340778078749532856
13149001 5 18122347045300617334
14466204 15 18335975475655435872
14790565 3 18335426802332464844
14931854 50 18412820262418195413
15081414 286 18337401435153109689
15210252 30 18259708886693123148
15324884 4 17769680886179759902
1601671 61 18334011696354141636
17492 54 18335143098108588472
17909252 39 17773601507814806470
18608769 82 18261962968073211963
18681886 176 17916294103953569391
19319366 153 18187926115265601875
20775438 99 16907472561684757231
22393880 68 18272362114208580023
23559900 14 18199736094534789889
238 59 18266456693169653891
3178227 256 18262811790659198883
463206 1 18412543193945866401
484989 97 18047194335016736259
508706 21 18263922323020243923
513532 50 17703493454876327618
57527452 28 15913060849246190604
59755656 215 18342737421011792063
70251023 43 17980769233709711187
7226269 152 18410016576470895240

>  <PUBCHEM_SHAPE_MULTIPOLES>  (1) 
619.36
11.37
4.77
1.56
4.78
0.05
-0.03
-2.97
-5.98
0.92
0.87
-0.56
0.41
-0.81

>  <PUBCHEM_SHAPE_SELFOVERLAP>  (1) 
1332.183

>  <PUBCHEM_SHAPE_VOLUME>  (1) 
348.3

>  <PUBCHEM_COORDINATE_TYPE>  (1) 
2
5
10

$$$$
