38517
     RDKit          3D

 27 29  0  0  0  0  0  0  0  0999 V2000
   -7.4374   -3.6148   -0.5500 F   0  0  0  0  0  0  0  0  0  0  0  0
    7.9564   -2.1010    0.0638 O   0  0  0  0  0  0  0  0  0  0  0  0
   -3.9354    1.0658    1.7278 O   0  0  0  0  0  0  0  0  0  0  0  0
   -0.5826    2.8088   -0.4221 N   0  0  0  0  0  0  0  0  0  0  0  0
    0.6194    1.9960   -0.6002 C   0  0  0  0  0  0  0  0  0  0  0  0
    3.1952    0.9472    0.4249 C   0  0  0  0  0  0  0  0  0  0  0  0
    1.8646    2.8856   -0.5219 C   0  0  0  0  0  0  0  0  0  0  0  0
    0.6610    0.8908    0.4601 C   0  0  0  0  0  0  0  0  0  0  0  0
    3.1470    2.0605   -0.6358 C   0  0  0  0  0  0  0  0  0  0  0  0
    1.9403    0.0602    0.3502 C   0  0  0  0  0  0  0  0  0  0  0  0
    4.4708    0.1301    0.3283 C   0  0  0  0  0  0  0  0  0  0  0  0
   -1.7795    1.9914   -0.5428 C   0  0  0  0  0  0  0  0  0  0  0  0
    4.7404   -0.6005   -0.8267 C   0  0  0  0  0  0  0  0  0  0  0  0
    5.3672    0.1146    1.3943 C   0  0  0  0  0  0  0  0  0  0  0  0
   -3.0291    2.8492   -0.3352 C   0  0  0  0  0  0  0  0  0  0  0  0
   -4.3197    2.0330   -0.4496 C   0  0  0  0  0  0  0  0  0  0  0  0
    5.9128   -1.3509   -0.9159 C   0  0  0  0  0  0  0  0  0  0  0  0
    6.5396   -0.6357    1.3049 C   0  0  0  0  0  0  0  0  0  0  0  0
    6.8125   -1.3684    0.1498 C   0  0  0  0  0  0  0  0  0  0  0  0
   -4.4498    0.9553    0.6174 C   0  0  0  0  0  0  0  0  0  0  0  0
   -5.2481   -0.2648    0.3064 C   0  0  0  0  0  0  0  0  0  0  0  0
    8.1735   -2.8267   -1.1453 C   0  0  0  0  0  0  0  0  0  0  0  0
   -6.3021   -0.1584   -0.5731 C   0  0  0  0  0  0  0  0  0  0  0  0
   -4.9011   -1.4533    0.9093 C   0  0  0  0  0  0  0  0  0  0  0  0
   -7.0482   -1.3003   -0.8652 C   0  0  0  0  0  0  0  0  0  0  0  0
   -5.6472   -2.5951    0.6171 C   0  0  0  0  0  0  0  0  0  0  0  0
   -6.7207   -2.5186   -0.2701 C   0  0  0  0  0  0  0  0  0  0  0  0
  1 27  1  0
  2 19  1  0
  2 22  1  0
  3 20  2  0
  4  5  1  0
  4 12  1  0
  5  7  1  0
  5  8  1  0
  6  9  1  0
  6 10  1  0
  6 11  1  0
  7  9  1  0
  8 10  1  0
 11 13  2  0
 11 14  1  0
 12 15  1  0
 13 17  1  0
 14 18  2  0
 15 16  1  0
 16 20  1  0
 17 19  2  0
 18 19  1  0
 20 21  1  0
 21 23  2  0
 21 24  1  0
 23 25  1  0
 24 26  2  0
 25 27  2  0
 26 27  1  0
M  END
>  <PUBCHEM_COMPOUND_CID>  (1) 
38517

>  <PUBCHEM_CONFORMER_RMSD>  (1) 
1

>  <PUBCHEM_CONFORMER_DIVERSEORDER>  (1) 
1
74
2
27
49
87
106
68
36
12
157
56
131
3
130
145
95
25
167
126
71
10
78
76
164
65
91
129
62
39
120
35
82
140
75
34
44
148
111
13
43
69
138
41
161
47
162
50
40
152
89
165
57
42
105
143
159
141
73
149
58
14
19
109
83
79
85
134
155
132
128
54
31
117
52
5
166
6
46
142
48
135
127
15
72
32
107
119
156
67
90
154
133
137
113
139
81
45
123
4
61
168
121
29
115
59
60
160
80
7
17
21
94
8
108
86
20
158
124
16
24
151
110
163
104
63
99
102
114
101
96
136
116
66
146
77
125
92
9
26
23
118
153
55
64
51
100
28
30
97
22
70
84
147
93
38
122
37
18
88
11
53
33
144
103
98
150
112

>  <PUBCHEM_MMFF94_PARTIAL_CHARGES>  (1) 
31
1 -0.19
11 -0.14
12 0.27
13 -0.15
14 -0.15
16 0.06
17 -0.15
18 -0.15
19 0.08
2 -0.36
20 0.42
21 0.09
22 0.28
23 -0.15
24 -0.15
25 -0.15
26 -0.15
27 0.19
3 -0.57
38 0.36
4 -0.9
41 0.15
42 0.15
47 0.15
48 0.15
5 0.27
52 0.15
53 0.15
54 0.15
55 0.15
6 0.14

>  <PUBCHEM_EFFECTIVE_ROTOR_COUNT>  (1) 
9.2

>  <PUBCHEM_PHARMACOPHORE_FEATURES>  (1) 
7
1 2 acceptor
1 3 acceptor
1 4 cation
1 4 donor
6 11 13 14 17 18 19 rings
6 21 23 24 25 26 27 rings
6 5 6 7 8 9 10 rings

>  <PUBCHEM_HEAVY_ATOM_COUNT>  (1) 
27

>  <PUBCHEM_ATOM_DEF_STEREO_COUNT>  (1) 
0

>  <PUBCHEM_ATOM_UDEF_STEREO_COUNT>  (1) 
0

>  <PUBCHEM_BOND_DEF_STEREO_COUNT>  (1) 
0

>  <PUBCHEM_BOND_UDEF_STEREO_COUNT>  (1) 
0

>  <PUBCHEM_ISOTOPIC_ATOM_COUNT>  (1) 
0

>  <PUBCHEM_COMPONENT_COUNT>  (1) 
1

>  <PUBCHEM_CACTVS_TAUTO_COUNT>  (1) 
2

>  <PUBCHEM_CONFORMER_ID>  (1) 
0000967500000001

>  <PUBCHEM_MMFF94_ENERGY>  (1) 
63.5184

>  <PUBCHEM_FEATURE_SELFOVERLAP>  (1) 
35.522

>  <PUBCHEM_SHAPE_FINGERPRINT>  (1) 
10 15 11887956566729790637
10369192 42 7997972393168562729
10669705 251 18272937111424643030
10740516 88 17773327730068668750
11273773 46 18260546767364239523
11393246 34 18411138022116687775
11463208 1 18056488253382794702
117089 54 18409737261119377654
11761917 87 16127825046245365430
11963148 33 18189611649474670242
12120059 9 18192407724828715170
12124843 1 17750227166577533591
125118 31 9871166360160890202
12522641 126 18042133201579778396
12645989 146 18408609179548100379
12988421 55 13038905495779200373
13690498 29 17676768682824716669
13782708 43 18343302573893240904
14117953 113 18335974316958498655
14178184 131 18131063852990042255
14344974 204 18343021103238599223
14556957 393 15575002710589119431
14671636 106 18411420618602108646
14765038 42 8502388758326676239
14931854 50 17604137204078311467
15183329 4 18113618980144527178
15188451 53 18272649065284722657
15352257 5 18340488863904079450
15510800 12 18413670192821083215
16126227 98 9511464442373934781
16992779 147 16342273965667084456
16994733 274 11386376971546289422
17627616 140 17750223726071437595
19301676 85 18118681265625368139
19841028 212 18262797505787934651
20028762 73 18411136943927435370
2026 5 18341046402621324935
20691028 202 10015592718126282643
208703 8 18337383946246578007
20982279 24 16700625477433373430
21130935 74 18271806788038302792
21623969 137 17561083575318084662
21756936 100 9295282838313409841
21781051 124 18060146406293534734
229767 44 17988358269186225775
23389318 12 18114466751555685676
23522609 53 18046944582194415460
23559900 14 18191015919560935985
25025965 108 18059276718007857599
270888 7 9367077657635515505
3004659 81 17822564015025300033
3504750 166 18339645547308008457
3627633 1 18337388227802568964
397830 11 18271513269847356432
406291 66 18338515343833190615
44802255 64 12901556728061890817
474113 269 18270389603755693295
5718773 13 18410572898535281261
5758199 1 10231754491837914786
5874358 3 17169245114991080850
5937810 71 12107789571112192879
6009941 240 17773598222012013321
636775 8 18269563754680403158
6712543 237 16773527646271295599
8863177 126 18410573998379712264
9689198 14 10809341122467986043
9896288 288 17915182317014193737
999808 66 18272649021770216308

>  <PUBCHEM_SHAPE_MULTIPOLES>  (1) 
531.65
25.82
3.82
1.15
6.59
0.46
-0.21
28.82
1.99
-3.36
1.04
0.63
0.16
0.67

>  <PUBCHEM_SHAPE_SELFOVERLAP>  (1) 
1118.167

>  <PUBCHEM_SHAPE_VOLUME>  (1) 
300.1

>  <PUBCHEM_COORDINATE_TYPE>  (1) 
2
5
10

$$$$
