38519
     RDKit          3D

 22 22  0  0  0  0  0  0  0  0999 V2000
   -1.0542   -0.4586   -2.1707 O   0  0  0  0  0  0  0  0  0  0  0  0
    1.6914   -0.1381   -1.8498 O   0  0  0  0  0  0  0  0  0  0  0  0
    4.8635    0.5145    0.7637 O   0  0  0  0  0  0  0  0  0  0  0  0
    4.1541    0.2361   -1.3632 O   0  0  0  0  0  0  0  0  0  0  0  0
   -2.1845   -0.4647   -0.1432 N   0  0  0  0  0  0  0  0  0  0  0  0
    0.1056   -0.2122   -0.1603 N   0  0  0  0  0  0  0  0  0  0  0  0
   -3.5101   -0.6433   -0.6927 C   0  0  0  0  0  0  0  0  0  0  0  0
   -4.3948   -1.4579    0.2569 C   0  0  0  0  0  0  0  0  0  0  0  0
   -4.1530    0.7062   -1.0304 C   0  0  0  0  0  0  0  0  0  0  0  0
   -4.7962   -0.6691    1.5034 C   0  0  0  0  0  0  0  0  0  0  0  0
   -4.5547    1.4914    0.2182 C   0  0  0  0  0  0  0  0  0  0  0  0
   -5.4435    0.6642    1.1418 C   0  0  0  0  0  0  0  0  0  0  0  0
    2.4868    0.1240    0.4436 C   0  0  0  0  0  0  0  0  0  0  0  0
   -1.0457   -0.3850   -0.9430 C   0  0  0  0  0  0  0  0  0  0  0  0
    2.5214   -1.1220    1.3867 C   0  0  0  0  0  0  0  0  0  0  0  0
    2.1223    1.4040    1.2609 C   0  0  0  0  0  0  0  0  0  0  0  0
    1.4071   -0.0984   -0.6525 C   0  0  0  0  0  0  0  0  0  0  0  0
    3.8993    0.2799   -0.1656 C   0  0  0  0  0  0  0  0  0  0  0  0
    2.8497   -2.4276    0.7124 C   0  0  0  0  0  0  0  0  0  0  0  0
    2.0498    2.6677    0.4422 C   0  0  0  0  0  0  0  0  0  0  0  0
    2.0134   -3.4702    0.6564 C   0  0  0  0  0  0  0  0  0  0  0  0
    0.9724    3.4591    0.3854 C   0  0  0  0  0  0  0  0  0  0  0  0
  1 14  2  0
  2 17  2  0
  3 18  1  0
  4 18  2  0
  5  7  1  0
  5 14  1  0
  6 14  1  0
  6 17  1  0
  7  8  1  0
  7  9  1  0
  8 10  1  0
  9 11  1  0
 10 12  1  0
 11 12  1  0
 13 15  1  0
 13 16  1  0
 13 17  1  0
 13 18  1  0
 15 19  1  0
 16 20  1  0
 19 21  2  0
 20 22  2  0
M  END
>  <PUBCHEM_COMPOUND_CID>  (1) 
38519

>  <PUBCHEM_CONFORMER_RMSD>  (1) 
1

>  <PUBCHEM_CONFORMER_DIVERSEORDER>  (1) 
1
9
15
19
79
83
70
55
87
85
86
17
3
48
81
39
47
18
42
45
72
62
27
44
53
50
75
10
5
29
59
26
33
30
68
69
71
51
13
58
77
11
14
41
84
20
49
43
78
32
66
12
80
52
67
82
6
38
37
73
2
46
57
36
34
64
35
22
65
31
61
8
4
54
40
63
56
76
24
21
28
88
74
16
25
7
23
60

>  <PUBCHEM_MMFF94_PARTIAL_CHARGES>  (1) 
26
1 -0.57
13 0.12
14 0.69
15 0.14
16 0.14
17 0.57
18 0.66
19 -0.29
2 -0.57
20 -0.29
21 -0.3
22 -0.3
3 -0.65
34 0.37
39 0.37
4 -0.57
40 0.15
41 0.15
42 0.5
43 0.15
44 0.15
45 0.15
46 0.15
5 -0.73
6 -0.49
7 0.3

>  <PUBCHEM_EFFECTIVE_ROTOR_COUNT>  (1) 
11.2

>  <PUBCHEM_PHARMACOPHORE_FEATURES>  (1) 
11
1 1 acceptor
1 2 acceptor
1 21 hydrophobe
1 22 hydrophobe
1 3 acceptor
1 4 acceptor
1 5 donor
1 6 donor
3 3 4 18 anion
5 13 15 16 19 20 hydrophobe
6 7 8 9 10 11 12 rings

>  <PUBCHEM_HEAVY_ATOM_COUNT>  (1) 
22

>  <PUBCHEM_ATOM_DEF_STEREO_COUNT>  (1) 
0

>  <PUBCHEM_ATOM_UDEF_STEREO_COUNT>  (1) 
0

>  <PUBCHEM_BOND_DEF_STEREO_COUNT>  (1) 
0

>  <PUBCHEM_BOND_UDEF_STEREO_COUNT>  (1) 
0

>  <PUBCHEM_ISOTOPIC_ATOM_COUNT>  (1) 
0

>  <PUBCHEM_COMPONENT_COUNT>  (1) 
1

>  <PUBCHEM_CACTVS_TAUTO_COUNT>  (1) 
5

>  <PUBCHEM_CONFORMER_ID>  (1) 
0000967700000001

>  <PUBCHEM_MMFF94_ENERGY>  (1) 
32.9428

>  <PUBCHEM_FEATURE_SELFOVERLAP>  (1) 
55.952

>  <PUBCHEM_SHAPE_FINGERPRINT>  (1) 
10064457 181 18262237853821088530
10366900 7 18187364380592168243
10906281 52 18127127701180585832
11370993 144 18189613852850070533
11552529 35 18269552909455788315
12507557 5 18343865537296183409
12596602 18 18130791178754345835
12633257 1 18335127726547379883
12892183 10 18335422353104308039
13533116 47 18335132073782660043
13583140 156 18336817663498547783
13675066 3 17894910694589793591
13911882 115 17676500444451759610
13965767 371 17416945306072240098
14252887 29 16660364761924211622
14289901 80 18339353184519993955
14341114 176 18411987936157533569
14790565 3 18337388374411192336
14866123 147 16536787042533370083
15238133 3 18409171004336388060
1601671 61 18060702784192709348
17349148 13 17203315711754852533
18186145 218 18272087227600788659
19078846 21 18271804575486807137
21033648 29 16773791464040963315
21041028 32 18122049915273932698
21421861 104 18190456052676102282
21503847 285 18201725084355595376
21521721 280 18115033017297647076
23402539 116 12751243596712377787
23557571 272 14189287214635519125
23559900 14 17894911862747071317
23598291 2 17914882360655545525
474 4 18196643218990095273
633830 44 18200871889117803111
7097593 13 18411130329888633743

>  <PUBCHEM_SHAPE_MULTIPOLES>  (1) 
419.31
10.92
2.91
1.53
11.13
0.27
0.39
0
-2.56
-2.58
-1.09
0.22
-0.14
-0.15

>  <PUBCHEM_SHAPE_SELFOVERLAP>  (1) 
836.568

>  <PUBCHEM_SHAPE_VOLUME>  (1) 
243.3

>  <PUBCHEM_COORDINATE_TYPE>  (1) 
2
5
10

$$$$
