38523
     RDKit          3D

 15 15  0  0  0  0  0  0  0  0999 V2000
    2.7888    0.4130   -1.8640 O   0  0  0  0  0  0  0  0  0  0  0  0
    1.9997    0.2724    0.0803 N   0  0  0  0  0  0  0  0  0  0  0  0
    3.0356    0.0694   -0.7037 N   0  0  0  0  0  0  0  0  0  0  0  0
   -3.2381   -1.2541   -0.2130 C   0  0  0  0  0  0  0  0  0  0  0  0
   -3.0489    0.2030   -0.6605 C   0  0  0  0  0  0  0  0  0  0  0  0
   -2.0063   -2.1316   -0.4828 C   0  0  0  0  0  0  0  0  0  0  0  0
   -2.6977    1.1582    0.4899 C   0  0  0  0  0  0  0  0  0  0  0  0
   -0.8065   -1.7850    0.3982 C   0  0  0  0  0  0  0  0  0  0  0  0
   -1.9558    2.4117    0.0065 C   0  0  0  0  0  0  0  0  0  0  0  0
    0.4862   -2.4169   -0.1172 C   0  0  0  0  0  0  0  0  0  0  0  0
   -0.4817    2.1640   -0.3498 C   0  0  0  0  0  0  0  0  0  0  0  0
    1.7008   -2.1554    0.7837 C   0  0  0  0  0  0  0  0  0  0  0  0
    0.4210    2.0704    0.8883 C   0  0  0  0  0  0  0  0  0  0  0  0
    1.9347   -0.6879    1.1985 C   0  0  0  0  0  0  0  0  0  0  0  0
    1.8683    1.6689    0.5457 C   0  0  0  0  0  0  0  0  0  0  0  0
  1  3  2  0
  2  3  1  0
  2 14  1  0
  2 15  1  0
  4  5  1  0
  4  6  1  0
  5  7  1  0
  6  8  1  0
  7  9  1  0
  8 10  1  0
  9 11  1  0
 10 12  1  0
 11 13  1  0
 12 14  1  0
 13 15  1  0
M  END
>  <PUBCHEM_COMPOUND_CID>  (1) 
38523

>  <PUBCHEM_CONFORMER_RMSD>  (1) 
0.6

>  <PUBCHEM_CONFORMER_DIVERSEORDER>  (1) 
1
53
35
41
46
14
27
29
32
39
7
25
31
44
22
16
28
17
43
40
47
18
36
34
50
20
33
5
54
13
23
15
51
24
49
52
45
26
38
6
37
21
9
10
4
8
11
3
30
42
2
12
19
48

>  <PUBCHEM_MMFF94_PARTIAL_CHARGES>  (1) 
5
1 -0.16
14 0.27
15 0.27
2 -0.36
3 -0.01

>  <PUBCHEM_EFFECTIVE_ROTOR_COUNT>  (1) 
3.6

>  <PUBCHEM_PHARMACOPHORE_FEATURES>  (1) 
0

>  <PUBCHEM_HEAVY_ATOM_COUNT>  (1) 
15

>  <PUBCHEM_ATOM_DEF_STEREO_COUNT>  (1) 
0

>  <PUBCHEM_ATOM_UDEF_STEREO_COUNT>  (1) 
0

>  <PUBCHEM_BOND_DEF_STEREO_COUNT>  (1) 
0

>  <PUBCHEM_BOND_UDEF_STEREO_COUNT>  (1) 
0

>  <PUBCHEM_ISOTOPIC_ATOM_COUNT>  (1) 
0

>  <PUBCHEM_COMPONENT_COUNT>  (1) 
1

>  <PUBCHEM_CACTVS_TAUTO_COUNT>  (1) 
1

>  <PUBCHEM_CONFORMER_ID>  (1) 
0000967B00000001

>  <PUBCHEM_MMFF94_ENERGY>  (1) 
19.4016

>  <PUBCHEM_FEATURE_SELFOVERLAP>  (1) 
0

>  <PUBCHEM_SHAPE_FINGERPRINT>  (1) 
104564 63 18410862044402775379
12553582 1 18411417280885460281
12596599 1 17846227712498906031
1420 336 18195523929259259267
14251711 518 18196076966312357175
14251717 144 17907283365867458909
14251745 187 18271246143954934832
15775835 57 18337677416744920225
20233049 118 18262512710421611190
21249577 28 18336543802976691170
22802520 49 18201170904894262550
2334 1 17906445881229450225
23419403 2 15453579213554290937
23557571 272 17344891126528648235
23559900 14 18200599099746613254
2748010 2 18050561043535521843
2897 32 18265324191581351569
44154327 71 18193846938030578825
5262128 65 17773327926644600541
537710 114 18409442554054725181
57483677 78 18262245545843342748
66348 1 18338507655424362915

>  <PUBCHEM_SHAPE_MULTIPOLES>  (1) 
292.86
4.94
3.37
1.1
0.97
0.11
-0.26
0.16
-0.94
0.71
0.34
-0.79
-0.09
-0.47

>  <PUBCHEM_SHAPE_SELFOVERLAP>  (1) 
549.403

>  <PUBCHEM_SHAPE_VOLUME>  (1) 
179.2

>  <PUBCHEM_COORDINATE_TYPE>  (1) 
2
5
10

$$$$
