38529
     RDKit          3D

 23 23  0  0  0  0  0  0  0  0999 V2000
    0.1830    2.9315   -1.3535 I   0  0  0  0  0  0  0  0  0  0  0  0
   -1.5774   -2.8387   -0.4963 I   0  0  0  0  0  0  0  0  0  0  0  0
    4.2574   -1.2693    0.3812 I   0  0  0  0  0  0  0  0  0  0  0  0
   -2.1655    0.8394    1.1257 O   0  0  0  0  0  0  0  0  0  0  0  0
   -6.2866   -0.4243    0.0677 O   0  0  0  0  0  0  0  0  0  0  0  0
    1.4408   -3.3218    1.5436 O   0  0  0  0  0  0  0  0  0  0  0  0
    1.9343   -3.9657   -0.5796 O   0  0  0  0  0  0  0  0  0  0  0  0
    2.9065    2.4001    1.7156 O   0  0  0  0  0  0  0  0  0  0  0  0
   -3.9050    1.0442   -0.3979 N   0  0  0  0  0  0  0  0  0  0  0  0
    2.9650    1.5534   -0.4822 N   0  0  0  0  0  0  0  0  0  0  0  0
   -0.3498   -0.0468   -0.8338 C   0  0  0  0  0  0  0  0  0  0  0  0
   -1.7549    0.3267   -1.2052 C   0  0  0  0  0  0  0  0  0  0  0  0
    0.6520    0.9239   -0.8304 C   0  0  0  0  0  0  0  0  0  0  0  0
    1.9582    0.5769   -0.4849 C   0  0  0  0  0  0  0  0  0  0  0  0
   -0.0456   -1.3644   -0.4917 C   0  0  0  0  0  0  0  0  0  0  0  0
    1.2605   -1.7113   -0.1463 C   0  0  0  0  0  0  0  0  0  0  0  0
    2.2624   -0.7408   -0.1429 C   0  0  0  0  0  0  0  0  0  0  0  0
   -2.6003    0.7600   -0.0203 C   0  0  0  0  0  0  0  0  0  0  0  0
   -4.9114    1.4738    0.5445 C   0  0  0  0  0  0  0  0  0  0  0  0
   -5.6478    0.2776    1.1261 C   0  0  0  0  0  0  0  0  0  0  0  0
    1.5794   -3.0943    0.2124 C   0  0  0  0  0  0  0  0  0  0  0  0
    3.3608    2.3742    0.5763 C   0  0  0  0  0  0  0  0  0  0  0  0
    4.4841    3.2956    0.1718 C   0  0  0  0  0  0  0  0  0  0  0  0
  1 13  1  0
  2 15  1  0
  3 17  1  0
  4 18  2  0
  5 20  1  0
  6 21  1  0
  7 21  2  0
  8 22  2  0
  9 18  1  0
  9 19  1  0
 10 14  1  0
 10 22  1  0
 11 12  1  0
 11 13  2  0
 11 15  1  0
 12 18  1  0
 13 14  1  0
 14 17  2  0
 15 16  2  0
 16 17  1  0
 16 21  1  0
 19 20  1  0
 22 23  1  0
M  END
>  <PUBCHEM_COMPOUND_CID>  (1) 
38529

>  <PUBCHEM_CONFORMER_RMSD>  (1) 
0.8

>  <PUBCHEM_CONFORMER_DIVERSEORDER>  (1) 
1
32
16
9
35
18
12
37
19
4
36
15
33
27
20
6
34
30
11
31
28
7
17
14
23
24
21
22
26
13
29
10
3
8
5
2
25

>  <PUBCHEM_MMFF94_PARTIAL_CHARGES>  (1) 
27
1 -0.08
10 -0.55
11 -0.14
12 0.2
13 0.08
14 0.12
15 0.08
16 0.09
17 0.08
18 0.57
19 0.3
2 -0.08
20 0.28
21 0.63
22 0.57
23 0.06
26 0.37
29 0.37
3 -0.08
35 0.4
36 0.5
4 -0.57
5 -0.68
6 -0.65
7 -0.57
8 -0.57
9 -0.73

>  <PUBCHEM_EFFECTIVE_ROTOR_COUNT>  (1) 
8

>  <PUBCHEM_PHARMACOPHORE_FEATURES>  (1) 
13
1 1 hydrophobe
1 10 donor
1 2 hydrophobe
1 3 hydrophobe
1 4 acceptor
1 5 acceptor
1 5 donor
1 6 acceptor
1 7 acceptor
1 8 acceptor
1 9 donor
3 6 7 21 anion
6 11 13 14 15 16 17 rings

>  <PUBCHEM_HEAVY_ATOM_COUNT>  (1) 
23

>  <PUBCHEM_ATOM_DEF_STEREO_COUNT>  (1) 
0

>  <PUBCHEM_ATOM_UDEF_STEREO_COUNT>  (1) 
0

>  <PUBCHEM_BOND_DEF_STEREO_COUNT>  (1) 
0

>  <PUBCHEM_BOND_UDEF_STEREO_COUNT>  (1) 
0

>  <PUBCHEM_ISOTOPIC_ATOM_COUNT>  (1) 
0

>  <PUBCHEM_COMPONENT_COUNT>  (1) 
1

>  <PUBCHEM_CACTVS_TAUTO_COUNT>  (1) 
4

>  <PUBCHEM_CONFORMER_ID>  (1) 
0000968100000001

>  <PUBCHEM_MMFF94_ENERGY>  (1) 
92.1802

>  <PUBCHEM_FEATURE_SELFOVERLAP>  (1) 
66.033

>  <PUBCHEM_SHAPE_FINGERPRINT>  (1) 
10165383 225 18337116765048051556
10366900 7 18042985197713514144
10411042 1 17763183540404688102
10493431 412 18266740357962812220
1100329 8 18412259524103977186
12035758 1 18337934724679135170
12390115 104 18125171677809162284
12403259 226 17975134240917042767
12553582 1 18193262019309110230
13140716 1 18335977645073135202
13533116 47 18337963281853382417
13583140 156 18265606586050569525
14178342 30 18265327489852451941
146900 427 18131080342075697425
14790565 3 17901679476532512764
14849402 71 18412546535483761448
14955137 171 18197501710244414566
15475509 84 17839187307550094241
16945 1 18264754481613352158
18785283 64 18335419063085447828
20510252 161 17909263920989023618
20691752 17 17895743106506948262
20739085 24 18259989275259132396
21041028 32 17836922296500602974
21197605 99 18336557130915040251
2334 1 18191576657057067310
23557571 272 17168427048286007621
23558518 356 18120373409134093774
23559900 14 17822864065524309629
23845131 108 18337668749474783755
2748010 2 18262790895627602798
283562 15 17907287002992771215
31174 14 18265050228196480199
3178227 256 18337398149655791058
350125 39 18337953493243333822
352729 6 17398103241711287286
4340502 62 18341337781606996625
474 4 18342170081348852744
5104073 3 18409736175109324179
58807428 26 18263911276401061120
59755656 520 18269835470431062172
6442390 28 18266745855657626758
81228 2 17685768421741830430
9999458 23 18409169887807986518

>  <PUBCHEM_SHAPE_MULTIPOLES>  (1) 
469.83
9.54
4.62
1.24
13.05
1.88
0.14
-4.32
3.87
-4.55
-0.06
0.08
-0.37
-0.02

>  <PUBCHEM_SHAPE_SELFOVERLAP>  (1) 
908.17

>  <PUBCHEM_SHAPE_VOLUME>  (1) 
293.4

>  <PUBCHEM_COORDINATE_TYPE>  (1) 
2
5
10

$$$$
