38530
     RDKit          3D

 24 24  0  0  0  0  0  0  0  0999 V2000
    1.8294   -0.5886   -2.1429 O   0  0  0  0  0  0  0  0  0  0  0  0
   -4.2348    0.1857    0.5098 O   0  0  0  0  0  0  0  0  0  0  0  0
   -0.9507   -0.4513   -1.9773 O   0  0  0  0  0  0  0  0  0  0  0  0
   -3.4390   -0.2074   -1.6113 O   0  0  0  0  0  0  0  0  0  0  0  0
    2.8481   -0.3614   -0.0702 N   0  0  0  0  0  0  0  0  0  0  0  0
    0.5496   -0.2866   -0.2152 N   0  0  0  0  0  0  0  0  0  0  0  0
    4.2090   -0.4789   -0.5451 C   0  0  0  0  0  0  0  0  0  0  0  0
    5.1041   -1.1431    0.5066 C   0  0  0  0  0  0  0  0  0  0  0  0
    4.7651    0.8855   -0.9662 C   0  0  0  0  0  0  0  0  0  0  0  0
    5.3833   -0.2280    1.6989 C   0  0  0  0  0  0  0  0  0  0  0  0
    5.0449    1.7971    0.2286 C   0  0  0  0  0  0  0  0  0  0  0  0
    5.9464    1.1187    1.2556 C   0  0  0  0  0  0  0  0  0  0  0  0
   -1.8649   -0.0759    0.2639 C   0  0  0  0  0  0  0  0  0  0  0  0
    1.7503   -0.4283   -0.9260 C   0  0  0  0  0  0  0  0  0  0  0  0
   -1.6646    1.2879    0.9962 C   0  0  0  0  0  0  0  0  0  0  0  0
   -1.8277   -1.2410    1.3058 C   0  0  0  0  0  0  0  0  0  0  0  0
   -0.7309   -0.3055   -0.7755 C   0  0  0  0  0  0  0  0  0  0  0  0
   -3.2537   -0.0588   -0.4090 C   0  0  0  0  0  0  0  0  0  0  0  0
   -1.6695    2.4961    0.0942 C   0  0  0  0  0  0  0  0  0  0  0  0
   -2.0259   -2.6168    0.7269 C   0  0  0  0  0  0  0  0  0  0  0  0
   -5.5655    0.2672   -0.0101 C   0  0  0  0  0  0  0  0  0  0  0  0
   -2.5760    3.4774    0.1670 C   0  0  0  0  0  0  0  0  0  0  0  0
   -1.1028   -3.5843    0.7660 C   0  0  0  0  0  0  0  0  0  0  0  0
   -6.5242    0.5403    1.1292 C   0  0  0  0  0  0  0  0  0  0  0  0
  1 14  2  0
  2 18  1  0
  2 21  1  0
  3 17  2  0
  4 18  2  0
  5  7  1  0
  5 14  1  0
  6 14  1  0
  6 17  1  0
  7  8  1  0
  7  9  1  0
  8 10  1  0
  9 11  1  0
 10 12  1  0
 11 12  1  0
 13 15  1  0
 13 16  1  0
 13 17  1  0
 13 18  1  0
 15 19  1  0
 16 20  1  0
 19 22  2  0
 20 23  2  0
 21 24  1  0
M  END
>  <PUBCHEM_COMPOUND_CID>  (1) 
38530

>  <PUBCHEM_CONFORMER_RMSD>  (1) 
1

>  <PUBCHEM_CONFORMER_DIVERSEORDER>  (1) 
1
22
33
32
31
56
11
43
39
15
45
18
47
5
35
53
7
12
55
26
58
8
49
48
14
30
24
41
27
52
29
54
44
23
13
40
20
51
3
19
28
36
2
16
50
21
9
46
42
25
6
10
38
34
57
37
17
4

>  <PUBCHEM_MMFF94_PARTIAL_CHARGES>  (1) 
26
1 -0.57
13 0.12
14 0.69
15 0.14
16 0.14
17 0.57
18 0.66
19 -0.29
2 -0.43
20 -0.29
21 0.28
22 -0.3
23 -0.3
3 -0.57
36 0.37
4 -0.57
41 0.37
42 0.15
43 0.15
46 0.15
47 0.15
48 0.15
49 0.15
5 -0.73
6 -0.49
7 0.3

>  <PUBCHEM_EFFECTIVE_ROTOR_COUNT>  (1) 
13.2

>  <PUBCHEM_PHARMACOPHORE_FEATURES>  (1) 
9
1 1 acceptor
1 22 hydrophobe
1 23 hydrophobe
1 3 acceptor
1 4 acceptor
1 5 donor
1 6 donor
5 13 15 16 19 20 hydrophobe
6 7 8 9 10 11 12 rings

>  <PUBCHEM_HEAVY_ATOM_COUNT>  (1) 
24

>  <PUBCHEM_ATOM_DEF_STEREO_COUNT>  (1) 
0

>  <PUBCHEM_ATOM_UDEF_STEREO_COUNT>  (1) 
0

>  <PUBCHEM_BOND_DEF_STEREO_COUNT>  (1) 
0

>  <PUBCHEM_BOND_UDEF_STEREO_COUNT>  (1) 
0

>  <PUBCHEM_ISOTOPIC_ATOM_COUNT>  (1) 
0

>  <PUBCHEM_COMPONENT_COUNT>  (1) 
1

>  <PUBCHEM_CACTVS_TAUTO_COUNT>  (1) 
5

>  <PUBCHEM_CONFORMER_ID>  (1) 
0000968200000001

>  <PUBCHEM_MMFF94_ENERGY>  (1) 
34.7515

>  <PUBCHEM_FEATURE_SELFOVERLAP>  (1) 
45.742

>  <PUBCHEM_SHAPE_FINGERPRINT>  (1) 
10366900 7 18202285827154528506
10906281 52 18200893845281017069
11552529 35 18189612916568812386
12035758 1 18266759011859905907
12166972 35 17240490203737033980
12596602 18 17603587439046916896
12633257 1 18335985345870330392
12788726 201 18341055129377126921
13533116 47 18336549309410029962
13583140 156 18130783504075016682
14341114 176 18333449855182758160
15048467 5 16128378143300806361
16994733 274 17274549728887261107
20600515 1 18337402620500650237
21424621 283 18201168646411021081
221357 26 10519990370312731314
22224240 67 18334299765092199531
23352939 185 14620797089511690355
23402539 116 18412261740454567815
23559900 14 18338248124063659590
3004659 81 10665223744776531816
4340502 62 18408891715482336683
469060 322 17557982020314982734
5104073 3 17896315990714398834
5924683 9 18115864286047145506
90127 26 18202850946525246756
9981440 41 18261396577381150699

>  <PUBCHEM_SHAPE_MULTIPOLES>  (1) 
460.47
13.95
2.8
1.53
7.9
0.18
0.38
-4.07
-4.61
-1.97
-0.88
0.61
0.22
0.14

>  <PUBCHEM_SHAPE_SELFOVERLAP>  (1) 
912.88

>  <PUBCHEM_SHAPE_VOLUME>  (1) 
269.6

>  <PUBCHEM_COORDINATE_TYPE>  (1) 
2
5
10

$$$$
