38537
     RDKit          3D

 13 13  0  0  0  0  0  0  0  0999 V2000
   -1.3834   -2.6797    0.0983 Br  0  0  0  0  0  0  0  0  0  0  0  0
    6.0585    0.1364   -0.9714 Cl  0  0  0  0  0  0  0  0  0  0  0  0
    0.9958    0.1795    0.0593 N   0  0  0  0  0  0  0  0  0  0  0  0
    2.3083    0.0746    0.6860 C   0  0  0  0  0  0  0  0  0  0  0  0
   -0.0638    0.0705    1.0520 C   0  0  0  0  0  0  0  0  0  0  0  0
    3.4096    0.1643   -0.3693 C   0  0  0  0  0  0  0  0  0  0  0  0
   -1.4298    0.1842    0.4292 C   0  0  0  0  0  0  0  0  0  0  0  0
    4.7877    0.0465    0.2701 C   0  0  0  0  0  0  0  0  0  0  0  0
   -2.1149   -0.9344   -0.0278 C   0  0  0  0  0  0  0  0  0  0  0  0
   -1.9888    1.4523    0.3248 C   0  0  0  0  0  0  0  0  0  0  0  0
   -3.3788   -0.7833   -0.5984 C   0  0  0  0  0  0  0  0  0  0  0  0
   -3.2527    1.6036   -0.2456 C   0  0  0  0  0  0  0  0  0  0  0  0
   -3.9476    0.4857   -0.7073 C   0  0  0  0  0  0  0  0  0  0  0  0
  1  9  1  0
  2  8  1  0
  3  4  1  0
  3  5  1  0
  4  6  1  0
  5  7  1  0
  6  8  1  0
  7  9  2  0
  7 10  1  0
  9 11  1  0
 10 12  2  0
 11 13  2  0
 12 13  1  0
M  END
>  <PUBCHEM_COMPOUND_CID>  (1) 
38537

>  <PUBCHEM_CONFORMER_RMSD>  (1) 
0.6

>  <PUBCHEM_CONFORMER_DIVERSEORDER>  (1) 
1
40
32
16
53
22
66
89
15
39
46
92
70
43
61
18
75
29
77
48
71
7
23
52
55
44
82
60
24
91
74
79
42
54
69
21
27
30
68
45
51
10
87
25
20
56
8
64
67
50
36
9
73
35
76
63
17
26
2
33
28
72
41
47
59
83
81
12
37
80
38
11
85
5
88
4
90
19
78
84
94
31
93
6
57
34
3
86
13
62
49
14
65
58

>  <PUBCHEM_MMFF94_PARTIAL_CHARGES>  (1) 
17
1 -0.11
10 -0.15
11 -0.15
12 -0.15
13 -0.15
2 -0.29
20 0.36
23 0.15
24 0.15
25 0.15
26 0.15
3 -0.9
4 0.27
5 0.41
7 -0.14
8 0.29
9 0.11

>  <PUBCHEM_EFFECTIVE_ROTOR_COUNT>  (1) 
5

>  <PUBCHEM_PHARMACOPHORE_FEATURES>  (1) 
4
1 1 hydrophobe
1 3 cation
1 3 donor
6 7 9 10 11 12 13 rings

>  <PUBCHEM_HEAVY_ATOM_COUNT>  (1) 
13

>  <PUBCHEM_ATOM_DEF_STEREO_COUNT>  (1) 
0

>  <PUBCHEM_ATOM_UDEF_STEREO_COUNT>  (1) 
0

>  <PUBCHEM_BOND_DEF_STEREO_COUNT>  (1) 
0

>  <PUBCHEM_BOND_UDEF_STEREO_COUNT>  (1) 
0

>  <PUBCHEM_ISOTOPIC_ATOM_COUNT>  (1) 
0

>  <PUBCHEM_COMPONENT_COUNT>  (1) 
1

>  <PUBCHEM_CACTVS_TAUTO_COUNT>  (1) 
1

>  <PUBCHEM_CONFORMER_ID>  (1) 
0000968900000001

>  <PUBCHEM_MMFF94_ENERGY>  (1) 
19.7176

>  <PUBCHEM_FEATURE_SELFOVERLAP>  (1) 
20.297

>  <PUBCHEM_SHAPE_FINGERPRINT>  (1) 
10014705 185 18040997366917226396
10680689 15 18409738386843316946
10726558 24 18339921515935503219
11315181 36 17489872639988960304
12500047 106 18411414012393989018
12596602 18 12031786930028972790
13214271 11 16370730326751275145
13675066 3 11746932101649984760
15242439 84 18131069333942550976
17870717 6 18131080328768698278
18186145 218 18059564789499615105
187816 3 18201997720721978129
19489759 90 18272930505932992592
200 152 15697999630570198666
20279233 1 17775570844845712694
20300324 65 18410854373549194501
20325693 3 18410858763142667775
20432913 95 14979966856770994118
20645476 183 18114174250823094843
20645477 56 18409169895928695217
20645477 70 16845578591683537606
20871999 31 18342172267434322345
21637258 2 14835825336298119671
23402539 116 18342450431001907997
23402655 69 18113338613896651604
23403322 49 17489590052067204158
23557571 272 18131078112745356444
23559900 14 18201431524058273896
26918003 58 12679458698901635365
2748010 2 17834934736366070979
4175511 318 18186514402084680431
559249 180 18337103467855475386
58051976 100 18334857251182419414
93112 12 18410854399619542320

>  <PUBCHEM_SHAPE_MULTIPOLES>  (1) 
270.36
10.61
1.82
0.93
19.1
1.23
0
-1.9
3.76
-2.32
-0.01
0.28
-0.02
-0.01

>  <PUBCHEM_SHAPE_SELFOVERLAP>  (1) 
515.585

>  <PUBCHEM_SHAPE_VOLUME>  (1) 
170.5

>  <PUBCHEM_COORDINATE_TYPE>  (1) 
2
5
10

$$$$
