38541
     RDKit          3D

 15 15  0  0  1  0  0  0  0  0999 V2000
    0.5585   -2.4962   -1.0902 Br  0  0  0  0  0  0  0  0  0  0  0  0
   -5.1513   -1.8970    0.2710 Cl  0  0  0  0  0  0  0  0  0  0  0  0
   -0.7996    0.8545   -0.1997 N   0  0  0  0  0  0  0  0  0  0  0  0
   -2.2255    0.9712    0.1034 C   0  0  0  0  0  0  0  0  0  0  0  0
   -0.1365   -0.0016    0.7831 C   0  0  0  0  0  0  0  0  0  0  0  0
   -0.1739    2.1760   -0.2312 C   0  0  0  0  0  0  0  0  0  0  0  0
   -2.8943   -0.4016    0.0491 C   0  0  0  0  0  0  0  0  0  0  0  0
    1.3229   -0.1928    0.4667 C   0  0  0  0  0  0  0  0  0  0  0  0
   -0.8506    3.0798   -1.2479 C   0  0  0  0  0  0  0  0  0  0  0  0
   -4.3833   -0.2946    0.3537 C   0  0  0  0  0  0  0  0  0  0  0  0
    1.7611   -1.2383   -0.3362 C   0  0  0  0  0  0  0  0  0  0  0  0
    2.2256    0.7154    1.0070 C   0  0  0  0  0  0  0  0  0  0  0  0
    3.1231   -1.3784   -0.6034 C   0  0  0  0  0  0  0  0  0  0  0  0
    3.5876    0.5751    0.7399 C   0  0  0  0  0  0  0  0  0  0  0  0
    4.0363   -0.4716   -0.0653 C   0  0  0  0  0  0  0  0  0  0  0  0
  1 11  1  0
  2 10  1  0
  3  4  1  0
  3  5  1  0
  3  6  1  0
  4  7  1  0
  5  8  1  0
  6  9  1  0
  7 10  1  0
  8 11  2  0
  8 12  1  0
 11 13  1  0
 12 14  2  0
 13 15  2  0
 14 15  1  0
M  END
>  <PUBCHEM_COMPOUND_CID>  (1) 
38541

>  <PUBCHEM_CONFORMER_RMSD>  (1) 
0.6

>  <PUBCHEM_CONFORMER_DIVERSEORDER>  (1) 
1
122
123
53
34
111
65
24
110
120
42
99
125
114
9
61
113
44
72
116
86
23
131
68
133
39
3
88
57
48
124
70
4
100
67
37
27
97
62
6
121
69
112
90
60
15
135
91
108
28
117
45
50
128
30
35
118
83
73
22
119
129
33
80
71
104
95
58
2
56
107
85
94
105
21
102
38
31
130
81
82
20
66
59
7
63
14
47
5
74
11
54
16
79
52
10
64
76
41
46
49
13
26
51
101
78
40
103
32
106
18
12
109
126
25
96
17
115
36
55
29
43
77
92
98
87
137
84
93
89
138
134
75
136
19
8
139
140
132
127

>  <PUBCHEM_MMFF94_PARTIAL_CHARGES>  (1) 
17
1 -0.11
10 0.29
11 0.11
12 -0.15
13 -0.15
14 -0.15
15 -0.15
2 -0.29
29 0.15
3 -0.81
30 0.15
31 0.15
32 0.15
4 0.27
5 0.41
6 0.27
8 -0.14

>  <PUBCHEM_EFFECTIVE_ROTOR_COUNT>  (1) 
6

>  <PUBCHEM_PHARMACOPHORE_FEATURES>  (1) 
3
1 1 hydrophobe
1 3 cation
6 8 11 12 13 14 15 rings

>  <PUBCHEM_HEAVY_ATOM_COUNT>  (1) 
15

>  <PUBCHEM_ATOM_DEF_STEREO_COUNT>  (1) 
0

>  <PUBCHEM_ATOM_UDEF_STEREO_COUNT>  (1) 
0

>  <PUBCHEM_BOND_DEF_STEREO_COUNT>  (1) 
0

>  <PUBCHEM_BOND_UDEF_STEREO_COUNT>  (1) 
0

>  <PUBCHEM_ISOTOPIC_ATOM_COUNT>  (1) 
0

>  <PUBCHEM_COMPONENT_COUNT>  (1) 
1

>  <PUBCHEM_CACTVS_TAUTO_COUNT>  (1) 
1

>  <PUBCHEM_CONFORMER_ID>  (1) 
0000968D00000001

>  <PUBCHEM_MMFF94_ENERGY>  (1) 
34.2196

>  <PUBCHEM_FEATURE_SELFOVERLAP>  (1) 
15.223

>  <PUBCHEM_SHAPE_FINGERPRINT>  (1) 
10064457 181 17560517425451068871
11806522 49 18410856607348647161
12032990 46 18410013234432295129
12403259 226 18339077065288321514
12715332 25 17418369173789037502
13464513 79 18340770437401228923
14252887 29 18411704304906825827
16945 1 18041008297761709296
17357779 13 18336809945342330629
17844478 74 18341047419820873504
18380122 1 18340762641940374780
20261772 1 18130786814967521391
20344682 1 18411702092935234528
20645477 70 17631160893032386039
20871998 22 18409732854957243785
20871999 31 18113615660582816701
21673915 165 17916581080883950951
221490 88 18127697024206058950
22802520 49 17907855103012627564
23402539 116 18187359904856457050
23532345 42 18408601487208724443
23557571 272 18261395481874462885
23559900 14 18192425265021438822
2748010 2 18198607849180405160
2871803 45 18410852118944675719
3286 77 17989489602162763632
5104073 3 18201718392960098842
7364860 26 18121785186480463977
81228 2 17971488307678213921

>  <PUBCHEM_SHAPE_MULTIPOLES>  (1) 
311.52
8.01
2.76
1.04
7.11
0.88
0.13
-4.16
-1.64
0.91
1.43
-0.24
0.17
0.99

>  <PUBCHEM_SHAPE_SELFOVERLAP>  (1) 
598.495

>  <PUBCHEM_SHAPE_VOLUME>  (1) 
195.5

>  <PUBCHEM_COORDINATE_TYPE>  (1) 
2
5
10

$$$$
