38547
     RDKit          3D

 16 16  0  0  1  0  0  0  0  0999 V2000
    2.5842   -0.8416    2.6030 Br  0  0  0  0  0  0  0  0  0  0  0  0
   -3.8342   -2.7724   -1.1271 Cl  0  0  0  0  0  0  0  0  0  0  0  0
   -1.0267    0.4688    0.4511 N   0  0  0  0  0  0  0  0  0  0  0  0
   -2.2957    0.2705    1.1506 C   0  0  0  0  0  0  0  0  0  0  0  0
   -0.4901    1.7996    0.7331 C   0  0  0  0  0  0  0  0  0  0  0  0
   -0.0642   -0.5626    0.8365 C   0  0  0  0  0  0  0  0  0  0  0  0
   -2.8975   -1.0855    0.7851 C   0  0  0  0  0  0  0  0  0  0  0  0
   -1.4828    2.8744    0.2975 C   0  0  0  0  0  0  0  0  0  0  0  0
    1.2354   -0.4245    0.0891 C   0  0  0  0  0  0  0  0  0  0  0  0
   -3.1491   -1.1836   -0.7145 C   0  0  0  0  0  0  0  0  0  0  0  0
   -1.7898    2.7752   -1.1888 C   0  0  0  0  0  0  0  0  0  0  0  0
    2.4599   -0.5247    0.7372 C   0  0  0  0  0  0  0  0  0  0  0  0
    1.1722   -0.1915   -1.2796 C   0  0  0  0  0  0  0  0  0  0  0  0
    3.6401   -0.3898    0.0059 C   0  0  0  0  0  0  0  0  0  0  0  0
    2.3523   -0.0566   -2.0109 C   0  0  0  0  0  0  0  0  0  0  0  0
    3.5863   -0.1557   -1.3682 C   0  0  0  0  0  0  0  0  0  0  0  0
  1 12  1  0
  2 10  1  0
  3  4  1  0
  3  5  1  0
  3  6  1  0
  4  7  1  0
  5  8  1  0
  6  9  1  0
  7 10  1  0
  8 11  1  0
  9 12  2  0
  9 13  1  0
 12 14  1  0
 13 15  2  0
 14 16  2  0
 15 16  1  0
M  END
>  <PUBCHEM_COMPOUND_CID>  (1) 
38547

>  <PUBCHEM_CONFORMER_RMSD>  (1) 
0.8

>  <PUBCHEM_CONFORMER_DIVERSEORDER>  (1) 
6
56
68
39
76
52
40
48
27
63
36
31
72
28
16
2
53
55
30
60
13
70
51
64
45
3
35
32
71
61
37
9
26
65
59
4
33
20
44
22
74
62
24
41
34
17
67
25
23
75
58
50
69
38
42
19
29
21
80
47
1
66
7
46
11
78
14
8
81
18
15
43
57
79
49
54
10
5
82
12
73
77

>  <PUBCHEM_MMFF94_PARTIAL_CHARGES>  (1) 
17
1 -0.11
10 0.29
12 0.11
13 -0.15
14 -0.15
15 -0.15
16 -0.15
2 -0.29
3 -0.81
32 0.15
33 0.15
34 0.15
35 0.15
4 0.27
5 0.27
6 0.41
9 -0.14

>  <PUBCHEM_EFFECTIVE_ROTOR_COUNT>  (1) 
7

>  <PUBCHEM_PHARMACOPHORE_FEATURES>  (1) 
4
1 1 hydrophobe
1 11 hydrophobe
1 3 cation
6 9 12 13 14 15 16 rings

>  <PUBCHEM_HEAVY_ATOM_COUNT>  (1) 
16

>  <PUBCHEM_ATOM_DEF_STEREO_COUNT>  (1) 
0

>  <PUBCHEM_ATOM_UDEF_STEREO_COUNT>  (1) 
0

>  <PUBCHEM_BOND_DEF_STEREO_COUNT>  (1) 
0

>  <PUBCHEM_BOND_UDEF_STEREO_COUNT>  (1) 
0

>  <PUBCHEM_ISOTOPIC_ATOM_COUNT>  (1) 
0

>  <PUBCHEM_COMPONENT_COUNT>  (1) 
1

>  <PUBCHEM_CACTVS_TAUTO_COUNT>  (1) 
1

>  <PUBCHEM_CONFORMER_ID>  (1) 
0000969300000006

>  <PUBCHEM_MMFF94_ENERGY>  (1) 
35.0358

>  <PUBCHEM_FEATURE_SELFOVERLAP>  (1) 
20.297

>  <PUBCHEM_SHAPE_FINGERPRINT>  (1) 
11578080 2 17751889571770371964
11640471 11 17678752128427869444
12202030 40 17489032560848501854
12553582 1 18338237171586084627
13083527 12 18051664905638485233
13583140 156 17700943619335902786
14004458 79 18337936927543910709
14251757 17 14707471591160861967
14617773 55 17822005354979056433
15669948 3 18262806155208457913
15852999 172 17836349459184280589
16945 1 17970938685123778426
17357779 13 17774705546506294077
18186145 218 13479401743686695515
192875 21 17675926516825290276
200 152 17821728355479769414
20361792 2 18339368581861666435
20388580 30 17984139537902464623
20600515 1 18056179500846461323
20671657 53 18195517311089449319
21524375 3 17611187057386443457
22112679 90 18041846086672171192
23402539 116 18335714852987787166
23419403 2 16885764706006394112
23557571 272 18059849541420399129
23598288 3 18115587020322202537
23598291 2 17387411221053994962
23598294 1 18264220131345988601
57100710 210 18341044142950867390
603831 33 18113903757993032690
6049 1 17417811708281506056
633830 44 16880510032958715934
6442390 28 17483420533727007465
7471813 234 18114452448786711902
7615 1 17676766462046445424
77492 1 17822583715602060306
81228 2 18340778048399568065
88987 49 18267579100793266208

>  <PUBCHEM_SHAPE_MULTIPOLES>  (1) 
332.1
6.53
2.62
2.08
0.32
1.8
-0.28
-3.99
1.41
3.88
0.46
-1.64
-0.49
-1.18

>  <PUBCHEM_SHAPE_SELFOVERLAP>  (1) 
638.458

>  <PUBCHEM_SHAPE_VOLUME>  (1) 
208

>  <PUBCHEM_COORDINATE_TYPE>  (1) 
2
5
10

$$$$
