38557
     RDKit          3D

 17 17  0  0  1  0  0  0  0  0999 V2000
   -3.1075   -0.8244   -2.5088 Br  0  0  0  0  0  0  0  0  0  0  0  0
    5.3050    0.5269   -0.9789 Cl  0  0  0  0  0  0  0  0  0  0  0  0
    0.2775   -1.1701    0.2881 N   0  0  0  0  0  0  0  0  0  0  0  0
    1.4736   -1.8257   -0.2279 C   0  0  0  0  0  0  0  0  0  0  0  0
    2.4267   -0.7935   -0.8303 C   0  0  0  0  0  0  0  0  0  0  0  0
    2.8521    0.2409    0.2188 C   0  0  0  0  0  0  0  0  0  0  0  0
   -0.4369   -0.4807   -0.7879 C   0  0  0  0  0  0  0  0  0  0  0  0
   -0.6021   -2.1417    0.9402 C   0  0  0  0  0  0  0  0  0  0  0  0
    3.8264    1.2943   -0.3251 C   0  0  0  0  0  0  0  0  0  0  0  0
   -1.6427    0.2609   -0.2751 C   0  0  0  0  0  0  0  0  0  0  0  0
    0.1198   -2.8697    2.0615 C   0  0  0  0  0  0  0  0  0  0  0  0
    4.2266    2.2848    0.7620 C   0  0  0  0  0  0  0  0  0  0  0  0
   -2.8666    0.1970   -0.9291 C   0  0  0  0  0  0  0  0  0  0  0  0
   -1.4928    1.0174    0.8810 C   0  0  0  0  0  0  0  0  0  0  0  0
   -3.9580    0.9005   -0.4196 C   0  0  0  0  0  0  0  0  0  0  0  0
   -2.5843    1.7208    1.3906 C   0  0  0  0  0  0  0  0  0  0  0  0
   -3.8168    1.6624    0.7403 C   0  0  0  0  0  0  0  0  0  0  0  0
  1 13  1  0
  2  9  1  0
  3  4  1  0
  3  7  1  0
  3  8  1  0
  4  5  1  0
  5  6  1  0
  6  9  1  0
  7 10  1  0
  8 11  1  0
  9 12  1  0
 10 13  2  0
 10 14  1  0
 13 15  1  0
 14 16  2  0
 15 17  2  0
 16 17  1  0
M  END
>  <PUBCHEM_COMPOUND_CID>  (1) 
38557

>  <PUBCHEM_CONFORMER_RMSD>  (1) 
0.8

>  <PUBCHEM_CONFORMER_DIVERSEORDER>  (1) 
9
110
36
145
46
156
142
44
54
52
78
71
159
88
130
55
79
157
143
123
17
166
149
28
117
57
119
13
164
29
116
86
48
102
89
65
85
69
92
19
129
84
91
16
152
53
154
147
14
104
144
43
75
120
40
94
165
134
62
151
103
24
115
153
2
105
67
137
77
118
99
163
81
63
34
82
158
31
106
61
68
101
51
5
113
161
112
146
58
140
135
111
150
95
109
139
90
93
98
56
25
160
20
132
74
49
127
128
21
162
33
35
12
1
76
107
141
167
18
42
66
83
80
41
87
148
32
37
155
126
15
73
64
26
38
125
39
60
114
72
45
133
96
122
97
47
124
108
6
50
131
136
8
30
3
70
121
138
59
22
100
7
4
27
10
23
11

>  <PUBCHEM_MMFF94_PARTIAL_CHARGES>  (1) 
17
1 -0.11
10 -0.14
13 0.11
14 -0.15
15 -0.15
16 -0.15
17 -0.15
2 -0.29
3 -0.81
35 0.15
36 0.15
37 0.15
38 0.15
4 0.27
7 0.41
8 0.27
9 0.29

>  <PUBCHEM_EFFECTIVE_ROTOR_COUNT>  (1) 
7

>  <PUBCHEM_PHARMACOPHORE_FEATURES>  (1) 
3
1 1 hydrophobe
1 3 cation
6 10 13 14 15 16 17 rings

>  <PUBCHEM_HEAVY_ATOM_COUNT>  (1) 
17

>  <PUBCHEM_ATOM_DEF_STEREO_COUNT>  (1) 
0

>  <PUBCHEM_ATOM_UDEF_STEREO_COUNT>  (1) 
1

>  <PUBCHEM_BOND_DEF_STEREO_COUNT>  (1) 
0

>  <PUBCHEM_BOND_UDEF_STEREO_COUNT>  (1) 
0

>  <PUBCHEM_ISOTOPIC_ATOM_COUNT>  (1) 
0

>  <PUBCHEM_COMPONENT_COUNT>  (1) 
1

>  <PUBCHEM_CACTVS_TAUTO_COUNT>  (1) 
1

>  <PUBCHEM_CONFORMER_ID>  (1) 
0000969D00000009

>  <PUBCHEM_MMFF94_ENERGY>  (1) 
36.9824

>  <PUBCHEM_FEATURE_SELFOVERLAP>  (1) 
15.223

>  <PUBCHEM_SHAPE_FINGERPRINT>  (1) 
11543360 7 17346595309300196804
11725454 13 15793385567199600551
121448 382 18115855459899622311
122479 349 18338239361976603100
12549972 3 15867728852764778905
12633257 1 18114451319737827280
12788726 201 17976808015664384386
12892183 10 13839983326630948364
14123250 116 18272369784624401777
14251757 17 16271915043573087064
14251764 30 14764061333028492623
14251764 38 18057596775872562472
14787075 74 18339080522816194219
15342168 16 18260841392291088189
1813 80 17547846357095099194
18186145 218 18261676978273204022
19141452 34 7925640998479460957
19765921 60 18410285887593646259
20300324 65 17704070732914637804
204376 136 17967819335848960002
20871999 31 17346587595887041101
21033648 29 17676476238443243548
21524375 3 18410011014150688614
21618674 53 18130510739017344147
22079108 93 18335995220047402441
22182937 141 18265061395454438632
23352939 185 16413788434792886267
23419403 2 17688866854088392107
23500284 214 18334866030074252538
23557571 272 18195260020704441038
23559900 14 16629403515139606134
25 1 18411986828018950178
4340502 62 18115038416065984529
469060 322 17168432683246500979
474 4 18410014333981132004
495365 180 17098046144892196343
526903 126 18341612646075222481
59027123 10 17704075118519313452
59755656 520 18261116274540523814
633830 44 18337393733965186990
6913067 236 17022621992532250255
81228 2 17606703557937116634
9981440 41 18127961104818019442

>  <PUBCHEM_SHAPE_MULTIPOLES>  (1) 
352.68
8.94
2.6
1.83
8.32
0.76
0.25
-6.29
2.91
0.38
-1.66
-1.39
0.98
-0.9

>  <PUBCHEM_SHAPE_SELFOVERLAP>  (1) 
677.506

>  <PUBCHEM_SHAPE_VOLUME>  (1) 
220.7

>  <PUBCHEM_COORDINATE_TYPE>  (1) 
2
5
10

$$$$
