38553
     RDKit          3D

 17 17  0  0  1  0  0  0  0  0999 V2000
   -2.3857    1.9630    1.7314 Br  0  0  0  0  0  0  0  0  0  0  0  0
    4.2780   -2.8858    0.9762 Cl  0  0  0  0  0  0  0  0  0  0  0  0
    0.6745    0.6977    0.0319 N   0  0  0  0  0  0  0  0  0  0  0  0
    1.7647    1.6394   -0.2427 C   0  0  0  0  0  0  0  0  0  0  0  0
    1.0815   -0.6630   -0.3107 C   0  0  0  0  0  0  0  0  0  0  0  0
   -0.5240    1.0788   -0.7114 C   0  0  0  0  0  0  0  0  0  0  0  0
    1.1583    3.0138   -0.5456 C   0  0  0  0  0  0  0  0  0  0  0  0
    2.6619    1.7223    0.9968 C   0  0  0  0  0  0  0  0  0  0  0  0
    2.5740    1.1437   -1.4469 C   0  0  0  0  0  0  0  0  0  0  0  0
    2.3499   -1.0458    0.4504 C   0  0  0  0  0  0  0  0  0  0  0  0
   -1.6837    0.1665   -0.4119 C   0  0  0  0  0  0  0  0  0  0  0  0
    2.7922   -2.4601    0.0955 C   0  0  0  0  0  0  0  0  0  0  0  0
   -2.5701    0.4346    0.6238 C   0  0  0  0  0  0  0  0  0  0  0  0
   -1.8415   -0.9610   -1.2090 C   0  0  0  0  0  0  0  0  0  0  0  0
   -3.6308   -0.4382    0.8665 C   0  0  0  0  0  0  0  0  0  0  0  0
   -2.9022   -1.8337   -0.9660 C   0  0  0  0  0  0  0  0  0  0  0  0
   -3.7968   -1.5723    0.0716 C   0  0  0  0  0  0  0  0  0  0  0  0
  1 13  1  0
  2 12  1  0
  3  4  1  0
  3  5  1  0
  3  6  1  0
  4  7  1  0
  4  8  1  0
  4  9  1  0
  5 10  1  0
  6 11  1  0
 10 12  1  0
 11 13  2  0
 11 14  1  0
 13 15  1  0
 14 16  2  0
 15 17  2  0
 16 17  1  0
M  END
>  <PUBCHEM_COMPOUND_CID>  (1) 
38553

>  <PUBCHEM_CONFORMER_RMSD>  (1) 
0.8

>  <PUBCHEM_CONFORMER_DIVERSEORDER>  (1) 
1
10
3
5
11
4
7
12
6
8
9
2

>  <PUBCHEM_MMFF94_PARTIAL_CHARGES>  (1) 
17
1 -0.11
11 -0.14
12 0.29
13 0.11
14 -0.15
15 -0.15
16 -0.15
17 -0.15
2 -0.29
3 -0.81
35 0.15
36 0.15
37 0.15
38 0.15
4 0.27
5 0.27
6 0.41

>  <PUBCHEM_EFFECTIVE_ROTOR_COUNT>  (1) 
6

>  <PUBCHEM_PHARMACOPHORE_FEATURES>  (1) 
4
1 1 hydrophobe
1 3 cation
4 4 7 8 9 hydrophobe
6 11 13 14 15 16 17 rings

>  <PUBCHEM_HEAVY_ATOM_COUNT>  (1) 
17

>  <PUBCHEM_ATOM_DEF_STEREO_COUNT>  (1) 
0

>  <PUBCHEM_ATOM_UDEF_STEREO_COUNT>  (1) 
0

>  <PUBCHEM_BOND_DEF_STEREO_COUNT>  (1) 
0

>  <PUBCHEM_BOND_UDEF_STEREO_COUNT>  (1) 
0

>  <PUBCHEM_ISOTOPIC_ATOM_COUNT>  (1) 
0

>  <PUBCHEM_COMPONENT_COUNT>  (1) 
1

>  <PUBCHEM_CACTVS_TAUTO_COUNT>  (1) 
1

>  <PUBCHEM_CONFORMER_ID>  (1) 
0000969900000001

>  <PUBCHEM_MMFF94_ENERGY>  (1) 
72.5864

>  <PUBCHEM_FEATURE_SELFOVERLAP>  (1) 
20.297

>  <PUBCHEM_SHAPE_FINGERPRINT>  (1) 
11578080 2 18199163192457244921
12202030 40 16806187534697399115
12251169 10 18201157654914756067
12553582 1 18265616489897357918
13140716 1 18339923692988069800
13533116 47 18335987558132273083
14178342 30 18196083563223485331
14787075 74 17047389848677340717
15099037 8 18413385441032407571
15279307 12 18126570260720360263
15375462 189 18410582777276716182
15442244 35 18340773641325142211
16945 1 18191581067598109581
17780758 139 17914038808137070354
1813 80 18043826277365750350
18981168 100 12535056606846792041
20291156 8 18263642866615014642
20559304 39 18342178898795138688
20645477 70 18115571764588408711
21452121 199 18187074019549590184
22112679 90 18268440048647091492
22445834 79 18340495551051718549
2255824 54 18192437583009002820
23598291 2 18341059527270312455
23622692 88 18198349442304054657
23728640 28 16747872431310298619
2748010 2 18191284036376414484
4409770 3 17468752996814066948
458136 41 17971488535089466948
5486654 36 18189630362129876803
6992083 37 18197506116690423585
7097593 13 18342182132963496091
7364860 26 18340203085306542422
81228 2 17614828627144032740

>  <PUBCHEM_SHAPE_MULTIPOLES>  (1) 
352.68
7.01
3.32
1.37
0.58
0.1
0.14
-5.06
2.05
2.55
0.34
-0.21
0.33
-1.97

>  <PUBCHEM_SHAPE_SELFOVERLAP>  (1) 
690.294

>  <PUBCHEM_SHAPE_VOLUME>  (1) 
219.2

>  <PUBCHEM_COORDINATE_TYPE>  (1) 
2
5
10

$$$$
