38561
     RDKit          3D

 17 17  0  0  1  0  0  0  0  0999 V2000
   -1.8190    0.2125    2.7355 Br  0  0  0  0  0  0  0  0  0  0  0  0
    4.0702   -2.9134    0.8246 Cl  0  0  0  0  0  0  0  0  0  0  0  0
    0.1363    1.4257   -0.1924 N   0  0  0  0  0  0  0  0  0  0  0  0
    0.4944    0.7020   -1.4060 C   0  0  0  0  0  0  0  0  0  0  0  0
    2.0020    0.4633   -1.5066 C   0  0  0  0  0  0  0  0  0  0  0  0
    2.5674   -0.3224   -0.3183 C   0  0  0  0  0  0  0  0  0  0  0  0
   -1.3152    1.5948   -0.1020 C   0  0  0  0  0  0  0  0  0  0  0  0
    0.8022    2.7290   -0.1532 C   0  0  0  0  0  0  0  0  0  0  0  0
    4.0882   -0.4729   -0.4302 C   0  0  0  0  0  0  0  0  0  0  0  0
   -2.0372    0.2741   -0.1390 C   0  0  0  0  0  0  0  0  0  0  0  0
    0.4902    3.4664    1.1380 C   0  0  0  0  0  0  0  0  0  0  0  0
    4.7038   -1.2543    0.7262 C   0  0  0  0  0  0  0  0  0  0  0  0
   -2.3195   -0.4322    1.0235 C   0  0  0  0  0  0  0  0  0  0  0  0
   -2.4151   -0.2211   -1.3814 C   0  0  0  0  0  0  0  0  0  0  0  0
   -2.9902   -1.6526    0.9429 C   0  0  0  0  0  0  0  0  0  0  0  0
   -3.0856   -1.4416   -1.4618 C   0  0  0  0  0  0  0  0  0  0  0  0
   -3.3731   -2.1574   -0.2998 C   0  0  0  0  0  0  0  0  0  0  0  0
  1 13  1  0
  2 12  1  0
  3  4  1  0
  3  7  1  0
  3  8  1  0
  4  5  1  0
  5  6  1  0
  6  9  1  0
  7 10  1  0
  8 11  1  0
  9 12  1  0
 10 13  2  0
 10 14  1  0
 13 15  1  0
 14 16  2  0
 15 17  2  0
 16 17  1  0
M  END
>  <PUBCHEM_COMPOUND_CID>  (1) 
38561

>  <PUBCHEM_CONFORMER_RMSD>  (1) 
0.8

>  <PUBCHEM_CONFORMER_DIVERSEORDER>  (1) 
1
158
163
34
106
193
100
159
185
168
29
133
108
143
41
184
31
183
167
190
63
105
97
174
22
128
200
104
39
191
6
54
82
70
99
56
165
49
118
125
172
146
47
107
109
175
8
176
76
44
156
117
51
57
90
131
139
115
33
134
179
80
83
103
13
177
87
152
160
171
38
180
48
64
17
30
187
2
114
186
92
7
37
147
124
129
95
102
36
198
59
157
65
50
138
189
19
182
91
150
141
60
113
11
98
78
26
40
93
181
119
69
62
16
85
20
72
142
58
89
154
25
23
127
96
148
137
178
166
32
61
28
46
144
116
14
79
173
135
88
86
164
18
170
123
84
15
3
195
71
24
188
162
112
132
67
161
120
52
21
110
121
53
101
151
74
68
81
45
140
42
153
169
35
75
130
77
196
43
94
145
126
149
55
136
199
9
27
4
155
73
66
111
201
12
194
197
122
5
10
202
192

>  <PUBCHEM_MMFF94_PARTIAL_CHARGES>  (1) 
17
1 -0.11
10 -0.14
12 0.29
13 0.11
14 -0.15
15 -0.15
16 -0.15
17 -0.15
2 -0.29
3 -0.81
35 0.15
36 0.15
37 0.15
38 0.15
4 0.27
7 0.41
8 0.27

>  <PUBCHEM_EFFECTIVE_ROTOR_COUNT>  (1) 
8

>  <PUBCHEM_PHARMACOPHORE_FEATURES>  (1) 
3
1 1 hydrophobe
1 3 cation
6 10 13 14 15 16 17 rings

>  <PUBCHEM_HEAVY_ATOM_COUNT>  (1) 
17

>  <PUBCHEM_ATOM_DEF_STEREO_COUNT>  (1) 
0

>  <PUBCHEM_ATOM_UDEF_STEREO_COUNT>  (1) 
0

>  <PUBCHEM_BOND_DEF_STEREO_COUNT>  (1) 
0

>  <PUBCHEM_BOND_UDEF_STEREO_COUNT>  (1) 
0

>  <PUBCHEM_ISOTOPIC_ATOM_COUNT>  (1) 
0

>  <PUBCHEM_COMPONENT_COUNT>  (1) 
1

>  <PUBCHEM_CACTVS_TAUTO_COUNT>  (1) 
1

>  <PUBCHEM_CONFORMER_ID>  (1) 
000096A100000001

>  <PUBCHEM_MMFF94_ENERGY>  (1) 
33.3182

>  <PUBCHEM_FEATURE_SELFOVERLAP>  (1) 
15.223

>  <PUBCHEM_SHAPE_FINGERPRINT>  (1) 
11137873 295 17676211272903911239
12202030 40 17462021052257726537
12363563 72 18408041818795089550
12553582 1 18270135581307767310
12633257 1 17560242406010294450
12824470 246 18270126858503761699
13296909 8 16415487042855691981
13544653 18 18261112976400733764
14178342 30 17488486133766202311
14251757 17 16226053314219824802
14251764 38 9004475206959601366
14787075 74 18266749167795181252
15342168 16 9655312431554358407
15375462 189 18266478644357087500
15475509 35 17829069919711007219
20671657 53 18339355374583874477
21475661 188 11452292611817047195
21650355 55 18271240509000274364
23526113 38 17458908274372574104
23532345 11 17346054276338169639
23559900 14 18261099761008286844
23598288 3 18048347503132844916
23728640 28 18050286968560602489
27216 239 12247676080385587671
4921388 177 15213309633369537931
5262128 65 15502948548261774039
81228 2 17912663318631831636
85463 6 18272649034908565822
90316 7 18200883863745541540

>  <PUBCHEM_SHAPE_MULTIPOLES>  (1) 
352.68
7.62
3.26
1.95
8.29
1.57
0.91
-7.7
0.69
1.15
0.91
-1.23
0.01
-1.2

>  <PUBCHEM_SHAPE_SELFOVERLAP>  (1) 
674.907

>  <PUBCHEM_SHAPE_VOLUME>  (1) 
221

>  <PUBCHEM_COORDINATE_TYPE>  (1) 
2
5
10

$$$$
