38576
     RDKit          3D

 34 37  0  0  1  0  0  0  0  0999 V2000
    0.5522    0.8337   -1.1395 O   0  0  0  0  0  0  0  0  0  0  0  0
    1.4375   -2.8178   -1.1016 O   0  0  0  0  0  0  0  0  0  0  0  0
    5.1195    2.0511   -0.1625 O   0  0  0  0  0  0  0  0  0  0  0  0
    3.6649   -2.2965    0.7338 O   0  0  0  0  0  0  0  0  0  0  0  0
    2.4973    2.8145   -1.1703 O   0  0  0  0  0  0  0  0  0  0  0  0
   -5.3280   -1.4862   -0.6250 O   0  0  0  0  0  0  0  0  0  0  0  0
   -2.7032    2.0765    0.0622 N   0  0  0  0  0  0  0  0  0  0  0  0
   -4.0105    2.2168   -0.5945 C   0  0  0  0  0  0  0  0  0  0  0  0
   -2.2692    3.3477    0.6587 C   0  0  0  0  0  0  0  0  0  0  0  0
   -5.0795    2.6789    0.3971 C   0  0  0  0  0  0  0  0  0  0  0  0
   -3.2813    3.8467    1.6910 C   0  0  0  0  0  0  0  0  0  0  0  0
   -4.6738    3.9775    1.0846 C   0  0  0  0  0  0  0  0  0  0  0  0
   -1.7033    1.5893   -0.8875 C   0  0  0  0  0  0  0  0  0  0  0  0
   -0.3821    1.3203   -0.1849 C   0  0  0  0  0  0  0  0  0  0  0  0
    2.1071   -0.7244   -0.2069 C   0  0  0  0  0  0  0  0  0  0  0  0
    1.0419   -1.7766   -0.1985 C   0  0  0  0  0  0  0  0  0  0  0  0
    1.8137    0.5542   -0.6828 C   0  0  0  0  0  0  0  0  0  0  0  0
    0.7686   -2.4187    1.1796 C   0  0  0  0  0  0  0  0  0  0  0  0
    3.3878   -1.0403    0.2671 C   0  0  0  0  0  0  0  0  0  0  0  0
    2.7783    1.5635   -0.7053 C   0  0  0  0  0  0  0  0  0  0  0  0
    4.3767   -0.0411    0.2549 C   0  0  0  0  0  0  0  0  0  0  0  0
   -0.3641   -3.4537    1.1968 C   0  0  0  0  0  0  0  0  0  0  0  0
    4.0417    1.2198   -0.2278 C   0  0  0  0  0  0  0  0  0  0  0  0
   -1.6908   -2.9276    0.7096 C   0  0  0  0  0  0  0  0  0  0  0  0
    5.7429    0.0410    0.6332 C   0  0  0  0  0  0  0  0  0  0  0  0
    6.1442    1.3280    0.3597 C   0  0  0  0  0  0  0  0  0  0  0  0
   -2.5729   -2.3617    1.6171 C   0  0  0  0  0  0  0  0  0  0  0  0
   -2.0059   -3.0192   -0.6375 C   0  0  0  0  0  0  0  0  0  0  0  0
    4.6927   -3.0179    0.0635 C   0  0  0  0  0  0  0  0  0  0  0  0
    2.6628    3.8960   -0.2565 C   0  0  0  0  0  0  0  0  0  0  0  0
   -3.8002   -1.8753    1.1666 C   0  0  0  0  0  0  0  0  0  0  0  0
   -3.2332   -2.5327   -1.0881 C   0  0  0  0  0  0  0  0  0  0  0  0
   -4.1303   -1.9607   -0.1860 C   0  0  0  0  0  0  0  0  0  0  0  0
   -5.6016   -1.6050   -2.0203 C   0  0  0  0  0  0  0  0  0  0  0  0
  1 14  1  0
  1 17  1  0
  2 16  1  0
  3 23  1  0
  3 26  1  0
  4 19  1  0
  4 29  1  0
  5 20  1  0
  5 30  1  0
  6 33  1  0
  6 34  1  0
  7  8  1  0
  7  9  1  0
  7 13  1  0
  8 10  1  0
  9 11  1  0
 10 12  1  0
 11 12  1  0
 13 14  1  0
 15 16  1  0
 15 17  2  0
 15 19  1  0
 16 18  1  0
 17 20  1  0
 18 22  1  0
 19 21  2  0
 20 23  2  0
 21 23  1  0
 21 25  1  0
 22 24  1  0
 24 27  2  0
 24 28  1  0
 25 26  2  0
 27 31  1  0
 28 32  2  0
 31 33  2  0
 32 33  1  0
M  END
>  <PUBCHEM_COMPOUND_CID>  (1) 
38576

>  <PUBCHEM_CONFORMER_RMSD>  (1) 
1.2

>  <PUBCHEM_CONFORMER_DIVERSEORDER>  (1) 
1
16
69
47
41
67
73
2
19
34
26
42
7
33
44
40
8
18
60
71
46
51
74
52
11
55
68
20
50
24
35
38
9
54
49
61
53
45
4
66
28
31
12
21
62
63
32
36
56
65
37
22
72
17
23
43
64
59
13
25
48
10
39
3
6
29
5
30
70
15
14
57
58
27

>  <PUBCHEM_MMFF94_PARTIAL_CHARGES>  (1) 
36
1 -0.36
13 0.27
14 0.28
15 -0.14
16 0.42
17 0.08
19 0.08
2 -0.68
20 0.08
22 0.14
23 0.14
24 -0.14
25 -0.15
26 -0.01
27 -0.15
28 -0.15
29 0.28
3 -0.28
30 0.28
31 -0.15
32 -0.15
33 0.08
34 0.28
4 -0.36
5 -0.36
54 0.15
55 0.4
56 0.15
57 0.15
58 0.15
6 -0.36
65 0.15
66 0.15
7 -0.81
8 0.27
9 0.27

>  <PUBCHEM_EFFECTIVE_ROTOR_COUNT>  (1) 
12.2

>  <PUBCHEM_PHARMACOPHORE_FEATURES>  (1) 
12
1 1 acceptor
1 2 acceptor
1 2 donor
1 3 acceptor
1 4 acceptor
1 5 acceptor
1 6 acceptor
1 7 cation
5 3 21 23 25 26 rings
6 15 17 19 20 21 23 rings
6 24 27 28 31 32 33 rings
6 7 8 9 10 11 12 rings

>  <PUBCHEM_HEAVY_ATOM_COUNT>  (1) 
34

>  <PUBCHEM_ATOM_DEF_STEREO_COUNT>  (1) 
0

>  <PUBCHEM_ATOM_UDEF_STEREO_COUNT>  (1) 
1

>  <PUBCHEM_BOND_DEF_STEREO_COUNT>  (1) 
0

>  <PUBCHEM_BOND_UDEF_STEREO_COUNT>  (1) 
0

>  <PUBCHEM_ISOTOPIC_ATOM_COUNT>  (1) 
0

>  <PUBCHEM_COMPONENT_COUNT>  (1) 
1

>  <PUBCHEM_CACTVS_TAUTO_COUNT>  (1) 
1

>  <PUBCHEM_CONFORMER_ID>  (1) 
000096B000000001

>  <PUBCHEM_MMFF94_ENERGY>  (1) 
106.0631

>  <PUBCHEM_FEATURE_SELFOVERLAP>  (1) 
61.01

>  <PUBCHEM_SHAPE_FINGERPRINT>  (1) 
10190206 1 17682148765165777748
10439779 11 18409720777609402272
1100329 8 18192432974456145050
11513181 2 18272655606077271271
11646440 116 18265058123069557107
12107183 9 18121212083219197682
12422481 6 18190488020249393195
12788726 201 18195262219706428725
13140716 1 18262796238756933186
140371 6 18189060965308808654
14394314 77 18412830205578994697
14705955 166 18053636322188379744
15351339 4 18262499478102308019
16112460 7 18335702680886894409
18603816 31 13913700139814049128
21133410 38 18341613656147001743
21236236 1 18409447003113342484
23558518 356 18336273383330287399
23559900 14 18046338901705356548
338550 245 18260556618673693628
350125 39 18045782553739356508
3633792 109 18119798120299209909
5104073 3 18262784238918735768
5171179 24 17773301547341045609
56638632 10 16174001652066396016
6036956 94 18046633579623019309
6287921 2 16904678183653695323
653340 110 18411136956711708024
7226269 152 18191302882497769114

>  <PUBCHEM_SHAPE_MULTIPOLES>  (1) 
659.51
12.89
6.03
1.35
4.1
2.25
0.02
3.82
-0.1
-5.02
1.38
-1.48
-0.29
-2.3

>  <PUBCHEM_SHAPE_SELFOVERLAP>  (1) 
1404.431

>  <PUBCHEM_SHAPE_VOLUME>  (1) 
369.7

>  <PUBCHEM_COORDINATE_TYPE>  (1) 
2
5
10

$$$$
