3858
     RDKit          3D

 15 15  0  0  1  0  0  0  0  0999 V2000
    0.1960   -2.3850    1.4620 O   0  0  0  0  0  0  0  0  0  0  0  0
    0.9231   -2.7718   -0.6516 O   0  0  0  0  0  0  0  0  0  0  0  0
    4.0404    1.4063   -0.7255 O   0  0  0  0  0  0  0  0  0  0  0  0
    2.4439    1.9631    0.7929 O   0  0  0  0  0  0  0  0  0  0  0  0
    1.0766   -0.5179    0.2204 C   0  0  0  0  0  0  0  0  0  0  0  0
    0.2253    0.1728   -0.8623 C   0  0  0  0  0  0  0  0  0  0  0  0
    2.5902   -0.3291    0.0342 C   0  0  0  0  0  0  0  0  0  0  0  0
   -1.2170    0.3726   -0.4676 C   0  0  0  0  0  0  0  0  0  0  0  0
    0.7301   -1.9967    0.2773 C   0  0  0  0  0  0  0  0  0  0  0  0
   -2.1451   -0.6150   -0.7592 C   0  0  0  0  0  0  0  0  0  0  0  0
   -1.5895    1.5406    0.1796 C   0  0  0  0  0  0  0  0  0  0  0  0
    2.9954    1.1244    0.0925 C   0  0  0  0  0  0  0  0  0  0  0  0
   -3.4787   -0.4301   -0.3945 C   0  0  0  0  0  0  0  0  0  0  0  0
   -2.9230    1.7255    0.5444 C   0  0  0  0  0  0  0  0  0  0  0  0
   -3.8677    0.7401    0.2574 C   0  0  0  0  0  0  0  0  0  0  0  0
  1  9  1  0
  2  9  2  0
  3 12  1  0
  4 12  2  0
  5  6  1  0
  5  7  1  0
  5  9  1  0
  6  8  1  0
  7 12  1  0
  8 10  2  0
  8 11  1  0
 10 13  1  0
 11 14  2  0
 13 15  2  0
 14 15  1  0
M  END
>  <PUBCHEM_COMPOUND_CID>  (1) 
3858

>  <PUBCHEM_CONFORMER_RMSD>  (1) 
0.6

>  <PUBCHEM_CONFORMER_DIVERSEORDER>  (1) 
1
20
77
3
74
5
31
49
79
51
72
8
76
34
6
50
73
66
54
4
62
68
33
21
30
59
65
45
64
52
47
63
37
7
12
69
44
13
75
25
58
29
67
27
36
60
56
35
53
24
26
28
46
38
55
78
11
17
57
61
41
39
43
48
15
32
10
22
14
9
23
70
40
71
42
2
16
19
18

>  <PUBCHEM_MMFF94_PARTIAL_CHARGES>  (1) 
22
1 -0.65
10 -0.15
11 -0.15
12 0.66
13 -0.15
14 -0.15
15 -0.15
2 -0.57
21 0.15
22 0.15
23 0.15
24 0.15
25 0.15
26 0.5
27 0.5
3 -0.65
4 -0.57
5 0.06
6 0.14
7 0.06
8 -0.14
9 0.66

>  <PUBCHEM_EFFECTIVE_ROTOR_COUNT>  (1) 
5

>  <PUBCHEM_PHARMACOPHORE_FEATURES>  (1) 
7
1 1 acceptor
1 2 acceptor
1 3 acceptor
1 4 acceptor
3 1 2 9 anion
3 3 4 12 anion
6 8 10 11 13 14 15 rings

>  <PUBCHEM_HEAVY_ATOM_COUNT>  (1) 
15

>  <PUBCHEM_ATOM_DEF_STEREO_COUNT>  (1) 
0

>  <PUBCHEM_ATOM_UDEF_STEREO_COUNT>  (1) 
1

>  <PUBCHEM_BOND_DEF_STEREO_COUNT>  (1) 
0

>  <PUBCHEM_BOND_UDEF_STEREO_COUNT>  (1) 
0

>  <PUBCHEM_ISOTOPIC_ATOM_COUNT>  (1) 
0

>  <PUBCHEM_COMPONENT_COUNT>  (1) 
1

>  <PUBCHEM_CACTVS_TAUTO_COUNT>  (1) 
1

>  <PUBCHEM_CONFORMER_ID>  (1) 
00000F1200000001

>  <PUBCHEM_MMFF94_ENERGY>  (1) 
29.939

>  <PUBCHEM_FEATURE_SELFOVERLAP>  (1) 
35.639

>  <PUBCHEM_SHAPE_FINGERPRINT>  (1) 
10922049 32 18340775913658357926
10980938 120 18340767031365439273
12346645 44 18411698789847012052
12932764 1 17972325014636017373
13764800 53 18118122713110698584
14648413 74 17983018847384549127
14787075 74 18121215652315505327
15309172 13 18040433321514938676
15775835 57 18341897389453720220
16945 1 18271796917591559119
170605 34 18411702049748275719
18186145 218 18411698785873973772
19873495 37 18202002157006353422
201361 129 18341335470292164265
204376 136 18041000686710428036
20559304 39 18198900301555214016
20645477 70 18266451015312384031
21501502 16 18270394976110601991
21524375 3 18408879655340367338
22445834 79 18193275191978737251
23236772 104 18413386549318228749
23419403 2 13563387896477323622
25 1 18412267216284629868
458136 41 18335152963780550450
474 4 18333736831358700813
57003041 12 18340770433243243105
6333272 397 18334859475627403464
7364860 26 18198343957256394662
81228 2 17686045498402965610
81539 233 18334573512393784685

>  <PUBCHEM_SHAPE_MULTIPOLES>  (1) 
285.22
6.22
2.46
0.94
0.56
1.12
0.09
-3.37
-0.21
-1.23
0.47
-0.05
0.21
-0.43

>  <PUBCHEM_SHAPE_SELFOVERLAP>  (1) 
586.314

>  <PUBCHEM_SHAPE_VOLUME>  (1) 
162.7

>  <PUBCHEM_COORDINATE_TYPE>  (1) 
2
5
10

$$$$
