38580
     RDKit          3D

 31 34  0  0  1  0  0  0  0  0999 V2000
   -0.8198    0.2643    0.6617 O   0  0  0  0  0  0  0  0  0  0  0  0
    1.7308   -1.3692    2.8839 O   0  0  0  0  0  0  0  0  0  0  0  0
    2.5880    3.0104   -1.3815 O   0  0  0  0  0  0  0  0  0  0  0  0
    3.8374   -0.8663    0.9057 O   0  0  0  0  0  0  0  0  0  0  0  0
   -0.2285    2.5427   -0.8141 O   0  0  0  0  0  0  0  0  0  0  0  0
   -3.5758    0.9059    0.9303 N   0  0  0  0  0  0  0  0  0  0  0  0
   -3.9298    2.3126    1.1168 C   0  0  0  0  0  0  0  0  0  0  0  0
   -4.8535    0.2087    0.7866 C   0  0  0  0  0  0  0  0  0  0  0  0
   -5.0414    2.5216    0.0991 C   0  0  0  0  0  0  0  0  0  0  0  0
   -5.6507    1.1395   -0.1152 C   0  0  0  0  0  0  0  0  0  0  0  0
   -2.7782    0.3832    2.0297 C   0  0  0  0  0  0  0  0  0  0  0  0
   -1.3226    0.7958    1.8805 C   0  0  0  0  0  0  0  0  0  0  0  0
    1.5044   -0.2965    0.7798 C   0  0  0  0  0  0  0  0  0  0  0  0
    1.1641   -1.5184    1.5752 C   0  0  0  0  0  0  0  0  0  0  0  0
    0.4831    0.5553    0.3515 C   0  0  0  0  0  0  0  0  0  0  0  0
    1.6734   -2.8479    0.9755 C   0  0  0  0  0  0  0  0  0  0  0  0
    2.8462   -0.0251    0.4785 C   0  0  0  0  0  0  0  0  0  0  0  0
    0.7625    1.7064   -0.3912 C   0  0  0  0  0  0  0  0  0  0  0  0
    3.1502    1.1272   -0.2674 C   0  0  0  0  0  0  0  0  0  0  0  0
    1.4987   -2.9804   -0.5431 C   0  0  0  0  0  0  0  0  0  0  0  0
    2.1051    1.9498   -0.6751 C   0  0  0  0  0  0  0  0  0  0  0  0
    0.0759   -2.8247   -1.0185 C   0  0  0  0  0  0  0  0  0  0  0  0
    4.3346    1.7345   -0.7616 C   0  0  0  0  0  0  0  0  0  0  0  0
    3.9386    2.8707   -1.4284 C   0  0  0  0  0  0  0  0  0  0  0  0
   -0.1827   -2.3062   -2.2874 C   0  0  0  0  0  0  0  0  0  0  0  0
   -0.9816   -3.1997   -0.1897 C   0  0  0  0  0  0  0  0  0  0  0  0
    4.8272   -0.3087    1.7633 C   0  0  0  0  0  0  0  0  0  0  0  0
   -0.8042    2.2701   -2.0894 C   0  0  0  0  0  0  0  0  0  0  0  0
   -1.4985   -2.1623   -2.7274 C   0  0  0  0  0  0  0  0  0  0  0  0
   -2.2975   -3.0559   -0.6297 C   0  0  0  0  0  0  0  0  0  0  0  0
   -2.5557   -2.5372   -1.8986 C   0  0  0  0  0  0  0  0  0  0  0  0
  1 12  1  0
  1 15  1  0
  2 14  1  0
  3 21  1  0
  3 24  1  0
  4 17  1  0
  4 27  1  0
  5 18  1  0
  5 28  1  0
  6  7  1  0
  6  8  1  0
  6 11  1  0
  7  9  1  0
  8 10  1  0
  9 10  1  0
 11 12  1  0
 13 14  1  0
 13 15  2  0
 13 17  1  0
 14 16  1  0
 15 18  1  0
 16 20  1  0
 17 19  2  0
 18 21  2  0
 19 21  1  0
 19 23  1  0
 20 22  1  0
 22 25  2  0
 22 26  1  0
 23 24  2  0
 25 29  1  0
 26 30  2  0
 29 31  2  0
 30 31  1  0
M  END
>  <PUBCHEM_COMPOUND_CID>  (1) 
38580

>  <PUBCHEM_CONFORMER_RMSD>  (1) 
1

>  <PUBCHEM_CONFORMER_DIVERSEORDER>  (1) 
1
103
144
96
104
76
2
70
46
9
7
125
50
75
37
81
111
47
65
112
98
84
42
130
73
142
133
107
5
147
115
10
93
68
99
80
139
58
92
145
89
8
116
117
61
25
91
102
101
86
105
129
13
38
21
100
48
113
63
72
14
57
132
41
150
35
30
114
90
83
56
85
77
106
121
24
120
12
122
87
109
66
44
131
143
32
54
149
135
69
118
51
140
67
23
88
138
33
62
78
126
59
49
71
124
28
82
4
119
95
19
148
27
26
141
94
136
110
128
79
16
123
137
34
127
97
108
146
64
74
17
36
43
134
18
6
11
15
29
45
40
55
20
31
22
3
53
52
39
60

>  <PUBCHEM_MMFF94_PARTIAL_CHARGES>  (1) 
35
1 -0.36
11 0.27
12 0.28
13 -0.14
14 0.42
15 0.08
17 0.08
18 0.08
2 -0.68
20 0.14
21 0.14
22 -0.14
23 -0.15
24 -0.01
25 -0.15
26 -0.15
27 0.28
28 0.28
29 -0.15
3 -0.28
30 -0.15
31 -0.15
4 -0.36
49 0.15
5 -0.36
50 0.4
51 0.15
52 0.15
53 0.15
6 -0.81
60 0.15
61 0.15
62 0.15
7 0.27
8 0.27

>  <PUBCHEM_EFFECTIVE_ROTOR_COUNT>  (1) 
11

>  <PUBCHEM_PHARMACOPHORE_FEATURES>  (1) 
11
1 1 acceptor
1 2 acceptor
1 2 donor
1 3 acceptor
1 4 acceptor
1 5 acceptor
1 6 cation
5 3 19 21 23 24 rings
5 6 7 8 9 10 rings
6 13 15 17 18 19 21 rings
6 22 25 26 29 30 31 rings

>  <PUBCHEM_HEAVY_ATOM_COUNT>  (1) 
31

>  <PUBCHEM_ATOM_DEF_STEREO_COUNT>  (1) 
0

>  <PUBCHEM_ATOM_UDEF_STEREO_COUNT>  (1) 
1

>  <PUBCHEM_BOND_DEF_STEREO_COUNT>  (1) 
0

>  <PUBCHEM_BOND_UDEF_STEREO_COUNT>  (1) 
0

>  <PUBCHEM_ISOTOPIC_ATOM_COUNT>  (1) 
0

>  <PUBCHEM_COMPONENT_COUNT>  (1) 
1

>  <PUBCHEM_CACTVS_TAUTO_COUNT>  (1) 
1

>  <PUBCHEM_CONFORMER_ID>  (1) 
000096B400000001

>  <PUBCHEM_MMFF94_ENERGY>  (1) 
95.2075

>  <PUBCHEM_FEATURE_SELFOVERLAP>  (1) 
55.933

>  <PUBCHEM_SHAPE_FINGERPRINT>  (1) 
12156800 1 17416951984440631727
12422481 6 18199171915783632586
12608794 3 17968917787178788754
12788726 201 17911522304655407438
133893 2 17698192580913048923
14114206 34 17695334164039293127
14251751 93 18197794390705735335
15324884 4 17402304011652623778
16752209 62 17915459608523680167
17138139 8 17631428199450018589
20511986 3 18336252526737347129
20600515 1 16823020207231261504
20764821 26 16823346187027831915
21860390 5 18041854899823652277
22121540 332 15837105448461643971
23559900 14 17698165050214938025
3052486 1 17988634254999286155
338550 245 18342454820374146823
35225 105 17703502290114497213
4340502 62 17846493691043462099

>  <PUBCHEM_SHAPE_MULTIPOLES>  (1) 
603.64
8.74
4.54
2.37
5.41
1.95
-0.09
-6.96
1.82
0.62
-2.4
-0.23
0.67
-3.01

>  <PUBCHEM_SHAPE_SELFOVERLAP>  (1) 
1295.781

>  <PUBCHEM_SHAPE_VOLUME>  (1) 
336.7

>  <PUBCHEM_COORDINATE_TYPE>  (1) 
2
5
10

$$$$
