38596
     RDKit          3D

 33 36  0  0  1  0  0  0  0  0999 V2000
    0.2988    0.5933    1.2967 O   0  0  0  0  0  0  0  0  0  0  0  0
    1.9832   -2.7590    1.4887 O   0  0  0  0  0  0  0  0  0  0  0  0
    4.3846    2.6579   -0.2432 O   0  0  0  0  0  0  0  0  0  0  0  0
    3.8804   -1.9720   -0.6053 O   0  0  0  0  0  0  0  0  0  0  0  0
    1.7462    2.9397    0.9540 O   0  0  0  0  0  0  0  0  0  0  0  0
   -5.1940   -1.5253    0.2006 O   0  0  0  0  0  0  0  0  0  0  0  0
   -3.0575    1.6982    0.2472 N   0  0  0  0  0  0  0  0  0  0  0  0
   -4.2833    1.9090    1.0301 C   0  0  0  0  0  0  0  0  0  0  0  0
   -2.8044    2.8281   -0.6579 C   0  0  0  0  0  0  0  0  0  0  0  0
   -5.4980    2.0825    0.1171 C   0  0  0  0  0  0  0  0  0  0  0  0
   -3.9708    3.0316   -1.6263 C   0  0  0  0  0  0  0  0  0  0  0  0
   -5.2861    3.2175   -0.8784 C   0  0  0  0  0  0  0  0  0  0  0  0
   -1.9139    1.4871    1.1343 C   0  0  0  0  0  0  0  0  0  0  0  0
   -0.7952    0.7612    0.4045 C   0  0  0  0  0  0  0  0  0  0  0  0
    2.0875   -0.6822    0.3461 C   0  0  0  0  0  0  0  0  0  0  0  0
    1.2912   -1.9350    0.5408 C   0  0  0  0  0  0  0  0  0  0  0  0
    1.5496    0.5461    0.7387 C   0  0  0  0  0  0  0  0  0  0  0  0
    1.0575   -2.7637   -0.7418 C   0  0  0  0  0  0  0  0  0  0  0  0
    3.3642   -0.7624   -0.2269 C   0  0  0  0  0  0  0  0  0  0  0  0
    2.2642    1.7364    0.5745 C   0  0  0  0  0  0  0  0  0  0  0  0
    4.1006    0.4224   -0.4015 C   0  0  0  0  0  0  0  0  0  0  0  0
   -0.0786   -3.7908   -0.6492 C   0  0  0  0  0  0  0  0  0  0  0  0
    3.5301    1.6250    0.0023 C   0  0  0  0  0  0  0  0  0  0  0  0
   -1.4419   -3.1873   -0.4222 C   0  0  0  0  0  0  0  0  0  0  0  0
    5.3784    0.7569   -0.9223 C   0  0  0  0  0  0  0  0  0  0  0  0
    5.5003    2.1220   -0.8033 C   0  0  0  0  0  0  0  0  0  0  0  0
   -1.9074   -2.9830    0.8768 C   0  0  0  0  0  0  0  0  0  0  0  0
   -2.2374   -2.8331   -1.5118 C   0  0  0  0  0  0  0  0  0  0  0  0
    5.0927   -2.3768    0.0214 C   0  0  0  0  0  0  0  0  0  0  0  0
    1.5894    3.9259   -0.0633 C   0  0  0  0  0  0  0  0  0  0  0  0
   -3.1684   -2.4246    1.0861 C   0  0  0  0  0  0  0  0  0  0  0  0
   -3.4983   -2.2748   -1.3026 C   0  0  0  0  0  0  0  0  0  0  0  0
   -3.9639   -2.0706   -0.0037 C   0  0  0  0  0  0  0  0  0  0  0  0
  1 14  1  0
  1 17  1  0
  2 16  1  0
  3 23  1  0
  3 26  1  0
  4 19  1  0
  4 29  1  0
  5 20  1  0
  5 30  1  0
  6 33  1  0
  7  8  1  0
  7  9  1  0
  7 13  1  0
  8 10  1  0
  9 11  1  0
 10 12  1  0
 11 12  1  0
 13 14  1  0
 15 16  1  0
 15 17  2  0
 15 19  1  0
 16 18  1  0
 17 20  1  0
 18 22  1  0
 19 21  2  0
 20 23  2  0
 21 23  1  0
 21 25  1  0
 22 24  1  0
 24 27  2  0
 24 28  1  0
 25 26  2  0
 27 31  1  0
 28 32  2  0
 31 33  2  0
 32 33  1  0
M  END
>  <PUBCHEM_COMPOUND_CID>  (1) 
38596

>  <PUBCHEM_CONFORMER_RMSD>  (1) 
1.2

>  <PUBCHEM_CONFORMER_DIVERSEORDER>  (1) 
2
53
17
47
14
24
9
25
26
29
67
6
11
42
18
4
33
48
35
71
22
32
43
28
57
3
72
30
52
55
54
21
50
12
5
38
66
56
16
63
61
45
34
10
60
1
19
36
58
39
70
13
69
27
41
31
20
49
15
64
7
65
59
46
40
73
62
68
8
44
23
51
37

>  <PUBCHEM_MMFF94_PARTIAL_CHARGES>  (1) 
36
1 -0.36
13 0.27
14 0.28
15 -0.14
16 0.42
17 0.08
19 0.08
2 -0.68
20 0.08
22 0.14
23 0.14
24 -0.14
25 -0.15
26 -0.01
27 -0.15
28 -0.15
29 0.28
3 -0.28
30 0.28
31 -0.15
32 -0.15
33 0.08
4 -0.36
5 -0.36
53 0.15
54 0.4
55 0.15
56 0.15
57 0.15
6 -0.53
64 0.15
65 0.15
66 0.45
7 -0.81
8 0.27
9 0.27

>  <PUBCHEM_EFFECTIVE_ROTOR_COUNT>  (1) 
11.2

>  <PUBCHEM_PHARMACOPHORE_FEATURES>  (1) 
12
1 1 acceptor
1 2 acceptor
1 2 donor
1 3 acceptor
1 4 acceptor
1 5 acceptor
1 6 donor
1 7 cation
5 3 21 23 25 26 rings
6 15 17 19 20 21 23 rings
6 24 27 28 31 32 33 rings
6 7 8 9 10 11 12 rings

>  <PUBCHEM_HEAVY_ATOM_COUNT>  (1) 
33

>  <PUBCHEM_ATOM_DEF_STEREO_COUNT>  (1) 
0

>  <PUBCHEM_ATOM_UDEF_STEREO_COUNT>  (1) 
1

>  <PUBCHEM_BOND_DEF_STEREO_COUNT>  (1) 
0

>  <PUBCHEM_BOND_UDEF_STEREO_COUNT>  (1) 
0

>  <PUBCHEM_ISOTOPIC_ATOM_COUNT>  (1) 
0

>  <PUBCHEM_COMPONENT_COUNT>  (1) 
1

>  <PUBCHEM_CACTVS_TAUTO_COUNT>  (1) 
2

>  <PUBCHEM_CONFORMER_ID>  (1) 
000096C400000002

>  <PUBCHEM_MMFF94_ENERGY>  (1) 
91.6109

>  <PUBCHEM_FEATURE_SELFOVERLAP>  (1) 
61.008

>  <PUBCHEM_SHAPE_FINGERPRINT>  (1) 
1100329 8 18339080363886787890
11273773 38 18339361842894747621
12522641 33 18189892025736266997
12788726 201 18263634242114527723
13140716 1 18411417268411852906
1361 2 18337104550261255941
14117953 113 18052816944731719150
14790565 3 18411142449885520282
15276724 80 18338802324946866639
15575132 122 18410579517581297935
15968369 153 17986651827677505999
16112460 7 18271539615128822721
20764821 26 18341324514157633215
21857420 4 15086875318307996757
22393880 68 18411703188394864940
23559900 14 18199178503782656779
23576562 1 18261409819134427276
249057 3 18266179440188018998
3298306 158 18193274092546107213
338550 245 18409172133611762477
350125 39 18340774848306079897
460360 51 18335124398317094330
463206 1 18340484461209277124
469060 322 16515681187004427639
508706 21 18335426827948475880

>  <PUBCHEM_SHAPE_MULTIPOLES>  (1) 
638.93
11.93
5.86
1.25
0.62
0.48
0.08
-6.59
2.58
-3.15
0.98
-0.7
0.11
0.18

>  <PUBCHEM_SHAPE_SELFOVERLAP>  (1) 
1363.981

>  <PUBCHEM_SHAPE_VOLUME>  (1) 
357.2

>  <PUBCHEM_COORDINATE_TYPE>  (1) 
2
5
10

$$$$
