38598
     RDKit          3D

 33 35  0  0  1  0  0  0  0  0999 V2000
   -3.1185    1.2818    0.8675 O   0  0  0  0  0  0  0  0  0  0  0  0
   -1.4771   -0.9530    3.4033 O   0  0  0  0  0  0  0  0  0  0  0  0
   -3.8852   -2.4625   -2.0802 O   0  0  0  0  0  0  0  0  0  0  0  0
   -0.6704   -2.8201    1.2901 O   0  0  0  0  0  0  0  0  0  0  0  0
   -4.5427    0.2595   -1.2853 O   0  0  0  0  0  0  0  0  0  0  0  0
    6.5358    0.2363    0.1891 O   0  0  0  0  0  0  0  0  0  0  0  0
   -2.4388    4.6941   -0.3359 N   0  0  0  0  0  0  0  0  0  0  0  0
   -1.1442   -0.1925    2.2341 C   0  0  0  0  0  0  0  0  0  0  0  0
   -1.9009   -0.7650    1.0760 C   0  0  0  0  0  0  0  0  0  0  0  0
    0.3929   -0.2032    2.0797 C   0  0  0  0  0  0  0  0  0  0  0  0
    0.9232    0.5373    0.8448 C   0  0  0  0  0  0  0  0  0  0  0  0
   -2.8696    0.0100    0.4330 C   0  0  0  0  0  0  0  0  0  0  0  0
   -1.6232   -2.0721    0.6531 C   0  0  0  0  0  0  0  0  0  0  0  0
   -2.3406   -2.5951   -0.4371 C   0  0  0  0  0  0  0  0  0  0  0  0
   -3.5948   -0.4898   -0.6527 C   0  0  0  0  0  0  0  0  0  0  0  0
   -3.2967   -1.7919   -1.0502 C   0  0  0  0  0  0  0  0  0  0  0  0
    2.4190    0.4576    0.6701 C   0  0  0  0  0  0  0  0  0  0  0  0
   -2.3584   -3.8255   -1.1455 C   0  0  0  0  0  0  0  0  0  0  0  0
   -2.3512    2.3257    0.2759 C   0  0  0  0  0  0  0  0  0  0  0  0
   -3.1908    3.5928    0.2465 C   0  0  0  0  0  0  0  0  0  0  0  0
    2.9798   -0.5840   -0.0691 C   0  0  0  0  0  0  0  0  0  0  0  0
    3.2418    1.4248    1.2474 C   0  0  0  0  0  0  0  0  0  0  0  0
   -3.3105   -3.6926   -2.1294 C   0  0  0  0  0  0  0  0  0  0  0  0
    4.3632   -0.6583   -0.2310 C   0  0  0  0  0  0  0  0  0  0  0  0
    4.6251    1.3505    1.0857 C   0  0  0  0  0  0  0  0  0  0  0  0
    5.1858    0.3089    0.3464 C   0  0  0  0  0  0  0  0  0  0  0  0
   -1.1020   -4.0410    1.8809 C   0  0  0  0  0  0  0  0  0  0  0  0
   -4.3422    0.5188   -2.6726 C   0  0  0  0  0  0  0  0  0  0  0  0
   -2.9971    5.9820    0.0836 C   0  0  0  0  0  0  0  0  0  0  0  0
   -2.4294    4.5998   -1.7978 C   0  0  0  0  0  0  0  0  0  0  0  0
    7.0182   -0.3615   -1.0133 C   0  0  0  0  0  0  0  0  0  0  0  0
    8.3647    0.2537   -1.3625 C   0  0  0  0  0  0  0  0  0  0  0  0
    8.9349   -0.3258   -2.6446 C   0  0  0  0  0  0  0  0  0  0  0  0
  1 12  1  0
  1 19  1  0
  2  8  1  0
  3 16  1  0
  3 23  1  0
  4 13  1  0
  4 27  1  0
  5 15  1  0
  5 28  1  0
  6 26  1  0
  6 31  1  0
  7 20  1  0
  7 29  1  0
  7 30  1  0
  8  9  1  0
  8 10  1  0
  9 12  1  0
  9 13  2  0
 10 11  1  0
 11 17  1  0
 12 15  2  0
 13 14  1  0
 14 16  2  0
 14 18  1  0
 15 16  1  0
 17 21  2  0
 17 22  1  0
 18 23  2  0
 19 20  1  0
 21 24  1  0
 22 25  2  0
 24 26  2  0
 25 26  1  0
 31 32  1  0
 32 33  1  0
M  END
>  <PUBCHEM_COMPOUND_CID>  (1) 
38598

>  <PUBCHEM_CONFORMER_RMSD>  (1) 
1.2

>  <PUBCHEM_CONFORMER_DIVERSEORDER>  (1) 
13
7
16
41
34
35
21
5
25
33
30
10
3
20
37
11
2
28
38
24
19
32
18
36
8
40
15
29
1
17
31
22
27
23
12
4
14
9
6
26
39

>  <PUBCHEM_MMFF94_PARTIAL_CHARGES>  (1) 
36
1 -0.36
11 0.14
12 0.08
13 0.08
15 0.08
16 0.14
17 -0.14
18 -0.15
19 0.28
2 -0.68
20 0.27
21 -0.15
22 -0.15
23 -0.01
24 -0.15
25 -0.15
26 0.08
27 0.28
28 0.28
29 0.27
3 -0.28
30 0.27
31 0.28
39 0.15
4 -0.36
40 0.4
45 0.15
46 0.15
47 0.15
48 0.15
49 0.15
5 -0.36
6 -0.36
7 -0.81
8 0.42
9 -0.14

>  <PUBCHEM_EFFECTIVE_ROTOR_COUNT>  (1) 
13

>  <PUBCHEM_PHARMACOPHORE_FEATURES>  (1) 
12
1 1 acceptor
1 2 acceptor
1 2 donor
1 3 acceptor
1 33 hydrophobe
1 4 acceptor
1 5 acceptor
1 6 acceptor
1 7 cation
5 3 14 16 18 23 rings
6 17 21 22 24 25 26 rings
6 9 12 13 14 15 16 rings

>  <PUBCHEM_HEAVY_ATOM_COUNT>  (1) 
33

>  <PUBCHEM_ATOM_DEF_STEREO_COUNT>  (1) 
0

>  <PUBCHEM_ATOM_UDEF_STEREO_COUNT>  (1) 
1

>  <PUBCHEM_BOND_DEF_STEREO_COUNT>  (1) 
0

>  <PUBCHEM_BOND_UDEF_STEREO_COUNT>  (1) 
0

>  <PUBCHEM_ISOTOPIC_ATOM_COUNT>  (1) 
0

>  <PUBCHEM_COMPONENT_COUNT>  (1) 
1

>  <PUBCHEM_CACTVS_TAUTO_COUNT>  (1) 
1

>  <PUBCHEM_CONFORMER_ID>  (1) 
000096C60000000D

>  <PUBCHEM_MMFF94_ENERGY>  (1) 
108.6645

>  <PUBCHEM_FEATURE_SELFOVERLAP>  (1) 
61.008

>  <PUBCHEM_SHAPE_FINGERPRINT>  (1) 
10165383 225 17988370248414308817
10190206 1 18268135488659716781
12788726 201 18336528465907057353
13690498 29 18342183297348019574
13761468 95 17969771982532304692
14659021 117 18339067294026876440
14910302 57 18058714909929323192
14955137 171 18264205989062895283
15064981 113 18268413652052462598
15064986 266 18059863921166013707
15198563 99 18340192060679928125
15361156 5 18339369668688709844
16992828 155 17751076916845724316
21033650 10 18334858303639376416
22393880 68 18271799168624407882
23559900 14 17844798373073149186
24771750 20 17835804093159590437
3552219 110 15649909263925081057
3610482 184 18041289777223512172
484985 159 16916800594621916922
508706 21 18343017792176736524
531348 171 18339927005093741722
57527306 92 18040157301896007345

>  <PUBCHEM_SHAPE_MULTIPOLES>  (1) 
638.93
15.87
6.05
2.56
52.64
7.11
-0.05
1.39
-13.3
-13.02
-1.6
-0.53
-1.23
0.14

>  <PUBCHEM_SHAPE_SELFOVERLAP>  (1) 
1340.967

>  <PUBCHEM_SHAPE_VOLUME>  (1) 
365.1

>  <PUBCHEM_COORDINATE_TYPE>  (1) 
2
5
10

$$$$
