38612
     RDKit          3D

 33 36  0  0  1  0  0  0  0  0999 V2000
   -0.5096   -0.4417    0.6503 O   0  0  0  0  0  0  0  0  0  0  0  0
    1.9293    1.5201    2.7319 O   0  0  0  0  0  0  0  0  0  0  0  0
    3.0781   -3.0521   -1.2582 O   0  0  0  0  0  0  0  0  0  0  0  0
    4.0516    1.0446    0.7643 O   0  0  0  0  0  0  0  0  0  0  0  0
    0.2391   -2.7602   -0.6847 O   0  0  0  0  0  0  0  0  0  0  0  0
   -0.2276    1.5689   -2.6853 O   0  0  0  0  0  0  0  0  0  0  0  0
   -3.2261   -1.1673    0.9873 N   0  0  0  0  0  0  0  0  0  0  0  0
   -3.4594   -2.5955    1.2438 C   0  0  0  0  0  0  0  0  0  0  0  0
   -4.4944   -0.4425    0.8256 C   0  0  0  0  0  0  0  0  0  0  0  0
   -4.2458   -3.2399    0.1012 C   0  0  0  0  0  0  0  0  0  0  0  0
   -5.3146   -1.0166   -0.3309 C   0  0  0  0  0  0  0  0  0  0  0  0
   -5.5606   -2.5098   -0.1482 C   0  0  0  0  0  0  0  0  0  0  0  0
   -2.4333   -0.5769    2.0654 C   0  0  0  0  0  0  0  0  0  0  0  0
   -0.9632   -0.9301    1.9059 C   0  0  0  0  0  0  0  0  0  0  0  0
    1.7673    0.2952    0.7059 C   0  0  0  0  0  0  0  0  0  0  0  0
    1.3423    1.5384    1.4239 C   0  0  0  0  0  0  0  0  0  0  0  0
    0.8090   -0.6552    0.3441 C   0  0  0  0  0  0  0  0  0  0  0  0
    1.7488    2.8610    0.7369 C   0  0  0  0  0  0  0  0  0  0  0  0
    3.1232    0.1051    0.4061 C   0  0  0  0  0  0  0  0  0  0  0  0
    1.1679   -1.8270   -0.3288 C   0  0  0  0  0  0  0  0  0  0  0  0
    3.5067   -1.0663   -0.2702 C   0  0  0  0  0  0  0  0  0  0  0  0
    1.2345    3.0277   -0.6991 C   0  0  0  0  0  0  0  0  0  0  0  0
    2.5227   -1.9878   -0.6131 C   0  0  0  0  0  0  0  0  0  0  0  0
   -0.2683    3.0709   -0.8173 C   0  0  0  0  0  0  0  0  0  0  0  0
    4.7293   -1.6143   -0.7399 C   0  0  0  0  0  0  0  0  0  0  0  0
    4.4142   -2.8164   -1.3297 C   0  0  0  0  0  0  0  0  0  0  0  0
   -0.9271    2.3389   -1.8053 C   0  0  0  0  0  0  0  0  0  0  0  0
   -1.0004    3.8543    0.0751 C   0  0  0  0  0  0  0  0  0  0  0  0
    5.0901    0.6195    1.6400 C   0  0  0  0  0  0  0  0  0  0  0  0
   -0.3652   -2.6143   -1.9676 C   0  0  0  0  0  0  0  0  0  0  0  0
   -2.3178    2.3902   -1.9006 C   0  0  0  0  0  0  0  0  0  0  0  0
   -2.3911    3.9055   -0.0205 C   0  0  0  0  0  0  0  0  0  0  0  0
   -3.0498    3.1736   -1.0083 C   0  0  0  0  0  0  0  0  0  0  0  0
  1 14  1  0
  1 17  1  0
  2 16  1  0
  3 23  1  0
  3 26  1  0
  4 19  1  0
  4 29  1  0
  5 20  1  0
  5 30  1  0
  6 27  1  0
  7  8  1  0
  7  9  1  0
  7 13  1  0
  8 10  1  0
  9 11  1  0
 10 12  1  0
 11 12  1  0
 13 14  1  0
 15 16  1  0
 15 17  2  0
 15 19  1  0
 16 18  1  0
 17 20  1  0
 18 22  1  0
 19 21  2  0
 20 23  2  0
 21 23  1  0
 21 25  1  0
 22 24  1  0
 24 27  2  0
 24 28  1  0
 25 26  2  0
 27 31  1  0
 28 32  2  0
 31 33  2  0
 32 33  1  0
M  END
>  <PUBCHEM_COMPOUND_CID>  (1) 
38612

>  <PUBCHEM_CONFORMER_RMSD>  (1) 
1.2

>  <PUBCHEM_CONFORMER_DIVERSEORDER>  (1) 
6
35
131
94
75
14
102
53
87
92
86
107
114
98
3
70
66
38
63
42
125
112
109
118
41
5
25
91
4
54
15
44
72
2
67
74
79
18
129
115
97
119
84
50
127
26
122
56
99
104
83
46
60
85
12
62
121
36
95
30
134
48
10
117
69
113
47
32
81
116
123
78
65
133
105
52
11
132
120
88
21
108
31
34
40
13
110
128
58
9
80
57
59
126
73
76
55
7
77
28
23
111
61
96
29
8
68
39
24
71
1
19
124
103
45
101
33
16
100
64
20
93
22
17
106
37
130
49
82
43
90
51
27
89

>  <PUBCHEM_MMFF94_PARTIAL_CHARGES>  (1) 
36
1 -0.36
13 0.27
14 0.28
15 -0.14
16 0.42
17 0.08
19 0.08
2 -0.68
20 0.08
22 0.14
23 0.14
24 -0.14
25 -0.15
26 -0.01
27 0.08
28 -0.15
29 0.28
3 -0.28
30 0.28
31 -0.15
32 -0.15
33 -0.15
4 -0.36
5 -0.36
53 0.15
54 0.4
55 0.15
56 0.15
6 -0.53
63 0.15
64 0.15
65 0.15
66 0.45
7 -0.81
8 0.27
9 0.27

>  <PUBCHEM_EFFECTIVE_ROTOR_COUNT>  (1) 
11.2

>  <PUBCHEM_PHARMACOPHORE_FEATURES>  (1) 
12
1 1 acceptor
1 2 acceptor
1 2 donor
1 3 acceptor
1 4 acceptor
1 5 acceptor
1 6 donor
1 7 cation
5 3 21 23 25 26 rings
6 15 17 19 20 21 23 rings
6 24 27 28 31 32 33 rings
6 7 8 9 10 11 12 rings

>  <PUBCHEM_HEAVY_ATOM_COUNT>  (1) 
33

>  <PUBCHEM_ATOM_DEF_STEREO_COUNT>  (1) 
0

>  <PUBCHEM_ATOM_UDEF_STEREO_COUNT>  (1) 
1

>  <PUBCHEM_BOND_DEF_STEREO_COUNT>  (1) 
0

>  <PUBCHEM_BOND_UDEF_STEREO_COUNT>  (1) 
0

>  <PUBCHEM_ISOTOPIC_ATOM_COUNT>  (1) 
0

>  <PUBCHEM_COMPONENT_COUNT>  (1) 
1

>  <PUBCHEM_CACTVS_TAUTO_COUNT>  (1) 
3

>  <PUBCHEM_CONFORMER_ID>  (1) 
000096D400000006

>  <PUBCHEM_MMFF94_ENERGY>  (1) 
91.5866

>  <PUBCHEM_FEATURE_SELFOVERLAP>  (1) 
61.008

>  <PUBCHEM_SHAPE_FINGERPRINT>  (1) 
10864689 126 17902507087261688517
11285246 1 15608785991263616415
11513181 2 18339369685620743805
11578080 2 18339649928190039384
11828532 37 17532374360882780459
12293681 25 18127115382723367722
12422481 6 18122042454815545760
13402501 40 18266463109845376157
13965767 371 17837187635011156072
15274700 242 15171937893025077223
15420108 30 17042591592518844520
17357779 13 18334010597143187725
19319366 153 16613357040580905872
20600515 1 17313951955627309035
20739085 24 17906727356248540738
20764821 26 18190180083636331665
20775438 99 17908390616683002327
21285901 2 18408042926849204990
21860390 5 17826512464058905419
22182313 1 18342453695746459832
23559900 14 18270682081953598779
244849 19 17844505774099876696
3052486 1 17604143718847477513
35225 105 17606382269019032805
4409770 3 17977679605782316510
469060 322 16372157416078406365
6287921 2 18124033687764313351

>  <PUBCHEM_SHAPE_MULTIPOLES>  (1) 
638.93
9.47
5.45
2.06
2.62
2.9
-0.07
-7.93
-0.87
2.91
2.01
-0.28
0.35
2.99

>  <PUBCHEM_SHAPE_SELFOVERLAP>  (1) 
1365.666

>  <PUBCHEM_SHAPE_VOLUME>  (1) 
356.1

>  <PUBCHEM_COORDINATE_TYPE>  (1) 
2
5
10

$$$$
