38611
     RDKit          3D

 33 36  0  0  1  0  0  0  0  0999 V2000
   -1.7080    1.1140   -1.3688 O   0  0  0  0  0  0  0  0  0  0  0  0
   -5.9730   -3.1573    0.9391 O   0  0  0  0  0  0  0  0  0  0  0  0
    1.5490    1.1917   -3.2438 O   0  0  0  0  0  0  0  0  0  0  0  0
   -0.0898    4.4162    1.7625 O   0  0  0  0  0  0  0  0  0  0  0  0
    2.9738    2.0080   -0.8136 O   0  0  0  0  0  0  0  0  0  0  0  0
   -2.3390    3.0232    0.5483 O   0  0  0  0  0  0  0  0  0  0  0  0
    5.0937   -5.2805    1.3927 O   0  0  0  0  0  0  0  0  0  0  0  0
   -4.0490   -1.5754   -0.4385 N   0  0  0  0  0  0  0  0  0  0  0  0
   -3.5905   -0.3244   -1.0389 C   0  0  0  0  0  0  0  0  0  0  0  0
   -5.2657   -2.0593   -1.1057 C   0  0  0  0  0  0  0  0  0  0  0  0
   -4.2978   -1.4035    0.9996 C   0  0  0  0  0  0  0  0  0  0  0  0
    0.9446    0.5301   -2.1243 C   0  0  0  0  0  0  0  0  0  0  0  0
    0.6263    1.5642   -1.0895 C   0  0  0  0  0  0  0  0  0  0  0  0
    1.9021   -0.5886   -1.6574 C   0  0  0  0  0  0  0  0  0  0  0  0
   -0.7057    1.8150   -0.7506 C   0  0  0  0  0  0  0  0  0  0  0  0
   -2.1139   -0.1015   -0.7534 C   0  0  0  0  0  0  0  0  0  0  0  0
   -5.7323   -3.3580   -0.4542 C   0  0  0  0  0  0  0  0  0  0  0  0
   -4.7861   -2.7182    1.6010 C   0  0  0  0  0  0  0  0  0  0  0  0
    1.6730    2.2646   -0.4742 C   0  0  0  0  0  0  0  0  0  0  0  0
    1.4243   -1.3777   -0.4312 C   0  0  0  0  0  0  0  0  0  0  0  0
    1.3585    3.2310    0.4972 C   0  0  0  0  0  0  0  0  0  0  0  0
   -1.0414    2.7714    0.2123 C   0  0  0  0  0  0  0  0  0  0  0  0
    0.0203    3.4513    0.8066 C   0  0  0  0  0  0  0  0  0  0  0  0
    2.4019   -2.4182    0.0547 C   0  0  0  0  0  0  0  0  0  0  0  0
    2.0967    4.1215    1.3207 C   0  0  0  0  0  0  0  0  0  0  0  0
    1.1725    4.8156    2.0668 C   0  0  0  0  0  0  0  0  0  0  0  0
    3.3645   -2.0797    1.0058 C   0  0  0  0  0  0  0  0  0  0  0  0
    2.3438   -3.7187   -0.4465 C   0  0  0  0  0  0  0  0  0  0  0  0
    3.7265    3.0957   -1.3392 C   0  0  0  0  0  0  0  0  0  0  0  0
    4.2689   -3.0416    1.4556 C   0  0  0  0  0  0  0  0  0  0  0  0
    3.2483   -4.6805    0.0032 C   0  0  0  0  0  0  0  0  0  0  0  0
   -2.7072    2.8114    1.9091 C   0  0  0  0  0  0  0  0  0  0  0  0
    4.2108   -4.3420    0.9543 C   0  0  0  0  0  0  0  0  0  0  0  0
  1 15  1  0
  1 16  1  0
  2 17  1  0
  2 18  1  0
  3 12  1  0
  4 23  1  0
  4 26  1  0
  5 19  1  0
  5 29  1  0
  6 22  1  0
  6 32  1  0
  7 33  1  0
  8  9  1  0
  8 10  1  0
  8 11  1  0
  9 16  1  0
 10 17  1  0
 11 18  1  0
 12 13  1  0
 12 14  1  0
 13 15  1  0
 13 19  2  0
 14 20  1  0
 15 22  2  0
 19 21  1  0
 20 24  1  0
 21 23  2  0
 21 25  1  0
 22 23  1  0
 24 27  2  0
 24 28  1  0
 25 26  2  0
 27 30  1  0
 28 31  2  0
 30 33  2  0
 31 33  1  0
M  END
>  <PUBCHEM_COMPOUND_CID>  (1) 
38611

>  <PUBCHEM_CONFORMER_RMSD>  (1) 
1

>  <PUBCHEM_CONFORMER_DIVERSEORDER>  (1) 
2
158
79
115
7
35
76
140
78
17
103
159
47
44
6
48
11
10
56
157
81
69
83
85
93
137
90
39
92
96
184
55
14
150
9
98
27
167
186
42
173
25
99
151
51
108
1
91
171
63
128
68
87
119
166
37
49
82
53
34
65
118
121
141
88
175
170
22
129
168
20
148
111
77
181
52
61
70
131
89
133
162
41
154
136
135
163
178
12
120
13
123
134
132
165
94
142
143
180
4
174
176
15
32
100
179
104
73
107
95
182
110
145
152
36
45
62
112
18
124
177
3
38
147
97
138
125
67
172
8
23
106
153
59
144
5
75
102
185
146
139
109
160
46
161
33
126
169
16
101
64
156
117
183
127
19
155
24
43
74
130
71
40
57
113
105
21
54
66
60
149
29
58
80
164
31
26
122
86
72
50
84
116
28
114
30

>  <PUBCHEM_MMFF94_PARTIAL_CHARGES>  (1) 
39
1 -0.36
10 0.27
11 0.27
12 0.42
13 -0.14
15 0.08
16 0.28
17 0.28
18 0.28
19 0.08
2 -0.56
20 0.14
22 0.08
23 0.14
24 -0.14
25 -0.15
26 -0.01
27 -0.15
28 -0.15
29 0.28
3 -0.68
30 -0.15
31 -0.15
32 0.28
33 0.08
4 -0.28
5 -0.36
51 0.15
52 0.4
53 0.15
54 0.15
55 0.15
59 0.15
6 -0.36
60 0.15
64 0.45
7 -0.53
8 -0.81
9 0.27

>  <PUBCHEM_EFFECTIVE_ROTOR_COUNT>  (1) 
11.2

>  <PUBCHEM_PHARMACOPHORE_FEATURES>  (1) 
13
1 1 acceptor
1 2 acceptor
1 3 acceptor
1 3 donor
1 4 acceptor
1 5 acceptor
1 6 acceptor
1 7 donor
1 8 cation
5 4 21 23 25 26 rings
6 13 15 19 21 22 23 rings
6 2 8 10 11 17 18 rings
6 24 27 28 30 31 33 rings

>  <PUBCHEM_HEAVY_ATOM_COUNT>  (1) 
33

>  <PUBCHEM_ATOM_DEF_STEREO_COUNT>  (1) 
0

>  <PUBCHEM_ATOM_UDEF_STEREO_COUNT>  (1) 
1

>  <PUBCHEM_BOND_DEF_STEREO_COUNT>  (1) 
0

>  <PUBCHEM_BOND_UDEF_STEREO_COUNT>  (1) 
0

>  <PUBCHEM_ISOTOPIC_ATOM_COUNT>  (1) 
0

>  <PUBCHEM_COMPONENT_COUNT>  (1) 
1

>  <PUBCHEM_CACTVS_TAUTO_COUNT>  (1) 
2

>  <PUBCHEM_CONFORMER_ID>  (1) 
000096D300000002

>  <PUBCHEM_MMFF94_ENERGY>  (1) 
101.8039

>  <PUBCHEM_FEATURE_SELFOVERLAP>  (1) 
66.084

>  <PUBCHEM_SHAPE_FINGERPRINT>  (1) 
10074138 170 17693654818667140139
1100329 8 18195247707423541225
11014199 57 18195524796959022450
11552529 35 17905600004769800906
14020679 6 17694502946323876468
14674994 50 17755296765104550941
14705955 166 16981228432866826144
14856354 85 17691682282819638766
15878777 1 14636524447836877612
18393751 57 16899901887541398184
19315092 285 18058164115356315619
19319366 153 18120659294952164022
20609170 109 17032691242309541370
20775530 9 18187376389136514327
21796203 349 18338818765507676323
22956985 138 18335127709710408074
24180151 46 17559392667794512153
4616759 239 17621007904331812874
5265222 85 15890279677258307982
6376802 137 18336261224336428082
79837 15 16898765589012218947
86090 222 17758419721709604523
9896288 288 16972523538932417073

>  <PUBCHEM_SHAPE_MULTIPOLES>  (1) 
633.06
10.32
8.86
2.11
14.41
1.71
-0.5
17.46
2.39
-9.03
5.51
-0.55
-1.14
-2.07

>  <PUBCHEM_SHAPE_SELFOVERLAP>  (1) 
1353.431

>  <PUBCHEM_SHAPE_VOLUME>  (1) 
353

>  <PUBCHEM_COORDINATE_TYPE>  (1) 
2
5
10

$$$$
