38617
     RDKit          3D

 21 23  0  0  1  0  0  0  0  0999 V2000
    5.1976    1.0069   -0.2679 S   0  0  0  0  0  0  0  0  0  0  0  0
   -0.0186   -1.8525    0.0737 O   0  0  0  0  0  0  0  0  0  0  0  0
   -0.0758    2.2288   -0.2177 O   0  0  0  0  0  0  0  0  0  0  0  0
    6.1974   -0.0186   -0.7243 O   0  0  0  0  0  0  0  0  0  0  0  0
   -6.0336   -0.1649    0.0952 O   0  0  0  0  0  0  0  0  0  0  0  0
   -5.2053    1.9451   -0.0733 O   0  0  0  0  0  0  0  0  0  0  0  0
    1.2032    0.2541   -0.1094 C   0  0  0  0  0  0  0  0  0  0  0  0
   -1.2989    0.2238   -0.0434 C   0  0  0  0  0  0  0  0  0  0  0  0
    1.1499   -1.1359   -0.0079 C   0  0  0  0  0  0  0  0  0  0  0  0
   -1.2067   -1.1643    0.0543 C   0  0  0  0  0  0  0  0  0  0  0  0
   -0.0586    1.0097   -0.1314 C   0  0  0  0  0  0  0  0  0  0  0  0
    2.4326    0.9134   -0.1883 C   0  0  0  0  0  0  0  0  0  0  0  0
    3.6137    0.1715   -0.1652 C   0  0  0  0  0  0  0  0  0  0  0  0
   -2.5462    0.8533   -0.0571 C   0  0  0  0  0  0  0  0  0  0  0  0
    2.3356   -1.8730    0.0147 C   0  0  0  0  0  0  0  0  0  0  0  0
   -2.3715   -1.9299    0.1389 C   0  0  0  0  0  0  0  0  0  0  0  0
    3.5658   -1.2191   -0.0638 C   0  0  0  0  0  0  0  0  0  0  0  0
   -3.7063    0.0831    0.0276 C   0  0  0  0  0  0  0  0  0  0  0  0
   -3.6194   -1.3057    0.1254 C   0  0  0  0  0  0  0  0  0  0  0  0
   -5.0098    0.7282    0.0098 C   0  0  0  0  0  0  0  0  0  0  0  0
    5.4550    1.2462    1.5102 C   0  0  0  0  0  0  0  0  0  0  0  0
  1  4  2  0
  1 13  1  0
  1 21  1  0
  2  9  1  0
  2 10  1  0
  3 11  2  0
  5 20  1  0
  6 20  2  0
  7  9  2  0
  7 11  1  0
  7 12  1  0
  8 10  2  0
  8 11  1  0
  8 14  1  0
  9 15  1  0
 10 16  1  0
 12 13  2  0
 13 17  1  0
 14 18  2  0
 15 17  2  0
 16 19  2  0
 18 19  1  0
 18 20  1  0
M  END
>  <PUBCHEM_COMPOUND_CID>  (1) 
38617

>  <PUBCHEM_CONFORMER_RMSD>  (1) 
0.6

>  <PUBCHEM_CONFORMER_DIVERSEORDER>  (1) 
1
4
2
6
5
3

>  <PUBCHEM_MMFF94_PARTIAL_CHARGES>  (1) 
28
1 0.24
10 0.08
11 0.4
12 -0.15
13 0.06
14 -0.15
15 -0.15
16 -0.15
17 -0.15
18 0.09
19 -0.15
2 -0.17
20 0.63
21 0.19
22 0.15
23 0.15
24 0.15
25 0.15
26 0.15
27 0.15
3 -0.57
31 0.5
4 -0.5
5 -0.65
6 -0.57
7 0.09
8 0.09
9 0.08

>  <PUBCHEM_EFFECTIVE_ROTOR_COUNT>  (1) 
2

>  <PUBCHEM_PHARMACOPHORE_FEATURES>  (1) 
9
1 2 acceptor
1 3 acceptor
1 4 acceptor
1 5 acceptor
1 6 acceptor
3 5 6 20 anion
6 2 7 8 9 10 11 rings
6 7 9 12 13 15 17 rings
6 8 10 14 16 18 19 rings

>  <PUBCHEM_HEAVY_ATOM_COUNT>  (1) 
21

>  <PUBCHEM_ATOM_DEF_STEREO_COUNT>  (1) 
0

>  <PUBCHEM_ATOM_UDEF_STEREO_COUNT>  (1) 
1

>  <PUBCHEM_BOND_DEF_STEREO_COUNT>  (1) 
0

>  <PUBCHEM_BOND_UDEF_STEREO_COUNT>  (1) 
0

>  <PUBCHEM_ISOTOPIC_ATOM_COUNT>  (1) 
0

>  <PUBCHEM_COMPONENT_COUNT>  (1) 
1

>  <PUBCHEM_CACTVS_TAUTO_COUNT>  (1) 
1

>  <PUBCHEM_CONFORMER_ID>  (1) 
000096D900000001

>  <PUBCHEM_MMFF94_ENERGY>  (1) 
62.8943

>  <PUBCHEM_FEATURE_SELFOVERLAP>  (1) 
45.788

>  <PUBCHEM_SHAPE_FINGERPRINT>  (1) 
10 15 18186804720156648889
10411042 1 17328865400972747227
10906281 52 18263662739080046430
10967382 1 18337392643164994767
11045977 3 18202281450688492112
11132069 177 18408604772737425458
11401426 45 18411136952406112935
12011746 2 18342460339644258668
12236239 1 17846499218919481901
12403814 3 17458340840810581479
12788726 201 17774163383720234593
13073987 5 18409169870891841843
13140716 1 18192147315975793704
13533116 47 18342175510672999946
14251764 18 18409450285132949561
14790565 3 18336272331005576540
15196674 1 18409730646943360895
15375358 24 18410294717814590226
15536298 74 18413392016743369166
1601671 61 18409729564690645668
1813 80 16805045098939704710
19784866 170 18408325488362977234
200 152 18060699490131894375
20645477 70 18270965639446076839
21033648 29 17916857040721240218
21150785 3 16845282869862741845
21267235 1 18337683000155237511
21279426 13 18266460897662821573
21304253 335 18335709316527172485
21421861 104 17750504097167433570
21452121 103 18412537700513863898
21792934 111 18265038159343887185
23402539 116 18342735247378577646
23402655 69 18342174453504123967
23559900 14 18343299301550342856
23622692 118 17985820674070011039
293599 30 18410857650772505367
300161 21 18412257337516905743
3004659 81 18261396603430795030
335352 9 18409450297189735204
34797466 226 16917072195500053060
34934 24 18410007736668811011
350125 39 18336826382509083018
3545911 37 18411421712916728006
3680242 22 18260545585361588024
4072396 5 18334565850831531114
4073 2 18040723610255404826
4214541 1 18409731768288274469
5104073 3 18408605829547612835
542803 24 17385724716424982004
59755656 215 18411143498580032566
59755656 520 17022623091664401906
7495541 125 12901843730312727447

>  <PUBCHEM_SHAPE_MULTIPOLES>  (1) 
406.67
12.82
2
0.75
1.23
0.22
-0.15
-4.17
-0.68
-0.46
-0.06
0.79
-0.13
0.5

>  <PUBCHEM_SHAPE_SELFOVERLAP>  (1) 
889.969

>  <PUBCHEM_SHAPE_VOLUME>  (1) 
222.3

>  <PUBCHEM_COORDINATE_TYPE>  (1) 
2
5
10

$$$$
