38629
     RDKit          3D

 23 24  0  0  1  0  0  0  0  0999 V2000
   -1.3492   -1.3865    0.3190 O   0  0  0  0  0  0  0  0  0  0  0  0
   -0.8353    0.7785    0.8472 O   0  0  0  0  0  0  0  0  0  0  0  0
    5.4899   -0.3349   -0.8609 O   0  0  0  0  0  0  0  0  0  0  0  0
   -4.8690   -0.3540   -0.2441 N   0  0  0  0  0  0  0  0  0  0  0  0
    0.7739   -0.7243    0.0519 N   0  0  0  0  0  0  0  0  0  0  0  0
   -4.9788    0.9054    0.5053 C   0  0  0  0  0  0  0  0  0  0  0  0
   -5.6616   -0.3071   -1.4809 C   0  0  0  0  0  0  0  0  0  0  0  0
   -6.4335    1.2050    0.8705 C   0  0  0  0  0  0  0  0  0  0  0  0
   -7.1386   -0.0473   -1.1804 C   0  0  0  0  0  0  0  0  0  0  0  0
   -7.3228    1.2289   -0.3675 C   0  0  0  0  0  0  0  0  0  0  0  0
   -3.4685   -0.6499   -0.5448 C   0  0  0  0  0  0  0  0  0  0  0  0
   -2.7069   -1.1449    0.6872 C   0  0  0  0  0  0  0  0  0  0  0  0
   -3.2679   -2.4421    1.2558 C   0  0  0  0  0  0  0  0  0  0  0  0
   -0.4889   -0.3255    0.4449 C   0  0  0  0  0  0  0  0  0  0  0  0
    1.9592    0.0449    0.0207 C   0  0  0  0  0  0  0  0  0  0  0  0
    3.1541   -0.5319   -0.4098 C   0  0  0  0  0  0  0  0  0  0  0  0
    4.3237    0.2275   -0.4405 C   0  0  0  0  0  0  0  0  0  0  0  0
    1.9342    1.3810    0.4208 C   0  0  0  0  0  0  0  0  0  0  0  0
    6.6970    0.1751   -0.2967 C   0  0  0  0  0  0  0  0  0  0  0  0
    7.7371   -0.9344   -0.2757 C   0  0  0  0  0  0  0  0  0  0  0  0
    4.2986    1.5635   -0.0404 C   0  0  0  0  0  0  0  0  0  0  0  0
    3.1038    2.1403    0.3903 C   0  0  0  0  0  0  0  0  0  0  0  0
    9.0494   -0.4671    0.3280 C   0  0  0  0  0  0  0  0  0  0  0  0
  1 12  1  0
  1 14  1  0
  2 14  2  0
  3 17  1  0
  3 19  1  0
  4  6  1  0
  4  7  1  0
  4 11  1  0
  5 14  1  0
  5 15  1  0
  6  8  1  0
  7  9  1  0
  8 10  1  0
  9 10  1  0
 11 12  1  0
 12 13  1  0
 15 16  2  0
 15 18  1  0
 16 17  1  0
 17 21  2  0
 18 22  2  0
 19 20  1  0
 20 23  1  0
 21 22  1  0
M  END
>  <PUBCHEM_COMPOUND_CID>  (1) 
38629

>  <PUBCHEM_CONFORMER_RMSD>  (1) 
1

>  <PUBCHEM_CONFORMER_DIVERSEORDER>  (1) 
2
59
29
57
82
43
113
48
37
81
120
90
114
77
110
46
84
36
99
86
31
49
65
13
50
52
80
3
23
10
104
95
74
17
70
38
66
97
67
34
73
19
24
16
111
60
44
94
75
8
100
71
9
54
18
26
105
108
45
101
103
119
68
69
96
98
76
117
30
63
115
58
112
72
1
107
33
7
56
122
83
118
79
85
91
32
53
55
6
51
123
39
42
109
20
106
35
4
92
11
40
64
15
25
21
93
87
5
12
116
22
28
41
27
47
89
62
78
102
88
121
14
61

>  <PUBCHEM_MMFF94_PARTIAL_CHARGES>  (1) 
22
1 -0.43
11 0.27
12 0.28
14 0.78
15 0.12
16 -0.15
17 0.08
18 -0.15
19 0.28
2 -0.57
21 -0.15
22 -0.15
3 -0.36
4 -0.81
40 0.37
41 0.15
42 0.15
47 0.15
48 0.15
5 -0.55
6 0.27
7 0.27

>  <PUBCHEM_EFFECTIVE_ROTOR_COUNT>  (1) 
10.2

>  <PUBCHEM_PHARMACOPHORE_FEATURES>  (1) 
7
1 2 acceptor
1 23 hydrophobe
1 3 acceptor
1 4 cation
1 5 donor
6 15 16 17 18 21 22 rings
6 4 6 7 8 9 10 rings

>  <PUBCHEM_HEAVY_ATOM_COUNT>  (1) 
23

>  <PUBCHEM_ATOM_DEF_STEREO_COUNT>  (1) 
0

>  <PUBCHEM_ATOM_UDEF_STEREO_COUNT>  (1) 
1

>  <PUBCHEM_BOND_DEF_STEREO_COUNT>  (1) 
0

>  <PUBCHEM_BOND_UDEF_STEREO_COUNT>  (1) 
0

>  <PUBCHEM_ISOTOPIC_ATOM_COUNT>  (1) 
0

>  <PUBCHEM_COMPONENT_COUNT>  (1) 
1

>  <PUBCHEM_CACTVS_TAUTO_COUNT>  (1) 
2

>  <PUBCHEM_CONFORMER_ID>  (1) 
000096E500000002

>  <PUBCHEM_MMFF94_ENERGY>  (1) 
44.2596

>  <PUBCHEM_FEATURE_SELFOVERLAP>  (1) 
35.521

>  <PUBCHEM_SHAPE_FINGERPRINT>  (1) 
10 15 14129055907536225669
10670039 82 18334008355439791389
10835480 77 18339079423236416864
11089746 13 18343865528252314673
11315181 36 15123510315785486363
11408170 108 16916519047506410926
11719270 70 17989488516095720334
11724838 91 10735873976652031360
11796584 16 17968099750813164130
12596602 18 13190333561439683677
12643181 29 18334294284038845954
12838862 33 18271513244330356822
13073987 5 8574449615959110622
13533116 47 18041551443294238866
13668630 136 16343708737455771997
13914758 101 18131635556186226888
13964095 4 18040152916137948550
14251752 14 17489868241626016085
14251764 18 18410292489237954720
14251764 46 18410575076073150831
15183329 4 18408882923456921969
15461852 350 16487259872225350032
15716309 27 9151177545256206061
15728490 51 7997678801514285161
15849732 13 16630524034053878052
17834072 8 18408885148397648253
20621476 8 18113616772726086700
20645477 56 17748821930518790135
21049683 271 9439395835872003102
21095086 128 15357700798742451761
21150785 3 16415478246430379823
21365058 27 14129060313440034161
21585482 111 18044654201739166669
220451 1 15719666645546565954
22224240 67 9871744690033151788
22896161 15 10231755582944211122
23198884 109 18201436996078405415
23559900 14 18337952393536371600
249057 3 18335140907975973790
2838139 119 18413389839474615829
28498 318 18334575716619544038
29717793 49 17704079499201299900
3004659 81 18272086101982013528
335352 9 18411420622622737092
3545911 37 18113054948033121203
3663271 9 12107778597781916229
4073 2 18115311201722916930
5758199 1 11025799799591641220
59682541 35 9799401235244766654
59755656 215 18261393317443073542
59755656 520 18114178649354935099
6126387 218 17632293463218598490
9663363 56 12319734766199439055
9953998 17 11241971469625062357

>  <PUBCHEM_SHAPE_MULTIPOLES>  (1) 
445.76
24.87
1.73
1.03
15.76
0.02
0.08
-1.12
4.58
-0.61
-0.57
-1.38
0.16
0.33

>  <PUBCHEM_SHAPE_SELFOVERLAP>  (1) 
901.965

>  <PUBCHEM_SHAPE_VOLUME>  (1) 
260.8

>  <PUBCHEM_COORDINATE_TYPE>  (1) 
2
5
10

$$$$
