38622
     RDKit          3D

 10  9  0  0  1  0  0  0  0  0999 V2000
    2.3654   -1.3326   -0.6976 O   0  0  0  0  0  0  0  0  0  0  0  0
   -0.8038    1.6874   -0.1298 O   0  0  0  0  0  0  0  0  0  0  0  0
    0.0449   -0.3201    0.6262 N   0  0  0  0  0  0  0  0  0  0  0  0
    2.2905    0.0453   -0.3332 C   0  0  0  0  0  0  0  0  0  0  0  0
    1.3752    0.1810    0.8861 C   0  0  0  0  0  0  0  0  0  0  0  0
    3.7106    0.5308   -0.0720 C   0  0  0  0  0  0  0  0  0  0  0  0
   -0.9581    0.4943    0.1280 C   0  0  0  0  0  0  0  0  0  0  0  0
   -2.2779   -0.1921   -0.0801 C   0  0  0  0  0  0  0  0  0  0  0  0
   -2.4609   -1.6457    0.2344 C   0  0  0  0  0  0  0  0  0  0  0  0
   -3.2859    0.5518   -0.5619 C   0  0  0  0  0  0  0  0  0  0  0  0
  1  4  1  0
  2  7  2  0
  3  5  1  0
  3  7  1  0
  4  5  1  0
  4  6  1  0
  7  8  1  0
  8  9  1  0
  8 10  2  0
M  END
>  <PUBCHEM_COMPOUND_CID>  (1) 
38622

>  <PUBCHEM_CONFORMER_RMSD>  (1) 
0.6

>  <PUBCHEM_CONFORMER_DIVERSEORDER>  (1) 
4
15
20
16
21
12
6
5
18
8
19
2
14
3
1
17
11
9
10
7
13

>  <PUBCHEM_MMFF94_PARTIAL_CHARGES>  (1) 
13
1 -0.68
10 -0.3
17 0.37
18 0.4
2 -0.57
22 0.15
23 0.15
3 -0.73
4 0.28
5 0.3
7 0.62
8 -0.12
9 0.14

>  <PUBCHEM_EFFECTIVE_ROTOR_COUNT>  (1) 
4

>  <PUBCHEM_PHARMACOPHORE_FEATURES>  (1) 
4
1 1 acceptor
1 1 donor
1 2 acceptor
1 3 donor

>  <PUBCHEM_HEAVY_ATOM_COUNT>  (1) 
10

>  <PUBCHEM_ATOM_DEF_STEREO_COUNT>  (1) 
0

>  <PUBCHEM_ATOM_UDEF_STEREO_COUNT>  (1) 
1

>  <PUBCHEM_BOND_DEF_STEREO_COUNT>  (1) 
0

>  <PUBCHEM_BOND_UDEF_STEREO_COUNT>  (1) 
0

>  <PUBCHEM_ISOTOPIC_ATOM_COUNT>  (1) 
0

>  <PUBCHEM_COMPONENT_COUNT>  (1) 
1

>  <PUBCHEM_CACTVS_TAUTO_COUNT>  (1) 
2

>  <PUBCHEM_CONFORMER_ID>  (1) 
000096DE00000004

>  <PUBCHEM_MMFF94_ENERGY>  (1) 
11.169

>  <PUBCHEM_FEATURE_SELFOVERLAP>  (1) 
20.3

>  <PUBCHEM_SHAPE_FINGERPRINT>  (1) 
11062470 55 17894628162502625284
12897270 3 18411139134328568622
12932764 1 17385998464418066281
14128692 85 18189619526111497973
14325111 11 18335420170886284394
14390081 3 16732982015902007837
15310529 11 18131068199717698596
15775835 57 17022899043017185540
19422 9 13398637177366509748
20201158 50 18273214192406527478
20279233 1 18273491286374132426
20281407 28 17846497045244173314
20645477 70 17845653646779824126
20871999 31 18335413621446455607
21028194 46 8286203859339536209
21293036 1 18333725832279323341
22213442 358 18266741479048898917
23402539 116 18187918508851432164
23552423 10 18115583729997861283
29004967 10 17489869345100210802
3248919 1 18272930501105158552
369184 2 8070022259837254769
528716 315 18336273421815941191

>  <PUBCHEM_SHAPE_MULTIPOLES>  (1) 
189.08
5.85
1.35
0.8
1.97
0.18
-0.04
0.16
1
-0.6
0.09
0.14
0.05
0.4

>  <PUBCHEM_SHAPE_SELFOVERLAP>  (1) 
353.236

>  <PUBCHEM_SHAPE_VOLUME>  (1) 
118.6

>  <PUBCHEM_COORDINATE_TYPE>  (1) 
2
5
10

$$$$
