38621
     RDKit          3D

 11 11  0  0  1  0  0  0  0  0999 V2000
    1.1859    0.8938   -1.8721 O   0  0  0  0  0  0  0  0  0  0  0  0
    1.3605   -0.0986    0.3217 C   0  0  0  0  0  0  0  0  0  0  0  0
    0.7793   -1.4866    0.6083 C   0  0  0  0  0  0  0  0  0  0  0  0
    0.3549    0.9868    0.7484 C   0  0  0  0  0  0  0  0  0  0  0  0
   -0.5693   -1.6998   -0.0826 C   0  0  0  0  0  0  0  0  0  0  0  0
   -1.0888    0.7109    0.3698 C   0  0  0  0  0  0  0  0  0  0  0  0
   -1.5037   -0.5103   -0.0343 C   0  0  0  0  0  0  0  0  0  0  0  0
    2.6874    0.0892    1.0673 C   0  0  0  0  0  0  0  0  0  0  0  0
    1.6772    0.0332   -1.1492 C   0  0  0  0  0  0  0  0  0  0  0  0
   -1.9814    1.9159    0.5133 C   0  0  0  0  0  0  0  0  0  0  0  0
   -2.9021   -0.8346   -0.4905 C   0  0  0  0  0  0  0  0  0  0  0  0
  1  9  2  0
  2  3  1  0
  2  4  1  0
  2  8  1  0
  2  9  1  0
  3  5  1  0
  4  6  1  0
  5  7  1  0
  6  7  2  0
  6 10  1  0
  7 11  1  0
M  END
>  <PUBCHEM_COMPOUND_CID>  (1) 
38621

>  <PUBCHEM_CONFORMER_RMSD>  (1) 
0.4

>  <PUBCHEM_CONFORMER_DIVERSEORDER>  (1) 
3
5
4
1
2

>  <PUBCHEM_MMFF94_PARTIAL_CHARGES>  (1) 
10
1 -0.57
10 0.14
11 0.14
2 0.06
21 0.06
4 0.14
5 0.14
6 -0.28
7 -0.28
9 0.45

>  <PUBCHEM_EFFECTIVE_ROTOR_COUNT>  (1) 
1.8

>  <PUBCHEM_PHARMACOPHORE_FEATURES>  (1) 
2
1 1 acceptor
6 2 3 4 5 6 7 rings

>  <PUBCHEM_HEAVY_ATOM_COUNT>  (1) 
11

>  <PUBCHEM_ATOM_DEF_STEREO_COUNT>  (1) 
0

>  <PUBCHEM_ATOM_UDEF_STEREO_COUNT>  (1) 
1

>  <PUBCHEM_BOND_DEF_STEREO_COUNT>  (1) 
0

>  <PUBCHEM_BOND_UDEF_STEREO_COUNT>  (1) 
0

>  <PUBCHEM_ISOTOPIC_ATOM_COUNT>  (1) 
0

>  <PUBCHEM_COMPONENT_COUNT>  (1) 
1

>  <PUBCHEM_CACTVS_TAUTO_COUNT>  (1) 
1

>  <PUBCHEM_CONFORMER_ID>  (1) 
000096DD00000003

>  <PUBCHEM_MMFF94_ENERGY>  (1) 
17.4674

>  <PUBCHEM_FEATURE_SELFOVERLAP>  (1) 
10.148

>  <PUBCHEM_SHAPE_FINGERPRINT>  (1) 
10353120 184 18269851946273599743
12423570 1 15406080195323179928
12716758 59 18058461919159745462
137420 1 15653208614783161682
13839132 238 18130786720467295000
14817 1 13505583825509819527
14993402 34 17821444669016855558
15219456 202 17275386478209557216
15310529 11 13973693836009661915
15775835 57 18269278971576547929
16945 1 18340764935389691898
18185500 45 18335417958814668147
19837323 101 17832755366163434324
20511035 2 17761228613140760769
21040471 1 18197223546449495185
23211744 41 17560503093033906386
23402539 116 17916283087008838927
23552423 10 18263367992770819011
23559900 14 17700706060737527318
2748010 2 18199183992888127547
29004967 10 15841558487084385554
430814 3 17244750849817249340
5084963 1 17894621565453931659
53812653 8 18335998552657213161

>  <PUBCHEM_SHAPE_MULTIPOLES>  (1) 
220.51
3.39
1.71
1.22
0.58
0.08
0.57
0.09
-0.12
0.9
-0.25
-0.76
0.2
-0.33

>  <PUBCHEM_SHAPE_SELFOVERLAP>  (1) 
440.58

>  <PUBCHEM_SHAPE_VOLUME>  (1) 
130.3

>  <PUBCHEM_COORDINATE_TYPE>  (1) 
2
5
10

$$$$
