3863
     RDKit          3D

 13 12  0  0  1  0  0  0  0  0999 V2000
    3.7041   -0.9754   -1.0793 O   0  0  0  0  0  0  0  0  0  0  0  0
    3.2163    1.2220   -1.3902 O   0  0  0  0  0  0  0  0  0  0  0  0
    2.4674    1.5293    1.2152 N   0  0  0  0  0  0  0  0  0  0  0  0
   -2.5174    0.1230    0.3537 N   0  0  0  0  0  0  0  0  0  0  0  0
   -4.3537    1.6565    0.0966 N   0  0  0  0  0  0  0  0  0  0  0  0
    0.3925   -0.4844    0.2942 C   0  0  0  0  0  0  0  0  0  0  0  0
    1.6978   -0.8194    1.0301 C   0  0  0  0  0  0  0  0  0  0  0  0
   -0.7064   -1.4973    0.6342 C   0  0  0  0  0  0  0  0  0  0  0  0
    2.8390    0.1804    0.7915 C   0  0  0  0  0  0  0  0  0  0  0  0
   -2.0229   -1.1879   -0.0698 C   0  0  0  0  0  0  0  0  0  0  0  0
    3.2538    0.2381   -0.6651 C   0  0  0  0  0  0  0  0  0  0  0  0
   -3.6523    0.4958   -0.1324 C   0  0  0  0  0  0  0  0  0  0  0  0
   -4.3183   -0.4806   -1.0787 C   0  0  0  0  0  0  0  0  0  0  0  0
  1 11  1  0
  2 11  2  0
  3  9  1  0
  4 10  1  0
  4 12  2  0
  5 12  1  0
  6  7  1  0
  6  8  1  0
  7  9  1  0
  8 10  1  0
  9 11  1  0
 12 13  1  0
M  END
>  <PUBCHEM_COMPOUND_CID>  (1) 
3863

>  <PUBCHEM_CONFORMER_RMSD>  (1) 
0.6

>  <PUBCHEM_CONFORMER_DIVERSEORDER>  (1) 
6
103
21
192
135
47
39
188
96
18
107
174
93
186
213
122
211
7
127
74
169
109
20
124
173
62
99
144
204
121
16
86
101
43
118
129
49
131
184
88
111
214
55
123
185
37
114
85
46
94
202
24
130
89
98
215
105
198
168
141
201
14
50
15
27
61
196
147
178
92
212
48
102
149
58
13
139
63
38
152
53
104
146
3
23
155
142
90
159
165
51
187
79
209
126
34
208
97
71
4
117
9
162
206
87
64
68
41
100
128
25
80
115
78
194
116
145
108
73
32
112
72
195
45
199
17
119
200
40
106
33
91
30
70
77
36
160
35
170
95
75
83
177
12
175
44
166
183
125
113
197
150
176
163
110
84
151
10
56
31
52
22
76
158
157
1
203
54
207
59
179
5
137
143
42
2
190
66
57
133
8
210
65
181
138
26
193
67
82
81
19
148
189
28
154
120
60
69
11
132
167
164
29
172
140
156
191
171
136
153
182
205
180
161
134

>  <PUBCHEM_MMFF94_PARTIAL_CHARGES>  (1) 
15
1 -0.65
10 0.25
11 0.66
12 0.44
13 0.06
2 -0.57
23 0.36
24 0.36
25 0.5
29 0.4
3 -0.99
30 0.4
4 -0.7
5 -0.85
9 0.33

>  <PUBCHEM_EFFECTIVE_ROTOR_COUNT>  (1) 
6

>  <PUBCHEM_PHARMACOPHORE_FEATURES>  (1) 
7
1 1 acceptor
1 2 acceptor
1 3 cation
1 3 donor
1 5 donor
3 1 2 11 anion
3 4 5 12 cation

>  <PUBCHEM_HEAVY_ATOM_COUNT>  (1) 
13

>  <PUBCHEM_ATOM_DEF_STEREO_COUNT>  (1) 
0

>  <PUBCHEM_ATOM_UDEF_STEREO_COUNT>  (1) 
1

>  <PUBCHEM_BOND_DEF_STEREO_COUNT>  (1) 
0

>  <PUBCHEM_BOND_UDEF_STEREO_COUNT>  (1) 
0

>  <PUBCHEM_ISOTOPIC_ATOM_COUNT>  (1) 
0

>  <PUBCHEM_COMPONENT_COUNT>  (1) 
1

>  <PUBCHEM_CACTVS_TAUTO_COUNT>  (1) 
2

>  <PUBCHEM_CONFORMER_ID>  (1) 
00000F1700000006

>  <PUBCHEM_MMFF94_ENERGY>  (1) 
22.1777

>  <PUBCHEM_FEATURE_SELFOVERLAP>  (1) 
35.578

>  <PUBCHEM_SHAPE_FINGERPRINT>  (1) 
11543360 7 17488732501827772343
11987891 27 12679461980151063355
13705890 14 16056875861999822642
14123260 362 18333734619877323897
1420 369 11887962046501515869
14252887 29 8935001498972428502
14289901 80 13695588862411499061
15239191 94 11815897877105722391
17041 50 18130793377634903448
177051 138 11383840359102100254
18186145 218 18335977606122842067
19107657 162 8358263652532679721
19107657 9 18259984864348408697
1986462 14 17632294575657390839
20233049 118 18410007728537682752
20279233 1 17775003531121356498
20281407 28 8718550544838638715
20645477 70 16200439091238895654
20671657 53 15913332381268342530
20742870 56 17703794695682982838
212847 35 18334572399997384921
21501925 9 10807930453318318098
22485316 2 10735875067262695915
22646028 28 12607415385545492628
22959321 60 14490189418825384935
23380061 81 17385721366087033034
23402655 69 17988644073120256649
4990 188 18060700576357875639
5281201 14 17561081432008266265
93112 12 17846780740756003230
9882013 296 13262688057638855747

>  <PUBCHEM_SHAPE_MULTIPOLES>  (1) 
240.85
9.06
1.49
1.19
4.95
0.19
0.15
2.97
2.49
0.26
-0.15
-0.93
0.13
-0.25

>  <PUBCHEM_SHAPE_SELFOVERLAP>  (1) 
453.513

>  <PUBCHEM_SHAPE_VOLUME>  (1) 
148.4

>  <PUBCHEM_COORDINATE_TYPE>  (1) 
2
5
10

$$$$
