38642
     RDKit          3D

 36 39  0  0  1  0  0  0  0  0999 V2000
   -0.8789    0.2977    2.1139 O   0  0  0  0  0  0  0  0  0  0  0  0
    3.1578    0.6628    1.8152 O   0  0  0  0  0  0  0  0  0  0  0  0
    5.3385    0.8996    0.1302 O   0  0  0  0  0  0  0  0  0  0  0  0
   -0.2735   -1.1624    0.3635 N   0  0  0  0  0  0  0  0  0  0  0  0
    0.3151   -2.1619    1.0959 N   0  0  0  0  0  0  0  0  0  0  0  0
   -5.0435   -0.1670    0.1145 N   0  0  0  0  0  0  0  0  0  0  0  0
   -1.3961    0.8354   -0.2477 C   0  0  0  0  0  0  0  0  0  0  0  0
   -2.9048    1.0014   -0.0915 C   0  0  0  0  0  0  0  0  0  0  0  0
   -1.0349   -0.0260   -1.4485 C   0  0  0  0  0  0  0  0  0  0  0  0
   -0.8294   -0.0130    0.9321 C   0  0  0  0  0  0  0  0  0  0  0  0
   -0.3802   -1.1861   -1.0256 C   0  0  0  0  0  0  0  0  0  0  0  0
   -0.7139    2.1660   -0.2826 C   0  0  0  0  0  0  0  0  0  0  0  0
   -3.6031   -0.3520   -0.0146 C   0  0  0  0  0  0  0  0  0  0  0  0
   -1.2719    0.1993   -2.7951 C   0  0  0  0  0  0  0  0  0  0  0  0
    0.0577   -2.1474   -1.9194 C   0  0  0  0  0  0  0  0  0  0  0  0
   -1.4706    3.3375   -0.3092 C   0  0  0  0  0  0  0  0  0  0  0  0
    0.6793    2.2353   -0.2892 C   0  0  0  0  0  0  0  0  0  0  0  0
    1.4839   -1.6478    1.8123 C   0  0  0  0  0  0  0  0  0  0  0  0
   -0.8363   -0.7607   -3.7120 C   0  0  0  0  0  0  0  0  0  0  0  0
   -5.4008    0.1476    1.4990 C   0  0  0  0  0  0  0  0  0  0  0  0
   -5.7593   -1.3623   -0.3351 C   0  0  0  0  0  0  0  0  0  0  0  0
   -0.1771   -1.9236   -3.2776 C   0  0  0  0  0  0  0  0  0  0  0  0
   -0.6477   -2.7394    2.0359 C   0  0  0  0  0  0  0  0  0  0  0  0
   -0.8339    4.5783   -0.3422 C   0  0  0  0  0  0  0  0  0  0  0  0
    1.3158    3.4761   -0.3220 C   0  0  0  0  0  0  0  0  0  0  0  0
    2.6757   -1.4954    0.9049 C   0  0  0  0  0  0  0  0  0  0  0  0
    0.5592    4.6475   -0.3486 C   0  0  0  0  0  0  0  0  0  0  0  0
   -6.8912    0.4081    1.6358 C   0  0  0  0  0  0  0  0  0  0  0  0
   -5.4164   -2.5648    0.5279 C   0  0  0  0  0  0  0  0  0  0  0  0
    3.4620   -0.3440    0.9472 C   0  0  0  0  0  0  0  0  0  0  0  0
    2.9902   -2.5227    0.0153 C   0  0  0  0  0  0  0  0  0  0  0  0
    4.5629   -0.2198    0.0995 C   0  0  0  0  0  0  0  0  0  0  0  0
    4.0908   -2.3985   -0.8323 C   0  0  0  0  0  0  0  0  0  0  0  0
    4.8773   -1.2471   -0.7902 C   0  0  0  0  0  0  0  0  0  0  0  0
    3.7528    0.6030    3.1093 C   0  0  0  0  0  0  0  0  0  0  0  0
    6.4447    0.9465   -0.7690 C   0  0  0  0  0  0  0  0  0  0  0  0
  1 10  2  0
  2 30  1  0
  2 35  1  0
  3 32  1  0
  3 36  1  0
  4  5  1  0
  4 10  1  0
  4 11  1  0
  5 18  1  0
  5 23  1  0
  6 13  1  0
  6 20  1  0
  6 21  1  0
  7  8  1  0
  7  9  1  0
  7 10  1  0
  7 12  1  0
  8 13  1  0
  9 11  2  0
  9 14  1  0
 11 15  1  0
 12 16  2  0
 12 17  1  0
 14 19  2  0
 15 22  2  0
 16 24  1  0
 17 25  2  0
 18 26  1  0
 19 22  1  0
 20 28  1  0
 21 29  1  0
 24 27  2  0
 25 27  1  0
 26 30  2  0
 26 31  1  0
 30 32  1  0
 31 33  2  0
 32 34  2  0
 33 34  1  0
M  END
>  <PUBCHEM_COMPOUND_CID>  (1) 
38642

>  <PUBCHEM_CONFORMER_RMSD>  (1) 
1.2

>  <PUBCHEM_CONFORMER_DIVERSEORDER>  (1) 
1
46
19
17
54
20
56
59
5
48
26
66
64
25
6
34
7
55
35
62
40
50
69
68
21
27
31
28
60
65
37
4
53
39
16
10
67
61
58
42
51
24
52
63
30
33
18
29
22
8
41
13
44
11
2
38
57
9
43
3
45
15
47
12
49
14
23
32
36

>  <PUBCHEM_MMFF94_PARTIAL_CHARGES>  (1) 
45
1 -0.57
10 0.57
11 0.12
12 -0.14
13 0.27
14 -0.15
15 -0.15
16 -0.15
17 -0.15
18 0.41
19 -0.15
2 -0.36
20 0.27
21 0.27
22 -0.15
23 0.27
24 -0.15
25 -0.15
26 -0.14
27 -0.15
3 -0.36
30 0.08
31 -0.15
32 0.08
33 -0.15
34 -0.15
35 0.28
36 0.28
4 -0.17
41 0.15
42 0.15
43 0.15
44 0.15
47 0.15
5 -0.55
52 0.15
56 0.15
57 0.15
58 0.15
6 -0.81
65 0.15
66 0.15
67 0.15
7 0.35
9 -0.14

>  <PUBCHEM_EFFECTIVE_ROTOR_COUNT>  (1) 
11.4

>  <PUBCHEM_PHARMACOPHORE_FEATURES>  (1) 
8
1 1 acceptor
1 2 acceptor
1 3 acceptor
1 6 cation
5 4 7 9 10 11 rings
6 12 16 17 24 25 27 rings
6 26 30 31 32 33 34 rings
6 9 11 14 15 19 22 rings

>  <PUBCHEM_HEAVY_ATOM_COUNT>  (1) 
36

>  <PUBCHEM_ATOM_DEF_STEREO_COUNT>  (1) 
0

>  <PUBCHEM_ATOM_UDEF_STEREO_COUNT>  (1) 
1

>  <PUBCHEM_BOND_DEF_STEREO_COUNT>  (1) 
0

>  <PUBCHEM_BOND_UDEF_STEREO_COUNT>  (1) 
0

>  <PUBCHEM_ISOTOPIC_ATOM_COUNT>  (1) 
0

>  <PUBCHEM_COMPONENT_COUNT>  (1) 
1

>  <PUBCHEM_CACTVS_TAUTO_COUNT>  (1) 
1

>  <PUBCHEM_CONFORMER_ID>  (1) 
000096F200000001

>  <PUBCHEM_MMFF94_ENERGY>  (1) 
131.906

>  <PUBCHEM_FEATURE_SELFOVERLAP>  (1) 
40.687

>  <PUBCHEM_SHAPE_FINGERPRINT>  (1) 
11578080 2 17024574600333873589
11763715 3 17972906681766920279
12058002 1 17771382800687031715
12107698 1 18264776467809507110
12156800 1 16818622908497881096
12422481 6 17917713474759583493
12553582 1 18266720520136593356
12788726 201 18259981544296907168
13636023 51 17487346945758398063
14787075 74 18040718073462057787
14840074 17 18131346397645094253
14955137 171 18131354128654798289
15219462 58 17830435199297909407
15775530 1 17411348615946357805
15840311 113 17703790336618238713
15927050 60 17760657261920266756
19315092 285 16588290636768158744
22121540 332 16628007110178142989
23419403 2 17175442202484828622
24771293 8 18340761658456661944
392239 28 18188495648786066731
469060 322 18126254627747593990
57527293 21 18059014956835478919
57527306 92 18343024397557175128
6669772 16 17904492049151782277

>  <PUBCHEM_SHAPE_MULTIPOLES>  (1) 
708.31
11.29
4.36
2.73
4.63
5.51
1.33
-3.64
-4.43
-0.24
0.58
-0.08
-1.47
0.28

>  <PUBCHEM_SHAPE_SELFOVERLAP>  (1) 
1522.686

>  <PUBCHEM_SHAPE_VOLUME>  (1) 
394

>  <PUBCHEM_COORDINATE_TYPE>  (1) 
2
5
10

$$$$
