38641
     RDKit          3D

 35 38  0  0  1  0  0  0  0  0999 V2000
    6.5378   -2.1988   -2.4573 Cl  0  0  0  0  0  0  0  0  0  0  0  0
   -0.7607   -0.7039   -2.0225 O   0  0  0  0  0  0  0  0  0  0  0  0
    3.4506    1.0263    1.3582 O   0  0  0  0  0  0  0  0  0  0  0  0
    0.0066   -0.9211    0.1970 N   0  0  0  0  0  0  0  0  0  0  0  0
    1.2998   -1.3073   -0.0474 N   0  0  0  0  0  0  0  0  0  0  0  0
   -1.8724    3.5310   -0.4776 N   0  0  0  0  0  0  0  0  0  0  0  0
   -2.2438   -0.2315   -0.0963 C   0  0  0  0  0  0  0  0  0  0  0  0
   -2.6137    1.2003   -0.4722 C   0  0  0  0  0  0  0  0  0  0  0  0
   -1.8547   -0.3577    1.3690 C   0  0  0  0  0  0  0  0  0  0  0  0
   -0.9208   -0.6444   -0.8115 C   0  0  0  0  0  0  0  0  0  0  0  0
   -0.5215   -0.7633    1.4768 C   0  0  0  0  0  0  0  0  0  0  0  0
   -3.3361   -1.1812   -0.4733 C   0  0  0  0  0  0  0  0  0  0  0  0
   -1.4877    2.1689   -0.1274 C   0  0  0  0  0  0  0  0  0  0  0  0
   -2.6159   -0.1275    2.5038 C   0  0  0  0  0  0  0  0  0  0  0  0
    0.0894   -0.9537    2.7037 C   0  0  0  0  0  0  0  0  0  0  0  0
   -4.5473   -0.6924   -0.9629 C   0  0  0  0  0  0  0  0  0  0  0  0
   -3.1437   -2.5558   -0.3346 C   0  0  0  0  0  0  0  0  0  0  0  0
    2.0193   -0.2531   -0.7652 C   0  0  0  0  0  0  0  0  0  0  0  0
   -2.0153   -0.3151    3.7512 C   0  0  0  0  0  0  0  0  0  0  0  0
   -1.0935    4.5013    0.2938 C   0  0  0  0  0  0  0  0  0  0  0  0
   -1.6956    3.7638   -1.9121 C   0  0  0  0  0  0  0  0  0  0  0  0
   -0.6745   -0.7248    3.8500 C   0  0  0  0  0  0  0  0  0  0  0  0
    1.3231   -2.5550   -0.8133 C   0  0  0  0  0  0  0  0  0  0  0  0
   -5.5660   -1.5783   -1.3141 C   0  0  0  0  0  0  0  0  0  0  0  0
   -4.1624   -3.4416   -0.6859 C   0  0  0  0  0  0  0  0  0  0  0  0
    3.5098   -0.3709   -0.5884 C   0  0  0  0  0  0  0  0  0  0  0  0
   -5.3735   -2.9528   -1.1756 C   0  0  0  0  0  0  0  0  0  0  0  0
    0.3880    4.3938   -0.0249 C   0  0  0  0  0  0  0  0  0  0  0  0
   -2.1551    5.1584   -2.3026 C   0  0  0  0  0  0  0  0  0  0  0  0
    4.1552    0.2757    0.4658 C   0  0  0  0  0  0  0  0  0  0  0  0
    4.2462   -1.1359   -1.4928 C   0  0  0  0  0  0  0  0  0  0  0  0
    5.5369    0.1571    0.6156 C   0  0  0  0  0  0  0  0  0  0  0  0
    5.6281   -1.2544   -1.3430 C   0  0  0  0  0  0  0  0  0  0  0  0
    6.2734   -0.6079   -0.2888 C   0  0  0  0  0  0  0  0  0  0  0  0
    4.1900    1.6522    2.4048 C   0  0  0  0  0  0  0  0  0  0  0  0
  1 33  1  0
  2 10  2  0
  3 30  1  0
  3 35  1  0
  4  5  1  0
  4 10  1  0
  4 11  1  0
  5 18  1  0
  5 23  1  0
  6 13  1  0
  6 20  1  0
  6 21  1  0
  7  8  1  0
  7  9  1  0
  7 10  1  0
  7 12  1  0
  8 13  1  0
  9 11  2  0
  9 14  1  0
 11 15  1  0
 12 16  2  0
 12 17  1  0
 14 19  2  0
 15 22  2  0
 16 24  1  0
 17 25  2  0
 18 26  1  0
 19 22  1  0
 20 28  1  0
 21 29  1  0
 24 27  2  0
 25 27  1  0
 26 30  2  0
 26 31  1  0
 30 32  1  0
 31 33  2  0
 32 34  2  0
 33 34  1  0
M  END
>  <PUBCHEM_COMPOUND_CID>  (1) 
38641

>  <PUBCHEM_CONFORMER_RMSD>  (1) 
1

>  <PUBCHEM_CONFORMER_DIVERSEORDER>  (1) 
1
229
142
119
140
159
37
150
96
206
130
151
175
36
167
100
204
181
144
135
35
164
78
231
137
220
225
143
178
61
12
222
72
166
112
102
158
179
160
202
70
194
197
27
109
226
223
218
116
184
128
134
207
93
188
15
199
22
208
133
163
216
19
174
170
89
176
54
64
90
118
152
161
211
122
20
147
182
145
165
124
68
177
215
110
114
230
82
63
129
107
185
38
71
7
67
60
10
28
172
187
51
227
221
217
224
138
99
95
201
105
9
141
169
81
131
66
18
195
193
85
49
117
189
14
104
209
132
148
173
39
32
3
77
17
198
120
34
21
196
11
186
153
92
56
155
127
146
154
23
48
88
149
47
156
136
52
121
25
57
94
4
44
123
98
13
210
40
62
205
171
55
191
46
65
59
192
168
24
84
6
183
214
212
16
43
50
190
213
108
97
111
42
219
228
58
80
200
69
31
101
45
139
73
157
126
180
83
162
30
79
2
41
53
103
74
33
203
115
5
113
106
29
8
75
26
87
125
76
91
86

>  <PUBCHEM_MMFF94_PARTIAL_CHARGES>  (1) 
44
1 -0.18
10 0.57
11 0.12
12 -0.14
13 0.27
14 -0.15
15 -0.15
16 -0.15
17 -0.15
18 0.41
19 -0.15
2 -0.57
20 0.27
21 0.27
22 -0.15
23 0.27
24 -0.15
25 -0.15
26 -0.14
27 -0.15
3 -0.36
30 0.08
31 -0.15
32 -0.15
33 0.18
34 -0.15
35 0.28
4 -0.17
40 0.15
41 0.15
42 0.15
43 0.15
46 0.15
5 -0.55
51 0.15
55 0.15
56 0.15
57 0.15
6 -0.81
64 0.15
65 0.15
66 0.15
7 0.35
9 -0.14

>  <PUBCHEM_EFFECTIVE_ROTOR_COUNT>  (1) 
10.4

>  <PUBCHEM_PHARMACOPHORE_FEATURES>  (1) 
7
1 2 acceptor
1 3 acceptor
1 6 cation
5 4 7 9 10 11 rings
6 12 16 17 24 25 27 rings
6 26 30 31 32 33 34 rings
6 9 11 14 15 19 22 rings

>  <PUBCHEM_HEAVY_ATOM_COUNT>  (1) 
35

>  <PUBCHEM_ATOM_DEF_STEREO_COUNT>  (1) 
0

>  <PUBCHEM_ATOM_UDEF_STEREO_COUNT>  (1) 
1

>  <PUBCHEM_BOND_DEF_STEREO_COUNT>  (1) 
0

>  <PUBCHEM_BOND_UDEF_STEREO_COUNT>  (1) 
0

>  <PUBCHEM_ISOTOPIC_ATOM_COUNT>  (1) 
0

>  <PUBCHEM_COMPONENT_COUNT>  (1) 
1

>  <PUBCHEM_CACTVS_TAUTO_COUNT>  (1) 
1

>  <PUBCHEM_CONFORMER_ID>  (1) 
000096F100000001

>  <PUBCHEM_MMFF94_ENERGY>  (1) 
116.0255

>  <PUBCHEM_FEATURE_SELFOVERLAP>  (1) 
35.607

>  <PUBCHEM_SHAPE_FINGERPRINT>  (1) 
10032420 55 17169522269225708543
11045515 52 18409447020562406269
11488393 25 17398676091780999899
11763715 3 18264229017717850246
12107698 1 18261944228866979712
12160290 23 17900851286731636421
12166972 35 17917433176566962752
12293681 160 17531234068318183169
12788726 201 18187635857000934849
133893 2 17762366972969580145
13560911 43 18271234011394874410
1361 2 17907568478080004632
13782708 43 18060699507127836414
14068700 675 18186515536045776380
14114206 34 17676211264303745580
15198563 99 18409161087726388277
17349148 13 17385724716056256014
21033650 10 18114751417450198444
22393880 68 18199468771243614214
23419403 2 17317625514861157715
23559900 14 17984685978344634335
376196 1 17106227486165741093
404807 14 18201166485240734376
46194498 28 18201714090231094340
469060 322 18342185474405925938
484985 159 17772485490611530256
497634 4 17703519821881017638
5104073 3 16486986059718904258
531348 171 18121791534542517030
6086070 43 18056471760992200302

>  <PUBCHEM_SHAPE_MULTIPOLES>  (1) 
695.47
12.14
5.08
3.1
16.8
8.8
3.32
-9.88
-6.47
-5.54
-3.73
-0.37
-0.05
2.24

>  <PUBCHEM_SHAPE_SELFOVERLAP>  (1) 
1488.268

>  <PUBCHEM_SHAPE_VOLUME>  (1) 
390.3

>  <PUBCHEM_COORDINATE_TYPE>  (1) 
2
5
10

$$$$
