38645
     RDKit          3D

 29 32  0  0  1  0  0  0  0  0999 V2000
   -0.6574   -0.1781    1.9926 O   0  0  0  0  0  0  0  0  0  0  0  0
   -1.4638    0.0171   -0.2151 N   0  0  0  0  0  0  0  0  0  0  0  0
   -2.7571    0.4282    0.0500 N   0  0  0  0  0  0  0  0  0  0  0  0
    2.5937    2.6761    0.3072 N   0  0  0  0  0  0  0  0  0  0  0  0
    0.7943   -0.6604    0.0450 C   0  0  0  0  0  0  0  0  0  0  0  0
    0.3689   -0.5828   -1.4137 C   0  0  0  0  0  0  0  0  0  0  0  0
    1.9082    0.3293    0.3729 C   0  0  0  0  0  0  0  0  0  0  0  0
   -0.5180   -0.2471    0.7796 C   0  0  0  0  0  0  0  0  0  0  0  0
   -0.9658   -0.1773   -1.5019 C   0  0  0  0  0  0  0  0  0  0  0  0
    1.1789   -2.0488    0.4468 C   0  0  0  0  0  0  0  0  0  0  0  0
   -2.7413    1.6966    0.7877 C   0  0  0  0  0  0  0  0  0  0  0  0
   -3.4753   -0.6160    0.7901 C   0  0  0  0  0  0  0  0  0  0  0  0
    1.5069    1.7531    0.0027 C   0  0  0  0  0  0  0  0  0  0  0  0
   -4.1632    2.1902    1.0603 C   0  0  0  0  0  0  0  0  0  0  0  0
   -4.9213   -0.1990    1.0632 C   0  0  0  0  0  0  0  0  0  0  0  0
   -4.9844    1.1368    1.7962 C   0  0  0  0  0  0  0  0  0  0  0  0
    1.1040   -0.8439   -2.5589 C   0  0  0  0  0  0  0  0  0  0  0  0
   -1.6058   -0.0233   -2.7190 C   0  0  0  0  0  0  0  0  0  0  0  0
    0.2482   -3.0808    0.3521 C   0  0  0  0  0  0  0  0  0  0  0  0
    2.4661   -2.3041    0.9134 C   0  0  0  0  0  0  0  0  0  0  0  0
    0.4736   -0.6940   -3.7968 C   0  0  0  0  0  0  0  0  0  0  0  0
   -0.8695   -0.2875   -3.8758 C   0  0  0  0  0  0  0  0  0  0  0  0
    2.9165    2.6395    1.7347 C   0  0  0  0  0  0  0  0  0  0  0  0
    2.2425    4.0381   -0.0988 C   0  0  0  0  0  0  0  0  0  0  0  0
    0.6068   -4.3756    0.7266 C   0  0  0  0  0  0  0  0  0  0  0  0
    2.8247   -3.5991    1.2878 C   0  0  0  0  0  0  0  0  0  0  0  0
    1.8949   -4.6348    1.1944 C   0  0  0  0  0  0  0  0  0  0  0  0
    4.0915    3.5477    2.0553 C   0  0  0  0  0  0  0  0  0  0  0  0
    1.9033    4.0997   -1.5785 C   0  0  0  0  0  0  0  0  0  0  0  0
  1  8  2  0
  2  3  1  0
  2  8  1  0
  2  9  1  0
  3 11  1  0
  3 12  1  0
  4 13  1  0
  4 23  1  0
  4 24  1  0
  5  6  1  0
  5  7  1  0
  5  8  1  0
  5 10  1  0
  6  9  2  0
  6 17  1  0
  7 13  1  0
  9 18  1  0
 10 19  2  0
 10 20  1  0
 11 14  1  0
 12 15  1  0
 14 16  1  0
 15 16  1  0
 17 21  2  0
 18 22  2  0
 19 25  1  0
 20 26  2  0
 21 22  1  0
 23 28  1  0
 24 29  1  0
 25 27  2  0
 26 27  1  0
M  END
>  <PUBCHEM_COMPOUND_CID>  (1) 
38645

>  <PUBCHEM_CONFORMER_RMSD>  (1) 
1

>  <PUBCHEM_CONFORMER_DIVERSEORDER>  (1) 
1
39
41
42
31
40
30
19
26
35
33
29
12
37
34
36
23
25
16
38
21
17
7
28
6
20
9
18
22
32
14
27
2
11
5
24
4
8
10
13
3
15

>  <PUBCHEM_MMFF94_PARTIAL_CHARGES>  (1) 
32
1 -0.57
10 -0.14
11 0.27
12 0.27
13 0.27
17 -0.15
18 -0.15
19 -0.15
2 -0.17
20 -0.15
21 -0.15
22 -0.15
23 0.27
24 0.27
25 -0.15
26 -0.15
27 -0.15
3 -0.55
4 -0.81
44 0.15
45 0.15
46 0.15
47 0.15
48 0.15
49 0.15
5 0.35
54 0.15
55 0.15
56 0.15
6 -0.14
8 0.57
9 0.12

>  <PUBCHEM_EFFECTIVE_ROTOR_COUNT>  (1) 
8.6

>  <PUBCHEM_PHARMACOPHORE_FEATURES>  (1) 
6
1 1 acceptor
1 4 cation
5 2 5 6 8 9 rings
6 10 19 20 25 26 27 rings
6 3 11 12 14 15 16 rings
6 6 9 17 18 21 22 rings

>  <PUBCHEM_HEAVY_ATOM_COUNT>  (1) 
29

>  <PUBCHEM_ATOM_DEF_STEREO_COUNT>  (1) 
0

>  <PUBCHEM_ATOM_UDEF_STEREO_COUNT>  (1) 
1

>  <PUBCHEM_BOND_DEF_STEREO_COUNT>  (1) 
0

>  <PUBCHEM_BOND_UDEF_STEREO_COUNT>  (1) 
0

>  <PUBCHEM_ISOTOPIC_ATOM_COUNT>  (1) 
0

>  <PUBCHEM_COMPONENT_COUNT>  (1) 
1

>  <PUBCHEM_CACTVS_TAUTO_COUNT>  (1) 
1

>  <PUBCHEM_CONFORMER_ID>  (1) 
000096F500000001

>  <PUBCHEM_MMFF94_ENERGY>  (1) 
75.2218

>  <PUBCHEM_FEATURE_SELFOVERLAP>  (1) 
30.532

>  <PUBCHEM_SHAPE_FINGERPRINT>  (1) 
10165383 225 18041576827041165820
107951 10 18051996975736202508
11421498 54 17181432002524637461
11443803 9 17345462863657732985
11578080 2 17677611952065592421
11582403 64 17773880972403417832
12058002 1 17689163730358839567
12741549 16 17388545904206023844
12788726 201 17328323345718028010
133893 2 17982131665922980190
13583140 156 18267012861205963421
14955137 171 18059017151400080546
15219462 58 18408611344733720695
15878777 1 12676690012595637622
17980427 23 17557128516076882321
17980427 26 18412258445665973702
19319366 153 18199740509233825497
20600515 1 17481430374503816825
21756936 100 17984132940685089608
23419403 2 17751339717087384990
23558518 356 18125718143762133790
23559900 14 18260557684479574593
244849 19 17897984877440401605
25222932 49 18127411375212440775
266924 78 18192402308104776502
3380486 145 17899947496763668602
3380486 77 17838348376156485563
376196 1 17845108413635265265
394222 165 17989490718717221339
497634 4 16962658184528922084
57527358 35 16126656432730254770
57527585 103 16611345535639247385
59755656 520 18122055666462242608
79837 15 18049719912792559138
9981440 41 18264772241187051353

>  <PUBCHEM_SHAPE_MULTIPOLES>  (1) 
575.99
6.5
5.8
3.2
9.04
0.54
4.34
3.21
-5.81
-8.89
-2.99
0.2
0.07
-0.45

>  <PUBCHEM_SHAPE_SELFOVERLAP>  (1) 
1233.578

>  <PUBCHEM_SHAPE_VOLUME>  (1) 
320.4

>  <PUBCHEM_COORDINATE_TYPE>  (1) 
2
5
10

$$$$
