38663
     RDKit          3D

 13 12  0  0  0  0  0  0  0  0999 V2000
    1.1459    0.0072   -1.5512 O   0  0  0  0  0  0  0  0  0  0  0  0
   -0.0682    0.0024    0.4272 N   0  0  0  0  0  0  0  0  0  0  0  0
   -1.3784   -0.0069   -0.1830 C   0  0  0  0  0  0  0  0  0  0  0  0
   -2.1698    1.2503    0.2142 C   0  0  0  0  0  0  0  0  0  0  0  0
   -2.1533   -1.2749    0.2132 C   0  0  0  0  0  0  0  0  0  0  0  0
   -1.4449    2.5479   -0.1567 C   0  0  0  0  0  0  0  0  0  0  0  0
   -1.4077   -2.5610   -0.1572 C   0  0  0  0  0  0  0  0  0  0  0  0
    1.0970    0.0087   -0.3240 C   0  0  0  0  0  0  0  0  0  0  0  0
   -2.2401    3.7704    0.2750 C   0  0  0  0  0  0  0  0  0  0  0  0
   -2.1849   -3.7961    0.2720 C   0  0  0  0  0  0  0  0  0  0  0  0
    2.3312    0.0200    0.5599 C   0  0  0  0  0  0  0  0  0  0  0  0
    3.6261    0.0270   -0.2471 C   0  0  0  0  0  0  0  0  0  0  0  0
    4.8472    0.0050    0.6575 C   0  0  0  0  0  0  0  0  0  0  0  0
  1  8  2  0
  2  3  1  0
  2  8  1  0
  3  4  1  0
  3  5  1  0
  4  6  1  0
  5  7  1  0
  6  9  1  0
  7 10  1  0
  8 11  1  0
 11 12  1  0
 12 13  1  0
M  END
>  <PUBCHEM_COMPOUND_CID>  (1) 
38663

>  <PUBCHEM_CONFORMER_RMSD>  (1) 
0.8

>  <PUBCHEM_CONFORMER_DIVERSEORDER>  (1) 
1
65
5
43
46
75
28
68
73
74
27
10
15
76
64
67
24
2
17
60
56
6
26
38
13
71
72
44
48
57
41
54
21
39
62
25
59
22
33
66
34
18
20
45
47
61
14
16
3
32
70
30
40
49
9
42
4
36
12
50
31
63
69
7
19
58
51
55
37
77
29
53
35
11
8
23
52

>  <PUBCHEM_MMFF94_PARTIAL_CHARGES>  (1) 
6
1 -0.57
11 0.06
2 -0.73
23 0.37
3 0.3
8 0.57

>  <PUBCHEM_EFFECTIVE_ROTOR_COUNT>  (1) 
8

>  <PUBCHEM_PHARMACOPHORE_FEATURES>  (1) 
5
1 1 acceptor
1 10 hydrophobe
1 13 hydrophobe
1 2 donor
1 9 hydrophobe

>  <PUBCHEM_HEAVY_ATOM_COUNT>  (1) 
13

>  <PUBCHEM_ATOM_DEF_STEREO_COUNT>  (1) 
0

>  <PUBCHEM_ATOM_UDEF_STEREO_COUNT>  (1) 
0

>  <PUBCHEM_BOND_DEF_STEREO_COUNT>  (1) 
0

>  <PUBCHEM_BOND_UDEF_STEREO_COUNT>  (1) 
0

>  <PUBCHEM_ISOTOPIC_ATOM_COUNT>  (1) 
0

>  <PUBCHEM_COMPONENT_COUNT>  (1) 
1

>  <PUBCHEM_CACTVS_TAUTO_COUNT>  (1) 
2

>  <PUBCHEM_CONFORMER_ID>  (1) 
0000970700000001

>  <PUBCHEM_MMFF94_ENERGY>  (1) 
2.7384

>  <PUBCHEM_FEATURE_SELFOVERLAP>  (1) 
25.373

>  <PUBCHEM_SHAPE_FINGERPRINT>  (1) 
1 1 17617381680153331829
11357001 24 18409449214863536923
12500047 106 18339637820550196032
12532896 13 18197219139929191453
13380537 58 18267030470160426988
13955234 65 17257943594140779257
15042514 8 18408891767169566131
1741750 31 18268147548389417264
18785283 64 17471587533384612961
19021347 4 18266179426917858707
20510252 161 18271246006558413537
20524608 308 18411420574929931026
20600515 1 18127989696230568675
20645477 56 18340772537798524768
20645477 70 16968565873189702831
20671657 1 17187290063418769821
20871998 184 18200880689501024535
212916 134 17981301436076208832
21426921 1 18410575110992032480
21524375 3 17912071755700995925
21650355 55 18338796848336212491
23402539 116 18342727529781139791
23557571 272 18202013122643844596
23598294 1 18335976480699083809
257057 1 18049440641134025053
305870 269 17905327329837856953
3071541 12 17259342168256027625
3086196 2 18338229487667707978
3091708 16 9201685815180462811
7364860 26 17186440140798344321
81228 2 18270977829042868771
88987 49 18337971003750971692

>  <PUBCHEM_SHAPE_MULTIPOLES>  (1) 
256.68
6.16
4.2
0.85
10.55
0.12
0.17
-0.13
-1.15
-7.04
-0.48
0.33
0
0

>  <PUBCHEM_SHAPE_SELFOVERLAP>  (1) 
467.158

>  <PUBCHEM_SHAPE_VOLUME>  (1) 
164.2

>  <PUBCHEM_COORDINATE_TYPE>  (1) 
2
5
10

$$$$
