38667
     RDKit          3D

 19 21  0  0  0  0  0  0  0  0999 V2000
    3.3375   -2.4161    1.4020 Cl  0  0  0  0  0  0  0  0  0  0  0  0
    5.8440   -1.2111   -0.2527 Cl  0  0  0  0  0  0  0  0  0  0  0  0
   -3.3056    0.4296    0.2757 N   0  0  0  0  0  0  0  0  0  0  0  0
    0.6745    1.6838   -0.0693 N   0  0  0  0  0  0  0  0  0  0  0  0
   -2.3878   -0.3985   -0.3323 C   0  0  0  0  0  0  0  0  0  0  0  0
   -0.6645    1.2612    0.0466 C   0  0  0  0  0  0  0  0  0  0  0  0
   -1.0530    0.0238   -0.4472 C   0  0  0  0  0  0  0  0  0  0  0  0
   -2.9161    1.6373    0.7551 C   0  0  0  0  0  0  0  0  0  0  0  0
   -1.6040    2.0758    0.6533 C   0  0  0  0  0  0  0  0  0  0  0  0
   -2.8084   -1.6457   -0.8232 C   0  0  0  0  0  0  0  0  0  0  0  0
    1.8975    0.9843   -0.1033 C   0  0  0  0  0  0  0  0  0  0  0  0
   -4.5987    0.0369    0.3950 C   0  0  0  0  0  0  0  0  0  0  0  0
   -4.1335   -2.0380   -0.6963 C   0  0  0  0  0  0  0  0  0  0  0  0
   -5.0373   -1.1896   -0.0816 C   0  0  0  0  0  0  0  0  0  0  0  0
    2.0284   -0.2278    0.5754 C   0  0  0  0  0  0  0  0  0  0  0  0
    2.9790    1.5033   -0.8162 C   0  0  0  0  0  0  0  0  0  0  0  0
    3.2390   -0.9200    0.5413 C   0  0  0  0  0  0  0  0  0  0  0  0
    4.1895    0.8113   -0.8505 C   0  0  0  0  0  0  0  0  0  0  0  0
    4.3195   -0.4004   -0.1719 C   0  0  0  0  0  0  0  0  0  0  0  0
  1 17  1  0
  2 19  1  0
  3  5  1  0
  3  8  2  0
  3 12  1  0
  4  6  1  0
  4 11  1  0
  5  7  2  0
  5 10  1  0
  6  7  1  0
  6  9  2  0
  8  9  1  0
 10 13  2  0
 11 15  2  0
 11 16  1  0
 12 14  2  0
 13 14  1  0
 15 17  1  0
 16 18  2  0
 17 19  2  0
 18 19  1  0
M  CHG  1   3   1
M  END
>  <PUBCHEM_COMPOUND_CID>  (1) 
38667

>  <PUBCHEM_CONFORMER_RMSD>  (1) 
0.6

>  <PUBCHEM_CONFORMER_DIVERSEORDER>  (1) 
1
8
25
3
2
26
7
4
12
23
5
24
6
28
14
11
20
16
18
15
13
27
19
9
17
29
10
21
22

>  <PUBCHEM_MMFF94_PARTIAL_CHARGES>  (1) 
30
1 -0.18
10 -0.15
11 0.1
12 0.21
13 -0.15
14 -0.15
15 -0.15
16 -0.15
17 0.18
18 -0.15
19 0.18
2 -0.18
20 0.15
21 0.15
22 0.15
23 0.4
24 0.15
25 0.15
26 0.15
27 0.15
28 0.15
29 0.15
3 -0.08
30 0.15
4 -0.6
5 0.36
6 0.1
7 -0.15
8 0.21
9 -0.15

>  <PUBCHEM_EFFECTIVE_ROTOR_COUNT>  (1) 
2

>  <PUBCHEM_PHARMACOPHORE_FEATURES>  (1) 
5
1 4 cation
1 4 donor
6 11 15 16 17 18 19 rings
6 3 5 10 12 13 14 rings
6 3 5 6 7 8 9 rings

>  <PUBCHEM_HEAVY_ATOM_COUNT>  (1) 
19

>  <PUBCHEM_ATOM_DEF_STEREO_COUNT>  (1) 
0

>  <PUBCHEM_ATOM_UDEF_STEREO_COUNT>  (1) 
0

>  <PUBCHEM_BOND_DEF_STEREO_COUNT>  (1) 
0

>  <PUBCHEM_BOND_UDEF_STEREO_COUNT>  (1) 
0

>  <PUBCHEM_ISOTOPIC_ATOM_COUNT>  (1) 
0

>  <PUBCHEM_COMPONENT_COUNT>  (1) 
1

>  <PUBCHEM_CACTVS_TAUTO_COUNT>  (1) 
2

>  <PUBCHEM_CONFORMER_ID>  (1) 
0000970B00000001

>  <PUBCHEM_MMFF94_ENERGY>  (1) 
70.8895

>  <PUBCHEM_FEATURE_SELFOVERLAP>  (1) 
25.402

>  <PUBCHEM_SHAPE_FINGERPRINT>  (1) 
10062212 137 18343299301750588519
10616163 171 18341614806349216486
11046707 91 18343865528347338053
11578080 2 18265027241527386956
12107183 9 17833269714229933272
12236239 1 18408890637265911620
12410352 35 18410287004053313611
12553582 1 18339912779481490694
12596602 18 17917992793409517410
12633257 1 17632306678759180401
12788726 201 18200889425759747945
13167823 11 18410294717787976181
13288520 33 18342741805725086085
13862211 1 18130786815547451967
14576447 43 18261110756082171626
15183329 4 18261380132368047077
15188451 53 16200138954993365679
15196674 1 18412826910262470260
15375462 189 18410011052404363913
15537594 2 18335428928219372522
17349148 13 17894623752146225688
17492 89 18338234856055639730
17804303 29 17988645224651591873
17834072 33 18409171030174562372
17857418 61 18410569582852313706
1813 80 18113910342061782101
18915474 69 18410293644341518900
19422 9 18410577283844830412
200 152 18333732428943102920
20281475 54 18408880707427948392
20291156 8 18411696608146121873
20645477 70 17458060461050609114
21054139 6 18333732438313902162
21267235 1 18411146839320796430
2255824 54 18187652448649971220
22646028 1 18410011048104193228
22646028 28 18410291419253053794
22950370 63 18340210790493585223
2297311 6 17846230959193501604
23366157 5 17980193407697680657
235170 7 16443336594150474559
23559900 14 18272079543662274953
23596394 208 16298659508598850330
2871803 45 18186517722242034518
3004659 81 18333726927084598598
312423 11 18337965561758654692
335352 9 18343021086928563629
351380 3 18411700997502705519
4214541 1 18413390908277913797
46194498 28 16733825444673995607
465052 167 18199755902475865415
5104073 3 18059581325107906681
559249 180 18338516335542744485
573450 72 18343584023284770457
602551 16 17131827716026759734
67856867 119 18339078315203556036
7970288 3 18199744911423102679

>  <PUBCHEM_SHAPE_MULTIPOLES>  (1) 
384.79
11.9
2.33
0.98
2.84
0.31
-0.1
5.73
0.84
-0.23
-0.29
0.32
0.21
-1.89

>  <PUBCHEM_SHAPE_SELFOVERLAP>  (1) 
828.23

>  <PUBCHEM_SHAPE_VOLUME>  (1) 
211.8

>  <PUBCHEM_COORDINATE_TYPE>  (1) 
2
5
10

$$$$
