38674
     RDKit          3D

  7  7  0  0  0  0  0  0  0  0999 V2000
   -0.5437   -1.3545    0.1585 O   0  0  0  0  0  0  0  0  0  0  0  0
    0.9019    1.8203   -0.0642 O   0  0  0  0  0  0  0  0  0  0  0  0
    0.5590   -0.4847    0.0521 N   0  0  0  0  0  0  0  0  0  0  0  0
   -1.3009    0.8585    0.1519 C   0  0  0  0  0  0  0  0  0  0  0  0
   -1.6549   -0.5565   -0.2554 C   0  0  0  0  0  0  0  0  0  0  0  0
    0.1873    0.8337    0.0186 C   0  0  0  0  0  0  0  0  0  0  0  0
    1.8512   -1.1169   -0.0615 C   0  0  0  0  0  0  0  0  0  0  0  0
  1  3  1  0
  1  5  1  0
  2  6  2  0
  3  6  1  0
  3  7  1  0
  4  5  1  0
  4  6  1  0
M  END
>  <PUBCHEM_COMPOUND_CID>  (1) 
38674

>  <PUBCHEM_CONFORMER_RMSD>  (1) 
0.4

>  <PUBCHEM_CONFORMER_DIVERSEORDER>  (1) 
1

>  <PUBCHEM_MMFF94_PARTIAL_CHARGES>  (1) 
7
1 -0.32
2 -0.57
3 -0.32
4 0.06
5 0.28
6 0.57
7 0.3

>  <PUBCHEM_EFFECTIVE_ROTOR_COUNT>  (1) 
0.8

>  <PUBCHEM_PHARMACOPHORE_FEATURES>  (1) 
2
1 2 acceptor
5 1 3 4 5 6 rings

>  <PUBCHEM_HEAVY_ATOM_COUNT>  (1) 
7

>  <PUBCHEM_ATOM_DEF_STEREO_COUNT>  (1) 
0

>  <PUBCHEM_ATOM_UDEF_STEREO_COUNT>  (1) 
0

>  <PUBCHEM_BOND_DEF_STEREO_COUNT>  (1) 
0

>  <PUBCHEM_BOND_UDEF_STEREO_COUNT>  (1) 
0

>  <PUBCHEM_ISOTOPIC_ATOM_COUNT>  (1) 
0

>  <PUBCHEM_COMPONENT_COUNT>  (1) 
1

>  <PUBCHEM_CACTVS_TAUTO_COUNT>  (1) 
2

>  <PUBCHEM_CONFORMER_ID>  (1) 
0000971200000001

>  <PUBCHEM_MMFF94_ENERGY>  (1) 
8.3502

>  <PUBCHEM_FEATURE_SELFOVERLAP>  (1) 
10.148

>  <PUBCHEM_SHAPE_FINGERPRINT>  (1) 
16714656 1 18051981307415600182
18185500 45 18265051332019061646
20096714 4 18266742565739019245
21040471 1 17329989608292268105
29004967 10 18263652774713845379
5943 1 13178739253788765601

>  <PUBCHEM_SHAPE_MULTIPOLES>  (1) 
127.34
2.04
1.65
0.59
0.6
0.52
-0.01
-0.54
-0.06
0
-0.03
-0.03
-0.02
-0.07

>  <PUBCHEM_SHAPE_SELFOVERLAP>  (1) 
249.514

>  <PUBCHEM_SHAPE_VOLUME>  (1) 
79.3

>  <PUBCHEM_COORDINATE_TYPE>  (1) 
2
5
10

$$$$
