38675
     RDKit          3D

  8  8  0  0  0  0  0  0  0  0999 V2000
   -0.1964   -1.4153    0.3508 O   0  0  0  0  0  0  0  0  0  0  0  0
   -0.4696    2.0465   -0.0487 O   0  0  0  0  0  0  0  0  0  0  0  0
    0.3331   -0.1103    0.3358 N   0  0  0  0  0  0  0  0  0  0  0  0
   -1.9050    0.1081   -0.1294 C   0  0  0  0  0  0  0  0  0  0  0  0
   -1.4162   -1.3023   -0.3855 C   0  0  0  0  0  0  0  0  0  0  0  0
   -0.6109    0.8366    0.0367 C   0  0  0  0  0  0  0  0  0  0  0  0
    1.7528   -0.0039    0.5719 C   0  0  0  0  0  0  0  0  0  0  0  0
    2.5121   -0.1595   -0.7317 C   0  0  0  0  0  0  0  0  0  0  0  0
  1  3  1  0
  1  5  1  0
  2  6  2  0
  3  6  1  0
  3  7  1  0
  4  5  1  0
  4  6  1  0
  7  8  1  0
M  END
>  <PUBCHEM_COMPOUND_CID>  (1) 
38675

>  <PUBCHEM_CONFORMER_RMSD>  (1) 
0.4

>  <PUBCHEM_CONFORMER_DIVERSEORDER>  (1) 
1
2

>  <PUBCHEM_MMFF94_PARTIAL_CHARGES>  (1) 
7
1 -0.32
2 -0.57
3 -0.32
4 0.06
5 0.28
6 0.57
7 0.3

>  <PUBCHEM_EFFECTIVE_ROTOR_COUNT>  (1) 
1.8

>  <PUBCHEM_PHARMACOPHORE_FEATURES>  (1) 
2
1 2 acceptor
5 1 3 4 5 6 rings

>  <PUBCHEM_HEAVY_ATOM_COUNT>  (1) 
8

>  <PUBCHEM_ATOM_DEF_STEREO_COUNT>  (1) 
0

>  <PUBCHEM_ATOM_UDEF_STEREO_COUNT>  (1) 
0

>  <PUBCHEM_BOND_DEF_STEREO_COUNT>  (1) 
0

>  <PUBCHEM_BOND_UDEF_STEREO_COUNT>  (1) 
0

>  <PUBCHEM_ISOTOPIC_ATOM_COUNT>  (1) 
0

>  <PUBCHEM_COMPONENT_COUNT>  (1) 
1

>  <PUBCHEM_CACTVS_TAUTO_COUNT>  (1) 
2

>  <PUBCHEM_CONFORMER_ID>  (1) 
0000971300000001

>  <PUBCHEM_MMFF94_ENERGY>  (1) 
5.8216

>  <PUBCHEM_FEATURE_SELFOVERLAP>  (1) 
10.148

>  <PUBCHEM_SHAPE_FINGERPRINT>  (1) 
16714656 1 18411704265951322487
18185500 45 18261385676310969610
21040471 1 18051121497828243944
23552423 10 18188490168698382042
29004967 10 16271924926282200306

>  <PUBCHEM_SHAPE_MULTIPOLES>  (1) 
147.92
2.76
1.54
0.75
1.45
0.42
-0.04
-0.41
-0.51
-0.61
-0.04
0.24
-0.06
-0.01

>  <PUBCHEM_SHAPE_SELFOVERLAP>  (1) 
287.987

>  <PUBCHEM_SHAPE_VOLUME>  (1) 
92.1

>  <PUBCHEM_COORDINATE_TYPE>  (1) 
2
5
10

$$$$
