38676
     RDKit          3D

  9  9  0  0  0  0  0  0  0  0999 V2000
   -0.6389    1.4113   -0.3742 O   0  0  0  0  0  0  0  0  0  0  0  0
   -0.9607   -2.0419    0.0624 O   0  0  0  0  0  0  0  0  0  0  0  0
   -0.1376    0.0950   -0.3848 N   0  0  0  0  0  0  0  0  0  0  0  0
    1.2617   -0.0434   -0.7092 C   0  0  0  0  0  0  0  0  0  0  0  0
   -2.3462   -0.0723    0.2218 C   0  0  0  0  0  0  0  0  0  0  0  0
   -1.8119    1.3282    0.4383 C   0  0  0  0  0  0  0  0  0  0  0  0
   -1.0809   -0.8297   -0.0211 C   0  0  0  0  0  0  0  0  0  0  0  0
    2.1162    0.1365    0.5429 C   0  0  0  0  0  0  0  0  0  0  0  0
    3.5985    0.0164    0.2238 C   0  0  0  0  0  0  0  0  0  0  0  0
  1  3  1  0
  1  6  1  0
  2  7  2  0
  3  4  1  0
  3  7  1  0
  4  8  1  0
  5  6  1  0
  5  7  1  0
  8  9  1  0
M  END
>  <PUBCHEM_COMPOUND_CID>  (1) 
38676

>  <PUBCHEM_CONFORMER_RMSD>  (1) 
0.6

>  <PUBCHEM_CONFORMER_DIVERSEORDER>  (1) 
1
8
7
3
5
6
4
2

>  <PUBCHEM_MMFF94_PARTIAL_CHARGES>  (1) 
7
1 -0.32
2 -0.57
3 -0.32
4 0.3
5 0.06
6 0.28
7 0.57

>  <PUBCHEM_EFFECTIVE_ROTOR_COUNT>  (1) 
2.8

>  <PUBCHEM_PHARMACOPHORE_FEATURES>  (1) 
3
1 2 acceptor
1 9 hydrophobe
5 1 3 5 6 7 rings

>  <PUBCHEM_HEAVY_ATOM_COUNT>  (1) 
9

>  <PUBCHEM_ATOM_DEF_STEREO_COUNT>  (1) 
0

>  <PUBCHEM_ATOM_UDEF_STEREO_COUNT>  (1) 
0

>  <PUBCHEM_BOND_DEF_STEREO_COUNT>  (1) 
0

>  <PUBCHEM_BOND_UDEF_STEREO_COUNT>  (1) 
0

>  <PUBCHEM_ISOTOPIC_ATOM_COUNT>  (1) 
0

>  <PUBCHEM_COMPONENT_COUNT>  (1) 
1

>  <PUBCHEM_CACTVS_TAUTO_COUNT>  (1) 
2

>  <PUBCHEM_CONFORMER_ID>  (1) 
0000971400000001

>  <PUBCHEM_MMFF94_ENERGY>  (1) 
5.4357

>  <PUBCHEM_FEATURE_SELFOVERLAP>  (1) 
15.223

>  <PUBCHEM_SHAPE_FINGERPRINT>  (1) 
10857977 72 18341609364614680752
12932764 1 17676479545704860028
13024252 1 14706924025590046333
20645464 45 18130791127108814038
20653085 51 14979961349963661192
20871998 184 18200036268855277830
21040471 1 18338812099807038293
23552423 10 17683534200675510341
369184 2 18412820287486177328
54338 74 18335691806034936589
75552 356 18410011074132303882

>  <PUBCHEM_SHAPE_MULTIPOLES>  (1) 
168.5
4.24
1.43
0.74
3.92
0.34
0.01
-0.39
-0.75
-0.96
-0.05
0.13
-0.05
-0.01

>  <PUBCHEM_SHAPE_SELFOVERLAP>  (1) 
325.78

>  <PUBCHEM_SHAPE_VOLUME>  (1) 
104.9

>  <PUBCHEM_COORDINATE_TYPE>  (1) 
2
5
10

$$$$
