38687
     RDKit          3D

 21 22  0  0  1  0  0  0  0  0999 V2000
   -3.7305    1.5508    2.1509 Cl  0  0  0  0  0  0  0  0  0  0  0  0
   -5.4555   -2.9118   -0.3236 Cl  0  0  0  0  0  0  0  0  0  0  0  0
    3.5693    0.6893   -0.1370 O   0  0  0  0  0  0  0  0  0  0  0  0
   -1.8453    1.7192   -0.1846 O   0  0  0  0  0  0  0  0  0  0  0  0
    5.0748   -2.5139    0.5215 O   0  0  0  0  0  0  0  0  0  0  0  0
    4.9328   -0.6237    1.7701 O   0  0  0  0  0  0  0  0  0  0  0  0
    3.9809   -0.6367   -0.4659 C   0  0  0  0  0  0  0  0  0  0  0  0
    2.2323    0.9436   -0.1486 C   0  0  0  0  0  0  0  0  0  0  0  0
   -0.5082    1.4655   -0.1722 C   0  0  0  0  0  0  0  0  0  0  0  0
    1.3796    0.2324    0.6956 C   0  0  0  0  0  0  0  0  0  0  0  0
    1.7148    1.9157   -1.0047 C   0  0  0  0  0  0  0  0  0  0  0  0
    0.0094    0.4933    0.6839 C   0  0  0  0  0  0  0  0  0  0  0  0
    0.3446    2.1766   -1.0164 C   0  0  0  0  0  0  0  0  0  0  0  0
    4.8884   -0.5586   -1.6810 C   0  0  0  0  0  0  0  0  0  0  0  0
   -2.7061    0.6345   -0.1969 C   0  0  0  0  0  0  0  0  0  0  0  0
    4.7081   -1.2225    0.7262 C   0  0  0  0  0  0  0  0  0  0  0  0
   -3.6198    0.4515    0.8259 C   0  0  0  0  0  0  0  0  0  0  0  0
   -2.6198   -0.2504   -1.2583 C   0  0  0  0  0  0  0  0  0  0  0  0
   -4.4743   -0.6504    0.7870 C   0  0  0  0  0  0  0  0  0  0  0  0
   -3.4741   -1.3523   -1.2973 C   0  0  0  0  0  0  0  0  0  0  0  0
   -4.4015   -1.5522   -0.2746 C   0  0  0  0  0  0  0  0  0  0  0  0
  1 17  1  0
  2 21  1  0
  3  7  1  0
  3  8  1  0
  4  9  1  0
  4 15  1  0
  5 16  1  0
  6 16  2  0
  7 14  1  0
  7 16  1  0
  8 10  2  0
  8 11  1  0
  9 12  2  0
  9 13  1  0
 10 12  1  0
 11 13  2  0
 15 17  2  0
 15 18  1  0
 17 19  1  0
 18 20  2  0
 19 21  2  0
 20 21  1  0
M  END
>  <PUBCHEM_COMPOUND_CID>  (1) 
38687

>  <PUBCHEM_CONFORMER_RMSD>  (1) 
0.8

>  <PUBCHEM_CONFORMER_DIVERSEORDER>  (1) 
1
46
60
11
51
47
21
52
74
70
27
31
73
72
33
75
43
34
49
39
66
69
64
35
57
9
48
24
25
38
32
53
23
14
45
19
56
7
20
62
55
15
16
59
63
17
58
26
8
68
4
71
42
18
22
3
6
37
28
12
65
44
10
41
40
29
2
13
61
30
67
5
54
50
36

>  <PUBCHEM_MMFF94_PARTIAL_CHARGES>  (1) 
28
1 -0.18
10 -0.15
11 -0.15
12 -0.15
13 -0.15
15 0.08
16 0.66
17 0.18
18 -0.15
19 -0.15
2 -0.18
20 -0.15
21 0.18
23 0.15
24 0.15
25 0.15
26 0.15
3 -0.36
30 0.15
31 0.15
32 0.15
33 0.5
4 -0.17
5 -0.65
6 -0.57
7 0.34
8 0.08
9 0.08

>  <PUBCHEM_EFFECTIVE_ROTOR_COUNT>  (1) 
5

>  <PUBCHEM_PHARMACOPHORE_FEATURES>  (1) 
7
1 3 acceptor
1 4 acceptor
1 5 acceptor
1 6 acceptor
3 5 6 16 anion
6 15 17 18 19 20 21 rings
6 8 9 10 11 12 13 rings

>  <PUBCHEM_HEAVY_ATOM_COUNT>  (1) 
21

>  <PUBCHEM_ATOM_DEF_STEREO_COUNT>  (1) 
0

>  <PUBCHEM_ATOM_UDEF_STEREO_COUNT>  (1) 
1

>  <PUBCHEM_BOND_DEF_STEREO_COUNT>  (1) 
0

>  <PUBCHEM_BOND_UDEF_STEREO_COUNT>  (1) 
0

>  <PUBCHEM_ISOTOPIC_ATOM_COUNT>  (1) 
0

>  <PUBCHEM_COMPONENT_COUNT>  (1) 
1

>  <PUBCHEM_CACTVS_TAUTO_COUNT>  (1) 
1

>  <PUBCHEM_CONFORMER_ID>  (1) 
0000971F00000001

>  <PUBCHEM_MMFF94_ENERGY>  (1) 
65.5271

>  <PUBCHEM_FEATURE_SELFOVERLAP>  (1) 
35.588

>  <PUBCHEM_SHAPE_FINGERPRINT>  (1) 
10498660 4 12468630642715564415
10928967 22 18260268512563435786
11046707 91 18412823590622119421
11089746 13 8718822068766261158
11543360 7 13767935619502402872
11578080 2 18269254924725577329
11796584 16 18272092656080780836
12422481 6 18057615277958228967
12596602 18 17989487424788606666
12633257 1 15697720440801147007
12892183 10 17132116827233685084
13009979 54 18200609089165726177
13103583 49 18200605708614864841
13167823 11 18273220819488252788
13383661 66 16955934584962378123
13533116 47 18197781214062497739
13583140 156 16199860687813762712
13675066 3 16487258738005902172
14178342 30 17988938734142431677
1420 369 18412261761301760654
14420673 8 17701278939647684086
14576447 43 18261677060209768604
14739800 52 11170474733554029172
14848178 5 18410564089684302150
14848178 96 9655573015746727526
15188451 53 18131060567819503743
15342816 4 18335424552264603740
15537594 2 18335996263619206934
16994733 274 13757238364413724801
17349148 13 17749673987421067666
17780758 139 17988358178622042833
17857418 61 18408881845399258930
17959699 21 8430326731191162071
1813 80 18336273387577886396
19377110 9 18129658729080502936
193927 3 18412548742542589407
19422 9 18341342196675485221
19784866 240 18335982056173184623
19784866 34 10592047963828088541
20028762 73 18341328980671381582
20281475 54 18410013213168727956
20645477 70 17749946790320938653
21033648 29 15123526791448637889
21315759 148 17561086895407315138
22950370 63 18408892815019851220
23402539 116 18040713615639354392
23503958 8 18130792278328835131
235170 7 15357700768925918238
23522609 53 18050041902597621348
23596394 208 15430032145738272800
270888 7 9439135259931432503
2838139 119 8214131946408476070
312423 11 18269568280726846933
312425 54 18059008372513405946
314194 84 18114471101945768400
3472631 163 7925649795110845907
351380 3 18408891724177389774
4259306 186 17676487241737576282
44062 13 18114453471036596349
5104073 3 18131632291900449096
559249 180 18410570648779533237
5924683 9 16056584491887766277
59682541 52 15575531636186609131
76465 3 18334852814396631228
7970288 3 18335697269213043699
960060 61 17240199954194430166

>  <PUBCHEM_SHAPE_MULTIPOLES>  (1) 
412.43
12.84
2.52
1.54
5.25
0.81
-0.29
10.34
-1.95
-1.42
0.11
0.27
-0.22
-1.98

>  <PUBCHEM_SHAPE_SELFOVERLAP>  (1) 
862.908

>  <PUBCHEM_SHAPE_VOLUME>  (1) 
235

>  <PUBCHEM_COORDINATE_TYPE>  (1) 
2
5
10

$$$$
