38685
     RDKit          3D

 19 21  0  0  1  0  0  0  0  0999 V2000
   -0.4011   -2.0472    0.5939 N   0  0  0  0  0  0  0  0  0  0  0  0
    0.4784   -0.3450   -0.9786 C   0  0  0  0  0  0  0  0  0  0  0  0
    0.2511   -1.8667   -0.7150 C   0  0  0  0  0  0  0  0  0  0  0  0
   -0.7387    0.5037   -0.6417 C   0  0  0  0  0  0  0  0  0  0  0  0
   -1.7344   -1.4376    0.6592 C   0  0  0  0  0  0  0  0  0  0  0  0
   -1.7710   -0.0117    0.1619 C   0  0  0  0  0  0  0  0  0  0  0  0
    1.7532    0.1452   -0.2937 C   0  0  0  0  0  0  0  0  0  0  0  0
   -0.4916   -2.5174   -1.8976 C   0  0  0  0  0  0  0  0  0  0  0  0
   -2.8806    0.7925    0.4607 C   0  0  0  0  0  0  0  0  0  0  0  0
   -0.4326   -3.4368    1.0391 C   0  0  0  0  0  0  0  0  0  0  0  0
   -0.8297    1.8209   -1.1198 C   0  0  0  0  0  0  0  0  0  0  0  0
   -2.9580    2.0998   -0.0180 C   0  0  0  0  0  0  0  0  0  0  0  0
    1.6900    0.6324    1.0057 C   0  0  0  0  0  0  0  0  0  0  0  0
    2.9611    0.0985   -0.9782 C   0  0  0  0  0  0  0  0  0  0  0  0
   -1.9331    2.6138   -0.8074 C   0  0  0  0  0  0  0  0  0  0  0  0
   -4.0126    0.2917    1.3002 C   0  0  0  0  0  0  0  0  0  0  0  0
    2.8537    1.0803    1.6310 C   0  0  0  0  0  0  0  0  0  0  0  0
    4.1248    0.5463   -0.3530 C   0  0  0  0  0  0  0  0  0  0  0  0
    4.0711    1.0373    0.9515 C   0  0  0  0  0  0  0  0  0  0  0  0
  1  3  1  0
  1  5  1  0
  1 10  1  0
  2  3  1  0
  2  4  1  0
  2  7  1  0
  3  8  1  0
  4  6  2  0
  4 11  1  0
  5  6  1  0
  6  9  1  0
  7 13  2  0
  7 14  1  0
  9 12  2  0
  9 16  1  0
 11 15  2  0
 12 15  1  0
 13 17  1  0
 14 18  2  0
 17 19  2  0
 18 19  1  0
M  END
>  <PUBCHEM_COMPOUND_CID>  (1) 
38685

>  <PUBCHEM_CONFORMER_RMSD>  (1) 
0.6

>  <PUBCHEM_CONFORMER_DIVERSEORDER>  (1) 
1
3
2
4
5

>  <PUBCHEM_MMFF94_PARTIAL_CHARGES>  (1) 
26
1 -0.81
10 0.27
11 -0.15
12 -0.15
13 -0.15
14 -0.15
15 -0.15
16 0.14
17 -0.15
18 -0.15
19 -0.15
2 0.29
3 0.27
30 0.15
31 0.15
32 0.15
33 0.15
34 0.15
38 0.15
39 0.15
4 -0.14
40 0.15
5 0.41
6 -0.14
7 -0.14
9 -0.14

>  <PUBCHEM_EFFECTIVE_ROTOR_COUNT>  (1) 
1.8

>  <PUBCHEM_PHARMACOPHORE_FEATURES>  (1) 
4
1 1 cation
6 1 2 3 4 5 6 rings
6 4 6 9 11 12 15 rings
6 7 13 14 17 18 19 rings

>  <PUBCHEM_HEAVY_ATOM_COUNT>  (1) 
19

>  <PUBCHEM_ATOM_DEF_STEREO_COUNT>  (1) 
1

>  <PUBCHEM_ATOM_UDEF_STEREO_COUNT>  (1) 
1

>  <PUBCHEM_BOND_DEF_STEREO_COUNT>  (1) 
0

>  <PUBCHEM_BOND_UDEF_STEREO_COUNT>  (1) 
0

>  <PUBCHEM_ISOTOPIC_ATOM_COUNT>  (1) 
0

>  <PUBCHEM_COMPONENT_COUNT>  (1) 
1

>  <PUBCHEM_CACTVS_TAUTO_COUNT>  (1) 
1

>  <PUBCHEM_CONFORMER_ID>  (1) 
0000971D00000001

>  <PUBCHEM_MMFF94_ENERGY>  (1) 
58.8959

>  <PUBCHEM_FEATURE_SELFOVERLAP>  (1) 
20.318

>  <PUBCHEM_SHAPE_FINGERPRINT>  (1) 
10165383 225 18129961034421576576
11132069 177 18411423920878298661
12633257 1 18341044215844103104
13004483 165 17340099545091377182
13140716 1 18046916145045980601
13464514 151 17767695953225334764
13538477 17 17822854311511006020
13544653 18 11891339746285203992
13681431 1 17262711080167571510
13878862 14 17329704324282180365
14178342 30 18116732733198524785
14223421 5 18046633308981329329
14787075 74 18059008505710178129
14817 1 14957706839538681422
15295992 7 17775004622058634016
15309172 13 18408039593717355849
15490181 7 18268696247456474294
16945 1 18260548947898896149
18186145 218 17775566412291964916
200 152 14345791664740719104
20028762 73 18125174968345441979
20510252 161 18410299085933792297
21524375 3 18341608170603307366
21731228 192 18410849936926858856
22079108 93 17489869366907434593
22112679 90 17972327483814853836
22182313 1 18044392530496915357
23388829 49 17044853283704820533
23402539 116 18338793537375558135
23419403 2 17479791152759029507
23559900 14 17825677642554276429
238 59 17981863290639045677
25 1 17845939528667150016
27216 239 17771608316518999120
2748010 2 17900557687568072917
427121 178 18268448879105107755
43471831 8 18115027398805249491
465052 167 17459774668782878473
495365 180 17908686346814917213
5265222 85 18338535114084385774
5845 1 12200789447043850950
58807428 26 18334020458314240339
633830 44 17274830103471790576
6442390 28 18411709768094696107
7097593 13 18040979749340978840
7364860 26 17837488553299254527
81228 2 18051675926587642478
90316 7 17458624480172020581

>  <PUBCHEM_SHAPE_MULTIPOLES>  (1) 
386.03
6.03
3.04
1.51
3.27
2.11
0.04
-3.82
-2.07
-1.76
0.23
0.19
0.32
0.78

>  <PUBCHEM_SHAPE_SELFOVERLAP>  (1) 
832.247

>  <PUBCHEM_SHAPE_VOLUME>  (1) 
212.1

>  <PUBCHEM_COORDINATE_TYPE>  (1) 
2
5
10

$$$$
