38680
     RDKit          3D

 12 12  0  0  0  0  0  0  0  0999 V2000
   -1.7851    2.0832    0.0016 Cl  0  0  0  0  0  0  0  0  0  0  0  0
   -4.5290   -1.1410   -0.0005 O   0  0  0  0  0  0  0  0  0  0  0  0
    2.9045   -0.2304   -0.0001 C   0  0  0  0  0  0  0  0  0  0  0  0
    0.1472    0.1936    0.0002 C   0  0  0  0  0  0  0  0  0  0  0  0
    2.2152   -0.1235   -1.2080 C   0  0  0  0  0  0  0  0  0  0  0  0
    2.2152   -0.1253    1.2079 C   0  0  0  0  0  0  0  0  0  0  0  0
    0.8364    0.0886   -1.2079 C   0  0  0  0  0  0  0  0  0  0  0  0
    0.8365    0.0866    1.2081 C   0  0  0  0  0  0  0  0  0  0  0  0
    4.3787   -0.4561   -0.0005 C   0  0  0  0  0  0  0  0  0  0  0  0
   -1.2904    0.4146    0.0002 C   0  0  0  0  0  0  0  0  0  0  0  0
   -2.2393   -0.5425   -0.0006 C   0  0  0  0  0  0  0  0  0  0  0  0
   -3.6898   -0.2477   -0.0005 C   0  0  0  0  0  0  0  0  0  0  0  0
  1 10  1  0
  2 12  2  0
  3  5  2  0
  3  6  1  0
  3  9  1  0
  4  7  2  0
  4  8  1  0
  4 10  1  0
  5  7  1  0
  6  8  2  0
 10 11  2  0
 11 12  1  0
M  END
>  <PUBCHEM_COMPOUND_CID>  (1) 
38680

>  <PUBCHEM_CONFORMER_RMSD>  (1) 
0.6

>  <PUBCHEM_CONFORMER_DIVERSEORDER>  (1) 
1
2

>  <PUBCHEM_MMFF94_PARTIAL_CHARGES>  (1) 
18
1 -0.14
10 0.11
11 -0.14
12 0.5
13 0.15
14 0.15
15 0.15
16 0.15
2 -0.57
20 0.15
21 0.06
3 -0.14
4 0.03
5 -0.15
6 -0.15
7 -0.15
8 -0.15
9 0.14

>  <PUBCHEM_EFFECTIVE_ROTOR_COUNT>  (1) 
2

>  <PUBCHEM_PHARMACOPHORE_FEATURES>  (1) 
2
1 2 acceptor
6 3 4 5 6 7 8 rings

>  <PUBCHEM_HEAVY_ATOM_COUNT>  (1) 
12

>  <PUBCHEM_ATOM_DEF_STEREO_COUNT>  (1) 
0

>  <PUBCHEM_ATOM_UDEF_STEREO_COUNT>  (1) 
0

>  <PUBCHEM_BOND_DEF_STEREO_COUNT>  (1) 
0

>  <PUBCHEM_BOND_UDEF_STEREO_COUNT>  (1) 
1

>  <PUBCHEM_ISOTOPIC_ATOM_COUNT>  (1) 
0

>  <PUBCHEM_COMPONENT_COUNT>  (1) 
1

>  <PUBCHEM_CACTVS_TAUTO_COUNT>  (1) 
1

>  <PUBCHEM_CONFORMER_ID>  (1) 
0000971800000001

>  <PUBCHEM_MMFF94_ENERGY>  (1) 
32.9826

>  <PUBCHEM_FEATURE_SELFOVERLAP>  (1) 
10.148

>  <PUBCHEM_SHAPE_FINGERPRINT>  (1) 
10219947 1 15913327996275206762
11062470 55 12396298157859377418
11401426 45 15791729728642296942
11471102 20 15285357323434336230
12032990 46 16558479595479379782
12251169 10 15841551894531086783
12932764 1 17489011691628589558
13581323 91 18411978053158236374
14251717 144 16225761913320517658
14252887 29 15841282492675965814
14576447 43 16950561129354446963
14911166 2 15646777782232287610
14993402 34 16950284005300724706
15219456 202 17346320332355939989
17844478 74 17489588939533693337
18186145 218 12685080472169413055
19026448 4 18272084942899778716
19026448 5 18261115115394732312
200 152 17240201036573674161
20201158 50 17203895153771092015
20279233 1 17632296757389897127
20281407 28 18202570583386117463
20645477 70 14707477062653369800
20871998 22 14979137773221528452
21119208 17 16805039635957782679
21256008 61 17240201049358342918
21293036 1 15791449331354347938
23402539 116 18408880728913211199
23402655 69 15357683185530255807
23557571 272 18272093751287378820
2748010 2 15265388951265849740
77492 1 17676492700678140617

>  <PUBCHEM_SHAPE_MULTIPOLES>  (1) 
242.95
7.15
1.16
1.11
2.01
0.61
0
-2.49
0
1.23
0
-0.74
0
0

>  <PUBCHEM_SHAPE_SELFOVERLAP>  (1) 
492.759

>  <PUBCHEM_SHAPE_VOLUME>  (1) 
141.7

>  <PUBCHEM_COORDINATE_TYPE>  (1) 
2
5
10

$$$$
