3868
     RDKit          3D

 11 11  0  0  1  0  0  0  0  0999 V2000
   -3.4974    0.2441    0.5814 O   0  0  0  0  0  0  0  0  0  0  0  0
    2.7913   -1.5331    0.0205 O   0  0  0  0  0  0  0  0  0  0  0  0
   -2.4577   -1.2614   -0.7782 O   0  0  0  0  0  0  0  0  0  0  0  0
    3.2053    0.6852    0.3428 O   0  0  0  0  0  0  0  0  0  0  0  0
    0.7352    1.3931   -0.4045 N   0  0  0  0  0  0  0  0  0  0  0  0
   -1.1525    0.3034    0.5170 C   0  0  0  0  0  0  0  0  0  0  0  0
    0.0244   -0.6703    0.5128 C   0  0  0  0  0  0  0  0  0  0  0  0
    1.0402   -0.0421   -0.4292 C   0  0  0  0  0  0  0  0  0  0  0  0
   -0.7311    1.4410   -0.4044 C   0  0  0  0  0  0  0  0  0  0  0  0
   -2.4091   -0.3391    0.0220 C   0  0  0  0  0  0  0  0  0  0  0  0
    2.4515   -0.2208    0.0200 C   0  0  0  0  0  0  0  0  0  0  0  0
  1 10  1  0
  2 11  1  0
  3 10  2  0
  4 11  2  0
  5  8  1  0
  5  9  1  0
  6  7  1  0
  6  9  1  0
  6 10  1  0
  7  8  1  0
  8 11  1  0
M  END
>  <PUBCHEM_COMPOUND_CID>  (1) 
3868

>  <PUBCHEM_CONFORMER_RMSD>  (1) 
0.6

>  <PUBCHEM_CONFORMER_DIVERSEORDER>  (1) 
1
5
17
11
16
4
19
13
18
15
12
10
9
3
14
2
8
7
6

>  <PUBCHEM_MMFF94_PARTIAL_CHARGES>  (1) 
13
1 -0.65
10 0.66
11 0.66
18 0.36
19 0.5
2 -0.65
20 0.5
3 -0.57
4 -0.57
5 -0.9
6 0.06
8 0.33
9 0.27

>  <PUBCHEM_EFFECTIVE_ROTOR_COUNT>  (1) 
3

>  <PUBCHEM_PHARMACOPHORE_FEATURES>  (1) 
9
1 1 acceptor
1 2 acceptor
1 3 acceptor
1 4 acceptor
1 5 cation
1 5 donor
3 1 3 10 anion
3 2 4 11 anion
5 5 6 7 8 9 rings

>  <PUBCHEM_HEAVY_ATOM_COUNT>  (1) 
11

>  <PUBCHEM_ATOM_DEF_STEREO_COUNT>  (1) 
0

>  <PUBCHEM_ATOM_UDEF_STEREO_COUNT>  (1) 
2

>  <PUBCHEM_BOND_DEF_STEREO_COUNT>  (1) 
0

>  <PUBCHEM_BOND_UDEF_STEREO_COUNT>  (1) 
0

>  <PUBCHEM_ISOTOPIC_ATOM_COUNT>  (1) 
0

>  <PUBCHEM_COMPONENT_COUNT>  (1) 
1

>  <PUBCHEM_CACTVS_TAUTO_COUNT>  (1) 
1

>  <PUBCHEM_CONFORMER_ID>  (1) 
00000F1C00000001

>  <PUBCHEM_MMFF94_ENERGY>  (1) 
13.5575

>  <PUBCHEM_FEATURE_SELFOVERLAP>  (1) 
45.783

>  <PUBCHEM_SHAPE_FINGERPRINT>  (1) 
10219947 1 18411985753907945483
10857977 72 18410000053204245400
11062470 55 18201721760245866169
11769659 78 18201430385185188279
12932764 1 18341896272899029020
14128692 85 18270116945476116735
14325111 11 18412826884503157506
16945 1 18261677064072238460
20201158 50 18187364354579758330
20653085 51 11530758150571899439
23552423 10 17968945175911038562
29004967 10 18261116291603900264
369184 2 18272087171370646392
5084963 1 18410857620829079680

>  <PUBCHEM_SHAPE_MULTIPOLES>  (1) 
197.92
4.85
1.35
0.75
0.06
0.1
-0.01
-0.98
0.4
0.23
-0.19
-0.2
-0.03
-0.15

>  <PUBCHEM_SHAPE_SELFOVERLAP>  (1) 
403.103

>  <PUBCHEM_SHAPE_VOLUME>  (1) 
115.9

>  <PUBCHEM_COORDINATE_TYPE>  (1) 
2
5
10

$$$$
