38695
     RDKit          3D

 17 18  0  0  0  0  0  0  0  0999 V2000
    0.1530   -0.5779   -1.6132 O   0  0  0  0  0  0  0  0  0  0  0  0
    0.7682   -0.9923    1.8976 O   0  0  0  0  0  0  0  0  0  0  0  0
   -2.3815   -0.4647   -0.3361 N   0  0  0  0  0  0  0  0  0  0  0  0
   -0.0393   -0.9013   -0.2623 N   0  0  0  0  0  0  0  0  0  0  0  0
   -2.1995    0.7556    0.4625 C   0  0  0  0  0  0  0  0  0  0  0  0
   -3.7245   -1.0300   -0.1439 C   0  0  0  0  0  0  0  0  0  0  0  0
   -3.2329    1.8193    0.0882 C   0  0  0  0  0  0  0  0  0  0  0  0
   -4.8077   -0.0247   -0.5377 C   0  0  0  0  0  0  0  0  0  0  0  0
   -4.6538    1.2849    0.2273 C   0  0  0  0  0  0  0  0  0  0  0  0
   -1.3575   -1.4536    0.0000 C   0  0  0  0  0  0  0  0  0  0  0  0
    0.9154   -0.7160    0.7083 C   0  0  0  0  0  0  0  0  0  0  0  0
    2.2145   -0.1464    0.2988 C   0  0  0  0  0  0  0  0  0  0  0  0
    2.3865    1.2267    0.3151 C   0  0  0  0  0  0  0  0  0  0  0  0
    3.2321   -0.9996   -0.0912 C   0  0  0  0  0  0  0  0  0  0  0  0
    3.6147    1.7636   -0.0703 C   0  0  0  0  0  0  0  0  0  0  0  0
    4.4604   -0.4626   -0.4767 C   0  0  0  0  0  0  0  0  0  0  0  0
    4.6518    0.9190   -0.4664 C   0  0  0  0  0  0  0  0  0  0  0  0
  1  4  1  0
  2 11  2  0
  3  5  1  0
  3  6  1  0
  3 10  1  0
  4 10  1  0
  4 11  1  0
  5  7  1  0
  6  8  1  0
  7  9  1  0
  8  9  1  0
 11 12  1  0
 12 13  2  0
 12 14  1  0
 13 15  1  0
 14 16  2  0
 15 17  2  0
 16 17  1  0
M  END
>  <PUBCHEM_COMPOUND_CID>  (1) 
38695

>  <PUBCHEM_CONFORMER_RMSD>  (1) 
0.6

>  <PUBCHEM_CONFORMER_DIVERSEORDER>  (1) 
2
71
15
70
48
44
47
67
12
27
34
18
42
66
58
77
80
74
61
7
76
75
8
3
19
41
33
36
40
5
72
29
78
52
64
16
26
57
65
46
4
73
50
35
31
69
43
51
11
79
68
59
21
13
23
39
63
32
28
60
38
6
37
53
30
45
55
1
49
62
20
56
17
54
24
14
22
25
9
10

>  <PUBCHEM_MMFF94_PARTIAL_CHARGES>  (1) 
20
1 -0.44
10 0.57
11 0.54
12 0.09
13 -0.15
14 -0.15
15 -0.15
16 -0.15
17 -0.15
2 -0.57
3 -0.81
30 0.4
31 0.15
32 0.15
33 0.15
34 0.15
35 0.15
4 -0.32
5 0.27
6 0.27

>  <PUBCHEM_EFFECTIVE_ROTOR_COUNT>  (1) 
5.2

>  <PUBCHEM_PHARMACOPHORE_FEATURES>  (1) 
4
1 2 acceptor
1 3 cation
6 12 13 14 15 16 17 rings
6 3 5 6 7 8 9 rings

>  <PUBCHEM_HEAVY_ATOM_COUNT>  (1) 
17

>  <PUBCHEM_ATOM_DEF_STEREO_COUNT>  (1) 
0

>  <PUBCHEM_ATOM_UDEF_STEREO_COUNT>  (1) 
0

>  <PUBCHEM_BOND_DEF_STEREO_COUNT>  (1) 
0

>  <PUBCHEM_BOND_UDEF_STEREO_COUNT>  (1) 
0

>  <PUBCHEM_ISOTOPIC_ATOM_COUNT>  (1) 
0

>  <PUBCHEM_COMPONENT_COUNT>  (1) 
1

>  <PUBCHEM_CACTVS_TAUTO_COUNT>  (1) 
1

>  <PUBCHEM_CONFORMER_ID>  (1) 
0000972700000002

>  <PUBCHEM_MMFF94_ENERGY>  (1) 
36.0103

>  <PUBCHEM_FEATURE_SELFOVERLAP>  (1) 
20.297

>  <PUBCHEM_SHAPE_FINGERPRINT>  (1) 
10366900 7 17167863062828775001
10498660 4 18336820914483277165
11132069 177 15936410060951781466
12107183 9 17761208813024989403
12916748 109 18410860974924296171
13081056 2 18412826897520168477
1420 369 10015581722641012501
14252887 29 14418132877128284554
15196674 1 18412545418201173665
15239154 128 18409450292952932668
15848700 24 13830136087686734322
16752209 62 16200163053727932162
17834072 32 18265613170146159293
17834072 33 18410853282780417399
17834072 8 18201728327783612020
18186145 218 18040711472508624510
200 152 10087640398815273430
201361 129 18115303371717792546
20300324 65 18130786780913140293
204376 136 16732706064237487347
20645477 70 17632306640300004430
20711983 171 18343862225306348150
21250096 35 8502654805084163589
21503847 285 18186804681950348932
21652331 79 18335420158128398813
22079108 93 17676776443692716875
221357 26 18272368672191448997
22485316 2 8646769993323491207
22854114 59 17095240319544787447
231179 274 18113894936003625644
23402539 116 18202839955086803573
23402655 69 18413109480925372260
23557571 272 18270972370018350167
23559900 14 18058450906948650974
25 1 18260830406323602114
2637199 183 18408325462603801098
26918003 58 10737275870672018222
351380 180 18342457040814112629
3545911 37 18410295825921161053
4028521 119 18334852818665406629
4214541 1 18412826884603390773
474 4 17822576109099220220
4990 188 18272938210851062254
5104073 3 18409166623195102650
5281201 14 18273221876234707228
5924683 9 11891344175019251593
59755656 520 17385442141879102482
633830 44 18187644725813248878
7495541 125 17131546258113925075
76465 3 12319193758891288940
77779 3 18411983571996071846
8272917 22 18270966739189845566

>  <PUBCHEM_SHAPE_MULTIPOLES>  (1) 
328.15
10.44
1.7
0.99
2.12
0.49
-0.14
3.24
1.64
0.2
-0.08
-0.17
-0.24
-0.31

>  <PUBCHEM_SHAPE_SELFOVERLAP>  (1) 
678.616

>  <PUBCHEM_SHAPE_VOLUME>  (1) 
186.6

>  <PUBCHEM_COORDINATE_TYPE>  (1) 
2
5
10

$$$$
