3869
     RDKit          3D

 24 25  0  0  1  0  0  0  0  0999 V2000
   -2.5394   -1.7102    2.6460 O   0  0  0  0  0  0  0  0  0  0  0  0
   -3.2137    2.6856   -1.7309 O   0  0  0  0  0  0  0  0  0  0  0  0
   -1.3958    3.5342    1.0335 O   0  0  0  0  0  0  0  0  0  0  0  0
   -0.6017   -2.8328   -0.3105 N   0  0  0  0  0  0  0  0  0  0  0  0
    0.0530    2.7983   -0.5845 N   0  0  0  0  0  0  0  0  0  0  0  0
    0.7643   -3.3273   -0.4839 C   0  0  0  0  0  0  0  0  0  0  0  0
    1.7902   -2.3015    0.0332 C   0  0  0  0  0  0  0  0  0  0  0  0
   -0.8632   -2.5238    1.0864 C   0  0  0  0  0  0  0  0  0  0  0  0
    1.8240   -0.9732   -0.7378 C   0  0  0  0  0  0  0  0  0  0  0  0
   -2.2944   -2.0042    1.2714 C   0  0  0  0  0  0  0  0  0  0  0  0
    1.0137   -3.6332   -1.9611 C   0  0  0  0  0  0  0  0  0  0  0  0
   -2.5348   -0.7448    0.4682 C   0  0  0  0  0  0  0  0  0  0  0  0
    2.8815   -0.0133   -0.2537 C   0  0  0  0  0  0  0  0  0  0  0  0
   -1.7298    0.3601    0.6852 C   0  0  0  0  0  0  0  0  0  0  0  0
   -3.5559   -0.7248   -0.4659 C   0  0  0  0  0  0  0  0  0  0  0  0
    2.5702    0.8948    0.7471 C   0  0  0  0  0  0  0  0  0  0  0  0
    4.1477   -0.0540   -0.8176 C   0  0  0  0  0  0  0  0  0  0  0  0
   -1.9531    1.5212   -0.0549 C   0  0  0  0  0  0  0  0  0  0  0  0
   -3.7790    0.4364   -1.2061 C   0  0  0  0  0  0  0  0  0  0  0  0
   -2.9775    1.5593   -1.0006 C   0  0  0  0  0  0  0  0  0  0  0  0
    3.5481    1.7832    1.1945 C   0  0  0  0  0  0  0  0  0  0  0  0
    5.1257    0.8342   -0.3700 C   0  0  0  0  0  0  0  0  0  0  0  0
    4.8258    1.7528    0.6360 C   0  0  0  0  0  0  0  0  0  0  0  0
   -1.1059    2.6829    0.1761 C   0  0  0  0  0  0  0  0  0  0  0  0
  1 10  1  0
  2 20  1  0
  3 24  2  0
  4  6  1  0
  4  8  1  0
  5 24  1  0
  6  7  1  0
  6 11  1  0
  7  9  1  0
  8 10  1  0
  9 13  1  0
 10 12  1  0
 12 14  2  0
 12 15  1  0
 13 16  2  0
 13 17  1  0
 14 18  1  0
 15 19  2  0
 16 21  1  0
 17 22  2  0
 18 20  2  0
 18 24  1  0
 19 20  1  0
 21 23  2  0
 22 23  1  0
M  END
>  <PUBCHEM_COMPOUND_CID>  (1) 
3869

>  <PUBCHEM_CONFORMER_RMSD>  (1) 
1

>  <PUBCHEM_CONFORMER_DIVERSEORDER>  (1) 
6
382
689
44
185
49
278
76
722
527
58
118
11
401
5
468
379
246
675
679
338
307
161
605
105
696
650
300
204
127
117
349
171
531
114
439
17
720
467
694
676
303
79
110
78
464
636
548
180
9
561
546
570
326
1
40
511
348
23
77
193
578
116
426
226
159
41
20
496
247
94
188
7
461
308
368
4
371
321
38
543
688
282
469
600
409
539
489
86
216
18
354
618
89
606
98
145
686
608
19
291
364
497
230
288
482
381
135
322
313
176
369
148
30
121
101
258
133
537
521
356
34
187
115
564
337
283
192
607
525
29
223
678
557
645
156
417
256
25
3
273
177
201
687
424
32
55
476
80
528
26
249
239
35
153
10
655
124
250
490
406
617
113
227
320
143
27
233
155
14
591
555
590
28
706
610
166
31
641
698
47
567
277
140
203
182
12
485
629
251
235
604
13
37
702
611
515
64
48
16
50
642
552
433
231
538
260
2
434
574
22
87
202

>  <PUBCHEM_MMFF94_PARTIAL_CHARGES>  (1) 
35
1 -0.68
10 0.42
12 -0.14
13 -0.14
14 -0.15
15 -0.15
16 -0.15
17 -0.15
18 0.09
19 -0.15
2 -0.53
20 0.08
21 -0.15
22 -0.15
23 -0.15
24 0.54
28 0.36
3 -0.57
37 0.15
38 0.15
39 0.15
4 -0.9
40 0.15
41 0.4
42 0.15
43 0.15
44 0.15
45 0.15
46 0.45
47 0.37
48 0.37
5 -0.8
6 0.27
8 0.27
9 0.14

>  <PUBCHEM_EFFECTIVE_ROTOR_COUNT>  (1) 
8

>  <PUBCHEM_PHARMACOPHORE_FEATURES>  (1) 
9
1 1 acceptor
1 1 donor
1 2 donor
1 3 acceptor
1 4 cation
1 4 donor
1 5 donor
6 12 14 15 18 19 20 rings
6 13 16 17 21 22 23 rings

>  <PUBCHEM_HEAVY_ATOM_COUNT>  (1) 
24

>  <PUBCHEM_ATOM_DEF_STEREO_COUNT>  (1) 
0

>  <PUBCHEM_ATOM_UDEF_STEREO_COUNT>  (1) 
2

>  <PUBCHEM_BOND_DEF_STEREO_COUNT>  (1) 
0

>  <PUBCHEM_BOND_UDEF_STEREO_COUNT>  (1) 
0

>  <PUBCHEM_ISOTOPIC_ATOM_COUNT>  (1) 
0

>  <PUBCHEM_COMPONENT_COUNT>  (1) 
1

>  <PUBCHEM_CACTVS_TAUTO_COUNT>  (1) 
7

>  <PUBCHEM_CONFORMER_ID>  (1) 
00000F1D00000006

>  <PUBCHEM_MMFF94_ENERGY>  (1) 
60.4915

>  <PUBCHEM_FEATURE_SELFOVERLAP>  (1) 
45.672

>  <PUBCHEM_SHAPE_FINGERPRINT>  (1) 
10366900 7 18343298158962519284
10498660 4 18339919415443352842
10675989 125 17759505686705139060
10759866 29 18040715883766948896
11045515 52 17120276457340686174
11221954 11 18265056829577466955
11370993 70 18336537244677616372
12035758 1 18042702757260946563
13402501 40 18411417357941365137
13544592 271 18408324410526763011
14251764 38 18266454304946232538
14468879 13 18334011679380033539
17492 54 18195782246073406743
19930381 70 18342450422675509495
21033648 29 18272080652053838432
21344244 78 15086064952795141057
22749437 52 18261954042302482438
23536364 44 17481185256921373118
23558518 356 17979068284889203145
23559900 14 18052803768051726970
238 59 18129087944763621374
3187 122 17896048804914767299
3524813 1 18200880694212379130
469060 322 17977108181959056571
5262128 65 17554044334231426527
526903 126 18264204717103936701
5283178 26 18056777639097166522
9862522 239 18341044224808680706
9981440 41 18335692823805484506

>  <PUBCHEM_SHAPE_MULTIPOLES>  (1) 
466.34
8.2
4.57
1.58
7.6
1.23
-0.3
-4.27
0.56
-1.02
0.7
-1.02
0.58
2.24

>  <PUBCHEM_SHAPE_SELFOVERLAP>  (1) 
976.93

>  <PUBCHEM_SHAPE_VOLUME>  (1) 
263.5

>  <PUBCHEM_COORDINATE_TYPE>  (1) 
2
5
10

$$$$
