38696
     RDKit          3D

 18 19  0  0  0  0  0  0  0  0999 V2000
    0.5060    0.7884   -1.5538 O   0  0  0  0  0  0  0  0  0  0  0  0
    1.0639    0.8152    1.9906 O   0  0  0  0  0  0  0  0  0  0  0  0
   -2.0553    0.6671   -0.4115 N   0  0  0  0  0  0  0  0  0  0  0  0
    0.2970    0.9759   -0.1799 N   0  0  0  0  0  0  0  0  0  0  0  0
   -4.4529   -1.0433   -0.2654 C   0  0  0  0  0  0  0  0  0  0  0  0
   -3.0307   -1.6069   -0.3763 C   0  0  0  0  0  0  0  0  0  0  0  0
   -4.4830    0.3920   -0.8050 C   0  0  0  0  0  0  0  0  0  0  0  0
   -1.9743   -0.6634    0.2049 C   0  0  0  0  0  0  0  0  0  0  0  0
   -3.3792    1.2702   -0.2098 C   0  0  0  0  0  0  0  0  0  0  0  0
   -4.9841   -1.1220    1.1682 C   0  0  0  0  0  0  0  0  0  0  0  0
   -1.0082    1.5412    0.1169 C   0  0  0  0  0  0  0  0  0  0  0  0
    1.2260    0.6592    0.7817 C   0  0  0  0  0  0  0  0  0  0  0  0
    2.5128    0.0881    0.3366 C   0  0  0  0  0  0  0  0  0  0  0  0
    3.5670    0.9377    0.0498 C   0  0  0  0  0  0  0  0  0  0  0  0
    2.6358   -1.2853    0.2177 C   0  0  0  0  0  0  0  0  0  0  0  0
    4.7826    0.3969   -0.3690 C   0  0  0  0  0  0  0  0  0  0  0  0
    3.8516   -1.8260   -0.2011 C   0  0  0  0  0  0  0  0  0  0  0  0
    4.9250   -0.9850   -0.4944 C   0  0  0  0  0  0  0  0  0  0  0  0
  1  4  1  0
  2 12  2  0
  3  8  1  0
  3  9  1  0
  3 11  1  0
  4 11  1  0
  4 12  1  0
  5  6  1  0
  5  7  1  0
  5 10  1  0
  6  8  1  0
  7  9  1  0
 12 13  1  0
 13 14  2  0
 13 15  1  0
 14 16  1  0
 15 17  2  0
 16 18  2  0
 17 18  1  0
M  END
>  <PUBCHEM_COMPOUND_CID>  (1) 
38696

>  <PUBCHEM_CONFORMER_RMSD>  (1) 
0.6

>  <PUBCHEM_CONFORMER_DIVERSEORDER>  (1) 
1
87
52
37
68
66
109
34
81
69
13
25
58
62
112
42
20
98
104
9
36
90
5
119
22
49
57
113
56
103
94
85
18
38
77
115
101
88
10
2
50
74
54
102
24
78
33
12
45
32
107
11
28
110
70
99
14
118
106
59
96
8
114
6
30
111
39
93
92
95
41
71
51
79
67
100
43
72
46
97
89
48
117
3
60
73
55
64
44
16
86
108
63
40
65
91
105
75
83
19
80
23
116
15
82
31
53
26
29
61
35
84
4
7
17
27
47
21
76

>  <PUBCHEM_MMFF94_PARTIAL_CHARGES>  (1) 
20
1 -0.44
11 0.57
12 0.54
13 0.09
14 -0.15
15 -0.15
16 -0.15
17 -0.15
18 -0.15
2 -0.57
3 -0.81
33 0.4
34 0.15
35 0.15
36 0.15
37 0.15
38 0.15
4 -0.32
8 0.27
9 0.27

>  <PUBCHEM_EFFECTIVE_ROTOR_COUNT>  (1) 
5.2

>  <PUBCHEM_PHARMACOPHORE_FEATURES>  (1) 
4
1 2 acceptor
1 3 cation
6 13 14 15 16 17 18 rings
6 3 5 6 7 8 9 rings

>  <PUBCHEM_HEAVY_ATOM_COUNT>  (1) 
18

>  <PUBCHEM_ATOM_DEF_STEREO_COUNT>  (1) 
0

>  <PUBCHEM_ATOM_UDEF_STEREO_COUNT>  (1) 
0

>  <PUBCHEM_BOND_DEF_STEREO_COUNT>  (1) 
0

>  <PUBCHEM_BOND_UDEF_STEREO_COUNT>  (1) 
0

>  <PUBCHEM_ISOTOPIC_ATOM_COUNT>  (1) 
0

>  <PUBCHEM_COMPONENT_COUNT>  (1) 
1

>  <PUBCHEM_CACTVS_TAUTO_COUNT>  (1) 
1

>  <PUBCHEM_CONFORMER_ID>  (1) 
0000972800000001

>  <PUBCHEM_MMFF94_ENERGY>  (1) 
41.6044

>  <PUBCHEM_FEATURE_SELFOVERLAP>  (1) 
20.297

>  <PUBCHEM_SHAPE_FINGERPRINT>  (1) 
11089746 13 10951775127273891737
11128504 68 16950572090347999342
11543360 7 18259987071983016244
11552529 35 17058922475917994023
11796584 16 18342738477167870223
12507557 5 9799688199258707591
12596602 18 14333118689598222126
12633257 1 17060623325874366127
12670546 177 17313108570174273486
128620 24 16587738737501715126
13103583 49 17346331422584120723
13167823 11 18410011018097373006
14617045 38 18411145740020580991
15188451 53 14332825120283431965
15196674 1 18409728439245735791
15537594 2 18272091621004796742
17804303 29 18344144795868971221
17834072 33 18335422395695324172
17834072 8 18260258634617962487
17834074 16 18412823568904631430
17844677 252 18342462547031147585
18186145 218 15430044270436211020
193927 3 17895485812143470443
19489759 90 12391515274332065471
200 152 18272651229858114344
20281475 54 18273213101326422937
20374829 77 18409159991739359426
20645477 70 18412825751122785134
20681677 155 18040714728194289209
20871999 31 18041276586793325261
21267235 1 18409456889975362943
221490 88 18264211472739197416
2215653 11 18341883083550277157
22485316 2 18412541015869874556
22950370 63 18343026596495644569
23227448 37 10881700008630435907
23402539 116 17167859743135293412
23557571 272 17821721715560693604
23559900 14 18340476837684498888
239999 70 18343867715113439486
2871803 45 18334290951028036514
3004659 81 18335700490997171582
328317 168 11241967096794603323
4047638 21 8286203868198541636
4214541 1 18410855417316028773
465052 167 17561082539798553695
4921388 177 17022913371271055475
4990 188 17894910719921799368
5104073 3 18341328899192766136
77779 3 18410573968177511748
83771 10 18343020007947221225
9709674 26 18262237840767076259

>  <PUBCHEM_SHAPE_MULTIPOLES>  (1) 
348.73
11.45
1.71
1.08
0.86
0.33
0.25
3.98
-0.92
0.1
-0.02
0.24
-0.15
0.59

>  <PUBCHEM_SHAPE_SELFOVERLAP>  (1) 
719.637

>  <PUBCHEM_SHAPE_VOLUME>  (1) 
198.6

>  <PUBCHEM_COORDINATE_TYPE>  (1) 
2
5
10

$$$$
