38701
     RDKit          3D

 20 21  0  0  0  0  0  0  0  0999 V2000
    0.1649   -0.6296   -1.6040 O   0  0  0  0  0  0  0  0  0  0  0  0
   -0.3635   -1.6500    1.7953 O   0  0  0  0  0  0  0  0  0  0  0  0
   -5.6107    0.9303   -0.4604 O   0  0  0  0  0  0  0  0  0  0  0  0
    2.7136   -0.6032   -0.4295 N   0  0  0  0  0  0  0  0  0  0  0  0
    4.9155    1.1161    0.3151 N   0  0  0  0  0  0  0  0  0  0  0  0
    0.3989   -1.1593   -0.3268 N   0  0  0  0  0  0  0  0  0  0  0  0
    2.5291    0.5057    0.5147 C   0  0  0  0  0  0  0  0  0  0  0  0
    4.0884   -1.1129   -0.3582 C   0  0  0  0  0  0  0  0  0  0  0  0
    3.5404    1.6254    0.2458 C   0  0  0  0  0  0  0  0  0  0  0  0
    5.0996    0.0066   -0.6284 C   0  0  0  0  0  0  0  0  0  0  0  0
    1.7499   -1.6710   -0.1708 C   0  0  0  0  0  0  0  0  0  0  0  0
    5.8784    2.1843    0.0545 C   0  0  0  0  0  0  0  0  0  0  0  0
   -0.5470   -1.1908    0.6693 C   0  0  0  0  0  0  0  0  0  0  0  0
   -1.8810   -0.6323    0.3722 C   0  0  0  0  0  0  0  0  0  0  0  0
   -2.8597   -1.4611   -0.1478 C   0  0  0  0  0  0  0  0  0  0  0  0
   -2.1225    0.7077    0.6203 C   0  0  0  0  0  0  0  0  0  0  0  0
   -4.1199   -0.9332   -0.4289 C   0  0  0  0  0  0  0  0  0  0  0  0
   -3.3828    1.2357    0.3395 C   0  0  0  0  0  0  0  0  0  0  0  0
   -4.3815    0.4151   -0.1851 C   0  0  0  0  0  0  0  0  0  0  0  0
   -5.8101    2.3165   -0.1870 C   0  0  0  0  0  0  0  0  0  0  0  0
  1  6  1  0
  2 13  2  0
  3 19  1  0
  3 20  1  0
  4  7  1  0
  4  8  1  0
  4 11  1  0
  5  9  1  0
  5 10  1  0
  5 12  1  0
  6 11  1  0
  6 13  1  0
  7  9  1  0
  8 10  1  0
 13 14  1  0
 14 15  2  0
 14 16  1  0
 15 17  1  0
 16 18  2  0
 17 19  2  0
 18 19  1  0
M  END
>  <PUBCHEM_COMPOUND_CID>  (1) 
38701

>  <PUBCHEM_CONFORMER_RMSD>  (1) 
0.8

>  <PUBCHEM_CONFORMER_DIVERSEORDER>  (1) 
1
41
20
7
18
31
45
21
14
24
17
38
40
16
4
3
36
2
35
19
6
44
39
32
13
28
26
10
33
34
5
11
37
29
30
42
9
8
23
15
25
43
12
27
22

>  <PUBCHEM_MMFF94_PARTIAL_CHARGES>  (1) 
25
1 -0.44
10 0.27
11 0.57
12 0.27
13 0.54
14 0.09
15 -0.15
16 -0.15
17 -0.15
18 -0.15
19 0.08
2 -0.57
20 0.28
3 -0.36
34 0.4
35 0.15
36 0.15
37 0.15
38 0.15
4 -0.81
5 -0.81
6 -0.32
7 0.27
8 0.27
9 0.27

>  <PUBCHEM_EFFECTIVE_ROTOR_COUNT>  (1) 
6.2

>  <PUBCHEM_PHARMACOPHORE_FEATURES>  (1) 
6
1 2 acceptor
1 3 acceptor
1 4 cation
1 5 cation
6 14 15 16 17 18 19 rings
6 4 5 7 8 9 10 rings

>  <PUBCHEM_HEAVY_ATOM_COUNT>  (1) 
20

>  <PUBCHEM_ATOM_DEF_STEREO_COUNT>  (1) 
0

>  <PUBCHEM_ATOM_UDEF_STEREO_COUNT>  (1) 
0

>  <PUBCHEM_BOND_DEF_STEREO_COUNT>  (1) 
0

>  <PUBCHEM_BOND_UDEF_STEREO_COUNT>  (1) 
0

>  <PUBCHEM_ISOTOPIC_ATOM_COUNT>  (1) 
0

>  <PUBCHEM_COMPONENT_COUNT>  (1) 
1

>  <PUBCHEM_CACTVS_TAUTO_COUNT>  (1) 
1

>  <PUBCHEM_CONFORMER_ID>  (1) 
0000972D00000001

>  <PUBCHEM_MMFF94_ENERGY>  (1) 
62.7088

>  <PUBCHEM_FEATURE_SELFOVERLAP>  (1) 
30.448

>  <PUBCHEM_SHAPE_FINGERPRINT>  (1) 
10014705 185 18410293610150585435
10498660 4 18342742922659442624
11128504 68 14333129715095151984
11595378 159 16516237440513322165
117890 112 18335420166496436628
12403259 415 18336559273327676050
12596602 18 14996293530005922036
12633257 1 16950841522363142316
13402501 40 18409728465200636556
13533116 47 17676763150648123354
13551218 46 8214141863277115393
14123256 34 8646495154135134728
14178000 29 11455884776027799483
14251764 30 9727637202153422396
14251764 38 18191028000174824476
14350574 20 9367355838472342112
14528608 73 18272930535470184724
15196674 1 18413108372449269968
15238133 3 17968101953967674724
17959699 21 18339641144802440969
200 152 16702306749583475019
20157964 124 18343021064678091638
20281389 69 18187363190960288109
20645477 56 18335143055776262847
212916 134 17167863058480761627
21618674 25 18261111876710199730
21637258 2 9727348000857249357
22289505 5 18202003218543997396
22950370 63 9655578525984039866
23402539 116 18413102862322890007
23402655 69 18273495667219558366
23557571 272 18272375317006931527
23559900 14 18130224831202601390
2838139 119 18341888580396785437
2916195 48 18333452036756898449
29717793 49 17131559353806528668
33382 64 8358259254597081476
3472631 163 18339359669978691805
34797466 226 17989494017410262551
351380 180 18412825798140299064
351380 3 10087646991933288916
3545911 37 18411985758271549551
4028521 119 18410573972556719161
42 15 8214137473999522979
4325135 7 18342173410655174759
465052 167 7925625626807430568
474 4 18186806889320555957
5104073 3 18040435473283187091
5924683 9 13479428218197379201
59682541 35 18114758096688885897
59682541 52 17560529391456419868
59755656 520 17822007618611977306
633830 44 18334851723174647415
67856867 119 18338789023016997962
7970288 3 9654705492789023797
9981440 41 18334576888301981114

>  <PUBCHEM_SHAPE_MULTIPOLES>  (1) 
379.04
13.83
2.17
0.96
1.78
0.69
0.09
9.7
-2.03
0
0.12
-0.03
-0.28
0.49

>  <PUBCHEM_SHAPE_SELFOVERLAP>  (1) 
781.675

>  <PUBCHEM_SHAPE_VOLUME>  (1) 
217.9

>  <PUBCHEM_COORDINATE_TYPE>  (1) 
2
5
10

$$$$
