38709
     RDKit          3D

 14 14  0  0  0  0  0  0  0  0999 V2000
    2.7217    3.1095   -0.1496 Br  0  0  0  0  0  0  0  0  0  0  0  0
    0.1490   -2.3546    0.0961 O   0  0  0  0  0  0  0  0  0  0  0  0
   -2.0608   -1.0911   -0.6026 O   0  0  0  0  0  0  0  0  0  0  0  0
   -2.2490    0.9925    0.3975 N   0  0  0  0  0  0  0  0  0  0  0  0
   -0.0668    0.0211   -0.0685 C   0  0  0  0  0  0  0  0  0  0  0  0
    2.1165   -1.0008    0.0935 C   0  0  0  0  0  0  0  0  0  0  0  0
    0.7277   -1.1200    0.0408 C   0  0  0  0  0  0  0  0  0  0  0  0
   -1.5186   -0.0797   -0.1255 C   0  0  0  0  0  0  0  0  0  0  0  0
    0.5276    1.2817   -0.1253 C   0  0  0  0  0  0  0  0  0  0  0  0
    2.7109    0.2599    0.0368 C   0  0  0  0  0  0  0  0  0  0  0  0
   -3.6932    1.0305    0.4349 C   0  0  0  0  0  0  0  0  0  0  0  0
    1.9164    1.4012   -0.0726 C   0  0  0  0  0  0  0  0  0  0  0  0
    2.9836   -2.2109    0.2103 C   0  0  0  0  0  0  0  0  0  0  0  0
   -4.2649   -0.2394   -0.1656 C   0  0  0  0  0  0  0  0  0  0  0  0
  1 12  1  0
  2  7  1  0
  3  8  2  0
  4  8  1  0
  4 11  1  0
  5  7  2  0
  5  8  1  0
  5  9  1  0
  6  7  1  0
  6 10  2  0
  6 13  1  0
  9 12  2  0
 10 12  1  0
 11 14  1  0
M  END
>  <PUBCHEM_COMPOUND_CID>  (1) 
38709

>  <PUBCHEM_CONFORMER_RMSD>  (1) 
0.6

>  <PUBCHEM_CONFORMER_DIVERSEORDER>  (1) 
1
2

>  <PUBCHEM_MMFF94_PARTIAL_CHARGES>  (1) 
17
1 -0.11
10 -0.15
11 0.3
12 0.11
13 0.14
15 0.15
18 0.15
19 0.37
2 -0.53
26 0.45
3 -0.57
4 -0.73
5 0.09
6 -0.14
7 0.08
8 0.54
9 -0.15

>  <PUBCHEM_EFFECTIVE_ROTOR_COUNT>  (1) 
3

>  <PUBCHEM_PHARMACOPHORE_FEATURES>  (1) 
5
1 1 hydrophobe
1 2 donor
1 3 acceptor
1 4 donor
6 5 6 7 9 10 12 rings

>  <PUBCHEM_HEAVY_ATOM_COUNT>  (1) 
14

>  <PUBCHEM_ATOM_DEF_STEREO_COUNT>  (1) 
0

>  <PUBCHEM_ATOM_UDEF_STEREO_COUNT>  (1) 
0

>  <PUBCHEM_BOND_DEF_STEREO_COUNT>  (1) 
0

>  <PUBCHEM_BOND_UDEF_STEREO_COUNT>  (1) 
0

>  <PUBCHEM_ISOTOPIC_ATOM_COUNT>  (1) 
0

>  <PUBCHEM_COMPONENT_COUNT>  (1) 
1

>  <PUBCHEM_CACTVS_TAUTO_COUNT>  (1) 
7

>  <PUBCHEM_CONFORMER_ID>  (1) 
0000973500000001

>  <PUBCHEM_MMFF94_ENERGY>  (1) 
44.1361

>  <PUBCHEM_FEATURE_SELFOVERLAP>  (1) 
25.371

>  <PUBCHEM_SHAPE_FINGERPRINT>  (1) 
10465860 228 18411705395538751632
10608611 8 18334855004983355245
10967382 1 18410574015380031852
10980938 120 18411139138476135193
11471102 20 18336824199974457453
12032990 46 18194685856501660838
12251169 10 18411978040051788386
12346645 6 18410574002584781388
13380535 76 18265329706403762136
13380536 305 18410299107634897358
14123255 52 18194403518126007228
14144814 61 18341332206444001913
14251717 144 18410007724105409239
14325111 11 18411420626712144665
14897335 6 18340203119339356557
15442244 35 18268712714461385217
15501101 241 18187368679437732789
15536298 74 18272368668101703338
15775835 57 18270686483888673781
16945 1 18337664222510331014
18186145 218 18413392029369704373
193761 8 18193840564241212738
20559304 39 18413108338158246376
20645477 70 18409162191358720567
20671657 1 18410860983820263876
20871998 22 17982173314326734390
21501502 16 18340200911683935967
21524375 3 18198625634360591508
21639500 275 18337940268727858301
221490 88 18335991942766277099
2255824 54 18410012126399551254
22854114 111 18410294730836700673
22959321 4 18410012130947628755
23402655 69 18341045242715650861
23463225 33 18411136896502972807
23552423 10 18411134770520483166
2748010 2 18263934391434909190
3071541 12 18410859893093820884
3071541 37 18261961838006027156
3091708 16 9328079049418064048
474 4 18263644141824799116
5104073 3 18410014330155352097
54173680 148 17328300247710600186
57096353 35 18128529560724283421
6333272 397 18265335195187635985
7364860 26 18413108372860837044
84936 182 18201437046811710392

>  <PUBCHEM_SHAPE_MULTIPOLES>  (1) 
277.34
6.22
2.81
0.66
6.2
0.49
0
1.6
-0.18
-3.29
-0.04
0.06
0.05
-0.48

>  <PUBCHEM_SHAPE_SELFOVERLAP>  (1) 
562.661

>  <PUBCHEM_SHAPE_VOLUME>  (1) 
167.2

>  <PUBCHEM_COORDINATE_TYPE>  (1) 
2
5
10

$$$$
