38700
     RDKit          3D

 20 21  0  0  0  0  0  0  0  0999 V2000
   -0.1516   -0.7297    1.6122 O   0  0  0  0  0  0  0  0  0  0  0  0
    0.2393   -1.4198   -1.8873 O   0  0  0  0  0  0  0  0  0  0  0  0
    5.6334    0.7689    0.4349 O   0  0  0  0  0  0  0  0  0  0  0  0
   -2.7337   -0.5111    0.5328 N   0  0  0  0  0  0  0  0  0  0  0  0
   -0.4416   -1.1219    0.2974 N   0  0  0  0  0  0  0  0  0  0  0  0
   -4.9360    1.4130    0.1547 C   0  0  0  0  0  0  0  0  0  0  0  0
   -3.4576    1.8207    0.1294 C   0  0  0  0  0  0  0  0  0  0  0  0
   -5.0970    0.1028    0.9354 C   0  0  0  0  0  0  0  0  0  0  0  0
   -2.5370    0.6778   -0.3066 C   0  0  0  0  0  0  0  0  0  0  0  0
   -4.1229   -0.9840    0.4731 C   0  0  0  0  0  0  0  0  0  0  0  0
   -5.5198    1.3082   -1.2566 C   0  0  0  0  0  0  0  0  0  0  0  0
   -1.8123   -1.5761    0.1370 C   0  0  0  0  0  0  0  0  0  0  0  0
    0.4719   -1.0810   -0.7282 C   0  0  0  0  0  0  0  0  0  0  0  0
    1.8318   -0.5939   -0.4223 C   0  0  0  0  0  0  0  0  0  0  0  0
    2.7986   -1.4985   -0.0201 C   0  0  0  0  0  0  0  0  0  0  0  0
    2.1086    0.7567   -0.5445 C   0  0  0  0  0  0  0  0  0  0  0  0
    4.0832   -1.0381    0.2691 C   0  0  0  0  0  0  0  0  0  0  0  0
    3.3931    1.2171   -0.2554 C   0  0  0  0  0  0  0  0  0  0  0  0
    4.3805    0.3197    0.1515 C   0  0  0  0  0  0  0  0  0  0  0  0
    5.8689    2.1691    0.2936 C   0  0  0  0  0  0  0  0  0  0  0  0
  1  5  1  0
  2 13  2  0
  3 19  1  0
  3 20  1  0
  4  9  1  0
  4 10  1  0
  4 12  1  0
  5 12  1  0
  5 13  1  0
  6  7  1  0
  6  8  1  0
  6 11  1  0
  7  9  1  0
  8 10  1  0
 13 14  1  0
 14 15  2  0
 14 16  1  0
 15 17  1  0
 16 18  2  0
 17 19  2  0
 18 19  1  0
M  END
>  <PUBCHEM_COMPOUND_CID>  (1) 
38700

>  <PUBCHEM_CONFORMER_RMSD>  (1) 
0.8

>  <PUBCHEM_CONFORMER_DIVERSEORDER>  (1) 
1
26
54
21
20
32
4
30
15
10
40
35
37
51
13
42
25
8
14
17
28
55
7
50
38
19
5
27
39
3
6
45
52
44
24
58
56
47
53
36
2
22
23
48
49
41
29
9
34
31
11
46
18
57
33
43
12
16

>  <PUBCHEM_MMFF94_PARTIAL_CHARGES>  (1) 
21
1 -0.44
10 0.27
12 0.57
13 0.54
14 0.09
15 -0.15
16 -0.15
17 -0.15
18 -0.15
19 0.08
2 -0.57
20 0.28
3 -0.36
35 0.4
36 0.15
37 0.15
38 0.15
39 0.15
4 -0.81
5 -0.32
9 0.27

>  <PUBCHEM_EFFECTIVE_ROTOR_COUNT>  (1) 
6.2

>  <PUBCHEM_PHARMACOPHORE_FEATURES>  (1) 
5
1 2 acceptor
1 3 acceptor
1 4 cation
6 14 15 16 17 18 19 rings
6 4 6 7 8 9 10 rings

>  <PUBCHEM_HEAVY_ATOM_COUNT>  (1) 
20

>  <PUBCHEM_ATOM_DEF_STEREO_COUNT>  (1) 
0

>  <PUBCHEM_ATOM_UDEF_STEREO_COUNT>  (1) 
0

>  <PUBCHEM_BOND_DEF_STEREO_COUNT>  (1) 
0

>  <PUBCHEM_BOND_UDEF_STEREO_COUNT>  (1) 
0

>  <PUBCHEM_ISOTOPIC_ATOM_COUNT>  (1) 
0

>  <PUBCHEM_COMPONENT_COUNT>  (1) 
1

>  <PUBCHEM_CACTVS_TAUTO_COUNT>  (1) 
1

>  <PUBCHEM_CONFORMER_ID>  (1) 
0000972C00000001

>  <PUBCHEM_MMFF94_ENERGY>  (1) 
55.9954

>  <PUBCHEM_FEATURE_SELFOVERLAP>  (1) 
25.372

>  <PUBCHEM_SHAPE_FINGERPRINT>  (1) 
10 15 18114181968947826184
11089746 13 17917704726080123280
11128504 68 14620791622007278992
12107183 9 17829602868810943906
12507557 5 18259706705276731557
12507560 40 18409733962969297886
12596602 18 17385723612312926024
12633257 1 16950563341652753764
12670546 56 18186796967740718395
12892183 10 18040437676553903994
12969540 114 17132108056941972168
13103583 49 12901838164547068125
13583140 156 18340774861122728706
13675066 3 17603876572161156555
13685833 64 10087631620572280413
13911987 19 17275107257753138329
13914758 101 15574985166644661839
14123255 352 18411418405887050557
14123256 34 8358264773788578568
14251764 18 18113333124997058298
14341114 176 18334301945885494192
14576447 43 10519714380119683132
15188451 53 16226620709759790371
15196674 1 18409168796432755225
15209294 21 17894630352888525443
15238133 3 17967821569896729060
1813 80 15357700764747125918
19489759 90 16587744231666947189
20157964 124 18340484478494258319
20281389 69 18408604786028736808
20374829 77 10159701265744874957
20645477 56 18410858771727464027
20871999 31 12751244679455768571
21033648 29 17168419355814873189
21315764 268 18187921733802750613
21637258 2 8069752853887535456
22950370 63 8502365650869561895
23402539 116 18409725171276660215
23559900 14 18269560433806136550
2838139 119 18341887485306796964
2916195 48 18333448755064462705
314173 85 14996280310159674182
351380 180 18334295357600996785
351380 3 7781512607685005057
3545911 37 18410580577973833730
4325135 7 18272650177992229055
5104073 3 18259990340305254363
542803 24 17346601858924862859
59682541 35 18261684761597918217

>  <PUBCHEM_SHAPE_MULTIPOLES>  (1) 
384.02
13.76
1.99
1.07
0.99
0.41
-0.18
8.12
1.47
0.54
-0.08
-0.59
-0.19
0.78

>  <PUBCHEM_SHAPE_SELFOVERLAP>  (1) 
792.174

>  <PUBCHEM_SHAPE_VOLUME>  (1) 
219.7

>  <PUBCHEM_COORDINATE_TYPE>  (1) 
2
5
10

$$$$
