38712
     RDKit          3D

 15 15  0  0  0  0  0  0  0  0999 V2000
    4.4974    0.6655   -0.6693 Br  0  0  0  0  0  0  0  0  0  0  0  0
   -1.2001   -0.9023    0.6004 O   0  0  0  0  0  0  0  0  0  0  0  0
   -1.2808    2.1894   -0.7724 O   0  0  0  0  0  0  0  0  0  0  0  0
   -0.8075    2.4067    1.4467 N   0  0  0  0  0  0  0  0  0  0  0  0
    0.0851   -0.5460    0.3136 C   0  0  0  0  0  0  0  0  0  0  0  0
    1.0738   -1.5258    0.2231 C   0  0  0  0  0  0  0  0  0  0  0  0
    0.4115    0.7950    0.1116 C   0  0  0  0  0  0  0  0  0  0  0  0
    2.3890   -1.1645   -0.0694 C   0  0  0  0  0  0  0  0  0  0  0  0
    1.7267    1.1562   -0.1810 C   0  0  0  0  0  0  0  0  0  0  0  0
    2.7154    0.1764   -0.2714 C   0  0  0  0  0  0  0  0  0  0  0  0
    0.7442   -2.9665    0.4367 C   0  0  0  0  0  0  0  0  0  0  0  0
   -0.6049    1.8346    0.2007 C   0  0  0  0  0  0  0  0  0  0  0  0
   -2.0503   -1.1991   -0.5045 C   0  0  0  0  0  0  0  0  0  0  0  0
   -3.4611   -0.9033   -0.1172 C   0  0  0  0  0  0  0  0  0  0  0  0
   -4.2386   -0.0162   -0.7476 C   0  0  0  0  0  0  0  0  0  0  0  0
  1 10  1  0
  2  5  1  0
  2 13  1  0
  3 12  2  0
  4 12  1  0
  5  6  2  0
  5  7  1  0
  6  8  1  0
  6 11  1  0
  7  9  2  0
  7 12  1  0
  8 10  2  0
  9 10  1  0
 13 14  1  0
 14 15  2  0
M  END
>  <PUBCHEM_COMPOUND_CID>  (1) 
38712

>  <PUBCHEM_CONFORMER_RMSD>  (1) 
0.6

>  <PUBCHEM_CONFORMER_DIVERSEORDER>  (1) 
4
16
12
15
19
13
20
24
14
21
22
11
5
10
18
8
17
9
25
1
23
6
2
7
3

>  <PUBCHEM_MMFF94_PARTIAL_CHARGES>  (1) 
22
1 -0.11
10 0.11
11 0.14
12 0.54
13 0.42
14 -0.29
15 -0.3
16 0.15
17 0.15
2 -0.36
23 0.15
24 0.37
25 0.37
26 0.15
27 0.15
3 -0.57
4 -0.8
5 0.08
6 -0.14
7 0.09
8 -0.15
9 -0.15

>  <PUBCHEM_EFFECTIVE_ROTOR_COUNT>  (1) 
4

>  <PUBCHEM_PHARMACOPHORE_FEATURES>  (1) 
6
1 1 hydrophobe
1 15 hydrophobe
1 2 acceptor
1 3 acceptor
1 4 donor
6 5 6 7 8 9 10 rings

>  <PUBCHEM_HEAVY_ATOM_COUNT>  (1) 
15

>  <PUBCHEM_ATOM_DEF_STEREO_COUNT>  (1) 
0

>  <PUBCHEM_ATOM_UDEF_STEREO_COUNT>  (1) 
0

>  <PUBCHEM_BOND_DEF_STEREO_COUNT>  (1) 
0

>  <PUBCHEM_BOND_UDEF_STEREO_COUNT>  (1) 
0

>  <PUBCHEM_ISOTOPIC_ATOM_COUNT>  (1) 
0

>  <PUBCHEM_COMPONENT_COUNT>  (1) 
1

>  <PUBCHEM_CACTVS_TAUTO_COUNT>  (1) 
2

>  <PUBCHEM_CONFORMER_ID>  (1) 
0000973800000004

>  <PUBCHEM_MMFF94_ENERGY>  (1) 
48.4645

>  <PUBCHEM_FEATURE_SELFOVERLAP>  (1) 
30.446

>  <PUBCHEM_SHAPE_FINGERPRINT>  (1) 
104564 63 18271249318157371041
10756046 5 18194405481131283566
10967382 1 18409448106793596842
11206711 2 18409459076503899156
11401426 45 18341046423683743078
11471102 20 18335695044572322191
13140716 1 17978237380964291122
14614273 12 18188209806044049436
14617773 55 18128819638293459033
14911166 2 18338241578206199334
14993402 34 17988923413820104727
15490181 8 17337030391256816045
16945 1 18334574650565425098
187816 3 18339084890560407958
193761 8 18121499051163283970
20510252 161 18342461456731596112
21029758 11 18272093859173205760
21501502 16 18266461992779280898
2334 1 17546457038685632962
23402539 116 18340482378650889630
23402655 69 18410565176843511991
23419403 2 15235154610004311699
23493267 7 17458907157775724272
23566358 2 18266737970034342382
25 1 18334007320020084247
2748010 2 17763475310818141122
2871803 45 18410854339210347622
3312278 4 18409451405523594075
353137 74 18408322163868288619
394222 165 17603577565180431858
528886 8 18337386149016187786
589210 1 18049441444045255786

>  <PUBCHEM_SHAPE_MULTIPOLES>  (1) 
297.92
6.2
2.63
0.9
0.33
0.26
0.09
-0.24
-2.34
0.17
0.6
0.16
-0.29
-0.31

>  <PUBCHEM_SHAPE_SELFOVERLAP>  (1) 
601.946

>  <PUBCHEM_SHAPE_VOLUME>  (1) 
178.9

>  <PUBCHEM_COORDINATE_TYPE>  (1) 
2
5
10

$$$$
