38713
     RDKit          3D

 13 13  0  0  0  0  0  0  0  0999 V2000
   -0.8995    2.6693   -0.3565 Cl  0  0  0  0  0  0  0  0  0  0  0  0
    2.1353   -2.5572   -0.5227 N   0  0  0  0  0  0  0  0  0  0  0  0
    3.9349    1.3422    0.2144 N   0  0  0  0  0  0  0  0  0  0  0  0
    0.6673    0.3060    0.8534 C   0  0  0  0  0  0  0  0  0  0  0  0
   -0.7516    0.0695    0.4477 C   0  0  0  0  0  0  0  0  0  0  0  0
    1.6993    0.0305   -0.2681 C   0  0  0  0  0  0  0  0  0  0  0  0
   -1.5327    1.0830   -0.1078 C   0  0  0  0  0  0  0  0  0  0  0  0
   -1.2913   -1.2028    0.6365 C   0  0  0  0  0  0  0  0  0  0  0  0
   -2.8534    0.8240   -0.4745 C   0  0  0  0  0  0  0  0  0  0  0  0
   -2.6120   -1.4616    0.2698 C   0  0  0  0  0  0  0  0  0  0  0  0
   -3.3931   -0.4483   -0.2857 C   0  0  0  0  0  0  0  0  0  0  0  0
    1.9451   -1.4180   -0.4094 C   0  0  0  0  0  0  0  0  0  0  0  0
    2.9515    0.7634    0.0030 C   0  0  0  0  0  0  0  0  0  0  0  0
  1  7  1  0
  2 12  3  0
  3 13  3  0
  4  5  1  0
  4  6  1  0
  5  7  2  0
  5  8  1  0
  6 12  1  0
  6 13  1  0
  7  9  1  0
  8 10  2  0
  9 11  2  0
 10 11  1  0
M  END
>  <PUBCHEM_COMPOUND_CID>  (1) 
38713

>  <PUBCHEM_CONFORMER_RMSD>  (1) 
0.6

>  <PUBCHEM_CONFORMER_DIVERSEORDER>  (1) 
2
7
6
8
4
5
1
3
9

>  <PUBCHEM_MMFF94_PARTIAL_CHARGES>  (1) 
17
1 -0.18
10 -0.15
11 -0.15
12 0.36
13 0.36
17 0.15
18 0.15
19 0.15
2 -0.56
20 0.15
3 -0.56
4 0.14
5 -0.14
6 0.4
7 0.18
8 -0.15
9 -0.15

>  <PUBCHEM_EFFECTIVE_ROTOR_COUNT>  (1) 
2

>  <PUBCHEM_PHARMACOPHORE_FEATURES>  (1) 
3
1 2 acceptor
1 3 acceptor
6 5 7 8 9 10 11 rings

>  <PUBCHEM_HEAVY_ATOM_COUNT>  (1) 
13

>  <PUBCHEM_ATOM_DEF_STEREO_COUNT>  (1) 
0

>  <PUBCHEM_ATOM_UDEF_STEREO_COUNT>  (1) 
0

>  <PUBCHEM_BOND_DEF_STEREO_COUNT>  (1) 
0

>  <PUBCHEM_BOND_UDEF_STEREO_COUNT>  (1) 
0

>  <PUBCHEM_ISOTOPIC_ATOM_COUNT>  (1) 
0

>  <PUBCHEM_COMPONENT_COUNT>  (1) 
1

>  <PUBCHEM_CACTVS_TAUTO_COUNT>  (1) 
1

>  <PUBCHEM_CONFORMER_ID>  (1) 
0000973900000002

>  <PUBCHEM_MMFF94_ENERGY>  (1) 
24.906

>  <PUBCHEM_FEATURE_SELFOVERLAP>  (1) 
15.223

>  <PUBCHEM_SHAPE_FINGERPRINT>  (1) 
10608611 8 18410290272681681468
107287 299 18060422434497248238
12524768 44 18408884053270710585
12716758 59 18191867829769050241
12897270 3 18411141354795077092
13380535 76 18408320016711876802
14614273 12 17749657507457466501
15219456 202 18411421695737014715
15310529 11 18201716228227690757
15375462 6 18412262822353640822
15775835 57 17989205983702187494
16945 1 18337684108240735249
17134986 127 17540523622575618205
18186145 218 18042123155112429117
19973954 147 18338519612539617740
20201158 50 18411136969554340115
20588541 1 18410574028233149001
20645477 70 18201999880995901167
20671657 53 17985277270354549982
20711985 365 18194681471281607097
21061003 4 18127985297799124425
21501502 16 18270683047745720192
22213442 358 18193556890114347149
22802520 49 18266747891535402555
23402539 116 18261660571445216644
23552423 10 18262800653339663803
23557571 272 18335709355128863885
23559900 14 18339072688848411874
2748010 2 18409174294207347303
353137 74 18260542290947760553
58051976 378 18413386549181163412
7364860 26 18341894035548401242
81228 2 18260557679805344513
9709674 26 18411420570582547590

>  <PUBCHEM_SHAPE_MULTIPOLES>  (1) 
259.44
5.59
2.38
0.79
2.09
0.2
0.05
0.05
-0.48
0.37
-0.37
-0.02
-0.06
0.65

>  <PUBCHEM_SHAPE_SELFOVERLAP>  (1) 
525.942

>  <PUBCHEM_SHAPE_VOLUME>  (1) 
146.5

>  <PUBCHEM_COORDINATE_TYPE>  (1) 
2
5
10

$$$$
