38729
     RDKit          3D

 23 25  0  0  1  0  0  0  0  0999 V2000
   -3.9239    2.4782   -2.1266 Cl  0  0  0  0  0  0  0  0  0  0  0  0
    3.3071   -0.1264   -0.0002 O   0  0  0  0  0  0  0  0  0  0  0  0
    2.7254    1.0988    2.2490 O   0  0  0  0  0  0  0  0  0  0  0  0
    5.7829   -0.1570   -1.3020 O   0  0  0  0  0  0  0  0  0  0  0  0
    0.7574    1.9663    1.4818 N   0  0  0  0  0  0  0  0  0  0  0  0
    0.9731   -0.7497    0.1952 N   0  0  0  0  0  0  0  0  0  0  0  0
   -0.8328    0.9033   -0.1101 C   0  0  0  0  0  0  0  0  0  0  0  0
   -0.2798   -0.4712    0.0773 C   0  0  0  0  0  0  0  0  0  0  0  0
   -0.3714    1.9983    0.6375 C   0  0  0  0  0  0  0  0  0  0  0  0
    1.9555    0.3158    0.1042 C   0  0  0  0  0  0  0  0  0  0  0  0
   -1.2291   -1.6175    0.1725 C   0  0  0  0  0  0  0  0  0  0  0  0
    1.8474    1.1262    1.3844 C   0  0  0  0  0  0  0  0  0  0  0  0
   -1.9228    1.0672   -0.9807 C   0  0  0  0  0  0  0  0  0  0  0  0
   -1.0758    3.2101    0.5798 C   0  0  0  0  0  0  0  0  0  0  0  0
   -2.5826    2.2927   -1.0644 C   0  0  0  0  0  0  0  0  0  0  0  0
   -2.1705    3.3584   -0.2718 C   0  0  0  0  0  0  0  0  0  0  0  0
   -2.4971   -1.4156    0.7025 C   0  0  0  0  0  0  0  0  0  0  0  0
   -0.8341   -2.8736   -0.2702 C   0  0  0  0  0  0  0  0  0  0  0  0
    3.5104   -0.8987   -1.1741 C   0  0  0  0  0  0  0  0  0  0  0  0
   -3.3851   -2.4877    0.7913 C   0  0  0  0  0  0  0  0  0  0  0  0
   -1.7223   -3.9456   -0.1814 C   0  0  0  0  0  0  0  0  0  0  0  0
    4.9658   -1.3198   -1.2436 C   0  0  0  0  0  0  0  0  0  0  0  0
   -2.9977   -3.7525    0.3493 C   0  0  0  0  0  0  0  0  0  0  0  0
  1 15  1  0
  2 10  1  0
  2 19  1  0
  3 12  2  0
  4 22  1  0
  5  9  1  0
  5 12  1  0
  6  8  2  0
  6 10  1  0
  7  8  1  0
  7  9  2  0
  7 13  1  0
  8 11  1  0
  9 14  1  0
 10 12  1  0
 11 17  2  0
 11 18  1  0
 13 15  2  0
 14 16  2  0
 15 16  1  0
 17 20  1  0
 18 21  2  0
 19 22  1  0
 20 23  2  0
 21 23  1  0
M  END
>  <PUBCHEM_COMPOUND_CID>  (1) 
38729

>  <PUBCHEM_CONFORMER_RMSD>  (1) 
0.8

>  <PUBCHEM_CONFORMER_DIVERSEORDER>  (1) 
1
3
10
2
7
8
4
9
5
6

>  <PUBCHEM_MMFF94_PARTIAL_CHARGES>  (1) 
33
1 -0.18
10 0.59
11 0.09
12 0.57
13 -0.15
14 -0.15
15 0.18
16 -0.15
17 -0.15
18 -0.15
19 0.28
2 -0.56
20 -0.15
21 -0.15
22 0.28
23 -0.15
25 0.37
26 0.15
27 0.15
28 0.15
29 0.15
3 -0.57
30 0.15
33 0.15
34 0.15
37 0.15
38 0.4
4 -0.68
5 -0.55
6 -0.7
7 0.09
8 0.28
9 0.12

>  <PUBCHEM_EFFECTIVE_ROTOR_COUNT>  (1) 
4.4

>  <PUBCHEM_PHARMACOPHORE_FEATURES>  (1) 
9
1 2 acceptor
1 3 acceptor
1 4 acceptor
1 4 donor
1 5 donor
1 6 acceptor
6 11 17 18 20 21 23 rings
6 7 9 13 14 15 16 rings
7 5 6 7 8 9 10 12 rings

>  <PUBCHEM_HEAVY_ATOM_COUNT>  (1) 
23

>  <PUBCHEM_ATOM_DEF_STEREO_COUNT>  (1) 
0

>  <PUBCHEM_ATOM_UDEF_STEREO_COUNT>  (1) 
1

>  <PUBCHEM_BOND_DEF_STEREO_COUNT>  (1) 
0

>  <PUBCHEM_BOND_UDEF_STEREO_COUNT>  (1) 
0

>  <PUBCHEM_ISOTOPIC_ATOM_COUNT>  (1) 
0

>  <PUBCHEM_COMPONENT_COUNT>  (1) 
1

>  <PUBCHEM_CACTVS_TAUTO_COUNT>  (1) 
3

>  <PUBCHEM_CONFORMER_ID>  (1) 
0000974900000001

>  <PUBCHEM_MMFF94_ENERGY>  (1) 
82.3676

>  <PUBCHEM_FEATURE_SELFOVERLAP>  (1) 
45.725

>  <PUBCHEM_SHAPE_FINGERPRINT>  (1) 
10764073 3 14252138391286759862
107951 10 17982746168231777380
108634 29 18123158399061704789
12160290 23 18188470433460365263
12293681 160 17626943076392783800
12293681 25 18129079268924285206
12553582 1 17760355987123066755
12643181 29 17977117756464767102
12714826 92 18409736179072195882
12788726 201 18187366553587768226
13681431 1 17394735411651265529
14022347 108 17970624318892448307
14251757 5 18408047311857931103
15163728 17 17173768337807821757
15463212 79 17968100777067059208
15775530 1 18130211757727814960
16752209 62 18260819402095364555
17357779 13 18268133443895860079
1813 80 17974854178747357987
19319366 153 17407128659880187857
20600515 1 17317593628485998586
20739085 24 17183614932712025665
21049683 271 17763201519463946836
21330990 113 18124346859541302331
21452121 99 18191000392182912337
21781051 124 18115026286772528513
22182313 1 18201145659450900232
2255824 54 17184182843547651271
22907989 373 18335711541283055413
23419403 2 17846217807955934752
23557571 272 18338785836340888936
23559900 14 18200031725971790494
2748010 2 18271511104592540344
3380486 145 17487034898671282368
3759504 43 18193000322245139548
4409770 3 18409737222633275735
458136 41 17833554492469432873
58779409 54 18410571773433347406
58779409 8 18335130952231167493
59554788 281 17906977773942435113
7237137 82 18336000734859270316
7364860 26 17186163613618508635
81228 2 18335977687853730659

>  <PUBCHEM_SHAPE_MULTIPOLES>  (1) 
447.63
7.38
5.04
1.54
11.48
2.61
0.01
0.99
4.11
-7
-0.09
0.52
-0.95
2.63

>  <PUBCHEM_SHAPE_SELFOVERLAP>  (1) 
960.534

>  <PUBCHEM_SHAPE_VOLUME>  (1) 
245.6

>  <PUBCHEM_COORDINATE_TYPE>  (1) 
2
5
10

$$$$
