38737
     RDKit          3D

 10 10  0  0  1  0  0  0  0  0999 V2000
   -0.6537    0.5799   -0.1361 O   0  0  0  0  0  0  0  0  0  0  0  0
   -2.3171   -0.7338    0.7828 O   0  0  0  0  0  0  0  0  0  0  0  0
    1.7103    0.5182    0.4367 C   0  0  0  0  0  0  0  0  0  0  0  0
    0.3038    0.0012    0.7422 C   0  0  0  0  0  0  0  0  0  0  0  0
    2.0870   -0.2369   -0.8399 C   0  0  0  0  0  0  0  0  0  0  0  0
    0.4267   -1.4917    0.4592 C   0  0  0  0  0  0  0  0  0  0  0  0
    1.3929   -1.5953   -0.7243 C   0  0  0  0  0  0  0  0  0  0  0  0
    1.8118    2.0271    0.2776 C   0  0  0  0  0  0  0  0  0  0  0  0
   -1.9343    0.1180   -0.0079 C   0  0  0  0  0  0  0  0  0  0  0  0
   -2.8275    0.8132   -0.9902 C   0  0  0  0  0  0  0  0  0  0  0  0
  1  4  1  0
  1  9  1  0
  2  9  2  0
  3  4  1  0
  3  5  1  0
  3  8  1  0
  4  6  1  0
  5  7  1  0
  6  7  1  0
  9 10  1  0
M  END
>  <PUBCHEM_COMPOUND_CID>  (1) 
38737

>  <PUBCHEM_CONFORMER_RMSD>  (1) 
0.6

>  <PUBCHEM_CONFORMER_DIVERSEORDER>  (1) 
1
2
3

>  <PUBCHEM_MMFF94_PARTIAL_CHARGES>  (1) 
5
1 -0.43
10 0.06
2 -0.57
4 0.28
9 0.66

>  <PUBCHEM_EFFECTIVE_ROTOR_COUNT>  (1) 
3

>  <PUBCHEM_PHARMACOPHORE_FEATURES>  (1) 
2
1 2 acceptor
5 3 4 5 6 7 rings

>  <PUBCHEM_HEAVY_ATOM_COUNT>  (1) 
10

>  <PUBCHEM_ATOM_DEF_STEREO_COUNT>  (1) 
2

>  <PUBCHEM_ATOM_UDEF_STEREO_COUNT>  (1) 
0

>  <PUBCHEM_BOND_DEF_STEREO_COUNT>  (1) 
0

>  <PUBCHEM_BOND_UDEF_STEREO_COUNT>  (1) 
0

>  <PUBCHEM_ISOTOPIC_ATOM_COUNT>  (1) 
0

>  <PUBCHEM_COMPONENT_COUNT>  (1) 
1

>  <PUBCHEM_CACTVS_TAUTO_COUNT>  (1) 
1

>  <PUBCHEM_CONFORMER_ID>  (1) 
0000975100000001

>  <PUBCHEM_MMFF94_ENERGY>  (1) 
17.8843

>  <PUBCHEM_FEATURE_SELFOVERLAP>  (1) 
10.148

>  <PUBCHEM_SHAPE_FINGERPRINT>  (1) 
10857977 72 17604439629493736435
12897270 3 18410293601260035597
12932741 1 18334296452959919735
12932764 1 18113901542006075379
14128692 85 16773801346665817710
14390081 3 18187638103142548469
16945 1 18272939305962298934
20711985 344 17192081760566645654
21028194 46 18266739280152588336
21040471 1 18262519324475905874
23211744 41 18189330337020076561
23552423 10 18201438043385832765
2748010 2 18196943390228093846
29004967 10 18201726098162952082
5084963 1 17894923948336590482

>  <PUBCHEM_SHAPE_MULTIPOLES>  (1) 
194.06
3.63
1.71
0.99
2.53
0.21
0.09
0.76
0.78
-1.01
-0.01
0.1
-0.09
0.61

>  <PUBCHEM_SHAPE_SELFOVERLAP>  (1) 
382.418

>  <PUBCHEM_SHAPE_VOLUME>  (1) 
117.6

>  <PUBCHEM_COORDINATE_TYPE>  (1) 
2
5
10

$$$$
