38744
     RDKit          3D

 17 18  0  0  0  0  0  0  0  0999 V2000
   -1.3218    3.3249    0.0019 Br  0  0  0  0  0  0  0  0  0  0  0  0
   -1.2788   -3.3130    0.0003 Br  0  0  0  0  0  0  0  0  0  0  0  0
   -4.1111    1.5532    0.0005 Cl  0  0  0  0  0  0  0  0  0  0  0  0
   -4.0877   -1.5820   -0.0003 Cl  0  0  0  0  0  0  0  0  0  0  0  0
    3.9609   -1.2139    0.0005 F   0  0  0  0  0  0  0  0  0  0  0  0
    3.8748    0.6621   -1.0846 F   0  0  0  0  0  0  0  0  0  0  0  0
    3.8537    0.6651    1.0899 F   0  0  0  0  0  0  0  0  0  0  0  0
    1.1051    1.0789   -0.0024 N   0  0  0  0  0  0  0  0  0  0  0  0
    1.1297   -1.1436    0.0012 N   0  0  0  0  0  0  0  0  0  0  0  0
   -0.2124    0.6983   -0.0019 C   0  0  0  0  0  0  0  0  0  0  0  0
   -0.1705   -0.6933    0.0002 C   0  0  0  0  0  0  0  0  0  0  0  0
    1.8675   -0.0559   -0.0003 C   0  0  0  0  0  0  0  0  0  0  0  0
   -1.4008    1.4293   -0.0031 C   0  0  0  0  0  0  0  0  0  0  0  0
   -1.3763   -1.4147    0.0010 C   0  0  0  0  0  0  0  0  0  0  0  0
   -2.5914    0.6952   -0.0020 C   0  0  0  0  0  0  0  0  0  0  0  0
   -2.5815   -0.7016   -0.0001 C   0  0  0  0  0  0  0  0  0  0  0  0
    3.3405    0.0108   -0.0007 C   0  0  0  0  0  0  0  0  0  0  0  0
  1 13  1  0
  2 14  1  0
  3 15  1  0
  4 16  1  0
  5 17  1  0
  6 17  1  0
  7 17  1  0
  8 10  1  0
  8 12  1  0
  9 11  1  0
  9 12  2  0
 10 11  2  0
 10 13  1  0
 11 14  1  0
 12 17  1  0
 13 15  2  0
 14 16  2  0
 15 16  1  0
M  END
>  <PUBCHEM_COMPOUND_CID>  (1) 
38744

>  <PUBCHEM_CONFORMER_RMSD>  (1) 
0.6

>  <PUBCHEM_CONFORMER_DIVERSEORDER>  (1) 
1

>  <PUBCHEM_MMFF94_PARTIAL_CHARGES>  (1) 
18
1 -0.11
10 -0.15
11 0.23
12 0.01
13 0.11
14 0.11
15 0.18
16 0.18
17 1.2
18 0.27
2 -0.11
3 -0.18
4 -0.18
5 -0.34
6 -0.34
7 -0.34
8 0.03
9 -0.57

>  <PUBCHEM_EFFECTIVE_ROTOR_COUNT>  (1) 
1

>  <PUBCHEM_PHARMACOPHORE_FEATURES>  (1) 
6
1 1 hydrophobe
1 2 hydrophobe
1 8 donor
3 8 9 12 cation
5 8 9 10 11 12 rings
6 10 11 13 14 15 16 rings

>  <PUBCHEM_HEAVY_ATOM_COUNT>  (1) 
17

>  <PUBCHEM_ATOM_DEF_STEREO_COUNT>  (1) 
0

>  <PUBCHEM_ATOM_UDEF_STEREO_COUNT>  (1) 
0

>  <PUBCHEM_BOND_DEF_STEREO_COUNT>  (1) 
0

>  <PUBCHEM_BOND_UDEF_STEREO_COUNT>  (1) 
0

>  <PUBCHEM_ISOTOPIC_ATOM_COUNT>  (1) 
0

>  <PUBCHEM_COMPONENT_COUNT>  (1) 
1

>  <PUBCHEM_CACTVS_TAUTO_COUNT>  (1) 
1

>  <PUBCHEM_CONFORMER_ID>  (1) 
0000975800000001

>  <PUBCHEM_MMFF94_ENERGY>  (1) 
25.4479

>  <PUBCHEM_FEATURE_SELFOVERLAP>  (1) 
30.553

>  <PUBCHEM_SHAPE_FINGERPRINT>  (1) 
10319926 262 18269812312884969170
10411042 1 17834114521360328842
10608611 8 18342734092333282488
10967382 1 18266458891712653287
11132069 177 18412260623172415369
12032990 46 18338801216486725003
12173636 292 18338792304213431757
12553582 1 18194405712832969191
13140716 1 18194681703077907714
13380535 76 18341331085241545703
13862211 1 18338793541776332075
14614273 12 18044935675908021469
14790565 3 18267877077483545809
15042514 8 18408888451359945955
15196674 1 18410573985156751878
15309172 13 18339369560971577529
15669948 3 18336826489318970950
16752209 62 18337098038737043339
16945 1 18410855481608299014
17804303 29 18413673508762532528
18186145 218 17988928838395382960
193761 8 17689998260063855527
19591789 44 18051135787358497959
20510252 161 18343018878465904641
20871998 184 18272653458819735503
20871999 31 18409729599308561389
21029758 11 18341606083882171613
21029758 27 18189062056826438221
21267235 1 18337118950553090331
21524375 3 18127408951884670621
221490 88 17615407395647394563
2334 1 17906452486567378473
23366157 5 17466216852954004965
23402539 116 18271516576897853303
23557571 272 18200323224674189564
23559900 14 18343300349827915194
23598294 1 18335691750432542323
2748010 2 18411420609780039487
3071541 12 17402895523164755245
350125 39 18049727317036575715
43471831 8 18335135337346018387
474 4 16734965672993060428
5104073 3 18411135827198574330
54173680 148 18265616674538701507
58051976 378 18268426841321865807
58807428 26 18337955576139014027
69090 78 18341888559058722135
7364860 26 17835805574770346069
81228 2 18341065076325724689
9709674 26 18342462543036854390

>  <PUBCHEM_SHAPE_MULTIPOLES>  (1) 
333.69
6.9
3.27
0.71
4.67
0.05
0
-0.07
0
-2.76
0
0.27
-0.06
0

>  <PUBCHEM_SHAPE_SELFOVERLAP>  (1) 
681.998

>  <PUBCHEM_SHAPE_VOLUME>  (1) 
202.2

>  <PUBCHEM_COORDINATE_TYPE>  (1) 
2
5
10

$$$$
