38764
     RDKit          3D

 20 21  0  0  0  0  0  0  0  0999 V2000
   -7.7288   -0.8570   -0.4943 N   0  0  0  0  0  0  0  0  0  0  0  0
    3.9862    0.0406    0.0144 C   0  0  0  0  0  0  0  0  0  0  0  0
    5.4799    0.3431    0.1481 C   0  0  0  0  0  0  0  0  0  0  0  0
    3.1379    1.1342    0.6669 C   0  0  0  0  0  0  0  0  0  0  0  0
    6.3298   -0.7660   -0.4739 C   0  0  0  0  0  0  0  0  0  0  0  0
    1.6635    0.8637    0.5096 C   0  0  0  0  0  0  0  0  0  0  0  0
    7.8225   -0.4804   -0.3110 C   0  0  0  0  0  0  0  0  0  0  0  0
    0.9990    0.1237    1.4764 C   0  0  0  0  0  0  0  0  0  0  0  0
    0.9946    1.3590   -0.6000 C   0  0  0  0  0  0  0  0  0  0  0  0
   -1.0497    0.3654    0.2191 C   0  0  0  0  0  0  0  0  0  0  0  0
    8.6704   -1.5976   -0.8982 C   0  0  0  0  0  0  0  0  0  0  0  0
   -0.3654   -0.1269    1.3302 C   0  0  0  0  0  0  0  0  0  0  0  0
   -0.3698    1.1084   -0.7461 C   0  0  0  0  0  0  0  0  0  0  0  0
   -2.4652    0.1063    0.0677 C   0  0  0  0  0  0  0  0  0  0  0  0
   -3.0203   -1.0612    0.5916 C   0  0  0  0  0  0  0  0  0  0  0  0
   -3.2744    1.0240   -0.6020 C   0  0  0  0  0  0  0  0  0  0  0  0
   -4.3848   -1.3109    0.4458 C   0  0  0  0  0  0  0  0  0  0  0  0
   -4.6390    0.7742   -0.7477 C   0  0  0  0  0  0  0  0  0  0  0  0
   -5.1942   -0.3933   -0.2238 C   0  0  0  0  0  0  0  0  0  0  0  0
   -6.5920   -0.6491   -0.3729 C   0  0  0  0  0  0  0  0  0  0  0  0
  1 20  3  0
  2  3  1  0
  2  4  1  0
  3  5  1  0
  4  6  1  0
  5  7  1  0
  6  8  2  0
  6  9  1  0
  7 11  1  0
  8 12  1  0
  9 13  2  0
 10 12  2  0
 10 13  1  0
 10 14  1  0
 14 15  2  0
 14 16  1  0
 15 17  1  0
 16 18  2  0
 17 19  2  0
 18 19  1  0
 19 20  1  0
M  END
>  <PUBCHEM_COMPOUND_CID>  (1) 
38764

>  <PUBCHEM_CONFORMER_RMSD>  (1) 
0.8

>  <PUBCHEM_CONFORMER_DIVERSEORDER>  (1) 
1
6
5
10
3
9
11
4
7
14
2
13
12
8

>  <PUBCHEM_MMFF94_PARTIAL_CHARGES>  (1) 
21
1 -0.56
12 -0.15
13 -0.15
15 -0.15
16 -0.15
17 -0.15
18 -0.15
19 0.07
20 0.48
31 0.15
32 0.15
36 0.15
37 0.15
38 0.15
39 0.15
4 0.14
40 0.15
41 0.15
6 -0.14
8 -0.15
9 -0.15

>  <PUBCHEM_EFFECTIVE_ROTOR_COUNT>  (1) 
6

>  <PUBCHEM_PHARMACOPHORE_FEATURES>  (1) 
5
1 1 acceptor
1 11 hydrophobe
5 2 3 4 5 7 hydrophobe
6 14 15 16 17 18 19 rings
6 6 8 9 10 12 13 rings

>  <PUBCHEM_HEAVY_ATOM_COUNT>  (1) 
20

>  <PUBCHEM_ATOM_DEF_STEREO_COUNT>  (1) 
0

>  <PUBCHEM_ATOM_UDEF_STEREO_COUNT>  (1) 
0

>  <PUBCHEM_BOND_DEF_STEREO_COUNT>  (1) 
0

>  <PUBCHEM_BOND_UDEF_STEREO_COUNT>  (1) 
0

>  <PUBCHEM_ISOTOPIC_ATOM_COUNT>  (1) 
0

>  <PUBCHEM_COMPONENT_COUNT>  (1) 
1

>  <PUBCHEM_CACTVS_TAUTO_COUNT>  (1) 
1

>  <PUBCHEM_CONFORMER_ID>  (1) 
0000976C00000001

>  <PUBCHEM_MMFF94_ENERGY>  (1) 
42.8497

>  <PUBCHEM_FEATURE_SELFOVERLAP>  (1) 
25.371

>  <PUBCHEM_SHAPE_FINGERPRINT>  (1) 
10 15 10735873968167715102
106641 1 13110958734455857374
10670039 82 17458339711007855693
11315181 36 18411985771008992497
11524674 6 17561080323611818718
12236239 1 14189293803210322649
12741549 16 16486973999518705585
12954195 1 18263079937999474692
13288520 33 18408604768769648701
13403585 85 10519990361158216379
13533116 47 17346877863099708288
13540713 5 16735215008465861064
13668630 136 18272936003739226878
13673619 4 18343021082375263152
13685833 64 18131070433580649328
13885169 127 18202003187841176449
13964095 4 17967812734399706749
14123256 10 17167861967727879594
14251752 14 17967531260140453194
14251764 18 13542458774647658760
14251764 46 17775286066543240223
15048467 5 11891330954597866864
15183329 4 17894911811196855682
155225 1 12107786311105459798
15690457 1 17418371398455203870
15706992 2 10737290099983423350
15716309 27 16845570924692218516
17834072 8 17967812764474962177
18006028 8 17847062186126898536
18335252 114 14273454791113700166
18681886 176 18041272270630917009
19784866 240 18272097089231004048
20105231 36 17822018622945846715
2026 5 18201440238225943966
20281389 69 9727637194417783086
20612939 158 16588311625946552805
20735858 18 13830133892773810100
21150785 3 16081088186148683274
21267235 1 17968097556052700705
22224240 67 11312055444006272988
2297311 6 18333166168076506509
23035841 295 18187362133970831633
23559900 14 18266735964232322177
23576562 1 15575292015365478687
246663 6 18342460339681227390
26918003 58 15123510367762573559
2838139 119 11819277789062130870
28498 318 18272651233678347463
3004659 81 17967250906340169244
33532 11 18059856147681643230
335352 9 17749102310521342671
34797466 226 18410854408225710344
3545911 37 17822003238361864089
4325135 7 17095522890091846478
5104073 3 12534811347641197391
5758199 1 10231757794879002388
59682541 35 14117511061014356894
59755656 215 18187362125460388635
636775 8 17168153377465574331
9953998 17 11239992352251606436

>  <PUBCHEM_SHAPE_MULTIPOLES>  (1) 
406.61
21.9
1.34
1.05
25.11
0.06
-0.2
12.01
7.61
0.32
0.17
0.22
-0.01
1.14

>  <PUBCHEM_SHAPE_SELFOVERLAP>  (1) 
850.427

>  <PUBCHEM_SHAPE_VOLUME>  (1) 
229.4

>  <PUBCHEM_COORDINATE_TYPE>  (1) 
2
5
10

$$$$
