38767
     RDKit          3D

 22 24  0  0  0  0  0  0  0  0999 V2000
   -0.4390   -2.0336    0.0442 O   0  0  0  0  0  0  0  0  0  0  0  0
    4.6201    0.1232   -0.4974 O   0  0  0  0  0  0  0  0  0  0  0  0
   -0.1018    2.0279   -0.3233 O   0  0  0  0  0  0  0  0  0  0  0  0
   -6.2515    0.2470    0.2530 O   0  0  0  0  0  0  0  0  0  0  0  0
   -5.2248    2.2604    0.0108 O   0  0  0  0  0  0  0  0  0  0  0  0
    0.9780   -0.0626   -0.2237 C   0  0  0  0  0  0  0  0  0  0  0  0
   -1.5106    0.1579   -0.0683 C   0  0  0  0  0  0  0  0  0  0  0  0
    0.7910   -1.4385   -0.0929 C   0  0  0  0  0  0  0  0  0  0  0  0
   -1.5529   -1.2306    0.0534 C   0  0  0  0  0  0  0  0  0  0  0  0
   -0.2027    0.8146   -0.2157 C   0  0  0  0  0  0  0  0  0  0  0  0
    2.2629    0.4694   -0.3591 C   0  0  0  0  0  0  0  0  0  0  0  0
    3.3647   -0.3862   -0.3633 C   0  0  0  0  0  0  0  0  0  0  0  0
    5.0559    1.0458    0.4997 C   0  0  0  0  0  0  0  0  0  0  0  0
    1.8978   -2.2898   -0.0979 C   0  0  0  0  0  0  0  0  0  0  0  0
   -2.6890    0.9085   -0.0501 C   0  0  0  0  0  0  0  0  0  0  0  0
    3.1829   -1.7633   -0.2329 C   0  0  0  0  0  0  0  0  0  0  0  0
   -2.7838   -1.8748    0.1944 C   0  0  0  0  0  0  0  0  0  0  0  0
   -3.9158    0.2594    0.0909 C   0  0  0  0  0  0  0  0  0  0  0  0
   -3.9634   -1.1294    0.2130 C   0  0  0  0  0  0  0  0  0  0  0  0
    6.2751    0.4770    1.2095 C   0  0  0  0  0  0  0  0  0  0  0  0
    5.3550    2.3862   -0.1546 C   0  0  0  0  0  0  0  0  0  0  0  0
   -5.1481    1.0315    0.1105 C   0  0  0  0  0  0  0  0  0  0  0  0
  1  8  1  0
  1  9  1  0
  2 12  1  0
  2 13  1  0
  3 10  2  0
  4 22  1  0
  5 22  2  0
  6  8  2  0
  6 10  1  0
  6 11  1  0
  7  9  2  0
  7 10  1  0
  7 15  1  0
  8 14  1  0
  9 17  1  0
 11 12  2  0
 12 16  1  0
 13 20  1  0
 13 21  1  0
 14 16  2  0
 15 18  2  0
 17 19  2  0
 18 19  1  0
 18 22  1  0
M  END
>  <PUBCHEM_COMPOUND_CID>  (1) 
38767

>  <PUBCHEM_CONFORMER_RMSD>  (1) 
0.6

>  <PUBCHEM_CONFORMER_DIVERSEORDER>  (1) 
1
6
9
4
5
7
2
8
3

>  <PUBCHEM_MMFF94_PARTIAL_CHARGES>  (1) 
27
1 -0.17
10 0.4
11 -0.15
12 0.08
13 0.28
14 -0.15
15 -0.15
16 -0.15
17 -0.15
18 0.09
19 -0.15
2 -0.36
22 0.63
23 0.15
25 0.15
26 0.15
27 0.15
28 0.15
29 0.15
3 -0.57
36 0.5
4 -0.65
5 -0.57
6 0.09
7 0.09
8 0.08
9 0.08

>  <PUBCHEM_EFFECTIVE_ROTOR_COUNT>  (1) 
3

>  <PUBCHEM_PHARMACOPHORE_FEATURES>  (1) 
10
1 1 acceptor
1 2 acceptor
1 3 acceptor
1 4 acceptor
1 5 acceptor
3 13 20 21 hydrophobe
3 4 5 22 anion
6 1 6 7 8 9 10 rings
6 6 8 11 12 14 16 rings
6 7 9 15 17 18 19 rings

>  <PUBCHEM_HEAVY_ATOM_COUNT>  (1) 
22

>  <PUBCHEM_ATOM_DEF_STEREO_COUNT>  (1) 
0

>  <PUBCHEM_ATOM_UDEF_STEREO_COUNT>  (1) 
0

>  <PUBCHEM_BOND_DEF_STEREO_COUNT>  (1) 
0

>  <PUBCHEM_BOND_UDEF_STEREO_COUNT>  (1) 
0

>  <PUBCHEM_ISOTOPIC_ATOM_COUNT>  (1) 
0

>  <PUBCHEM_COMPONENT_COUNT>  (1) 
1

>  <PUBCHEM_CACTVS_TAUTO_COUNT>  (1) 
1

>  <PUBCHEM_CONFORMER_ID>  (1) 
0000976F00000001

>  <PUBCHEM_MMFF94_ENERGY>  (1) 
73.3585

>  <PUBCHEM_FEATURE_SELFOVERLAP>  (1) 
50.862

>  <PUBCHEM_SHAPE_FINGERPRINT>  (1) 
10 15 18187088385661587009
10366900 7 13470689243401979919
10411042 1 17473827225496599862
10493431 412 18409731768177608607
10906281 52 18187663426248509732
12236239 1 17749106725351992904
12403259 415 18188207585361263404
12788726 201 17345759573031149185
13073987 5 18337394838531190475
13140716 1 18263363770812614288
14790565 3 18265339593519204660
15048467 5 18202563977431004329
15196674 1 18410295800209808319
15375358 24 18409171017036563146
15536298 74 18340773658811388838
1601671 61 18410012134831210780
17980427 23 18114182007438683870
1813 80 16805329872440697285
18222031 100 12031785846921773106
19784866 170 18409167722991572618
20642791 178 18043261338489218620
21033648 29 18130215086469699488
21150785 3 16630235979086952013
21267235 1 18265344918941112911
21304253 335 18335428953899395349
21421861 104 17823125740680979546
21452121 103 18411134702233847914
21792934 111 18264480698601256721
21859007 373 17243279540113617396
23402539 116 18340762727855636174
23559900 14 18340771447261921030
2916195 48 18342173396894605440
293599 30 18412829083595049783
296302 2 18272373066042979327
300161 21 18411696569654849159
335352 9 18337393734287323910
34797466 226 17346323712563806349
34934 24 18411697690388430639
350125 39 18409449155693733310
3545911 37 18410016519982212158
3680242 22 18335137579693006368
4072396 5 18334569140729084890
4073 2 18113906000393612802
4340502 62 18409730651470183402
5104073 3 18334581196375497699
59755656 215 18339930320998359558

>  <PUBCHEM_SHAPE_MULTIPOLES>  (1) 
423.4
13.49
2.36
0.72
1.7
0.1
-0.08
-7.26
-2.56
0.31
0.09
0.56
-0.03
0.28

>  <PUBCHEM_SHAPE_SELFOVERLAP>  (1) 
934.556

>  <PUBCHEM_SHAPE_VOLUME>  (1) 
228.3

>  <PUBCHEM_COORDINATE_TYPE>  (1) 
2
5
10

$$$$
