38771
     RDKit          3D

 14 15  0  0  0  0  0  0  0  0999 V2000
   -2.2289    0.3316   -1.4783 S   0  0  0  0  0  0  0  0  0  0  0  0
   -2.2197    0.2540    1.5126 S   0  0  0  0  0  0  0  0  0  0  0  0
   -1.3291    0.8305    0.0274 C   0  0  0  0  0  0  0  0  0  0  0  0
    0.1103    0.3690    0.0098 C   0  0  0  0  0  0  0  0  0  0  0  0
    1.1436    1.3057    0.0332 C   0  0  0  0  0  0  0  0  0  0  0  0
    0.4052   -0.9940   -0.0298 C   0  0  0  0  0  0  0  0  0  0  0  0
   -3.7813   -0.1040   -0.6553 C   0  0  0  0  0  0  0  0  0  0  0  0
   -3.4301   -0.7845    0.6520 C   0  0  0  0  0  0  0  0  0  0  0  0
    2.4718    0.8796    0.0168 C   0  0  0  0  0  0  0  0  0  0  0  0
    1.7334   -1.4198   -0.0463 C   0  0  0  0  0  0  0  0  0  0  0  0
    2.7667   -0.4830   -0.0229 C   0  0  0  0  0  0  0  0  0  0  0  0
    0.8545    2.7704    0.0758 C   0  0  0  0  0  0  0  0  0  0  0  0
   -0.6831   -2.0169   -0.0548 C   0  0  0  0  0  0  0  0  0  0  0  0
    4.1867   -0.9387   -0.0404 C   0  0  0  0  0  0  0  0  0  0  0  0
  1  3  1  0
  1  7  1  0
  2  3  1  0
  2  8  1  0
  3  4  1  0
  4  5  2  0
  4  6  1  0
  5  9  1  0
  5 12  1  0
  6 10  2  0
  6 13  1  0
  7  8  1  0
  9 11  2  0
 10 11  1  0
 11 14  1  0
M  END
>  <PUBCHEM_COMPOUND_CID>  (1) 
38771

>  <PUBCHEM_CONFORMER_RMSD>  (1) 
0.6

>  <PUBCHEM_CONFORMER_DIVERSEORDER>  (1) 
1

>  <PUBCHEM_MMFF94_PARTIAL_CHARGES>  (1) 
16
1 -0.46
10 -0.15
11 -0.14
12 0.14
13 0.14
14 0.14
2 -0.46
20 0.15
21 0.15
3 0.6
4 -0.14
5 -0.14
6 -0.14
7 0.23
8 0.23
9 -0.15

>  <PUBCHEM_EFFECTIVE_ROTOR_COUNT>  (1) 
2

>  <PUBCHEM_PHARMACOPHORE_FEATURES>  (1) 
2
5 1 2 3 7 8 rings
6 4 5 6 9 10 11 rings

>  <PUBCHEM_HEAVY_ATOM_COUNT>  (1) 
14

>  <PUBCHEM_ATOM_DEF_STEREO_COUNT>  (1) 
0

>  <PUBCHEM_ATOM_UDEF_STEREO_COUNT>  (1) 
0

>  <PUBCHEM_BOND_DEF_STEREO_COUNT>  (1) 
0

>  <PUBCHEM_BOND_UDEF_STEREO_COUNT>  (1) 
0

>  <PUBCHEM_ISOTOPIC_ATOM_COUNT>  (1) 
0

>  <PUBCHEM_COMPONENT_COUNT>  (1) 
1

>  <PUBCHEM_CACTVS_TAUTO_COUNT>  (1) 
1

>  <PUBCHEM_CONFORMER_ID>  (1) 
0000977300000001

>  <PUBCHEM_MMFF94_ENERGY>  (1) 
48.6508

>  <PUBCHEM_FEATURE_SELFOVERLAP>  (1) 
10.149

>  <PUBCHEM_SHAPE_FINGERPRINT>  (1) 
10219947 1 18412547604407715834
108231 29 18410013225905690120
10967382 1 18339080505298597776
11132069 177 18341043081951448834
11471102 20 18410849984282301397
11543360 7 15936708011792285142
11680986 33 18196650911550432800
12032990 46 18410579448751012182
12236239 1 17632576046323199407
12423570 1 14297629070056922797
124424 183 17967247572722867754
13380535 21 18047760578697902844
13690532 89 18411417293664678566
14251717 144 18411979178502984431
14993402 34 18412826876045273630
15219456 202 18187081801735087309
15309172 13 18412832373677499371
15375462 478 17775008963985746257
15775835 57 18335987583231553205
16945 1 18411984684392445544
17844478 74 18040157327111429621
18175812 5 17967817175865337231
18186145 218 18343302595589506397
18534176 82 16950570947791746177
193761 8 17906733953344596622
200 152 18202275901548417511
20201158 50 18260829272098833987
20645477 70 18412536617934218119
20671657 1 18195817481589405092
21061003 4 18408892814998901497
21130352 189 18408040723362242056
21501502 16 18123469646372188766
21639500 275 18268704085935514469
22112679 90 17131835404097489793
221490 88 18192152805028458859
2334 1 17834957851120292194
23402539 116 18200588099591686534
23493267 7 17313662633782492664
25 1 17971740087408938605
2748010 2 18195524796779265252
3286 77 18335706087122877781
5084963 1 18130782365227902073
57812782 119 18040992960127513995
63268167 104 18411699923771125769
7364860 26 18198624522106421696
74978 22 18268994348225135814
77492 1 17632580469923431305
81228 2 17977666403284924848
8809292 202 18114186371125826363

>  <PUBCHEM_SHAPE_MULTIPOLES>  (1) 
295.81
5.95
2.02
1.06
0.44
0.78
0.02
-1.59
-0.17
0.9
0.04
-1.04
0.08
0.16

>  <PUBCHEM_SHAPE_SELFOVERLAP>  (1) 
592.292

>  <PUBCHEM_SHAPE_VOLUME>  (1) 
175.2

>  <PUBCHEM_COORDINATE_TYPE>  (1) 
2
5
10

$$$$
