38781
     RDKit          3D

 25 26  0  0  1  0  0  0  0  0999 V2000
   -4.5528    1.9252   -0.4688 O   0  0  0  0  0  0  0  0  0  0  0  0
   -2.9434    1.3979   -2.0102 O   0  0  0  0  0  0  0  0  0  0  0  0
   -2.4500   -0.3505    1.8747 O   0  0  0  0  0  0  0  0  0  0  0  0
    0.3472   -0.2129    1.7360 O   0  0  0  0  0  0  0  0  0  0  0  0
    7.3696    0.3716   -1.0328 O   0  0  0  0  0  0  0  0  0  0  0  0
    7.3234    0.1454    1.2285 O   0  0  0  0  0  0  0  0  0  0  0  0
   -1.1395   -0.1022   -0.0449 N   0  0  0  0  0  0  0  0  0  0  0  0
    1.1173    0.0399   -0.4689 N   0  0  0  0  0  0  0  0  0  0  0  0
   -3.5296   -0.1905   -0.2540 C   0  0  0  0  0  0  0  0  0  0  0  0
   -4.8279   -0.1594    0.5401 C   0  0  0  0  0  0  0  0  0  0  0  0
   -5.0605    1.3256    0.7299 C   0  0  0  0  0  0  0  0  0  0  0  0
   -3.4641   -1.3979   -1.1827 C   0  0  0  0  0  0  0  0  0  0  0  0
   -3.6165    1.1020   -1.0343 C   0  0  0  0  0  0  0  0  0  0  0  0
   -2.3367   -0.2249    0.6586 C   0  0  0  0  0  0  0  0  0  0  0  0
   -6.5244    1.6847    0.9038 C   0  0  0  0  0  0  0  0  0  0  0  0
   -3.4519   -2.6797   -0.4083 C   0  0  0  0  0  0  0  0  0  0  0  0
    0.1476   -0.1020    0.5290 C   0  0  0  0  0  0  0  0  0  0  0  0
   -2.4780   -3.5930   -0.4914 C   0  0  0  0  0  0  0  0  0  0  0  0
    2.5223    0.0867   -0.3120 C   0  0  0  0  0  0  0  0  0  0  0  0
    3.0673   -0.0151    0.9575 C   0  0  0  0  0  0  0  0  0  0  0  0
    3.3246    0.2335   -1.4317 C   0  0  0  0  0  0  0  0  0  0  0  0
    4.4529    0.0312    1.1116 C   0  0  0  0  0  0  0  0  0  0  0  0
    4.7102    0.2798   -1.2777 C   0  0  0  0  0  0  0  0  0  0  0  0
    5.2743    0.1787   -0.0060 C   0  0  0  0  0  0  0  0  0  0  0  0
    6.7188    0.2261    0.1540 C   0  0  0  0  0  0  0  0  0  0  0  0
  1 11  1  0
  1 13  1  0
  2 13  2  0
  3 14  2  0
  4 17  2  0
  5 25  1  0
  6 25  2  0
  7 14  1  0
  7 17  1  0
  8 17  1  0
  8 19  1  0
  9 10  1  0
  9 12  1  0
  9 13  1  0
  9 14  1  0
 10 11  1  0
 11 15  1  0
 12 16  1  0
 16 18  2  0
 19 20  2  0
 19 21  1  0
 20 22  1  0
 21 23  2  0
 22 24  2  0
 23 24  1  0
 24 25  1  0
M  END
>  <PUBCHEM_COMPOUND_CID>  (1) 
38781

>  <PUBCHEM_CONFORMER_RMSD>  (1) 
1

>  <PUBCHEM_CONFORMER_DIVERSEORDER>  (1) 
1
22
15
27
29
25
21
20
26
10
19
3
16
23
24
28
18
17
12
2
14
4
8
7
11
6
9
13
5

>  <PUBCHEM_MMFF94_PARTIAL_CHARGES>  (1) 
33
1 -0.43
11 0.28
12 0.14
13 0.66
14 0.57
16 -0.29
17 0.69
18 -0.3
19 0.12
2 -0.57
20 -0.15
21 -0.15
22 -0.15
23 -0.15
24 0.09
25 0.63
3 -0.57
34 0.15
35 0.37
36 0.15
37 0.15
38 0.37
39 0.15
4 -0.57
40 0.15
41 0.15
42 0.15
43 0.5
5 -0.65
6 -0.57
7 -0.49
8 -0.55
9 0.12

>  <PUBCHEM_EFFECTIVE_ROTOR_COUNT>  (1) 
8.8

>  <PUBCHEM_PHARMACOPHORE_FEATURES>  (1) 
11
1 18 hydrophobe
1 2 acceptor
1 3 acceptor
1 4 acceptor
1 5 acceptor
1 6 acceptor
1 7 donor
1 8 donor
3 5 6 25 anion
5 1 9 10 11 13 rings
6 19 20 21 22 23 24 rings

>  <PUBCHEM_HEAVY_ATOM_COUNT>  (1) 
25

>  <PUBCHEM_ATOM_DEF_STEREO_COUNT>  (1) 
0

>  <PUBCHEM_ATOM_UDEF_STEREO_COUNT>  (1) 
2

>  <PUBCHEM_BOND_DEF_STEREO_COUNT>  (1) 
0

>  <PUBCHEM_BOND_UDEF_STEREO_COUNT>  (1) 
0

>  <PUBCHEM_ISOTOPIC_ATOM_COUNT>  (1) 
0

>  <PUBCHEM_COMPONENT_COUNT>  (1) 
1

>  <PUBCHEM_CACTVS_TAUTO_COUNT>  (1) 
8

>  <PUBCHEM_CONFORMER_ID>  (1) 
0000977D00000001

>  <PUBCHEM_MMFF94_ENERGY>  (1) 
68.1051

>  <PUBCHEM_FEATURE_SELFOVERLAP>  (1) 
55.934

>  <PUBCHEM_SHAPE_FINGERPRINT>  (1) 
10165383 225 18343023251723800185
105312 117 18342174436761988055
107951 10 18273218582454448447
10835480 77 17561079224680075568
11315181 36 18261391195454715015
11545043 162 17988640856585605346
11796584 16 18273217495854043878
12091667 2 17967813864587944258
12107183 9 16012658813158605112
12166972 35 14129068023269911302
12236239 1 17894911832829915024
12616971 3 17894635880854158292
13073987 5 15936684866023668512
14251764 18 16588030121342589064
14849402 71 16878239666044017916
15183329 4 16008741417022470314
15788980 27 18334858337903928342
17093844 174 17918269874466021666
17844677 252 18270964668983512112
19489759 90 18341328967759267678
20645477 56 18411698769057938773
20681677 155 18343584036354366691
21267235 1 15792014446746622984
21424621 283 17916032265757286153
21756936 100 17530682100401115009
220451 1 18333730217741866322
23081809 10 17749103422843967074
23198884 109 18130508552863341601
23402539 116 17967530194803824102
23559900 14 17418087737223848330
24771293 8 17896036724037401756
300161 21 18131633361458100846
3004659 81 15338832041296799624
4015057 19 16200138937554916627
4073 2 18060140968437792614
4169191 19 16226898903729757236
5104073 3 16081659992947713600
531348 171 18187919530843119658
542803 24 18113901558938070096
5969126 39 11458425773971227371
59755656 520 18413107242973403179

>  <PUBCHEM_SHAPE_MULTIPOLES>  (1) 
469.31
18.07
2.02
1.5
24.12
2.24
0.12
-5.98
-0.49
-4.95
0.24
0.23
-0.29
-0.15

>  <PUBCHEM_SHAPE_SELFOVERLAP>  (1) 
997.974

>  <PUBCHEM_SHAPE_VOLUME>  (1) 
260.9

>  <PUBCHEM_COORDINATE_TYPE>  (1) 
2
5
10

$$$$
