3881
     RDKit          3D

 20 22  0  0  1  0  0  0  0  0999 V2000
    3.6129    1.0567   -2.4088 Cl  0  0  0  0  0  0  0  0  0  0  0  0
    0.3766   -0.9240   -0.2361 S   0  0  0  0  0  0  0  0  0  0  0  0
   -0.9345    1.6582    0.3707 S   0  0  0  0  0  0  0  0  0  0  0  0
   -3.5531    0.0599    0.0116 N   0  0  0  0  0  0  0  0  0  0  0  0
   -5.6549    0.3483    0.4855 N   0  0  0  0  0  0  0  0  0  0  0  0
   -2.2438   -3.1400   -0.7371 N   0  0  0  0  0  0  0  0  0  0  0  0
    1.4671    0.5499   -0.2418 C   0  0  0  0  0  0  0  0  0  0  0  0
    0.8531    1.5765    0.7148 C   0  0  0  0  0  0  0  0  0  0  0  0
    2.9020    0.1940    0.0769 C   0  0  0  0  0  0  0  0  0  0  0  0
   -1.0987   -0.0285   -0.0199 C   0  0  0  0  0  0  0  0  0  0  0  0
    3.9279    0.3922   -0.8472 C   0  0  0  0  0  0  0  0  0  0  0  0
    3.1875   -0.3464    1.3308 C   0  0  0  0  0  0  0  0  0  0  0  0
   -2.2981   -0.6075   -0.1488 C   0  0  0  0  0  0  0  0  0  0  0  0
    5.2393    0.0498   -0.5174 C   0  0  0  0  0  0  0  0  0  0  0  0
    4.4988   -0.6887    1.6606 C   0  0  0  0  0  0  0  0  0  0  0  0
    5.5246   -0.4908    0.7364 C   0  0  0  0  0  0  0  0  0  0  0  0
   -3.7626    1.3540   -0.2528 C   0  0  0  0  0  0  0  0  0  0  0  0
   -4.6745   -0.5265    0.4466 C   0  0  0  0  0  0  0  0  0  0  0  0
   -2.2764   -2.0097   -0.4743 C   0  0  0  0  0  0  0  0  0  0  0  0
   -5.0933    1.5225    0.0503 C   0  0  0  0  0  0  0  0  0  0  0  0
  1 11  1  0
  2  7  1  0
  2 10  1  0
  3  8  1  0
  3 10  1  0
  4 13  1  0
  4 17  1  0
  4 18  1  0
  5 18  2  0
  5 20  1  0
  6 19  3  0
  7  8  1  0
  7  9  1  0
  9 11  2  0
  9 12  1  0
 10 13  2  0
 11 14  1  0
 12 15  2  0
 13 19  1  0
 14 16  2  0
 15 16  1  0
 17 20  2  0
M  END
>  <PUBCHEM_COMPOUND_CID>  (1) 
3881

>  <PUBCHEM_CONFORMER_RMSD>  (1) 
0.6

>  <PUBCHEM_CONFORMER_DIVERSEORDER>  (1) 
3
5
4
21
8
24
6
7
9
25
22
13
14
17
12
15
20
16
23
18
19
10
26
1
2
11

>  <PUBCHEM_MMFF94_PARTIAL_CHARGES>  (1) 
27
1 -0.18
10 0.2
11 0.18
12 -0.15
13 0.03
14 -0.15
15 -0.15
16 -0.15
17 -0.3
18 0.04
19 0.49
2 -0.33
20 0.08
24 0.15
25 0.15
26 0.15
27 0.15
28 0.15
29 0.15
3 -0.33
30 0.15
4 0.33
5 -0.57
6 -0.56
7 0.37
8 0.23
9 -0.14

>  <PUBCHEM_EFFECTIVE_ROTOR_COUNT>  (1) 
2.8

>  <PUBCHEM_PHARMACOPHORE_FEATURES>  (1) 
5
1 6 acceptor
3 4 5 18 cation
5 2 3 7 8 10 rings
5 4 5 17 18 20 rings
6 9 11 12 14 15 16 rings

>  <PUBCHEM_HEAVY_ATOM_COUNT>  (1) 
20

>  <PUBCHEM_ATOM_DEF_STEREO_COUNT>  (1) 
0

>  <PUBCHEM_ATOM_UDEF_STEREO_COUNT>  (1) 
1

>  <PUBCHEM_BOND_DEF_STEREO_COUNT>  (1) 
0

>  <PUBCHEM_BOND_UDEF_STEREO_COUNT>  (1) 
1

>  <PUBCHEM_ISOTOPIC_ATOM_COUNT>  (1) 
0

>  <PUBCHEM_COMPONENT_COUNT>  (1) 
1

>  <PUBCHEM_CACTVS_TAUTO_COUNT>  (1) 
1

>  <PUBCHEM_CONFORMER_ID>  (1) 
00000F2900000003

>  <PUBCHEM_MMFF94_ENERGY>  (1) 
64.7185

>  <PUBCHEM_FEATURE_SELFOVERLAP>  (1) 
25.373

>  <PUBCHEM_SHAPE_FINGERPRINT>  (1) 
10062212 137 18334571386422298882
10366900 7 16271933714012037474
11045977 3 17703780453544809296
11405975 8 18270676583936017024
11646440 116 17703798028825271825
11796584 16 18202005426400313766
12107183 9 16956173886932242448
12236239 1 18113901554996530640
12346177 29 17917421081765263279
12403814 3 17749103379461738909
12616971 3 17749384888872157598
12633257 1 18341893017350800549
12788726 201 18337401452333167600
13140716 1 18200587137297433841
13167823 11 17967250909901861778
13533116 47 17345757374171689726
13544592 145 17632585928763561398
13726171 33 17909580528688043676
13760787 19 18260550047716628338
13760787 5 17749383793196587246
13862211 1 18341888602388112207
14386348 63 17561369482701090084
14573314 32 16630532795222782728
15042514 8 18339643468765110219
15099037 51 18343584040591175125
15238133 3 18411422782416734960
15375358 24 17561081410375018382
1601671 61 18413672396207857788
17349148 13 18060137639321089025
17804303 29 18343300409562084929
17834072 33 17313108561420912208
1813 80 17241047587818917438
19489759 90 17418092100979166609
19784866 9 18187644669751814474
200 152 17603301540612372680
20511986 3 18114170952404145548
20600515 1 18060142054479261768
20681677 155 18409165536848093938
21033648 29 16343128148050437281
21279426 13 17915185602632084957
22224240 67 14405172955922225174
23366157 5 17974844278784878704
23402539 116 18130779054156380557
23536379 177 17313103020987167785
23559900 14 18059863883022965396
23569943 247 16700073530110069423
2838139 119 17168973501475981685
3004659 81 18261116253608480204
338550 245 18334858282075258414
474 4 16661785438807102732
5104073 3 18270959175488115635
5281201 14 15140674766068471030
5385378 56 18128546964237910027
542803 24 17967816041819884592
559249 180 18410005529198182147
59755656 215 18201444610860840486
7226269 152 17989486299275254793
7495541 125 18187368765453473929
8272917 22 17603588487403792402
9971528 1 16487259867635198264

>  <PUBCHEM_SHAPE_MULTIPOLES>  (1) 
406.22
12.84
1.92
1.34
1.25
0.93
-0.38
-0.75
1.27
1.91
-0.44
-2.06
-0.15
-1.49

>  <PUBCHEM_SHAPE_SELFOVERLAP>  (1) 
848.172

>  <PUBCHEM_SHAPE_VOLUME>  (1) 
231.3

>  <PUBCHEM_COORDINATE_TYPE>  (1) 
2
5
10

$$$$
