38827
     RDKit          3D

 18 18  0  0  1  0  0  0  0  0999 V2000
   -2.0039    1.4900    0.9174 S   0  0  0  0  0  0  0  0  0  0  0  0
   -3.4225    0.6648   -0.3895 P   0  0  0  0  0  0  0  0  0  0  0  0
   -3.2642   -0.9461   -0.4993 O   0  0  0  0  0  0  0  0  0  0  0  0
   -3.3433    1.3238   -1.7413 O   0  0  0  0  0  0  0  0  0  0  0  0
    2.0320    1.5411    0.2407 N   0  0  0  0  0  0  0  0  0  0  0  0
    0.7443    1.7705    0.9403 C   0  0  0  0  0  0  0  0  0  0  0  0
    2.3776    0.0448    0.0472 C   0  0  0  0  0  0  0  0  0  0  0  0
    1.9836    2.1805   -1.1598 C   0  0  0  0  0  0  0  0  0  0  0  0
    3.1813    2.1719    1.0494 C   0  0  0  0  0  0  0  0  0  0  0  0
   -0.4101    1.2247    0.1159 C   0  0  0  0  0  0  0  0  0  0  0  0
    3.1365   -0.2572   -1.0236 C   0  0  0  0  0  0  0  0  0  0  0  0
    1.8847   -0.8045    0.9689 C   0  0  0  0  0  0  0  0  0  0  0  0
    3.4481   -1.6057   -1.1983 C   0  0  0  0  0  0  0  0  0  0  0  0
    2.1964   -2.1528    0.7944 C   0  0  0  0  0  0  0  0  0  0  0  0
    2.9780   -2.5534   -0.2893 C   0  0  0  0  0  0  0  0  0  0  0  0
   -5.0500    0.8838    0.3302 C   0  0  0  0  0  0  0  0  0  0  0  0
   -3.3233   -1.7653    0.6544 C   0  0  0  0  0  0  0  0  0  0  0  0
   -3.1452   -3.2110    0.2424 C   0  0  0  0  0  0  0  0  0  0  0  0
  1  2  1  0
  1 10  1  0
  2  3  1  0
  2  4  2  0
  2 16  1  0
  3 17  1  0
  5  6  1  0
  5  7  1  0
  5  8  1  0
  5  9  1  0
  6 10  1  0
  7 11  2  0
  7 12  1  0
 11 13  1  0
 12 14  2  0
 13 15  2  0
 14 15  1  0
 17 18  1  0
M  CHG  1   5   1
M  END
>  <PUBCHEM_COMPOUND_CID>  (1) 
38827

>  <PUBCHEM_CONFORMER_RMSD>  (1) 
0.8

>  <PUBCHEM_CONFORMER_DIVERSEORDER>  (1) 
59
78
74
93
10
80
45
34
77
25
41
35
3
101
72
105
9
69
54
36
21
19
30
60
96
42
94
57
31
62
58
55
29
61
2
28
38
107
70
6
27
113
1
23
110
64
39
89
81
47
104
32
20
4
66
106
99
46
75
92
18
114
112
65
76
91
51
56
43
11
102
83
90
87
5
24
68
49
111
71
16
86
95
79
67
44
12
52
37
98
82
22
73
63
13
15
88
115
84
48
53
100
14
108
17
103
109
97
26
33
50
40
7
8
85

>  <PUBCHEM_MMFF94_PARTIAL_CHARGES>  (1) 
21
1 -0.48
10 0.23
11 -0.15
12 -0.15
13 -0.15
14 -0.15
15 -0.15
17 0.28
2 1.22
29 0.15
3 -0.55
30 0.15
31 0.15
32 0.15
33 0.15
4 -0.7
5 -0.87
6 0.5
7 0.36
8 0.5
9 0.5

>  <PUBCHEM_EFFECTIVE_ROTOR_COUNT>  (1) 
7

>  <PUBCHEM_PHARMACOPHORE_FEATURES>  (1) 
2
1 5 cation
6 7 11 12 13 14 15 rings

>  <PUBCHEM_HEAVY_ATOM_COUNT>  (1) 
18

>  <PUBCHEM_ATOM_DEF_STEREO_COUNT>  (1) 
0

>  <PUBCHEM_ATOM_UDEF_STEREO_COUNT>  (1) 
1

>  <PUBCHEM_BOND_DEF_STEREO_COUNT>  (1) 
0

>  <PUBCHEM_BOND_UDEF_STEREO_COUNT>  (1) 
0

>  <PUBCHEM_ISOTOPIC_ATOM_COUNT>  (1) 
0

>  <PUBCHEM_COMPONENT_COUNT>  (1) 
1

>  <PUBCHEM_CACTVS_TAUTO_COUNT>  (1) 
1

>  <PUBCHEM_CONFORMER_ID>  (1) 
000097AB0000003B

>  <PUBCHEM_MMFF94_ENERGY>  (1) 
57.022

>  <PUBCHEM_FEATURE_SELFOVERLAP>  (1) 
10.148

>  <PUBCHEM_SHAPE_FINGERPRINT>  (1) 
10616163 171 18266742557444691643
12553582 1 18124881161725307378
12596599 1 18200609037214668723
12633257 1 18341052904837170803
12788726 201 17417543414802624641
13533116 47 18201997751240403793
14251705 54 18267025140385938123
15635459 17 18341333370190650735
17834074 16 18408887373459713441
18186145 218 18333447621419884673
20291156 8 18270121205909756905
20645477 70 18202278104545056053
21634736 98 18409738352283391090
221490 88 18411990186514830546
23559900 14 18341609330387162112
314173 41 18411989035199773093
474229 33 17979913036458577624
9709674 26 18412539942460314409

>  <PUBCHEM_SHAPE_MULTIPOLES>  (1) 
361.41
8.77
3.44
1.27
7.78
1.8
-0.25
1.83
-1.17
-0.48
0.36
-0.27
-0.34
0.82

>  <PUBCHEM_SHAPE_SELFOVERLAP>  (1) 
685.483

>  <PUBCHEM_SHAPE_VOLUME>  (1) 
227.9

>  <PUBCHEM_COORDINATE_TYPE>  (1) 
2
5
10

$$$$
