38849
     RDKit          3D

 29 32  0  0  0  0  0  0  0  0999 V2000
    5.7267   -0.6207   -0.2095 P   0  0  0  0  0  0  0  0  0  0  0  0
    4.9013    0.7133   -0.6510 O   0  0  0  0  0  0  0  0  0  0  0  0
    5.0490   -1.8739   -0.7093 O   0  0  0  0  0  0  0  0  0  0  0  0
   -2.7091    1.6687    0.6740 O   0  0  0  0  0  0  0  0  0  0  0  0
   -1.5794    0.0060   -0.4749 O   0  0  0  0  0  0  0  0  0  0  0  0
   -7.8538   -1.8558    0.4733 O   0  0  0  0  0  0  0  0  0  0  0  0
   -8.2101   -0.7362   -1.5062 O   0  0  0  0  0  0  0  0  0  0  0  0
    5.9186   -0.5194    1.4370 N   0  0  0  0  0  0  0  0  0  0  0  0
    7.2486   -0.3842   -0.8332 N   0  0  0  0  0  0  0  0  0  0  0  0
   -0.4304    1.7838    0.5260 N   0  0  0  0  0  0  0  0  0  0  0  0
    6.4335   -1.7082    2.1041 C   0  0  0  0  0  0  0  0  0  0  0  0
    4.9963   -1.3015    2.2504 C   0  0  0  0  0  0  0  0  0  0  0  0
    8.0691   -1.5741   -1.0195 C   0  0  0  0  0  0  0  0  0  0  0  0
    7.4722   -0.8554   -2.1939 C   0  0  0  0  0  0  0  0  0  0  0  0
    3.5970    0.9762   -0.3647 C   0  0  0  0  0  0  0  0  0  0  0  0
    3.2602    2.1099    0.3749 C   0  0  0  0  0  0  0  0  0  0  0  0
    2.5974    0.1108   -0.8091 C   0  0  0  0  0  0  0  0  0  0  0  0
    1.9236    2.3781    0.6701 C   0  0  0  0  0  0  0  0  0  0  0  0
    1.2608    0.3791   -0.5138 C   0  0  0  0  0  0  0  0  0  0  0  0
    0.9239    1.5127    0.2257 C   0  0  0  0  0  0  0  0  0  0  0  0
   -1.5443    1.0462    0.1725 C   0  0  0  0  0  0  0  0  0  0  0  0
   -3.8777    1.0319    0.3890 C   0  0  0  0  0  0  0  0  0  0  0  0
   -4.5751    1.3437   -0.7781 C   0  0  0  0  0  0  0  0  0  0  0  0
   -4.3789    0.0691    1.2649 C   0  0  0  0  0  0  0  0  0  0  0  0
   -6.2750   -0.2704   -0.1933 C   0  0  0  0  0  0  0  0  0  0  0  0
   -5.7737    0.6925   -1.0693 C   0  0  0  0  0  0  0  0  0  0  0  0
   -5.5776   -0.5820    0.9737 C   0  0  0  0  0  0  0  0  0  0  0  0
   -7.5252   -0.9486   -0.4968 C   0  0  0  0  0  0  0  0  0  0  0  0
   -9.0678   -2.5914    0.2868 C   0  0  0  0  0  0  0  0  0  0  0  0
  1  2  1  0
  1  3  2  0
  1  8  1  0
  1  9  1  0
  2 15  1  0
  4 21  1  0
  4 22  1  0
  5 21  2  0
  6 28  1  0
  6 29  1  0
  7 28  2  0
  8 11  1  0
  8 12  1  0
  9 13  1  0
  9 14  1  0
 10 20  1  0
 10 21  1  0
 11 12  1  0
 13 14  1  0
 15 16  2  0
 15 17  1  0
 16 18  1  0
 17 19  2  0
 18 20  2  0
 19 20  1  0
 22 23  2  0
 22 24  1  0
 23 26  1  0
 24 27  2  0
 25 26  2  0
 25 27  1  0
 25 28  1  0
M  END
>  <PUBCHEM_COMPOUND_CID>  (1) 
38849

>  <PUBCHEM_CONFORMER_RMSD>  (1) 
1

>  <PUBCHEM_CONFORMER_DIVERSEORDER>  (1) 
1
35
41
32
34
40
31
28
36
2
26
14
7
33
30
10
27
17
9
37
23
22
18
20
21
39
4
25
29
19
3
38
6
16
13
24
8
15
5
12
11

>  <PUBCHEM_MMFF94_PARTIAL_CHARGES>  (1) 
46
1 1.51
10 -0.55
11 -0.04
12 -0.04
13 -0.04
14 -0.04
15 0.08
16 -0.15
17 -0.15
18 -0.15
19 -0.15
2 -0.35
20 0.12
21 0.78
22 0.08
23 -0.15
24 -0.15
25 0.09
26 -0.15
27 -0.15
28 0.63
29 0.28
3 -0.7
30 0.1
31 0.1
32 0.1
33 0.1
34 0.1
35 0.1
36 0.1
37 0.1
38 0.15
39 0.15
4 -0.23
40 0.15
41 0.15
42 0.37
43 0.15
44 0.15
45 0.15
46 0.15
5 -0.57
6 -0.43
7 -0.57
8 -0.58
9 -0.58

>  <PUBCHEM_EFFECTIVE_ROTOR_COUNT>  (1) 
11.2

>  <PUBCHEM_PHARMACOPHORE_FEATURES>  (1) 
5
1 10 donor
1 5 acceptor
1 7 acceptor
6 15 16 17 18 19 20 rings
6 22 23 24 25 26 27 rings

>  <PUBCHEM_HEAVY_ATOM_COUNT>  (1) 
29

>  <PUBCHEM_ATOM_DEF_STEREO_COUNT>  (1) 
0

>  <PUBCHEM_ATOM_UDEF_STEREO_COUNT>  (1) 
0

>  <PUBCHEM_BOND_DEF_STEREO_COUNT>  (1) 
0

>  <PUBCHEM_BOND_UDEF_STEREO_COUNT>  (1) 
0

>  <PUBCHEM_ISOTOPIC_ATOM_COUNT>  (1) 
0

>  <PUBCHEM_COMPONENT_COUNT>  (1) 
1

>  <PUBCHEM_CACTVS_TAUTO_COUNT>  (1) 
2

>  <PUBCHEM_CONFORMER_ID>  (1) 
000097C100000001

>  <PUBCHEM_MMFF94_ENERGY>  (1) 
88.0834

>  <PUBCHEM_FEATURE_SELFOVERLAP>  (1) 
25.371

>  <PUBCHEM_SHAPE_FINGERPRINT>  (1) 
10 15 13830129516434185689
10533779 47 13613973163066117292
106641 1 17774997999878602240
11135609 127 16878235272666624300
11386260 185 17168148995712774628
11456790 92 14548738366303746250
125118 31 10807942578411797955
13668630 136 18413389825924854973
13782708 43 18334009476030168501
14849402 71 14835824240712291954
15183329 4 17240483585139501032
15350500 55 9079126540331190859
15510800 12 18342469153091671599
16991971 28 18412554197704787332
17134984 74 18259984877687127938
1754908 1 15697997470576676215
1818759 1 18343309175632560143
2026 5 18341334409636462431
20721686 124 13912324574148983864
21130935 74 17917435268031581650
21150785 3 17022626372834331620
21267235 1 18202287999970494333
21792934 111 16773795888422183745
23559900 14 17677051360592664857
23576562 1 14852465388180823927
3004659 81 18335424552322950396
3383291 50 18131069346538030351
3711267 37 11097850762316700367
4340502 62 13542464242289408772
445580 126 10447930559728286992
504579 68 15068618292990496789
54039377 194 18131074830899316757
5718773 13 18335696139994418747
58083652 198 14691992623330612864
5937810 71 14201389462013726663
59682541 52 16588027905424326940
636775 72 9367078740347731967
6438161 24 18113889468573496896
68570916 9 13470106532341089108
9953998 17 13830131690077949789
9962374 69 18201715193668353116

>  <PUBCHEM_SHAPE_MULTIPOLES>  (1) 
550.5
29.15
2.26
1.61
21.43
0.11
0.24
23.1
-6.18
0.66
0.53
-2.88
0.69
-0.02

>  <PUBCHEM_SHAPE_SELFOVERLAP>  (1) 
1156.176

>  <PUBCHEM_SHAPE_VOLUME>  (1) 
312.4

>  <PUBCHEM_COORDINATE_TYPE>  (1) 
2
5
10

$$$$
