38857
     RDKit          3D

 19 20  0  0  0  0  0  0  0  0999 V2000
    0.2968   -2.7117    0.1191 Cl  0  0  0  0  0  0  0  0  0  0  0  0
    0.2977    2.7121    0.1153 Cl  0  0  0  0  0  0  0  0  0  0  0  0
    3.4377    2.7187   -0.0945 Cl  0  0  0  0  0  0  0  0  0  0  0  0
    3.4370   -2.7193   -0.0916 Cl  0  0  0  0  0  0  0  0  0  0  0  0
    5.0053   -0.0006   -0.2039 Cl  0  0  0  0  0  0  0  0  0  0  0  0
   -4.0568   -0.0044   -2.3200 Cl  0  0  0  0  0  0  0  0  0  0  0  0
   -5.4730    0.0011    0.5895 Cl  0  0  0  0  0  0  0  0  0  0  0  0
    0.4717    0.0005    0.1054 C   0  0  0  0  0  0  0  0  0  0  0  0
   -0.9716    0.0006    0.2061 C   0  0  0  0  0  0  0  0  0  0  0  0
    1.1777   -1.2077    0.0582 C   0  0  0  0  0  0  0  0  0  0  0  0
    1.1788    1.2082    0.0565 C   0  0  0  0  0  0  0  0  0  0  0  0
   -1.7523   -0.0013   -0.9499 C   0  0  0  0  0  0  0  0  0  0  0  0
   -1.5825    0.0027    1.4602 C   0  0  0  0  0  0  0  0  0  0  0  0
    2.5704    1.2076   -0.0382 C   0  0  0  0  0  0  0  0  0  0  0  0
    2.5694   -1.2083   -0.0362 C   0  0  0  0  0  0  0  0  0  0  0  0
    3.2658   -0.0007   -0.0846 C   0  0  0  0  0  0  0  0  0  0  0  0
   -3.1436   -0.0013   -0.8518 C   0  0  0  0  0  0  0  0  0  0  0  0
   -2.9739    0.0029    1.5582 C   0  0  0  0  0  0  0  0  0  0  0  0
   -3.7544    0.0008    0.4021 C   0  0  0  0  0  0  0  0  0  0  0  0
  1 10  1  0
  2 11  1  0
  3 14  1  0
  4 15  1  0
  5 16  1  0
  6 17  1  0
  7 19  1  0
  8  9  1  0
  8 10  2  0
  8 11  1  0
  9 12  2  0
  9 13  1  0
 10 15  1  0
 11 14  2  0
 12 17  1  0
 13 18  2  0
 14 16  1  0
 15 16  2  0
 17 19  2  0
 18 19  1  0
M  END
>  <PUBCHEM_COMPOUND_CID>  (1) 
38857

>  <PUBCHEM_CONFORMER_RMSD>  (1) 
0.6

>  <PUBCHEM_CONFORMER_DIVERSEORDER>  (1) 
1

>  <PUBCHEM_MMFF94_PARTIAL_CHARGES>  (1) 
20
1 -0.18
10 0.18
11 0.18
12 -0.15
13 -0.15
14 0.18
15 0.18
16 0.18
17 0.18
18 -0.15
19 0.18
2 -0.18
20 0.15
21 0.15
22 0.15
3 -0.18
4 -0.18
5 -0.18
6 -0.18
7 -0.18

>  <PUBCHEM_EFFECTIVE_ROTOR_COUNT>  (1) 
1

>  <PUBCHEM_PHARMACOPHORE_FEATURES>  (1) 
2
6 8 10 11 14 15 16 rings
6 9 12 13 17 18 19 rings

>  <PUBCHEM_HEAVY_ATOM_COUNT>  (1) 
19

>  <PUBCHEM_ATOM_DEF_STEREO_COUNT>  (1) 
0

>  <PUBCHEM_ATOM_UDEF_STEREO_COUNT>  (1) 
0

>  <PUBCHEM_BOND_DEF_STEREO_COUNT>  (1) 
0

>  <PUBCHEM_BOND_UDEF_STEREO_COUNT>  (1) 
0

>  <PUBCHEM_ISOTOPIC_ATOM_COUNT>  (1) 
0

>  <PUBCHEM_COMPONENT_COUNT>  (1) 
1

>  <PUBCHEM_CACTVS_TAUTO_COUNT>  (1) 
1

>  <PUBCHEM_CONFORMER_ID>  (1) 
000097C900000001

>  <PUBCHEM_MMFF94_ENERGY>  (1) 
57.5774

>  <PUBCHEM_FEATURE_SELFOVERLAP>  (1) 
10.149

>  <PUBCHEM_SHAPE_FINGERPRINT>  (1) 
10411042 1 18122348969831815402
10967382 1 18410578392426213370
11471102 20 18409733963048100768
11725454 13 17171200132100407509
11796584 16 14836134234256166436
12236239 1 17703793613139922427
12403259 415 17894346700616629445
12553582 1 18268995297840630966
13009979 54 17632581500357198170
13134695 92 18410008810700675132
13140716 1 18266458896751283098
13583140 156 16589684942161402272
13862211 1 18411135802136002090
14386348 63 17821736030638873707
14576447 43 18130210649072403654
14790565 3 18338536208879591364
15219456 202 18040151825205634285
15309172 13 18409454712384570579
15342168 16 18191876823315010917
16945 1 18410579483469154360
17357779 13 18261388906221627500
1813 80 17914069607289300158
18186145 218 18412260666053250268
19784866 34 18196936793311957632
19862831 5 17846780732340083613
200 152 18272367555768496801
204376 136 18265054815617288448
20600515 1 16153995767674508701
20645477 70 18335138670060928042
21033648 29 17749380490351113893
21065201 7 16370444445143426355
21267235 1 18341907276399539082
21639500 275 18339637940282006393
22112679 90 17346600763903543745
2255824 54 18342181050990790758
23175994 123 18187373107628369869
2334 1 17978514466616144210
23402539 116 18202562878040643676
23493267 7 17095235912977296896
23526113 38 17970050176142905134
23557571 272 16950565476019248773
23559900 14 16733257946566699258
23598291 2 18060414707982886901
25 1 18408602595178424396
2748010 2 18050578627637955722
335352 9 18410860984379225438
350125 39 17544767080265182728
474 4 18271527627643204944
5281201 14 17967816020281712685
633830 44 18200889438407084333
77492 1 17703792517917987161
8272917 22 18341623577078194427
9981440 41 16551404499789379768

>  <PUBCHEM_SHAPE_MULTIPOLES>  (1) 
404.1
9.3
2.57
1.28
4.14
0
-0.38
0
-0.93
-3.6
0.03
2.07
0
-0.01

>  <PUBCHEM_SHAPE_SELFOVERLAP>  (1) 
813.785

>  <PUBCHEM_SHAPE_VOLUME>  (1) 
228.9

>  <PUBCHEM_COORDINATE_TYPE>  (1) 
2
5
10

$$$$
