38854
     RDKit          3D

 15 16  0  0  0  0  0  0  0  0999 V2000
   -0.4289   -1.9861    0.4529 O   0  0  0  0  0  0  0  0  0  0  0  0
   -2.2935   -0.6526    0.0427 N   0  0  0  0  0  0  0  0  0  0  0  0
   -0.6144    1.4926   -0.1400 N   0  0  0  0  0  0  0  0  0  0  0  0
   -1.9955    1.6656   -0.1713 N   0  0  0  0  0  0  0  0  0  0  0  0
   -3.1810   -1.7180    0.1492 N   0  0  0  0  0  0  0  0  0  0  0  0
   -0.0970    0.3118   -0.0051 C   0  0  0  0  0  0  0  0  0  0  0  0
    1.3784    0.1801   -0.0224 C   0  0  0  0  0  0  0  0  0  0  0  0
   -0.9509   -0.9172    0.1747 C   0  0  0  0  0  0  0  0  0  0  0  0
   -2.7632    0.6265   -0.1016 C   0  0  0  0  0  0  0  0  0  0  0  0
    1.9637   -0.9926   -0.4926 C   0  0  0  0  0  0  0  0  0  0  0  0
    2.1724    1.2296    0.4320 C   0  0  0  0  0  0  0  0  0  0  0  0
   -4.2566    0.8383   -0.1718 C   0  0  0  0  0  0  0  0  0  0  0  0
    3.3530   -1.1166   -0.5085 C   0  0  0  0  0  0  0  0  0  0  0  0
    3.5617    1.1057    0.4161 C   0  0  0  0  0  0  0  0  0  0  0  0
    4.1519   -0.0675   -0.0542 C   0  0  0  0  0  0  0  0  0  0  0  0
  1  8  2  0
  2  5  1  0
  2  8  1  0
  2  9  1  0
  3  4  1  0
  3  6  2  0
  4  9  2  0
  6  7  1  0
  6  8  1  0
  7 10  2  0
  7 11  1  0
  9 12  1  0
 10 13  1  0
 11 14  2  0
 13 15  2  0
 14 15  1  0
M  END
>  <PUBCHEM_COMPOUND_CID>  (1) 
38854

>  <PUBCHEM_CONFORMER_RMSD>  (1) 
0.4

>  <PUBCHEM_CONFORMER_DIVERSEORDER>  (1) 
1
2
3

>  <PUBCHEM_MMFF94_PARTIAL_CHARGES>  (1) 
22
1 -0.57
10 -0.15
11 -0.15
12 0.06
13 -0.15
14 -0.15
15 -0.15
16 0.15
17 0.15
2 -0.11
21 0.15
22 0.15
23 0.15
24 0.36
25 0.36
3 -0.45
4 -0.45
5 -0.73
6 0.36
7 0.09
8 0.63
9 0.45

>  <PUBCHEM_EFFECTIVE_ROTOR_COUNT>  (1) 
1

>  <PUBCHEM_PHARMACOPHORE_FEATURES>  (1) 
5
1 1 acceptor
1 3 acceptor
1 5 donor
6 2 3 4 6 8 9 rings
6 7 10 11 13 14 15 rings

>  <PUBCHEM_HEAVY_ATOM_COUNT>  (1) 
15

>  <PUBCHEM_ATOM_DEF_STEREO_COUNT>  (1) 
0

>  <PUBCHEM_ATOM_UDEF_STEREO_COUNT>  (1) 
0

>  <PUBCHEM_BOND_DEF_STEREO_COUNT>  (1) 
0

>  <PUBCHEM_BOND_UDEF_STEREO_COUNT>  (1) 
0

>  <PUBCHEM_ISOTOPIC_ATOM_COUNT>  (1) 
0

>  <PUBCHEM_COMPONENT_COUNT>  (1) 
1

>  <PUBCHEM_CACTVS_TAUTO_COUNT>  (1) 
1

>  <PUBCHEM_CONFORMER_ID>  (1) 
000097C600000001

>  <PUBCHEM_MMFF94_ENERGY>  (1) 
53.3321

>  <PUBCHEM_FEATURE_SELFOVERLAP>  (1) 
25.371

>  <PUBCHEM_SHAPE_FINGERPRINT>  (1) 
10608611 8 18413103978924845856
10967382 1 18338516335326447106
11132069 177 18409444795394865217
11471102 20 18272649026482012060
12032990 46 18410016571474372835
12932764 1 17385995161662153172
13296908 3 18411983584944251238
13380535 76 18412543202235256902
14144814 61 18410292501948776960
14325111 11 18411418410255799336
15196674 1 18411138056101892710
15219456 202 18343582962469851360
15375358 24 18413103978935025032
15536298 74 18343301453064830550
15775835 57 18186801340101457938
16945 1 18267584593977114867
18175812 5 18341894103850964988
18186145 218 18409728422160597860
200 152 17418370285646911893
20201158 50 18272653420164964614
20279233 1 18342178856056410382
20510252 161 18341614836519197097
20528008 55 18413385436447153324
20645477 70 18060137592118660414
21501502 16 18411702118847586540
23402539 116 18410564111174664214
23402655 69 18201997694567383876
23557571 272 18270973443406603439
23559900 14 18412824664759517366
2748010 2 18410295830258378407
4028521 119 18335130952310594061
43471831 8 18186796950635027347
474 4 16300370503785512988
495365 180 17632278082677084320
5104073 3 18411699906907664602
53812653 166 18411416189884165114
57812782 119 18343862208295251404
6333449 129 18411135848610034911
69090 78 18272645740647414495
7364860 26 18194679268153899050
8809292 202 18409172108126925114
9709674 26 18412268367278304262

>  <PUBCHEM_SHAPE_MULTIPOLES>  (1) 
282.9
7.36
1.77
0.67
0.32
0.28
-0.01
-0.66
-0.29
0.46
0.1
-0.15
0.02
0.6

>  <PUBCHEM_SHAPE_SELFOVERLAP>  (1) 
608.07

>  <PUBCHEM_SHAPE_VOLUME>  (1) 
155

>  <PUBCHEM_COORDINATE_TYPE>  (1) 
2
5
10

$$$$
