38866
     RDKit          3D

 12 11  0  0  0  0  0  0  0  0999 V2000
    3.0938    2.5153    0.0563 O   0  0  0  0  0  0  0  0  0  0  0  0
   -0.5172   -1.8055   -0.4406 C   0  0  0  0  0  0  0  0  0  0  0  0
    0.9027   -1.7429   -1.0092 C   0  0  0  0  0  0  0  0  0  0  0  0
   -2.1395    0.0193    0.3076 C   0  0  0  0  0  0  0  0  0  0  0  0
   -1.1923   -0.4647   -0.5191 C   0  0  0  0  0  0  0  0  0  0  0  0
   -2.7496    1.3962    0.1876 C   0  0  0  0  0  0  0  0  0  0  0  0
    1.7968   -0.8301   -0.1987 C   0  0  0  0  0  0  0  0  0  0  0  0
   -2.6354   -0.8073    1.4645 C   0  0  0  0  0  0  0  0  0  0  0  0
   -3.9836    1.4043   -0.7025 C   0  0  0  0  0  0  0  0  0  0  0  0
    2.4858   -1.4916    0.9675 C   0  0  0  0  0  0  0  0  0  0  0  0
    2.0206    0.4710   -0.4546 C   0  0  0  0  0  0  0  0  0  0  0  0
    2.9178    1.3360    0.3412 C   0  0  0  0  0  0  0  0  0  0  0  0
  1 12  2  0
  2  3  1  0
  2  5  1  0
  3  7  1  0
  4  5  2  0
  4  6  1  0
  4  8  1  0
  6  9  1  0
  7 10  1  0
  7 11  2  0
 11 12  1  0
M  END
>  <PUBCHEM_COMPOUND_CID>  (1) 
38866

>  <PUBCHEM_CONFORMER_RMSD>  (1) 
0.6

>  <PUBCHEM_CONFORMER_DIVERSEORDER>  (1) 
16
79
72
8
57
74
4
15
96
26
23
3
55
122
120
33
100
71
64
44
22
90
51
78
27
35
93
97
40
117
21
115
47
29
112
83
106
12
31
38
82
34
126
10
20
1
36
62
128
41
85
87
42
118
30
25
109
2
130
63
6
66
89
75
50
58
98
127
24
95
124
68
28
86
11
111
125
37
113
92
48
19
70
116
80
103
84
94
107
17
105
121
5
39
91
67
81
123
129
54
13
102
46
69
7
110
119
14
101
104
88
99
77
76
32
53
108
56
114
9
60
73
18
43
61
65
59
45
52
49

>  <PUBCHEM_MMFF94_PARTIAL_CHARGES>  (1) 
14
1 -0.57
10 0.14
11 -0.14
12 0.5
17 0.15
2 0.14
29 0.15
3 0.14
30 0.06
4 -0.28
5 -0.29
6 0.14
7 -0.28
8 0.14

>  <PUBCHEM_EFFECTIVE_ROTOR_COUNT>  (1) 
5

>  <PUBCHEM_PHARMACOPHORE_FEATURES>  (1) 
5
1 1 acceptor
1 10 hydrophobe
1 8 hydrophobe
1 9 hydrophobe
4 2 3 5 7 hydrophobe

>  <PUBCHEM_HEAVY_ATOM_COUNT>  (1) 
12

>  <PUBCHEM_ATOM_DEF_STEREO_COUNT>  (1) 
0

>  <PUBCHEM_ATOM_UDEF_STEREO_COUNT>  (1) 
0

>  <PUBCHEM_BOND_DEF_STEREO_COUNT>  (1) 
0

>  <PUBCHEM_BOND_UDEF_STEREO_COUNT>  (1) 
2

>  <PUBCHEM_ISOTOPIC_ATOM_COUNT>  (1) 
0

>  <PUBCHEM_COMPONENT_COUNT>  (1) 
1

>  <PUBCHEM_CACTVS_TAUTO_COUNT>  (1) 
1

>  <PUBCHEM_CONFORMER_ID>  (1) 
000097D200000010

>  <PUBCHEM_MMFF94_ENERGY>  (1) 
14.8871

>  <PUBCHEM_FEATURE_SELFOVERLAP>  (1) 
25.38

>  <PUBCHEM_SHAPE_FINGERPRINT>  (1) 
10149128 76 18413387635475592797
12162725 195 18270397162249072577
124424 183 18043532707180807130
12932764 1 18261973872272398723
13618510 140 18342741814331189104
13897977 13 18264214779974960337
13922767 16 18264202509037046486
14026960 21 18410018770803551033
14123255 52 18341047535943505884
14250199 8 17986962859991316077
14350558 41 9583513222442625930
14648413 74 18340496560174250590
15775835 57 18270967958833443680
17834072 32 18268148845522801140
18186145 218 17845389858900158188
20233049 118 18264783060351905806
20681677 76 18335140908002367051
21524375 3 18129664248002506766
21639500 275 18270386201461105925
22096605 113 18342172229132869357
22169311 14 17894912871558165419
230 275 17846219899721337930
23532345 11 16878237432338607467
305870 269 18335979861281372386
6333272 397 18341047433001129079
8050 44 18410575063563146213
94968 8 8646187277703895733

>  <PUBCHEM_SHAPE_MULTIPOLES>  (1) 
241.09
6.27
2.35
1.08
2.6
0.77
-0.2
3.75
-0.56
-1.48
0.11
0.33
-0.38
0.48

>  <PUBCHEM_SHAPE_SELFOVERLAP>  (1) 
450.743

>  <PUBCHEM_SHAPE_VOLUME>  (1) 
151.1

>  <PUBCHEM_COORDINATE_TYPE>  (1) 
2
5
10

$$$$
