38863
     RDKit          3D

 28 31  0  0  1  0  0  0  0  0999 V2000
    2.9902    1.1741   -0.6602 O   0  0  0  0  0  0  0  0  0  0  0  0
    2.2580    3.7153   -0.3821 O   0  0  0  0  0  0  0  0  0  0  0  0
    3.4450   -0.7845    0.6161 O   0  0  0  0  0  0  0  0  0  0  0  0
    4.0066   -3.3636    0.2422 O   0  0  0  0  0  0  0  0  0  0  0  0
   -3.0358    0.1153    0.0898 N   0  0  0  0  0  0  0  0  0  0  0  0
   -1.6498   -0.3650    0.3287 C   0  0  0  0  0  0  0  0  0  0  0  0
   -0.5945    0.7257    0.1154 C   0  0  0  0  0  0  0  0  0  0  0  0
   -1.3056   -1.5731   -0.5718 C   0  0  0  0  0  0  0  0  0  0  0  0
   -3.2748    1.3523    0.8504 C   0  0  0  0  0  0  0  0  0  0  0  0
   -0.9647    2.0842    0.1575 C   0  0  0  0  0  0  0  0  0  0  0  0
   -2.4072    2.4816    0.3025 C   0  0  0  0  0  0  0  0  0  0  0  0
    0.7635    0.3561   -0.0598 C   0  0  0  0  0  0  0  0  0  0  0  0
   -4.0424   -0.8815    0.4705 C   0  0  0  0  0  0  0  0  0  0  0  0
    0.1190   -2.0334   -0.3578 C   0  0  0  0  0  0  0  0  0  0  0  0
    1.1281   -1.0786   -0.1070 C   0  0  0  0  0  0  0  0  0  0  0  0
   -5.4721   -0.4377    0.1161 C   0  0  0  0  0  0  0  0  0  0  0  0
    1.7122    1.3827   -0.2166 C   0  0  0  0  0  0  0  0  0  0  0  0
    0.0067    3.0766   -0.0042 C   0  0  0  0  0  0  0  0  0  0  0  0
    1.3387    2.7268   -0.1871 C   0  0  0  0  0  0  0  0  0  0  0  0
    2.4389   -1.5490    0.0896 C   0  0  0  0  0  0  0  0  0  0  0  0
    0.4311   -3.3985   -0.4510 C   0  0  0  0  0  0  0  0  0  0  0  0
   -5.5691   -0.1593   -1.3863 C   0  0  0  0  0  0  0  0  0  0  0  0
   -6.5251   -1.4742    0.5162 C   0  0  0  0  0  0  0  0  0  0  0  0
    2.7403   -2.9118    0.0125 C   0  0  0  0  0  0  0  0  0  0  0  0
    1.7386   -3.8351   -0.2634 C   0  0  0  0  0  0  0  0  0  0  0  0
    3.2023    1.2511   -2.0655 C   0  0  0  0  0  0  0  0  0  0  0  0
    2.9205    4.2193    0.7750 C   0  0  0  0  0  0  0  0  0  0  0  0
    3.6015   -0.8158    2.0303 C   0  0  0  0  0  0  0  0  0  0  0  0
  1 17  1  0
  1 26  1  0
  2 19  1  0
  2 27  1  0
  3 20  1  0
  3 28  1  0
  4 24  1  0
  5  6  1  0
  5  9  1  0
  5 13  1  0
  6  7  1  0
  6  8  1  0
  7 10  2  0
  7 12  1  0
  8 14  1  0
  9 11  1  0
 10 11  1  0
 10 18  1  0
 12 15  1  0
 12 17  2  0
 13 16  1  0
 14 15  2  0
 14 21  1  0
 15 20  1  0
 16 22  1  0
 16 23  1  0
 17 19  1  0
 18 19  2  0
 20 24  2  0
 21 25  2  0
 24 25  1  0
M  END
>  <PUBCHEM_COMPOUND_CID>  (1) 
38863

>  <PUBCHEM_CONFORMER_RMSD>  (1) 
0.8

>  <PUBCHEM_CONFORMER_DIVERSEORDER>  (1) 
1
2

>  <PUBCHEM_MMFF94_PARTIAL_CHARGES>  (1) 
27
1 -0.36
10 -0.14
11 0.14
13 0.27
14 -0.14
17 0.08
18 -0.15
19 0.08
2 -0.36
20 0.08
21 -0.15
24 0.08
25 -0.15
26 0.28
27 0.28
28 0.28
3 -0.36
39 0.15
4 -0.53
40 0.15
47 0.15
5 -0.81
51 0.45
6 0.41
7 -0.14
8 0.14
9 0.27

>  <PUBCHEM_EFFECTIVE_ROTOR_COUNT>  (1) 
5.8

>  <PUBCHEM_PHARMACOPHORE_FEATURES>  (1) 
10
1 1 acceptor
1 2 acceptor
1 3 acceptor
1 4 donor
1 5 cation
3 16 22 23 hydrophobe
6 14 15 20 21 24 25 rings
6 5 6 7 9 10 11 rings
6 6 7 8 12 14 15 rings
6 7 10 12 17 18 19 rings

>  <PUBCHEM_HEAVY_ATOM_COUNT>  (1) 
28

>  <PUBCHEM_ATOM_DEF_STEREO_COUNT>  (1) 
1

>  <PUBCHEM_ATOM_UDEF_STEREO_COUNT>  (1) 
0

>  <PUBCHEM_BOND_DEF_STEREO_COUNT>  (1) 
0

>  <PUBCHEM_BOND_UDEF_STEREO_COUNT>  (1) 
0

>  <PUBCHEM_ISOTOPIC_ATOM_COUNT>  (1) 
0

>  <PUBCHEM_COMPONENT_COUNT>  (1) 
1

>  <PUBCHEM_CACTVS_TAUTO_COUNT>  (1) 
3

>  <PUBCHEM_CONFORMER_ID>  (1) 
000097CF00000001

>  <PUBCHEM_MMFF94_ENERGY>  (1) 
121.7366

>  <PUBCHEM_FEATURE_SELFOVERLAP>  (1) 
50.876

>  <PUBCHEM_SHAPE_FINGERPRINT>  (1) 
10074138 170 17190911257419842288
10411042 1 18266743476230498639
10693767 8 18130797749743332759
10967382 1 18411141341810052382
1100329 8 18267864067947529914
11578080 2 17487027022107684521
12553582 1 18266193746433788667
12623949 98 17488465165525620798
12730499 353 18264219187149411387
13009979 54 17916315930839990651
13140716 1 18123466339521463122
13782708 43 17821728352219186731
138480 1 18339082592473491985
14117953 113 18127692622323049191
14178342 30 18199466558802661433
14790565 3 17906177609220142861
14866123 147 17835519702285058416
14955137 171 18408886239857762626
15927050 60 18053385688823291814
16728300 4 17825073019082205144
17492 89 18410577245696825867
18681886 176 18413107260469536866
19591789 44 17834406996064146091
20028762 73 18130507538971849215
20645477 70 18333732433818332051
2334 1 14665834636141689108
23419403 2 17751611373652780436
23559900 14 18337665318228281395
2748010 2 16751286385076338988
3178227 256 18193013701005008704
3380486 145 17977679605940566049
350125 39 18410574019596118208
3886686 26 16315240964369726858
484985 159 14933463866930770626
5104073 3 18127686024673417267
6669772 16 18197785607724852028

>  <PUBCHEM_SHAPE_MULTIPOLES>  (1) 
547.77
9.38
5.09
1.12
16.2
0.83
0.08
-2.92
-0.55
-6.01
-0.07
-0.64
0.13
-0.52

>  <PUBCHEM_SHAPE_SELFOVERLAP>  (1) 
1188.574

>  <PUBCHEM_SHAPE_VOLUME>  (1) 
300.6

>  <PUBCHEM_COORDINATE_TYPE>  (1) 
2
5
10

$$$$
