38874
     RDKit          3D

 21 22  0  0  1  0  0  0  0  0999 V2000
   -0.4299   -2.8721    0.8025 O   0  0  0  0  0  0  0  0  0  0  0  0
    1.2334   -0.6293    0.4829 O   0  0  0  0  0  0  0  0  0  0  0  0
   -2.1414    0.2784   -0.1249 N   0  0  0  0  0  0  0  0  0  0  0  0
   -3.0413    1.1739    0.6423 C   0  0  0  0  0  0  0  0  0  0  0  0
   -3.3114   -0.1344   -0.9381 C   0  0  0  0  0  0  0  0  0  0  0  0
   -3.9782    1.1995   -0.5737 C   0  0  0  0  0  0  0  0  0  0  0  0
   -1.6737   -0.8230    0.7071 C   0  0  0  0  0  0  0  0  0  0  0  0
   -3.6301    0.5537    1.8907 C   0  0  0  0  0  0  0  0  0  0  0  0
   -2.3601    2.4803    0.9986 C   0  0  0  0  0  0  0  0  0  0  0  0
   -2.9402   -0.3300   -2.3946 C   0  0  0  0  0  0  0  0  0  0  0  0
   -4.0277   -1.3663   -0.4289 C   0  0  0  0  0  0  0  0  0  0  0  0
   -0.7889   -1.7987   -0.0723 C   0  0  0  0  0  0  0  0  0  0  0  0
    0.4887   -1.1578   -0.6100 C   0  0  0  0  0  0  0  0  0  0  0  0
    2.4252   -0.0266    0.1809 C   0  0  0  0  0  0  0  0  0  0  0  0
    2.4606    1.3372   -0.0972 C   0  0  0  0  0  0  0  0  0  0  0  0
    3.5950   -0.7813    0.1533 C   0  0  0  0  0  0  0  0  0  0  0  0
    3.6748    1.9508   -0.4056 C   0  0  0  0  0  0  0  0  0  0  0  0
    4.8091   -0.1675   -0.1549 C   0  0  0  0  0  0  0  0  0  0  0  0
    1.2144    2.1594   -0.0722 C   0  0  0  0  0  0  0  0  0  0  0  0
    3.5727   -2.2449    0.4484 C   0  0  0  0  0  0  0  0  0  0  0  0
    4.8489    1.1986   -0.4344 C   0  0  0  0  0  0  0  0  0  0  0  0
  1 12  1  0
  2 13  1  0
  2 14  1  0
  3  4  1  0
  3  5  1  0
  3  7  1  0
  4  6  1  0
  4  8  1  0
  4  9  1  0
  5  6  1  0
  5 10  1  0
  5 11  1  0
  7 12  1  0
 12 13  1  0
 14 15  2  0
 14 16  1  0
 15 17  1  0
 15 19  1  0
 16 18  2  0
 16 20  1  0
 17 21  2  0
 18 21  1  0
M  END
>  <PUBCHEM_COMPOUND_CID>  (1) 
38874

>  <PUBCHEM_CONFORMER_RMSD>  (1) 
0.8

>  <PUBCHEM_CONFORMER_DIVERSEORDER>  (1) 
1
6
8
7
3
9
13
11
12
10
2
5
4

>  <PUBCHEM_MMFF94_PARTIAL_CHARGES>  (1) 
20
1 -0.68
12 0.28
13 0.28
14 0.08
15 -0.14
16 -0.14
17 -0.15
18 -0.15
19 0.14
2 -0.36
20 0.14
21 -0.15
3 -0.69
4 0.21
41 0.4
42 0.15
43 0.15
5 0.21
50 0.15
7 0.27

>  <PUBCHEM_EFFECTIVE_ROTOR_COUNT>  (1) 
5.8

>  <PUBCHEM_PHARMACOPHORE_FEATURES>  (1) 
8
1 1 acceptor
1 1 donor
1 2 acceptor
1 3 cation
3 4 8 9 hydrophobe
3 5 10 11 hydrophobe
4 3 4 5 6 rings
6 14 15 16 17 18 21 rings

>  <PUBCHEM_HEAVY_ATOM_COUNT>  (1) 
21

>  <PUBCHEM_ATOM_DEF_STEREO_COUNT>  (1) 
0

>  <PUBCHEM_ATOM_UDEF_STEREO_COUNT>  (1) 
1

>  <PUBCHEM_BOND_DEF_STEREO_COUNT>  (1) 
0

>  <PUBCHEM_BOND_UDEF_STEREO_COUNT>  (1) 
0

>  <PUBCHEM_ISOTOPIC_ATOM_COUNT>  (1) 
0

>  <PUBCHEM_COMPONENT_COUNT>  (1) 
1

>  <PUBCHEM_CACTVS_TAUTO_COUNT>  (1) 
1

>  <PUBCHEM_CONFORMER_ID>  (1) 
000097DA00000001

>  <PUBCHEM_MMFF94_ENERGY>  (1) 
92.1842

>  <PUBCHEM_FEATURE_SELFOVERLAP>  (1) 
40.598

>  <PUBCHEM_SHAPE_FINGERPRINT>  (1) 
10062212 137 18060413595333253295
10498660 4 18411414012272923093
11089746 13 17917423259946516064
12107183 9 17835804088721809026
12236239 1 18131631175472637085
12507557 5 18408317791691912073
12596599 1 18059582355936876733
12633257 1 18261384530061324714
12788726 201 17773897328024717976
13224815 77 18202566180685903912
13583140 156 16950560008288484672
14251751 93 18201157646230122821
15183329 4 18335991896344206206
15196674 1 18410292514586031700
15420108 30 16329084911311434802
15442244 35 18339079285791623442
17349148 13 18342167882430910298
17492 89 18342738498717183447
18186145 218 18409168783780104886
18219364 16 18113054930774033349
192875 21 18270946990755677241
200 152 18342449374930264791
20300324 65 17989485255677049757
20645477 70 18408602548641179166
20775438 99 16620349372246183287
21033648 29 17604134987078770757
21864079 5 18339367361595147345
23227448 37 18341615872176079293
23402539 116 18343579633843985700
23559900 14 18200866387660985496
350125 39 18191032398316079755
4409770 3 15387784910227291417
474 4 18338516339801015899
4921388 177 15554450729790366719
5104073 3 18408603682327501082
633830 44 18340209579023138374
9709674 26 18342747329485792414
9981440 41 17694477640165325776

>  <PUBCHEM_SHAPE_MULTIPOLES>  (1) 
415.45
9.88
2.59
1.31
4.94
0.14
0.3
-1.73
0.88
0.53
-0.51
-1.75
0.01
-1.18

>  <PUBCHEM_SHAPE_SELFOVERLAP>  (1) 
861.278

>  <PUBCHEM_SHAPE_VOLUME>  (1) 
243.8

>  <PUBCHEM_COORDINATE_TYPE>  (1) 
2
5
10

$$$$
