38883
     RDKit          3D

  8  7  0  0  1  0  0  0  0  0999 V2000
    1.2230   -1.4238    0.1812 O   0  0  0  0  0  0  0  0  0  0  0  0
    3.2988    0.2660    0.4722 O   0  0  0  0  0  0  0  0  0  0  0  0
   -1.3989   -0.2114   -0.2316 C   0  0  0  0  0  0  0  0  0  0  0  0
   -0.1040    0.5778   -0.0149 C   0  0  0  0  0  0  0  0  0  0  0  0
   -2.6121    0.5589    0.2901 C   0  0  0  0  0  0  0  0  0  0  0  0
    1.1246   -0.1888   -0.5026 C   0  0  0  0  0  0  0  0  0  0  0  0
   -3.9034   -0.2073    0.0511 C   0  0  0  0  0  0  0  0  0  0  0  0
    2.3720    0.6286   -0.2455 C   0  0  0  0  0  0  0  0  0  0  0  0
  1  6  1  0
  2  8  2  0
  3  4  1  0
  3  5  1  0
  4  6  1  0
  5  7  1  0
  6  8  1  0
M  END
>  <PUBCHEM_COMPOUND_CID>  (1) 
38883

>  <PUBCHEM_CONFORMER_RMSD>  (1) 
0.6

>  <PUBCHEM_CONFORMER_DIVERSEORDER>  (1) 
3
29
27
8
25
5
33
31
35
17
32
4
28
14
30
2
34
19
24
16
26
20
18
21
6
9
7
1
10
23
15
11
12
13
22

>  <PUBCHEM_MMFF94_PARTIAL_CHARGES>  (1) 
6
1 -0.68
19 0.06
2 -0.57
20 0.4
6 0.34
8 0.45

>  <PUBCHEM_EFFECTIVE_ROTOR_COUNT>  (1) 
4

>  <PUBCHEM_PHARMACOPHORE_FEATURES>  (1) 
4
1 1 acceptor
1 1 donor
1 2 acceptor
1 7 hydrophobe

>  <PUBCHEM_HEAVY_ATOM_COUNT>  (1) 
8

>  <PUBCHEM_ATOM_DEF_STEREO_COUNT>  (1) 
0

>  <PUBCHEM_ATOM_UDEF_STEREO_COUNT>  (1) 
1

>  <PUBCHEM_BOND_DEF_STEREO_COUNT>  (1) 
0

>  <PUBCHEM_BOND_UDEF_STEREO_COUNT>  (1) 
0

>  <PUBCHEM_ISOTOPIC_ATOM_COUNT>  (1) 
0

>  <PUBCHEM_COMPONENT_COUNT>  (1) 
1

>  <PUBCHEM_CACTVS_TAUTO_COUNT>  (1) 
4

>  <PUBCHEM_CONFORMER_ID>  (1) 
000097E300000003

>  <PUBCHEM_MMFF94_ENERGY>  (1) 
-1.1575

>  <PUBCHEM_FEATURE_SELFOVERLAP>  (1) 
20.304

>  <PUBCHEM_SHAPE_FINGERPRINT>  (1) 
10219947 1 17748547056331677164
11062470 55 17022620888097797389
12932764 1 13542178334557723173
14325111 11 18413392008110911709
14390081 3 17989207036085238849
170605 34 18202847664479253150
21293036 1 11024106564253016464
29004967 10 18040160599570709845
3248919 1 17313681377346677037
5460574 1 8142085351533600405

>  <PUBCHEM_SHAPE_MULTIPOLES>  (1) 
152.9
5.92
0.95
0.68
2.57
0.2
-0.02
-0.38
0.61
-0.24
0.04
-0.07
-0.01
-0.09

>  <PUBCHEM_SHAPE_SELFOVERLAP>  (1) 
273.622

>  <PUBCHEM_SHAPE_VOLUME>  (1) 
98.9

>  <PUBCHEM_COORDINATE_TYPE>  (1) 
2
5
10

$$$$
