38901
     RDKit          3D

 16 17  0  0  1  0  0  0  0  0999 V2000
    3.4836   -0.6212    0.6746 O   0  0  0  0  0  0  0  0  0  0  0  0
   -2.1758    0.3597    0.5078 N   0  0  0  0  0  0  0  0  0  0  0  0
   -1.2694    0.0301   -0.5985 C   0  0  0  0  0  0  0  0  0  0  0  0
   -1.2879   -1.4795   -0.8892 C   0  0  0  0  0  0  0  0  0  0  0  0
   -0.4801   -2.2611    0.1413 C   0  0  0  0  0  0  0  0  0  0  0  0
    0.1287    0.5409   -0.3089 C   0  0  0  0  0  0  0  0  0  0  0  0
    0.9828   -1.8256    0.1117 C   0  0  0  0  0  0  0  0  0  0  0  0
    1.1713   -0.3295    0.0640 C   0  0  0  0  0  0  0  0  0  0  0  0
   -3.5180   -0.1201    0.2274 C   0  0  0  0  0  0  0  0  0  0  0  0
    0.3822    1.9217   -0.3827 C   0  0  0  0  0  0  0  0  0  0  0  0
    2.4441    0.1968    0.3368 C   0  0  0  0  0  0  0  0  0  0  0  0
    1.6492    2.4311   -0.1002 C   0  0  0  0  0  0  0  0  0  0  0  0
    2.6799    1.5689    0.2593 C   0  0  0  0  0  0  0  0  0  0  0  0
   -4.0464    0.5084   -1.0590 C   0  0  0  0  0  0  0  0  0  0  0  0
   -4.4288    0.2003    1.4082 C   0  0  0  0  0  0  0  0  0  0  0  0
    4.2846   -1.1210   -0.3926 C   0  0  0  0  0  0  0  0  0  0  0  0
  1 11  1  0
  1 16  1  0
  2  3  1  0
  2  9  1  0
  3  4  1  0
  3  6  1  0
  4  5  1  0
  5  7  1  0
  6  8  2  0
  6 10  1  0
  7  8  1  0
  8 11  1  0
  9 14  1  0
  9 15  1  0
 10 12  2  0
 11 13  2  0
 12 13  1  0
M  END
>  <PUBCHEM_COMPOUND_CID>  (1) 
38901

>  <PUBCHEM_CONFORMER_RMSD>  (1) 
0.6

>  <PUBCHEM_CONFORMER_DIVERSEORDER>  (1) 
1
5
6
2
4
3

>  <PUBCHEM_MMFF94_PARTIAL_CHARGES>  (1) 
16
1 -0.36
10 -0.15
11 0.08
12 -0.15
13 -0.15
16 0.28
2 -0.9
24 0.36
26 0.15
27 0.15
28 0.15
3 0.41
6 -0.14
7 0.14
8 -0.14
9 0.27

>  <PUBCHEM_EFFECTIVE_ROTOR_COUNT>  (1) 
3.8

>  <PUBCHEM_PHARMACOPHORE_FEATURES>  (1) 
6
1 1 acceptor
1 2 cation
1 2 donor
3 9 14 15 hydrophobe
6 3 4 5 6 7 8 rings
6 6 8 10 11 12 13 rings

>  <PUBCHEM_HEAVY_ATOM_COUNT>  (1) 
16

>  <PUBCHEM_ATOM_DEF_STEREO_COUNT>  (1) 
0

>  <PUBCHEM_ATOM_UDEF_STEREO_COUNT>  (1) 
1

>  <PUBCHEM_BOND_DEF_STEREO_COUNT>  (1) 
0

>  <PUBCHEM_BOND_UDEF_STEREO_COUNT>  (1) 
0

>  <PUBCHEM_ISOTOPIC_ATOM_COUNT>  (1) 
0

>  <PUBCHEM_COMPONENT_COUNT>  (1) 
1

>  <PUBCHEM_CACTVS_TAUTO_COUNT>  (1) 
1

>  <PUBCHEM_CONFORMER_ID>  (1) 
000097F500000001

>  <PUBCHEM_MMFF94_ENERGY>  (1) 
43.4086

>  <PUBCHEM_FEATURE_SELFOVERLAP>  (1) 
30.466

>  <PUBCHEM_SHAPE_FINGERPRINT>  (1) 
10219947 1 18409165506593301517
10967382 1 18410287017307207844
10980938 120 18408601491466924269
11132069 177 18340473534906966970
11471102 20 18409440393042759508
11471102 22 18261684700829916209
11680986 33 18265616661742866378
12011746 2 18335701594133594079
12032990 46 18336267847164746638
12236239 1 17775279461616742573
12251169 10 18412259562520981240
12390115 104 17547022178846567944
12553582 1 18337379458137706938
12633257 1 18116742706080496611
13140716 1 18338230587179245066
13221675 6 18409163299048767598
13380535 21 18118690052457464212
13862211 1 18338228268029150410
14178342 30 17906438180458804672
14251717 144 18411410705290127391
14790565 3 18337966601478720724
14993402 34 18411416193926041742
15309172 13 18410855460624176895
15375462 189 18041268903423945570
15442244 35 18340484568609424038
15536298 74 18272085050031341956
15653759 3 17313101960578476033
15775835 57 18270123546904452985
15848702 151 17774443767701379318
16945 1 18337942429117305550
17844478 74 17676482848002006445
18186145 218 18342178894647929517
18511873 20 18273496783947965610
18522853 295 18410018732096026566
19591789 44 18195529182062641894
200 152 18201144508631702037
20511035 2 18127408084491174558
20645477 70 18335690655147140925
20671657 1 18265903634067174052
21029758 27 18187652375287159748
21501502 16 18195523929190700566
21524375 3 18272087249139123639
21637258 2 15647042772934431010
22094290 62 18411698828591316992
23184049 59 18411138039017144521
2334 1 18121493824203753134
23402539 116 15339112408108534145
23493267 7 17168696415132660349
23557571 272 16950564342717510431
23558518 356 17756421926303567458
23559900 14 18270406122337375068
2748010 2 18264763449362517710
5104073 3 18339922726731211715
53812653 11 18410009936050561606
57426455 70 18408888412372430616
633830 44 18130801065805808797
7164475 11 17912913174185741175
7364860 26 18271241754994431776
74978 22 18339359798352735990
77492 1 17846492656220139677
7832392 63 18269273641648629900
81228 2 17611178656340611803
9981440 41 17192888179241791184
9999458 23 18259706709107221943

>  <PUBCHEM_SHAPE_MULTIPOLES>  (1) 
318.42
7.12
2.23
0.96
3.26
0.14
-0.05
0.05
-1.08
-1.39
0.15
0.83
0
0

>  <PUBCHEM_SHAPE_SELFOVERLAP>  (1) 
658.826

>  <PUBCHEM_SHAPE_VOLUME>  (1) 
182.6

>  <PUBCHEM_COORDINATE_TYPE>  (1) 
2
5
10

$$$$
