38912
     RDKit          3D

 31 35  0  0  1  0  0  0  0  0999 V2000
    7.0362    1.4153   -1.2981 O   0  0  0  0  0  0  0  0  0  0  0  0
   -2.1158   -1.0194   -0.1954 O   0  0  0  0  0  0  0  0  0  0  0  0
   -1.8941    1.3007   -0.2346 O   0  0  0  0  0  0  0  0  0  0  0  0
   -8.7806    1.4100    0.7527 O   0  0  0  0  0  0  0  0  0  0  0  0
   -8.8983   -0.4984   -0.3343 O   0  0  0  0  0  0  0  0  0  0  0  0
   -8.2378    0.4402    0.1716 N   0  0  0  0  0  0  0  0  0  0  0  0
    4.3933    0.5150    0.8930 C   0  0  0  0  0  0  0  0  0  0  0  0
    4.7731    1.2846   -0.3997 C   0  0  0  0  0  0  0  0  0  0  0  0
    4.2971   -1.0335    0.7329 C   0  0  0  0  0  0  0  0  0  0  0  0
    3.5618   -1.4804   -0.5500 C   0  0  0  0  0  0  0  0  0  0  0  0
    4.1868    0.7032   -1.6886 C   0  0  0  0  0  0  0  0  0  0  0  0
    5.5229    0.8902    1.8727 C   0  0  0  0  0  0  0  0  0  0  0  0
    4.2456   -0.8161   -1.7548 C   0  0  0  0  0  0  0  0  0  0  0  0
    3.6400   -1.7210    1.9400 C   0  0  0  0  0  0  0  0  0  0  0  0
    6.2949    1.2119   -0.3442 C   0  0  0  0  0  0  0  0  0  0  0  0
    6.8004    0.8775    1.0375 C   0  0  0  0  0  0  0  0  0  0  0  0
    4.3923    2.7743   -0.3100 C   0  0  0  0  0  0  0  0  0  0  0  0
    2.0479   -1.3258   -0.4507 C   0  0  0  0  0  0  0  0  0  0  0  0
    2.1757   -1.3287    2.1048 C   0  0  0  0  0  0  0  0  0  0  0  0
    1.4083   -1.2877    0.8068 C   0  0  0  0  0  0  0  0  0  0  0  0
    1.2450   -1.3108   -1.6051 C   0  0  0  0  0  0  0  0  0  0  0  0
    0.0088   -1.1725    0.8775 C   0  0  0  0  0  0  0  0  0  0  0  0
   -0.1449   -1.2048   -1.5212 C   0  0  0  0  0  0  0  0  0  0  0  0
   -0.7631   -1.1292   -0.2800 C   0  0  0  0  0  0  0  0  0  0  0  0
   -2.5871    0.2956   -0.1867 C   0  0  0  0  0  0  0  0  0  0  0  0
   -4.0685    0.3334   -0.0927 C   0  0  0  0  0  0  0  0  0  0  0  0
   -4.6692    1.3986    0.5465 C   0  0  0  0  0  0  0  0  0  0  0  0
   -4.7984   -0.6977   -0.6476 C   0  0  0  0  0  0  0  0  0  0  0  0
   -6.0608    1.4340    0.6348 C   0  0  0  0  0  0  0  0  0  0  0  0
   -6.1901   -0.6623   -0.5592 C   0  0  0  0  0  0  0  0  0  0  0  0
   -6.8212    0.4036    0.0820 C   0  0  0  0  0  0  0  0  0  0  0  0
  1 15  2  0
  2 24  1  0
  2 25  1  0
  3 25  2  0
  4  6  1  0
  5  6  2  0
  6 31  1  0
  7  8  1  0
  7  9  1  0
  7 12  1  0
  8 11  1  0
  8 15  1  0
  8 17  1  0
  9 10  1  0
  9 14  1  0
 10 13  1  0
 10 18  1  0
 11 13  1  0
 12 16  1  0
 14 19  1  0
 15 16  1  0
 18 20  2  0
 18 21  1  0
 19 20  1  0
 20 22  1  0
 21 23  2  0
 22 24  2  0
 23 24  1  0
 25 26  1  0
 26 27  2  0
 26 28  1  0
 27 29  1  0
 28 30  2  0
 29 31  2  0
 30 31  1  0
M  CHG  2   4  -1   6   1
M  END
>  <PUBCHEM_COMPOUND_CID>  (1) 
38912

>  <PUBCHEM_CONFORMER_RMSD>  (1) 
1

>  <PUBCHEM_CONFORMER_DIVERSEORDER>  (1) 
1
567
585
55
374
111
248
225
184
154
183
256
189
8
563
402
74
120
232
576
21
490
115
447
40
513
547
18
252
22
398
500
263
15
600
516
395
116
160
6
536
291
247
344
186
72
45
391
16
70
404
548
67
143
257
413
388
107
473
190
109
297
284
3
556
81
549
382
88
93
17
555
105
226
2
130
266
359
11
393
197
246
325
355
150
104
265
152
444
131
29
220
10
611
350
595
79
36
173
78
165
51
175
56
141
203
52
586
390
253
65
28
170
24
275
122
415
44
201
89
331
7
84
264
535
228
147
377
98
82
102
64
573
132
301
42
128
254
295
501
235
166
521
568
139
138
57
240
211
427
101
34
95
53
110
208
4
285
54
216
206
161
243
245
118
296
559
310
196
66
97
384
242
209
167
91
176
569
379

>  <PUBCHEM_MMFF94_PARTIAL_CHARGES>  (1) 
31
1 -0.57
10 0.14
15 0.45
16 0.06
18 -0.14
19 0.14
2 -0.23
20 -0.14
21 -0.15
22 -0.15
23 -0.15
24 0.08
25 0.63
26 0.09
27 -0.15
28 -0.15
29 -0.15
3 -0.57
30 -0.15
31 0.13
4 -0.52
5 -0.52
50 0.15
51 0.15
52 0.15
53 0.15
54 0.15
55 0.15
56 0.15
6 0.91
8 0.06

>  <PUBCHEM_EFFECTIVE_ROTOR_COUNT>  (1) 
5.2

>  <PUBCHEM_PHARMACOPHORE_FEATURES>  (1) 
10
1 1 acceptor
1 3 acceptor
1 4 acceptor
1 4 anion
1 5 acceptor
5 7 8 12 15 16 rings
6 18 20 21 22 23 24 rings
6 26 27 28 29 30 31 rings
6 7 8 9 10 11 13 rings
6 9 10 14 18 19 20 rings

>  <PUBCHEM_HEAVY_ATOM_COUNT>  (1) 
31

>  <PUBCHEM_ATOM_DEF_STEREO_COUNT>  (1) 
0

>  <PUBCHEM_ATOM_UDEF_STEREO_COUNT>  (1) 
4

>  <PUBCHEM_BOND_DEF_STEREO_COUNT>  (1) 
0

>  <PUBCHEM_BOND_UDEF_STEREO_COUNT>  (1) 
0

>  <PUBCHEM_ISOTOPIC_ATOM_COUNT>  (1) 
0

>  <PUBCHEM_COMPONENT_COUNT>  (1) 
1

>  <PUBCHEM_CACTVS_TAUTO_COUNT>  (1) 
2

>  <PUBCHEM_CONFORMER_ID>  (1) 
0000980000000001

>  <PUBCHEM_MMFF94_ENERGY>  (1) 
103.4163

>  <PUBCHEM_FEATURE_SELFOVERLAP>  (1) 
51.095

>  <PUBCHEM_SHAPE_FINGERPRINT>  (1) 
10 15 16443347584871122830
10162869 55 17458341992331808751
106641 1 14706927359106997924
10670039 82 17203057300462748280
10673678 19 17632297908256555004
10693767 8 13254803408712579732
11115154 58 12031793582000189731
11135609 127 17059763551048013536
117089 54 13047597088263470816
11724838 91 18334290993750674399
11796584 16 8862651439047172648
11991303 11 15984813870474599581
125118 31 18336546011228542021
12730499 353 16916785150420576743
13533116 47 17458624454307030859
13617811 41 17561361786014727321
13692114 37 17022907864822770066
13782708 43 11891345257445500673
14251757 52 18272933821479011553
14251764 18 18412542120546875161
14341114 328 18186515531951248826
14347424 109 13695873644587024270
14537116 161 15195565676340057657
15183329 4 11672063056137116939
15188451 53 10665222653332469238
15475509 35 10809333478127988084
1577012 14 18343577439532474487
15961568 22 18412547595718308261
17857418 61 9079121067899102084
19377110 9 18040713641493359345
1979834 28 16515686611205614242
20105231 36 14836124377875674479
20511986 3 17530675512243471571
20567600 234 17240201044994784373
21304304 249 13334733510126102320
21641784 216 16415208844912707497
21716022 299 15768113193978014982
21792934 111 16588297251545106999
221357 26 14692572108902907186
22224240 67 16950281814819989947
22956985 138 12109436601197987432
23523766 6 17055853446923400934
23559900 14 11599706411963893906
23576562 1 16199570520467193137
25269216 80 15410032102565725629
29717793 49 12031783665310436835
34797466 226 17346884446546185573
4073 2 18201721752416360103
4093350 32 18131354085341187271
4325135 7 18412825789597804877
4340502 62 17385442120071897922
439807 62 11383841463041019012
44317340 157 15769487716213289944
45377200 153 13541881570304996917
465052 167 13479132389624574310
5104073 3 16516516691097542557
5372103 7 16485836108332594200
59682541 52 14261355743143179116
6438161 24 9439403510349969277
9658208 31 16844995905417271454

>  <PUBCHEM_SHAPE_MULTIPOLES>  (1) 
603.64
23.22
2.01
1.64
44.41
0.54
-0.19
11.56
-1.68
-1.85
-0.06
-2.74
-0.45
-1.35

>  <PUBCHEM_SHAPE_SELFOVERLAP>  (1) 
1334.411

>  <PUBCHEM_SHAPE_VOLUME>  (1) 
320.7

>  <PUBCHEM_COORDINATE_TYPE>  (1) 
2
5
10

$$$$
