38916
     RDKit          3D

 14 15  0  0  0  0  0  0  0  0999 V2000
    5.1058   -0.8414    0.7031 N   0  0  0  0  0  0  0  0  0  0  0  0
   -3.6901   -0.8691    0.5746 C   0  0  0  0  0  0  0  0  0  0  0  0
   -2.5354   -1.8328    0.3070 C   0  0  0  0  0  0  0  0  0  0  0  0
   -3.2674    0.5386    0.9910 C   0  0  0  0  0  0  0  0  0  0  0  0
   -1.6752   -1.4492   -0.8966 C   0  0  0  0  0  0  0  0  0  0  0  0
   -2.5269    1.3108   -0.1005 C   0  0  0  0  0  0  0  0  0  0  0  0
   -0.6713   -0.3665   -0.5861 C   0  0  0  0  0  0  0  0  0  0  0  0
   -1.0714    0.9298   -0.2122 C   0  0  0  0  0  0  0  0  0  0  0  0
    0.7000   -0.6598   -0.6823 C   0  0  0  0  0  0  0  0  0  0  0  0
    1.6618    0.3123   -0.4101 C   0  0  0  0  0  0  0  0  0  0  0  0
   -0.0898    1.8996    0.0562 C   0  0  0  0  0  0  0  0  0  0  0  0
    1.2667    1.5924   -0.0407 C   0  0  0  0  0  0  0  0  0  0  0  0
    3.1116   -0.0219   -0.5150 C   0  0  0  0  0  0  0  0  0  0  0  0
    3.6817   -0.5429    0.8117 C   0  0  0  0  0  0  0  0  0  0  0  0
  1 14  1  0
  2  3  1  0
  2  4  1  0
  3  5  1  0
  4  6  1  0
  5  7  1  0
  6  8  1  0
  7  8  2  0
  7  9  1  0
  8 11  1  0
  9 10  2  0
 10 12  1  0
 10 13  1  0
 11 12  2  0
 13 14  1  0
M  END
>  <PUBCHEM_COMPOUND_CID>  (1) 
38916

>  <PUBCHEM_CONFORMER_RMSD>  (1) 
0.6

>  <PUBCHEM_CONFORMER_DIVERSEORDER>  (1) 
2
13
10
11
1
12
8
6
15
16
14
18
17
4
5
7
9
3

>  <PUBCHEM_MMFF94_PARTIAL_CHARGES>  (1) 
16
1 -0.99
10 -0.14
11 -0.15
12 -0.15
13 0.14
14 0.27
25 0.15
26 0.15
27 0.15
32 0.36
33 0.36
5 0.14
6 0.14
7 -0.14
8 -0.14
9 -0.15

>  <PUBCHEM_EFFECTIVE_ROTOR_COUNT>  (1) 
3

>  <PUBCHEM_PHARMACOPHORE_FEATURES>  (1) 
4
1 1 cation
1 1 donor
6 7 8 9 10 11 12 rings
7 2 3 4 5 6 7 8 rings

>  <PUBCHEM_HEAVY_ATOM_COUNT>  (1) 
14

>  <PUBCHEM_ATOM_DEF_STEREO_COUNT>  (1) 
0

>  <PUBCHEM_ATOM_UDEF_STEREO_COUNT>  (1) 
0

>  <PUBCHEM_BOND_DEF_STEREO_COUNT>  (1) 
0

>  <PUBCHEM_BOND_UDEF_STEREO_COUNT>  (1) 
0

>  <PUBCHEM_ISOTOPIC_ATOM_COUNT>  (1) 
0

>  <PUBCHEM_COMPONENT_COUNT>  (1) 
1

>  <PUBCHEM_CACTVS_TAUTO_COUNT>  (1) 
1

>  <PUBCHEM_CONFORMER_ID>  (1) 
0000980400000002

>  <PUBCHEM_MMFF94_ENERGY>  (1) 
24.2489

>  <PUBCHEM_FEATURE_SELFOVERLAP>  (1) 
20.305

>  <PUBCHEM_SHAPE_FINGERPRINT>  (1) 
10130415 120 18410015471925639884
11132069 177 18272376343044770079
11357001 24 18337106769967712769
11769659 78 18113619014403648436
12251169 10 18343867731433283459
12382932 28 18272938197639099537
124424 183 18334289868775048591
13140716 1 18342458183307165929
14123260 362 11959729412619720522
15375462 189 18186518800231483362
16945 1 18341902857068349117
17804303 29 18342745125835117028
1813 80 17604158030179635574
18186145 218 12251905910170361158
19422 9 18114188561458556444
200 152 15791731888921169512
20281475 54 18188772872067082614
20871998 184 18272649017702017854
20871999 31 8430305819296104249
21501502 16 18268717292980931821
21501925 9 18341328989133721492
21637258 2 16371012948753221371
22959321 94 18408318861555396394
2297311 6 18271818887103515918
232386 152 18408890658814380414
23402539 116 18272643546504558845
23402655 69 8069483452464944195
23463225 33 18410298046445815396
23559900 14 18127706941659663590
2748010 2 18270959162714392269
5104073 3 18269566094878124755
568465 68 17775292693693784299
5902787 121 18337393837234150016
76465 3 18335700615287505235
8809292 202 18261401108360826243
90316 7 18335984172991194304

>  <PUBCHEM_SHAPE_MULTIPOLES>  (1) 
283.13
7.1
1.83
0.94
6.12
0.24
0.04
-2.61
2.7
-0.87
-0.01
0.02
-0.16
-0.35

>  <PUBCHEM_SHAPE_SELFOVERLAP>  (1) 
583.955

>  <PUBCHEM_SHAPE_VOLUME>  (1) 
160.1

>  <PUBCHEM_COORDINATE_TYPE>  (1) 
2
5
10

$$$$
