38918
     RDKit          3D

 15 16  0  0  1  0  0  0  0  0999 V2000
    5.0019   -0.4322    0.3045 N   0  0  0  0  0  0  0  0  0  0  0  0
   -1.8332   -1.3054   -1.0999 C   0  0  0  0  0  0  0  0  0  0  0  0
   -2.6276   -1.9035    0.0607 C   0  0  0  0  0  0  0  0  0  0  0  0
   -0.8884   -0.2107   -0.6690 C   0  0  0  0  0  0  0  0  0  0  0  0
   -3.8301   -1.0627    0.4856 C   0  0  0  0  0  0  0  0  0  0  0  0
   -3.4819    0.3007    1.0800 C   0  0  0  0  0  0  0  0  0  0  0  0
   -2.8272    1.2601    0.0865 C   0  0  0  0  0  0  0  0  0  0  0  0
   -1.3553    0.9942   -0.1117 C   0  0  0  0  0  0  0  0  0  0  0  0
    1.4028    0.5903   -0.4590 C   0  0  0  0  0  0  0  0  0  0  0  0
    0.4945   -0.3974   -0.8379 C   0  0  0  0  0  0  0  0  0  0  0  0
    2.8662    0.3694   -0.6440 C   0  0  0  0  0  0  0  0  0  0  0  0
   -0.4273    1.9815    0.2625 C   0  0  0  0  0  0  0  0  0  0  0  0
    0.9417    1.7801    0.0914 C   0  0  0  0  0  0  0  0  0  0  0  0
    3.5668   -0.2907    0.5671 C   0  0  0  0  0  0  0  0  0  0  0  0
    2.9971   -1.6737    0.8832 C   0  0  0  0  0  0  0  0  0  0  0  0
  1 14  1  0
  2  3  1  0
  2  4  1  0
  3  5  1  0
  4  8  2  0
  4 10  1  0
  5  6  1  0
  6  7  1  0
  7  8  1  0
  8 12  1  0
  9 10  2  0
  9 11  1  0
  9 13  1  0
 11 14  1  0
 12 13  2  0
 14 15  1  0
M  END
>  <PUBCHEM_COMPOUND_CID>  (1) 
38918

>  <PUBCHEM_CONFORMER_RMSD>  (1) 
0.6

>  <PUBCHEM_CONFORMER_DIVERSEORDER>  (1) 
1
5
21
10
27
34
20
13
9
29
24
22
3
15
28
25
31
6
18
23
26
19
32
33
12
7
14
17
8
11
30
2
4
16

>  <PUBCHEM_MMFF94_PARTIAL_CHARGES>  (1) 
16
1 -0.99
10 -0.15
11 0.14
12 -0.15
13 -0.15
14 0.27
2 0.14
26 0.15
29 0.15
30 0.15
35 0.36
36 0.36
4 -0.14
7 0.14
8 -0.14
9 -0.14

>  <PUBCHEM_EFFECTIVE_ROTOR_COUNT>  (1) 
3

>  <PUBCHEM_PHARMACOPHORE_FEATURES>  (1) 
4
1 1 cation
1 1 donor
6 4 8 9 10 12 13 rings
7 2 3 4 5 6 7 8 rings

>  <PUBCHEM_HEAVY_ATOM_COUNT>  (1) 
15

>  <PUBCHEM_ATOM_DEF_STEREO_COUNT>  (1) 
0

>  <PUBCHEM_ATOM_UDEF_STEREO_COUNT>  (1) 
1

>  <PUBCHEM_BOND_DEF_STEREO_COUNT>  (1) 
0

>  <PUBCHEM_BOND_UDEF_STEREO_COUNT>  (1) 
0

>  <PUBCHEM_ISOTOPIC_ATOM_COUNT>  (1) 
0

>  <PUBCHEM_COMPONENT_COUNT>  (1) 
1

>  <PUBCHEM_CACTVS_TAUTO_COUNT>  (1) 
1

>  <PUBCHEM_CONFORMER_ID>  (1) 
0000980600000001

>  <PUBCHEM_MMFF94_ENERGY>  (1) 
25.1644

>  <PUBCHEM_FEATURE_SELFOVERLAP>  (1) 
20.305

>  <PUBCHEM_SHAPE_FINGERPRINT>  (1) 
10130415 120 18340772627760417525
11132069 177 18202291281620517741
11578080 2 18042383867885818676
11769659 78 18113617893322258145
12251169 10 18272373087422649321
12382932 28 18201441341704516223
124424 183 18408881841536646053
12553582 1 18409442609456958606
13140716 1 18272653501627184929
13705890 14 16588023541442031620
13760787 19 18187093836017212060
14123260 362 11671781615082483450
15375462 189 18334575754625253962
16945 1 18272941487790140613
17804303 29 18272376385846983749
1813 80 17749681705387719022
18186145 218 12612755734912047950
19422 9 18260274069965695316
200 152 16298386851258498300
20281475 54 18262520415191942302
20291156 8 18334290929721875354
20510252 161 17845092857443041208
20871998 184 18201716215400856844
20871999 31 10737294579934935041
21501502 16 18198348553224894117
21501925 9 18341891939118875789
21637258 2 16588593114456550579
22445834 79 18408039615186839723
2255824 54 18116160059117268612
231179 274 12679190392384208128
232386 152 18411423937767803422
23402539 116 18202557376847024693
23419403 2 15836711896101697253
23463225 33 18410578396082981269
2748010 2 18200870798397102637
5104073 3 18127703819123357499
568465 68 17561091336097329883
58807428 26 18198924525856747851
5902787 121 18340491165557832412
76465 3 18337952419517444467
83771 10 18260829323443184672
90316 7 18411140195138654657

>  <PUBCHEM_SHAPE_MULTIPOLES>  (1) 
303.71
7.37
1.96
0.99
4.61
0.1
-0.02
-2.69
2.18
-0.66
0.18
-0.11
-0.2
-0.58

>  <PUBCHEM_SHAPE_SELFOVERLAP>  (1) 
624.822

>  <PUBCHEM_SHAPE_VOLUME>  (1) 
172.5

>  <PUBCHEM_COORDINATE_TYPE>  (1) 
2
5
10

$$$$
