38920
     RDKit          3D

 16 17  0  0  1  0  0  0  0  0999 V2000
    4.6296   -0.6676    0.3074 N   0  0  0  0  0  0  0  0  0  0  0  0
   -1.2470   -0.2152   -0.6689 C   0  0  0  0  0  0  0  0  0  0  0  0
   -2.2337   -1.2719   -1.1009 C   0  0  0  0  0  0  0  0  0  0  0  0
   -3.0515   -1.8391    0.0589 C   0  0  0  0  0  0  0  0  0  0  0  0
   -4.2205   -0.9521    0.4837 C   0  0  0  0  0  0  0  0  0  0  0  0
   -3.8194    0.3963    1.0790 C   0  0  0  0  0  0  0  0  0  0  0  0
   -3.1272    1.3298    0.0864 C   0  0  0  0  0  0  0  0  0  0  0  0
   -1.6668    1.0067   -0.1113 C   0  0  0  0  0  0  0  0  0  0  0  0
    1.0736    0.4954   -0.4573 C   0  0  0  0  0  0  0  0  0  0  0  0
    0.1276   -0.4558   -0.8372 C   0  0  0  0  0  0  0  0  0  0  0  0
    2.5273    0.2175   -0.6417 C   0  0  0  0  0  0  0  0  0  0  0  0
    3.2010   -0.4702    0.5694 C   0  0  0  0  0  0  0  0  0  0  0  0
   -0.7011    1.9568    0.2640 C   0  0  0  0  0  0  0  0  0  0  0  0
    0.6591    1.7020    0.0935 C   0  0  0  0  0  0  0  0  0  0  0  0
    2.5774   -1.8300    0.8845 C   0  0  0  0  0  0  0  0  0  0  0  0
    5.2715    0.5974   -0.0092 C   0  0  0  0  0  0  0  0  0  0  0  0
  1 12  1  0
  1 16  1  0
  2  3  1  0
  2  8  2  0
  2 10  1  0
  3  4  1  0
  4  5  1  0
  5  6  1  0
  6  7  1  0
  7  8  1  0
  8 13  1  0
  9 10  2  0
  9 11  1  0
  9 14  1  0
 11 12  1  0
 12 15  1  0
 13 14  2  0
M  END
>  <PUBCHEM_COMPOUND_CID>  (1) 
38920

>  <PUBCHEM_CONFORMER_RMSD>  (1) 
0.6

>  <PUBCHEM_CONFORMER_DIVERSEORDER>  (1) 
1
24
8
38
41
81
67
72
75
43
19
77
23
16
61
71
59
51
79
25
42
49
26
33
18
65
57
11
69
40
66
62
21
82
52
7
35
31
27
54
13
17
30
68
15
20
3
78
28
10
73
60
22
63
39
76
47
83
46
64
80
74
53
29
70
44
12
32
56
48
45
50
34
58
9
14
5
36
55
37
6
2
4

>  <PUBCHEM_MMFF94_PARTIAL_CHARGES>  (1) 
16
1 -0.9
10 -0.15
11 0.14
12 0.27
13 -0.15
14 -0.15
16 0.27
2 -0.14
27 0.15
3 0.14
31 0.15
32 0.15
36 0.36
7 0.14
8 -0.14
9 -0.14

>  <PUBCHEM_EFFECTIVE_ROTOR_COUNT>  (1) 
4

>  <PUBCHEM_PHARMACOPHORE_FEATURES>  (1) 
4
1 1 cation
1 1 donor
6 2 8 9 10 13 14 rings
7 2 3 4 5 6 7 8 rings

>  <PUBCHEM_HEAVY_ATOM_COUNT>  (1) 
16

>  <PUBCHEM_ATOM_DEF_STEREO_COUNT>  (1) 
0

>  <PUBCHEM_ATOM_UDEF_STEREO_COUNT>  (1) 
1

>  <PUBCHEM_BOND_DEF_STEREO_COUNT>  (1) 
0

>  <PUBCHEM_BOND_UDEF_STEREO_COUNT>  (1) 
0

>  <PUBCHEM_ISOTOPIC_ATOM_COUNT>  (1) 
0

>  <PUBCHEM_COMPONENT_COUNT>  (1) 
1

>  <PUBCHEM_CACTVS_TAUTO_COUNT>  (1) 
1

>  <PUBCHEM_CONFORMER_ID>  (1) 
0000980800000001

>  <PUBCHEM_MMFF94_ENERGY>  (1) 
30.8049

>  <PUBCHEM_FEATURE_SELFOVERLAP>  (1) 
20.305

>  <PUBCHEM_SHAPE_FINGERPRINT>  (1) 
10366900 7 17060048220830915217
11132069 177 18201446852469271533
11769659 78 18113899359946359049
12236239 1 18260554411846506620
12251169 10 18272654562605075325
12382932 28 18201158754526493703
124424 183 18409164420472900101
12553582 1 18410001156915920706
13140716 1 18200878482251681729
13214271 11 18202281394558459701
13760787 19 18260272918930284332
14252887 29 18201729439937697774
14341114 328 18410013252039419210
14787075 74 18262240027369523776
15209289 33 18260268581066283987
15375462 189 18335416868119756938
16945 1 18201165364713459429
17804303 29 18201722872637322385
1813 80 17749682813220191134
19050596 39 18409722942362459936
19784866 170 18131358483508848622
200 152 16225765220308107388
20281475 54 18334856164207443070
20510252 161 17845095060534430200
21267235 1 18410583906547309318
21501502 16 18198910399503589173
21637258 2 16588314946752331411
22485316 2 18187363199133348336
2297311 6 18130520669050440964
231179 274 12607413173705887448
232386 152 18411986887795058293
23402539 116 18408318886845132764
23463225 33 18410577288208220245
23559900 14 18336538404298089888
25147074 1 18057048115174646829
26918003 58 17894348890780723627
2838139 119 13326302390561100763
3312278 4 18409443661692063756
34934 24 18337105666377213537
5104073 3 18341324518827011266
83771 10 18334011713486408112
90316 7 18338802212898434945

>  <PUBCHEM_SHAPE_MULTIPOLES>  (1) 
324.29
8.87
1.9
0.97
6.8
0.02
-0.02
-1.82
2.01
-0.75
0.21
-0.24
-0.19
-0.61

>  <PUBCHEM_SHAPE_SELFOVERLAP>  (1) 
663.251

>  <PUBCHEM_SHAPE_VOLUME>  (1) 
185.8

>  <PUBCHEM_COORDINATE_TYPE>  (1) 
2
5
10

$$$$
