38935
     RDKit          3D

 13 13  0  0  0  0  0  0  0  0999 V2000
   -1.8498    1.9091    0.1897 O   0  0  0  0  0  0  0  0  0  0  0  0
    2.5641    0.1947    0.3058 O   0  0  0  0  0  0  0  0  0  0  0  0
    1.4201   -2.2999    0.3212 O   0  0  0  0  0  0  0  0  0  0  0  0
   -1.6628   -0.4728   -0.1637 C   0  0  0  0  0  0  0  0  0  0  0  0
   -0.8249   -1.5208    0.5707 C   0  0  0  0  0  0  0  0  0  0  0  0
   -1.1100    0.9275    0.1080 C   0  0  0  0  0  0  0  0  0  0  0  0
   -3.1147   -0.5657    0.3349 C   0  0  0  0  0  0  0  0  0  0  0  0
   -1.6428   -0.7110   -1.6827 C   0  0  0  0  0  0  0  0  0  0  0  0
    0.3754    1.1105    0.1956 C   0  0  0  0  0  0  0  0  0  0  0  0
    0.6553   -1.3369    0.3559 C   0  0  0  0  0  0  0  0  0  0  0  0
    1.1910    0.0477    0.2740 C   0  0  0  0  0  0  0  0  0  0  0  0
    0.8601    2.5322    0.1687 C   0  0  0  0  0  0  0  0  0  0  0  0
    3.1390    0.1852   -0.9781 C   0  0  0  0  0  0  0  0  0  0  0  0
  1  6  2  0
  2 11  1  0
  2 13  1  0
  3 10  2  0
  4  5  1  0
  4  6  1  0
  4  7  1  0
  4  8  1  0
  5 10  1  0
  6  9  1  0
  9 11  2  0
  9 12  1  0
 10 11  1  0
M  END
>  <PUBCHEM_COMPOUND_CID>  (1) 
38935

>  <PUBCHEM_CONFORMER_RMSD>  (1) 
0.4

>  <PUBCHEM_CONFORMER_DIVERSEORDER>  (1) 
2
1
3
4

>  <PUBCHEM_MMFF94_PARTIAL_CHARGES>  (1) 
11
1 -0.57
10 0.49
11 0.09
12 0.14
13 0.28
2 -0.36
3 -0.57
4 0.06
5 0.06
6 0.49
9 -0.12

>  <PUBCHEM_EFFECTIVE_ROTOR_COUNT>  (1) 
1.4

>  <PUBCHEM_PHARMACOPHORE_FEATURES>  (1) 
5
1 1 acceptor
1 2 acceptor
1 3 acceptor
3 4 7 8 hydrophobe
6 4 5 6 9 10 11 rings

>  <PUBCHEM_HEAVY_ATOM_COUNT>  (1) 
13

>  <PUBCHEM_ATOM_DEF_STEREO_COUNT>  (1) 
0

>  <PUBCHEM_ATOM_UDEF_STEREO_COUNT>  (1) 
0

>  <PUBCHEM_BOND_DEF_STEREO_COUNT>  (1) 
0

>  <PUBCHEM_BOND_UDEF_STEREO_COUNT>  (1) 
0

>  <PUBCHEM_ISOTOPIC_ATOM_COUNT>  (1) 
0

>  <PUBCHEM_COMPONENT_COUNT>  (1) 
1

>  <PUBCHEM_CACTVS_TAUTO_COUNT>  (1) 
5

>  <PUBCHEM_CONFORMER_ID>  (1) 
0000981700000002

>  <PUBCHEM_MMFF94_ENERGY>  (1) 
34.2941

>  <PUBCHEM_FEATURE_SELFOVERLAP>  (1) 
25.377

>  <PUBCHEM_SHAPE_FINGERPRINT>  (1) 
10353120 184 18411706520793367788
11206711 2 18408599266737266301
12423570 1 17703520981395385813
12524768 44 17979631561049044648
13024252 1 11819272295239198983
13380535 21 18194695773528029625
14614273 12 18188199914713384724
16945 1 18410567422605070187
18185500 45 18339631227232084171
193761 8 17905327325479326450
20511035 2 17765137385256124451
21501502 16 18264773151398285755
22802520 49 18057339292260796598
23235685 24 18261390087184373323
2334 1 17761211420165141587
23402539 116 18342168999544296700
23419403 2 15522826442876055656
23552423 10 18116996572390574002
23559900 14 18339932623454329444
241688 4 18121773933196117787
2748010 2 18267018345531053667
369184 2 14692577636372536951
5084963 1 18059297672424312913
528886 8 18338796822439736891
53812653 217 18201710718053688511
66348 1 18336824298647954952
68250623 7 18195256507426129683

>  <PUBCHEM_SHAPE_MULTIPOLES>  (1) 
249.93
3.76
2.24
0.98
0.53
0.56
-0.44
-0.23
-0.61
0.4
0.4
-0.18
-0.21
-0.1

>  <PUBCHEM_SHAPE_SELFOVERLAP>  (1) 
512.307

>  <PUBCHEM_SHAPE_VOLUME>  (1) 
144.9

>  <PUBCHEM_COORDINATE_TYPE>  (1) 
2
5
10

$$$$
