38934
     RDKit          3D

 10  9  0  0  0  0  0  0  0  0999 V2000
   -1.2176    1.5400   -0.3335 O   0  0  0  0  0  0  0  0  0  0  0  0
    3.7751    0.6580   -0.2774 O   0  0  0  0  0  0  0  0  0  0  0  0
    2.8767   -1.3058    0.4240 O   0  0  0  0  0  0  0  0  0  0  0  0
   -2.3700   -0.4957    0.2569 C   0  0  0  0  0  0  0  0  0  0  0  0
    0.2140   -0.3268    0.2194 C   0  0  0  0  0  0  0  0  0  0  0  0
   -1.1300    0.3639    0.0192 C   0  0  0  0  0  0  0  0  0  0  0  0
   -3.5191    0.3469    0.8040 C   0  0  0  0  0  0  0  0  0  0  0  0
   -2.7703   -1.1905   -1.0389 C   0  0  0  0  0  0  0  0  0  0  0  0
    1.4085    0.5619   -0.1190 C   0  0  0  0  0  0  0  0  0  0  0  0
    2.7327   -0.1518    0.0453 C   0  0  0  0  0  0  0  0  0  0  0  0
  1  6  2  0
  2 10  1  0
  3 10  2  0
  4  6  1  0
  4  7  1  0
  4  8  1  0
  5  6  1  0
  5  9  1  0
  9 10  1  0
M  END
>  <PUBCHEM_COMPOUND_CID>  (1) 
38934

>  <PUBCHEM_CONFORMER_RMSD>  (1) 
0.6

>  <PUBCHEM_CONFORMER_DIVERSEORDER>  (1) 
1
32
42
30
46
9
36
45
4
11
33
25
47
10
44
2
31
48
39
15
41
27
34
14
7
5
19
18
12
29
17
37
40
16
38
21
3
8
28
20
26
43
35
23
22
13
24
6

>  <PUBCHEM_MMFF94_PARTIAL_CHARGES>  (1) 
9
1 -0.57
10 0.66
2 -0.65
22 0.5
3 -0.57
4 0.06
5 0.06
6 0.45
9 0.06

>  <PUBCHEM_EFFECTIVE_ROTOR_COUNT>  (1) 
4

>  <PUBCHEM_PHARMACOPHORE_FEATURES>  (1) 
5
1 1 acceptor
1 2 acceptor
1 3 acceptor
3 2 3 10 anion
3 4 7 8 hydrophobe

>  <PUBCHEM_HEAVY_ATOM_COUNT>  (1) 
10

>  <PUBCHEM_ATOM_DEF_STEREO_COUNT>  (1) 
0

>  <PUBCHEM_ATOM_UDEF_STEREO_COUNT>  (1) 
0

>  <PUBCHEM_BOND_DEF_STEREO_COUNT>  (1) 
0

>  <PUBCHEM_BOND_UDEF_STEREO_COUNT>  (1) 
0

>  <PUBCHEM_ISOTOPIC_ATOM_COUNT>  (1) 
0

>  <PUBCHEM_COMPONENT_COUNT>  (1) 
1

>  <PUBCHEM_CACTVS_TAUTO_COUNT>  (1) 
3

>  <PUBCHEM_CONFORMER_ID>  (1) 
0000981600000001

>  <PUBCHEM_MMFF94_ENERGY>  (1) 
8.3618

>  <PUBCHEM_FEATURE_SELFOVERLAP>  (1) 
25.43

>  <PUBCHEM_SHAPE_FINGERPRINT>  (1) 
10857977 72 16056596590478387371
11062470 55 18411141341815229721
12932764 1 18343297063603037840
14325111 11 18335702719610067800
14445660 50 18202291311590375881
15775835 57 18343587343141496386
18342897 69 18272930496762770456
20281407 28 18342453759532717659
20645477 70 18115296791796635914
21293036 1 16008752428500991364
22485316 2 18343016700859306971
3248919 1 17458065958571798424

>  <PUBCHEM_SHAPE_MULTIPOLES>  (1) 
188.19
6.42
1.2
0.82
2.53
0.05
0.03
0.55
-0.33
-0.27
0.16
-0.43
0.09
-0.63

>  <PUBCHEM_SHAPE_SELFOVERLAP>  (1) 
352.219

>  <PUBCHEM_SHAPE_VOLUME>  (1) 
118.1

>  <PUBCHEM_COORDINATE_TYPE>  (1) 
2
5
10

$$$$
