38939
     RDKit          3D

 16 18  0  0  0  0  0  0  0  0999 V2000
   -4.0246    0.3769   -0.3301 N   0  0  0  0  0  0  0  0  0  0  0  0
    2.3995    1.4384    0.5922 C   0  0  0  0  0  0  0  0  0  0  0  0
    2.9935   -0.4132   -1.0197 C   0  0  0  0  0  0  0  0  0  0  0  0
    1.6928   -0.9383    1.0829 C   0  0  0  0  0  0  0  0  0  0  0  0
    0.5935    0.3486   -0.8003 C   0  0  0  0  0  0  0  0  0  0  0  0
    3.4623    0.9107   -0.3888 C   0  0  0  0  0  0  0  0  0  0  0  0
    2.1678    0.3905    1.6999 C   0  0  0  0  0  0  0  0  0  0  0  0
    2.7587   -1.4514    0.0965 C   0  0  0  0  0  0  0  0  0  0  0  0
    1.0773    1.6672   -0.1683 C   0  0  0  0  0  0  0  0  0  0  0  0
    1.6681   -0.1747   -1.7716 C   0  0  0  0  0  0  0  0  0  0  0  0
    0.4160   -0.6726    0.3077 C   0  0  0  0  0  0  0  0  0  0  0  0
   -0.7495   -1.2771    0.5744 C   0  0  0  0  0  0  0  0  0  0  0  0
   -2.0177   -1.0227   -0.1845 C   0  0  0  0  0  0  0  0  0  0  0  0
   -2.8058    0.1320    0.4327 C   0  0  0  0  0  0  0  0  0  0  0  0
   -4.7660    1.5066    0.2326 C   0  0  0  0  0  0  0  0  0  0  0  0
   -4.8659   -0.8208   -0.3554 C   0  0  0  0  0  0  0  0  0  0  0  0
  1 14  1  0
  1 15  1  0
  1 16  1  0
  2  6  1  0
  2  7  1  0
  2  9  1  0
  3  6  1  0
  3  8  1  0
  3 10  1  0
  4  7  1  0
  4  8  1  0
  4 11  1  0
  5  9  1  0
  5 10  1  0
  5 11  1  0
 11 12  2  3
 12 13  1  0
 13 14  1  0
M  END
>  <PUBCHEM_COMPOUND_CID>  (1) 
38939

>  <PUBCHEM_CONFORMER_RMSD>  (1) 
0.6

>  <PUBCHEM_CONFORMER_DIVERSEORDER>  (1) 
1
9
3
5
8
6
4
7
10
2

>  <PUBCHEM_MMFF94_PARTIAL_CHARGES>  (1) 
10
1 -0.81
11 -0.28
12 -0.29
13 0.14
14 0.27
15 0.27
16 0.27
31 0.15
4 0.14
5 0.14

>  <PUBCHEM_EFFECTIVE_ROTOR_COUNT>  (1) 
4

>  <PUBCHEM_PHARMACOPHORE_FEATURES>  (1) 
5
1 1 cation
6 2 3 4 6 7 8 rings
6 2 3 5 6 9 10 rings
6 2 4 5 7 9 11 rings
6 3 4 5 8 10 11 rings

>  <PUBCHEM_HEAVY_ATOM_COUNT>  (1) 
16

>  <PUBCHEM_ATOM_DEF_STEREO_COUNT>  (1) 
0

>  <PUBCHEM_ATOM_UDEF_STEREO_COUNT>  (1) 
0

>  <PUBCHEM_BOND_DEF_STEREO_COUNT>  (1) 
0

>  <PUBCHEM_BOND_UDEF_STEREO_COUNT>  (1) 
0

>  <PUBCHEM_ISOTOPIC_ATOM_COUNT>  (1) 
0

>  <PUBCHEM_COMPONENT_COUNT>  (1) 
1

>  <PUBCHEM_CACTVS_TAUTO_COUNT>  (1) 
1

>  <PUBCHEM_CONFORMER_ID>  (1) 
0000981B00000001

>  <PUBCHEM_MMFF94_ENERGY>  (1) 
31.5143

>  <PUBCHEM_FEATURE_SELFOVERLAP>  (1) 
37.976

>  <PUBCHEM_SHAPE_FINGERPRINT>  (1) 
10498660 4 18411979127380549969
10646746 165 18342457006828920485
10980938 120 17676483934713173603
11086676 242 17095787859387795784
12423570 1 15872570385114658598
12500047 106 18201717404964769102
12654215 9 18410296925796811696
13134695 92 17561362846903004992
13464514 151 18190191259400056060
13705890 14 16917352536679159735
14178342 30 17896874554926423410
15775835 57 18187366545113163013
16945 1 12685917321009284914
18186145 218 18202570562127467995
20233049 118 18113902658354901892
20645477 70 16988573402278822799
212847 35 18334576794112944857
21452121 103 18341042004389476480
22854114 111 18186518804531588675
22892500 29 17704066309214302520
23402539 116 18131346393270888301
23402655 69 18273498961786684493
23419403 2 17272271459131925690
23557571 272 17917427687688584995
23559900 14 17917715669103016198
276578 36 17312822688529494442
3060560 45 18130790044577018102
347723 3 17022912220715685286
4047638 21 18202003243849460675
4990 188 18272657835270103751
5281201 14 17703799110961954885
633830 44 18411417294007394839
74978 22 18337113466111734603
7832392 63 18409448124078772743

>  <PUBCHEM_SHAPE_MULTIPOLES>  (1) 
324.29
8.07
1.58
1.27
12.68
0.27
0.03
1.39
0.6
-0.04
-0.16
-1.02
-0.04
-0.07

>  <PUBCHEM_SHAPE_SELFOVERLAP>  (1) 
680.121

>  <PUBCHEM_SHAPE_VOLUME>  (1) 
178.1

>  <PUBCHEM_COORDINATE_TYPE>  (1) 
2
5
10

$$$$
