38944
     RDKit          3D

 23 28  0  0  0  0  0  0  0  0999 V2000
    0.8522   -0.3719    0.0001 C   0  0  0  0  0  0  0  0  0  0  0  0
   -0.4531   -0.9104    0.0002 C   0  0  0  0  0  0  0  0  0  0  0  0
    1.0424    1.0305    0.0001 C   0  0  0  0  0  0  0  0  0  0  0  0
   -1.5766   -0.0499    0.0002 C   0  0  0  0  0  0  0  0  0  0  0  0
   -0.0749    1.9069    0.0001 C   0  0  0  0  0  0  0  0  0  0  0  0
   -1.4022    1.3593    0.0000 C   0  0  0  0  0  0  0  0  0  0  0  0
    1.9702   -1.2428    0.0000 C   0  0  0  0  0  0  0  0  0  0  0  0
   -0.6319   -2.3161    0.0003 C   0  0  0  0  0  0  0  0  0  0  0  0
    2.3680    1.5440    0.0000 C   0  0  0  0  0  0  0  0  0  0  0  0
   -2.8787   -0.6204    0.0001 C   0  0  0  0  0  0  0  0  0  0  0  0
    1.7720   -2.6276    0.0001 C   0  0  0  0  0  0  0  0  0  0  0  0
    0.4850   -3.1585    0.0001 C   0  0  0  0  0  0  0  0  0  0  0  0
    3.2625   -0.7104   -0.0002 C   0  0  0  0  0  0  0  0  0  0  0  0
   -1.9237   -2.8496    0.0001 C   0  0  0  0  0  0  0  0  0  0  0  0
    3.4587    0.6675   -0.0003 C   0  0  0  0  0  0  0  0  0  0  0  0
    0.2020    3.2959    0.0002 C   0  0  0  0  0  0  0  0  0  0  0  0
   -2.5780    2.1491   -0.0003 C   0  0  0  0  0  0  0  0  0  0  0  0
   -3.0344   -2.0108    0.0000 C   0  0  0  0  0  0  0  0  0  0  0  0
    2.5818    2.9244    0.0000 C   0  0  0  0  0  0  0  0  0  0  0  0
   -4.0036    0.2079   -0.0002 C   0  0  0  0  0  0  0  0  0  0  0  0
    1.5038    3.7962    0.0002 C   0  0  0  0  0  0  0  0  0  0  0  0
   -3.8539    1.5862   -0.0004 C   0  0  0  0  0  0  0  0  0  0  0  0
    2.9121   -3.5995   -0.0003 C   0  0  0  0  0  0  0  0  0  0  0  0
  1  2  2  0
  1  3  1  0
  1  7  1  0
  2  4  1  0
  2  8  1  0
  3  5  2  0
  3  9  1  0
  4  6  2  0
  4 10  1  0
  5  6  1  0
  5 16  1  0
  6 17  1  0
  7 11  2  0
  7 13  1  0
  8 12  2  0
  8 14  1  0
  9 15  1  0
  9 19  2  0
 10 18  1  0
 10 20  2  0
 11 12  1  0
 11 23  1  0
 13 15  2  0
 14 18  2  0
 16 21  2  0
 17 22  2  0
 19 21  1  0
 20 22  1  0
M  END
>  <PUBCHEM_COMPOUND_CID>  (1) 
38944

>  <PUBCHEM_CONFORMER_RMSD>  (1) 
0.6

>  <PUBCHEM_CONFORMER_DIVERSEORDER>  (1) 
1

>  <PUBCHEM_MMFF94_PARTIAL_CHARGES>  (1) 
24
11 -0.14
12 -0.15
13 -0.15
14 -0.15
15 -0.15
16 -0.15
17 -0.15
18 -0.15
19 -0.15
20 -0.15
21 -0.15
22 -0.15
23 0.14
24 0.15
25 0.15
26 0.15
27 0.15
28 0.15
29 0.15
30 0.15
31 0.15
32 0.15
33 0.15
34 0.15

>  <PUBCHEM_EFFECTIVE_ROTOR_COUNT>  (1) 
0

>  <PUBCHEM_PHARMACOPHORE_FEATURES>  (1) 
6
6 1 2 3 4 5 6 rings
6 1 2 7 8 11 12 rings
6 1 3 7 9 13 15 rings
6 2 4 8 10 14 18 rings
6 3 5 9 16 19 21 rings
6 4 6 10 17 20 22 rings

>  <PUBCHEM_HEAVY_ATOM_COUNT>  (1) 
23

>  <PUBCHEM_ATOM_DEF_STEREO_COUNT>  (1) 
0

>  <PUBCHEM_ATOM_UDEF_STEREO_COUNT>  (1) 
0

>  <PUBCHEM_BOND_DEF_STEREO_COUNT>  (1) 
0

>  <PUBCHEM_BOND_UDEF_STEREO_COUNT>  (1) 
0

>  <PUBCHEM_ISOTOPIC_ATOM_COUNT>  (1) 
0

>  <PUBCHEM_COMPONENT_COUNT>  (1) 
1

>  <PUBCHEM_CACTVS_TAUTO_COUNT>  (1) 
1

>  <PUBCHEM_CONFORMER_ID>  (1) 
0000982000000001

>  <PUBCHEM_MMFF94_ENERGY>  (1) 
91.2038

>  <PUBCHEM_FEATURE_SELFOVERLAP>  (1) 
30.679

>  <PUBCHEM_SHAPE_FINGERPRINT>  (1) 
10319926 262 17119714607410972720
10411042 1 18194683653347396999
10616163 171 18194123146876042799
10693767 8 17767937889408125383
10967382 1 18338516330994537061
1100329 8 18410856551086797904
11578080 2 17315063377389626580
12553582 1 18122909720059679087
13140716 1 18123193669169635153
138480 1 18338516318104373410
14178342 30 18340753936094537184
14223421 5 18337675338022875467
14790565 3 17547869455692675272
15042514 8 16968011143687303834
16087824 20 17257655513325629341
16945 1 18338797917656221671
19591789 44 17978234081717185906
19930381 70 18265894666364935195
20510252 161 17838061764108998065
20739085 24 17906763317989111737
20775438 99 17619292868023478335
20905425 154 17981326686130659510
21197605 99 18122358019670858427
2334 1 18338800120979849208
23559900 14 18341608252677353248
238 59 17756941767717699477
2748010 2 18338796693590535885
335352 9 18410573998047117341
34934 24 18338792321319291626
350125 39 18193843870991386881
352729 6 18049722124447488617
5939293 188 18339357457458610834
7364860 26 18411419479533721076
7832392 63 18412261714057113727
9709674 26 18268434701117499998

>  <PUBCHEM_SHAPE_MULTIPOLES>  (1) 
473.33
5.77
5.01
0.62
2.38
0.03
0
0.1
0
-2.45
0
0
0
0

>  <PUBCHEM_SHAPE_SELFOVERLAP>  (1) 
1132.71

>  <PUBCHEM_SHAPE_VOLUME>  (1) 
210.3

>  <PUBCHEM_COORDINATE_TYPE>  (1) 
2
5
10

$$$$
