3894
     RDKit          3D

 28 30  0  0  1  0  0  0  0  0999 V2000
    2.0482    2.0201   -1.1736 O   0  0  0  0  0  0  0  0  0  0  0  0
   -2.5128   -1.4823    1.8383 O   0  0  0  0  0  0  0  0  0  0  0  0
   -2.3045    3.9437    1.4831 O   0  0  0  0  0  0  0  0  0  0  0  0
    5.7593   -1.5892    0.7222 O   0  0  0  0  0  0  0  0  0  0  0  0
   -2.1860    2.7617   -2.4307 O   0  0  0  0  0  0  0  0  0  0  0  0
   -3.6380    3.6237   -0.9091 O   0  0  0  0  0  0  0  0  0  0  0  0
    0.3459   -0.7310    0.0449 N   0  0  0  0  0  0  0  0  0  0  0  0
    1.2953   -0.7326   -1.0505 C   0  0  0  0  0  0  0  0  0  0  0  0
    0.0870   -1.9668    0.7566 C   0  0  0  0  0  0  0  0  0  0  0  0
   -0.3273    0.4550    0.4046 C   0  0  0  0  0  0  0  0  0  0  0  0
    2.6460   -0.2350   -0.6239 C   0  0  0  0  0  0  0  0  0  0  0  0
   -1.1489   -2.6559    0.2546 C   0  0  0  0  0  0  0  0  0  0  0  0
   -1.1320    1.1100   -0.5277 C   0  0  0  0  0  0  0  0  0  0  0  0
   -0.1901    0.9718    1.6927 C   0  0  0  0  0  0  0  0  0  0  0  0
    2.9562    1.1181   -0.7065 C   0  0  0  0  0  0  0  0  0  0  0  0
    3.5805   -1.1476   -0.1463 C   0  0  0  0  0  0  0  0  0  0  0  0
   -2.3889   -2.3796    0.8205 C   0  0  0  0  0  0  0  0  0  0  0  0
   -1.7995    2.2820   -0.1718 C   0  0  0  0  0  0  0  0  0  0  0  0
   -1.0336   -3.5739   -0.7838 C   0  0  0  0  0  0  0  0  0  0  0  0
   -0.8576    2.1436    2.0489 C   0  0  0  0  0  0  0  0  0  0  0  0
   -1.6623    2.7989    1.1166 C   0  0  0  0  0  0  0  0  0  0  0  0
    4.8403   -0.7017    0.2534 C   0  0  0  0  0  0  0  0  0  0  0  0
    4.2161    1.5639   -0.3065 C   0  0  0  0  0  0  0  0  0  0  0  0
   -3.5270   -3.0288    0.3421 C   0  0  0  0  0  0  0  0  0  0  0  0
   -2.1718   -4.2231   -1.2620 C   0  0  0  0  0  0  0  0  0  0  0  0
    5.1581    0.6540    0.1732 C   0  0  0  0  0  0  0  0  0  0  0  0
   -3.4184   -3.9506   -0.6991 C   0  0  0  0  0  0  0  0  0  0  0  0
   -2.6337    2.9517   -1.1601 C   0  0  0  0  0  0  0  0  0  0  0  0
  1 15  1  0
  2 17  1  0
  3 21  1  0
  4 22  1  0
  5 28  1  0
  6 28  2  0
  7  8  1  0
  7  9  1  0
  7 10  1  0
  8 11  1  0
  9 12  1  0
 10 13  2  0
 10 14  1  0
 11 15  2  0
 11 16  1  0
 12 17  2  0
 12 19  1  0
 13 18  1  0
 14 20  2  0
 15 23  1  0
 16 22  2  0
 17 24  1  0
 18 21  2  0
 18 28  1  0
 19 25  2  0
 20 21  1  0
 22 26  1  0
 23 26  2  0
 24 27  2  0
 25 27  1  0
M  END
>  <PUBCHEM_COMPOUND_CID>  (1) 
3894

>  <PUBCHEM_CONFORMER_RMSD>  (1) 
1

>  <PUBCHEM_CONFORMER_DIVERSEORDER>  (1) 
1
123
207
336
329
62
19
325
239
278
35
259
272
163
164
267
287
209
283
174
157
137
322
54
21
316
114
178
308
298
183
291
305
22
64
92
265
232
71
235
338
48
53
188
312
84
158
277
182
290
124
195
219
313
334
286
212
56
126
229
296
80
285
276
203
340
127
165
220
279
320
304
45
262
139
117
135
171
98
309
176
330
281
119
343
172
221
300
143
297
197
324
201
335
100
33
91
253
199
38
261
327
233
175
215
96
236
186
225
248
321
72
146
125
273
78
292
210
331
317
266
264
128
52
345
339
4
280
173
187
129
241
243
254
144
284
237
169
87
293
257
244
333
26
246
231
307
81
251
274
328
148
289
154
238
217
311
77
337
319
17
50
194
206
94
120
271
86
83
299
323
11
200
306
202
85
294
191
132
88
222
249
314
32
30
326
242
208
136
342
101
130
156
302
3
252
179
341
2
160
58
145
227
166
150
25
260
193
140
141
36
37
255
104
196
82
16
111
224
28
213
75
162
31
315
46
68
258
95
177
250
152
301
149
214
189
42
118
18
47
234
5
256
44
288
43
76
190
34
134
20
39
310
170
99
133
344
223
151
185
60
93
181
106
318
40
102
116
205
216
13
180
153
8
79
269
198
51
218
14
282
110
168
230
270
226
6
108
41
147
332
192
131
55
303
295
23
63
7
27
184
228
268
69
49
67
113
59
138
263
275
66
159
70
247
122
73
155
24
161
115
121
112
142
240
61
9
103
89
97
107
74
211
245
105
167
90
204
29
65
15
109
10
57
12

>  <PUBCHEM_MMFF94_PARTIAL_CHARGES>  (1) 
43
1 -0.53
10 0.1
11 -0.14
12 -0.14
13 -0.15
14 -0.15
15 0.08
16 -0.15
17 0.08
18 0.09
19 -0.15
2 -0.53
20 -0.15
21 0.08
22 0.08
23 -0.15
24 -0.15
25 -0.15
26 -0.15
27 -0.15
28 0.63
3 -0.53
33 0.15
34 0.15
35 0.15
36 0.15
37 0.15
38 0.15
39 0.15
4 -0.53
40 0.15
41 0.15
42 0.15
43 0.45
44 0.45
45 0.45
46 0.45
47 0.5
5 -0.65
6 -0.57
7 -0.84
8 0.51
9 0.51

>  <PUBCHEM_EFFECTIVE_ROTOR_COUNT>  (1) 
6

>  <PUBCHEM_PHARMACOPHORE_FEATURES>  (1) 
11
1 1 donor
1 2 donor
1 3 donor
1 4 donor
1 5 acceptor
1 6 acceptor
1 7 cation
3 5 6 28 anion
6 10 13 14 18 20 21 rings
6 11 15 16 22 23 26 rings
6 12 17 19 24 25 27 rings

>  <PUBCHEM_HEAVY_ATOM_COUNT>  (1) 
28

>  <PUBCHEM_ATOM_DEF_STEREO_COUNT>  (1) 
0

>  <PUBCHEM_ATOM_UDEF_STEREO_COUNT>  (1) 
0

>  <PUBCHEM_BOND_DEF_STEREO_COUNT>  (1) 
0

>  <PUBCHEM_BOND_UDEF_STEREO_COUNT>  (1) 
0

>  <PUBCHEM_ISOTOPIC_ATOM_COUNT>  (1) 
0

>  <PUBCHEM_COMPONENT_COUNT>  (1) 
1

>  <PUBCHEM_CACTVS_TAUTO_COUNT>  (1) 
62

>  <PUBCHEM_CONFORMER_ID>  (1) 
00000F3600000001

>  <PUBCHEM_MMFF94_ENERGY>  (1) 
97.202

>  <PUBCHEM_FEATURE_SELFOVERLAP>  (1) 
55.879

>  <PUBCHEM_SHAPE_FINGERPRINT>  (1) 
11045515 52 18122061163529699143
11578080 2 17986663977211884112
11582403 64 17097767959517900401
121448 382 18129373800628111681
12156800 1 17975093734948495369
12160290 23 18192462759753597410
12422481 6 17974608777654368673
12788726 201 18336542836941677506
13004483 165 18339366391038247931
13134695 92 17836366321368673591
13681431 1 17474691901201716071
13899415 180 17907841148442596815
14068700 675 18193553609286763006
15420108 30 17905321828253529738
16728300 4 16304839666174712930
16988056 13 17617640495362754295
17138139 8 17839137958717929997
17980427 23 17129040544461386315
1813 80 17979093882736233031
19319366 153 17840296732389247637
20587220 17 17337902343714466137
20600515 1 17699030665991520630
20642791 105 18337662053694589762
21049683 271 17615693268015839279
21641784 216 17972051481054175604
23366157 5 17115225326507408683
23419403 2 17416110909605940577
283562 15 18336546122586481618
345986 75 18191004876582801130
38695281 34 17974840675417736677
4066623 53 18049415314044210207
4340502 62 18052841160380541137
4409770 3 18411410709585458495
7164475 11 18336265755879664086
79837 15 18268151950656737400
81228 2 18192740996504483954
9981440 41 18053101722564830072

>  <PUBCHEM_SHAPE_MULTIPOLES>  (1) 
536.03
8.24
5.91
1.61
11.72
2.12
0.07
-5.46
-0.33
-8.52
-1.01
-1
1.17
-0.3

>  <PUBCHEM_SHAPE_SELFOVERLAP>  (1) 
1172.344

>  <PUBCHEM_SHAPE_VOLUME>  (1) 
289.7

>  <PUBCHEM_COORDINATE_TYPE>  (1) 
2
5
10

$$$$
