3895
     RDKit          3D

 27 29  0  0  0  0  0  0  0  0999 V2000
   -2.6658   -0.8572    1.8165 O   0  0  0  0  0  0  0  0  0  0  0  0
    2.7209    1.2872   -1.1039 O   0  0  0  0  0  0  0  0  0  0  0  0
   -1.0492    4.3221    1.4012 O   0  0  0  0  0  0  0  0  0  0  0  0
   -1.1446    3.0746   -2.4928 O   0  0  0  0  0  0  0  0  0  0  0  0
   -2.3605    4.3122   -1.0244 O   0  0  0  0  0  0  0  0  0  0  0  0
    0.3334   -0.9062    0.0972 N   0  0  0  0  0  0  0  0  0  0  0  0
   -0.2546   -2.0188    0.8162 C   0  0  0  0  0  0  0  0  0  0  0  0
    1.2766   -1.1745   -0.9702 C   0  0  0  0  0  0  0  0  0  0  0  0
   -0.0181    0.4204    0.4229 C   0  0  0  0  0  0  0  0  0  0  0  0
   -1.6141   -2.3741    0.2872 C   0  0  0  0  0  0  0  0  0  0  0  0
    2.6992   -1.0353   -0.5110 C   0  0  0  0  0  0  0  0  0  0  0  0
   -0.6021    1.2433   -0.5402 C   0  0  0  0  0  0  0  0  0  0  0  0
    0.2166    0.9088    1.7080 C   0  0  0  0  0  0  0  0  0  0  0  0
   -2.7537   -1.7754    0.8136 C   0  0  0  0  0  0  0  0  0  0  0  0
    3.3519    0.1895   -0.6004 C   0  0  0  0  0  0  0  0  0  0  0  0
   -1.7151   -3.3105   -0.7362 C   0  0  0  0  0  0  0  0  0  0  0  0
    3.3527   -2.1496    0.0044 C   0  0  0  0  0  0  0  0  0  0  0  0
   -0.9515    2.5547   -0.2181 C   0  0  0  0  0  0  0  0  0  0  0  0
   -0.1329    2.2201    2.0304 C   0  0  0  0  0  0  0  0  0  0  0  0
   -0.7169    3.0432    1.0674 C   0  0  0  0  0  0  0  0  0  0  0  0
   -4.0090   -2.1170    0.3106 C   0  0  0  0  0  0  0  0  0  0  0  0
    4.6738    0.3013   -0.1691 C   0  0  0  0  0  0  0  0  0  0  0  0
   -2.9706   -3.6520   -1.2391 C   0  0  0  0  0  0  0  0  0  0  0  0
    4.6747   -2.0377    0.4354 C   0  0  0  0  0  0  0  0  0  0  0  0
   -4.1174   -3.0554   -0.7157 C   0  0  0  0  0  0  0  0  0  0  0  0
    5.3352   -0.8123    0.3486 C   0  0  0  0  0  0  0  0  0  0  0  0
   -1.5589    3.3984   -1.2381 C   0  0  0  0  0  0  0  0  0  0  0  0
  1 14  1  0
  2 15  1  0
  3 20  1  0
  4 27  1  0
  5 27  2  0
  6  7  1  0
  6  8  1  0
  6  9  1  0
  7 10  1  0
  8 11  1  0
  9 12  2  0
  9 13  1  0
 10 14  2  0
 10 16  1  0
 11 15  2  0
 11 17  1  0
 12 18  1  0
 13 19  2  0
 14 21  1  0
 15 22  1  0
 16 23  2  0
 17 24  2  0
 18 20  2  0
 18 27  1  0
 19 20  1  0
 21 25  2  0
 22 26  2  0
 23 25  1  0
 24 26  1  0
M  END
>  <PUBCHEM_COMPOUND_CID>  (1) 
3895

>  <PUBCHEM_CONFORMER_RMSD>  (1) 
0.8

>  <PUBCHEM_CONFORMER_DIVERSEORDER>  (1) 
1
302
175
299
194
275
136
203
233
318
329
245
309
238
345
216
149
58
338
220
185
68
325
292
167
116
280
142
315
244
191
341
255
224
300
42
332
249
225
31
337
323
169
152
307
295
283
170
308
99
232
240
189
62
278
246
321
155
266
243
305
94
188
320
25
127
284
51
331
342
334
46
281
294
290
63
47
166
17
195
178
217
193
333
227
313
11
18
139
110
120
213
103
319
125
214
106
264
352
215
327
7
222
49
346
135
269
113
312
117
297
183
235
251
301
330
71
263
241
89
190
268
85
261
171
168
236
145
179
20
37
123
310
88
150
141
164
322
259
282
131
226
208
286
84
21
326
296
209
335
129
92
340
197
134
78
35
252
230
239
34
270
274
303
19
45
221
95
260
173
146
276
277
143
162
105
14
124
253
306
200
122
154
65
10
79
108
102
87
126
100
336
111
43
328
339
271
132
160
298
248
349
59
161
29
26
211
72
77
202
157
133
151
351
128
40
219
93
205
107
121
38
258
210
177
350
44
32
293
158
237
289
159
80
156
97
206
218
344
165
30
262
73
207
176
257
291
27
172
247
311
180
39
66
48
83
242
74
36
82
2
118
199
287
272
70
279
115
81
55
130
22
76
114
86
12
69
137
24
112
204
317
347
138
229
182
174
198
153
228
4
212
186
33
196
304
140
267
256
192
54
67
28
314
57
201
53
98
109
104
348
163
231
181
101
273
15
9
90
343
265
3
144
184
147
75
6
148
187
288
223
119
52
285
60
5
254
316
64
56
41
61
234
8
91
50
324
250
23
96
13
16

>  <PUBCHEM_MMFF94_PARTIAL_CHARGES>  (1) 
42
1 -0.53
10 -0.14
11 -0.14
12 -0.15
13 -0.15
14 0.08
15 0.08
16 -0.15
17 -0.15
18 0.09
19 -0.15
2 -0.53
20 0.08
21 -0.15
22 -0.15
23 -0.15
24 -0.15
25 -0.15
26 -0.15
27 0.63
3 -0.53
32 0.15
33 0.15
34 0.15
35 0.15
36 0.15
37 0.15
38 0.15
39 0.15
4 -0.65
40 0.15
41 0.15
42 0.15
43 0.45
44 0.45
45 0.45
46 0.5
5 -0.57
6 -0.84
7 0.51
8 0.51
9 0.1

>  <PUBCHEM_EFFECTIVE_ROTOR_COUNT>  (1) 
6

>  <PUBCHEM_PHARMACOPHORE_FEATURES>  (1) 
10
1 1 donor
1 2 donor
1 3 donor
1 4 acceptor
1 5 acceptor
1 6 cation
3 4 5 27 anion
6 10 14 16 21 23 25 rings
6 11 15 17 22 24 26 rings
6 9 12 13 18 19 20 rings

>  <PUBCHEM_HEAVY_ATOM_COUNT>  (1) 
27

>  <PUBCHEM_ATOM_DEF_STEREO_COUNT>  (1) 
0

>  <PUBCHEM_ATOM_UDEF_STEREO_COUNT>  (1) 
0

>  <PUBCHEM_BOND_DEF_STEREO_COUNT>  (1) 
0

>  <PUBCHEM_BOND_UDEF_STEREO_COUNT>  (1) 
0

>  <PUBCHEM_ISOTOPIC_ATOM_COUNT>  (1) 
0

>  <PUBCHEM_COMPONENT_COUNT>  (1) 
1

>  <PUBCHEM_CACTVS_TAUTO_COUNT>  (1) 
18

>  <PUBCHEM_CONFORMER_ID>  (1) 
00000F3700000001

>  <PUBCHEM_MMFF94_ENERGY>  (1) 
95.1601

>  <PUBCHEM_FEATURE_SELFOVERLAP>  (1) 
50.803

>  <PUBCHEM_SHAPE_FINGERPRINT>  (1) 
11045515 52 18337951306693692311
11578080 2 18130493232298460928
11582403 64 16737203951532259449
121448 382 17912067357480255592
12156800 1 17827599704516932281
12160290 23 18120966951864848362
12422481 6 17759281455452561017
12553582 1 18196392500506598546
12788726 201 18335133198631529834
13004483 165 18410014346718392875
13134695 92 18124314062865516495
133893 2 17619929682270866163
13681431 1 17907316677016349022
13899415 180 18194944460740753199
14068700 675 18337388357515497414
14251757 17 15865191475900800782
14347332 77 18270695203500746134
14955137 171 17550996809868830730
15439362 3 17689711287576569789
16988056 13 17977082872322358381
17138139 8 17693330562033190093
17980427 23 17345204474652750331
1813 80 18267602370868358855
19319366 153 17407665226229259277
20587220 17 16977889195470906809
20600515 1 17915759740943897390
20642791 105 18264475205512288322
21049683 271 17975699703183648174
21641784 216 18188506773384528828
23366157 5 17618217755472407043
23419403 2 17631151138824137712
23559900 14 17836639000622107579
283562 15 18408322177233849426
3493558 16 17968087685564000796
38695281 34 17541649522260635340
4066623 53 18119217745198420293
4340502 62 17693113876496227633
4409770 3 18338789005868439367
633830 44 8069214118664772034
7164475 11 18408605855723662782
81228 2 18193302778295489506

>  <PUBCHEM_SHAPE_MULTIPOLES>  (1) 
521.32
7.67
5.84
1.62
6.8
5.8
0.02
-8.8
-0.58
-5.33
-1.18
-0.73
1.38
-0.15

>  <PUBCHEM_SHAPE_SELFOVERLAP>  (1) 
1138.747

>  <PUBCHEM_SHAPE_VOLUME>  (1) 
282

>  <PUBCHEM_COORDINATE_TYPE>  (1) 
2
5
10

$$$$
