38954
     RDKit          3D

 19 21  0  0  0  0  0  0  0  0999 V2000
   -4.4834   -2.2262   -0.3194 F   0  0  0  0  0  0  0  0  0  0  0  0
    0.4672   -0.0411    0.4402 N   0  0  0  0  0  0  0  0  0  0  0  0
    3.8544   -1.5272   -0.0795 N   0  0  0  0  0  0  0  0  0  0  0  0
    0.2134    1.2802    0.2093 C   0  0  0  0  0  0  0  0  0  0  0  0
   -1.1261    1.4248   -0.0855 C   0  0  0  0  0  0  0  0  0  0  0  0
    1.2196    2.3707    0.2982 C   0  0  0  0  0  0  0  0  0  0  0  0
   -1.7329    2.7485   -0.4052 C   0  0  0  0  0  0  0  0  0  0  0  0
    0.6612    3.6470   -0.3583 C   0  0  0  0  0  0  0  0  0  0  0  0
   -0.8083    3.9036    0.0265 C   0  0  0  0  0  0  0  0  0  0  0  0
   -1.7136    0.1293   -0.0397 C   0  0  0  0  0  0  0  0  0  0  0  0
   -0.6940   -0.7697    0.2927 C   0  0  0  0  0  0  0  0  0  0  0  0
    1.7595   -0.5995    0.7789 C   0  0  0  0  0  0  0  0  0  0  0  0
    2.5530   -0.9946   -0.4631 C   0  0  0  0  0  0  0  0  0  0  0  0
   -3.0144   -0.3714   -0.2505 C   0  0  0  0  0  0  0  0  0  0  0  0
   -0.9159   -2.1449    0.4267 C   0  0  0  0  0  0  0  0  0  0  0  0
   -3.2489   -1.7447   -0.1202 C   0  0  0  0  0  0  0  0  0  0  0  0
   -2.2145   -2.6161    0.2136 C   0  0  0  0  0  0  0  0  0  0  0  0
    4.6065   -0.5408    0.6985 C   0  0  0  0  0  0  0  0  0  0  0  0
    4.6173   -1.9280   -1.2631 C   0  0  0  0  0  0  0  0  0  0  0  0
  1 16  1  0
  2  4  1  0
  2 11  1  0
  2 12  1  0
  3 13  1  0
  3 18  1  0
  3 19  1  0
  4  5  2  0
  4  6  1  0
  5  7  1  0
  5 10  1  0
  6  8  1  0
  7  9  1  0
  8  9  1  0
 10 11  2  0
 10 14  1  0
 11 15  1  0
 12 13  1  0
 14 16  2  0
 15 17  2  0
 16 17  1  0
M  END
>  <PUBCHEM_COMPOUND_CID>  (1) 
38954

>  <PUBCHEM_CONFORMER_RMSD>  (1) 
0.6

>  <PUBCHEM_CONFORMER_DIVERSEORDER>  (1) 
2
5
3
6
1
4

>  <PUBCHEM_MMFF94_PARTIAL_CHARGES>  (1) 
19
1 -0.19
11 -0.15
12 0.26
13 0.27
14 -0.15
15 -0.15
16 0.19
17 -0.15
18 0.27
19 0.27
2 0.05
3 -0.81
32 0.15
33 0.15
34 0.15
4 -0.33
5 -0.18
6 0.18
7 0.18

>  <PUBCHEM_EFFECTIVE_ROTOR_COUNT>  (1) 
3.8

>  <PUBCHEM_PHARMACOPHORE_FEATURES>  (1) 
5
1 2 cation
1 3 cation
5 2 4 5 10 11 rings
6 10 11 14 15 16 17 rings
6 4 5 6 7 8 9 rings

>  <PUBCHEM_HEAVY_ATOM_COUNT>  (1) 
19

>  <PUBCHEM_ATOM_DEF_STEREO_COUNT>  (1) 
0

>  <PUBCHEM_ATOM_UDEF_STEREO_COUNT>  (1) 
0

>  <PUBCHEM_BOND_DEF_STEREO_COUNT>  (1) 
0

>  <PUBCHEM_BOND_UDEF_STEREO_COUNT>  (1) 
0

>  <PUBCHEM_ISOTOPIC_ATOM_COUNT>  (1) 
0

>  <PUBCHEM_COMPONENT_COUNT>  (1) 
1

>  <PUBCHEM_CACTVS_TAUTO_COUNT>  (1) 
1

>  <PUBCHEM_CONFORMER_ID>  (1) 
0000982A00000002

>  <PUBCHEM_MMFF94_ENERGY>  (1) 
31.6611

>  <PUBCHEM_FEATURE_SELFOVERLAP>  (1) 
25.547

>  <PUBCHEM_SHAPE_FINGERPRINT>  (1) 
10319926 262 18051666908317287114
10411042 1 18410291445202783867
10967382 1 17976817915273169025
1100329 8 18410857616777478569
11578080 2 17025398254807358716
11680986 33 18047191040518117107
116883 192 18411696612298508460
11833330 49 18335698321568980952
12173636 292 17904758878274052860
12553582 1 18337403698400382194
12788726 201 18261114024109659898
13140716 1 18410295822185649177
13583140 156 14692566581100843723
138480 1 15312094834570691056
14022347 108 18261384568251930683
14508225 48 18411411808759203597
14790565 3 18051137986240361633
15042514 8 18265053518220654155
15475509 8 18199761262816434319
16945 1 18265038155486535681
17357779 13 18270944800264236911
17539 30 18268421352322065013
1813 80 18271544064282580127
19591789 44 17547293302719096697
20510252 161 18197213650982086384
20645477 70 17976527627403745375
20671657 53 18340773744436298055
20871999 31 18337392638943698870
20905425 154 18339648944489736292
21029758 11 18409722989106089563
21524375 3 17323243610967127280
22182313 1 18266154266888948293
22849341 161 18267329641014333779
2334 1 18264479749740609593
23352939 185 18271254918657523472
23366157 5 17753886422076770712
23402539 116 18340196410616381566
23419403 2 17702922816984337361
23557571 272 18342739573149031650
23558518 356 17900824851371563658
23559900 14 18123181574336014176
23566358 2 18335410322310406508
2748010 2 18265874982551254425
3071541 250 18337113491770612629
3091708 16 9279923755303737625
352729 6 17472688135928683915
43471831 8 17256807226743884435
458136 41 17398127418013539977
532947 4 17763753491502721036
6138700 20 18049165772424547716
68521 5 18409730625431406310
7364860 26 18050285074480180665
81228 2 18339089198196341330
9709674 26 17903069276926790043

>  <PUBCHEM_SHAPE_MULTIPOLES>  (1) 
373.78
6.79
4.5
0.82
7.16
4.23
-0.06
-6.73
-1.22
-2.57
-0.38
0.57
-0.16
0.55

>  <PUBCHEM_SHAPE_SELFOVERLAP>  (1) 
800.403

>  <PUBCHEM_SHAPE_VOLUME>  (1) 
212.1

>  <PUBCHEM_COORDINATE_TYPE>  (1) 
2
5
10

$$$$
