38960
     RDKit          3D

 20 22  0  0  0  0  0  0  0  0999 V2000
    3.0943   -3.9205   -0.1748 F   0  0  0  0  0  0  0  0  0  0  0  0
   -0.1547    0.4496    0.2831 N   0  0  0  0  0  0  0  0  0  0  0  0
   -4.3651   -0.2437    0.2297 N   0  0  0  0  0  0  0  0  0  0  0  0
    0.7469    1.4663    0.1542 C   0  0  0  0  0  0  0  0  0  0  0  0
    2.0024    0.9210   -0.0156 C   0  0  0  0  0  0  0  0  0  0  0  0
    0.4160    2.9139    0.2216 C   0  0  0  0  0  0  0  0  0  0  0  0
    3.2180    1.7632   -0.2023 C   0  0  0  0  0  0  0  0  0  0  0  0
    1.6019    3.7427   -0.3062 C   0  0  0  0  0  0  0  0  0  0  0  0
    2.9541    3.2226    0.2173 C   0  0  0  0  0  0  0  0  0  0  0  0
    1.8567   -0.4948    0.0033 C   0  0  0  0  0  0  0  0  0  0  0  0
    0.4964   -0.7626    0.1930 C   0  0  0  0  0  0  0  0  0  0  0  0
   -1.5780    0.6131    0.4929 C   0  0  0  0  0  0  0  0  0  0  0  0
   -2.3508    0.6709   -0.8245 C   0  0  0  0  0  0  0  0  0  0  0  0
    2.7482   -1.5792   -0.1241 C   0  0  0  0  0  0  0  0  0  0  0  0
   -0.0127   -2.0644    0.2640 C   0  0  0  0  0  0  0  0  0  0  0  0
   -3.8461    0.8555   -0.5753 C   0  0  0  0  0  0  0  0  0  0  0  0
    2.2513   -2.8858   -0.0552 C   0  0  0  0  0  0  0  0  0  0  0  0
    0.8919   -3.1222    0.1365 C   0  0  0  0  0  0  0  0  0  0  0  0
   -4.1938   -1.5193   -0.4679 C   0  0  0  0  0  0  0  0  0  0  0  0
   -5.7769   -0.0263    0.5504 C   0  0  0  0  0  0  0  0  0  0  0  0
  1 17  1  0
  2  4  1  0
  2 11  1  0
  2 12  1  0
  3 16  1  0
  3 19  1  0
  3 20  1  0
  4  5  2  0
  4  6  1  0
  5  7  1  0
  5 10  1  0
  6  8  1  0
  7  9  1  0
  8  9  1  0
 10 11  2  0
 10 14  1  0
 11 15  1  0
 12 13  1  0
 13 16  1  0
 14 17  2  0
 15 18  2  0
 17 18  1  0
M  END
>  <PUBCHEM_COMPOUND_CID>  (1) 
38960

>  <PUBCHEM_CONFORMER_RMSD>  (1) 
0.6

>  <PUBCHEM_CONFORMER_DIVERSEORDER>  (1) 
3
20
13
2
17
10
18
22
23
16
24
15
19
5
11
21
9
4
12
14
6
7
1
8

>  <PUBCHEM_MMFF94_PARTIAL_CHARGES>  (1) 
19
1 -0.19
11 -0.15
12 0.26
14 -0.15
15 -0.15
16 0.27
17 0.19
18 -0.15
19 0.27
2 0.05
20 0.27
3 -0.81
33 0.15
34 0.15
37 0.15
4 -0.33
5 -0.18
6 0.18
7 0.18

>  <PUBCHEM_EFFECTIVE_ROTOR_COUNT>  (1) 
4.8

>  <PUBCHEM_PHARMACOPHORE_FEATURES>  (1) 
5
1 2 cation
1 3 cation
5 2 4 5 10 11 rings
6 10 11 14 15 17 18 rings
6 4 5 6 7 8 9 rings

>  <PUBCHEM_HEAVY_ATOM_COUNT>  (1) 
20

>  <PUBCHEM_ATOM_DEF_STEREO_COUNT>  (1) 
0

>  <PUBCHEM_ATOM_UDEF_STEREO_COUNT>  (1) 
0

>  <PUBCHEM_BOND_DEF_STEREO_COUNT>  (1) 
0

>  <PUBCHEM_BOND_UDEF_STEREO_COUNT>  (1) 
0

>  <PUBCHEM_ISOTOPIC_ATOM_COUNT>  (1) 
0

>  <PUBCHEM_COMPONENT_COUNT>  (1) 
1

>  <PUBCHEM_CACTVS_TAUTO_COUNT>  (1) 
1

>  <PUBCHEM_CONFORMER_ID>  (1) 
0000983000000003

>  <PUBCHEM_MMFF94_ENERGY>  (1) 
31.5977

>  <PUBCHEM_FEATURE_SELFOVERLAP>  (1) 
25.547

>  <PUBCHEM_SHAPE_FINGERPRINT>  (1) 
10411042 1 18122345675011663650
10693767 8 18202569453926127902
10967382 1 18410573994115984104
1100329 8 18339076094694505410
12107183 9 18054519002634803065
12553582 1 17905605502143031115
12730499 353 18264218061688508505
12788726 201 17325210632536674514
13009979 54 17701548307174383977
13140716 1 18124587837140003768
13533116 47 18343015615335030239
138480 1 18338797801755609590
13955234 65 18411702105952057761
14790565 3 18049448346406392877
15502722 9 18410290332927138277
16087824 20 17257655517588967557
16945 1 18338525127678331626
1813 80 17914064100613686455
18785283 64 18334576883906156048
19591789 44 17978229683718173539
20645477 70 18335408068190657879
21054139 6 17983844864211373447
21197605 99 17975142255827872419
21524375 3 17971745833632315512
21634736 98 18342175531557018855
221490 88 18408328778529861955
2255824 54 18412546526370905109
2334 1 18122630715427687400
23419403 2 17389345309652592252
23557571 272 17192624919632936238
23559900 14 18338226073389935425
2748010 2 18193853750006757984
3060560 45 18337672030882675348
3091708 16 9471631321583862208
314173 41 18268153067628224831
33824 294 18337109063812265929
3421961 26 18411418363132335635
352729 6 17977670032357859408
458136 41 18265904725231245865
54173680 148 17402047795357273870
58051976 378 18340200924932743941
6025842 7 18411133675841860525
6287921 2 18187369878292966397
6442390 28 17977950416491874589
6443956 14 18264772064819013141
7364860 26 18410573989493930197
81228 2 17331375598576067233
8272917 22 18412550924802700437
84936 182 18201718504619107929
9709674 26 18335139804602402187

>  <PUBCHEM_SHAPE_MULTIPOLES>  (1) 
394.35
7.81
4.69
0.72
14.24
1.5
-0.03
-0.95
0
-6.24
-0.13
0.28
-0.08
0.09

>  <PUBCHEM_SHAPE_SELFOVERLAP>  (1) 
839.094

>  <PUBCHEM_SHAPE_VOLUME>  (1) 
224.7

>  <PUBCHEM_COORDINATE_TYPE>  (1) 
2
5
10

$$$$
