3896
     RDKit          3D

 20 21  0  0  0  0  0  0  0  0999 V2000
   -2.7177   -1.0247    2.2826 O   0  0  0  0  0  0  0  0  0  0  0  0
    5.1047   -1.2400   -0.5003 O   0  0  0  0  0  0  0  0  0  0  0  0
   -5.2333    1.2732   -2.0519 O   0  0  0  0  0  0  0  0  0  0  0  0
    3.9241    2.2878    1.2035 O   0  0  0  0  0  0  0  0  0  0  0  0
    5.4679    1.4815   -0.2570 O   0  0  0  0  0  0  0  0  0  0  0  0
   -0.3042   -0.0507    0.0254 N   0  0  0  0  0  0  0  0  0  0  0  0
   -1.3335   -1.0136   -0.2169 C   0  0  0  0  0  0  0  0  0  0  0  0
   -2.7070   -0.4235   -0.0377 C   0  0  0  0  0  0  0  0  0  0  0  0
    1.0684   -0.3471   -0.1066 C   0  0  0  0  0  0  0  0  0  0  0  0
   -3.3285   -0.4598    1.2036 C   0  0  0  0  0  0  0  0  0  0  0  0
   -3.3359    0.1538   -1.1332 C   0  0  0  0  0  0  0  0  0  0  0  0
    2.0224    0.6390    0.1449 C   0  0  0  0  0  0  0  0  0  0  0  0
    1.4719   -1.6265   -0.4885 C   0  0  0  0  0  0  0  0  0  0  0  0
    3.3798    0.3457    0.0143 C   0  0  0  0  0  0  0  0  0  0  0  0
   -4.6088    0.7045   -0.9845 C   0  0  0  0  0  0  0  0  0  0  0  0
    3.7832   -0.9337   -0.3677 C   0  0  0  0  0  0  0  0  0  0  0  0
   -4.6013    0.0909    1.3522 C   0  0  0  0  0  0  0  0  0  0  0  0
    2.8293   -1.9198   -0.6191 C   0  0  0  0  0  0  0  0  0  0  0  0
   -5.2415    0.6731    0.2582 C   0  0  0  0  0  0  0  0  0  0  0  0
    4.3599    1.3900    0.2788 C   0  0  0  0  0  0  0  0  0  0  0  0
  1 10  1  0
  2 16  1  0
  3 15  1  0
  4 20  1  0
  5 20  2  0
  6  7  1  0
  6  9  1  0
  7  8  1  0
  8 10  2  0
  8 11  1  0
  9 12  2  0
  9 13  1  0
 10 17  1  0
 11 15  2  0
 12 14  1  0
 13 18  2  0
 14 16  2  0
 14 20  1  0
 15 19  1  0
 16 18  1  0
 17 19  2  0
M  END
>  <PUBCHEM_COMPOUND_CID>  (1) 
3896

>  <PUBCHEM_CONFORMER_RMSD>  (1) 
0.6

>  <PUBCHEM_CONFORMER_DIVERSEORDER>  (1) 
1
85
23
62
35
69
71
60
21
48
87
86
27
59
12
19
88
26
84
61
29
66
57
77
13
4
49
17
80
56
14
22
75
68
81
91
40
64
50
70
25
6
20
72
28
54
44
33
79
24
42
16
74
51
8
63
7
78
46
5
89
45
67
18
41
65
15
3
11
76
9
90
53
47
32
52
58
2
38
73
37
82
55
31
10
43
36
83
39
30
34

>  <PUBCHEM_MMFF94_PARTIAL_CHARGES>  (1) 
31
1 -0.53
10 0.08
11 -0.15
12 -0.15
13 -0.15
14 0.09
15 0.08
16 0.08
17 -0.15
18 -0.15
19 -0.15
2 -0.53
20 0.63
23 0.4
24 0.15
25 0.15
26 0.15
27 0.15
28 0.15
29 0.15
3 -0.53
30 0.45
31 0.45
32 0.45
33 0.5
4 -0.65
5 -0.57
6 -0.87
7 0.51
8 -0.14
9 0.1

>  <PUBCHEM_EFFECTIVE_ROTOR_COUNT>  (1) 
4

>  <PUBCHEM_PHARMACOPHORE_FEATURES>  (1) 
10
1 1 donor
1 2 donor
1 3 donor
1 4 acceptor
1 5 acceptor
1 6 cation
1 6 donor
3 4 5 20 anion
6 8 10 11 15 17 19 rings
6 9 12 13 14 16 18 rings

>  <PUBCHEM_HEAVY_ATOM_COUNT>  (1) 
20

>  <PUBCHEM_ATOM_DEF_STEREO_COUNT>  (1) 
0

>  <PUBCHEM_ATOM_UDEF_STEREO_COUNT>  (1) 
0

>  <PUBCHEM_BOND_DEF_STEREO_COUNT>  (1) 
0

>  <PUBCHEM_BOND_UDEF_STEREO_COUNT>  (1) 
0

>  <PUBCHEM_ISOTOPIC_ATOM_COUNT>  (1) 
0

>  <PUBCHEM_COMPONENT_COUNT>  (1) 
1

>  <PUBCHEM_CACTVS_TAUTO_COUNT>  (1) 
25

>  <PUBCHEM_CONFORMER_ID>  (1) 
00000F3800000001

>  <PUBCHEM_MMFF94_ENERGY>  (1) 
67.1732

>  <PUBCHEM_FEATURE_SELFOVERLAP>  (1) 
50.804

>  <PUBCHEM_SHAPE_FINGERPRINT>  (1) 
10014705 185 18409162234171152527
10912923 1 17346598564922492399
11089746 13 17275383227141061896
11471102 20 18272652346697414734
11796584 16 17313388868910902154
12236239 1 17060619971109249679
12403259 415 18186807967188724151
12616971 3 17560807601999508963
13631057 29 17843672507869761215
13675066 3 18186807997332564471
13760787 5 18060703874776584382
14251757 5 16557043787617286231
14386348 63 18113908143101926779
14528608 73 17775563169343626268
14848178 96 17916017052819788216
15081414 286 18411707599273913860
15375358 24 18187081754374376515
16079462 125 18114174229326899725
17834072 33 17703787041803218343
19489759 90 17385442120720354243
200 152 17632574916625643659
20554085 129 16951104211675354149
20612939 158 18202004322308212742
20645477 56 18261391174185535239
20645477 70 18271528606800854870
21033648 29 18259696805018366109
21065201 7 17168152221359592635
212916 134 17023178306476148515
23402655 69 17988923392376786782
23557571 272 17530975648219781959
23559900 14 17458631038750513910
268830 7 18272094834035330113
2916195 48 18113333120180046341
29717793 49 16988565667253400836
3545911 37 18411422838287849815
474 4 18201439233197359992
5104073 3 18412824724409493034
542803 24 17274826843976202075
543368 44 17274820306967659617
57724786 102 18341062868802777041
5924683 9 17749956699422654627
602551 16 16805896189712067866
633830 44 17702963439080525551
90127 26 18113621191909882476

>  <PUBCHEM_SHAPE_MULTIPOLES>  (1) 
377.26
13.52
1.71
1.38
1.13
0.19
-0.21
4.73
1.42
-2.68
-0.02
2.49
0.12
1.46

>  <PUBCHEM_SHAPE_SELFOVERLAP>  (1) 
816.33

>  <PUBCHEM_SHAPE_VOLUME>  (1) 
206

>  <PUBCHEM_COORDINATE_TYPE>  (1) 
2
5
10

$$$$
