38976
     RDKit          3D

 21 24  0  0  0  0  0  0  0  0999 V2000
    3.8892    3.5689   -0.4107 F   0  0  0  0  0  0  0  0  0  0  0  0
   -3.5463   -0.2310   -0.0828 N   0  0  0  0  0  0  0  0  0  0  0  0
    0.1504   -0.3156    0.4419 N   0  0  0  0  0  0  0  0  0  0  0  0
   -4.4400   -0.2391   -1.2406 C   0  0  0  0  0  0  0  0  0  0  0  0
   -3.9097    0.9700    0.6689 C   0  0  0  0  0  0  0  0  0  0  0  0
   -5.7788    0.1630   -0.6398 C   0  0  0  0  0  0  0  0  0  0  0  0
   -5.4302    0.9606    0.6132 C   0  0  0  0  0  0  0  0  0  0  0  0
   -2.1420   -0.2438   -0.4647 C   0  0  0  0  0  0  0  0  0  0  0  0
   -1.2588   -0.2766    0.7792 C   0  0  0  0  0  0  0  0  0  0  0  0
    0.9415    0.7950    0.2651 C   0  0  0  0  0  0  0  0  0  0  0  0
    0.8765   -1.4679    0.2536 C   0  0  0  0  0  0  0  0  0  0  0  0
    2.2238    0.3431   -0.0475 C   0  0  0  0  0  0  0  0  0  0  0  0
    2.1827   -1.0874   -0.0544 C   0  0  0  0  0  0  0  0  0  0  0  0
    0.6194    2.1538    0.3578 C   0  0  0  0  0  0  0  0  0  0  0  0
    0.4769   -2.8069    0.3331 C   0  0  0  0  0  0  0  0  0  0  0  0
    3.2371    1.2968   -0.2796 C   0  0  0  0  0  0  0  0  0  0  0  0
    3.1399   -2.0954   -0.2956 C   0  0  0  0  0  0  0  0  0  0  0  0
    1.6398    3.0793    0.1231 C   0  0  0  0  0  0  0  0  0  0  0  0
    1.4430   -3.7871    0.0902 C   0  0  0  0  0  0  0  0  0  0  0  0
    2.9301    2.6594   -0.1910 C   0  0  0  0  0  0  0  0  0  0  0  0
    2.7555   -3.4389   -0.2196 C   0  0  0  0  0  0  0  0  0  0  0  0
  1 20  1  0
  2  4  1  0
  2  5  1  0
  2  8  1  0
  3  9  1  0
  3 10  1  0
  3 11  1  0
  4  6  1  0
  5  7  1  0
  6  7  1  0
  8  9  1  0
 10 12  1  0
 10 14  2  0
 11 13  2  0
 11 15  1  0
 12 13  1  0
 12 16  2  0
 13 17  1  0
 14 18  1  0
 15 19  2  0
 16 20  1  0
 17 21  2  0
 18 20  2  0
 19 21  1  0
M  END
>  <PUBCHEM_COMPOUND_CID>  (1) 
38976

>  <PUBCHEM_CONFORMER_RMSD>  (1) 
0.6

>  <PUBCHEM_CONFORMER_DIVERSEORDER>  (1) 
1
15
7
10
5
12
16
6
13
11
8
14
9
2
3
4

>  <PUBCHEM_MMFF94_PARTIAL_CHARGES>  (1) 
24
1 -0.19
10 -0.15
11 -0.15
14 -0.15
15 -0.15
16 -0.15
17 -0.15
18 -0.15
19 -0.15
2 -0.81
20 0.19
21 -0.15
3 0.05
34 0.15
35 0.15
36 0.15
37 0.15
38 0.15
39 0.15
4 0.27
40 0.15
5 0.27
8 0.27
9 0.26

>  <PUBCHEM_EFFECTIVE_ROTOR_COUNT>  (1) 
4

>  <PUBCHEM_PHARMACOPHORE_FEATURES>  (1) 
6
1 2 cation
1 3 cation
5 2 4 5 6 7 rings
5 3 10 11 12 13 rings
6 10 12 14 16 18 20 rings
6 11 13 15 17 19 21 rings

>  <PUBCHEM_HEAVY_ATOM_COUNT>  (1) 
21

>  <PUBCHEM_ATOM_DEF_STEREO_COUNT>  (1) 
0

>  <PUBCHEM_ATOM_UDEF_STEREO_COUNT>  (1) 
0

>  <PUBCHEM_BOND_DEF_STEREO_COUNT>  (1) 
0

>  <PUBCHEM_BOND_UDEF_STEREO_COUNT>  (1) 
0

>  <PUBCHEM_ISOTOPIC_ATOM_COUNT>  (1) 
0

>  <PUBCHEM_COMPONENT_COUNT>  (1) 
1

>  <PUBCHEM_CACTVS_TAUTO_COUNT>  (1) 
1

>  <PUBCHEM_CONFORMER_ID>  (1) 
0000984000000001

>  <PUBCHEM_MMFF94_ENERGY>  (1) 
37.7536

>  <PUBCHEM_FEATURE_SELFOVERLAP>  (1) 
30.628

>  <PUBCHEM_SHAPE_FINGERPRINT>  (1) 
10411042 1 17978230457008284202
10693767 8 18130793313516863070
10906281 52 18335998493044519138
10967382 1 18410578349392365282
1100329 8 18410291428524152610
11265709 11 18122343471935910610
11471102 20 18409729543284127595
12107183 9 17838905837448066873
12236239 1 17775001241893218683
12293681 160 17773326827286662304
12553582 1 18123183502935306503
12730499 353 18335991964493905443
12769317 202 18339068380569485173
13009979 54 17630332939302042139
13134695 92 18264210201313307438
13140716 1 18335138734670197074
13533116 47 18342451548595166559
13590594 115 18050015389152138489
138480 1 18266460906141979424
13955234 65 18410013225911186035
14178000 15 18268146457446202664
14790565 3 18265622163544225396
15442244 35 18197783189557900841
15664445 248 18057057804367925830
15842332 3 17845385375202273497
16087824 20 17185318638822897257
167882 2 18408888473082110930
17134986 127 18264773349309659724
17539 30 17329987993648568950
17818456 19 17343228420360837721
17844677 252 18339368462098389425
1813 80 17913777115246851447
18785283 64 18333454256764405946
19784866 34 18339924942908280153
20612939 158 18411136922700129029
20645477 70 18335135380469264307
21033648 29 17313380103109003893
21307412 95 17984172442100373420
21478907 32 17617659856273970867
21641784 216 17682424471842686438
22033318 11 17481738281353040985
221357 26 18191017903518750821
221490 88 18408892836685144003
22289505 5 18190735332950670941
2255824 54 18412824664079334199
22907989 373 17039230385688277260
23559900 14 18410571764854261275
23598291 2 18059301954934091769
23929065 36 17048216668816601728
24771293 8 18272640226595286834
25 1 18337672034998099336
2748010 2 18050026664142578658
3060560 45 18410856585784133574
3091708 16 9113033296560804866
335352 9 18410013278147132156
394222 165 18042678576146859032
4394409 98 13946136320848822279
474 4 18410290350154467313
5281201 14 18262796260036240341
543358 83 18341616967086583241
6025842 7 18411133654214212191
6443956 14 18193278494423576518
7364860 26 18410855438653338314
7471813 234 18199742549010714899
77188 2 18049722919512589926
8272917 22 18412547600244604511
84936 182 18201437025204771304
9841814 1 18115297861243220474
9971528 1 18270673156494267803
9981440 41 18122898999889997833

>  <PUBCHEM_SHAPE_MULTIPOLES>  (1) 
414.93
9.38
4.35
0.83
17.89
0.23
-0.05
-1.85
-1.52
-7.48
-0.1
0.61
0.01
-0.58

>  <PUBCHEM_SHAPE_SELFOVERLAP>  (1) 
915.905

>  <PUBCHEM_SHAPE_VOLUME>  (1) 
227.8

>  <PUBCHEM_COORDINATE_TYPE>  (1) 
2
5
10

$$$$
