38974
     RDKit          3D

 23 26  0  0  0  0  0  0  0  0999 V2000
    4.5550    2.6226    0.3237 O   0  0  0  0  0  0  0  0  0  0  0  0
   -0.1664   -0.0008   -0.6023 N   0  0  0  0  0  0  0  0  0  0  0  0
   -3.6432    1.1464    0.1366 N   0  0  0  0  0  0  0  0  0  0  0  0
    0.2234   -1.3133   -0.5458 C   0  0  0  0  0  0  0  0  0  0  0  0
    1.5820   -1.3459   -0.2901 C   0  0  0  0  0  0  0  0  0  0  0  0
   -1.5128    0.4732   -0.8564 C   0  0  0  0  0  0  0  0  0  0  0  0
   -2.3092    0.6459    0.4337 C   0  0  0  0  0  0  0  0  0  0  0  0
   -0.7382   -2.4328   -0.7415 C   0  0  0  0  0  0  0  0  0  0  0  0
    2.4040   -2.5842   -0.1548 C   0  0  0  0  0  0  0  0  0  0  0  0
   -4.4382    1.3679    1.3441 C   0  0  0  0  0  0  0  0  0  0  0  0
   -4.4259    0.2071   -0.6664 C   0  0  0  0  0  0  0  0  0  0  0  0
    0.9088    0.8281   -0.3877 C   0  0  0  0  0  0  0  0  0  0  0  0
    2.0242    0.0125   -0.1890 C   0  0  0  0  0  0  0  0  0  0  0  0
   -0.6894   -3.4444    0.4040 C   0  0  0  0  0  0  0  0  0  0  0  0
   -5.8532    1.4990    0.8005 C   0  0  0  0  0  0  0  0  0  0  0  0
   -5.8461    0.7332   -0.5189 C   0  0  0  0  0  0  0  0  0  0  0  0
    1.8511   -3.5677    0.8785 C   0  0  0  0  0  0  0  0  0  0  0  0
    0.5802   -4.3024    0.4379 C   0  0  0  0  0  0  0  0  0  0  0  0
    3.2705    0.6292    0.0534 C   0  0  0  0  0  0  0  0  0  0  0  0
    0.9748    2.2259   -0.3561 C   0  0  0  0  0  0  0  0  0  0  0  0
    3.3526    2.0260    0.0882 C   0  0  0  0  0  0  0  0  0  0  0  0
    2.2202    2.8107   -0.1138 C   0  0  0  0  0  0  0  0  0  0  0  0
    5.6760    1.7639    0.5224 C   0  0  0  0  0  0  0  0  0  0  0  0
  1 21  1  0
  1 23  1  0
  2  4  1  0
  2  6  1  0
  2 12  1  0
  3  7  1  0
  3 10  1  0
  3 11  1  0
  4  5  2  0
  4  8  1  0
  5  9  1  0
  5 13  1  0
  6  7  1  0
  8 14  1  0
  9 17  1  0
 10 15  1  0
 11 16  1  0
 12 13  2  0
 12 20  1  0
 13 19  1  0
 14 18  1  0
 15 16  1  0
 17 18  1  0
 19 21  2  0
 20 22  2  0
 21 22  1  0
M  END
>  <PUBCHEM_COMPOUND_CID>  (1) 
38974

>  <PUBCHEM_CONFORMER_RMSD>  (1) 
0.8

>  <PUBCHEM_CONFORMER_DIVERSEORDER>  (1) 
1
12
11
7
6
9
10
5
8
4
2
3

>  <PUBCHEM_MMFF94_PARTIAL_CHARGES>  (1) 
20
1 -0.36
10 0.27
11 0.27
12 -0.15
19 -0.15
2 0.05
20 -0.15
21 0.08
22 -0.15
23 0.28
3 -0.81
4 -0.33
46 0.15
47 0.15
48 0.15
5 -0.18
6 0.26
7 0.27
8 0.18
9 0.18

>  <PUBCHEM_EFFECTIVE_ROTOR_COUNT>  (1) 
6

>  <PUBCHEM_PHARMACOPHORE_FEATURES>  (1) 
7
1 1 acceptor
1 2 cation
1 3 cation
5 2 4 5 12 13 rings
5 3 10 11 15 16 rings
6 12 13 19 20 21 22 rings
7 4 5 8 9 14 17 18 rings

>  <PUBCHEM_HEAVY_ATOM_COUNT>  (1) 
23

>  <PUBCHEM_ATOM_DEF_STEREO_COUNT>  (1) 
0

>  <PUBCHEM_ATOM_UDEF_STEREO_COUNT>  (1) 
0

>  <PUBCHEM_BOND_DEF_STEREO_COUNT>  (1) 
0

>  <PUBCHEM_BOND_UDEF_STEREO_COUNT>  (1) 
0

>  <PUBCHEM_ISOTOPIC_ATOM_COUNT>  (1) 
0

>  <PUBCHEM_COMPONENT_COUNT>  (1) 
1

>  <PUBCHEM_CACTVS_TAUTO_COUNT>  (1) 
1

>  <PUBCHEM_CONFORMER_ID>  (1) 
0000983E00000001

>  <PUBCHEM_MMFF94_ENERGY>  (1) 
44.3508

>  <PUBCHEM_FEATURE_SELFOVERLAP>  (1) 
35.646

>  <PUBCHEM_SHAPE_FINGERPRINT>  (1) 
10090160 65 18412261740323062521
10411042 1 17690279313686385294
10493431 412 18339078293348437204
10835480 77 18335696110721529629
1100329 8 18410571760986769482
114674 6 18042693797384400651
12107183 9 18335969966183482440
12236239 1 17775284950379705813
12390115 104 18195822979332095380
12553582 1 17978506430173931095
12597179 24 18186809096970871451
12644460 14 18336264544118533946
12788726 201 17691117558173804910
12925494 130 17624401374972207008
13140716 1 18408881841684858706
13533116 47 18263935341603915569
13583140 156 16444165643066006069
13631057 29 18128528466030044143
13785724 45 17406846081661111615
138480 1 18049721815178623503
13955234 65 18265055743346263467
14790565 3 18336830895961094444
14866123 147 18265328602871909122
14955137 171 18121782729685746458
15475509 35 16806164337500107658
15927050 60 18411981394843967486
16728300 4 17317293178997629962
17138139 8 17699823388896524527
19591789 44 18265896865789104572
20157964 124 18410008794227791661
20511986 3 17917417697742880089
20642791 268 17769655304689672867
20645477 70 18188485762478193575
20739085 24 18261963933565231660
21049683 118 18052790792839618736
21054139 6 18270952574772156407
21197605 99 18337683022374379587
21421861 104 18054523400243509593
21524375 3 18272651298293111925
21796203 349 17760959262672909995
2255824 54 18340491049942037631
23419403 2 17534324661864387014
23558518 356 17612591533298713244
23559900 14 18265049133655020411
23569917 315 18341051912304684614
23845131 108 18335136527252328491
25147074 1 18129642171712395759
283562 15 17834383901856482886
3091708 16 9333146719605804086
3178227 256 18263940864246199042
335352 9 18412263948400158508
33824 294 18409168779495427213
3421961 26 18191871115424306531
404807 14 15117368255101882028
4058900 60 18335997388521181168
4340502 62 18412550933302853769
474 4 18411982460090198025
5385378 56 18410579452660974817
58807428 26 18337378422981685792
59755656 520 18340482361107017188
633830 44 18202006499709036621
6443956 14 17903360308067973583
79837 15 18193275414805334074
8272917 22 18341337682654073845
9777508 108 18122907791651252395
9841814 1 18120660128017887763
9999458 23 18337677416660726054

>  <PUBCHEM_SHAPE_MULTIPOLES>  (1) 
457.5
10.43
4.72
0.93
11.79
5.25
0.09
-10.41
2.16
-4.59
0.96
0.6
0.04
-0.46

>  <PUBCHEM_SHAPE_SELFOVERLAP>  (1) 
978.743

>  <PUBCHEM_SHAPE_VOLUME>  (1) 
256.1

>  <PUBCHEM_COORDINATE_TYPE>  (1) 
2
5
10

$$$$
