38980
     RDKit          3D

 21 24  0  0  0  0  0  0  0  0999 V2000
    0.9886    4.8211    0.0320 Cl  0  0  0  0  0  0  0  0  0  0  0  0
   -3.3841   -0.6007   -0.0586 N   0  0  0  0  0  0  0  0  0  0  0  0
    0.3106   -0.3319    0.4167 N   0  0  0  0  0  0  0  0  0  0  0  0
   -4.2860   -0.7278   -1.2029 C   0  0  0  0  0  0  0  0  0  0  0  0
   -3.8471    0.5863    0.6598 C   0  0  0  0  0  0  0  0  0  0  0  0
   -5.6492   -0.4296   -0.5965 C   0  0  0  0  0  0  0  0  0  0  0  0
   -5.3610    0.4369    0.6256 C   0  0  0  0  0  0  0  0  0  0  0  0
   -1.9888   -0.4983   -0.4596 C   0  0  0  0  0  0  0  0  0  0  0  0
   -1.0925   -0.4100    0.7722 C   0  0  0  0  0  0  0  0  0  0  0  0
    0.9965    0.8393    0.1971 C   0  0  0  0  0  0  0  0  0  0  0  0
    1.1360   -1.4196    0.2550 C   0  0  0  0  0  0  0  0  0  0  0  0
    2.3116    0.4951   -0.1166 C   0  0  0  0  0  0  0  0  0  0  0  0
    2.3997   -0.9329   -0.0797 C   0  0  0  0  0  0  0  0  0  0  0  0
    0.5538    2.1658    0.2524 C   0  0  0  0  0  0  0  0  0  0  0  0
    0.8597   -2.7860    0.3796 C   0  0  0  0  0  0  0  0  0  0  0  0
    3.2325    1.5284   -0.3892 C   0  0  0  0  0  0  0  0  0  0  0  0
    3.4418   -1.8578   -0.3013 C   0  0  0  0  0  0  0  0  0  0  0  0
    1.4844    3.1716   -0.0223 C   0  0  0  0  0  0  0  0  0  0  0  0
    1.9081   -3.6824    0.1553 C   0  0  0  0  0  0  0  0  0  0  0  0
    2.8046    2.8599   -0.3385 C   0  0  0  0  0  0  0  0  0  0  0  0
    3.1809   -3.2274   -0.1802 C   0  0  0  0  0  0  0  0  0  0  0  0
  1 18  1  0
  2  4  1  0
  2  5  1  0
  2  8  1  0
  3  9  1  0
  3 10  1  0
  3 11  1  0
  4  6  1  0
  5  7  1  0
  6  7  1  0
  8  9  1  0
 10 12  1  0
 10 14  2  0
 11 13  2  0
 11 15  1  0
 12 13  1  0
 12 16  2  0
 13 17  1  0
 14 18  1  0
 15 19  2  0
 16 20  1  0
 17 21  2  0
 18 20  2  0
 19 21  1  0
M  END
>  <PUBCHEM_COMPOUND_CID>  (1) 
38980

>  <PUBCHEM_CONFORMER_RMSD>  (1) 
0.6

>  <PUBCHEM_CONFORMER_DIVERSEORDER>  (1) 
1
9
6
7
12
5
11
8
4
2
3
10

>  <PUBCHEM_MMFF94_PARTIAL_CHARGES>  (1) 
24
1 -0.18
10 -0.15
11 -0.15
14 -0.15
15 -0.15
16 -0.15
17 -0.15
18 0.18
19 -0.15
2 -0.81
20 -0.15
21 -0.15
3 0.05
34 0.15
35 0.15
36 0.15
37 0.15
38 0.15
39 0.15
4 0.27
40 0.15
5 0.27
8 0.27
9 0.26

>  <PUBCHEM_EFFECTIVE_ROTOR_COUNT>  (1) 
4

>  <PUBCHEM_PHARMACOPHORE_FEATURES>  (1) 
6
1 2 cation
1 3 cation
5 2 4 5 6 7 rings
5 3 10 11 12 13 rings
6 10 12 14 16 18 20 rings
6 11 13 15 17 19 21 rings

>  <PUBCHEM_HEAVY_ATOM_COUNT>  (1) 
21

>  <PUBCHEM_ATOM_DEF_STEREO_COUNT>  (1) 
0

>  <PUBCHEM_ATOM_UDEF_STEREO_COUNT>  (1) 
0

>  <PUBCHEM_BOND_DEF_STEREO_COUNT>  (1) 
0

>  <PUBCHEM_BOND_UDEF_STEREO_COUNT>  (1) 
0

>  <PUBCHEM_ISOTOPIC_ATOM_COUNT>  (1) 
0

>  <PUBCHEM_COMPONENT_COUNT>  (1) 
1

>  <PUBCHEM_CACTVS_TAUTO_COUNT>  (1) 
1

>  <PUBCHEM_CONFORMER_ID>  (1) 
0000984400000001

>  <PUBCHEM_MMFF94_ENERGY>  (1) 
38.4022

>  <PUBCHEM_FEATURE_SELFOVERLAP>  (1) 
30.628

>  <PUBCHEM_SHAPE_FINGERPRINT>  (1) 
10411042 1 18194120703288331314
10693767 8 18202290186726274110
10906281 52 18335434469386346448
10967382 1 18410296908791100290
1100329 8 18338232778029524546
11265709 11 18193838141864041546
116883 192 17907861699828985286
12107183 9 17982459200862268105
12173636 292 17473825507535055148
12553582 1 18194678176952715391
12730499 353 18263371450572731931
12769317 202 18338223985783258629
12788726 201 17758118094397993354
13004483 165 17978498741955676274
13009979 54 17773887402185913491
13134695 92 18409167671198842183
13140716 1 18192425492422538704
13533116 47 18341327873455256351
13590594 115 18194129516476502281
138480 1 18410575041813977048
13955234 65 18410856603006369875
14178000 15 18339641135880034520
14790565 3 18265343983060677348
15442244 35 18269277859380491233
16087824 20 17545325172869866961
17134986 127 18121218954971367100
17539 30 17690556386510716174
17818456 19 17487064358242375809
17844677 252 18411145706440895371
17980427 26 17700671103149553860
1813 80 18057050103127599406
18335252 114 18193545668299246349
18785283 64 18261678176431812451
20612939 158 18410012130794635023
20645477 70 18334853926893699483
21041028 32 18193834843112367294
21478907 32 17905608796145719714
21641784 216 17825975640581405422
22033318 11 17697350364139466161
221357 26 18262511473819131525
221490 88 18336272318358148955
22289505 5 18262510391107545333
2255824 54 18412543236389299407
23559900 14 18410568505359049523
23598291 2 18130519534857191265
24771293 8 18272641364740280906
25 1 18264208178515261364
283562 15 18193000310172698802
3060560 45 18338799030390452740
3091708 16 9215437407172367304
3886686 26 17478017903250956560
474 4 18338514274122187137
5281201 14 18334572404840777215
543358 83 18413112736426050179
6025842 7 18338793515789802575
6443956 14 18336548205296862814
7164475 11 17905051348520301254
7364860 26 18410011048088219458
7471813 234 18270956839031161003
8272917 22 18411985771288352879
84936 182 18129099107357477497
9841814 1 18114733833305820330
9971528 1 18342168930086530026
9981440 41 17835230530247055369

>  <PUBCHEM_SHAPE_MULTIPOLES>  (1) 
424.08
8.83
5.06
0.82
17.4
3.32
0.05
-2.03
1.26
-7.06
-0.04
0.55
-0.06
-0.54

>  <PUBCHEM_SHAPE_SELFOVERLAP>  (1) 
923.849

>  <PUBCHEM_SHAPE_VOLUME>  (1) 
236.1

>  <PUBCHEM_COORDINATE_TYPE>  (1) 
2
5
10

$$$$
