38993
     RDKit          3D

 21 23  0  0  0  0  0  0  0  0999 V2000
    0.9887    2.4195    0.6818 O   0  0  0  0  0  0  0  0  0  0  0  0
   -0.2962   -0.3180    0.5274 N   0  0  0  0  0  0  0  0  0  0  0  0
    4.4197   -1.1655   -0.5936 N   0  0  0  0  0  0  0  0  0  0  0  0
    1.0454   -0.5172    1.0395 C   0  0  0  0  0  0  0  0  0  0  0  0
   -0.8417    0.8978    0.1890 C   0  0  0  0  0  0  0  0  0  0  0  0
   -1.1977   -1.3343    0.3157 C   0  0  0  0  0  0  0  0  0  0  0  0
   -2.1413    0.6575   -0.2575 C   0  0  0  0  0  0  0  0  0  0  0  0
   -2.3665   -0.7535   -0.1773 C   0  0  0  0  0  0  0  0  0  0  0  0
    2.0601   -0.7486   -0.0799 C   0  0  0  0  0  0  0  0  0  0  0  0
    3.4612   -0.9673    0.4870 C   0  0  0  0  0  0  0  0  0  0  0  0
   -0.2856    2.1811    0.2448 C   0  0  0  0  0  0  0  0  0  0  0  0
   -1.0659   -2.7123    0.5225 C   0  0  0  0  0  0  0  0  0  0  0  0
   -2.9266    1.7546   -0.6699 C   0  0  0  0  0  0  0  0  0  0  0  0
   -3.4602   -1.5916   -0.4799 C   0  0  0  0  0  0  0  0  0  0  0  0
   -1.0832    3.2515   -0.1684 C   0  0  0  0  0  0  0  0  0  0  0  0
   -2.3845    3.0438   -0.6194 C   0  0  0  0  0  0  0  0  0  0  0  0
   -2.1632   -3.5214    0.2155 C   0  0  0  0  0  0  0  0  0  0  0  0
   -3.3436   -2.9716   -0.2785 C   0  0  0  0  0  0  0  0  0  0  0  0
    5.7708   -1.3426   -0.0583 C   0  0  0  0  0  0  0  0  0  0  0  0
    4.3870   -0.0369   -1.5256 C   0  0  0  0  0  0  0  0  0  0  0  0
    1.4233    3.7752    0.6852 C   0  0  0  0  0  0  0  0  0  0  0  0
  1 11  1  0
  1 21  1  0
  2  4  1  0
  2  5  1  0
  2  6  1  0
  3 10  1  0
  3 19  1  0
  3 20  1  0
  4  9  1  0
  5  7  2  0
  5 11  1  0
  6  8  2  0
  6 12  1  0
  7  8  1  0
  7 13  1  0
  8 14  1  0
  9 10  1  0
 11 15  2  0
 12 17  2  0
 13 16  2  0
 14 18  2  0
 15 16  1  0
 17 18  1  0
M  END
>  <PUBCHEM_COMPOUND_CID>  (1) 
38993

>  <PUBCHEM_CONFORMER_RMSD>  (1) 
0.8

>  <PUBCHEM_CONFORMER_DIVERSEORDER>  (1) 
1
9
6
8
10
7
5
4
3
2

>  <PUBCHEM_MMFF94_PARTIAL_CHARGES>  (1) 
25
1 -0.36
10 0.27
11 0.08
12 -0.15
13 -0.15
14 -0.15
15 -0.15
16 -0.15
17 -0.15
18 -0.15
19 0.27
2 0.05
20 0.27
21 0.28
28 0.15
29 0.15
3 -0.81
30 0.15
31 0.15
32 0.15
33 0.15
34 0.15
4 0.26
5 -0.15
6 -0.15

>  <PUBCHEM_EFFECTIVE_ROTOR_COUNT>  (1) 
5

>  <PUBCHEM_PHARMACOPHORE_FEATURES>  (1) 
6
1 1 acceptor
1 2 cation
1 3 cation
5 2 5 6 7 8 rings
6 5 7 11 13 15 16 rings
6 6 8 12 14 17 18 rings

>  <PUBCHEM_HEAVY_ATOM_COUNT>  (1) 
21

>  <PUBCHEM_ATOM_DEF_STEREO_COUNT>  (1) 
0

>  <PUBCHEM_ATOM_UDEF_STEREO_COUNT>  (1) 
0

>  <PUBCHEM_BOND_DEF_STEREO_COUNT>  (1) 
0

>  <PUBCHEM_BOND_UDEF_STEREO_COUNT>  (1) 
0

>  <PUBCHEM_ISOTOPIC_ATOM_COUNT>  (1) 
0

>  <PUBCHEM_COMPONENT_COUNT>  (1) 
1

>  <PUBCHEM_CACTVS_TAUTO_COUNT>  (1) 
1

>  <PUBCHEM_CONFORMER_ID>  (1) 
0000985100000001

>  <PUBCHEM_MMFF94_ENERGY>  (1) 
57.731

>  <PUBCHEM_FEATURE_SELFOVERLAP>  (1) 
30.626

>  <PUBCHEM_SHAPE_FINGERPRINT>  (1) 
10319926 262 18124284205244658986
10411042 1 18265613367440510699
10967382 1 17402594265848410025
1100329 8 18411982438589286873
11578080 2 16954456686366988260
11680986 33 18049721016815684667
12173636 292 18192986015708862276
12553582 1 18336819883627972283
12788726 201 18261106361613846763
13140716 1 18337388344556547755
138480 1 15816500221887062604
14251757 5 18408610253269033358
14508225 48 18339630248327934607
14790565 3 18123758547611910313
14866123 147 18340492171134054915
15463212 79 18041558014815513618
15475509 8 18200890495649677063
16945 1 18265592335364586921
17818456 19 17903342720599305874
19591789 44 18123466073513189033
20101258 96 18263379125167788554
20871999 31 18411133606510661934
20905425 154 18267306628168462068
21339142 51 18411979126799788100
22182313 1 18119789542879461589
2334 1 18192131906271231129
23352939 185 18198916974602426643
23402539 116 18339073788244203110
23419403 2 17560220522777251568
23557571 272 18272088267288926778
23559900 14 18340195405915508362
23566358 2 18192978525407555029
2748010 2 18192690432334432497
3178227 256 18265910068756625257
352729 6 17833541298092412571
394222 165 17246954022153796849
4280585 95 18266727155702667178
7364860 26 17835519697441432283
9709674 26 18268137832993818048
9981440 41 17759803645928888040

>  <PUBCHEM_SHAPE_MULTIPOLES>  (1) 
416.34
7.73
4.83
0.94
13.06
2.33
-0.12
-5.31
-2.47
-3.5
0.42
0.53
0.09
0.62

>  <PUBCHEM_SHAPE_SELFOVERLAP>  (1) 
896.973

>  <PUBCHEM_SHAPE_VOLUME>  (1) 
233.8

>  <PUBCHEM_COORDINATE_TYPE>  (1) 
2
5
10

$$$$
