39
     RDKit          3D

  9  9  0  0  0  0  0  0  0  0999 V2000
    0.9309    1.4178    0.1206 O   0  0  0  0  0  0  0  0  0  0  0  0
    0.2591   -1.9355    0.0992 O   0  0  0  0  0  0  0  0  0  0  0  0
    2.5114   -0.2585   -0.1227 O   0  0  0  0  0  0  0  0  0  0  0  0
   -1.0672    0.1152   -0.0250 C   0  0  0  0  0  0  0  0  0  0  0  0
   -0.4703    1.4370    0.4516 C   0  0  0  0  0  0  0  0  0  0  0  0
    0.1650   -0.7258    0.0542 C   0  0  0  0  0  0  0  0  0  0  0  0
   -1.5306    0.1878   -1.4799 C   0  0  0  0  0  0  0  0  0  0  0  0
   -2.1766   -0.3838    0.8893 C   0  0  0  0  0  0  0  0  0  0  0  0
    1.3784    0.1460    0.0127 C   0  0  0  0  0  0  0  0  0  0  0  0
  1  5  1  0
  1  9  1  0
  2  6  2  0
  3  9  2  0
  4  5  1  0
  4  6  1  0
  4  7  1  0
  4  8  1  0
  6  9  1  0
M  END
>  <PUBCHEM_COMPOUND_CID>  (1) 
39

>  <PUBCHEM_CONFORMER_RMSD>  (1) 
0.4

>  <PUBCHEM_CONFORMER_DIVERSEORDER>  (1) 
2
1

>  <PUBCHEM_MMFF94_PARTIAL_CHARGES>  (1) 
7
1 -0.43
2 -0.57
3 -0.57
4 0.06
5 0.28
6 0.51
9 0.72

>  <PUBCHEM_EFFECTIVE_ROTOR_COUNT>  (1) 
0.6

>  <PUBCHEM_PHARMACOPHORE_FEATURES>  (1) 
4
1 2 acceptor
1 3 acceptor
3 4 7 8 hydrophobe
5 1 4 5 6 9 rings

>  <PUBCHEM_HEAVY_ATOM_COUNT>  (1) 
9

>  <PUBCHEM_ATOM_DEF_STEREO_COUNT>  (1) 
0

>  <PUBCHEM_ATOM_UDEF_STEREO_COUNT>  (1) 
0

>  <PUBCHEM_BOND_DEF_STEREO_COUNT>  (1) 
0

>  <PUBCHEM_BOND_UDEF_STEREO_COUNT>  (1) 
0

>  <PUBCHEM_ISOTOPIC_ATOM_COUNT>  (1) 
0

>  <PUBCHEM_COMPONENT_COUNT>  (1) 
1

>  <PUBCHEM_CACTVS_TAUTO_COUNT>  (1) 
1

>  <PUBCHEM_CONFORMER_ID>  (1) 
0000002700000002

>  <PUBCHEM_MMFF94_ENERGY>  (1) 
19.2329

>  <PUBCHEM_FEATURE_SELFOVERLAP>  (1) 
20.301

>  <PUBCHEM_SHAPE_FINGERPRINT>  (1) 
12423570 1 16474290831616642069
137420 1 12100992282817753159
15310529 11 16950279641719297488
16945 1 18341057349679559003
18185500 45 18129083559533154359
21040471 1 18123476239136367129
23552423 10 18046642113585372790
24536 1 18046057164424092683
29004967 10 18410300189623745241
369184 2 14620793778001785390
5084963 1 17675930910323450856

>  <PUBCHEM_SHAPE_MULTIPOLES>  (1) 
167.61
2.48
1.44
0.98
0.52
0.12
0.29
0.17
-0.04
0.18
-0.18
-0.62
-0.05
0.12

>  <PUBCHEM_SHAPE_SELFOVERLAP>  (1) 
344.72

>  <PUBCHEM_SHAPE_VOLUME>  (1) 
99.1

>  <PUBCHEM_COORDINATE_TYPE>  (1) 
2
5
10

$$$$
