39011
     RDKit          3D

 21 23  0  0  0  0  0  0  0  0999 V2000
    4.1041    0.7499   -0.5076 O   0  0  0  0  0  0  0  0  0  0  0  0
   -0.3130   -0.0387    0.7383 N   0  0  0  0  0  0  0  0  0  0  0  0
   -4.9614    0.6286   -0.7308 N   0  0  0  0  0  0  0  0  0  0  0  0
   -1.6905    0.1431    1.1505 C   0  0  0  0  0  0  0  0  0  0  0  0
    0.5835    0.9845    0.5388 C   0  0  0  0  0  0  0  0  0  0  0  0
    0.2735   -1.2576    0.4918 C   0  0  0  0  0  0  0  0  0  0  0  0
    1.7916    0.4051    0.1497 C   0  0  0  0  0  0  0  0  0  0  0  0
    1.5955   -1.0123    0.1202 C   0  0  0  0  0  0  0  0  0  0  0  0
   -2.6323    0.2999   -0.0430 C   0  0  0  0  0  0  0  0  0  0  0  0
   -4.0739    0.5018    0.4190 C   0  0  0  0  0  0  0  0  0  0  0  0
    2.8888    1.2499   -0.1196 C   0  0  0  0  0  0  0  0  0  0  0  0
    0.4157    2.3675    0.6726 C   0  0  0  0  0  0  0  0  0  0  0  0
   -0.2641   -2.5475    0.5695 C   0  0  0  0  0  0  0  0  0  0  0  0
    2.4242   -2.1113   -0.1897 C   0  0  0  0  0  0  0  0  0  0  0  0
    2.7362    2.6350    0.0096 C   0  0  0  0  0  0  0  0  0  0  0  0
    1.5169    3.1833    0.3998 C   0  0  0  0  0  0  0  0  0  0  0  0
    0.5761   -3.6197    0.2576 C   0  0  0  0  0  0  0  0  0  0  0  0
    1.9008   -3.4071   -0.1165 C   0  0  0  0  0  0  0  0  0  0  0  0
   -6.3498    0.7891   -0.2950 C   0  0  0  0  0  0  0  0  0  0  0  0
   -4.8368   -0.5358   -1.6094 C   0  0  0  0  0  0  0  0  0  0  0  0
    4.3147    0.5923   -1.9057 C   0  0  0  0  0  0  0  0  0  0  0  0
  1 11  1  0
  1 21  1  0
  2  4  1  0
  2  5  1  0
  2  6  1  0
  3 10  1  0
  3 19  1  0
  3 20  1  0
  4  9  1  0
  5  7  2  0
  5 12  1  0
  6  8  2  0
  6 13  1  0
  7  8  1  0
  7 11  1  0
  8 14  1  0
  9 10  1  0
 11 15  2  0
 12 16  2  0
 13 17  2  0
 14 18  2  0
 15 16  1  0
 17 18  1  0
M  END
>  <PUBCHEM_COMPOUND_CID>  (1) 
39011

>  <PUBCHEM_CONFORMER_RMSD>  (1) 
0.8

>  <PUBCHEM_CONFORMER_DIVERSEORDER>  (1) 
1
11
10
17
15
5
13
4
9
12
16
8
3
14
2
7
6

>  <PUBCHEM_MMFF94_PARTIAL_CHARGES>  (1) 
25
1 -0.36
10 0.27
11 0.08
12 -0.15
13 -0.15
14 -0.15
15 -0.15
16 -0.15
17 -0.15
18 -0.15
19 0.27
2 0.05
20 0.27
21 0.28
28 0.15
29 0.15
3 -0.81
30 0.15
31 0.15
32 0.15
33 0.15
34 0.15
4 0.26
5 -0.15
6 -0.15

>  <PUBCHEM_EFFECTIVE_ROTOR_COUNT>  (1) 
5

>  <PUBCHEM_PHARMACOPHORE_FEATURES>  (1) 
6
1 1 acceptor
1 2 cation
1 3 cation
5 2 5 6 7 8 rings
6 5 7 11 12 15 16 rings
6 6 8 13 14 17 18 rings

>  <PUBCHEM_HEAVY_ATOM_COUNT>  (1) 
21

>  <PUBCHEM_ATOM_DEF_STEREO_COUNT>  (1) 
0

>  <PUBCHEM_ATOM_UDEF_STEREO_COUNT>  (1) 
0

>  <PUBCHEM_BOND_DEF_STEREO_COUNT>  (1) 
0

>  <PUBCHEM_BOND_UDEF_STEREO_COUNT>  (1) 
0

>  <PUBCHEM_ISOTOPIC_ATOM_COUNT>  (1) 
0

>  <PUBCHEM_COMPONENT_COUNT>  (1) 
1

>  <PUBCHEM_CACTVS_TAUTO_COUNT>  (1) 
1

>  <PUBCHEM_CONFORMER_ID>  (1) 
0000986300000001

>  <PUBCHEM_MMFF94_ENERGY>  (1) 
56.4646

>  <PUBCHEM_FEATURE_SELFOVERLAP>  (1) 
30.625

>  <PUBCHEM_SHAPE_FINGERPRINT>  (1) 
10411042 1 17906170650856535634
10693767 8 18059014982188785614
10967382 1 18339093605233765434
1100329 8 18408884027897241050
11796584 16 14764081020979644917
12553582 1 17978806609638179475
12730499 353 18335708269193059243
12788726 201 17417817189350944033
12895836 83 17679604469309744068
13009979 54 17558836079109427811
13083527 12 18120361069803724898
13140716 1 18196949979066824032
13540713 4 17910125934195673088
14790565 3 17979396102964678888
15475509 35 13973682776394827693
16945 1 18339943579340804152
17134986 127 18264489653629135088
19591789 44 18123203560305666842
20645477 70 18335136454353545779
21054139 6 18128518539722274103
21452121 199 17975400331146962538
221490 88 18409451375897030443
22182313 1 17979930624264933832
22289505 5 18336539409520884485
22393880 68 18271802467111227469
2255824 54 18341043043528877715
2334 1 17836944656369390976
23557571 272 17385736828623160057
23598291 2 17915188918636701969
238 59 18410571812293885307
25 1 18408323306387533827
266924 1 17988089881233075313
266924 87 18264776458692395956
2748010 2 17980497963891209440
3060560 45 18410854386655590676
350125 39 17977402842368366530
352729 6 18196104445649864744
4072396 5 18335408068148661592
5281201 14 18262792948811770285
543358 83 18268993094743642425
6025842 7 18410849946134153767
633830 44 18271237343841440661
7471813 234 18122902027958322974
81228 2 17183633628620146122
8272917 22 18412262805553560069

>  <PUBCHEM_SHAPE_MULTIPOLES>  (1) 
416.34
9.2
3.86
1.12
17.09
2.19
-0.44
-3.69
-4.8
-3.84
0.61
0.06
-0.09
-0.22

>  <PUBCHEM_SHAPE_SELFOVERLAP>  (1) 
895.652

>  <PUBCHEM_SHAPE_VOLUME>  (1) 
234

>  <PUBCHEM_COORDINATE_TYPE>  (1) 
2
5
10

$$$$
