39017
     RDKit          3D

 23 26  0  0  0  0  0  0  0  0999 V2000
    2.8002    4.7982   -0.2703 Cl  0  0  0  0  0  0  0  0  0  0  0  0
   -0.0941   -4.6336    0.0092 O   0  0  0  0  0  0  0  0  0  0  0  0
   -3.2103    1.3735    0.0798 N   0  0  0  0  0  0  0  0  0  0  0  0
    0.3109    0.2210   -0.3892 N   0  0  0  0  0  0  0  0  0  0  0  0
   -4.0568    1.7149    1.2226 C   0  0  0  0  0  0  0  0  0  0  0  0
   -3.9450    0.3334   -0.6397 C   0  0  0  0  0  0  0  0  0  0  0  0
   -5.4507    1.7544    0.6139 C   0  0  0  0  0  0  0  0  0  0  0  0
   -5.3780    0.8437   -0.6080 C   0  0  0  0  0  0  0  0  0  0  0  0
   -1.8816    0.9376    0.4831 C   0  0  0  0  0  0  0  0  0  0  0  0
   -1.0311    0.6353   -0.7472 C   0  0  0  0  0  0  0  0  0  0  0  0
    0.6926   -1.0811   -0.1672 C   0  0  0  0  0  0  0  0  0  0  0  0
    1.3747    1.0769   -0.2263 C   0  0  0  0  0  0  0  0  0  0  0  0
    2.0509   -1.0649    0.1507 C   0  0  0  0  0  0  0  0  0  0  0  0
    2.4821    0.2992    0.1131 C   0  0  0  0  0  0  0  0  0  0  0  0
   -0.0576   -2.2613   -0.2239 C   0  0  0  0  0  0  0  0  0  0  0  0
    1.4376    2.4692   -0.3535 C   0  0  0  0  0  0  0  0  0  0  0  0
    2.6937   -2.2901    0.4264 C   0  0  0  0  0  0  0  0  0  0  0  0
    3.7163    0.9448    0.3374 C   0  0  0  0  0  0  0  0  0  0  0  0
    0.6015   -3.4621    0.0529 C   0  0  0  0  0  0  0  0  0  0  0  0
    1.9567   -3.4786    0.3737 C   0  0  0  0  0  0  0  0  0  0  0  0
    2.6711    3.0856   -0.1267 C   0  0  0  0  0  0  0  0  0  0  0  0
    3.7949    2.3366    0.2138 C   0  0  0  0  0  0  0  0  0  0  0  0
   -1.4778   -4.5526   -0.3249 C   0  0  0  0  0  0  0  0  0  0  0  0
  1 21  1  0
  2 19  1  0
  2 23  1  0
  3  5  1  0
  3  6  1  0
  3  9  1  0
  4 10  1  0
  4 11  1  0
  4 12  1  0
  5  7  1  0
  6  8  1  0
  7  8  1  0
  9 10  1  0
 11 13  1  0
 11 15  2  0
 12 14  2  0
 12 16  1  0
 13 14  1  0
 13 17  2  0
 14 18  1  0
 15 19  1  0
 16 21  2  0
 17 20  1  0
 18 22  2  0
 19 20  2  0
 21 22  1  0
M  END
>  <PUBCHEM_COMPOUND_CID>  (1) 
39017

>  <PUBCHEM_CONFORMER_RMSD>  (1) 
0.8

>  <PUBCHEM_CONFORMER_DIVERSEORDER>  (1) 
1
6
4
5
2
3

>  <PUBCHEM_MMFF94_PARTIAL_CHARGES>  (1) 
25
1 -0.18
10 0.26
11 -0.15
12 -0.15
15 -0.15
16 -0.15
17 -0.15
18 -0.15
19 0.08
2 -0.36
20 -0.15
21 0.18
22 -0.15
23 0.28
3 -0.81
36 0.15
37 0.15
38 0.15
39 0.15
4 0.05
40 0.15
41 0.15
5 0.27
6 0.27
9 0.27

>  <PUBCHEM_EFFECTIVE_ROTOR_COUNT>  (1) 
5

>  <PUBCHEM_PHARMACOPHORE_FEATURES>  (1) 
7
1 2 acceptor
1 3 cation
1 4 cation
5 3 5 6 7 8 rings
5 4 11 12 13 14 rings
6 11 13 15 17 19 20 rings
6 12 14 16 18 21 22 rings

>  <PUBCHEM_HEAVY_ATOM_COUNT>  (1) 
23

>  <PUBCHEM_ATOM_DEF_STEREO_COUNT>  (1) 
0

>  <PUBCHEM_ATOM_UDEF_STEREO_COUNT>  (1) 
0

>  <PUBCHEM_BOND_DEF_STEREO_COUNT>  (1) 
0

>  <PUBCHEM_BOND_UDEF_STEREO_COUNT>  (1) 
0

>  <PUBCHEM_ISOTOPIC_ATOM_COUNT>  (1) 
0

>  <PUBCHEM_COMPONENT_COUNT>  (1) 
1

>  <PUBCHEM_CACTVS_TAUTO_COUNT>  (1) 
1

>  <PUBCHEM_CONFORMER_ID>  (1) 
0000986900000001

>  <PUBCHEM_MMFF94_ENERGY>  (1) 
52.8543

>  <PUBCHEM_FEATURE_SELFOVERLAP>  (1) 
35.702

>  <PUBCHEM_SHAPE_FINGERPRINT>  (1) 
10050765 1 17906171008357010564
10090160 65 18412820287892839945
10411042 1 17833830469571701362
1100329 8 18411132550581774674
11582403 64 16376576421491676517
12107183 9 18192130807108595200
12553582 1 17906447723612794863
12788726 201 17327167158049720472
12954195 1 17761789759598782316
13140716 1 18408602586662336522
13540713 5 17754726462811450016
13785724 45 17263296029808555087
138480 1 18050285864764758031
13955234 65 18409735019589255945
14178342 30 17906152299204747232
14790565 3 18336553810609947276
15927050 60 18411982503203732822
16728300 4 17245518137899584890
17138139 8 17627479926125086975
19427546 62 18409729599456611373
19591789 44 18266459802884004174
20028762 73 18200864081200465063
20157964 124 18338230471864383693
20510252 161 17547008988990451952
20642791 105 17906158912863493808
20645477 70 18189329079211824085
20739085 24 18265615377595409936
21197605 99 18336275647501337019
21307412 95 18056229997473098172
21796203 349 17833299452520830651
2255824 54 18339927008882014373
23558518 356 18197771309572800310
23559900 14 18337388219765281601
23845131 108 18336823212337753241
23929065 36 17335044046598698312
266924 87 17763463211742547726
283562 15 17543625791680065194
3091708 16 9189313010695858370
3178227 256 18336281071506415880
3421961 26 18121500154974861619
3886686 26 17835763725252905112
474 4 18411418431857710657
5309563 4 17761771763369319903
5312544 6 18411695509019414797
57527573 199 17416098789662614184
59025328 239 17261543489450822957
633830 44 18272655670628108213
6443956 14 17976260132107246181
653340 110 17836079352980728081
7097593 13 17767128597094196017
8272917 22 18340209583555352397
9777508 108 18052534666628032521
9981440 41 18337952406611619753

>  <PUBCHEM_SHAPE_MULTIPOLES>  (1) 
459.37
8.47
6.46
0.81
12.1
5.21
0.06
-9.33
0.83
-3.47
-0.1
0.47
-0.2
-1.05

>  <PUBCHEM_SHAPE_SELFOVERLAP>  (1) 
996.467

>  <PUBCHEM_SHAPE_VOLUME>  (1) 
256.9

>  <PUBCHEM_COORDINATE_TYPE>  (1) 
2
5
10

$$$$
