39030
     RDKit          3D

 17 18  0  0  1  0  0  0  0  0999 V2000
   -1.9113    1.3954    1.3991 O   0  0  0  0  0  0  0  0  0  0  0  0
   -3.3578    2.0406   -0.2235 O   0  0  0  0  0  0  0  0  0  0  0  0
   -4.6617   -0.3768    0.0672 N   0  0  0  0  0  0  0  0  0  0  0  0
    2.7208    1.9804   -0.2248 C   0  0  0  0  0  0  0  0  0  0  0  0
    4.0012    1.3620    0.3335 C   0  0  0  0  0  0  0  0  0  0  0  0
    2.0474    1.1376   -1.3074 C   0  0  0  0  0  0  0  0  0  0  0  0
    3.8013    0.0571    1.1021 C   0  0  0  0  0  0  0  0  0  0  0  0
    1.2288   -0.0001   -0.7486 C   0  0  0  0  0  0  0  0  0  0  0  0
    3.3047   -1.1009    0.2370 C   0  0  0  0  0  0  0  0  0  0  0  0
    1.8194   -1.0515   -0.0233 C   0  0  0  0  0  0  0  0  0  0  0  0
   -0.1596   -0.0133   -0.9674 C   0  0  0  0  0  0  0  0  0  0  0  0
   -0.9533   -1.0482   -0.4741 C   0  0  0  0  0  0  0  0  0  0  0  0
    1.0064   -2.0890    0.4650 C   0  0  0  0  0  0  0  0  0  0  0  0
   -2.4251   -1.0401   -0.7150 C   0  0  0  0  0  0  0  0  0  0  0  0
   -0.3700   -2.0864    0.2423 C   0  0  0  0  0  0  0  0  0  0  0  0
   -3.2317   -0.3191    0.3814 C   0  0  0  0  0  0  0  0  0  0  0  0
   -2.8595    1.1523    0.4566 C   0  0  0  0  0  0  0  0  0  0  0  0
  1 17  1  0
  2 17  2  0
  3 16  1  0
  4  5  1  0
  4  6  1  0
  5  7  1  0
  6  8  1  0
  7  9  1  0
  8 10  2  0
  8 11  1  0
  9 10  1  0
 10 13  1  0
 11 12  2  0
 12 14  1  0
 12 15  1  0
 13 15  2  0
 14 16  1  0
 16 17  1  0
M  END
>  <PUBCHEM_COMPOUND_CID>  (1) 
39030

>  <PUBCHEM_CONFORMER_RMSD>  (1) 
0.6

>  <PUBCHEM_CONFORMER_DIVERSEORDER>  (1) 
5
19
90
65
31
54
44
22
70
86
88
40
53
10
87
79
46
16
12
85
75
34
42
56
27
47
72
63
61
29
59
80
50
36
84
38
69
78
67
2
24
41
39
77
60
32
49
17
33
66
11
7
37
82
23
3
21
55
25
62
14
30
83
43
51
20
13
64
6
1
45
89
35
71
18
68
81
28
74
73
15
76
26
8
58
9
4
52
48
57

>  <PUBCHEM_MMFF94_PARTIAL_CHARGES>  (1) 
20
1 -0.65
10 -0.14
11 -0.15
12 -0.14
13 -0.15
14 0.14
15 -0.15
16 0.33
17 0.66
2 -0.57
28 0.15
29 0.15
3 -0.99
32 0.15
34 0.36
35 0.36
36 0.5
6 0.14
8 -0.14
9 0.14

>  <PUBCHEM_EFFECTIVE_ROTOR_COUNT>  (1) 
4

>  <PUBCHEM_PHARMACOPHORE_FEATURES>  (1) 
7
1 1 acceptor
1 2 acceptor
1 3 cation
1 3 donor
3 1 2 17 anion
6 8 10 11 12 13 15 rings
7 4 5 6 7 8 9 10 rings

>  <PUBCHEM_HEAVY_ATOM_COUNT>  (1) 
17

>  <PUBCHEM_ATOM_DEF_STEREO_COUNT>  (1) 
0

>  <PUBCHEM_ATOM_UDEF_STEREO_COUNT>  (1) 
1

>  <PUBCHEM_BOND_DEF_STEREO_COUNT>  (1) 
0

>  <PUBCHEM_BOND_UDEF_STEREO_COUNT>  (1) 
0

>  <PUBCHEM_ISOTOPIC_ATOM_COUNT>  (1) 
0

>  <PUBCHEM_COMPONENT_COUNT>  (1) 
1

>  <PUBCHEM_CACTVS_TAUTO_COUNT>  (1) 
1

>  <PUBCHEM_CONFORMER_ID>  (1) 
0000987600000005

>  <PUBCHEM_MMFF94_ENERGY>  (1) 
31.6768

>  <PUBCHEM_FEATURE_SELFOVERLAP>  (1) 
35.587

>  <PUBCHEM_SHAPE_FINGERPRINT>  (1) 
10465860 228 18339364063350297230
10646746 165 18131071545560493104
10980938 120 18335425638411326686
11370993 70 18334008380950437267
11471102 22 17385720296740201518
11640471 11 18343304725698054553
11715629 250 18273500078245884759
12251169 10 18259981608736980518
12491281 212 18263084469400364498
12633257 1 16226055470003568425
12644460 14 16443355312160782700
12670545 47 16732994136278650714
12670546 177 12607107556828789098
14787075 74 18270114751090973307
15209294 21 18340759408273015248
15442244 35 18339078186164139370
15536298 74 18341897376779659198
15775835 57 18343024401783258489
16945 1 18195816382193679078
17802600 8 18411415111863399317
18186145 218 18201450133507781014
20510252 161 17833559268314557186
20645477 70 9294993653389835147
20715895 44 17905883683349928165
20871999 31 10519717665426682315
21524375 3 18341335573308251222
21652331 79 18341894121125915961
22854114 111 18409172103689325017
23184049 59 18040710390029153486
23402539 116 18130216189854489567
23557571 272 16988279905767752031
23559900 14 17987517000845935606
2748010 2 17754153307530092998
2838139 119 15912745294411017456
305870 269 18408885109679859874
3323516 105 11167928182597837597
4340502 62 17967257503483964859
474 4 18334294309639402648
6333272 397 18409168839382454362
7364860 26 18271530793007721838

>  <PUBCHEM_SHAPE_MULTIPOLES>  (1) 
333.13
7.47
2.21
1.06
2.22
0.07
0.01
2.64
-1.54
-0.22
-0.17
-0.2
0.21
-0.58

>  <PUBCHEM_SHAPE_SELFOVERLAP>  (1) 
693.654

>  <PUBCHEM_SHAPE_VOLUME>  (1) 
187

>  <PUBCHEM_COORDINATE_TYPE>  (1) 
2
5
10

$$$$
