39031
     RDKit          3D

 27 29  0  0  1  0  0  0  0  0999 V2000
    2.2600   -0.0107   -1.9699 S   0  0  0  0  0  0  0  0  0  0  0  0
   -4.0538   -1.4351   -0.3254 S   0  0  0  0  0  0  0  0  0  0  0  0
    1.2789   -0.9094    2.2080 O   0  0  0  0  0  0  0  0  0  0  0  0
    5.7894    0.7952    0.9080 O   0  0  0  0  0  0  0  0  0  0  0  0
    5.3534   -1.0177   -0.4033 O   0  0  0  0  0  0  0  0  0  0  0  0
   -1.4949   -1.8937    1.1858 O   0  0  0  0  0  0  0  0  0  0  0  0
   -3.6627   -2.8384   -1.0582 O   0  0  0  0  0  0  0  0  0  0  0  0
   -5.0832   -0.7719   -1.1028 O   0  0  0  0  0  0  0  0  0  0  0  0
   -4.2105   -1.6780    1.0962 O   0  0  0  0  0  0  0  0  0  0  0  0
    2.8245   -0.9194    0.4258 N   0  0  0  0  0  0  0  0  0  0  0  0
   -0.1773   -1.2521   -0.6121 N   0  0  0  0  0  0  0  0  0  0  0  0
    2.3730   -1.4619   -0.8564 C   0  0  0  0  0  0  0  0  0  0  0  0
    2.9275    1.1855   -0.7097 C   0  0  0  0  0  0  0  0  0  0  0  0
    3.5350    0.3387    0.4312 C   0  0  0  0  0  0  0  0  0  0  0  0
    1.0715   -1.8710   -0.1474 C   0  0  0  0  0  0  0  0  0  0  0  0
    1.6751   -1.2023    1.1030 C   0  0  0  0  0  0  0  0  0  0  0  0
    3.9322    2.1212   -1.3898 C   0  0  0  0  0  0  0  0  0  0  0  0
    1.7414    2.0184   -0.1950 C   0  0  0  0  0  0  0  0  0  0  0  0
    4.9685   -0.0578    0.2478 C   0  0  0  0  0  0  0  0  0  0  0  0
   -1.3732   -1.3179    0.1068 C   0  0  0  0  0  0  0  0  0  0  0  0
   -2.5152   -0.6046   -0.5910 C   0  0  0  0  0  0  0  0  0  0  0  0
   -2.6954    0.8239   -0.1388 C   0  0  0  0  0  0  0  0  0  0  0  0
   -3.2012    1.7599   -1.0275 C   0  0  0  0  0  0  0  0  0  0  0  0
   -2.3517    1.1752    1.1573 C   0  0  0  0  0  0  0  0  0  0  0  0
   -3.3674    3.0803   -0.6096 C   0  0  0  0  0  0  0  0  0  0  0  0
   -2.5180    2.4955    1.5752 C   0  0  0  0  0  0  0  0  0  0  0  0
   -3.0258    3.4480    0.6917 C   0  0  0  0  0  0  0  0  0  0  0  0
  1 12  1  0
  1 13  1  0
  2  7  1  0
  2  8  2  0
  2  9  2  0
  2 21  1  0
  3 16  2  0
  4 19  1  0
  5 19  2  0
  6 20  2  0
 10 12  1  0
 10 14  1  0
 10 16  1  0
 11 15  1  0
 11 20  1  0
 12 15  1  0
 13 14  1  0
 13 17  1  0
 13 18  1  0
 14 19  1  0
 15 16  1  0
 20 21  1  0
 21 22  1  0
 22 23  2  0
 22 24  1  0
 23 25  1  0
 24 26  2  0
 25 27  2  0
 26 27  1  0
M  END
>  <PUBCHEM_COMPOUND_CID>  (1) 
39031

>  <PUBCHEM_CONFORMER_RMSD>  (1) 
0.8

>  <PUBCHEM_CONFORMER_DIVERSEORDER>  (1) 
1
35
22
2
42
15
44
11
47
20
38
39
31
12
9
3
6
28
13
17
5
4
46
23
36
18
32
14
43
16
19
37
7
40
33
21
24
45
8
25
29
34
30
41
10
27
26

>  <PUBCHEM_MMFF94_PARTIAL_CHARGES>  (1) 
33
1 -0.45
10 -0.59
11 -0.65
12 0.44
13 0.23
14 0.36
15 0.28
16 0.58
19 0.66
2 1.38
20 0.57
21 0.31
22 -0.14
23 -0.15
24 -0.15
25 -0.15
26 -0.15
27 -0.15
3 -0.57
37 0.37
39 0.5
4 -0.65
40 0.15
41 0.15
42 0.5
43 0.15
44 0.15
45 0.15
5 -0.57
6 -0.57
7 -0.68
8 -0.65
9 -0.65

>  <PUBCHEM_EFFECTIVE_ROTOR_COUNT>  (1) 
6.8

>  <PUBCHEM_PHARMACOPHORE_FEATURES>  (1) 
13
1 11 donor
1 3 acceptor
1 4 acceptor
1 5 acceptor
1 6 acceptor
1 7 acceptor
1 8 acceptor
1 9 acceptor
3 13 17 18 hydrophobe
3 4 5 19 anion
4 2 7 8 9 anion
6 22 23 24 25 26 27 rings
7 1 10 12 13 14 15 16 rings

>  <PUBCHEM_HEAVY_ATOM_COUNT>  (1) 
27

>  <PUBCHEM_ATOM_DEF_STEREO_COUNT>  (1) 
3

>  <PUBCHEM_ATOM_UDEF_STEREO_COUNT>  (1) 
1

>  <PUBCHEM_BOND_DEF_STEREO_COUNT>  (1) 
0

>  <PUBCHEM_BOND_UDEF_STEREO_COUNT>  (1) 
0

>  <PUBCHEM_ISOTOPIC_ATOM_COUNT>  (1) 
0

>  <PUBCHEM_COMPONENT_COUNT>  (1) 
1

>  <PUBCHEM_CACTVS_TAUTO_COUNT>  (1) 
2

>  <PUBCHEM_CONFORMER_ID>  (1) 
0000987700000001

>  <PUBCHEM_MMFF94_ENERGY>  (1) 
70.7523

>  <PUBCHEM_FEATURE_SELFOVERLAP>  (1) 
66.09

>  <PUBCHEM_SHAPE_FINGERPRINT>  (1) 
10498660 4 18270960133361053225
10670039 82 18337971068418561652
11640471 11 18188492350567687489
11796584 16 8214149572964528952
12107183 9 17904191534622017434
12107698 1 18340480157741165244
12166972 35 17458907170697796359
12403260 363 18335416898205620526
12507557 5 18113613512466146462
12633257 1 18114460050926792220
12788726 201 18340216283862622149
13224815 77 18059857242391387897
13965767 371 17753613438245415612
14251751 93 18410857646314183169
14251764 38 18410295852271902112
1601671 61 18261679160854886830
17349148 13 18040996288569250798
192875 21 18262234537916061748
21033648 29 17916850379627734682
21033650 10 18269579190170216406
21857420 4 15258008320007419406
21864079 5 18335710377536899473
22182937 141 18267874895570847153
22749437 52 18410576141246633125
22907989 373 18272646823506888637
23227448 37 18338518526403723285
235170 7 16988569000095502404
23557571 272 17988922262478517291
23558518 356 18262246516965387995
23559900 14 18127967521077478055
283562 15 18409444778980270547
350125 39 18411141354837580457
392239 28 17969238866017462987
469060 322 18336846259327468961
474 4 18261959522612452969
5048184 11 18266464200429900929
5104073 3 18336543803319726122
5895379 119 18342749477148983188
6328613 192 18261684710185040788
9981440 41 18408601444243851467

>  <PUBCHEM_SHAPE_MULTIPOLES>  (1) 
512.3
10.7
3.34
1.54
5.59
1.65
0.14
1.03
-0.71
-3.88
0.01
0.13
0.09
-0.99

>  <PUBCHEM_SHAPE_SELFOVERLAP>  (1) 
1071.904

>  <PUBCHEM_SHAPE_VOLUME>  (1) 
290.9

>  <PUBCHEM_COORDINATE_TYPE>  (1) 
2
5
10

$$$$
