39049
     RDKit          3D

 23 25  0  0  1  0  0  0  0  0999 V2000
    0.8616   -3.1508    1.5766 O   0  0  0  0  0  0  0  0  0  0  0  0
    2.0043   -2.0274   -0.1091 N   0  0  0  0  0  0  0  0  0  0  0  0
    1.0157    0.0612   -1.0527 C   0  0  0  0  0  0  0  0  0  0  0  0
    1.9256   -1.1646   -1.2961 C   0  0  0  0  0  0  0  0  0  0  0  0
   -0.2766   -0.3564   -0.3854 C   0  0  0  0  0  0  0  0  0  0  0  0
   -0.3346   -1.5019    0.4227 C   0  0  0  0  0  0  0  0  0  0  0  0
   -3.8616    0.8650   -0.1601 C   0  0  0  0  0  0  0  0  0  0  0  0
   -2.6354    0.0408    0.0427 C   0  0  0  0  0  0  0  0  0  0  0  0
    1.7446    1.1842   -0.3224 C   0  0  0  0  0  0  0  0  0  0  0  0
   -1.4369    0.4127   -0.5650 C   0  0  0  0  0  0  0  0  0  0  0  0
    0.8862   -2.3105    0.6799 C   0  0  0  0  0  0  0  0  0  0  0  0
    1.4562   -1.9790   -2.5109 C   0  0  0  0  0  0  0  0  0  0  0  0
   -1.5402   -1.8698    1.0341 C   0  0  0  0  0  0  0  0  0  0  0  0
   -2.6870   -1.1000    0.8394 C   0  0  0  0  0  0  0  0  0  0  0  0
    3.2649   -2.7167    0.1316 C   0  0  0  0  0  0  0  0  0  0  0  0
   -4.4053    1.4134    1.1956 C   0  0  0  0  0  0  0  0  0  0  0  0
   -5.0021    0.0299   -0.8208 C   0  0  0  0  0  0  0  0  0  0  0  0
   -3.6823    2.1215   -1.0755 C   0  0  0  0  0  0  0  0  0  0  0  0
    1.7297    1.2246    1.0674 C   0  0  0  0  0  0  0  0  0  0  0  0
    2.4179    2.1571   -1.0527 C   0  0  0  0  0  0  0  0  0  0  0  0
    2.3965    2.2516    1.7355 C   0  0  0  0  0  0  0  0  0  0  0  0
    3.0847    3.1839   -0.3844 C   0  0  0  0  0  0  0  0  0  0  0  0
    3.0740    3.2311    1.0097 C   0  0  0  0  0  0  0  0  0  0  0  0
  1 11  2  0
  2  4  1  0
  2 11  1  0
  2 15  1  0
  3  4  1  0
  3  5  1  0
  3  9  1  0
  4 12  1  0
  5  6  2  0
  5 10  1  0
  6 11  1  0
  6 13  1  0
  7  8  1  0
  7 16  1  0
  7 17  1  0
  7 18  1  0
  8 10  2  0
  8 14  1  0
  9 19  2  0
  9 20  1  0
 13 14  2  0
 19 21  1  0
 20 22  2  0
 21 23  2  0
 22 23  1  0
M  END
>  <PUBCHEM_COMPOUND_CID>  (1) 
39049

>  <PUBCHEM_CONFORMER_RMSD>  (1) 
0.6

>  <PUBCHEM_CONFORMER_DIVERSEORDER>  (1) 
1
4
2
3

>  <PUBCHEM_MMFF94_PARTIAL_CHARGES>  (1) 
27
1 -0.57
10 -0.15
11 0.54
13 -0.15
14 -0.15
15 0.3
19 -0.15
2 -0.66
20 -0.15
21 -0.15
22 -0.15
23 -0.15
26 0.15
3 0.29
30 0.15
31 0.15
4 0.3
44 0.15
45 0.15
46 0.15
47 0.15
48 0.15
5 -0.14
6 0.09
7 0.14
8 -0.14
9 -0.14

>  <PUBCHEM_EFFECTIVE_ROTOR_COUNT>  (1) 
2.6

>  <PUBCHEM_PHARMACOPHORE_FEATURES>  (1) 
5
1 1 acceptor
4 7 16 17 18 hydrophobe
6 2 3 4 5 6 11 rings
6 5 6 8 10 13 14 rings
6 9 19 20 21 22 23 rings

>  <PUBCHEM_HEAVY_ATOM_COUNT>  (1) 
23

>  <PUBCHEM_ATOM_DEF_STEREO_COUNT>  (1) 
2

>  <PUBCHEM_ATOM_UDEF_STEREO_COUNT>  (1) 
0

>  <PUBCHEM_BOND_DEF_STEREO_COUNT>  (1) 
0

>  <PUBCHEM_BOND_UDEF_STEREO_COUNT>  (1) 
0

>  <PUBCHEM_ISOTOPIC_ATOM_COUNT>  (1) 
0

>  <PUBCHEM_COMPONENT_COUNT>  (1) 
1

>  <PUBCHEM_CACTVS_TAUTO_COUNT>  (1) 
1

>  <PUBCHEM_CONFORMER_ID>  (1) 
0000988900000001

>  <PUBCHEM_MMFF94_ENERGY>  (1) 
74.9157

>  <PUBCHEM_FEATURE_SELFOVERLAP>  (1) 
25.395

>  <PUBCHEM_SHAPE_FINGERPRINT>  (1) 
10165383 225 17831903300381156496
10764073 3 15003254396529622541
11578080 2 18048352021707004961
11725454 13 17986391320055881796
12173636 292 17761207022451173644
12293681 160 17974320667169995478
12633257 1 17969197054352483320
12730499 353 18199760292069182339
12788726 201 17471295050539228042
13134695 92 18197773306669172414
13140716 1 18334585641761522683
13294875 104 18261111829238621570
133893 2 18122589899884118422
13464514 151 18341909488545287692
13681431 1 18058463006013331422
13878862 14 18192702351238853773
13911987 19 17554940642803987998
13965767 371 17749378274327707565
14178342 30 18041284391049621379
14955137 171 18051709758330383139
15131766 46 16192485155800558826
15163728 17 17972059160244911660
15230672 131 18190184684812902636
15295992 7 18263944154560322193
16945 1 17825693061165544183
17138139 8 15668391667883345004
17980427 23 17702944699953181280
18186145 218 18338522924481551525
20510252 161 17977675534374437593
20600515 1 17984426226468351354
20691752 17 17894631422889166125
21524375 3 18198615721385999388
21731228 192 18192421090244895808
21756936 100 17832979821766960796
21860390 5 18200027335481142148
22149856 69 18041860471735827931
2255824 54 18410859815436211127
23419403 2 16955304280935784214
23559900 14 18186804660501516047
238 59 18059581333529029045
25222932 49 13914899702947493689
2748010 2 18116735056411821791
350125 39 18263093239375741755
474 4 18409161147486605573
495365 180 18201715176003089597
5104073 3 18410866447683160435
5265222 85 17688889935876189828
5895379 119 16556516872460791225
7364860 26 18412260610324280722
7808743 9 17758403259094969892
81228 2 16616728770734111846
84936 182 18343023298003290809
9981440 41 18195518427147574017

>  <PUBCHEM_SHAPE_MULTIPOLES>  (1) 
462.48
7.29
3.98
1.66
8.51
0.16
0.3
4.71
0.13
-4.53
-0.81
-0.54
-0.33
1

>  <PUBCHEM_SHAPE_SELFOVERLAP>  (1) 
995.364

>  <PUBCHEM_SHAPE_VOLUME>  (1) 
255.4

>  <PUBCHEM_COORDINATE_TYPE>  (1) 
2
5
10

$$$$
