39055
     RDKit          3D

 17 19  0  0  1  0  0  0  0  0999 V2000
    1.3862    2.5546    0.0903 N   0  0  0  0  0  0  0  0  0  0  0  0
   -0.1252    0.6819   -0.5370 C   0  0  0  0  0  0  0  0  0  0  0  0
    0.0140    2.0435    0.2104 C   0  0  0  0  0  0  0  0  0  0  0  0
    1.0798   -0.2374   -0.3391 C   0  0  0  0  0  0  0  0  0  0  0  0
    2.2506    0.2471    0.2726 C   0  0  0  0  0  0  0  0  0  0  0  0
    2.3213    1.6632    0.7780 C   0  0  0  0  0  0  0  0  0  0  0  0
   -1.4473    0.0117   -0.1729 C   0  0  0  0  0  0  0  0  0  0  0  0
   -0.9386    3.1009   -0.3610 C   0  0  0  0  0  0  0  0  0  0  0  0
    1.0669   -1.5554   -0.8282 C   0  0  0  0  0  0  0  0  0  0  0  0
    3.3512   -0.6049    0.4479 C   0  0  0  0  0  0  0  0  0  0  0  0
   -1.5036   -0.8525    0.9142 C   0  0  0  0  0  0  0  0  0  0  0  0
   -2.5819    0.2716   -0.9324 C   0  0  0  0  0  0  0  0  0  0  0  0
    2.1724   -2.3903   -0.6618 C   0  0  0  0  0  0  0  0  0  0  0  0
    3.3109   -1.9177   -0.0172 C   0  0  0  0  0  0  0  0  0  0  0  0
   -2.7117   -1.4655    1.2466 C   0  0  0  0  0  0  0  0  0  0  0  0
   -3.7901   -0.3411   -0.6000 C   0  0  0  0  0  0  0  0  0  0  0  0
   -3.8549   -1.2098    0.4896 C   0  0  0  0  0  0  0  0  0  0  0  0
  1  3  1  0
  1  6  1  0
  2  3  1  0
  2  4  1  0
  2  7  1  0
  3  8  1  0
  4  5  2  0
  4  9  1  0
  5  6  1  0
  5 10  1  0
  7 11  2  0
  7 12  1  0
  9 13  2  0
 10 14  2  0
 11 15  1  0
 12 16  2  0
 13 14  1  0
 15 17  2  0
 16 17  1  0
M  END
>  <PUBCHEM_COMPOUND_CID>  (1) 
39055

>  <PUBCHEM_CONFORMER_RMSD>  (1) 
0.6

>  <PUBCHEM_CONFORMER_DIVERSEORDER>  (1) 
3
1
2
4

>  <PUBCHEM_MMFF94_PARTIAL_CHARGES>  (1) 
26
1 -0.9
10 -0.15
11 -0.15
12 -0.15
13 -0.15
14 -0.15
15 -0.15
16 -0.15
17 -0.15
2 0.29
20 0.36
26 0.15
27 0.15
28 0.15
29 0.15
3 0.27
30 0.15
31 0.15
32 0.15
33 0.15
34 0.15
4 -0.14
5 -0.14
6 0.41
7 -0.14
9 -0.15

>  <PUBCHEM_EFFECTIVE_ROTOR_COUNT>  (1) 
1.8

>  <PUBCHEM_PHARMACOPHORE_FEATURES>  (1) 
5
1 1 cation
1 1 donor
6 1 2 3 4 5 6 rings
6 4 5 9 10 13 14 rings
6 7 11 12 15 16 17 rings

>  <PUBCHEM_HEAVY_ATOM_COUNT>  (1) 
17

>  <PUBCHEM_ATOM_DEF_STEREO_COUNT>  (1) 
1

>  <PUBCHEM_ATOM_UDEF_STEREO_COUNT>  (1) 
1

>  <PUBCHEM_BOND_DEF_STEREO_COUNT>  (1) 
0

>  <PUBCHEM_BOND_UDEF_STEREO_COUNT>  (1) 
0

>  <PUBCHEM_ISOTOPIC_ATOM_COUNT>  (1) 
0

>  <PUBCHEM_COMPONENT_COUNT>  (1) 
1

>  <PUBCHEM_CACTVS_TAUTO_COUNT>  (1) 
1

>  <PUBCHEM_CONFORMER_ID>  (1) 
0000988F00000003

>  <PUBCHEM_MMFF94_ENERGY>  (1) 
45.6289

>  <PUBCHEM_FEATURE_SELFOVERLAP>  (1) 
25.393

>  <PUBCHEM_SHAPE_FINGERPRINT>  (1) 
10493431 412 17693372661123692424
10967382 1 18339920540671861588
11471102 22 18341894116714780634
11578080 2 13409290431111237630
11582403 64 16388376492098272133
116883 192 18339360743235355333
12363563 72 18338240362303621638
12553582 1 18339377278690620294
13140716 1 18053653952833599082
13296908 3 18333169483527404435
14115302 16 17749399122035132543
14790565 3 18050577536110945784
15219456 202 18335135453304171785
15309172 13 17908424997638061593
15490181 7 17184476958128161621
16945 1 18342738546029427284
17357779 13 18339916017960529460
19049666 15 18334006160462888093
19591789 44 17544484505950917628
200 152 17989197149497797919
20201158 50 18408321081673946451
204376 136 17910670196340298680
20645477 70 18337941402862864543
21501502 16 18267872692057471292
22721475 48 18337113375737845966
23184049 29 18192711142244890154
2334 1 17837201946105565942
23419403 2 18043782399763369044
23526113 38 18262216877384950461
23558518 356 18262799545301755704
23559900 14 18187638060393270538
2748010 2 18056752127439788646
3729539 64 17902825125574650116
54173680 148 17836085568188834142
7364860 26 18266464389207573097
77492 1 17131834317386056007
81228 2 18192156992542412265
8809292 202 18192992612736508596
9709674 26 18124873452407074502

>  <PUBCHEM_SHAPE_MULTIPOLES>  (1) 
344.87
5.96
2.92
1
2.13
1.81
-0.07
-3.37
-0.51
-1.06
0.08
0.36
-0.22
1.02

>  <PUBCHEM_SHAPE_SELFOVERLAP>  (1) 
748.693

>  <PUBCHEM_SHAPE_VOLUME>  (1) 
185

>  <PUBCHEM_COORDINATE_TYPE>  (1) 
2
5
10

$$$$
