39064
     RDKit          3D

 22 24  0  0  1  0  0  0  0  0999 V2000
    5.2753    0.9391   -0.5793 O   0  0  0  0  0  0  0  0  0  0  0  0
    1.1536   -0.0914   -0.4082 N   0  0  0  0  0  0  0  0  0  0  0  0
    5.5404    0.3456    1.6262 N   0  0  0  0  0  0  0  0  0  0  0  0
    0.2608    0.2751   -1.5217 C   0  0  0  0  0  0  0  0  0  0  0  0
   -1.2247    0.0728   -1.0866 C   0  0  0  0  0  0  0  0  0  0  0  0
   -1.4566   -1.2453   -0.3633 C   0  0  0  0  0  0  0  0  0  0  0  0
    1.0481   -1.5052   -0.0302 C   0  0  0  0  0  0  0  0  0  0  0  0
   -0.3749   -1.9739    0.1624 C   0  0  0  0  0  0  0  0  0  0  0  0
    2.5436    0.2948   -0.6291 C   0  0  0  0  0  0  0  0  0  0  0  0
    0.5449   -0.4647   -2.8428 C   0  0  0  0  0  0  0  0  0  0  0  0
   -1.7347    1.2800   -0.3013 C   0  0  0  0  0  0  0  0  0  0  0  0
   -2.7622   -1.7358   -0.2000 C   0  0  0  0  0  0  0  0  0  0  0  0
   -0.6162   -3.1846    0.8280 C   0  0  0  0  0  0  0  0  0  0  0  0
    3.3547    0.1096    0.6490 C   0  0  0  0  0  0  0  0  0  0  0  0
   -1.5930    1.3093    1.0803 C   0  0  0  0  0  0  0  0  0  0  0  0
   -2.3350    2.3346   -0.9775 C   0  0  0  0  0  0  0  0  0  0  0  0
   -2.9898   -2.9357    0.4725 C   0  0  0  0  0  0  0  0  0  0  0  0
   -1.9176   -3.6596    0.9859 C   0  0  0  0  0  0  0  0  0  0  0  0
   -2.0589    2.4114    1.7974 C   0  0  0  0  0  0  0  0  0  0  0  0
   -2.8009    3.4366   -0.2606 C   0  0  0  0  0  0  0  0  0  0  0  0
    4.8059    0.5124    0.4717 C   0  0  0  0  0  0  0  0  0  0  0  0
   -2.6628    3.4750    1.1269 C   0  0  0  0  0  0  0  0  0  0  0  0
  1 21  2  0
  2  4  1  0
  2  7  1  0
  2  9  1  0
  3 21  1  0
  4  5  1  0
  4 10  1  0
  5  6  1  0
  5 11  1  0
  6  8  2  0
  6 12  1  0
  7  8  1  0
  8 13  1  0
  9 14  1  0
 11 15  2  0
 11 16  1  0
 12 17  2  0
 13 18  2  0
 14 21  1  0
 15 19  1  0
 16 20  2  0
 17 18  1  0
 19 22  2  0
 20 22  1  0
M  END
>  <PUBCHEM_COMPOUND_CID>  (1) 
39064

>  <PUBCHEM_CONFORMER_RMSD>  (1) 
0.8

>  <PUBCHEM_CONFORMER_DIVERSEORDER>  (1) 
1
21
5
13
6
11
17
12
3
18
4
26
9
25
7
24
8
15
16
10
2
14
23
19
20
22

>  <PUBCHEM_MMFF94_PARTIAL_CHARGES>  (1) 
32
1 -0.57
11 -0.14
12 -0.15
13 -0.15
14 0.06
15 -0.15
16 -0.15
17 -0.15
18 -0.15
19 -0.15
2 -0.81
20 -0.15
21 0.57
22 -0.15
3 -0.8
32 0.15
33 0.15
36 0.15
37 0.15
38 0.15
39 0.15
4 0.27
40 0.15
41 0.15
42 0.15
43 0.37
44 0.37
5 0.29
6 -0.14
7 0.41
8 -0.14
9 0.27

>  <PUBCHEM_EFFECTIVE_ROTOR_COUNT>  (1) 
4.8

>  <PUBCHEM_PHARMACOPHORE_FEATURES>  (1) 
6
1 1 acceptor
1 2 cation
1 3 donor
6 11 15 16 19 20 22 rings
6 2 4 5 6 7 8 rings
6 6 8 12 13 17 18 rings

>  <PUBCHEM_HEAVY_ATOM_COUNT>  (1) 
22

>  <PUBCHEM_ATOM_DEF_STEREO_COUNT>  (1) 
1

>  <PUBCHEM_ATOM_UDEF_STEREO_COUNT>  (1) 
1

>  <PUBCHEM_BOND_DEF_STEREO_COUNT>  (1) 
0

>  <PUBCHEM_BOND_UDEF_STEREO_COUNT>  (1) 
0

>  <PUBCHEM_ISOTOPIC_ATOM_COUNT>  (1) 
0

>  <PUBCHEM_COMPONENT_COUNT>  (1) 
1

>  <PUBCHEM_CACTVS_TAUTO_COUNT>  (1) 
2

>  <PUBCHEM_CONFORMER_ID>  (1) 
0000989800000001

>  <PUBCHEM_MMFF94_ENERGY>  (1) 
60.9556

>  <PUBCHEM_FEATURE_SELFOVERLAP>  (1) 
30.467

>  <PUBCHEM_SHAPE_FINGERPRINT>  (1) 
1100329 8 18337115686968691681
11036077 4 18189315923806345698
11036077 51 18337382739012576034
11443803 9 15724399952598761676
11578080 2 16912053968712249508
11640471 11 17625806181184851553
11646440 116 18267596865569611651
12107183 9 18045486527449968034
12293681 160 18195217041461971687
12788726 201 18191037896100863950
12930653 34 18412827975873730918
13004483 165 18120093037573354115
13134695 92 17763743595834560023
13140716 1 18120944064079229571
13149001 5 17481462320222878486
13583140 156 17988633121792421946
14142880 1 18261943081345619557
14178342 30 18335140886759937934
14468879 13 17704067361634121524
14565420 104 17910689669980865449
14787075 74 18271509911314325117
15131766 46 15696020668949774824
17980427 23 16984354761390419839
17980427 26 17762886680659106982
19765921 60 17913763917123508985
20510252 161 18410571824830698946
20600515 1 18123487230385218343
21120745 212 17974878333775442556
21401589 2 18059857203642341569
21524375 3 17984973800211876420
21650355 55 18265335199545848259
21731228 192 18264494979114171648
22182937 141 18343304747357981648
23419403 2 17842543326702193249
23558518 356 18339367366085449623
23559900 14 18045774856746037620
23845131 108 18120944906446818361
283562 15 18409443725980046891
3380486 77 17898306132414932503
394222 165 17338154105474029577
474 4 17909260291362110488
495365 180 17541107463471441757
497634 4 18041557053185821396
5104073 3 18263625361155985504
7226269 152 18409727404807288647
7288768 16 17844547508160221265
81228 2 18124909895531375151
9981440 41 17631718371181751406

>  <PUBCHEM_SHAPE_MULTIPOLES>  (1) 
436.92
7.23
4.5
1.73
15.06
1
0.71
-4.06
-2.69
-6.65
-1.89
0.25
-0.39
0.06

>  <PUBCHEM_SHAPE_SELFOVERLAP>  (1) 
934.297

>  <PUBCHEM_SHAPE_VOLUME>  (1) 
241.5

>  <PUBCHEM_COORDINATE_TYPE>  (1) 
2
5
10

$$$$
