39067
     RDKit          3D

 16 16  0  0  1  0  0  0  0  0999 V2000
   -3.9146   -0.1554   -0.2426 C   0  0  0  0  0  0  0  0  0  0  0  0
   -3.0253   -0.9761    0.6449 C   0  0  0  0  0  0  0  0  0  0  0  0
   -4.2840   -1.5722    0.0860 C   0  0  0  0  0  0  0  0  0  0  0  0
   -4.7090    0.9330    0.3917 C   0  0  0  0  0  0  0  0  0  0  0  0
   -1.7033   -1.4763    0.1475 C   0  0  0  0  0  0  0  0  0  0  0  0
   -3.4773    0.1400   -1.6358 C   0  0  0  0  0  0  0  0  0  0  0  0
   -0.5732   -0.4952    0.4634 C   0  0  0  0  0  0  0  0  0  0  0  0
   -5.9455    1.3058   -0.4507 C   0  0  0  0  0  0  0  0  0  0  0  0
   -3.8772    2.1798    0.6433 C   0  0  0  0  0  0  0  0  0  0  0  0
    0.7956   -0.9586   -0.0446 C   0  0  0  0  0  0  0  0  0  0  0  0
    1.9346   -0.0103    0.3387 C   0  0  0  0  0  0  0  0  0  0  0  0
    3.3119   -0.5031   -0.1171 C   0  0  0  0  0  0  0  0  0  0  0  0
    4.4492    0.4555    0.2426 C   0  0  0  0  0  0  0  0  0  0  0  0
    5.7983   -0.0775   -0.2457 C   0  0  0  0  0  0  0  0  0  0  0  0
    6.9409    0.8596    0.1454 C   0  0  0  0  0  0  0  0  0  0  0  0
    8.2789    0.3510   -0.3669 C   0  0  0  0  0  0  0  0  0  0  0  0
  1  2  1  0
  1  3  1  0
  1  4  1  0
  1  6  1  0
  2  3  1  0
  2  5  1  0
  4  8  1  0
  4  9  1  0
  5  7  1  0
  7 10  1  0
 10 11  1  0
 11 12  1  0
 12 13  1  0
 13 14  1  0
 14 15  1  0
 15 16  1  0
M  END
>  <PUBCHEM_COMPOUND_CID>  (1) 
39067

>  <PUBCHEM_CONFORMER_RMSD>  (1) 
1

>  <PUBCHEM_CONFORMER_DIVERSEORDER>  (1) 
2
331
267
312
9
213
68
110
119
193
40
37
121
268
74
82
7
80
73
206
41
272
42
28
156
234
350
166
224
225
215
322
150
139
33
203
204
168
210
107
216
104
195
344
155
27
3
78
6
255
181
164
246
227
218
116
88
97
60
284
65
15
305
208
343
248
241
326
330
295
187
12
161
178
337
300
249
142
62
67
152
4
258
280
232
292
122
61
266
50
294
26
105
260
21
236
43
192
77
17
240
235
84
113
201
315
86
223
38
108
251
14
75
297
243
351
151
348
160
157
11
131
99
211
141
296
93
334
13
76
144
279
321
335
303
252
313
115
288
48
287
18
202
140
256
254
1
306
91
51
239
5
30
182
72
352
59
345
118
285
22
317
222
148
264
242
212
342
245
69
53
347
124
327
282
319
24
189
332
23
126
169
137
205
128
197
180
304
172
66
47
31
310
278
153
32
185
233
49
198
290
133
333
96
311
112
8
336
95
214
45
231
238
114
271
111
338
36
134
109
70
34
55
339
175
191
273
25
228
209
325
200
57
83
269
199
270
44
63
324
136
127
286
58
174
298
291
276
54
261
71
64
129
308
106
85
56
102
167
117
349
293
79
170
29
132
230
194
149
309
316
87
219
318
257
52
35
196
135
244
328
103
125
229
190
186
247
253
16
177
184
163
138
183
259
147
220
283
226
301
10
171
341
275
101
307
89
263
120
265
173
162
158
262
154
143
100
98
221
92
188
130
320
94
81
274
277
145
340
176
207
302
90
46
289
281
19
346
20
146
314
179
217
123
165
237
39
159
250
323
329
299

>  <PUBCHEM_MMFF94_PARTIAL_CHARGES>  (1) 
9
1 -0.19
17 0.1
18 0.1
19 0.1
2 -0.19
3 -0.2
4 0.09
5 0.09
6 0.09

>  <PUBCHEM_EFFECTIVE_ROTOR_COUNT>  (1) 
9.6

>  <PUBCHEM_PHARMACOPHORE_FEATURES>  (1) 
2
1 16 hydrophobe
3 4 8 9 hydrophobe

>  <PUBCHEM_HEAVY_ATOM_COUNT>  (1) 
16

>  <PUBCHEM_ATOM_DEF_STEREO_COUNT>  (1) 
0

>  <PUBCHEM_ATOM_UDEF_STEREO_COUNT>  (1) 
2

>  <PUBCHEM_BOND_DEF_STEREO_COUNT>  (1) 
0

>  <PUBCHEM_BOND_UDEF_STEREO_COUNT>  (1) 
0

>  <PUBCHEM_ISOTOPIC_ATOM_COUNT>  (1) 
0

>  <PUBCHEM_COMPONENT_COUNT>  (1) 
1

>  <PUBCHEM_CACTVS_TAUTO_COUNT>  (1) 
1

>  <PUBCHEM_CONFORMER_ID>  (1) 
0000989B00000002

>  <PUBCHEM_MMFF94_ENERGY>  (1) 
15.1264

>  <PUBCHEM_FEATURE_SELFOVERLAP>  (1) 
10.149

>  <PUBCHEM_SHAPE_FINGERPRINT>  (1) 
10087517 78 18335701620151895764
106641 1 17458351836554788449
10730089 173 18413672400376432544
11315181 36 17894632599483475259
117890 112 18407760339876761402
12091667 2 18413109489357298162
125118 31 18409167753937954952
13073987 5 18335706013628977307
13167372 99 18335422374969703496
13288520 33 10303810986796861419
13533116 47 17168131323076917696
13668630 136 14476958999708812884
13740256 8 8574707996970711914
13964095 4 18342179968996252446
1420 363 11746934283403661362
14251752 14 18131632258268469898
14251764 18 17967247611414600714
14729087 3 18412542128994534504
15048467 5 18333731317000000504
15183329 4 18411981339256474586
15501527 16 18260547809948859983
155225 5 18196373615425239176
15716309 27 8646766699146826736
15778101 99 18409731751155813211
17093844 174 18408321116128383874
17834072 33 10375865290895329994
17834072 8 17775565342602261952
19489759 90 18411701001818505666
20281389 69 17967811626625321836
20621476 66 18333735688797127741
20621476 8 18187083923997421430
20645477 56 18411136923011410875
21150785 3 16200147699161586252
21315763 28 18411138078315356922
21623969 137 12829483736750595160
220451 1 16660359308244258346
23198884 109 18341894077980843195
23402539 116 18202280316579528006
23559900 14 18131345336703704664
270888 7 18193275196596100969
300161 21 18187362112464554458
351380 3 10952045654542657501
42788 4 18409449219923252170
441001 317 18412826880287402689
49783359 22 9295289434812911848
57583515 80 18201721756436156642
59567204 34 18411702062971606320
6327066 14 18263639559938719997
7062679 6 18335426755203297348

>  <PUBCHEM_SHAPE_MULTIPOLES>  (1) 
329.27
20.38
1.58
0.9
40.16
0.31
-0.24
7.65
-2.17
-2.59
0.24
-0.77
0.07
0.04

>  <PUBCHEM_SHAPE_SELFOVERLAP>  (1) 
618.377

>  <PUBCHEM_SHAPE_VOLUME>  (1) 
209.8

>  <PUBCHEM_COORDINATE_TYPE>  (1) 
2
5
10

$$$$
