39070
     RDKit          3D

  8  8  0  0  0  0  0  0  0  0999 V2000
    2.7011   -0.4827   -0.3294 S   0  0  0  0  0  0  0  0  0  0  0  0
    0.7080    1.0613    0.2416 N   0  0  0  0  0  0  0  0  0  0  0  0
   -1.1858   -0.4733    0.5336 C   0  0  0  0  0  0  0  0  0  0  0  0
   -2.0963    0.2793   -0.4376 C   0  0  0  0  0  0  0  0  0  0  0  0
    0.2711   -0.2339    0.2309 C   0  0  0  0  0  0  0  0  0  0  0  0
   -3.5636    0.0091   -0.1452 C   0  0  0  0  0  0  0  0  0  0  0  0
    1.1745   -1.2129   -0.0501 C   0  0  0  0  0  0  0  0  0  0  0  0
    1.9911    1.0532   -0.0438 C   0  0  0  0  0  0  0  0  0  0  0  0
  1  7  1  0
  1  8  1  0
  2  5  1  0
  2  8  2  0
  3  4  1  0
  3  5  1  0
  4  6  1  0
  5  7  2  0
M  END
>  <PUBCHEM_COMPOUND_CID>  (1) 
39070

>  <PUBCHEM_CONFORMER_RMSD>  (1) 
0.4

>  <PUBCHEM_CONFORMER_DIVERSEORDER>  (1) 
1
6
10
3
11
7
9
5
8
2
4

>  <PUBCHEM_MMFF94_PARTIAL_CHARGES>  (1) 
8
1 -0.08
16 0.15
17 0.15
2 -0.57
3 0.18
5 0.05
7 -0.11
8 0.23

>  <PUBCHEM_EFFECTIVE_ROTOR_COUNT>  (1) 
2

>  <PUBCHEM_PHARMACOPHORE_FEATURES>  (1) 
3
1 2 acceptor
1 6 hydrophobe
5 1 2 5 7 8 rings

>  <PUBCHEM_HEAVY_ATOM_COUNT>  (1) 
8

>  <PUBCHEM_ATOM_DEF_STEREO_COUNT>  (1) 
0

>  <PUBCHEM_ATOM_UDEF_STEREO_COUNT>  (1) 
0

>  <PUBCHEM_BOND_DEF_STEREO_COUNT>  (1) 
0

>  <PUBCHEM_BOND_UDEF_STEREO_COUNT>  (1) 
0

>  <PUBCHEM_ISOTOPIC_ATOM_COUNT>  (1) 
0

>  <PUBCHEM_COMPONENT_COUNT>  (1) 
1

>  <PUBCHEM_CACTVS_TAUTO_COUNT>  (1) 
1

>  <PUBCHEM_CONFORMER_ID>  (1) 
0000989E00000001

>  <PUBCHEM_MMFF94_ENERGY>  (1) 
1.8019

>  <PUBCHEM_FEATURE_SELFOVERLAP>  (1) 
15.223

>  <PUBCHEM_SHAPE_FINGERPRINT>  (1) 
11062470 55 14908177551580013555
12897270 3 18410008845086475375
12932764 1 17822003207943827355
14325111 11 18409729590650074119
14390081 3 18259700108080084909
21040471 1 18194120943974518920
21293036 1 18411145740199338166
23402655 69 18412256212794845149
29004967 10 18412268315659146706

>  <PUBCHEM_SHAPE_MULTIPOLES>  (1) 
163.5
4.77
1.13
0.71
3.33
0.05
0.01
0.03
0.72
-0.61
-0.02
0.04
-0.02
0.14

>  <PUBCHEM_SHAPE_SELFOVERLAP>  (1) 
310.507

>  <PUBCHEM_SHAPE_VOLUME>  (1) 
103.5

>  <PUBCHEM_COORDINATE_TYPE>  (1) 
2
5
10

$$$$
