39071
     RDKit          3D

  9  9  0  0  0  0  0  0  0  0999 V2000
    2.0761    1.2735   -0.3152 S   0  0  0  0  0  0  0  0  0  0  0  0
    0.6662   -0.8070    0.2899 N   0  0  0  0  0  0  0  0  0  0  0  0
   -1.5913    0.0784    0.6719 C   0  0  0  0  0  0  0  0  0  0  0  0
   -2.4417   -0.1917   -0.5699 C   0  0  0  0  0  0  0  0  0  0  0  0
   -0.1421    0.2949    0.3188 C   0  0  0  0  0  0  0  0  0  0  0  0
   -3.8964   -0.4388   -0.2035 C   0  0  0  0  0  0  0  0  0  0  0  0
    0.4113    1.5038    0.0260 C   0  0  0  0  0  0  0  0  0  0  0  0
    1.8751   -0.4080   -0.0373 C   0  0  0  0  0  0  0  0  0  0  0  0
    3.0427   -1.3050   -0.1807 C   0  0  0  0  0  0  0  0  0  0  0  0
  1  7  1  0
  1  8  1  0
  2  5  1  0
  2  8  2  0
  3  4  1  0
  3  5  1  0
  4  6  1  0
  5  7  2  0
  8  9  1  0
M  END
>  <PUBCHEM_COMPOUND_CID>  (1) 
39071

>  <PUBCHEM_CONFORMER_RMSD>  (1) 
0.4

>  <PUBCHEM_CONFORMER_DIVERSEORDER>  (1) 
1
6
10
5
9
8
3
11
4
12
7
2

>  <PUBCHEM_MMFF94_PARTIAL_CHARGES>  (1) 
8
1 -0.08
17 0.15
2 -0.57
3 0.18
5 0.05
7 -0.11
8 0.2
9 0.18

>  <PUBCHEM_EFFECTIVE_ROTOR_COUNT>  (1) 
2

>  <PUBCHEM_PHARMACOPHORE_FEATURES>  (1) 
3
1 2 acceptor
1 6 hydrophobe
5 1 2 5 7 8 rings

>  <PUBCHEM_HEAVY_ATOM_COUNT>  (1) 
9

>  <PUBCHEM_ATOM_DEF_STEREO_COUNT>  (1) 
0

>  <PUBCHEM_ATOM_UDEF_STEREO_COUNT>  (1) 
0

>  <PUBCHEM_BOND_DEF_STEREO_COUNT>  (1) 
0

>  <PUBCHEM_BOND_UDEF_STEREO_COUNT>  (1) 
0

>  <PUBCHEM_ISOTOPIC_ATOM_COUNT>  (1) 
0

>  <PUBCHEM_COMPONENT_COUNT>  (1) 
1

>  <PUBCHEM_CACTVS_TAUTO_COUNT>  (1) 
1

>  <PUBCHEM_CONFORMER_ID>  (1) 
0000989F00000001

>  <PUBCHEM_MMFF94_ENERGY>  (1) 
2.4833

>  <PUBCHEM_FEATURE_SELFOVERLAP>  (1) 
15.223

>  <PUBCHEM_SHAPE_FINGERPRINT>  (1) 
12897270 3 18113334211043535319
12932741 1 17458636647818884569
12932764 1 17632293527522002657
14128692 85 18343304738720080244
14325111 11 18337109063949350861
15477762 27 18411698815722427895
20201158 50 18261394429354391011
20645477 70 18411415116411866799
20871998 22 18128542565764104974
21040471 1 18047758379864655248
21293036 1 18113904861794301062
23402655 69 18409161126248996893
23552423 10 18335145245708306880
29004967 10 18334861631743041400

>  <PUBCHEM_SHAPE_MULTIPOLES>  (1) 
184.08
5.32
1.38
0.74
3.98
0.24
0
-1.74
0.86
-1.16
0.07
0.14
0.02
-0.11

>  <PUBCHEM_SHAPE_SELFOVERLAP>  (1) 
351.028

>  <PUBCHEM_SHAPE_VOLUME>  (1) 
115.9

>  <PUBCHEM_COORDINATE_TYPE>  (1) 
2
5
10

$$$$
