39077
     RDKit          3D

 12 11  0  0  0  0  0  0  0  0999 V2000
   -0.3758   -0.5304    0.0793 O   0  0  0  0  0  0  0  0  0  0  0  0
    1.7889    2.1687    0.4844 O   0  0  0  0  0  0  0  0  0  0  0  0
    3.1623   -0.7204    0.5259 O   0  0  0  0  0  0  0  0  0  0  0  0
    0.6586    1.5671   -1.3926 O   0  0  0  0  0  0  0  0  0  0  0  0
    1.6897   -2.1531   -0.4442 O   0  0  0  0  0  0  0  0  0  0  0  0
   -3.7494    0.6140    0.4650 O   0  0  0  0  0  0  0  0  0  0  0  0
   -2.9279   -1.2739   -0.5088 O   0  0  0  0  0  0  0  0  0  0  0  0
    0.9023   -0.0249    0.4291 C   0  0  0  0  0  0  0  0  0  0  0  0
   -1.4157    0.3604    0.4639 C   0  0  0  0  0  0  0  0  0  0  0  0
    1.0901    1.2938   -0.2813 C   0  0  0  0  0  0  0  0  0  0  0  0
    1.9258   -1.0861    0.1049 C   0  0  0  0  0  0  0  0  0  0  0  0
   -2.7490   -0.2152    0.0743 C   0  0  0  0  0  0  0  0  0  0  0  0
  1  8  1  0
  1  9  1  0
  2 10  1  0
  3 11  1  0
  4 10  2  0
  5 11  2  0
  6 12  1  0
  7 12  2  0
  8 10  1  0
  8 11  1  0
  9 12  1  0
M  END
>  <PUBCHEM_COMPOUND_CID>  (1) 
39077

>  <PUBCHEM_CONFORMER_RMSD>  (1) 
0.6

>  <PUBCHEM_CONFORMER_DIVERSEORDER>  (1) 
1
9
4
18
7
11
14
16
23
25
17
19
10
6
12
21
26
24
20
2
22
5
15
28
27
8
3
13

>  <PUBCHEM_MMFF94_PARTIAL_CHARGES>  (1) 
15
1 -0.56
10 0.66
11 0.66
12 0.66
16 0.5
17 0.5
18 0.5
2 -0.65
3 -0.65
4 -0.57
5 -0.57
6 -0.65
7 -0.57
8 0.4
9 0.34

>  <PUBCHEM_EFFECTIVE_ROTOR_COUNT>  (1) 
5

>  <PUBCHEM_PHARMACOPHORE_FEATURES>  (1) 
11
1 1 acceptor
1 2 acceptor
1 3 acceptor
1 4 acceptor
1 5 acceptor
1 6 acceptor
1 7 acceptor
1 8 anion
3 2 4 10 anion
3 3 5 11 anion
3 6 7 12 anion

>  <PUBCHEM_HEAVY_ATOM_COUNT>  (1) 
12

>  <PUBCHEM_ATOM_DEF_STEREO_COUNT>  (1) 
0

>  <PUBCHEM_ATOM_UDEF_STEREO_COUNT>  (1) 
0

>  <PUBCHEM_BOND_DEF_STEREO_COUNT>  (1) 
0

>  <PUBCHEM_BOND_UDEF_STEREO_COUNT>  (1) 
0

>  <PUBCHEM_ISOTOPIC_ATOM_COUNT>  (1) 
0

>  <PUBCHEM_COMPONENT_COUNT>  (1) 
1

>  <PUBCHEM_CACTVS_TAUTO_COUNT>  (1) 
1

>  <PUBCHEM_CONFORMER_ID>  (1) 
000098A500000001

>  <PUBCHEM_MMFF94_ENERGY>  (1) 
17.7297

>  <PUBCHEM_FEATURE_SELFOVERLAP>  (1) 
56.543

>  <PUBCHEM_SHAPE_FINGERPRINT>  (1) 
10219947 1 18411697669224648698
12932764 1 18200045056917177105
14128692 85 18342179959588802771
15501101 241 18408599258316084392
161256 15 18260824878294718108
20645477 70 18410569622203741527
20871998 22 18267587892791891282
23552423 10 18410855482067533795
3248919 1 17896036718966233273
7364860 26 18343304798680979824
9939556 21 18342459240385701931

>  <PUBCHEM_SHAPE_MULTIPOLES>  (1) 
205.87
4.89
1.9
0.83
3.88
0.22
0.15
-1
-0.59
-1.32
0.3
-0.09
0.21
-0.22

>  <PUBCHEM_SHAPE_SELFOVERLAP>  (1) 
405.325

>  <PUBCHEM_SHAPE_VOLUME>  (1) 
122

>  <PUBCHEM_COORDINATE_TYPE>  (1) 
2
5
10

$$$$
