39073
     RDKit          3D

 21 24  0  0  0  0  0  0  0  0999 V2000
    0.3739    0.3366   -0.2403 N   0  0  0  0  0  0  0  0  0  0  0  0
   -3.9151    1.3768    0.3616 N   0  0  0  0  0  0  0  0  0  0  0  0
   -0.1094   -0.9676   -0.0647 C   0  0  0  0  0  0  0  0  0  0  0  0
    0.5412   -2.1763    0.2704 C   0  0  0  0  0  0  0  0  0  0  0  0
   -1.5028   -0.9277   -0.2376 C   0  0  0  0  0  0  0  0  0  0  0  0
    2.0237   -2.2976    0.4769 C   0  0  0  0  0  0  0  0  0  0  0  0
   -1.8572    0.4009   -0.5566 C   0  0  0  0  0  0  0  0  0  0  0  0
    2.7877   -1.4920   -0.5607 C   0  0  0  0  0  0  0  0  0  0  0  0
    1.7206    0.8130   -0.1042 C   0  0  0  0  0  0  0  0  0  0  0  0
    2.8460   -0.0261   -0.2144 C   0  0  0  0  0  0  0  0  0  0  0  0
   -0.7069    1.1451   -0.5542 C   0  0  0  0  0  0  0  0  0  0  0  0
   -3.2134    0.9109   -0.8426 C   0  0  0  0  0  0  0  0  0  0  0  0
   -0.2609   -3.3235    0.4429 C   0  0  0  0  0  0  0  0  0  0  0  0
   -2.2678   -2.1011   -0.0817 C   0  0  0  0  0  0  0  0  0  0  0  0
   -1.6370   -3.2916    0.2647 C   0  0  0  0  0  0  0  0  0  0  0  0
    1.9196    2.1857    0.1539 C   0  0  0  0  0  0  0  0  0  0  0  0
    4.1316    0.5371   -0.0595 C   0  0  0  0  0  0  0  0  0  0  0  0
    3.2010    2.7180    0.3068 C   0  0  0  0  0  0  0  0  0  0  0  0
    4.3089    1.8932    0.2008 C   0  0  0  0  0  0  0  0  0  0  0  0
   -5.2453    1.8668    0.0121 C   0  0  0  0  0  0  0  0  0  0  0  0
   -3.1385    2.4194    1.0261 C   0  0  0  0  0  0  0  0  0  0  0  0
  1  3  1  0
  1  9  1  0
  1 11  1  0
  2 12  1  0
  2 20  1  0
  2 21  1  0
  3  4  2  0
  3  5  1  0
  4  6  1  0
  4 13  1  0
  5  7  1  0
  5 14  2  0
  6  8  1  0
  7 11  2  0
  7 12  1  0
  8 10  1  0
  9 10  2  0
  9 16  1  0
 10 17  1  0
 13 15  2  0
 14 15  1  0
 16 18  2  0
 17 19  2  0
 18 19  1  0
M  END
>  <PUBCHEM_COMPOUND_CID>  (1) 
39073

>  <PUBCHEM_CONFORMER_RMSD>  (1) 
0.6

>  <PUBCHEM_CONFORMER_DIVERSEORDER>  (1) 
1
2
4
3
7
5
6

>  <PUBCHEM_MMFF94_PARTIAL_CHARGES>  (1) 
28
1 0.33
10 -0.14
11 -0.3
12 0.45
13 -0.15
14 -0.15
15 -0.15
16 -0.15
17 -0.15
18 -0.15
19 -0.15
2 -0.81
20 0.27
21 0.27
26 0.15
29 0.15
3 -0.15
30 0.15
31 0.15
32 0.15
33 0.15
34 0.15
35 0.15
4 -0.14
6 0.14
7 -0.18
8 0.14
9 -0.02

>  <PUBCHEM_EFFECTIVE_ROTOR_COUNT>  (1) 
2.4

>  <PUBCHEM_PHARMACOPHORE_FEATURES>  (1) 
6
1 1 cation
1 2 cation
5 1 3 5 7 11 rings
6 3 4 5 13 14 15 rings
6 9 10 16 17 18 19 rings
7 1 3 4 6 8 9 10 rings

>  <PUBCHEM_HEAVY_ATOM_COUNT>  (1) 
21

>  <PUBCHEM_ATOM_DEF_STEREO_COUNT>  (1) 
0

>  <PUBCHEM_ATOM_UDEF_STEREO_COUNT>  (1) 
0

>  <PUBCHEM_BOND_DEF_STEREO_COUNT>  (1) 
0

>  <PUBCHEM_BOND_UDEF_STEREO_COUNT>  (1) 
0

>  <PUBCHEM_ISOTOPIC_ATOM_COUNT>  (1) 
0

>  <PUBCHEM_COMPONENT_COUNT>  (1) 
1

>  <PUBCHEM_CACTVS_TAUTO_COUNT>  (1) 
1

>  <PUBCHEM_CONFORMER_ID>  (1) 
000098A100000001

>  <PUBCHEM_MMFF94_ENERGY>  (1) 
67.7806

>  <PUBCHEM_FEATURE_SELFOVERLAP>  (1) 
30.586

>  <PUBCHEM_SHAPE_FINGERPRINT>  (1) 
10165383 225 18260841358194970652
10319926 262 18052798516161916880
10411042 1 17184751836425956858
10493431 412 18409450293063799845
10608611 8 18267301130857840068
10616163 171 18193275428180910982
10906281 52 18199484186118258926
10967382 1 18337388215122122038
1100329 8 18265048046680752090
12173636 292 18266737063722357165
12390115 104 18267601267362437468
12403260 363 18121766486282053774
12633257 1 18335406951351487288
12644460 14 18188772717131593313
12788726 201 17830730220485174146
13140716 1 18335136462321254459
13464514 151 18341898489408102508
13583140 156 16226588758733521628
138480 1 17689715255673092827
13878862 14 17613424551213225125
14178342 30 18264199386949425528
14223421 5 18195814196139545878
14787075 74 18273213132277560137
14790565 3 18194414290262720852
14955137 171 17902508194983611978
15196674 1 18337951303020749564
15475509 35 16444475563795274051
16945 1 18192139400261324910
18186145 218 18339921511144742100
19591789 44 18121503453304101036
20157964 124 18265328401356839661
20510252 161 18124032600657325345
20739085 24 17973458610665838188
21029758 11 17618215556581072415
21041028 32 16968017736224368923
21501502 16 18337099150959538630
21524375 3 18272933791467260885
22182937 141 18339928219962656105
2334 1 18335979873686434326
23558518 356 18116996800113329490
23559900 14 18341894104821447788
238 59 17539928881173311767
23845131 108 18261112942347477035
25 1 18411134723587189780
2748010 2 18334861644612430902
283562 15 17976532037807501307
3091708 16 9409424226428426027
3178227 256 18119826719683865995
335352 9 18410291372741812414
3380486 145 17400366040841746059
350125 39 18265059196125091267
4340502 62 18410859850265421665
474 4 18340202990754081873
5104073 3 18263915700476164272
58807428 26 18261099773444549298
633830 44 18200593575675119213
7364860 26 18266737970029223062
7832392 63 18411698773010164158
81228 2 17826232079682154091
8272917 22 18124035624899935469
84936 182 18272645710445779448
9709674 26 18269557298642969542
9999458 23 18264773155861986927

>  <PUBCHEM_SHAPE_MULTIPOLES>  (1) 
422.21
7.74
4.03
0.79
2.02
2.03
0.01
-7.04
0.29
0.79
0.9
0.23
-0.11
-0.03

>  <PUBCHEM_SHAPE_SELFOVERLAP>  (1) 
935.521

>  <PUBCHEM_SHAPE_VOLUME>  (1) 
226.2

>  <PUBCHEM_COORDINATE_TYPE>  (1) 
2
5
10

$$$$
