39096
     RDKit          3D

 21 22  0  0  1  0  0  0  0  0999 V2000
    2.4426    1.5775   -0.3510 O   0  0  0  0  0  0  0  0  0  0  0  0
   -0.7684    0.3172    0.2121 O   0  0  0  0  0  0  0  0  0  0  0  0
    0.6789    1.2008    1.7752 O   0  0  0  0  0  0  0  0  0  0  0  0
    0.7373    3.1203   -0.5970 O   0  0  0  0  0  0  0  0  0  0  0  0
   -3.8254    0.9037   -0.2169 N   0  0  0  0  0  0  0  0  0  0  0  0
    1.5017    0.5077   -0.4120 C   0  0  0  0  0  0  0  0  0  0  0  0
    2.2222   -0.7920   -0.2829 C   0  0  0  0  0  0  0  0  0  0  0  0
    0.4526    0.7229    0.6707 C   0  0  0  0  0  0  0  0  0  0  0  0
    3.3897   -0.8698    0.4766 C   0  0  0  0  0  0  0  0  0  0  0  0
    1.7287   -1.9294   -0.9217 C   0  0  0  0  0  0  0  0  0  0  0  0
   -1.8565    0.4786    1.1274 C   0  0  0  0  0  0  0  0  0  0  0  0
    4.0637   -2.0851    0.5970 C   0  0  0  0  0  0  0  0  0  0  0  0
    2.4026   -3.1447   -0.8012 C   0  0  0  0  0  0  0  0  0  0  0  0
   -3.1185   -0.0097    0.4789 C   0  0  0  0  0  0  0  0  0  0  0  0
    3.5702   -3.2225   -0.0419 C   0  0  0  0  0  0  0  0  0  0  0  0
   -3.4789   -1.3354    0.6265 C   0  0  0  0  0  0  0  0  0  0  0  0
    1.9170    2.8309   -0.4570 C   0  0  0  0  0  0  0  0  0  0  0  0
   -4.6537   -1.7561    0.0132 C   0  0  0  0  0  0  0  0  0  0  0  0
    2.9704    3.8752   -0.3823 C   0  0  0  0  0  0  0  0  0  0  0  0
   -5.4149   -0.8484   -0.7150 C   0  0  0  0  0  0  0  0  0  0  0  0
   -4.9614    0.4581   -0.7989 C   0  0  0  0  0  0  0  0  0  0  0  0
  1  6  1  0
  1 17  1  0
  2  8  1  0
  2 11  1  0
  3  8  2  0
  4 17  2  0
  5 14  2  0
  5 21  1  0
  6  7  1  0
  6  8  1  0
  7  9  2  0
  7 10  1  0
  9 12  1  0
 10 13  2  0
 11 14  1  0
 12 15  2  0
 13 15  1  0
 14 16  1  0
 16 18  2  0
 17 19  1  0
 18 20  1  0
 20 21  2  0
M  END
>  <PUBCHEM_COMPOUND_CID>  (1) 
39096

>  <PUBCHEM_CONFORMER_RMSD>  (1) 
0.8

>  <PUBCHEM_CONFORMER_DIVERSEORDER>  (1) 
1
369
123
53
235
238
333
457
177
22
437
42
102
399
490
363
261
430
400
55
312
349
282
178
485
467
31
171
113
271
438
142
299
456
201
409
44
316
352
236
164
137
360
292
459
328
239
15
35
402
141
7
146
373
132
234
263
6
209
153
165
359
254
262
121
115
288
324
476
103
195
188
11
77
124
50
343
468
276
17
244
297
339
358
436
69
54
461
207
135
435
306
350
23
432
489
443
439
62
163
412
20
289
231
173
491
147
273
477
200
327
48
407
389
223
89
309
136
376
314
172
43
60
210
33
267
73
470
311
481
51
185
156
162
93
119
150
252
66
463
84
372
122
36
321
298
91
421
237
49
182
414
166
216
384
429
9
107
12
65
413
191
213
361
176
230
64
46
245
28
80
255
240
319
38
453
345
365
331
325
106
431
88
379
250
370
58
79
417
155
13
215
411
14
170
320
25
148
281
442
341
362
86
218
385
75
388
82
259
462
371
471
278
59
97
95
184
342
248
197
134
294
16
87
112
105
193
76
279
422
450
154
334
40
374
160
226
440
469
32
10
398
120
330
83
420
391
375
475
247
380
183
68
30
449
344
63
108
4
264
114
260
367
158
85
418
214
133
356
403
39
383
222
111
416
229
145
406
307
98
101
125
81
302
99
167
61
353
139
272
224
410
304
37
397
70
258
196
452
378
227
117
205
211
290
300
21
221
478
479
116
151
283
251
57
427
78
465
161
326
18
202
204
291
455
29
474
253
2
3
19
138
175
284
219
179
190
67
206
390
232
357
368
382
143
329
109
27
203
275
447
401
118
395
96
338
303
313
441
268
274
451
5
287
242
180
233
266
387
24
277
305
480
74
396
90
47
217
318
72
198
280
128
194
377
8
26
228
366
354
152
448
169
92
386
130
243
308
317
126
434
428
488
404
310
423
127
315
71
110
351
41
186
433
355
56
464
159
225
295
241
296
249
34
392
444
473
208
187
256
149
301
140
52
104
483
419
246
192
212
487
337
408
323
405
45
181
482
424
454
270
157
168
348
269
199
100
486
484
394
426
336
131
293
94
129
286
347
174
285
458
340
257
332
415
381
144
466
335
393
460
425
472
265
322
446
364
445
346
220
189

>  <PUBCHEM_MMFF94_PARTIAL_CHARGES>  (1) 
30
1 -0.43
10 -0.15
11 0.42
12 -0.15
13 -0.15
14 0.17
15 -0.15
16 -0.15
17 0.66
18 -0.15
19 0.06
2 -0.43
20 -0.15
21 0.16
23 0.15
24 0.15
27 0.15
28 0.15
29 0.15
3 -0.57
30 0.15
31 0.15
32 0.15
33 0.15
4 -0.57
5 -0.62
6 0.48
7 -0.14
8 0.66
9 -0.15

>  <PUBCHEM_EFFECTIVE_ROTOR_COUNT>  (1) 
7

>  <PUBCHEM_PHARMACOPHORE_FEATURES>  (1) 
5
1 3 acceptor
1 4 acceptor
1 5 acceptor
6 5 14 16 18 20 21 rings
6 7 9 10 12 13 15 rings

>  <PUBCHEM_HEAVY_ATOM_COUNT>  (1) 
21

>  <PUBCHEM_ATOM_DEF_STEREO_COUNT>  (1) 
0

>  <PUBCHEM_ATOM_UDEF_STEREO_COUNT>  (1) 
1

>  <PUBCHEM_BOND_DEF_STEREO_COUNT>  (1) 
0

>  <PUBCHEM_BOND_UDEF_STEREO_COUNT>  (1) 
0

>  <PUBCHEM_ISOTOPIC_ATOM_COUNT>  (1) 
0

>  <PUBCHEM_COMPONENT_COUNT>  (1) 
1

>  <PUBCHEM_CACTVS_TAUTO_COUNT>  (1) 
1

>  <PUBCHEM_CONFORMER_ID>  (1) 
000098B800000001

>  <PUBCHEM_MMFF94_ENERGY>  (1) 
49.1416

>  <PUBCHEM_FEATURE_SELFOVERLAP>  (1) 
25.374

>  <PUBCHEM_SHAPE_FINGERPRINT>  (1) 
10759866 29 18197780101339187215
11405975 8 18411422796039881593
116883 192 18192713345431393684
12363563 72 18264500485347043858
12553582 1 18122651382214632570
12730499 353 18192724564244303281
12788726 201 17610627410336180458
13004483 165 18049151168944611722
13083527 12 18410570648674142216
13533116 47 18343301509611750387
13544653 18 18058448712061782226
13899415 180 18189038833321064693
13955234 65 18339645662770374705
1454969 45 18411136923280559514
14848160 33 18341336621612918599
14863182 85 17132121229680841150
15352361 1 18339642222512431399
15502722 9 18338241577747354053
15842332 3 17915767351873788545
17492 89 18410013269251599371
17539 30 17759522171226509452
17818456 19 17557722278215330433
18222031 100 18340488855498780726
19141452 34 17838624357416753009
20197701 30 18053105309427283608
20626108 58 18339635642479934162
20645477 70 18335983155357849123
20671657 53 18338240353744913347
21054139 6 17912921983062951167
21250096 35 18130783400399819339
21304303 282 17190080048383413852
21452121 199 18340764862517673056
221490 88 18335147530757846891
2255824 54 18340212989427118118
23419403 2 17913177924781379648
23559900 14 18410848872070401089
3060560 45 18193284207120853820
3421961 26 18410570678221877020
4280585 95 18264202517991367850
46194498 28 18261387862881820949
5281201 14 18261111885595208621
53777708 50 18341623624454996153
6025842 7 18338797939331511965
6443956 14 18335703784762035278
67856867 119 18340482369607417065
7399639 24 17757286142569340377
7615 1 18059593364080734713
9709674 26 18334861658035461403

>  <PUBCHEM_SHAPE_MULTIPOLES>  (1) 
403.71
10.12
4.15
1.04
13.89
2.06
-0.2
-5.19
1.29
-6.57
1.01
0.1
0.04
-0.18

>  <PUBCHEM_SHAPE_SELFOVERLAP>  (1) 
855.737

>  <PUBCHEM_SHAPE_VOLUME>  (1) 
222.9

>  <PUBCHEM_COORDINATE_TYPE>  (1) 
2
5
10

$$$$
