391
     RDKit          3D

 21 20  0  0  1  0  0  0  0  0999 V2000
   -3.2766    0.1531   -0.5842 P   0  0  0  0  0  0  0  0  0  0  0  0
   -1.6333   -1.7752    0.9106 P   0  0  0  0  0  0  0  0  0  0  0  0
   -2.5242    1.4411    0.0351 O   0  0  0  0  0  0  0  0  0  0  0  0
   -2.2206   -1.0590   -0.4136 O   0  0  0  0  0  0  0  0  0  0  0  0
   -3.2850    0.4156   -2.1806 O   0  0  0  0  0  0  0  0  0  0  0  0
   -4.6297   -0.1223    0.0048 O   0  0  0  0  0  0  0  0  0  0  0  0
   -2.9280   -2.5053    1.5456 O   0  0  0  0  0  0  0  0  0  0  0  0
   -0.7650   -2.9994    0.3109 O   0  0  0  0  0  0  0  0  0  0  0  0
   -0.8923   -0.8606    1.8407 O   0  0  0  0  0  0  0  0  0  0  0  0
    0.8762    3.1623    0.2044 C   0  0  0  0  0  0  0  0  0  0  0  0
    1.9255    2.0334    0.1572 C   0  0  0  0  0  0  0  0  0  0  0  0
   -0.5406    2.6929    0.5853 C   0  0  0  0  0  0  0  0  0  0  0  0
    2.2900    1.4825    1.5413 C   0  0  0  0  0  0  0  0  0  0  0  0
    0.8711    3.9193   -1.1279 C   0  0  0  0  0  0  0  0  0  0  0  0
    3.2691    0.3050    1.4849 C   0  0  0  0  0  0  0  0  0  0  0  0
   -1.2336    1.8042   -0.4430 C   0  0  0  0  0  0  0  0  0  0  0  0
    2.7291   -0.8790    0.7320 C   0  0  0  0  0  0  0  0  0  0  0  0
    3.2331   -1.4266   -0.3907 C   0  0  0  0  0  0  0  0  0  0  0  0
    2.6580   -2.6457   -1.0732 C   0  0  0  0  0  0  0  0  0  0  0  0
    4.4708   -0.8522   -1.0280 C   0  0  0  0  0  0  0  0  0  0  0  0
    1.6058   -2.2843   -2.1115 C   0  0  0  0  0  0  0  0  0  0  0  0
  1  3  1  0
  1  4  1  0
  1  5  1  0
  1  6  2  0
  2  4  1  0
  2  7  1  0
  2  8  1  0
  2  9  2  0
  3 16  1  0
 10 11  1  0
 10 12  1  0
 10 14  1  0
 11 13  1  0
 12 16  1  0
 13 15  1  0
 15 17  1  0
 17 18  2  0
 18 19  1  0
 18 20  1  0
 19 21  1  0
M  END
>  <PUBCHEM_COMPOUND_CID>  (1) 
391

>  <PUBCHEM_CONFORMER_RMSD>  (1) 
1.4

>  <PUBCHEM_CONFORMER_DIVERSEORDER>  (1) 
1
29
45
50
27
32
4
41
28
13
52
39
10
38
49
19
46
36
40
34
25
26
30
18
20
2
44
8
16
48
17
9
53
7
33
37
22
3
42
47
15
54
35
23
12
11
31
55
24
43
5
14
6
51
21

>  <PUBCHEM_MMFF94_PARTIAL_CHARGES>  (1) 
19
1 1.51
15 0.14
16 0.28
17 -0.29
18 -0.28
19 0.14
2 1.51
20 0.14
3 -0.55
36 0.15
4 -0.54
45 0.5
46 0.5
47 0.5
5 -0.77
6 -0.7
7 -0.77
8 -0.77
9 -0.7

>  <PUBCHEM_EFFECTIVE_ROTOR_COUNT>  (1) 
11

>  <PUBCHEM_PHARMACOPHORE_FEATURES>  (1) 
11
1 14 hydrophobe
1 20 hydrophobe
1 21 hydrophobe
1 5 acceptor
1 6 acceptor
1 7 acceptor
1 8 acceptor
1 9 acceptor
3 10 11 12 hydrophobe
3 13 15 17 hydrophobe
4 2 7 8 9 anion

>  <PUBCHEM_HEAVY_ATOM_COUNT>  (1) 
21

>  <PUBCHEM_ATOM_DEF_STEREO_COUNT>  (1) 
0

>  <PUBCHEM_ATOM_UDEF_STEREO_COUNT>  (1) 
1

>  <PUBCHEM_BOND_DEF_STEREO_COUNT>  (1) 
0

>  <PUBCHEM_BOND_UDEF_STEREO_COUNT>  (1) 
1

>  <PUBCHEM_ISOTOPIC_ATOM_COUNT>  (1) 
0

>  <PUBCHEM_COMPONENT_COUNT>  (1) 
1

>  <PUBCHEM_CACTVS_TAUTO_COUNT>  (1) 
1

>  <PUBCHEM_CONFORMER_ID>  (1) 
0000018700000001

>  <PUBCHEM_MMFF94_ENERGY>  (1) 
-29.6581

>  <PUBCHEM_FEATURE_SELFOVERLAP>  (1) 
56.106

>  <PUBCHEM_SHAPE_FINGERPRINT>  (1) 
10616163 171 17757830409135851681
12553582 1 18409730617100265872
13402501 40 18342173315612045006
14251740 79 17547591283698750966
14251745 187 18198340646316507882
14251757 17 18334006186259007457
15003188 3 18411426076946411595
15415430 2 18122347878434712584
15635459 17 18341611499450875034
17357779 13 18272371928145495782
19930381 70 18341326717471068719
20397935 3 18265912280157607492
20600515 1 17968359187895752276
7987 15 18263096559443211323
81228 2 18267026050897854232
9709674 26 18264762332528530937

>  <PUBCHEM_SHAPE_MULTIPOLES>  (1) 
398.78
6.99
4.49
1.77
1.35
2.32
0.19
-3.27
1.07
-0.84
0.67
-0.17
-0.57
1.89

>  <PUBCHEM_SHAPE_SELFOVERLAP>  (1) 
725.212

>  <PUBCHEM_SHAPE_VOLUME>  (1) 
256.1

>  <PUBCHEM_COORDINATE_TYPE>  (1) 
2
5
10

$$$$
