39100
     RDKit          3D

 18 18  0  0  1  0  0  0  0  0999 V2000
   -0.0841    0.5489   -0.3073 O   0  0  0  0  0  0  0  0  0  0  0  0
    1.3298    1.2090   -1.9974 O   0  0  0  0  0  0  0  0  0  0  0  0
   -3.1815    0.9985   -0.0324 N   0  0  0  0  0  0  0  0  0  0  0  0
    2.1861    0.9972    0.2843 C   0  0  0  0  0  0  0  0  0  0  0  0
    2.3319   -0.4046    0.9466 C   0  0  0  0  0  0  0  0  0  0  0  0
    1.7417    2.0034    1.3844 C   0  0  0  0  0  0  0  0  0  0  0  0
    2.6946   -1.5503   -0.0091 C   0  0  0  0  0  0  0  0  0  0  0  0
    3.5322    1.4380   -0.3219 C   0  0  0  0  0  0  0  0  0  0  0  0
    1.1202    0.9406   -0.8204 C   0  0  0  0  0  0  0  0  0  0  0  0
    2.7399   -2.8894    0.7308 C   0  0  0  0  0  0  0  0  0  0  0  0
    1.4879    3.4295    0.9067 C   0  0  0  0  0  0  0  0  0  0  0  0
    3.1307   -4.0268   -0.1995 C   0  0  0  0  0  0  0  0  0  0  0  0
   -1.1584    0.4571   -1.2482 C   0  0  0  0  0  0  0  0  0  0  0  0
   -2.4013    0.0184   -0.5311 C   0  0  0  0  0  0  0  0  0  0  0  0
   -2.6719   -1.3324   -0.4231 C   0  0  0  0  0  0  0  0  0  0  0  0
   -3.8315   -1.7057    0.2472 C   0  0  0  0  0  0  0  0  0  0  0  0
   -4.2999    0.5972    0.6126 C   0  0  0  0  0  0  0  0  0  0  0  0
   -4.6665   -0.7287    0.7778 C   0  0  0  0  0  0  0  0  0  0  0  0
  1  9  1  0
  1 13  1  0
  2  9  2  0
  3 14  2  0
  3 17  1  0
  4  5  1  0
  4  6  1  0
  4  8  1  0
  4  9  1  0
  5  7  1  0
  6 11  1  0
  7 10  1  0
 10 12  1  0
 13 14  1  0
 14 15  1  0
 15 16  2  0
 16 18  1  0
 17 18  2  0
M  END
>  <PUBCHEM_COMPOUND_CID>  (1) 
39100

>  <PUBCHEM_CONFORMER_RMSD>  (1) 
1

>  <PUBCHEM_CONFORMER_DIVERSEORDER>  (1) 
1
538
529
137
112
42
583
179
291
341
54
500
165
376
283
120
219
77
365
344
475
292
570
518
29
184
83
11
548
30
174
197
357
261
48
121
28
439
525
388
18
34
517
23
32
504
53
446
188
106
38
352
217
249
128
13
111
494
257
86
25
575
483
190
41
492
27
413
216
10
282
480
412
196
537
312
177
239
103
382
175
477
342
436
24
148
116
498
14
91
218
370
205
59
389
211
400
4
528
70
187
125
145
542
258
322
7
508
51
46
366
251
534
6
118
3
107
9
578
50
338
62
152
49
539
160
182
527
209
562
356
435
136
12
66
153
339
176
143
273
115
252
73
265
2
37
486
43
221
383
40
97
58
33
21
79
169
236
198
75
355
72
149
76
80
109
81
47
87

>  <PUBCHEM_MMFF94_PARTIAL_CHARGES>  (1) 
15
1 -0.43
13 0.42
14 0.17
15 -0.15
16 -0.15
17 0.16
18 -0.15
2 -0.57
3 -0.62
38 0.15
39 0.15
4 0.06
40 0.15
41 0.15
9 0.66

>  <PUBCHEM_EFFECTIVE_ROTOR_COUNT>  (1) 
8

>  <PUBCHEM_PHARMACOPHORE_FEATURES>  (1) 
7
1 11 hydrophobe
1 12 hydrophobe
1 2 acceptor
1 3 acceptor
1 8 hydrophobe
5 4 5 6 7 10 hydrophobe
6 3 14 15 16 17 18 rings

>  <PUBCHEM_HEAVY_ATOM_COUNT>  (1) 
18

>  <PUBCHEM_ATOM_DEF_STEREO_COUNT>  (1) 
0

>  <PUBCHEM_ATOM_UDEF_STEREO_COUNT>  (1) 
1

>  <PUBCHEM_BOND_DEF_STEREO_COUNT>  (1) 
0

>  <PUBCHEM_BOND_UDEF_STEREO_COUNT>  (1) 
0

>  <PUBCHEM_ISOTOPIC_ATOM_COUNT>  (1) 
0

>  <PUBCHEM_COMPONENT_COUNT>  (1) 
1

>  <PUBCHEM_CACTVS_TAUTO_COUNT>  (1) 
1

>  <PUBCHEM_CONFORMER_ID>  (1) 
000098BC00000001

>  <PUBCHEM_MMFF94_ENERGY>  (1) 
32.8557

>  <PUBCHEM_FEATURE_SELFOVERLAP>  (1) 
35.558

>  <PUBCHEM_SHAPE_FINGERPRINT>  (1) 
10064457 181 18122343746787027962
10366900 7 18266739271704844681
10616163 171 18045226187306232971
114674 6 18187641401335171139
12107183 9 18053953844698640697
12506688 2 18266168436281365962
12553582 1 18198050392379645766
13533116 47 18411978075261132027
13583140 156 18341885346898101109
13911882 115 17968956295302046994
14178342 30 18048590714340529715
14252887 29 17676489470751977261
14866123 147 17044295264432078827
15142526 21 17481416497359410737
1813 80 16732991903370365407
19078846 21 17988372476758503953
201361 129 18270678800229091600
20645477 70 18189034478498968391
21041028 32 18197777691825428610
2255824 54 18191306181127890436
23466295 7 17402616243017391210
23559900 14 18334010631534652765
3421961 26 18338515236168728146
458136 41 18336266863791322228
57003041 14 18118397341830444196
6442390 28 17978229692640625536
6443956 14 18266462005448210242
7097593 13 18343014493409751111
7364860 26 18411134757862596898
8509985 295 18129943356626395393

>  <PUBCHEM_SHAPE_MULTIPOLES>  (1) 
353.71
8.28
3.78
1.24
9.08
2.3
-0.25
3.43
1.72
-5.45
0.87
-0.3
-0.5
0.11

>  <PUBCHEM_SHAPE_SELFOVERLAP>  (1) 
703.663

>  <PUBCHEM_SHAPE_VOLUME>  (1) 
209.6

>  <PUBCHEM_COORDINATE_TYPE>  (1) 
2
5
10

$$$$
