39129
     RDKit          3D

 12 12  0  0  0  0  0  0  0  0999 V2000
    3.3670    0.1013    0.4870 O   0  0  0  0  0  0  0  0  0  0  0  0
   -3.1957    1.8458   -0.0924 O   0  0  0  0  0  0  0  0  0  0  0  0
    1.8459    0.2479   -1.2409 O   0  0  0  0  0  0  0  0  0  0  0  0
   -0.3021   -0.3064    0.5245 C   0  0  0  0  0  0  0  0  0  0  0  0
    1.0969   -0.2020    1.0297 C   0  0  0  0  0  0  0  0  0  0  0  0
   -1.1043    0.8325    0.4522 C   0  0  0  0  0  0  0  0  0  0  0  0
   -0.8085   -1.5428    0.1236 C   0  0  0  0  0  0  0  0  0  0  0  0
   -2.4129    0.7348   -0.0211 C   0  0  0  0  0  0  0  0  0  0  0  0
   -2.1169   -1.6405   -0.3496 C   0  0  0  0  0  0  0  0  0  0  0  0
   -2.9191   -0.5017   -0.4220 C   0  0  0  0  0  0  0  0  0  0  0  0
    2.1147    0.0751   -0.0598 C   0  0  0  0  0  0  0  0  0  0  0  0
    4.4351    0.3559   -0.4312 C   0  0  0  0  0  0  0  0  0  0  0  0
  1 11  1  0
  1 12  1  0
  2  8  1  0
  3 11  2  0
  4  5  1  0
  4  6  2  0
  4  7  1  0
  5 11  1  0
  6  8  1  0
  7  9  2  0
  8 10  2  0
  9 10  1  0
M  END
>  <PUBCHEM_COMPOUND_CID>  (1) 
39129

>  <PUBCHEM_CONFORMER_RMSD>  (1) 
0.6

>  <PUBCHEM_CONFORMER_DIVERSEORDER>  (1) 
1
14
5
15
13
10
12
16
8
9
4
11
7
6
2
3

>  <PUBCHEM_MMFF94_PARTIAL_CHARGES>  (1) 
17
1 -0.43
10 -0.15
11 0.66
12 0.28
15 0.15
16 0.15
17 0.15
18 0.15
19 0.45
2 -0.53
3 -0.57
4 -0.14
5 0.2
6 -0.15
7 -0.15
8 0.08
9 -0.15

>  <PUBCHEM_EFFECTIVE_ROTOR_COUNT>  (1) 
3

>  <PUBCHEM_PHARMACOPHORE_FEATURES>  (1) 
3
1 2 donor
1 3 acceptor
6 4 6 7 8 9 10 rings

>  <PUBCHEM_HEAVY_ATOM_COUNT>  (1) 
12

>  <PUBCHEM_ATOM_DEF_STEREO_COUNT>  (1) 
0

>  <PUBCHEM_ATOM_UDEF_STEREO_COUNT>  (1) 
0

>  <PUBCHEM_BOND_DEF_STEREO_COUNT>  (1) 
0

>  <PUBCHEM_BOND_UDEF_STEREO_COUNT>  (1) 
0

>  <PUBCHEM_ISOTOPIC_ATOM_COUNT>  (1) 
0

>  <PUBCHEM_COMPONENT_COUNT>  (1) 
1

>  <PUBCHEM_CACTVS_TAUTO_COUNT>  (1) 
12

>  <PUBCHEM_CONFORMER_ID>  (1) 
000098D900000001

>  <PUBCHEM_MMFF94_ENERGY>  (1) 
24.0203

>  <PUBCHEM_FEATURE_SELFOVERLAP>  (1) 
15.223

>  <PUBCHEM_SHAPE_FINGERPRINT>  (1) 
12138202 97 18060132124593429503
12716758 59 18343015609985255691
12932764 1 18272930552819086442
13024252 1 17894912966511604483
14325111 11 18410571756163735898
15775835 57 18260266308938783321
16945 1 18340193185549453963
18186145 218 17918275346401952520
18534176 82 18131634499466055242
20201158 50 17346602975732540758
20279233 1 17346600781104401374
20645476 183 18113891680724682059
20645477 56 18412829074952621041
20653085 51 18260841383584686401
20871999 31 18272644671453719925
21061003 4 16558477503281940418
22926399 65 18341330007025464800
23402539 116 18272360962651046564
23557571 272 18130795585016030292
23559900 14 18131067109492318226
2748010 2 17836344318741618427
305870 269 18114460037651454667
573450 72 18335967719514432570
6333449 129 18201999936745631291
77492 1 17894899733427117962

>  <PUBCHEM_SHAPE_MULTIPOLES>  (1) 
229.35
6.33
1.42
0.89
5.99
0.04
0.01
-1.36
1.23
-1.62
0.06
0.32
0.01
-0.19

>  <PUBCHEM_SHAPE_SELFOVERLAP>  (1) 
471.875

>  <PUBCHEM_SHAPE_VOLUME>  (1) 
132.2

>  <PUBCHEM_COORDINATE_TYPE>  (1) 
2
5
10

$$$$
