39131
     RDKit          3D

 16 17  0  0  1  0  0  0  0  0999 V2000
   -1.7771   -0.7489    2.4608 O   0  0  0  0  0  0  0  0  0  0  0  0
    1.2671   -1.6900   -0.3456 N   0  0  0  0  0  0  0  0  0  0  0  0
   -2.7060    0.4200   -0.9576 N   0  0  0  0  0  0  0  0  0  0  0  0
   -0.3100   -0.4517    0.6064 C   0  0  0  0  0  0  0  0  0  0  0  0
   -1.5861   -0.0382    1.2246 C   0  0  0  0  0  0  0  0  0  0  0  0
    0.8223    0.3764    0.3680 C   0  0  0  0  0  0  0  0  0  0  0  0
   -2.8068   -0.2990    0.3104 C   0  0  0  0  0  0  0  0  0  0  0  0
    1.7975   -0.4248   -0.2299 C   0  0  0  0  0  0  0  0  0  0  0  0
   -0.0060   -1.7161    0.1570 C   0  0  0  0  0  0  0  0  0  0  0  0
    1.1122    1.7350    0.6042 C   0  0  0  0  0  0  0  0  0  0  0  0
    3.0531    0.0666   -0.6048 C   0  0  0  0  0  0  0  0  0  0  0  0
    1.9431   -2.8362   -0.9148 C   0  0  0  0  0  0  0  0  0  0  0  0
    2.3639    2.2404    0.2343 C   0  0  0  0  0  0  0  0  0  0  0  0
    3.3179    1.4172   -0.3607 C   0  0  0  0  0  0  0  0  0  0  0  0
   -2.6509    1.8632   -0.7252 C   0  0  0  0  0  0  0  0  0  0  0  0
   -3.8340    0.0860   -1.8271 C   0  0  0  0  0  0  0  0  0  0  0  0
  1  5  1  0
  2  8  1  0
  2  9  1  0
  2 12  1  0
  3  7  1  0
  3 15  1  0
  3 16  1  0
  4  5  1  0
  4  6  1  0
  4  9  2  0
  5  7  1  0
  6  8  2  0
  6 10  1  0
  8 11  1  0
 10 13  2  0
 11 14  2  0
 13 14  1  0
M  END
>  <PUBCHEM_COMPOUND_CID>  (1) 
39131

>  <PUBCHEM_CONFORMER_RMSD>  (1) 
0.6

>  <PUBCHEM_CONFORMER_DIVERSEORDER>  (1) 
4
11
9
8
2
3
5
10
12
6
1
7

>  <PUBCHEM_MMFF94_PARTIAL_CHARGES>  (1) 
21
1 -0.68
10 -0.15
11 -0.15
12 0.26
13 -0.15
14 -0.15
15 0.27
16 0.27
2 0.05
20 0.15
21 0.15
22 0.15
26 0.15
27 0.4
28 0.15
3 -0.81
4 -0.18
5 0.46
7 0.27
8 -0.15
9 -0.3

>  <PUBCHEM_EFFECTIVE_ROTOR_COUNT>  (1) 
3

>  <PUBCHEM_PHARMACOPHORE_FEATURES>  (1) 
6
1 1 acceptor
1 1 donor
1 2 cation
1 3 cation
5 2 4 6 8 9 rings
6 6 8 10 11 13 14 rings

>  <PUBCHEM_HEAVY_ATOM_COUNT>  (1) 
16

>  <PUBCHEM_ATOM_DEF_STEREO_COUNT>  (1) 
0

>  <PUBCHEM_ATOM_UDEF_STEREO_COUNT>  (1) 
1

>  <PUBCHEM_BOND_DEF_STEREO_COUNT>  (1) 
0

>  <PUBCHEM_BOND_UDEF_STEREO_COUNT>  (1) 
0

>  <PUBCHEM_ISOTOPIC_ATOM_COUNT>  (1) 
0

>  <PUBCHEM_COMPONENT_COUNT>  (1) 
1

>  <PUBCHEM_CACTVS_TAUTO_COUNT>  (1) 
1

>  <PUBCHEM_CONFORMER_ID>  (1) 
000098DB00000004

>  <PUBCHEM_MMFF94_ENERGY>  (1) 
32.9165

>  <PUBCHEM_FEATURE_SELFOVERLAP>  (1) 
30.537

>  <PUBCHEM_SHAPE_FINGERPRINT>  (1) 
10871710 139 16025930425043211245
12138202 97 17894910767214068347
12251169 10 7997970210749974701
124424 183 18040711459618370160
12553582 1 17766301781240639366
12654215 9 18408603635035478188
12730499 353 18335421270941322031
13294875 104 17243836984029779969
13464514 151 18116712911317668580
13764800 53 17313109661407495089
13839132 238 17748824098954840213
14115302 16 16987424310191769653
14181834 199 18336824191685463238
14614273 12 17262156338176292576
14817 1 16734396121009896307
15852999 172 18113892788435393355
16945 1 18270697410554181986
17357990 137 14057008165599711759
18186145 218 18201169852901432076
18219364 16 18267036118169086840
19049666 15 17969233260531214355
21524375 3 18266180724135197250
21639500 275 18343022215723889656
21947302 44 18187634778579177561
22112679 90 16844741819504386354
22802520 49 18189342285830304757
22959321 8 18408880767457432749
23114952 82 18262809440905704620
2334 1 17839193144626049874
23402539 116 17386562617458456299
23493267 7 17676214584682373384
23526113 38 18189335658490168794
23557571 272 17677347111839759203
23598291 2 17773601507819457205
238 59 18340192077052090709
25 1 18410577283770892932
2748010 2 18053397766534636738
3060560 45 18269822246195057276
6049 1 17824289070853123443
63268167 104 18272375256375872186
633830 44 17773062893098416120
6338986 31 17765147272466583878
77492 1 17203057308804483147
7832392 63 17836073486467241421
81228 2 17024337256272450419
88987 49 16370735837189294539

>  <PUBCHEM_SHAPE_MULTIPOLES>  (1) 
313.44
5.59
2.43
1.45
2.49
0.65
0.43
-1.77
-2.43
-1.91
-0.45
1.5
0.21
0.81

>  <PUBCHEM_SHAPE_SELFOVERLAP>  (1) 
661.376

>  <PUBCHEM_SHAPE_VOLUME>  (1) 
179.2

>  <PUBCHEM_COORDINATE_TYPE>  (1) 
2
5
10

$$$$
