39134
     RDKit          3D

 25 26  0  0  1  0  0  0  0  0999 V2000
    5.4772    0.7970    1.5476 Cl  0  0  0  0  0  0  0  0  0  0  0  0
   -5.2455    3.1186    0.8316 S   0  0  0  0  0  0  0  0  0  0  0  0
   -0.2735   -3.3069   -0.1977 O   0  0  0  0  0  0  0  0  0  0  0  0
    0.0921   -0.7970   -2.0360 O   0  0  0  0  0  0  0  0  0  0  0  0
    3.2967    2.8854   -1.5364 O   0  0  0  0  0  0  0  0  0  0  0  0
    4.9824    2.6704   -0.1467 O   0  0  0  0  0  0  0  0  0  0  0  0
   -1.9524   -1.6885   -0.5236 N   0  0  0  0  0  0  0  0  0  0  0  0
    3.9079    2.2570   -0.6412 N   0  0  0  0  0  0  0  0  0  0  0  0
   -0.6080   -1.9304   -0.0259 C   0  0  0  0  0  0  0  0  0  0  0  0
    0.3520   -1.0891   -0.8693 C   0  0  0  0  0  0  0  0  0  0  0  0
    1.6350   -0.6055   -0.2724 C   0  0  0  0  0  0  0  0  0  0  0  0
   -2.7138   -0.5717   -0.2125 C   0  0  0  0  0  0  0  0  0  0  0  0
    2.1652    0.5792   -0.7259 C   0  0  0  0  0  0  0  0  0  0  0  0
   -1.1136   -4.1774    0.5502 C   0  0  0  0  0  0  0  0  0  0  0  0
    2.2310   -1.3660    0.7054 C   0  0  0  0  0  0  0  0  0  0  0  0
   -3.9230   -0.3141   -0.8831 C   0  0  0  0  0  0  0  0  0  0  0  0
   -2.2975    0.3292    0.7845 C   0  0  0  0  0  0  0  0  0  0  0  0
    3.3619    1.0298   -0.1688 C   0  0  0  0  0  0  0  0  0  0  0  0
    3.4277   -0.9154    1.2627 C   0  0  0  0  0  0  0  0  0  0  0  0
   -4.6905    0.8070   -0.5675 C   0  0  0  0  0  0  0  0  0  0  0  0
   -3.0650    1.4503    1.1003 C   0  0  0  0  0  0  0  0  0  0  0  0
   -4.2616    1.6892    0.4244 C   0  0  0  0  0  0  0  0  0  0  0  0
    3.9933    0.2825    0.8255 C   0  0  0  0  0  0  0  0  0  0  0  0
   -0.6841   -5.6081    0.3051 C   0  0  0  0  0  0  0  0  0  0  0  0
   -4.0940    4.4742    0.4696 C   0  0  0  0  0  0  0  0  0  0  0  0
  1 23  1  0
  2 22  1  0
  2 25  1  0
  3  9  1  0
  3 14  1  0
  4 10  2  0
  5  8  1  0
  6  8  2  0
  7  9  1  0
  7 12  1  0
  8 18  1  0
  9 10  1  0
 10 11  1  0
 11 13  2  0
 11 15  1  0
 12 16  2  0
 12 17  1  0
 13 18  1  0
 14 24  1  0
 15 19  2  0
 16 20  1  0
 17 21  2  0
 18 23  2  0
 19 23  1  0
 20 22  2  0
 21 22  1  0
M  CHG  2   5  -1   8   1
M  END
>  <PUBCHEM_COMPOUND_CID>  (1) 
39134

>  <PUBCHEM_CONFORMER_RMSD>  (1) 
1

>  <PUBCHEM_CONFORMER_DIVERSEORDER>  (1) 
2
28
56
700
236
50
44
133
125
320
136
264
649
122
95
507
46
9
48
321
10
294
195
696
573
394
351
714
256
430
75
374
40
562
553
313
196
246
131
244
72
98
567
96
716
681
105
650
494
622
548
626
109
245
234
215
518
76
121
448
605
211
368
582
388
207
526
163
176
68
171
24
186
67
7
106
187
301
85
341
611
147
449
12
514
214
292
330
463
42
274
132
342
247
615
108
143
273
34
137
129
218
118
361
88
383
497
124
22
710
560
29
160
266
489
57
141
39
453
559
21
78
112
172
49
115
113
3
411
11
32
399
392
656
16
45
431
213
1
601
33
364
455
608
5
381
8
408
731
432
6
182
94
513
14
41
379
53
516
79
4
97
62
584
25
89
26
355
23
146
695

>  <PUBCHEM_MMFF94_PARTIAL_CHARGES>  (1) 
32
1 -0.18
10 0.42
11 0.09
12 0.1
13 -0.15
14 0.28
15 -0.15
16 -0.15
17 -0.15
18 0.13
19 -0.15
2 -0.33
20 -0.15
21 -0.15
22 0.1
23 0.18
25 0.23
27 0.4
28 0.15
3 -0.56
31 0.15
32 0.15
33 0.15
34 0.15
35 0.15
36 0.15
4 -0.57
5 -0.52
6 -0.52
7 -0.87
8 0.91
9 0.71

>  <PUBCHEM_EFFECTIVE_ROTOR_COUNT>  (1) 
8

>  <PUBCHEM_PHARMACOPHORE_FEATURES>  (1) 
10
1 25 hydrophobe
1 3 acceptor
1 4 acceptor
1 5 acceptor
1 5 anion
1 6 acceptor
1 7 cation
1 7 donor
6 11 13 15 18 19 23 rings
6 12 16 17 20 21 22 rings

>  <PUBCHEM_HEAVY_ATOM_COUNT>  (1) 
25

>  <PUBCHEM_ATOM_DEF_STEREO_COUNT>  (1) 
0

>  <PUBCHEM_ATOM_UDEF_STEREO_COUNT>  (1) 
1

>  <PUBCHEM_BOND_DEF_STEREO_COUNT>  (1) 
0

>  <PUBCHEM_BOND_UDEF_STEREO_COUNT>  (1) 
0

>  <PUBCHEM_ISOTOPIC_ATOM_COUNT>  (1) 
0

>  <PUBCHEM_COMPONENT_COUNT>  (1) 
1

>  <PUBCHEM_CACTVS_TAUTO_COUNT>  (1) 
3

>  <PUBCHEM_CONFORMER_ID>  (1) 
000098DE00000002

>  <PUBCHEM_MMFF94_ENERGY>  (1) 
88.8374

>  <PUBCHEM_FEATURE_SELFOVERLAP>  (1) 
50.827

>  <PUBCHEM_SHAPE_FINGERPRINT>  (1) 
10498660 4 17561366158117289505
10937287 8 18411702058712743787
11552529 35 17974843175368472390
12107183 9 18262786398981499362
12633257 1 17603578634558976456
12788726 201 18124022701017099847
13134695 92 17399805900007789951
13383661 66 11307771811530745893
13965767 371 18042126453584061013
14576447 43 10015582826874693688
14739800 52 18055615447397726896
14767858 380 18199448009666877527
15238133 3 18341889702126989928
15475509 8 18267032665885890430
17980427 26 18197203759477874975
1813 80 8286191786482223827
20715895 44 17979351959243298713
20739085 24 18118681016041809546
21033650 10 17917164865306590860
21315764 268 17543073382162912213
21796203 349 17025413519416561178
21864079 5 18339652156914127461
22950370 63 9007051396550463233
235170 7 14979956960592058441
23559900 14 16913686589420070999
23598288 3 18124590049201447342
245318 6 17969239947991162013
2838139 119 17989192742407872976
376196 1 17989198214164364486
474 4 18338517431002192979
5104073 3 17752748389837097848
6328613 192 18410296922140336324
633830 44 18271242720940009407
6371009 1 18338217324368051909
7064713 232 18411976953626139612
7808743 9 18267028430325650984
79837 15 18335422378816720107
9849439 229 18341616971455884433
9981440 41 18409729535116596155

>  <PUBCHEM_SHAPE_MULTIPOLES>  (1) 
486.77
11.34
5.71
1.29
1.54
5.93
-0.15
-14.9
2.91
2.01
0.6
-0.67
-0.34
-1.73

>  <PUBCHEM_SHAPE_SELFOVERLAP>  (1) 
1003.135

>  <PUBCHEM_SHAPE_VOLUME>  (1) 
282.3

>  <PUBCHEM_COORDINATE_TYPE>  (1) 
2
5
10

$$$$
