39135
     RDKit          3D

 14 14  0  0  0  0  0  0  0  0999 V2000
    4.2874    0.3776   -0.2589 Cl  0  0  0  0  0  0  0  0  0  0  0  0
   -2.2598    0.8137   -0.8960 O   0  0  0  0  0  0  0  0  0  0  0  0
   -2.2404    0.6760    1.4018 O   0  0  0  0  0  0  0  0  0  0  0  0
    0.2916   -2.9489   -0.0996 O   0  0  0  0  0  0  0  0  0  0  0  0
   -1.5633   -1.8013    0.1484 O   0  0  0  0  0  0  0  0  0  0  0  0
   -0.3172   -1.8608    0.0274 N   0  0  0  0  0  0  0  0  0  0  0  0
   -0.1979    0.5852    0.1750 C   0  0  0  0  0  0  0  0  0  0  0  0
    0.4323   -0.6512    0.0347 C   0  0  0  0  0  0  0  0  0  0  0  0
    0.5586    1.7570    0.1811 C   0  0  0  0  0  0  0  0  0  0  0  0
    1.8192   -0.7160   -0.0995 C   0  0  0  0  0  0  0  0  0  0  0  0
    1.9454    1.6924    0.0468 C   0  0  0  0  0  0  0  0  0  0  0  0
    2.5759    0.4560   -0.0934 C   0  0  0  0  0  0  0  0  0  0  0  0
   -1.6450    0.6921    0.3187 C   0  0  0  0  0  0  0  0  0  0  0  0
   -3.6868    0.9281   -0.8865 C   0  0  0  0  0  0  0  0  0  0  0  0
  1 12  1  0
  2 13  1  0
  2 14  1  0
  3 13  2  0
  4  6  1  0
  5  6  2  0
  6  8  1  0
  7  8  2  0
  7  9  1  0
  7 13  1  0
  8 10  1  0
  9 11  2  0
 10 12  2  0
 11 12  1  0
M  CHG  2   4  -1   6   1
M  END
>  <PUBCHEM_COMPOUND_CID>  (1) 
39135

>  <PUBCHEM_CONFORMER_RMSD>  (1) 
0.6

>  <PUBCHEM_CONFORMER_DIVERSEORDER>  (1) 
1
2

>  <PUBCHEM_MMFF94_PARTIAL_CHARGES>  (1) 
17
1 -0.18
10 -0.15
11 -0.15
12 0.18
13 0.63
14 0.28
15 0.15
16 0.15
17 0.15
2 -0.43
3 -0.57
4 -0.52
5 -0.52
6 0.91
7 0.09
8 0.13
9 -0.15

>  <PUBCHEM_EFFECTIVE_ROTOR_COUNT>  (1) 
3

>  <PUBCHEM_PHARMACOPHORE_FEATURES>  (1) 
5
1 3 acceptor
1 4 acceptor
1 4 anion
1 5 acceptor
6 7 8 9 10 11 12 rings

>  <PUBCHEM_HEAVY_ATOM_COUNT>  (1) 
14

>  <PUBCHEM_ATOM_DEF_STEREO_COUNT>  (1) 
0

>  <PUBCHEM_ATOM_UDEF_STEREO_COUNT>  (1) 
0

>  <PUBCHEM_BOND_DEF_STEREO_COUNT>  (1) 
0

>  <PUBCHEM_BOND_UDEF_STEREO_COUNT>  (1) 
0

>  <PUBCHEM_ISOTOPIC_ATOM_COUNT>  (1) 
0

>  <PUBCHEM_COMPONENT_COUNT>  (1) 
1

>  <PUBCHEM_CACTVS_TAUTO_COUNT>  (1) 
1

>  <PUBCHEM_CONFORMER_ID>  (1) 
000098DF00000001

>  <PUBCHEM_MMFF94_ENERGY>  (1) 
48.8458

>  <PUBCHEM_FEATURE_SELFOVERLAP>  (1) 
25.456

>  <PUBCHEM_SHAPE_FINGERPRINT>  (1) 
1 1 18336539426383716285
11206711 2 18194404617679216310
12138202 97 18410015476563589830
12423570 1 10861581003184236809
13380535 76 18342175562001351150
14911166 2 18412263930745684844
14993402 34 18410854348111719708
15309172 13 18409739451626155520
15775835 57 18187361025832332924
16945 1 18411707560529134480
193761 8 17907016532038471952
20645476 183 17823152240702892526
21501502 16 18123198063153560044
2334 1 18123472949676805904
23388829 49 17906716017440083290
23402539 116 18273206483114512508
23402655 69 18267852914107854013
23552423 10 17973727179787589396
23559900 14 18271252703441063068
25 1 18336256830695159781
2748010 2 18339931540172757844
3060560 45 18337657647000063677
528886 8 18411131429099457776
63268167 104 18342172220094730089
6333449 129 18341617065839078530
81228 2 17832983128258107243

>  <PUBCHEM_SHAPE_MULTIPOLES>  (1) 
261.52
5.26
2.22
0.83
1.25
1.66
-0.07
-1.99
1.14
-0.15
0
-0.53
-0.19
0.2

>  <PUBCHEM_SHAPE_SELFOVERLAP>  (1) 
542.592

>  <PUBCHEM_SHAPE_VOLUME>  (1) 
150.8

>  <PUBCHEM_COORDINATE_TYPE>  (1) 
2
5
10

$$$$
