39148
     RDKit          3D

 21 23  0  0  1  0  0  0  0  0999 V2000
    1.0017   -1.1377   -0.7024 O   0  0  0  0  0  0  0  0  0  0  0  0
    1.6052    2.3799   -0.3386 O   0  0  0  0  0  0  0  0  0  0  0  0
    2.2211   -3.2525    0.6307 O   0  0  0  0  0  0  0  0  0  0  0  0
    4.0803    0.6246    0.2642 N   0  0  0  0  0  0  0  0  0  0  0  0
   -0.7445    0.2433    0.1116 N   0  0  0  0  0  0  0  0  0  0  0  0
   -2.1781    0.4104    1.8127 N   0  0  0  0  0  0  0  0  0  0  0  0
   -2.3051   -0.1444   -1.7094 N   0  0  0  0  0  0  0  0  0  0  0  0
   -4.6111   -0.1753   -0.9110 N   0  0  0  0  0  0  0  0  0  0  0  0
   -5.1779    0.1462    1.3918 N   0  0  0  0  0  0  0  0  0  0  0  0
    2.8675    0.3173   -0.4768 C   0  0  0  0  0  0  0  0  0  0  0  0
    1.6365    1.0229    0.0647 C   0  0  0  0  0  0  0  0  0  0  0  0
    2.4305   -1.1506   -0.4839 C   0  0  0  0  0  0  0  0  0  0  0  0
    0.5289    0.2182   -0.6042 C   0  0  0  0  0  0  0  0  0  0  0  0
    2.6906   -1.9281    0.8027 C   0  0  0  0  0  0  0  0  0  0  0  0
    5.2197   -0.1293   -0.2669 C   0  0  0  0  0  0  0  0  0  0  0  0
    4.3648    2.0618    0.2239 C   0  0  0  0  0  0  0  0  0  0  0  0
   -1.9908    0.0764   -0.4241 C   0  0  0  0  0  0  0  0  0  0  0  0
   -0.9105    0.4402    1.4579 C   0  0  0  0  0  0  0  0  0  0  0  0
   -2.8646    0.1839    0.6462 C   0  0  0  0  0  0  0  0  0  0  0  0
   -4.2209    0.0498    0.3668 C   0  0  0  0  0  0  0  0  0  0  0  0
   -3.6432   -0.2571   -1.8558 C   0  0  0  0  0  0  0  0  0  0  0  0
  1 12  1  0
  1 13  1  0
  2 11  1  0
  3 14  1  0
  4 10  1  0
  4 15  1  0
  4 16  1  0
  5 13  1  0
  5 17  1  0
  5 18  1  0
  6 18  2  0
  6 19  1  0
  7 17  1  0
  7 21  2  0
  8 20  2  0
  8 21  1  0
  9 20  1  0
 10 11  1  0
 10 12  1  0
 11 13  1  0
 12 14  1  0
 17 19  2  0
 19 20  1  0
M  END
>  <PUBCHEM_COMPOUND_CID>  (1) 
39148

>  <PUBCHEM_CONFORMER_RMSD>  (1) 
0.6

>  <PUBCHEM_CONFORMER_DIVERSEORDER>  (1) 
16
25
19
17
29
15
5
35
28
33
6
22
13
24
34
14
11
1
36
3
8
18
4
27
26
21
10
31
20
12
2
32
23
30
9
7

>  <PUBCHEM_MMFF94_PARTIAL_CHARGES>  (1) 
27
1 -0.56
10 0.27
11 0.28
12 0.28
13 0.54
14 0.28
15 0.27
16 0.27
17 0.11
18 0.04
19 0.23
2 -0.68
20 0.41
21 0.47
28 0.4
3 -0.68
35 0.15
36 0.4
37 0.15
38 0.4
39 0.4
4 -0.81
5 0.05
6 -0.57
7 -0.57
8 -0.62
9 -0.9

>  <PUBCHEM_EFFECTIVE_ROTOR_COUNT>  (1) 
4

>  <PUBCHEM_PHARMACOPHORE_FEATURES>  (1) 
14
1 1 acceptor
1 2 acceptor
1 2 donor
1 3 acceptor
1 3 donor
1 4 cation
1 9 cation
1 9 donor
3 5 6 18 cation
3 5 7 17 cation
3 7 8 21 cation
5 1 10 11 12 13 rings
5 5 6 17 18 19 rings
6 7 8 17 19 20 21 rings

>  <PUBCHEM_HEAVY_ATOM_COUNT>  (1) 
21

>  <PUBCHEM_ATOM_DEF_STEREO_COUNT>  (1) 
2

>  <PUBCHEM_ATOM_UDEF_STEREO_COUNT>  (1) 
2

>  <PUBCHEM_BOND_DEF_STEREO_COUNT>  (1) 
0

>  <PUBCHEM_BOND_UDEF_STEREO_COUNT>  (1) 
0

>  <PUBCHEM_ISOTOPIC_ATOM_COUNT>  (1) 
0

>  <PUBCHEM_COMPONENT_COUNT>  (1) 
1

>  <PUBCHEM_CACTVS_TAUTO_COUNT>  (1) 
3

>  <PUBCHEM_CONFORMER_ID>  (1) 
000098EC00000010

>  <PUBCHEM_MMFF94_ENERGY>  (1) 
56.0448

>  <PUBCHEM_FEATURE_SELFOVERLAP>  (1) 
71.657

>  <PUBCHEM_SHAPE_FINGERPRINT>  (1) 
10366900 7 18113905944479558960
12236239 1 17846781814423909332
12403814 3 18202567259577549385
12616971 3 18131069333626059428
12788726 201 17489315127100185075
13631057 29 18054780956315720911
14386348 63 17603309245229566923
15375358 24 17603301565986342608
15375462 189 18131911550747731547
1813 80 17912656704994067422
18681886 176 17060330864413347932
200 152 18343863324902521181
20279233 1 17603590720243324298
204376 136 18263083369994108276
20511986 3 17846487132613005449
20645477 70 18187360978804431754
21267235 1 16845293899470386551
2255824 54 18413109485046162460
23402539 116 16200430273391741253
23557571 272 16732988608750556421
23559900 14 16515962563207543618
300161 21 17917426510730356721
33824 294 18334014982468398922
34797466 226 14692012552274576624
4340502 62 18337967765488315091
474 4 18270116958625308480
542803 24 17917434241265411501
6034566 193 17540256875442945660
633830 44 18271820059302877876
77492 1 17917710188729748295
9981440 41 16550842666991802392

>  <PUBCHEM_SHAPE_MULTIPOLES>  (1) 
384.68
10.09
1.85
1.4
1.97
0.84
-0.02
-1.02
0.04
-3.01
0.37
1.74
0.09
-0.65

>  <PUBCHEM_SHAPE_SELFOVERLAP>  (1) 
826.247

>  <PUBCHEM_SHAPE_VOLUME>  (1) 
210.3

>  <PUBCHEM_COORDINATE_TYPE>  (1) 
2
5
10

$$$$
