39147
     RDKit          3D

 22 23  0  0  1  0  0  0  0  0999 V2000
   -0.9271   -3.2972    1.0267 O   0  0  0  0  0  0  0  0  0  0  0  0
   -2.3839   -2.5948   -1.3015 O   0  0  0  0  0  0  0  0  0  0  0  0
    0.2115    1.6785    0.4226 O   0  0  0  0  0  0  0  0  0  0  0  0
    2.5068    3.1983    0.9911 O   0  0  0  0  0  0  0  0  0  0  0  0
    3.0987   -0.0098   -0.7595 N   0  0  0  0  0  0  0  0  0  0  0  0
   -1.7461   -2.1332    0.9846 C   0  0  0  0  0  0  0  0  0  0  0  0
   -2.8998   -2.3680    0.0114 C   0  0  0  0  0  0  0  0  0  0  0  0
   -0.9035   -0.9276    0.5658 C   0  0  0  0  0  0  0  0  0  0  0  0
   -3.8362   -1.1575   -0.0098 C   0  0  0  0  0  0  0  0  0  0  0  0
   -1.7388    0.2794    0.2228 C   0  0  0  0  0  0  0  0  0  0  0  0
   -3.1092    0.1672   -0.0793 C   0  0  0  0  0  0  0  0  0  0  0  0
   -1.1193    1.5367    0.1554 C   0  0  0  0  0  0  0  0  0  0  0  0
    3.6582   -1.2757   -0.3056 C   0  0  0  0  0  0  0  0  0  0  0  0
   -3.8377    1.3213   -0.4076 C   0  0  0  0  0  0  0  0  0  0  0  0
    2.4669    2.2998   -0.1213 C   0  0  0  0  0  0  0  0  0  0  0  0
    3.0417    0.9551    0.3302 C   0  0  0  0  0  0  0  0  0  0  0  0
    1.0272    2.2038   -0.6213 C   0  0  0  0  0  0  0  0  0  0  0  0
   -1.8528    2.6735   -0.1818 C   0  0  0  0  0  0  0  0  0  0  0  0
   -3.2120    2.5665   -0.4606 C   0  0  0  0  0  0  0  0  0  0  0  0
    3.7032   -2.2436   -1.4926 C   0  0  0  0  0  0  0  0  0  0  0  0
    5.0751   -1.0224    0.2203 C   0  0  0  0  0  0  0  0  0  0  0  0
    2.7771   -1.8505    0.8099 C   0  0  0  0  0  0  0  0  0  0  0  0
  1  6  1  0
  2  7  1  0
  3 12  1  0
  3 17  1  0
  4 15  1  0
  5 13  1  0
  5 16  1  0
  6  7  1  0
  6  8  1  0
  7  9  1  0
  8 10  1  0
  9 11  1  0
 10 11  2  0
 10 12  1  0
 11 14  1  0
 12 18  2  0
 13 20  1  0
 13 21  1  0
 13 22  1  0
 14 19  2  0
 15 16  1  0
 15 17  1  0
 18 19  1  0
M  END
>  <PUBCHEM_COMPOUND_CID>  (1) 
39147

>  <PUBCHEM_CONFORMER_RMSD>  (1) 
0.8

>  <PUBCHEM_CONFORMER_DIVERSEORDER>  (1) 
3
93
60
112
61
90
72
100
68
79
77
96
50
24
108
11
115
87
110
85
31
20
43
42
119
38
78
56
66
39
26
84
59
7
101
80
65
47
74
17
113
97
103
28
73
109
4
117
30
91
67
82
114
75
83
23
51
53
92
111
37
89
46
9
14
49
71
102
118
2
62
64
40
48
10
106
32
19
69
94
58
104
34
33
70
99
41
86
21
45
44
107
15
27
95
63
54
22
8
116
25
98
57
88
6
55
16
5
76
12
1
36
105
35
29
18
81
52
13

>  <PUBCHEM_MMFF94_PARTIAL_CHARGES>  (1) 
26
1 -0.68
10 -0.14
11 -0.14
12 0.08
13 0.27
14 -0.15
15 0.28
16 0.27
17 0.28
18 -0.15
19 -0.15
2 -0.68
29 0.15
3 -0.36
33 0.36
36 0.15
37 0.15
38 0.4
39 0.4
4 -0.68
49 0.4
5 -0.9
6 0.28
7 0.28
8 0.14
9 0.14

>  <PUBCHEM_EFFECTIVE_ROTOR_COUNT>  (1) 
6.8

>  <PUBCHEM_PHARMACOPHORE_FEATURES>  (1) 
12
1 1 acceptor
1 1 donor
1 2 acceptor
1 2 donor
1 3 acceptor
1 4 acceptor
1 4 donor
1 5 cation
1 5 donor
4 13 20 21 22 hydrophobe
6 10 11 12 14 18 19 rings
6 6 7 8 9 10 11 rings

>  <PUBCHEM_HEAVY_ATOM_COUNT>  (1) 
22

>  <PUBCHEM_ATOM_DEF_STEREO_COUNT>  (1) 
2

>  <PUBCHEM_ATOM_UDEF_STEREO_COUNT>  (1) 
1

>  <PUBCHEM_BOND_DEF_STEREO_COUNT>  (1) 
0

>  <PUBCHEM_BOND_UDEF_STEREO_COUNT>  (1) 
0

>  <PUBCHEM_ISOTOPIC_ATOM_COUNT>  (1) 
0

>  <PUBCHEM_COMPONENT_COUNT>  (1) 
1

>  <PUBCHEM_CACTVS_TAUTO_COUNT>  (1) 
1

>  <PUBCHEM_CONFORMER_ID>  (1) 
000098EB00000003

>  <PUBCHEM_MMFF94_ENERGY>  (1) 
56.691

>  <PUBCHEM_FEATURE_SELFOVERLAP>  (1) 
60.927

>  <PUBCHEM_SHAPE_FINGERPRINT>  (1) 
10616163 171 18193278726457383364
10693767 8 18055894727841717871
10764073 3 17758442571362257979
107951 10 17096377124964783241
11578080 2 17416952010379117761
12422481 6 18198088970218815667
12553582 1 18196955300309731056
12596599 1 18200605678966792586
12633257 1 18341342093221535376
13122387 1 18121501254465741030
13140716 1 18410864286744878419
13402501 40 18340770317432178278
14223421 5 18267585882694325796
14251757 5 18193016832679693918
14790565 3 17690567381459072352
14866123 147 17192079553006437024
15352361 1 18412264995971212710
17492 89 18338797922009938910
17859628 97 18045784490014713307
19591789 44 18408605834322529913
19930381 70 17543913867911298771
20600515 1 18123484786659714284
20905425 154 18268155438133186918
21285901 2 17899115390199915223
221490 88 18410579526176455112
22393880 68 18338529624715358548
23184049 29 18410014368346086516
23227448 37 18412260606272329087
23557571 272 18342172242128892106
23558518 356 18187649175156625137
23559900 14 18340761628629449008
3298306 158 17902786371651701309
350125 39 18336267817675495281
4280585 95 18264497183519039342
463206 1 17764023970899034327
5309563 4 17472425825075598507
6138700 20 17977667506906650286
6823239 73 18342737399969537224
81228 2 18116996791887866217
9709674 26 18337672035087737752

>  <PUBCHEM_SHAPE_MULTIPOLES>  (1) 
424.29
8.51
4.19
1.01
5.87
0.13
-0.13
-1.95
-1.26
-0.86
0.23
0.41
-0.45
0.88

>  <PUBCHEM_SHAPE_SELFOVERLAP>  (1) 
873.673

>  <PUBCHEM_SHAPE_VOLUME>  (1) 
244.5

>  <PUBCHEM_COORDINATE_TYPE>  (1) 
2
5
10

$$$$
