39165
     RDKit          3D

 20 22  0  0  0  0  0  0  0  0999 V2000
   -5.8498   -0.4254    0.1436 O   0  0  0  0  0  0  0  0  0  0  0  0
    5.7111    0.1896   -0.1364 N   0  0  0  0  0  0  0  0  0  0  0  0
   -0.4041   -0.1830   -0.5523 N   0  0  0  0  0  0  0  0  0  0  0  0
    0.1702   -0.2077    0.5612 N   0  0  0  0  0  0  0  0  0  0  0  0
    4.3152    0.0897    0.0393 C   0  0  0  0  0  0  0  0  0  0  0  0
   -3.9394    0.7652   -0.0487 C   0  0  0  0  0  0  0  0  0  0  0  0
   -4.5012   -0.5073   -0.0356 C   0  0  0  0  0  0  0  0  0  0  0  0
   -2.5496    0.8840   -0.2238 C   0  0  0  0  0  0  0  0  0  0  0  0
   -1.7890   -0.2833   -0.3773 C   0  0  0  0  0  0  0  0  0  0  0  0
    3.5470    1.2440    0.1929 C   0  0  0  0  0  0  0  0  0  0  0  0
    3.7027   -1.1634    0.0592 C   0  0  0  0  0  0  0  0  0  0  0  0
    1.5611   -0.1073    0.3859 C   0  0  0  0  0  0  0  0  0  0  0  0
   -3.7719   -1.6852   -0.1860 C   0  0  0  0  0  0  0  0  0  0  0  0
   -5.0210    1.6666    0.1344 C   0  0  0  0  0  0  0  0  0  0  0  0
   -2.3917   -1.5438   -0.3587 C   0  0  0  0  0  0  0  0  0  0  0  0
    2.1666    1.1452    0.3668 C   0  0  0  0  0  0  0  0  0  0  0  0
    2.3222   -1.2621    0.2330 C   0  0  0  0  0  0  0  0  0  0  0  0
    6.2879    1.3491   -0.7870 C   0  0  0  0  0  0  0  0  0  0  0  0
    6.5880   -0.8597    0.3440 C   0  0  0  0  0  0  0  0  0  0  0  0
   -6.1544    0.8947    0.2455 C   0  0  0  0  0  0  0  0  0  0  0  0
  1  7  1  0
  1 20  1  0
  2  5  1  0
  2 18  1  0
  2 19  1  0
  3  4  2  0
  3  9  1  0
  4 12  1  0
  5 10  2  0
  5 11  1  0
  6  7  2  0
  6  8  1  0
  6 14  1  0
  7 13  1  0
  8  9  2  0
  9 15  1  0
 10 16  1  0
 11 17  2  0
 12 16  2  0
 12 17  1  0
 13 15  2  0
 14 20  2  0
M  END
>  <PUBCHEM_COMPOUND_CID>  (1) 
39165

>  <PUBCHEM_CONFORMER_RMSD>  (1) 
0.6

>  <PUBCHEM_CONFORMER_DIVERSEORDER>  (1) 
1
4
3
2
5
6

>  <PUBCHEM_MMFF94_PARTIAL_CHARGES>  (1) 
28
1 -0.28
10 -0.15
11 -0.15
12 0.18
13 -0.15
14 -0.15
15 -0.15
16 -0.15
17 -0.15
18 0.37
19 0.37
2 -0.84
20 -0.01
21 0.15
22 0.15
23 0.15
24 0.15
25 0.15
26 0.15
27 0.15
28 0.15
3 -0.18
35 0.15
4 -0.18
5 0.1
7 0.14
8 -0.15
9 0.18

>  <PUBCHEM_EFFECTIVE_ROTOR_COUNT>  (1) 
3

>  <PUBCHEM_PHARMACOPHORE_FEATURES>  (1) 
5
1 1 acceptor
1 2 cation
5 1 6 7 14 20 rings
6 5 10 11 12 16 17 rings
6 6 7 8 9 13 15 rings

>  <PUBCHEM_HEAVY_ATOM_COUNT>  (1) 
20

>  <PUBCHEM_ATOM_DEF_STEREO_COUNT>  (1) 
0

>  <PUBCHEM_ATOM_UDEF_STEREO_COUNT>  (1) 
0

>  <PUBCHEM_BOND_DEF_STEREO_COUNT>  (1) 
0

>  <PUBCHEM_BOND_UDEF_STEREO_COUNT>  (1) 
0

>  <PUBCHEM_ISOTOPIC_ATOM_COUNT>  (1) 
0

>  <PUBCHEM_COMPONENT_COUNT>  (1) 
1

>  <PUBCHEM_CACTVS_TAUTO_COUNT>  (1) 
1

>  <PUBCHEM_CONFORMER_ID>  (1) 
000098FD00000001

>  <PUBCHEM_MMFF94_ENERGY>  (1) 
62.5832

>  <PUBCHEM_FEATURE_SELFOVERLAP>  (1) 
25.474

>  <PUBCHEM_SHAPE_FINGERPRINT>  (1) 
10299344 5 18333733516091990278
10595046 47 18408322202797346342
10968037 39 18334295379460773327
11089746 13 17560793342539320153
11315181 36 18261112998070826857
11524674 6 16988842795665660455
11719270 70 18059853931710925886
12107183 9 17689996730802297825
12236239 1 18335139795410651980
12516196 113 16056878039822340768
12616971 3 14346086350931428122
12788726 201 17632017425206306883
13167372 99 18335984186308482912
13533116 47 13110691506217984148
13668630 136 15195566818505985237
1420 363 13984662538306869808
14251752 14 18413389813409042784
14251764 18 18343302574515602947
14341114 176 18410296886767546661
14933364 13 18410014338175846356
15048467 5 18409167709874679124
15183329 4 18201727232366575520
15250474 111 18339061770362154670
15788980 27 17132112463557390452
17834072 33 18411699906849654380
17844677 252 18341618160876754857
1813 80 16877665634415024455
19489759 90 10159700192309012599
20281389 69 18407757032251251312
20645477 56 18410853257411312741
20681677 155 18408602578009527307
21267235 1 18410860966281516539
220451 1 17385722496032800986
22224240 67 16008751320874326201
23035841 295 18333448733652825698
23081809 10 18335415798915733630
23402539 116 18272364286913295316
23402655 69 18412261748775509254
23522609 53 18189077359579480948
23536379 177 18409448077108341770
23559900 14 18201431514877560561
29717793 49 16845580811960394844
300161 21 18412256233652385819
3004659 81 18410577246002709486
34797466 226 17917722335293277340
3545911 37 18413388735087447265
4073 2 18041284361048446594
4214541 1 18412824694481273641
4340502 62 16226044492757821658
445580 37 18343032077180330580
4463277 17 18411138043665585092
5104073 3 18409724105665692626
542803 24 18040152928911983076
54446538 1 18411417315160776489
59755656 215 18201725016158306406
59755656 520 17313103059789690587
6327066 14 17972872567723468661
77779 3 18411698802979872707

>  <PUBCHEM_SHAPE_MULTIPOLES>  (1) 
390.78
17.36
1.61
0.71
6.09
0.05
0.02
-3.01
0.23
-0.42
0.05
0.22
-0.03
-0.65

>  <PUBCHEM_SHAPE_SELFOVERLAP>  (1) 
855.78

>  <PUBCHEM_SHAPE_VOLUME>  (1) 
215.1

>  <PUBCHEM_COORDINATE_TYPE>  (1) 
2
5
10

$$$$
