3916
     RDKit          3D

 23 25  0  0  1  0  0  0  0  0999 V2000
   -0.8802    1.9382    1.8226 S   0  0  0  0  0  0  0  0  0  0  0  0
    4.2249    0.9006   -1.0158 O   0  0  0  0  0  0  0  0  0  0  0  0
   -0.5824    0.2142   -0.7469 N   0  0  0  0  0  0  0  0  0  0  0  0
    0.0525   -3.6754    0.9888 N   0  0  0  0  0  0  0  0  0  0  0  0
    0.1325   -2.1613   -0.9836 C   0  0  0  0  0  0  0  0  0  0  0  0
   -0.4612   -0.9197   -1.6723 C   0  0  0  0  0  0  0  0  0  0  0  0
   -0.6187   -2.5820    0.2941 C   0  0  0  0  0  0  0  0  0  0  0  0
    0.2139   -3.3460   -1.9532 C   0  0  0  0  0  0  0  0  0  0  0  0
    0.6175    0.7741   -0.2397 C   0  0  0  0  0  0  0  0  0  0  0  0
   -1.8860    0.7061   -0.4842 C   0  0  0  0  0  0  0  0  0  0  0  0
    0.6086    1.5938    0.9062 C   0  0  0  0  0  0  0  0  0  0  0  0
   -2.1429    1.5188    0.6378 C   0  0  0  0  0  0  0  0  0  0  0  0
    1.8635    0.5704   -0.8721 C   0  0  0  0  0  0  0  0  0  0  0  0
   -2.9735    0.4389   -1.3444 C   0  0  0  0  0  0  0  0  0  0  0  0
   -0.6732   -4.0321    2.2089 C   0  0  0  0  0  0  0  0  0  0  0  0
    1.4341   -3.3119    1.3071 C   0  0  0  0  0  0  0  0  0  0  0  0
    1.8004    2.1536    1.4001 C   0  0  0  0  0  0  0  0  0  0  0  0
   -3.4361    2.0105    0.8894 C   0  0  0  0  0  0  0  0  0  0  0  0
    3.0443    1.1332   -0.3799 C   0  0  0  0  0  0  0  0  0  0  0  0
   -4.2557    0.9343   -1.0923 C   0  0  0  0  0  0  0  0  0  0  0  0
    3.0131    1.9232    0.7593 C   0  0  0  0  0  0  0  0  0  0  0  0
   -4.4880    1.7184    0.0273 C   0  0  0  0  0  0  0  0  0  0  0  0
    5.3928    1.5002   -0.4570 C   0  0  0  0  0  0  0  0  0  0  0  0
  1 11  1  0
  1 12  1  0
  2 19  1  0
  2 23  1  0
  3  6  1  0
  3  9  1  0
  3 10  1  0
  4  7  1  0
  4 15  1  0
  4 16  1  0
  5  6  1  0
  5  7  1  0
  5  8  1  0
  9 11  2  0
  9 13  1  0
 10 12  2  0
 10 14  1  0
 11 17  1  0
 12 18  1  0
 13 19  2  0
 14 20  2  0
 17 21  2  0
 18 22  2  0
 19 21  1  0
 20 22  1  0
M  END
>  <PUBCHEM_COMPOUND_CID>  (1) 
3916

>  <PUBCHEM_CONFORMER_RMSD>  (1) 
0.8

>  <PUBCHEM_CONFORMER_DIVERSEORDER>  (1) 
1
9
11
8
5
4
10
6
3
2
7
12

>  <PUBCHEM_MMFF94_PARTIAL_CHARGES>  (1) 
28
1 -0.2
10 0.1
11 0.1
12 0.1
13 -0.15
14 -0.15
15 0.27
16 0.27
17 -0.15
18 -0.15
19 0.08
2 -0.36
20 -0.15
21 -0.15
22 -0.15
23 0.28
3 -0.57
32 0.15
33 0.15
4 -0.81
40 0.15
41 0.15
42 0.15
43 0.15
44 0.15
6 0.37
7 0.27
9 0.1

>  <PUBCHEM_EFFECTIVE_ROTOR_COUNT>  (1) 
5.4

>  <PUBCHEM_PHARMACOPHORE_FEATURES>  (1) 
7
1 2 acceptor
1 3 cation
1 4 cation
1 8 hydrophobe
6 1 3 9 10 11 12 rings
6 10 12 14 18 20 22 rings
6 9 11 13 17 19 21 rings

>  <PUBCHEM_HEAVY_ATOM_COUNT>  (1) 
23

>  <PUBCHEM_ATOM_DEF_STEREO_COUNT>  (1) 
0

>  <PUBCHEM_ATOM_UDEF_STEREO_COUNT>  (1) 
1

>  <PUBCHEM_BOND_DEF_STEREO_COUNT>  (1) 
0

>  <PUBCHEM_BOND_UDEF_STEREO_COUNT>  (1) 
0

>  <PUBCHEM_ISOTOPIC_ATOM_COUNT>  (1) 
0

>  <PUBCHEM_COMPONENT_COUNT>  (1) 
1

>  <PUBCHEM_CACTVS_TAUTO_COUNT>  (1) 
1

>  <PUBCHEM_CONFORMER_ID>  (1) 
00000F4C00000001

>  <PUBCHEM_MMFF94_ENERGY>  (1) 
92.3321

>  <PUBCHEM_FEATURE_SELFOVERLAP>  (1) 
35.551

>  <PUBCHEM_SHAPE_FINGERPRINT>  (1) 
10764073 3 13958587573025929852
107951 10 18335143124211104550
10906281 52 17703246099785097480
1100329 8 18337386016152224770
11045515 52 10231757773166580960
11578080 2 17753893801300714821
11582403 64 13155340826106164367
12160290 23 17976796998518550759
12549972 3 17985822860155377024
12553582 1 17260195393959245031
12592029 89 18189332381577503152
12644460 14 17915191122298166993
12788726 201 17762318611073142994
13083527 12 17977091367192786025
13135754 10 17606412191977478794
133893 2 17902480750331708447
13681431 1 17763171449981254175
14955137 171 17913761735021711566
15463212 79 18189322628060688912
1813 80 17620749484264331143
20567600 347 18412544297525634071
20600515 1 16753795479079363581
20645476 183 18336825398228537884
21421861 104 17837505054748540673
21524375 3 18413385432167984749
23419403 2 17762669106332958575
23558518 356 17980184602555281156
23559900 14 17270031693584625229
2748010 2 16260636511041409745
298252 57 17203889664797568037
3380486 145 17191786498534132662
3383291 50 18131071533087873462
35225 105 18193276510048725874
3759504 43 18335143141264249612
394222 165 18268993085747324547
404807 78 17681809016563664783
4058900 60 18263938647774548800
4340502 62 18264789700672259401
576247 118 17039227082768644698
59755656 215 18200591509991106943
59755656 520 18410854378002249084
6138700 20 17987244326842251270
81228 2 17762319715206623413
9709674 26 17558255798831461548
9981440 41 16481026929427879912

>  <PUBCHEM_SHAPE_MULTIPOLES>  (1) 
461.35
6.81
4.72
1.9
1.65
6.95
-0.36
-7.44
1.96
0.95
-2.48
-0.21
1.31
-0.31

>  <PUBCHEM_SHAPE_SELFOVERLAP>  (1) 
963.012

>  <PUBCHEM_SHAPE_VOLUME>  (1) 
264.3

>  <PUBCHEM_COORDINATE_TYPE>  (1) 
2
5
10

$$$$
