39172
     RDKit          3D

 12 13  0  0  0  0  0  0  0  0999 V2000
   -1.4607    1.1014    0.0008 O   0  0  0  0  0  0  0  0  0  0  0  0
   -3.6145    0.3215   -0.0020 O   0  0  0  0  0  0  0  0  0  0  0  0
    0.3758   -0.4960    0.0001 C   0  0  0  0  0  0  0  0  0  0  0  0
    1.7520   -0.7343   -0.0004 C   0  0  0  0  0  0  0  0  0  0  0  0
   -0.0792    0.8199    0.0004 C   0  0  0  0  0  0  0  0  0  0  0  0
    2.6470    0.3396   -0.0003 C   0  0  0  0  0  0  0  0  0  0  0  0
   -0.5980   -1.5742    0.0005 C   0  0  0  0  0  0  0  0  0  0  0  0
    0.8011    1.9000    0.0002 C   0  0  0  0  0  0  0  0  0  0  0  0
    2.3206   -2.1174   -0.0006 C   0  0  0  0  0  0  0  0  0  0  0  0
    2.1722    1.6533   -0.0001 C   0  0  0  0  0  0  0  0  0  0  0  0
   -1.9049   -1.2994    0.0009 C   0  0  0  0  0  0  0  0  0  0  0  0
   -2.4113    0.0857    0.0005 C   0  0  0  0  0  0  0  0  0  0  0  0
  1  5  1  0
  1 12  1  0
  2 12  2  0
  3  4  1  0
  3  5  2  0
  3  7  1  0
  4  6  2  0
  4  9  1  0
  5  8  1  0
  6 10  1  0
  7 11  2  0
  8 10  2  0
 11 12  1  0
M  END
>  <PUBCHEM_COMPOUND_CID>  (1) 
39172

>  <PUBCHEM_CONFORMER_RMSD>  (1) 
0.4

>  <PUBCHEM_CONFORMER_DIVERSEORDER>  (1) 
1

>  <PUBCHEM_MMFF94_PARTIAL_CHARGES>  (1) 
17
1 -0.23
10 -0.15
11 -0.14
12 0.71
13 0.15
14 0.15
15 0.15
19 0.15
2 -0.57
20 0.15
3 0.03
4 -0.14
5 0.08
6 -0.15
7 -0.18
8 -0.15
9 0.14

>  <PUBCHEM_EFFECTIVE_ROTOR_COUNT>  (1) 
0

>  <PUBCHEM_PHARMACOPHORE_FEATURES>  (1) 
3
1 2 acceptor
6 1 3 5 7 11 12 rings
6 3 4 5 6 8 10 rings

>  <PUBCHEM_HEAVY_ATOM_COUNT>  (1) 
12

>  <PUBCHEM_ATOM_DEF_STEREO_COUNT>  (1) 
0

>  <PUBCHEM_ATOM_UDEF_STEREO_COUNT>  (1) 
0

>  <PUBCHEM_BOND_DEF_STEREO_COUNT>  (1) 
0

>  <PUBCHEM_BOND_UDEF_STEREO_COUNT>  (1) 
0

>  <PUBCHEM_ISOTOPIC_ATOM_COUNT>  (1) 
0

>  <PUBCHEM_COMPONENT_COUNT>  (1) 
1

>  <PUBCHEM_CACTVS_TAUTO_COUNT>  (1) 
1

>  <PUBCHEM_CONFORMER_ID>  (1) 
0000990400000001

>  <PUBCHEM_MMFF94_ENERGY>  (1) 
39.1551

>  <PUBCHEM_FEATURE_SELFOVERLAP>  (1) 
15.25

>  <PUBCHEM_SHAPE_FINGERPRINT>  (1) 
10130415 120 18262515879780532202
10967382 1 18410575093253026502
11471102 20 18410006607556291709
12423570 1 14816662617403533749
12524768 44 18408885139586336438
13380535 21 18264221351164101475
13380535 76 18337103591823659090
13897977 150 18338513152966774861
14325111 11 18410575115144717793
14648413 74 18336267945669341816
15775835 57 18337960094133236149
161256 15 18335981974141576980
16945 1 18410572920110480928
17844478 74 17967541181303903801
17990270 104 18410292540440225026
193761 8 18266740375253295046
19973954 147 18410577322446606667
20201158 50 18410009944360882114
20588541 1 18408605881060579388
20645477 70 18410849950424093335
20871998 22 18126287428840088270
21040471 1 17762056940628503424
21501502 16 18338231690732658191
2334 1 17834396000768403296
23402655 69 18341884208905737197
23463225 33 18337953381162662418
23552423 10 18335984288907357910
23559900 14 16902147099165979814
241688 4 17978513035848748528
2748010 2 18193832635478195004
5084963 1 18129658591229618331
528886 8 18339075003345225992
53812653 166 18342453798430315416
53812654 25 18272075064111202382
63268167 104 18411141328983108001
7364860 26 18343301466271589762

>  <PUBCHEM_SHAPE_MULTIPOLES>  (1) 
235.22
4.23
2.13
0.6
2.13
0.26
0
-0.04
0
-1.1
0
-0.04
0.01
0

>  <PUBCHEM_SHAPE_SELFOVERLAP>  (1) 
511.823

>  <PUBCHEM_SHAPE_VOLUME>  (1) 
128.9

>  <PUBCHEM_COORDINATE_TYPE>  (1) 
2
5
10

$$$$
