39173
     RDKit          3D

 14 14  0  0  0  0  0  0  0  0999 V2000
    4.4371   -0.9548   -0.0577 Cl  0  0  0  0  0  0  0  0  0  0  0  0
   -3.2492   -2.0144   -0.5988 O   0  0  0  0  0  0  0  0  0  0  0  0
   -1.6565   -1.6281    0.9680 O   0  0  0  0  0  0  0  0  0  0  0  0
   -1.1967    1.1155   -0.0112 C   0  0  0  0  0  0  0  0  0  0  0  0
   -2.1915    0.1121   -0.6682 C   0  0  0  0  0  0  0  0  0  0  0  0
    0.2484    0.5855   -0.0233 C   0  0  0  0  0  0  0  0  0  0  0  0
   -1.2286    2.4259   -0.8380 C   0  0  0  0  0  0  0  0  0  0  0  0
   -1.7269    1.4783    1.3982 C   0  0  0  0  0  0  0  0  0  0  0  0
    0.8185    0.2807   -1.2328 C   0  0  0  0  0  0  0  0  0  0  0  0
    0.8978    0.4420    1.1764 C   0  0  0  0  0  0  0  0  0  0  0  0
   -2.3091   -1.2420    0.0096 C   0  0  0  0  0  0  0  0  0  0  0  0
    2.1277   -0.2007   -1.2436 C   0  0  0  0  0  0  0  0  0  0  0  0
    2.2070   -0.0393    1.1658 C   0  0  0  0  0  0  0  0  0  0  0  0
    2.8221   -0.3606   -0.0444 C   0  0  0  0  0  0  0  0  0  0  0  0
  1 14  1  0
  2 11  1  0
  3 11  2  0
  4  5  1  0
  4  6  1  0
  4  7  1  0
  4  8  1  0
  5 11  1  0
  6  9  2  0
  6 10  1  0
  9 12  1  0
 10 13  2  0
 12 14  2  0
 13 14  1  0
M  END
>  <PUBCHEM_COMPOUND_CID>  (1) 
39173

>  <PUBCHEM_CONFORMER_RMSD>  (1) 
0.6

>  <PUBCHEM_CONFORMER_DIVERSEORDER>  (1) 
1
4
10
3
2
8
7
6
5
9

>  <PUBCHEM_MMFF94_PARTIAL_CHARGES>  (1) 
17
1 -0.18
10 -0.15
11 0.66
12 -0.15
13 -0.15
14 0.18
2 -0.65
23 0.15
24 0.15
25 0.15
26 0.15
27 0.5
3 -0.57
4 0.14
5 0.06
6 -0.14
9 -0.15

>  <PUBCHEM_EFFECTIVE_ROTOR_COUNT>  (1) 
3

>  <PUBCHEM_PHARMACOPHORE_FEATURES>  (1) 
5
1 2 acceptor
1 3 acceptor
3 2 3 11 anion
3 4 7 8 hydrophobe
6 6 9 10 12 13 14 rings

>  <PUBCHEM_HEAVY_ATOM_COUNT>  (1) 
14

>  <PUBCHEM_ATOM_DEF_STEREO_COUNT>  (1) 
0

>  <PUBCHEM_ATOM_UDEF_STEREO_COUNT>  (1) 
0

>  <PUBCHEM_BOND_DEF_STEREO_COUNT>  (1) 
0

>  <PUBCHEM_BOND_UDEF_STEREO_COUNT>  (1) 
0

>  <PUBCHEM_ISOTOPIC_ATOM_COUNT>  (1) 
0

>  <PUBCHEM_COMPONENT_COUNT>  (1) 
1

>  <PUBCHEM_CACTVS_TAUTO_COUNT>  (1) 
1

>  <PUBCHEM_CONFORMER_ID>  (1) 
0000990500000001

>  <PUBCHEM_MMFF94_ENERGY>  (1) 
41.3182

>  <PUBCHEM_FEATURE_SELFOVERLAP>  (1) 
25.431

>  <PUBCHEM_SHAPE_FINGERPRINT>  (1) 
11471102 22 16845572015482068886
11543360 7 18335432249020012950
11769659 78 18335978693082143690
12138202 97 18196363723945673068
12202030 40 17917163701465302078
124424 183 17630878297269677116
12500047 106 18121208788857487652
12932764 1 18187933811767459136
13024252 1 15936703574953983225
14289901 80 18261109639475129376
14817 1 13487846358271134873
15653759 3 18131630058897100274
15852999 172 17982437214122839621
15906896 17 17678182594616611609
16945 1 18262226721017632008
17844478 74 17418093234708146608
18534176 82 18199740358609484268
20361792 2 18263927803356094735
20645477 70 17543057335969824663
20711983 138 18340771537049877011
20711985 344 18335976498190175769
21061003 4 17132114645548430992
21501502 16 18342749545493861656
22112679 90 18262822729482192741
23402539 116 18267011774521689893
23559900 14 18339348683578643770
3286 77 17131547357419896091
568465 68 16845575331149653926
81228 2 18411142420263724633

>  <PUBCHEM_SHAPE_MULTIPOLES>  (1) 
278.24
5.48
1.88
1.33
4.68
0.06
-0.13
2.58
0.22
-2.21
0.13
0.06
-0.25
-0.05

>  <PUBCHEM_SHAPE_SELFOVERLAP>  (1) 
566.197

>  <PUBCHEM_SHAPE_VOLUME>  (1) 
163.8

>  <PUBCHEM_COORDINATE_TYPE>  (1) 
2
5
10

$$$$
