39170
     RDKit          3D

 23 27  0  0  1  0  0  0  0  0999 V2000
    1.4700    1.8591    0.2323 O   0  0  0  0  0  0  0  0  0  0  0  0
   -5.0812   -1.1262   -1.2656 O   0  0  0  0  0  0  0  0  0  0  0  0
    2.0496   -0.8513   -0.0697 N   0  0  0  0  0  0  0  0  0  0  0  0
   -0.5159    0.7923   -0.7134 C   0  0  0  0  0  0  0  0  0  0  0  0
    0.3803    0.9737    0.5296 C   0  0  0  0  0  0  0  0  0  0  0  0
    0.8708   -0.4984    0.7253 C   0  0  0  0  0  0  0  0  0  0  0  0
    0.4206    0.1736   -1.8650 C   0  0  0  0  0  0  0  0  0  0  0  0
   -1.0626    2.1777   -1.1454 C   0  0  0  0  0  0  0  0  0  0  0  0
   -0.3584    1.6821    1.6932 C   0  0  0  0  0  0  0  0  0  0  0  0
   -1.6649   -0.2198   -0.2786 C   0  0  0  0  0  0  0  0  0  0  0  0
    1.9150   -0.2222   -1.4270 C   0  0  0  0  0  0  0  0  0  0  0  0
   -0.1350   -1.2597    1.5967 C   0  0  0  0  0  0  0  0  0  0  0  0
    3.3208   -0.6091    0.5809 C   0  0  0  0  0  0  0  0  0  0  0  0
   -1.7755    2.9223   -0.0098 C   0  0  0  0  0  0  0  0  0  0  0  0
   -0.9121    3.0413    1.2451 C   0  0  0  0  0  0  0  0  0  0  0  0
    4.4516   -1.1794   -0.2534 C   0  0  0  0  0  0  0  0  0  0  0  0
   -1.5005   -1.1230    0.8510 C   0  0  0  0  0  0  0  0  0  0  0  0
    5.8380   -1.0407    0.2588 C   0  0  0  0  0  0  0  0  0  0  0  0
    5.3796   -0.2294   -0.9174 C   0  0  0  0  0  0  0  0  0  0  0  0
   -2.8740   -0.2642   -0.9856 C   0  0  0  0  0  0  0  0  0  0  0  0
   -2.5547   -1.9516    1.2497 C   0  0  0  0  0  0  0  0  0  0  0  0
   -3.9074   -1.1102   -0.5730 C   0  0  0  0  0  0  0  0  0  0  0  0
   -3.7541   -1.9369    0.5414 C   0  0  0  0  0  0  0  0  0  0  0  0
  1  5  1  0
  2 22  1  0
  3  6  1  0
  3 11  1  0
  3 13  1  0
  4  5  1  0
  4  7  1  0
  4  8  1  0
  4 10  1  0
  5  6  1  0
  5  9  1  0
  6 12  1  0
  7 11  1  0
  8 14  1  0
  9 15  1  0
 10 17  2  0
 10 20  1  0
 12 17  1  0
 13 16  1  0
 14 15  1  0
 16 18  1  0
 16 19  1  0
 17 21  1  0
 18 19  1  0
 20 22  2  0
 21 23  2  0
 22 23  1  0
M  END
>  <PUBCHEM_COMPOUND_CID>  (1) 
39170

>  <PUBCHEM_CONFORMER_RMSD>  (1) 
0.8

>  <PUBCHEM_CONFORMER_DIVERSEORDER>  (1) 
1
2

>  <PUBCHEM_MMFF94_PARTIAL_CHARGES>  (1) 
28
1 -0.68
10 -0.14
11 0.27
12 0.14
13 0.37
16 -0.19
17 -0.14
18 -0.2
19 -0.2
2 -0.53
20 -0.15
21 -0.15
22 0.08
23 -0.15
3 -0.81
4 0.14
41 0.1
42 0.1
43 0.1
44 0.1
45 0.1
46 0.4
47 0.15
48 0.15
49 0.15
5 0.28
50 0.45
6 0.27

>  <PUBCHEM_EFFECTIVE_ROTOR_COUNT>  (1) 
4.2

>  <PUBCHEM_PHARMACOPHORE_FEATURES>  (1) 
8
1 1 acceptor
1 1 donor
1 2 donor
1 3 cation
6 10 17 20 21 22 23 rings
6 3 4 5 6 7 11 rings
6 4 5 6 10 12 17 rings
6 4 5 8 9 14 15 rings

>  <PUBCHEM_HEAVY_ATOM_COUNT>  (1) 
23

>  <PUBCHEM_ATOM_DEF_STEREO_COUNT>  (1) 
3

>  <PUBCHEM_ATOM_UDEF_STEREO_COUNT>  (1) 
0

>  <PUBCHEM_BOND_DEF_STEREO_COUNT>  (1) 
0

>  <PUBCHEM_BOND_UDEF_STEREO_COUNT>  (1) 
0

>  <PUBCHEM_ISOTOPIC_ATOM_COUNT>  (1) 
0

>  <PUBCHEM_COMPONENT_COUNT>  (1) 
1

>  <PUBCHEM_CACTVS_TAUTO_COUNT>  (1) 
3

>  <PUBCHEM_CONFORMER_ID>  (1) 
0000990200000001

>  <PUBCHEM_MMFF94_ENERGY>  (1) 
132.3285

>  <PUBCHEM_FEATURE_SELFOVERLAP>  (1) 
41.499

>  <PUBCHEM_SHAPE_FINGERPRINT>  (1) 
10366900 7 18412831291894321618
104564 63 18336543811983142907
10764073 3 13970358905341189945
10863032 1 17896043315635079893
10948715 1 17762059835056932264
11315181 36 17894919516953928774
12035759 4 17313099735484606546
12119455 92 9007063456692081866
121448 382 17676490514740085106
12403814 3 17418370290253083102
12760667 363 18412544293062303410
12788726 201 18337382734728015491
12892183 10 14333143965316943071
13134695 92 18128817641397812921
13544653 18 18341614849462042818
13583140 156 14476962242330045587
14713325 29 17631172978944035376
14790565 3 17687178690896109181
16752209 62 18334006164663131098
16945 1 18041544863456698769
17349148 13 17822019692255208294
17357779 13 18412538825315273226
17980427 23 18261690198583565628
1813 80 17417823863165619060
200 152 18408886239578181030
20600515 1 18269575959927600247
20775438 99 17040056110569367391
21236236 1 18337674114020467194
23175994 123 18410856602985185971
23352939 185 18041000660962022548
23402539 116 18408041788403342334
23419403 2 18267846432390332836
23526113 38 18117831329792219785
23557571 272 18272091548190227956
23559900 14 18041841835013185916
25 1 12757139191040464111
283562 15 18409448046621935026
3027735 51 18339084765653584714
347723 3 16588020208188889231
5104073 3 18270113493245850330
53917941 68 18042962077815382708
5845 1 17558581112538914441
59755656 520 17977950085589891717
7226269 152 18338797806657485277
81228 2 18268447749528838585
9981440 41 17056386710051386094

>  <PUBCHEM_SHAPE_MULTIPOLES>  (1) 
456.61
8.56
2.67
1.57
10.34
2.09
-0.05
-6.1
-2.13
-2.35
0.89
-0.44
0.17
-0.05

>  <PUBCHEM_SHAPE_SELFOVERLAP>  (1) 
989.211

>  <PUBCHEM_SHAPE_VOLUME>  (1) 
246.5

>  <PUBCHEM_COORDINATE_TYPE>  (1) 
2
5
10

$$$$
