39171
     RDKit          3D

 22 26  0  0  0  0  0  0  0  0999 V2000
   -0.6590   -3.4679   -0.0003 O   0  0  0  0  0  0  0  0  0  0  0  0
   -3.1796   -2.6623    0.0011 O   0  0  0  0  0  0  0  0  0  0  0  0
   -0.1375    0.1148   -0.0001 C   0  0  0  0  0  0  0  0  0  0  0  0
   -1.4996    0.5385   -0.0001 C   0  0  0  0  0  0  0  0  0  0  0  0
    0.9213    1.0656    0.0001 C   0  0  0  0  0  0  0  0  0  0  0  0
    0.1951   -1.2500   -0.0001 C   0  0  0  0  0  0  0  0  0  0  0  0
    2.2933    0.6210    0.0001 C   0  0  0  0  0  0  0  0  0  0  0  0
   -1.8095    1.9173   -0.0001 C   0  0  0  0  0  0  0  0  0  0  0  0
   -2.5818   -0.3665   -0.0002 C   0  0  0  0  0  0  0  0  0  0  0  0
    2.5705   -0.7683    0.0000 C   0  0  0  0  0  0  0  0  0  0  0  0
    1.5205   -1.6864   -0.0002 C   0  0  0  0  0  0  0  0  0  0  0  0
    0.5569    2.4294    0.0003 C   0  0  0  0  0  0  0  0  0  0  0  0
   -0.8756   -2.2661   -0.0004 C   0  0  0  0  0  0  0  0  0  0  0  0
   -0.7736    2.8476    0.0002 C   0  0  0  0  0  0  0  0  0  0  0  0
   -2.3038   -1.8118    0.0002 C   0  0  0  0  0  0  0  0  0  0  0  0
   -3.1474    2.3465   -0.0001 C   0  0  0  0  0  0  0  0  0  0  0  0
   -3.9127    0.0656   -0.0003 C   0  0  0  0  0  0  0  0  0  0  0  0
    3.4172    1.4878    0.0002 C   0  0  0  0  0  0  0  0  0  0  0  0
    3.8960   -1.2372   -0.0002 C   0  0  0  0  0  0  0  0  0  0  0  0
   -4.1918    1.4259   -0.0003 C   0  0  0  0  0  0  0  0  0  0  0  0
    4.7307    1.0104    0.0000 C   0  0  0  0  0  0  0  0  0  0  0  0
    4.9704   -0.3540   -0.0001 C   0  0  0  0  0  0  0  0  0  0  0  0
  1 13  2  0
  2 15  2  0
  3  4  2  0
  3  5  1  0
  3  6  1  0
  4  8  1  0
  4  9  1  0
  5  7  1  0
  5 12  2  0
  6 11  2  0
  6 13  1  0
  7 10  2  0
  7 18  1  0
  8 14  2  0
  8 16  1  0
  9 15  1  0
  9 17  2  0
 10 11  1  0
 10 19  1  0
 12 14  1  0
 13 15  1  0
 16 20  2  0
 17 20  1  0
 18 21  2  0
 19 22  2  0
 21 22  1  0
M  END
>  <PUBCHEM_COMPOUND_CID>  (1) 
39171

>  <PUBCHEM_CONFORMER_RMSD>  (1) 
0.6

>  <PUBCHEM_CONFORMER_DIVERSEORDER>  (1) 
1

>  <PUBCHEM_MMFF94_PARTIAL_CHARGES>  (1) 
26
1 -0.57
11 -0.15
12 -0.15
13 0.48
14 -0.15
15 0.48
16 -0.15
17 -0.15
18 -0.15
19 -0.15
2 -0.57
20 -0.15
21 -0.15
22 -0.15
23 0.15
24 0.15
25 0.15
26 0.15
27 0.15
28 0.15
29 0.15
30 0.15
31 0.15
32 0.15
6 0.09
9 0.09

>  <PUBCHEM_EFFECTIVE_ROTOR_COUNT>  (1) 
0

>  <PUBCHEM_PHARMACOPHORE_FEATURES>  (1) 
7
1 1 acceptor
1 2 acceptor
6 3 4 5 8 12 14 rings
6 3 4 6 9 13 15 rings
6 3 5 6 7 10 11 rings
6 4 8 9 16 17 20 rings
6 7 10 18 19 21 22 rings

>  <PUBCHEM_HEAVY_ATOM_COUNT>  (1) 
22

>  <PUBCHEM_ATOM_DEF_STEREO_COUNT>  (1) 
0

>  <PUBCHEM_ATOM_UDEF_STEREO_COUNT>  (1) 
0

>  <PUBCHEM_BOND_DEF_STEREO_COUNT>  (1) 
0

>  <PUBCHEM_BOND_UDEF_STEREO_COUNT>  (1) 
0

>  <PUBCHEM_ISOTOPIC_ATOM_COUNT>  (1) 
0

>  <PUBCHEM_COMPONENT_COUNT>  (1) 
1

>  <PUBCHEM_CACTVS_TAUTO_COUNT>  (1) 
1

>  <PUBCHEM_CONFORMER_ID>  (1) 
0000990300000001

>  <PUBCHEM_MMFF94_ENERGY>  (1) 
75.1082

>  <PUBCHEM_FEATURE_SELFOVERLAP>  (1) 
35.672

>  <PUBCHEM_SHAPE_FINGERPRINT>  (1) 
10319926 262 18269814529251611176
10411042 1 17618223248989162966
10493431 412 18269845233366739265
10616163 171 18411420635164987774
10693767 8 18058143117208465359
10759866 29 18114469985444246718
10906281 52 18270134426378529597
10967382 1 18338517409057715109
1100329 8 18411422851431734401
11132069 177 18411416202721828072
11370993 70 18338230449429061460
11578080 2 16986859379678339402
12011746 2 18410851036723563749
12173636 292 18410852140155417644
12236239 1 17749111076285823460
12403814 3 17531245041390224477
12553582 1 18050850210551090470
12838862 33 18265877117171307389
13132413 78 18339644541630948828
13140716 1 18337674109504123003
138480 1 16825306611669946019
14790565 3 18267874878180572521
15042514 8 18409169921703741370
15196674 1 18410855464602587584
15442244 35 18409728495480899394
16087824 20 18411698799914026887
16945 1 18194683906438367141
17492 89 18409167718950683554
19591789 44 18266741281380202475
20028762 73 18129943498677301671
20510252 161 18271526381881104072
20739085 24 17760397425311177041
20775438 99 16546319271770851383
20905425 154 17764881581278096628
21267235 1 18410020926513052243
22182313 1 18270421420024342327
23227448 37 18412262826432356356
2334 1 18410855481845636865
23366157 5 17825945107485570812
23402539 116 18342449339974421046
23557571 272 18271537489219945222
23559900 14 18270962337475718150
238 59 17178521526679757245
2748010 2 18410862040308242167
335352 9 18338516318589696510
34934 24 18408599249398907409
350125 39 18338521949518655081
352729 6 18339645533736524554
4214541 1 18410855451897111716
484989 97 18118958338323585679
5104073 3 18410853278849220320
59755656 215 18268153063528209286
69090 78 18410854330720691464
7097593 13 17754438081173737906
9709674 26 18343024346217800206

>  <PUBCHEM_SHAPE_MULTIPOLES>  (1) 
441.01
8.01
3.36
0.61
5.04
0.97
0
-1.26
0
-2.01
0
0.02
-0.03
0

>  <PUBCHEM_SHAPE_SELFOVERLAP>  (1) 
1038.12

>  <PUBCHEM_SHAPE_VOLUME>  (1) 
221.8

>  <PUBCHEM_COORDINATE_TYPE>  (1) 
2
5
10

$$$$
