39190
     RDKit          3D

 22 22  0  0  1  0  0  0  0  0999 V2000
    2.0545    0.5074   -0.8916 O   0  0  0  0  0  0  0  0  0  0  0  0
   -4.9093   -0.1520   -0.3079 O   0  0  0  0  0  0  0  0  0  0  0  0
    1.2468    2.2717    0.3188 O   0  0  0  0  0  0  0  0  0  0  0  0
    4.1047   -1.0745    0.3302 N   0  0  0  0  0  0  0  0  0  0  0  0
   -0.1530    0.5945   -0.5225 N   0  0  0  0  0  0  0  0  0  0  0  0
    4.3669   -0.1358   -0.7521 C   0  0  0  0  0  0  0  0  0  0  0  0
    3.3756    1.0305   -0.7561 C   0  0  0  0  0  0  0  0  0  0  0  0
    5.0046   -2.2268    0.2449 C   0  0  0  0  0  0  0  0  0  0  0  0
    4.2464   -0.4167    1.6309 C   0  0  0  0  0  0  0  0  0  0  0  0
    3.6047    2.0060   -1.9035 C   0  0  0  0  0  0  0  0  0  0  0  0
    4.8751   -2.9263   -1.0975 C   0  0  0  0  0  0  0  0  0  0  0  0
    3.9094   -1.3677    2.7668 C   0  0  0  0  0  0  0  0  0  0  0  0
    1.0519    1.2318   -0.2986 C   0  0  0  0  0  0  0  0  0  0  0  0
   -1.4401    0.9904   -0.0929 C   0  0  0  0  0  0  0  0  0  0  0  0
   -2.5530    0.2144   -0.4165 C   0  0  0  0  0  0  0  0  0  0  0  0
   -3.8230    0.6053    0.0074 C   0  0  0  0  0  0  0  0  0  0  0  0
   -4.7013   -1.5557   -0.4563 C   0  0  0  0  0  0  0  0  0  0  0  0
   -1.5973    2.1576    0.6545 C   0  0  0  0  0  0  0  0  0  0  0  0
   -5.9838   -2.2847   -0.0856 C   0  0  0  0  0  0  0  0  0  0  0  0
   -3.9802    1.7724    0.7550 C   0  0  0  0  0  0  0  0  0  0  0  0
   -2.8673    2.5487    1.0785 C   0  0  0  0  0  0  0  0  0  0  0  0
   -5.8322   -3.7904   -0.2057 C   0  0  0  0  0  0  0  0  0  0  0  0
  1  7  1  0
  1 13  1  0
  2 16  1  0
  2 17  1  0
  3 13  2  0
  4  6  1  0
  4  8  1  0
  4  9  1  0
  5 13  1  0
  5 14  1  0
  6  7  1  0
  7 10  1  0
  8 11  1  0
  9 12  1  0
 14 15  2  0
 14 18  1  0
 15 16  1  0
 16 20  2  0
 17 19  1  0
 18 21  2  0
 19 22  1  0
 20 21  1  0
M  END
>  <PUBCHEM_COMPOUND_CID>  (1) 
39190

>  <PUBCHEM_CONFORMER_RMSD>  (1) 
1

>  <PUBCHEM_CONFORMER_DIVERSEORDER>  (1) 
3
54
80
114
90
60
101
66
5
111
108
73
102
10
24
98
20
62
68
61
72
105
33
96
99
100
41
9
13
49
52
82
103
23
38
97
26
84
50
16
59
63
87
32
67
31
27
113
56
57
64
14
11
86
95
53
89
69
2
48
19
85
39
21
12
28
106
40
25
93
112
17
78
79
109
29
34
18
51
65
55
1
46
30
83
8
94
70
35
4
42
47
22
71
7
92
88
91
15
104
110
76
45
75
43
77
107
58
74
36
44
6
37
81

>  <PUBCHEM_MMFF94_PARTIAL_CHARGES>  (1) 
22
1 -0.43
13 0.78
14 0.12
15 -0.15
16 0.08
17 0.28
18 -0.15
2 -0.36
20 -0.15
21 -0.15
3 -0.57
39 0.37
4 -0.81
40 0.15
43 0.15
46 0.15
47 0.15
5 -0.55
6 0.27
7 0.28
8 0.27
9 0.27

>  <PUBCHEM_EFFECTIVE_ROTOR_COUNT>  (1) 
11

>  <PUBCHEM_PHARMACOPHORE_FEATURES>  (1) 
6
1 2 acceptor
1 22 hydrophobe
1 3 acceptor
1 4 cation
1 5 donor
6 14 15 16 18 20 21 rings

>  <PUBCHEM_HEAVY_ATOM_COUNT>  (1) 
22

>  <PUBCHEM_ATOM_DEF_STEREO_COUNT>  (1) 
0

>  <PUBCHEM_ATOM_UDEF_STEREO_COUNT>  (1) 
1

>  <PUBCHEM_BOND_DEF_STEREO_COUNT>  (1) 
0

>  <PUBCHEM_BOND_UDEF_STEREO_COUNT>  (1) 
0

>  <PUBCHEM_ISOTOPIC_ATOM_COUNT>  (1) 
0

>  <PUBCHEM_COMPONENT_COUNT>  (1) 
1

>  <PUBCHEM_CACTVS_TAUTO_COUNT>  (1) 
2

>  <PUBCHEM_CONFORMER_ID>  (1) 
0000991600000003

>  <PUBCHEM_MMFF94_ENERGY>  (1) 
50.6115

>  <PUBCHEM_FEATURE_SELFOVERLAP>  (1) 
30.446

>  <PUBCHEM_SHAPE_FINGERPRINT>  (1) 
10042902 136 18338521820559100502
10622 236 18335411387863274215
10912923 1 18335993016334125101
11069576 57 16299504951953684066
11315621 136 18335427872090148830
11545043 162 17631448973742598618
11796584 16 18263072245496191589
12596602 18 18412256229890448424
12661589 4 18201450211234632718
12839892 36 18201436943848195487
13167823 11 18334861597288415837
13533116 47 18335987561730505133
13692114 37 18191865837790571826
14211702 104 18411425016026822743
14251740 57 18413107251995867550
14347332 77 18335416894348444597
14420673 8 17769944480559043910
14848178 5 18410847755141618151
15188451 53 18341316817191259858
15250474 111 18408041801541594579
17134984 74 17386565902544195451
17492 89 18341897393732629662
17857418 61 18187077356211665137
1813 80 17969505905804360948
18222031 100 18187643540750330772
20028762 73 18408880728988155370
20626108 58 18410009918886860752
20645477 70 18040438780898348500
20843269 155 18341046415078497439
21033648 29 15123228763135530136
21065201 7 17916312653579918580
21728266 224 18411979161523627221
23559900 14 17772766969703944996
23596394 208 15574711357456840824
2838139 119 9078853844162365451
3004659 81 18260829306173657998
312425 54 17916584219929590074
46194498 28 13624973802107485294
5104073 3 17917716811812425665
573450 72 18340207388632106241
59682541 52 16081352060587110275
7970288 3 18119809115072517670
960060 61 16226053241331928806

>  <PUBCHEM_SHAPE_MULTIPOLES>  (1) 
425.18
15.24
3.74
1.57
6.67
2.5
0.84
14.45
-0.2
3.12
-0.17
-2.84
0.1
-2.26

>  <PUBCHEM_SHAPE_SELFOVERLAP>  (1) 
843.639

>  <PUBCHEM_SHAPE_VOLUME>  (1) 
254

>  <PUBCHEM_COORDINATE_TYPE>  (1) 
2
5
10

$$$$
