39192
     RDKit          3D

 23 23  0  0  1  0  0  0  0  0999 V2000
    2.2592    1.7376    0.3254 O   0  0  0  0  0  0  0  0  0  0  0  0
   -4.3690   -0.2182   -0.8767 O   0  0  0  0  0  0  0  0  0  0  0  0
    1.7655   -0.0428    1.6733 O   0  0  0  0  0  0  0  0  0  0  0  0
    5.2740   -0.2197   -0.5930 N   0  0  0  0  0  0  0  0  0  0  0  0
    0.1898    0.8577    0.1879 N   0  0  0  0  0  0  0  0  0  0  0  0
    3.8742    0.1804   -0.5501 C   0  0  0  0  0  0  0  0  0  0  0  0
    3.6570    1.4250    0.3139 C   0  0  0  0  0  0  0  0  0  0  0  0
    5.7938   -0.4290    0.7600 C   0  0  0  0  0  0  0  0  0  0  0  0
    5.4399   -1.4354   -1.3926 C   0  0  0  0  0  0  0  0  0  0  0  0
    4.3988    2.6503   -0.2051 C   0  0  0  0  0  0  0  0  0  0  0  0
    7.2715   -0.7810    0.7321 C   0  0  0  0  0  0  0  0  0  0  0  0
    4.9071   -1.2424   -2.8022 C   0  0  0  0  0  0  0  0  0  0  0  0
   -6.6808    0.3989   -0.7870 C   0  0  0  0  0  0  0  0  0  0  0  0
    1.4296    0.7644    0.8154 C   0  0  0  0  0  0  0  0  0  0  0  0
   -8.0376    0.1221   -0.1456 C   0  0  0  0  0  0  0  0  0  0  0  0
   -5.6054   -0.5369   -0.2533 C   0  0  0  0  0  0  0  0  0  0  0  0
   -0.9452    0.0694    0.3811 C   0  0  0  0  0  0  0  0  0  0  0  0
   -3.2303   -0.4674   -0.1554 C   0  0  0  0  0  0  0  0  0  0  0  0
   -2.1040    0.3231   -0.3528 C   0  0  0  0  0  0  0  0  0  0  0  0
   -9.0991    1.0868   -0.6494 C   0  0  0  0  0  0  0  0  0  0  0  0
   -0.9206   -0.9730    1.3076 C   0  0  0  0  0  0  0  0  0  0  0  0
   -3.2135   -1.5081    0.7662 C   0  0  0  0  0  0  0  0  0  0  0  0
   -2.0548   -1.7617    1.5003 C   0  0  0  0  0  0  0  0  0  0  0  0
  1  7  1  0
  1 14  1  0
  2 16  1  0
  2 18  1  0
  3 14  2  0
  4  6  1  0
  4  8  1  0
  4  9  1  0
  5 14  1  0
  5 17  1  0
  6  7  1  0
  7 10  1  0
  8 11  1  0
  9 12  1  0
 13 15  1  0
 13 16  1  0
 15 20  1  0
 17 19  2  0
 17 21  1  0
 18 19  1  0
 18 22  2  0
 21 23  2  0
 22 23  1  0
M  END
>  <PUBCHEM_COMPOUND_CID>  (1) 
39192

>  <PUBCHEM_CONFORMER_RMSD>  (1) 
1

>  <PUBCHEM_CONFORMER_DIVERSEORDER>  (1) 
2
170
335
132
182
283
327
126
78
50
43
312
164
55
146
292
354
90
251
263
49
234
88
242
282
87
285
300
274
107
349
209
124
221
351
112
137
125
148
119
243
36
54
179
264
167
319
308
294
181
197
161
68
241
64
144
236
129
306
20
173
82
267
180
96
114
171
226
106
279
202
286
65
166
31
313
155
230
100
304
52
16
275
210
104
156
350
334
172
265
83
168
329
212
18
154
200
85
158
277
121
216
143
75
198
102
25
86
261
136
79
266
22
7
338
27
142
89
237
42
227
289
99
72
165
213
101
323
32
178
196
147
60
321
15
233
34
204
232
247
95
120
281
208
240
278
40
62
48
253
296
127
324
250
310
348
93
67
254
222
320
113
73
56
272
357
191
293
287
24
46
37
69
153
175
14
239
38
169
318
271
235
44
45
115
116
268
322
311
139
217
151
307
325
228
341
262
223
203
122
315
160
19
103
246
177
30
252
41
97
23
220
295
176
13
346
17
342
63
190
162
276
26
150
309
47
330
9
299
51
194
238
257
71
138
249
219
117
211
183
81
21
92
98
57
94
28
35
333
218
186
189
174
270
58
118
331
108
149
332
297
290
260
187
201
39
326
1
74
192
302
343
29
339
205
303
76
269
206
336
231
61
344
356
33
53
229
184
141
91
140
280
298
195
317
199
259
105
316
185
273
340
131
4
353
133
70
84
8
145
225
314
135
256
110
328
245
188
355
128
337
291
111
3
12
59
77
80
123
345
301
130
163
159
109
244
152
207
5
255
284
288
248
193
66
11
347
352
134
305
10
215
157
224
258
6
214

>  <PUBCHEM_MMFF94_PARTIAL_CHARGES>  (1) 
22
1 -0.43
14 0.78
16 0.28
17 0.12
18 0.08
19 -0.15
2 -0.36
21 -0.15
22 -0.15
23 -0.15
3 -0.57
4 -0.81
46 0.37
47 0.15
5 -0.55
51 0.15
52 0.15
53 0.15
6 0.27
7 0.28
8 0.27
9 0.27

>  <PUBCHEM_EFFECTIVE_ROTOR_COUNT>  (1) 
12

>  <PUBCHEM_PHARMACOPHORE_FEATURES>  (1) 
6
1 2 acceptor
1 20 hydrophobe
1 3 acceptor
1 4 cation
1 5 donor
6 17 18 19 21 22 23 rings

>  <PUBCHEM_HEAVY_ATOM_COUNT>  (1) 
23

>  <PUBCHEM_ATOM_DEF_STEREO_COUNT>  (1) 
0

>  <PUBCHEM_ATOM_UDEF_STEREO_COUNT>  (1) 
1

>  <PUBCHEM_BOND_DEF_STEREO_COUNT>  (1) 
0

>  <PUBCHEM_BOND_UDEF_STEREO_COUNT>  (1) 
0

>  <PUBCHEM_ISOTOPIC_ATOM_COUNT>  (1) 
0

>  <PUBCHEM_COMPONENT_COUNT>  (1) 
1

>  <PUBCHEM_CACTVS_TAUTO_COUNT>  (1) 
2

>  <PUBCHEM_CONFORMER_ID>  (1) 
0000991800000002

>  <PUBCHEM_MMFF94_ENERGY>  (1) 
54.1882

>  <PUBCHEM_FEATURE_SELFOVERLAP>  (1) 
30.446

>  <PUBCHEM_SHAPE_FINGERPRINT>  (1) 
10 15 11312052149866284838
10066227 49 17561368353531335055
106641 1 11383826078425687290
10670039 82 17241035518507206885
11135609 127 18200584942928634200
11724838 91 11815893474890838474
11796584 16 18412262878310152090
12390115 104 18041836204680696493
12596602 18 11242237546959576205
13533116 47 16487258764081654678
13914758 101 17275111596397951979
14251764 18 13973965424114069139
15119646 104 16558759983708259799
15183329 4 18409169895960103529
15188451 53 14979962445285816486
15475509 8 18334017181618385149
17857418 61 16200152105523751495
18222031 100 15338568231478633216
18335252 114 18201429290913007349
19841028 212 17275108276109534998
20567600 234 10519979361857728058
20645477 70 18272093825050396044
21315764 119 17988924479320004335
21585482 111 17896874354392938909
22079108 93 11386365958675363305
2215653 11 18412269440819336942
22224240 67 11097857389535165817
23559900 14 18188205528610290896
28498 318 17988924449128574173
29717793 49 18272652359165708564
3004659 81 17894625972812979688
328311 84 18408609180217987571
3633792 109 17632579323378257539
4325135 7 8574710213110280105
59682541 35 10519694605594393327
59682541 52 18131073735624711629
59755656 215 18335138666156156031
59755656 520 18113611314445619891
6438161 24 18412258403181004818
8988823 20 16558745733280896424

>  <PUBCHEM_SHAPE_MULTIPOLES>  (1) 
445.76
22.99
1.76
1.56
29.28
0.61
0.83
1.74
7.37
-1.64
-0.18
-2.29
-0.75
1.83

>  <PUBCHEM_SHAPE_SELFOVERLAP>  (1) 
883.029

>  <PUBCHEM_SHAPE_VOLUME>  (1) 
266.9

>  <PUBCHEM_COORDINATE_TYPE>  (1) 
2
5
10

$$$$
