39214
     RDKit          3D

 18 18  0  0  0  0  0  0  0  0999 V2000
   -4.5095    2.9288   -0.1485 Cl  0  0  0  0  0  0  0  0  0  0  0  0
   -0.9562   -1.8446    0.8349 O   0  0  0  0  0  0  0  0  0  0  0  0
   -4.3061   -1.4685   -1.4096 O   0  0  0  0  0  0  0  0  0  0  0  0
   -0.7057    0.4408    0.8281 N   0  0  0  0  0  0  0  0  0  0  0  0
   -2.5238   -0.5671   -0.2972 N   0  0  0  0  0  0  0  0  0  0  0  0
    3.4313   -0.8498   -0.3821 N   0  0  0  0  0  0  0  0  0  0  0  0
    3.4419    1.5598   -0.4173 N   0  0  0  0  0  0  0  0  0  0  0  0
    1.7393   -2.0197    0.7979 N   0  0  0  0  0  0  0  0  0  0  0  0
   -3.3127   -1.7552   -0.7328 N   0  0  0  0  0  0  0  0  0  0  0  0
    0.4989    0.4341    1.6264 C   0  0  0  0  0  0  0  0  0  0  0  0
    1.7376    0.3793    0.7722 C   0  0  0  0  0  0  0  0  0  0  0  0
   -2.9816    0.7566   -0.7005 C   0  0  0  0  0  0  0  0  0  0  0  0
    2.3213   -0.7965    0.3829 C   0  0  0  0  0  0  0  0  0  0  0  0
   -1.3665   -0.7350    0.4793 C   0  0  0  0  0  0  0  0  0  0  0  0
    2.3315    1.5390    0.3488 C   0  0  0  0  0  0  0  0  0  0  0  0
   -3.9306    1.3200    0.3459 C   0  0  0  0  0  0  0  0  0  0  0  0
    3.9318    0.3479   -0.7410 C   0  0  0  0  0  0  0  0  0  0  0  0
    5.1592    0.3301   -1.5875 C   0  0  0  0  0  0  0  0  0  0  0  0
  1 16  1  0
  2 14  2  0
  3  9  2  0
  4 10  1  0
  4 14  1  0
  5  9  1  0
  5 12  1  0
  5 14  1  0
  6 13  2  0
  6 17  1  0
  7 15  1  0
  7 17  2  0
  8 13  1  0
 10 11  1  0
 11 13  1  0
 11 15  2  0
 12 16  1  0
 17 18  1  0
M  END
>  <PUBCHEM_COMPOUND_CID>  (1) 
39214

>  <PUBCHEM_CONFORMER_RMSD>  (1) 
0.8

>  <PUBCHEM_CONFORMER_DIVERSEORDER>  (1) 
14
156
13
159
136
51
128
186
199
133
60
131
177
195
29
193
142
31
170
108
21
54
71
192
166
4
153
176
134
160
69
154
194
197
179
178
188
23
198
113
190
76
132
37
185
189
91
50
127
39
43
157
26
34
139
202
203
115
106
173
19
89
95
78
101
150
117
167
200
8
66
114
12
70
155
130
5
161
141
62
209
152
3
55
44
85
162
87
151
138
169
20
196
63
129
73
207
120
7
74
121
6
98
140
206
93
24
36
10
35
175
107
124
119
49
81
149
205
183
1
72
61
15
2
41
125
111
22
99
171
158
123
163
64
126
18
147
48
110
32
90
191
11
79
180
56
104
184
144
58
122
75
77
208
88
57
102
112
42
146
172
174
181
187
27
103
92
52
168
17
97
165
16
30
47
105
137
46
182
201
40
100
59
25
28
164
9
109
148
143
82
80
145
83
67
118
53
68
116
135
38
96
86
204
33
84
94
45
65

>  <PUBCHEM_MMFF94_PARTIAL_CHARGES>  (1) 
22
1 -0.29
10 0.44
11 -0.14
12 0.3
13 0.41
14 0.69
15 0.16
16 0.29
17 0.48
18 0.14
2 -0.57
21 0.37
24 0.15
27 0.4
28 0.4
3 -0.16
4 -0.73
5 -0.18
6 -0.62
7 -0.62
8 -0.9
9 -0.02

>  <PUBCHEM_EFFECTIVE_ROTOR_COUNT>  (1) 
7

>  <PUBCHEM_PHARMACOPHORE_FEATURES>  (1) 
6
1 2 acceptor
1 4 donor
1 8 donor
3 6 7 17 cation
3 6 8 13 cation
6 6 7 11 13 15 17 rings

>  <PUBCHEM_HEAVY_ATOM_COUNT>  (1) 
18

>  <PUBCHEM_ATOM_DEF_STEREO_COUNT>  (1) 
0

>  <PUBCHEM_ATOM_UDEF_STEREO_COUNT>  (1) 
0

>  <PUBCHEM_BOND_DEF_STEREO_COUNT>  (1) 
0

>  <PUBCHEM_BOND_UDEF_STEREO_COUNT>  (1) 
0

>  <PUBCHEM_ISOTOPIC_ATOM_COUNT>  (1) 
0

>  <PUBCHEM_COMPONENT_COUNT>  (1) 
1

>  <PUBCHEM_CACTVS_TAUTO_COUNT>  (1) 
6

>  <PUBCHEM_CONFORMER_ID>  (1) 
0000992E0000000E

>  <PUBCHEM_MMFF94_ENERGY>  (1) 
47.2907

>  <PUBCHEM_FEATURE_SELFOVERLAP>  (1) 
30.583

>  <PUBCHEM_SHAPE_FINGERPRINT>  (1) 
10498660 4 17895738660962849477
12707595 3 16702296892649075731
12954195 1 17988923354344586173
13296908 3 16917060105325123867
14251764 38 18118964943445469748
18186145 218 18131066039291250129
19862831 5 18201726149834357088
20361792 2 15769781289996855408
20645477 70 15985092024845561537
20671657 53 16558475287242112256
20871999 31 18411138060544553133
21501925 9 9655569712552665753
21713013 43 17988643055365943063
221357 26 18272087244748989893
22393880 68 18272369776293034172
23402539 116 18408322185955210780
23402655 69 18337394846557109572
23559900 14 17847057771053525256
25 1 18186524284936277866
26918003 58 10375583759820352329
3082319 5 18410005554993898467
3086196 2 8502367845972409393
4280585 95 17625275108932961030
633830 44 17531809035199773923
6442390 28 16443930291806079513
7832392 63 18408318865581812325
9882013 296 11097866176426161257

>  <PUBCHEM_SHAPE_MULTIPOLES>  (1) 
330.68
10.06
2.29
1.27
0.85
0.31
0.06
3.81
5.04
2.6
0.11
-0.4
-0.13
-0.93

>  <PUBCHEM_SHAPE_SELFOVERLAP>  (1) 
658.417

>  <PUBCHEM_SHAPE_VOLUME>  (1) 
195.9

>  <PUBCHEM_COORDINATE_TYPE>  (1) 
2
5
10

$$$$
