39213
     RDKit          3D

 13 14  0  0  0  0  0  0  0  0999 V2000
   -5.1552   -1.3104    0.6110 Br  0  0  0  0  0  0  0  0  0  0  0  0
    2.1520   -1.8189   -0.0942 O   0  0  0  0  0  0  0  0  0  0  0  0
    3.5437    0.1429    0.0542 O   0  0  0  0  0  0  0  0  0  0  0  0
    1.4229   -0.6716   -0.0282 C   0  0  0  0  0  0  0  0  0  0  0  0
    2.2176    0.4486    0.0567 C   0  0  0  0  0  0  0  0  0  0  0  0
   -0.5251    0.6868    0.0381 C   0  0  0  0  0  0  0  0  0  0  0  0
    0.0458   -0.5857   -0.0400 C   0  0  0  0  0  0  0  0  0  0  0  0
    1.6792    1.7165    0.1346 C   0  0  0  0  0  0  0  0  0  0  0  0
    0.2870    1.8314    0.1248 C   0  0  0  0  0  0  0  0  0  0  0  0
    3.4948   -1.2951   -0.0421 C   0  0  0  0  0  0  0  0  0  0  0  0
   -1.9728    0.8305    0.0296 C   0  0  0  0  0  0  0  0  0  0  0  0
   -2.8564   -0.0899   -0.4192 C   0  0  0  0  0  0  0  0  0  0  0  0
   -4.3335    0.1151   -0.4254 C   0  0  0  0  0  0  0  0  0  0  0  0
  1 13  1  0
  2  4  1  0
  2 10  1  0
  3  5  1  0
  3 10  1  0
  4  5  2  0
  4  7  1  0
  5  8  1  0
  6  7  2  0
  6  9  1  0
  6 11  1  0
  8  9  2  0
 11 12  2  0
 12 13  1  0
M  END
>  <PUBCHEM_COMPOUND_CID>  (1) 
39213

>  <PUBCHEM_CONFORMER_RMSD>  (1) 
0.6

>  <PUBCHEM_CONFORMER_DIVERSEORDER>  (1) 
1
2
3
4

>  <PUBCHEM_MMFF94_PARTIAL_CHARGES>  (1) 
18
1 -0.23
10 0.56
11 -0.18
12 -0.29
13 0.37
14 0.15
15 0.15
16 0.15
19 0.15
2 -0.36
20 0.15
3 -0.36
4 0.08
5 0.08
6 0.03
7 -0.15
8 -0.15
9 -0.15

>  <PUBCHEM_EFFECTIVE_ROTOR_COUNT>  (1) 
2.6

>  <PUBCHEM_PHARMACOPHORE_FEATURES>  (1) 
5
1 1 hydrophobe
1 2 acceptor
1 3 acceptor
5 2 3 4 5 10 rings
6 4 5 6 7 8 9 rings

>  <PUBCHEM_HEAVY_ATOM_COUNT>  (1) 
13

>  <PUBCHEM_ATOM_DEF_STEREO_COUNT>  (1) 
0

>  <PUBCHEM_ATOM_UDEF_STEREO_COUNT>  (1) 
0

>  <PUBCHEM_BOND_DEF_STEREO_COUNT>  (1) 
0

>  <PUBCHEM_BOND_UDEF_STEREO_COUNT>  (1) 
1

>  <PUBCHEM_ISOTOPIC_ATOM_COUNT>  (1) 
0

>  <PUBCHEM_COMPONENT_COUNT>  (1) 
1

>  <PUBCHEM_CACTVS_TAUTO_COUNT>  (1) 
1

>  <PUBCHEM_CONFORMER_ID>  (1) 
0000992D00000001

>  <PUBCHEM_MMFF94_ENERGY>  (1) 
29.084

>  <PUBCHEM_FEATURE_SELFOVERLAP>  (1) 
25.527

>  <PUBCHEM_SHAPE_FINGERPRINT>  (1) 
11471102 20 18411412925566783733
11543360 7 16298680442095397007
11806522 49 18409448085265733517
12032990 46 18411140203633084991
12616999 72 18187372064051245164
13705890 14 18260264157402657189
14251717 144 18411978070148162511
14252887 29 17917717880889795838
15375462 189 18131348644092136155
15477762 27 18410011043787977468
16945 1 18410018719395896712
17834074 16 18334296509095545315
18186145 218 17821720629413696757
200 152 18202558484922044117
20201158 50 18335421248754374643
20281475 54 18335426733765163149
20645477 70 18341041969982148511
20871998 22 18058173829965158222
21267235 1 18341057341385374350
21501925 9 18340759373464987880
221490 88 18263086676955701315
23402539 116 15647046058621413183
23402655 69 18411694370779488309
2748010 2 18050291659081867688
2871803 45 18186513315906542003
5104073 3 18341890740822981593
7364860 26 18271521009045938528
8809292 202 18187931720018334787
94968 8 18409168800791090978

>  <PUBCHEM_SHAPE_MULTIPOLES>  (1) 
261.74
8.4
1.77
0.68
9.87
0.06
-0.02
-3.89
-0.52
-0.84
-0.12
0.35
-0.02
0.46

>  <PUBCHEM_SHAPE_SELFOVERLAP>  (1) 
543.989

>  <PUBCHEM_SHAPE_VOLUME>  (1) 
154.6

>  <PUBCHEM_COORDINATE_TYPE>  (1) 
2
5
10

$$$$
