39228
     RDKit          3D

 15 16  0  0  0  0  0  0  0  0999 V2000
   -0.8714   -2.0302   -0.0001 O   0  0  0  0  0  0  0  0  0  0  0  0
   -4.3856   -0.1060   -0.0006 O   0  0  0  0  0  0  0  0  0  0  0  0
   -3.2458    1.8606   -0.0005 O   0  0  0  0  0  0  0  0  0  0  0  0
    4.1241    1.2174    0.0002 O   0  0  0  0  0  0  0  0  0  0  0  0
    4.1061   -0.9778    0.0000 O   0  0  0  0  0  0  0  0  0  0  0  0
   -2.1715   -1.5401    0.0007 N   0  0  0  0  0  0  0  0  0  0  0  0
    3.5085    0.1249   -0.0001 N   0  0  0  0  0  0  0  0  0  0  0  0
   -0.6999    0.2029    0.0002 C   0  0  0  0  0  0  0  0  0  0  0  0
    0.0045   -0.9884   -0.0004 C   0  0  0  0  0  0  0  0  0  0  0  0
    0.0086    1.4135    0.0003 C   0  0  0  0  0  0  0  0  0  0  0  0
   -2.0466   -0.2096    0.0005 C   0  0  0  0  0  0  0  0  0  0  0  0
    1.3935   -1.0783   -0.0005 C   0  0  0  0  0  0  0  0  0  0  0  0
    2.0871    0.1365   -0.0002 C   0  0  0  0  0  0  0  0  0  0  0  0
    1.4098    1.3605    0.0001 C   0  0  0  0  0  0  0  0  0  0  0  0
   -3.2214    0.6141    0.0002 C   0  0  0  0  0  0  0  0  0  0  0  0
  1  6  1  0
  1  9  1  0
  2 15  1  0
  3 15  2  0
  4  7  1  0
  5  7  2  0
  6 11  2  0
  7 13  1  0
  8  9  2  0
  8 10  1  0
  8 11  1  0
  9 12  1  0
 10 14  2  0
 11 15  1  0
 12 13  2  0
 13 14  1  0
M  CHG  2   4  -1   7   1
M  END
>  <PUBCHEM_COMPOUND_CID>  (1) 
39228

>  <PUBCHEM_CONFORMER_RMSD>  (1) 
0.6

>  <PUBCHEM_CONFORMER_DIVERSEORDER>  (1) 
1

>  <PUBCHEM_MMFF94_PARTIAL_CHARGES>  (1) 
18
1 -0.02
10 -0.15
11 0.2
12 -0.15
13 0.13
14 -0.15
15 0.81
16 0.15
17 0.15
18 0.15
19 0.5
2 -0.65
3 -0.57
4 -0.52
5 -0.52
6 -0.41
7 0.91
9 0.14

>  <PUBCHEM_EFFECTIVE_ROTOR_COUNT>  (1) 
2

>  <PUBCHEM_PHARMACOPHORE_FEATURES>  (1) 
9
1 2 acceptor
1 3 acceptor
1 4 acceptor
1 4 anion
1 5 acceptor
1 6 acceptor
3 2 3 15 anion
5 1 6 8 9 11 rings
6 8 9 10 12 13 14 rings

>  <PUBCHEM_HEAVY_ATOM_COUNT>  (1) 
15

>  <PUBCHEM_ATOM_DEF_STEREO_COUNT>  (1) 
0

>  <PUBCHEM_ATOM_UDEF_STEREO_COUNT>  (1) 
0

>  <PUBCHEM_BOND_DEF_STEREO_COUNT>  (1) 
0

>  <PUBCHEM_BOND_UDEF_STEREO_COUNT>  (1) 
0

>  <PUBCHEM_ISOTOPIC_ATOM_COUNT>  (1) 
0

>  <PUBCHEM_COMPONENT_COUNT>  (1) 
1

>  <PUBCHEM_CACTVS_TAUTO_COUNT>  (1) 
1

>  <PUBCHEM_CONFORMER_ID>  (1) 
0000993C00000001

>  <PUBCHEM_MMFF94_ENERGY>  (1) 
31.8129

>  <PUBCHEM_FEATURE_SELFOVERLAP>  (1) 
45.92

>  <PUBCHEM_SHAPE_FINGERPRINT>  (1) 
10608611 8 18341046427736325176
10967382 1 18410575063209347942
11132069 177 18411412917224697512
11471102 20 18410570686811805244
11543360 7 15769482222813286596
12032990 46 18410017636584057698
13380535 76 18411700980486392647
13690532 89 18410292497321532619
14144814 61 18409448068207268241
14325111 11 18410855464491850272
14897335 6 18411697681745566574
14943859 89 18334857229454225995
14993402 34 18409727352829746661
15196674 1 18410575063193595141
15536298 74 18342457032704011426
15775835 57 18334013891013611291
16945 1 18410856581220166567
18511873 20 18335421274661185412
193761 8 17906452490946891205
20510252 161 18272371936514300473
20645476 183 17896903108290941814
20645477 70 17988366979611795926
21267235 1 18410302393169217458
21501502 16 18193840568108658973
23402539 116 18272359850249138293
23402655 69 18270106921713824021
23463225 33 18407759218610709270
23559900 14 18343022203735877452
2748010 2 18195527227509182541
5104073 3 18410575088994970464
528886 8 18411412912549889619
53812653 166 18413385453695503536
54173680 148 18264773340572337363
69090 78 18272647974125444831
7364860 26 18196652904500355526

>  <PUBCHEM_SHAPE_MULTIPOLES>  (1) 
269.38
6.86
1.75
0.57
1.22
0.08
0
-1.14
0
-0.31
0
-0.01
-0.01
0

>  <PUBCHEM_SHAPE_SELFOVERLAP>  (1) 
594.188

>  <PUBCHEM_SHAPE_VOLUME>  (1) 
147.3

>  <PUBCHEM_COORDINATE_TYPE>  (1) 
2
5
10

$$$$
