39226
     RDKit          3D

 33 36  0  0  1  0  0  0  0  0999 V2000
    0.0427   -1.3745    2.2296 S   0  0  0  0  0  0  0  0  0  0  0  0
   -3.9596    0.6574    0.5165 S   0  0  0  0  0  0  0  0  0  0  0  0
    1.2459   -1.7312   -2.2468 O   0  0  0  0  0  0  0  0  0  0  0  0
   -1.8309   -2.4268   -2.5982 O   0  0  0  0  0  0  0  0  0  0  0  0
    4.1545   -1.2965   -1.1354 O   0  0  0  0  0  0  0  0  0  0  0  0
    5.9024    0.2528    0.3259 O   0  0  0  0  0  0  0  0  0  0  0  0
   -2.3414   -0.2298   -2.2205 O   0  0  0  0  0  0  0  0  0  0  0  0
    6.2104   -1.0895    2.1870 O   0  0  0  0  0  0  0  0  0  0  0  0
   -0.1457   -1.9493   -0.3555 N   0  0  0  0  0  0  0  0  0  0  0  0
    2.6658   -1.2320    0.6450 N   0  0  0  0  0  0  0  0  0  0  0  0
   -6.4207    1.9163    0.4021 N   0  0  0  0  0  0  0  0  0  0  0  0
   -6.5774   -0.2466    0.3861 N   0  0  0  0  0  0  0  0  0  0  0  0
   -7.7343    1.6585    0.3364 N   0  0  0  0  0  0  0  0  0  0  0  0
   -7.8241    0.3341    0.3264 N   0  0  0  0  0  0  0  0  0  0  0  0
    0.4203   -2.4965    0.8640 C   0  0  0  0  0  0  0  0  0  0  0  0
    1.7986   -2.3183    0.1904 C   0  0  0  0  0  0  0  0  0  0  0  0
    0.9873   -1.9716   -1.0907 C   0  0  0  0  0  0  0  0  0  0  0  0
   -1.4488   -1.5916   -0.4887 C   0  0  0  0  0  0  0  0  0  0  0  0
   -2.2550   -1.4431    0.5893 C   0  0  0  0  0  0  0  0  0  0  0  0
   -1.7619   -1.5600    2.0297 C   0  0  0  0  0  0  0  0  0  0  0  0
   -3.7301   -1.1283    0.5195 C   0  0  0  0  0  0  0  0  0  0  0  0
    3.7866   -0.8085   -0.0687 C   0  0  0  0  0  0  0  0  0  0  0  0
   -1.9274   -1.3099   -1.8503 C   0  0  0  0  0  0  0  0  0  0  0  0
    4.5124    0.3508    0.5991 C   0  0  0  0  0  0  0  0  0  0  0  0
    4.0099    1.6854    0.1008 C   0  0  0  0  0  0  0  0  0  0  0  0
   -5.7241    0.7504    0.4317 C   0  0  0  0  0  0  0  0  0  0  0  0
    4.6082    2.2866   -1.0067 C   0  0  0  0  0  0  0  0  0  0  0  0
    2.9473    2.3165    0.7477 C   0  0  0  0  0  0  0  0  0  0  0  0
    4.1442    3.5188   -1.4671 C   0  0  0  0  0  0  0  0  0  0  0  0
    2.4832    3.5487    0.2871 C   0  0  0  0  0  0  0  0  0  0  0  0
    6.6261   -0.4986    1.2027 C   0  0  0  0  0  0  0  0  0  0  0  0
    3.0817    4.1498   -0.8203 C   0  0  0  0  0  0  0  0  0  0  0  0
   -5.9461    3.2766    0.4316 C   0  0  0  0  0  0  0  0  0  0  0  0
  1 15  1  0
  1 20  1  0
  2 21  1  0
  2 26  1  0
  3 17  2  0
  4 23  1  0
  5 22  2  0
  6 24  1  0
  6 31  1  0
  7 23  2  0
  8 31  2  0
  9 15  1  0
  9 17  1  0
  9 18  1  0
 10 16  1  0
 10 22  1  0
 11 13  1  0
 11 26  1  0
 11 33  1  0
 12 14  1  0
 12 26  2  0
 13 14  2  0
 15 16  1  0
 16 17  1  0
 18 19  2  0
 18 23  1  0
 19 20  1  0
 19 21  1  0
 22 24  1  0
 24 25  1  0
 25 27  2  0
 25 28  1  0
 27 29  1  0
 28 30  2  0
 29 32  2  0
 30 32  1  0
M  END
>  <PUBCHEM_COMPOUND_CID>  (1) 
39226

>  <PUBCHEM_CONFORMER_RMSD>  (1) 
1

>  <PUBCHEM_CONFORMER_DIVERSEORDER>  (1) 
1
83
64
80
90
28
85
67
68
24
54
14
20
9
91
60
34
57
21
56
38
45
22
66
75
41
18
55
88
74
3
8
71
17
44
65
25
58
84
78
26
29
30
11
19
32
62
61
43
73
13
76
48
69
51
15
16
89
79
53
59
37
23
5
12
63
52
72
36
27
77
35
86
81
10
40
87
50
42
47
7
49
70
46
82
31
4
6
39
33
2

>  <PUBCHEM_MMFF94_PARTIAL_CHARGES>  (1) 
40
1 -0.45
10 -0.65
11 0.31
12 -0.34
13 -0.42
15 0.44
16 0.28
17 0.58
18 0.12
19 -0.28
2 -0.29
20 0.37
21 0.37
22 0.57
23 0.71
24 0.48
25 -0.14
26 0.24
27 -0.15
28 -0.15
29 -0.15
3 -0.57
30 -0.15
31 0.66
32 -0.15
33 0.26
38 0.37
4 -0.65
42 0.5
43 0.15
44 0.15
45 0.15
46 0.15
47 0.06
48 0.15
5 -0.57
6 -0.43
7 -0.57
8 -0.57
9 -0.39

>  <PUBCHEM_EFFECTIVE_ROTOR_COUNT>  (1) 
10.6

>  <PUBCHEM_PHARMACOPHORE_FEATURES>  (1) 
12
1 10 donor
1 3 acceptor
1 4 acceptor
1 5 acceptor
1 7 acceptor
1 8 acceptor
3 11 12 26 cation
3 4 7 23 anion
4 9 15 16 17 rings
5 11 12 13 14 26 rings
6 1 9 15 18 19 20 rings
6 25 27 28 29 30 32 rings

>  <PUBCHEM_HEAVY_ATOM_COUNT>  (1) 
33

>  <PUBCHEM_ATOM_DEF_STEREO_COUNT>  (1) 
3

>  <PUBCHEM_ATOM_UDEF_STEREO_COUNT>  (1) 
0

>  <PUBCHEM_BOND_DEF_STEREO_COUNT>  (1) 
0

>  <PUBCHEM_BOND_UDEF_STEREO_COUNT>  (1) 
0

>  <PUBCHEM_ISOTOPIC_ATOM_COUNT>  (1) 
0

>  <PUBCHEM_COMPONENT_COUNT>  (1) 
1

>  <PUBCHEM_CACTVS_TAUTO_COUNT>  (1) 
2

>  <PUBCHEM_CONFORMER_ID>  (1) 
0000993A00000001

>  <PUBCHEM_MMFF94_ENERGY>  (1) 
79.7471

>  <PUBCHEM_FEATURE_SELFOVERLAP>  (1) 
61.212

>  <PUBCHEM_SHAPE_FINGERPRINT>  (1) 
10673678 19 17989489619437811895
10763959 59 18341624663304013351
11456790 92 18040431062536039712
12107183 9 18334851723744015754
12925494 130 18262801907411955841
14117953 113 18342462513119419100
14705955 166 16950554442169741749
15238133 3 18334581274359712642
15419008 145 18188480260293363168
15968369 153 18201718483181161977
20567600 247 9151169840480541865
20715895 44 18413672413530002818
21475661 188 18335425685429081299
22122407 14 18335430087886812609
25223398 141 17131254895970064598
2838139 119 18413103979209422649
3298306 158 18270966851180774697
33382 64 9151173138762379939
34797466 226 18201447922612752735
3493558 16 18337684074429961193
392239 28 17894622652228389807
57724786 102 18041840748486751732
7288768 16 17824261720522345433

>  <PUBCHEM_SHAPE_MULTIPOLES>  (1) 
621.72
17.47
4.35
1.92
20.78
4.58
0.63
12.23
-4.82
-2.57
0.65
-0.52
-1.26
-2.08

>  <PUBCHEM_SHAPE_SELFOVERLAP>  (1) 
1306.429

>  <PUBCHEM_SHAPE_VOLUME>  (1) 
350.6

>  <PUBCHEM_COORDINATE_TYPE>  (1) 
2
5
10

$$$$
