39248
     RDKit          3D

 32 33  0  0  1  0  0  0  0  0999 V2000
    0.0863    2.7008   -1.9322 O   0  0  0  0  0  0  0  0  0  0  0  0
   -5.2942   -0.0351   -0.1414 O   0  0  0  0  0  0  0  0  0  0  0  0
    3.5587   -2.4610   -0.8529 O   0  0  0  0  0  0  0  0  0  0  0  0
    2.1389    4.5939    1.2743 N   0  0  0  0  0  0  0  0  0  0  0  0
   -6.8672   -3.2640    0.6776 N   0  0  0  0  0  0  0  0  0  0  0  0
    6.8215   -3.3438    0.6121 N   0  0  0  0  0  0  0  0  0  0  0  0
    0.0014    1.9812   -0.6842 C   0  0  0  0  0  0  0  0  0  0  0  0
    0.3519    3.0634    0.4208 C   0  0  0  0  0  0  0  0  0  0  0  0
    1.7777    3.6504    0.2181 C   0  0  0  0  0  0  0  0  0  0  0  0
   -1.4326    1.4347   -0.5368 C   0  0  0  0  0  0  0  0  0  0  0  0
    0.9651    0.7773   -0.7304 C   0  0  0  0  0  0  0  0  0  0  0  0
   -0.6662    4.2264    0.4390 C   0  0  0  0  0  0  0  0  0  0  0  0
   -2.3897    1.7176   -1.5115 C   0  0  0  0  0  0  0  0  0  0  0  0
    1.5087    0.2741    0.4516 C   0  0  0  0  0  0  0  0  0  0  0  0
   -1.7734    0.6580    0.5706 C   0  0  0  0  0  0  0  0  0  0  0  0
    1.2930    0.1922   -1.9534 C   0  0  0  0  0  0  0  0  0  0  0  0
    2.5649    3.8781    2.4767 C   0  0  0  0  0  0  0  0  0  0  0  0
    3.1955    5.4956    0.8159 C   0  0  0  0  0  0  0  0  0  0  0  0
   -3.6873    1.2235   -1.3788 C   0  0  0  0  0  0  0  0  0  0  0  0
    2.3800   -0.8143    0.4105 C   0  0  0  0  0  0  0  0  0  0  0  0
   -3.0710    0.1640    0.7033 C   0  0  0  0  0  0  0  0  0  0  0  0
    2.1644   -0.8962   -1.9946 C   0  0  0  0  0  0  0  0  0  0  0  0
   -4.0280    0.4467   -0.2714 C   0  0  0  0  0  0  0  0  0  0  0  0
    2.7079   -1.3994   -0.8126 C   0  0  0  0  0  0  0  0  0  0  0  0
   -5.4504   -1.2719    0.5526 C   0  0  0  0  0  0  0  0  0  0  0  0
    4.5552   -2.5337    0.1656 C   0  0  0  0  0  0  0  0  0  0  0  0
   -6.6780   -1.9854    0.0089 C   0  0  0  0  0  0  0  0  0  0  0  0
    5.7692   -3.2611   -0.3898 C   0  0  0  0  0  0  0  0  0  0  0  0
   -7.6825   -4.1626   -0.1433 C   0  0  0  0  0  0  0  0  0  0  0  0
   -7.4893   -3.0754    1.9904 C   0  0  0  0  0  0  0  0  0  0  0  0
    8.1253   -3.5547   -0.0219 C   0  0  0  0  0  0  0  0  0  0  0  0
    6.5444   -4.4194    1.5673 C   0  0  0  0  0  0  0  0  0  0  0  0
  1  7  1  0
  2 23  1  0
  2 25  1  0
  3 24  1  0
  3 26  1  0
  4  9  1  0
  4 17  1  0
  4 18  1  0
  5 27  1  0
  5 29  1  0
  5 30  1  0
  6 28  1  0
  6 31  1  0
  6 32  1  0
  7  8  1  0
  7 10  1  0
  7 11  1  0
  8  9  1  0
  8 12  1  0
 10 13  2  0
 10 15  1  0
 11 14  2  0
 11 16  1  0
 13 19  1  0
 14 20  1  0
 15 21  2  0
 16 22  2  0
 19 23  2  0
 20 24  2  0
 21 23  1  0
 22 24  1  0
 25 27  1  0
 26 28  1  0
M  END
>  <PUBCHEM_COMPOUND_CID>  (1) 
39248

>  <PUBCHEM_CONFORMER_RMSD>  (1) 
1.2

>  <PUBCHEM_CONFORMER_DIVERSEORDER>  (1) 
1
29
51
54
38
28
9
49
45
57
30
52
61
40
34
46
53
24
14
60
25
58
15
55
56
3
44
17
11
41
27
43
23
31
35
26
37
48
21
13
33
42
16
47
19
36
39
59
12
32
8
18
20
50
22
5
10
6
2
7
4

>  <PUBCHEM_MMFF94_PARTIAL_CHARGES>  (1) 
39
1 -0.68
10 -0.14
11 -0.14
13 -0.15
14 -0.15
15 -0.15
16 -0.15
17 0.27
18 0.27
19 -0.15
2 -0.36
20 -0.15
21 -0.15
22 -0.15
23 0.08
24 0.08
25 0.28
26 0.28
27 0.27
28 0.27
29 0.27
3 -0.36
30 0.27
31 0.27
32 0.27
39 0.4
4 -0.81
40 0.15
41 0.15
42 0.15
43 0.15
5 -0.81
50 0.15
51 0.15
52 0.15
53 0.15
6 -0.81
7 0.57
9 0.27

>  <PUBCHEM_EFFECTIVE_ROTOR_COUNT>  (1) 
13

>  <PUBCHEM_PHARMACOPHORE_FEATURES>  (1) 
10
1 1 acceptor
1 1 donor
1 12 hydrophobe
1 2 acceptor
1 3 acceptor
1 4 cation
1 5 cation
1 6 cation
6 10 13 15 19 21 23 rings
6 11 14 16 20 22 24 rings

>  <PUBCHEM_HEAVY_ATOM_COUNT>  (1) 
32

>  <PUBCHEM_ATOM_DEF_STEREO_COUNT>  (1) 
0

>  <PUBCHEM_ATOM_UDEF_STEREO_COUNT>  (1) 
1

>  <PUBCHEM_BOND_DEF_STEREO_COUNT>  (1) 
0

>  <PUBCHEM_BOND_UDEF_STEREO_COUNT>  (1) 
0

>  <PUBCHEM_ISOTOPIC_ATOM_COUNT>  (1) 
0

>  <PUBCHEM_COMPONENT_COUNT>  (1) 
1

>  <PUBCHEM_CACTVS_TAUTO_COUNT>  (1) 
1

>  <PUBCHEM_CONFORMER_ID>  (1) 
0000995000000001

>  <PUBCHEM_MMFF94_ENERGY>  (1) 
114.996

>  <PUBCHEM_FEATURE_SELFOVERLAP>  (1) 
50.746

>  <PUBCHEM_SHAPE_FINGERPRINT>  (1) 
10169797 241 18196956554556804479
11062273 23 17691708691681985048
11297750 10 18334008389472222637
13540713 4 18261942029991749053
13631057 29 18116715110789492426
14068700 675 18115031779882732286
14347424 109 18200607994639629761
16990366 60 18408318882730306362
17492 89 18411419553445054861
20775438 99 17901664101261976635
21033648 29 15840149879904278145
21049683 118 16626575872034151416
21756936 100 12246520455299817918
21796203 349 18201167597605875486
22224240 67 17695347367122824777
22899556 10 17333359607559045672
22956985 138 18410291436887272820
23523788 1 18044078266975132473
23559900 14 18186238446573981805
23569943 247 18261683636523222115
2747138 104 18200308798380585114
32027 91 18409726279752996231
3418910 222 18268996389759050892
4340502 62 17698734923951175677
50009960 94 18411131472661853263
5104073 3 18129678499500437481
5718773 13 18334295353470293951
6376802 137 18265340516915691530
6673363 416 18198911319691947926
6679774 75 18047176734662770520
7970288 3 18337113376229346479

>  <PUBCHEM_SHAPE_MULTIPOLES>  (1) 
625.99
18.65
7.99
1.73
11.9
3.69
-0.04
-41.41
-6.6
-9.15
-4.04
-0.28
0.59
2.59

>  <PUBCHEM_SHAPE_SELFOVERLAP>  (1) 
1275.114

>  <PUBCHEM_SHAPE_VOLUME>  (1) 
367.2

>  <PUBCHEM_COORDINATE_TYPE>  (1) 
2
5
10

$$$$
