39243
     RDKit          3D

 34 38  0  0  1  0  0  0  0  0999 V2000
   -3.2859    0.0399   -1.4927 O   0  0  0  0  0  0  0  0  0  0  0  0
    4.5543   -1.5203   -0.3874 O   0  0  0  0  0  0  0  0  0  0  0  0
   -7.4539    1.0123    0.4359 O   0  0  0  0  0  0  0  0  0  0  0  0
   -7.9671    0.0038   -1.5679 O   0  0  0  0  0  0  0  0  0  0  0  0
    5.6831   -2.4202    1.4043 O   0  0  0  0  0  0  0  0  0  0  0  0
    7.6577    2.1520    0.5947 O   0  0  0  0  0  0  0  0  0  0  0  0
    6.1227    0.6579   -0.3208 N   0  0  0  0  0  0  0  0  0  0  0  0
   -2.3806   -0.2521   -0.4170 C   0  0  0  0  0  0  0  0  0  0  0  0
   -0.9477    0.1502   -0.8711 C   0  0  0  0  0  0  0  0  0  0  0  0
    0.0991    0.1070    0.2814 C   0  0  0  0  0  0  0  0  0  0  0  0
   -2.8657    0.4977    0.8544 C   0  0  0  0  0  0  0  0  0  0  0  0
    1.5464    0.5202   -0.1950 C   0  0  0  0  0  0  0  0  0  0  0  0
    1.9665   -0.3567   -1.4188 C   0  0  0  0  0  0  0  0  0  0  0  0
   -0.4074    0.9191    1.4889 C   0  0  0  0  0  0  0  0  0  0  0  0
   -1.7799    0.4448    1.9612 C   0  0  0  0  0  0  0  0  0  0  0  0
   -4.0939   -0.3508    1.3150 C   0  0  0  0  0  0  0  0  0  0  0  0
   -0.4786   -0.6764   -2.0850 C   0  0  0  0  0  0  0  0  0  0  0  0
   -2.5552   -1.7370   -0.0451 C   0  0  0  0  0  0  0  0  0  0  0  0
    0.9263   -0.3039   -2.5468 C   0  0  0  0  0  0  0  0  0  0  0  0
   -3.7135   -1.8005    0.9604 C   0  0  0  0  0  0  0  0  0  0  0  0
    2.6156    0.3407    0.9235 C   0  0  0  0  0  0  0  0  0  0  0  0
    2.2626   -1.8255   -1.0306 C   0  0  0  0  0  0  0  0  0  0  0  0
   -3.2333    1.9724    0.5881 C   0  0  0  0  0  0  0  0  0  0  0  0
    1.5962    2.0183   -0.5958 C   0  0  0  0  0  0  0  0  0  0  0  0
    2.8796   -1.1136    1.3082 C   0  0  0  0  0  0  0  0  0  0  0  0
    3.2830   -1.9481    0.0972 C   0  0  0  0  0  0  0  0  0  0  0  0
   -5.4140    0.0056    0.6937 C   0  0  0  0  0  0  0  0  0  0  0  0
   -6.3424    0.9579    1.3364 C   0  0  0  0  0  0  0  0  0  0  0  0
   -5.9118   -0.4530   -0.4516 C   0  0  0  0  0  0  0  0  0  0  0  0
   -7.2174    0.1859   -0.6241 C   0  0  0  0  0  0  0  0  0  0  0  0
    5.5894   -1.5988    0.4980 C   0  0  0  0  0  0  0  0  0  0  0  0
    6.6467   -0.5479    0.2532 C   0  0  0  0  0  0  0  0  0  0  0  0
    6.6741    1.9152   -0.1018 C   0  0  0  0  0  0  0  0  0  0  0  0
    5.9451    3.0038   -0.8430 C   0  0  0  0  0  0  0  0  0  0  0  0
  1  8  1  0
  2 26  1  0
  2 31  1  0
  3 28  1  0
  3 30  1  0
  4 30  2  0
  5 31  2  0
  6 33  2  0
  7 32  1  0
  7 33  1  0
  8  9  1  0
  8 11  1  0
  8 18  1  0
  9 10  1  0
  9 17  1  0
 10 12  1  0
 10 14  1  0
 11 15  1  0
 11 16  1  0
 11 23  1  0
 12 13  1  0
 12 21  1  0
 12 24  1  0
 13 19  1  0
 13 22  1  0
 14 15  1  0
 16 20  1  0
 16 27  1  0
 17 19  1  0
 18 20  1  0
 21 25  1  0
 22 26  1  0
 25 26  1  0
 27 28  1  0
 27 29  2  0
 29 30  1  0
 31 32  1  0
 33 34  1  0
M  END
>  <PUBCHEM_COMPOUND_CID>  (1) 
39243

>  <PUBCHEM_CONFORMER_RMSD>  (1) 
1

>  <PUBCHEM_CONFORMER_DIVERSEORDER>  (1) 
23
77
89
101
90
12
135
49
195
83
54
121
36
174
175
18
116
61
130
124
185
114
6
99
118
105
119
199
52
190
145
178
196
16
166
194
35
115
43
186
149
162
120
68
37
154
2
75
86
181
76
148
4
64
146
70
46
65
183
159
123
102
22
143
128
94
7
117
95
48
87
33
58
133
108
104
59
147
84
112
9
28
172
198
136
110
150
80
27
60
188
164
88
127
20
167
55
98
151
155
26
30
168
140
17
134
163
56
73
50
31
173
176
132
184
191
97
82
144
142
113
93
107
71
51
38
126
152
47
138
171
125
165
34
137
62
11
21
156
42
153
158
45
177
179
10
81
53
160
39
78
157
63
69
41
193
57
111
91
5
44
32
66
85
182
24
67
161
197
109
40
103
141
29
19
169
170
187
72
122
139
1
13
96
131
25
192
100
180
106
92
3
15
189
129
14
79
8
74

>  <PUBCHEM_MMFF94_PARTIAL_CHARGES>  (1) 
21
1 -0.68
16 0.14
2 -0.43
26 0.28
27 -0.28
28 0.42
29 -0.14
3 -0.43
30 0.71
31 0.66
32 0.36
33 0.57
34 0.06
4 -0.57
5 -0.57
6 -0.57
64 0.4
67 0.15
7 -0.73
70 0.37
8 0.28

>  <PUBCHEM_EFFECTIVE_ROTOR_COUNT>  (1) 
8.6

>  <PUBCHEM_PHARMACOPHORE_FEATURES>  (1) 
11
1 1 acceptor
1 1 donor
1 4 acceptor
1 5 acceptor
1 6 acceptor
1 7 donor
5 3 27 28 29 30 rings
5 8 11 16 18 20 rings
6 12 13 21 22 25 26 rings
6 8 9 10 11 14 15 rings
6 9 10 12 13 17 19 rings

>  <PUBCHEM_HEAVY_ATOM_COUNT>  (1) 
34

>  <PUBCHEM_ATOM_DEF_STEREO_COUNT>  (1) 
6

>  <PUBCHEM_ATOM_UDEF_STEREO_COUNT>  (1) 
2

>  <PUBCHEM_BOND_DEF_STEREO_COUNT>  (1) 
0

>  <PUBCHEM_BOND_UDEF_STEREO_COUNT>  (1) 
0

>  <PUBCHEM_ISOTOPIC_ATOM_COUNT>  (1) 
0

>  <PUBCHEM_COMPONENT_COUNT>  (1) 
1

>  <PUBCHEM_CACTVS_TAUTO_COUNT>  (1) 
2

>  <PUBCHEM_CONFORMER_ID>  (1) 
0000994B00000017

>  <PUBCHEM_MMFF94_ENERGY>  (1) 
107.2504

>  <PUBCHEM_FEATURE_SELFOVERLAP>  (1) 
56.057

>  <PUBCHEM_SHAPE_FINGERPRINT>  (1) 
10 15 17059761257561844490
10674148 151 14779550049943958230
10906281 52 17632313258475166443
12107698 1 18342174436461625945
12236239 1 18202004321875618064
13165053 68 18048036560775951943
13383665 225 16629427794795971937
13617811 41 16702307853996894192
14170010 4 17676209074175912076
14251764 18 18060416915617084743
1454969 45 17704356567251381764
14675020 138 15936402347992157696
14840074 17 18060421335186190956
15131766 46 18193272125747362356
15183329 4 18040429954962029811
15328829 1 18059859514761806556
15336146 87 17774997969033493408
15461852 350 17132112464169229471
15685185 35 17979919642883838672
15840311 113 18341898502615173948
15849732 13 17458347425148822791
16120349 18 18408318912615267828
17349148 13 17917721175973464201
18608769 82 13479147795761760937
20511986 3 18187081775633403058
20771845 171 17775295945722428310
21223535 225 16298372566545555783
21792934 111 15647319823773150564
21859007 373 17168132413313075005
23559900 14 18334294314261703921
34797466 226 18059583468892361014
3633792 109 18187642479988412661
4073 2 17968947503867943674
4093350 32 18113336410420251514
4098825 35 18408881815783185989
4325135 7 18334577937033136138
4340502 62 18040435516960586570
49967989 163 16844434119900628471
59755656 215 14405190555885834044
6086070 43 17346312777724679345

>  <PUBCHEM_SHAPE_MULTIPOLES>  (1) 
659.51
19.93
2.22
1.75
1.47
0.48
0.46
5.42
-1.16
-4.21
-0.14
0.67
-0.21
-1.26

>  <PUBCHEM_SHAPE_SELFOVERLAP>  (1) 
1410.606

>  <PUBCHEM_SHAPE_VOLUME>  (1) 
362.7

>  <PUBCHEM_COORDINATE_TYPE>  (1) 
2
5
10

$$$$
