39250
     RDKit          3D

 24 25  0  0  1  0  0  0  0  0999 V2000
    3.8166    0.8308   -2.4689 Cl  0  0  0  0  0  0  0  0  0  0  0  0
    5.4341   -3.8293   -0.3150 Cl  0  0  0  0  0  0  0  0  0  0  0  0
   -2.6824    1.5805   -0.0040 O   0  0  0  0  0  0  0  0  0  0  0  0
    3.3802    2.1449    1.6418 O   0  0  0  0  0  0  0  0  0  0  0  0
   -5.3508   -0.9596   -0.1155 N   0  0  0  0  0  0  0  0  0  0  0  0
   -4.6386    0.2754   -0.4413 C   0  0  0  0  0  0  0  0  0  0  0  0
   -5.6696   -1.0049    1.3110 C   0  0  0  0  0  0  0  0  0  0  0  0
   -6.5699   -1.0729   -0.9154 C   0  0  0  0  0  0  0  0  0  0  0  0
   -3.3482    0.3771    0.3560 C   0  0  0  0  0  0  0  0  0  0  0  0
    2.9459    1.5903    0.3877 C   0  0  0  0  0  0  0  0  0  0  0  0
    1.4584    1.5875    0.2839 C   0  0  0  0  0  0  0  0  0  0  0  0
   -6.3561   -2.3092    1.6791 C   0  0  0  0  0  0  0  0  0  0  0  0
   -6.2574   -1.0278   -2.4016 C   0  0  0  0  0  0  0  0  0  0  0  0
   -1.3153    1.5828    0.0920 C   0  0  0  0  0  0  0  0  0  0  0  0
    3.5816    0.2195    0.1767 C   0  0  0  0  0  0  0  0  0  0  0  0
    0.8240    2.3847   -0.6687 C   0  0  0  0  0  0  0  0  0  0  0  0
    0.7013    0.7878    1.1402 C   0  0  0  0  0  0  0  0  0  0  0  0
   -0.5676    2.3823   -0.7650 C   0  0  0  0  0  0  0  0  0  0  0  0
   -0.6902    0.7856    1.0439 C   0  0  0  0  0  0  0  0  0  0  0  0
    3.9910   -0.1771   -1.0786 C   0  0  0  0  0  0  0  0  0  0  0  0
    3.7230   -0.5881    1.2870 C   0  0  0  0  0  0  0  0  0  0  0  0
    4.5679   -1.4378   -1.2323 C   0  0  0  0  0  0  0  0  0  0  0  0
    4.2998   -1.8488    1.1333 C   0  0  0  0  0  0  0  0  0  0  0  0
    4.7222   -2.2736   -0.1263 C   0  0  0  0  0  0  0  0  0  0  0  0
  1 20  1  0
  2 24  1  0
  3  9  1  0
  3 14  1  0
  4 10  1  0
  5  6  1  0
  5  7  1  0
  5  8  1  0
  6  9  1  0
  7 12  1  0
  8 13  1  0
 10 11  1  0
 10 15  1  0
 11 16  2  0
 11 17  1  0
 14 18  2  0
 14 19  1  0
 15 20  2  0
 15 21  1  0
 16 18  1  0
 17 19  2  0
 20 22  1  0
 21 23  2  0
 22 24  2  0
 23 24  1  0
M  END
>  <PUBCHEM_COMPOUND_CID>  (1) 
39250

>  <PUBCHEM_CONFORMER_RMSD>  (1) 
0.8

>  <PUBCHEM_CONFORMER_DIVERSEORDER>  (1) 
1
265
229
152
57
416
239
246
169
121
263
389
364
336
204
379
418
195
186
385
149
360
272
351
298
424
312
429
133
363
162
277
115
174
62
341
7
74
126
80
108
342
151
97
219
259
150
35
292
403
307
438
92
178
329
116
411
440
4
290
235
125
350
237
372
42
101
85
442
242
5
390
215
355
155
448
38
356
165
216
449
405
302
402
81
433
452
65
156
271
143
367
197
93
230
368
145
303
224
352
227
107
76
453
376
393
96
208
361
334
348
183
250
241
12
77
13
194
278
276
436
106
236
212
404
273
173
138
72
198
291
118
33
319
398
447
401
226
59
109
359
362
44
346
73
296
282
450
184
117
102
180
426
98
451
378
318
310
323
338
395
354
161
264
87
243
88
105
396
268
83
18
254
300
122
439
192
163
217
267
181
384
325
316
444
391
280
179
49
159
382
196
84
333
245
315
16
209
419
324
255
201
253
53
244
176
305
177
39
347
103
89
337
14
23
428
50
369
100
158
69
427
191
193
285
141
28
408
238
387
167
11
119
345
374
82
128
306
188
301
36
294
228
131
371
288
365
111
19
153
170
274
399
47
446
218
31
221
437
261
48
135
340
113
210
157
147
132
266
45
349
313
287
79
43
331
129
233
380
422
110
140
311
377
432
344
297
406
232
420
66
9
270
317
248
148
52
308
207
394
166
269
146
286
326
357
154
252
10
234
41
130
137
247
304
299
309
95
381
258
94
90
425
322
104
430
262
289
70
222
190
260
160
3
293
225
392
187
172
206
91
142
335
410
112
202
220
171
86
200
409
136
61
55
249
175
127
6
168
281
383
257
15
214
199
51
213
144
189
284
8
435
25
17
24
332
386
67
321
240
283
414
2
353
223
58
27
46
29
114
68
366
20
443
388
63
375
400
431
40
203
99
343
279
75
32
417
373
22
295
54
139
64
407
231
37
251
21
78
182
314
370
421
60
415
30
26
71
124
256
185
123
34
358
134
423
397
164
275
412
445
434
328
120
441
56
330
211
205
320
327
339
413

>  <PUBCHEM_MMFF94_PARTIAL_CHARGES>  (1) 
30
1 -0.18
10 0.57
11 -0.14
14 0.08
15 -0.14
16 -0.15
17 -0.15
18 -0.15
19 -0.15
2 -0.18
20 0.18
21 -0.15
22 -0.15
23 -0.15
24 0.18
3 -0.36
4 -0.68
40 0.15
41 0.15
42 0.15
43 0.15
44 0.15
45 0.4
46 0.15
47 0.15
5 -0.81
6 0.27
7 0.27
8 0.27
9 0.28

>  <PUBCHEM_EFFECTIVE_ROTOR_COUNT>  (1) 
8

>  <PUBCHEM_PHARMACOPHORE_FEATURES>  (1) 
6
1 3 acceptor
1 4 acceptor
1 4 donor
1 5 cation
6 11 14 16 17 18 19 rings
6 15 20 21 22 23 24 rings

>  <PUBCHEM_HEAVY_ATOM_COUNT>  (1) 
24

>  <PUBCHEM_ATOM_DEF_STEREO_COUNT>  (1) 
0

>  <PUBCHEM_ATOM_UDEF_STEREO_COUNT>  (1) 
1

>  <PUBCHEM_BOND_DEF_STEREO_COUNT>  (1) 
0

>  <PUBCHEM_BOND_UDEF_STEREO_COUNT>  (1) 
0

>  <PUBCHEM_ISOTOPIC_ATOM_COUNT>  (1) 
0

>  <PUBCHEM_COMPONENT_COUNT>  (1) 
1

>  <PUBCHEM_CACTVS_TAUTO_COUNT>  (1) 
1

>  <PUBCHEM_CONFORMER_ID>  (1) 
0000995200000001

>  <PUBCHEM_MMFF94_ENERGY>  (1) 
65.8599

>  <PUBCHEM_FEATURE_SELFOVERLAP>  (1) 
30.446

>  <PUBCHEM_SHAPE_FINGERPRINT>  (1) 
10 15 12679178345481042515
10319926 262 15410629072975741809
10498660 4 12541280839709660372
10571361 74 17773298227511025071
10622 236 17390217136395803074
117089 54 18125733279227937566
11763715 3 18269579202570854584
11796584 16 17977665308484521644
11991303 11 17898570861683967253
12422481 6 17489312962579085959
12596602 18 15051735313410647083
13533116 47 18130786793312921353
13782708 43 18201432597910685359
13911852 28 18342734087937802589
13955234 65 18127974311389443128
14251740 57 18410293614250497746
14251751 18 18270396079885548550
14251764 30 18334301967761679467
14528608 73 14923941275852627873
14848178 5 18342168947466664255
14848178 96 8286199456961147756
15183329 4 16877655756554654797
15238133 3 9006761065894579102
15510800 12 18408602548119096162
15519825 34 14907027493020338719
17857418 61 18131627907287309607
193927 3 18411139138908619593
19438510 23 9727045656967088950
20028762 73 17846211150762648343
20691028 202 10809880979358722783
20715895 44 10015590467009700378
20775438 99 18263636428432969810
21599406 157 17167864197001191911
21641784 216 15647326399811434005
21682296 61 18411982443116284491
22061861 79 18261105297173470279
2303208 19 17968380143399639147
23379529 103 18188217623354156715
25122255 55 18260831531763380347
25222932 49 18201712934731762014
270888 7 8718243742677387654
2748736 6 8574435296897290063
2838139 119 12035722120245353615
2916195 48 10159693595408109409
3004659 81 18040435460593183890
3089732 80 18408610275055314235
312425 54 17060341846898230419
314194 84 18270678787734378505
3472631 163 7997961375669762145
34797466 226 16515974765125027797
439807 62 18334583404062533499
46194498 28 17096375101744828605
465052 167 18342746199750962590
5104073 3 17703792483379414833
531348 171 18272643529757316909
5718773 13 18266454305289676106
7970288 3 18198341741586591470
960060 61 17967538973395425172

>  <PUBCHEM_SHAPE_MULTIPOLES>  (1) 
480.93
17.27
3.28
1.87
24.98
1.62
-0.75
16.9
-3.19
-3.55
0.12
0.66
0.21
0.75

>  <PUBCHEM_SHAPE_SELFOVERLAP>  (1) 
984.064

>  <PUBCHEM_SHAPE_VOLUME>  (1) 
280.8

>  <PUBCHEM_COORDINATE_TYPE>  (1) 
2
5
10

$$$$
