39266
     RDKit          3D

 24 26  0  0  1  0  0  0  0  0999 V2000
   -1.2073   -0.3200    1.9181 O   0  0  0  0  0  0  0  0  0  0  0  0
    0.1908   -2.2290    0.1693 O   0  0  0  0  0  0  0  0  0  0  0  0
    1.0087   -0.1423   -0.5702 N   0  0  0  0  0  0  0  0  0  0  0  0
    4.6386   -0.9456   -0.7719 N   0  0  0  0  0  0  0  0  0  0  0  0
   -1.0996   -0.1620    0.5171 C   0  0  0  0  0  0  0  0  0  0  0  0
   -0.6809    1.2291    0.1212 C   0  0  0  0  0  0  0  0  0  0  0  0
    0.5597    1.1841   -0.5177 C   0  0  0  0  0  0  0  0  0  0  0  0
    0.0910   -1.0180    0.0304 C   0  0  0  0  0  0  0  0  0  0  0  0
   -2.3676   -0.6098   -0.1244 C   0  0  0  0  0  0  0  0  0  0  0  0
    2.2569   -0.5557   -1.1666 C   0  0  0  0  0  0  0  0  0  0  0  0
   -1.3335    2.4353    0.3155 C   0  0  0  0  0  0  0  0  0  0  0  0
    1.1796    2.3286   -0.9886 C   0  0  0  0  0  0  0  0  0  0  0  0
    3.3951   -0.4979   -0.1582 C   0  0  0  0  0  0  0  0  0  0  0  0
   -2.4599   -0.6826   -1.5151 C   0  0  0  0  0  0  0  0  0  0  0  0
   -3.4655   -0.9568    0.6644 C   0  0  0  0  0  0  0  0  0  0  0  0
   -0.7221    3.6006   -0.1538 C   0  0  0  0  0  0  0  0  0  0  0  0
   -0.0216    0.0928    2.5897 C   0  0  0  0  0  0  0  0  0  0  0  0
    0.5235    3.5472   -0.8016 C   0  0  0  0  0  0  0  0  0  0  0  0
   -3.6472   -1.1013   -2.1157 C   0  0  0  0  0  0  0  0  0  0  0  0
   -4.6527   -1.3756    0.0639 C   0  0  0  0  0  0  0  0  0  0  0  0
   -0.2108   -0.0885    4.0806 C   0  0  0  0  0  0  0  0  0  0  0  0
    5.7353   -0.9049    0.1856 C   0  0  0  0  0  0  0  0  0  0  0  0
   -4.7436   -1.4478   -1.3262 C   0  0  0  0  0  0  0  0  0  0  0  0
    7.0330   -1.3798   -0.4457 C   0  0  0  0  0  0  0  0  0  0  0  0
  1  5  1  0
  1 17  1  0
  2  8  2  0
  3  7  1  0
  3  8  1  0
  3 10  1  0
  4 13  1  0
  4 22  1  0
  5  6  1  0
  5  8  1  0
  5  9  1  0
  6  7  2  0
  6 11  1  0
  7 12  1  0
  9 14  2  0
  9 15  1  0
 10 13  1  0
 11 16  2  0
 12 18  2  0
 14 19  1  0
 15 20  2  0
 16 18  1  0
 17 21  1  0
 19 23  2  0
 20 23  1  0
 22 24  1  0
M  END
>  <PUBCHEM_COMPOUND_CID>  (1) 
39266

>  <PUBCHEM_CONFORMER_RMSD>  (1) 
0.8

>  <PUBCHEM_CONFORMER_DIVERSEORDER>  (1) 
2
10
34
25
30
6
7
11
26
14
24
33
28
22
1
31
35
13
29
20
23
12
32
5
16
27
8
9
4
15
19
17
18
21
3

>  <PUBCHEM_MMFF94_PARTIAL_CHARGES>  (1) 
32
1 -0.56
10 0.3
11 -0.15
12 -0.15
13 0.27
14 -0.15
15 -0.15
16 -0.15
17 0.28
18 -0.15
19 -0.15
2 -0.57
20 -0.15
22 0.27
23 -0.15
27 0.15
28 0.15
3 -0.48
31 0.15
32 0.15
33 0.15
36 0.15
37 0.36
38 0.15
39 0.15
4 -0.9
45 0.15
5 0.63
6 -0.14
7 0.12
8 0.57
9 -0.14

>  <PUBCHEM_EFFECTIVE_ROTOR_COUNT>  (1) 
7.4

>  <PUBCHEM_PHARMACOPHORE_FEATURES>  (1) 
7
1 1 acceptor
1 2 acceptor
1 4 cation
1 4 donor
5 3 5 6 7 8 rings
6 6 7 11 12 16 18 rings
6 9 14 15 19 20 23 rings

>  <PUBCHEM_HEAVY_ATOM_COUNT>  (1) 
24

>  <PUBCHEM_ATOM_DEF_STEREO_COUNT>  (1) 
0

>  <PUBCHEM_ATOM_UDEF_STEREO_COUNT>  (1) 
1

>  <PUBCHEM_BOND_DEF_STEREO_COUNT>  (1) 
0

>  <PUBCHEM_BOND_UDEF_STEREO_COUNT>  (1) 
0

>  <PUBCHEM_ISOTOPIC_ATOM_COUNT>  (1) 
0

>  <PUBCHEM_COMPONENT_COUNT>  (1) 
1

>  <PUBCHEM_CACTVS_TAUTO_COUNT>  (1) 
1

>  <PUBCHEM_CONFORMER_ID>  (1) 
0000996200000002

>  <PUBCHEM_MMFF94_ENERGY>  (1) 
57.3094

>  <PUBCHEM_FEATURE_SELFOVERLAP>  (1) 
35.607

>  <PUBCHEM_SHAPE_FINGERPRINT>  (1) 
10366900 7 18041001714062167410
11101153 10 18410299134091081988
11265709 11 18410856568419778036
11578080 2 17632001023291309881
12293681 25 16739194479948168810
12788726 201 18188482480875565266
13009979 54 17988649661516241419
13134695 92 18338516477176893813
13583140 156 14907618922796416662
13911987 19 18115606949023808038
14142880 1 17986125018956152056
14508225 48 18335697239395926748
16087824 20 18194682563233079149
16945 1 18040428936611558249
1813 80 18202015333945022775
200 152 18261109660549195206
20600515 1 18201451319103670126
23175994 123 18261395576363568031
23402539 116 18411981338803073262
23419403 2 17130679786979714449
23526113 38 17678747966425049513
23559900 14 17095529551949892260
25 1 17905047311345858805
283562 15 18337389331940245478
3009799 131 18187355541306795814
3380486 145 18126587629784428560
34934 24 18117561713162515937
497634 4 17560530508548602300
57527295 17 17822276977733664155
57527585 103 16735834093499143578
5969126 39 18411975837371921492

>  <PUBCHEM_SHAPE_MULTIPOLES>  (1) 
472.21
9.5
3.02
2.33
15.42
4.09
3.22
-9.56
-4.11
-0.16
-0.96
-1.14
-0.34
-0.53

>  <PUBCHEM_SHAPE_SELFOVERLAP>  (1) 
1010.714

>  <PUBCHEM_SHAPE_VOLUME>  (1) 
264.1

>  <PUBCHEM_COORDINATE_TYPE>  (1) 
2
5
10

$$$$
