39274
     RDKit          3D

 24 26  0  0  1  0  0  0  0  0999 V2000
   -1.9488    1.1269    1.3360 O   0  0  0  0  0  0  0  0  0  0  0  0
    0.0056   -0.8729    2.2517 O   0  0  0  0  0  0  0  0  0  0  0  0
    1.1842    0.2788    0.5621 N   0  0  0  0  0  0  0  0  0  0  0  0
    4.4947   -1.4082    0.5326 N   0  0  0  0  0  0  0  0  0  0  0  0
   -1.1854    0.3218    0.4593 C   0  0  0  0  0  0  0  0  0  0  0  0
   -0.5569    1.1144   -0.6560 C   0  0  0  0  0  0  0  0  0  0  0  0
    0.8340    1.0522   -0.5529 C   0  0  0  0  0  0  0  0  0  0  0  0
    0.0471   -0.1932    1.2357 C   0  0  0  0  0  0  0  0  0  0  0  0
    2.5424    0.0027    0.9665 C   0  0  0  0  0  0  0  0  0  0  0  0
   -2.0230   -0.8156   -0.0143 C   0  0  0  0  0  0  0  0  0  0  0  0
   -1.1595    1.8381   -1.6718 C   0  0  0  0  0  0  0  0  0  0  0  0
    3.1165   -1.1411    0.1360 C   0  0  0  0  0  0  0  0  0  0  0  0
    1.6620    1.6948   -1.4569 C   0  0  0  0  0  0  0  0  0  0  0  0
   -1.4525   -1.8313   -0.7830 C   0  0  0  0  0  0  0  0  0  0  0  0
   -3.3796   -0.8677    0.3104 C   0  0  0  0  0  0  0  0  0  0  0  0
   -0.3386    2.4928   -2.5934 C   0  0  0  0  0  0  0  0  0  0  0  0
   -1.1997    2.2350    1.8241 C   0  0  0  0  0  0  0  0  0  0  0  0
    1.0605    2.4206   -2.4873 C   0  0  0  0  0  0  0  0  0  0  0  0
   -2.2365   -2.8963   -1.2262 C   0  0  0  0  0  0  0  0  0  0  0  0
   -4.1635   -1.9329   -0.1329 C   0  0  0  0  0  0  0  0  0  0  0  0
   -2.0785    3.0589    2.7408 C   0  0  0  0  0  0  0  0  0  0  0  0
   -3.5919   -2.9472   -0.9013 C   0  0  0  0  0  0  0  0  0  0  0  0
    5.0476   -2.5195   -0.2433 C   0  0  0  0  0  0  0  0  0  0  0  0
    5.3199   -0.2110    0.3642 C   0  0  0  0  0  0  0  0  0  0  0  0
  1  5  1  0
  1 17  1  0
  2  8  2  0
  3  7  1  0
  3  8  1  0
  3  9  1  0
  4 12  1  0
  4 23  1  0
  4 24  1  0
  5  6  1  0
  5  8  1  0
  5 10  1  0
  6  7  2  0
  6 11  1  0
  7 13  1  0
  9 12  1  0
 10 14  2  0
 10 15  1  0
 11 16  2  0
 13 18  2  0
 14 19  1  0
 15 20  2  0
 16 18  1  0
 17 21  1  0
 19 22  2  0
 20 22  1  0
M  END
>  <PUBCHEM_COMPOUND_CID>  (1) 
39274

>  <PUBCHEM_CONFORMER_RMSD>  (1) 
0.8

>  <PUBCHEM_CONFORMER_DIVERSEORDER>  (1) 
4
2
17
15
14
18
21
8
11
20
9
13
1
16
10
19
7
12
5
6
3

>  <PUBCHEM_MMFF94_PARTIAL_CHARGES>  (1) 
32
1 -0.56
10 -0.14
11 -0.15
12 0.27
13 -0.15
14 -0.15
15 -0.15
16 -0.15
17 0.28
18 -0.15
19 -0.15
2 -0.57
20 -0.15
22 -0.15
23 0.27
24 0.27
27 0.15
3 -0.48
30 0.15
31 0.15
32 0.15
33 0.15
36 0.15
37 0.15
38 0.15
4 -0.81
42 0.15
5 0.63
6 -0.14
7 0.12
8 0.57
9 0.3

>  <PUBCHEM_EFFECTIVE_ROTOR_COUNT>  (1) 
6.4

>  <PUBCHEM_PHARMACOPHORE_FEATURES>  (1) 
6
1 1 acceptor
1 2 acceptor
1 4 cation
5 3 5 6 7 8 rings
6 10 14 15 19 20 22 rings
6 6 7 11 13 16 18 rings

>  <PUBCHEM_HEAVY_ATOM_COUNT>  (1) 
24

>  <PUBCHEM_ATOM_DEF_STEREO_COUNT>  (1) 
0

>  <PUBCHEM_ATOM_UDEF_STEREO_COUNT>  (1) 
1

>  <PUBCHEM_BOND_DEF_STEREO_COUNT>  (1) 
0

>  <PUBCHEM_BOND_UDEF_STEREO_COUNT>  (1) 
0

>  <PUBCHEM_ISOTOPIC_ATOM_COUNT>  (1) 
0

>  <PUBCHEM_COMPONENT_COUNT>  (1) 
1

>  <PUBCHEM_CACTVS_TAUTO_COUNT>  (1) 
1

>  <PUBCHEM_CONFORMER_ID>  (1) 
0000996A00000004

>  <PUBCHEM_MMFF94_ENERGY>  (1) 
71.9661

>  <PUBCHEM_FEATURE_SELFOVERLAP>  (1) 
30.534

>  <PUBCHEM_SHAPE_FINGERPRINT>  (1) 
107951 10 17128464103498353552
11552529 35 18201148880739844390
11578080 2 18122599894679918869
12173636 292 17843675561279434120
12553582 1 17749658649518172074
12633257 1 15840991216426149551
12788726 201 18128839575320656827
13009979 54 18340499961877961355
133893 2 17460338739269485780
13583140 156 16988550265949154850
14817 1 12544630218141953749
14863182 85 16465556934090259207
16945 1 17917169259321703273
17357779 13 17458339762800274220
17980427 26 16907760638047163693
1813 80 18187918521320057390
20602899 9 17835774448946946141
21330990 113 16899651232626939460
22620623 9 18115578232829748902
23352939 185 18260265286826224836
23402539 116 17749380447944616738
23419403 2 17114881016153798785
23559900 14 18059281154391497632
25 1 16737199944812790085
25222932 49 15253807180915783439
376196 1 15945396073492041836
46194498 28 17461982560782647031
484985 159 18055912091871936970
497634 4 18343305838848899572
531348 171 17754450158991207658
6992083 37 18265066750978158033

>  <PUBCHEM_SHAPE_MULTIPOLES>  (1) 
472.21
7.38
3.71
2.37
8.96
0.04
-0.02
-7.97
0.81
-1.88
-0.83
-0.74
2.7
-2.18

>  <PUBCHEM_SHAPE_SELFOVERLAP>  (1) 
1015.027

>  <PUBCHEM_SHAPE_VOLUME>  (1) 
263.9

>  <PUBCHEM_COORDINATE_TYPE>  (1) 
2
5
10

$$$$
