39280
     RDKit          3D

 25 27  0  0  1  0  0  0  0  0999 V2000
    2.4517    0.2027    1.2103 O   0  0  0  0  0  0  0  0  0  0  0  0
   -0.2674    0.3054    2.3299 O   0  0  0  0  0  0  0  0  0  0  0  0
   -0.4254   -1.4153    0.7223 N   0  0  0  0  0  0  0  0  0  0  0  0
   -4.5181    0.1000    0.2440 N   0  0  0  0  0  0  0  0  0  0  0  0
    1.2802    0.2052    0.4185 C   0  0  0  0  0  0  0  0  0  0  0  0
    1.3047   -0.8494   -0.6560 C   0  0  0  0  0  0  0  0  0  0  0  0
    0.2808   -1.7723   -0.4343 C   0  0  0  0  0  0  0  0  0  0  0  0
    0.1025   -0.2539    1.3070 C   0  0  0  0  0  0  0  0  0  0  0  0
   -1.5531   -2.1493    1.2459 C   0  0  0  0  0  0  0  0  0  0  0  0
    1.0436    1.5816   -0.1004 C   0  0  0  0  0  0  0  0  0  0  0  0
   -2.8761   -1.7179    0.6161 C   0  0  0  0  0  0  0  0  0  0  0  0
    2.1629   -0.9901   -1.7341 C   0  0  0  0  0  0  0  0  0  0  0  0
    0.0745   -2.8497   -1.2783 C   0  0  0  0  0  0  0  0  0  0  0  0
   -3.2419   -0.2503    0.8557 C   0  0  0  0  0  0  0  0  0  0  0  0
   -0.1301    1.8742   -0.7966 C   0  0  0  0  0  0  0  0  0  0  0  0
    1.9955    2.5807    0.1086 C   0  0  0  0  0  0  0  0  0  0  0  0
    1.9689   -2.0720   -2.5965 C   0  0  0  0  0  0  0  0  0  0  0  0
    2.7316   -1.0903    1.7367 C   0  0  0  0  0  0  0  0  0  0  0  0
    0.9325   -2.9933   -2.3708 C   0  0  0  0  0  0  0  0  0  0  0  0
   -0.3514    3.1628   -1.2828 C   0  0  0  0  0  0  0  0  0  0  0  0
    1.7743    3.8692   -0.3775 C   0  0  0  0  0  0  0  0  0  0  0  0
    4.0014   -1.0239    2.5583 C   0  0  0  0  0  0  0  0  0  0  0  0
    0.6008    4.1603   -1.0732 C   0  0  0  0  0  0  0  0  0  0  0  0
   -4.4672   -0.1000   -1.2055 C   0  0  0  0  0  0  0  0  0  0  0  0
   -4.8750    1.4858    0.5527 C   0  0  0  0  0  0  0  0  0  0  0  0
  1  5  1  0
  1 18  1  0
  2  8  2  0
  3  7  1  0
  3  8  1  0
  3  9  1  0
  4 14  1  0
  4 24  1  0
  4 25  1  0
  5  6  1  0
  5  8  1  0
  5 10  1  0
  6  7  2  0
  6 12  1  0
  7 13  1  0
  9 11  1  0
 10 15  2  0
 10 16  1  0
 11 14  1  0
 12 17  2  0
 13 19  2  0
 15 20  1  0
 16 21  2  0
 17 19  1  0
 18 22  1  0
 20 23  2  0
 21 23  1  0
M  END
>  <PUBCHEM_COMPOUND_CID>  (1) 
39280

>  <PUBCHEM_CONFORMER_RMSD>  (1) 
0.8

>  <PUBCHEM_CONFORMER_DIVERSEORDER>  (1) 
13
48
18
9
47
6
37
23
27
53
52
34
45
28
21
31
19
17
49
29
20
35
51
5
40
15
33
44
16
8
54
38
39
7
42
12
24
36
30
2
32
43
22
10
46
26
25
1
50
4
14
41
11
3

>  <PUBCHEM_MMFF94_PARTIAL_CHARGES>  (1) 
32
1 -0.56
10 -0.14
12 -0.15
13 -0.15
14 0.27
15 -0.15
16 -0.15
17 -0.15
18 0.28
19 -0.15
2 -0.57
20 -0.15
21 -0.15
23 -0.15
24 0.27
25 0.27
3 -0.48
30 0.15
31 0.15
34 0.15
35 0.15
36 0.15
39 0.15
4 -0.81
40 0.15
41 0.15
45 0.15
5 0.63
6 -0.14
7 0.12
8 0.57
9 0.3

>  <PUBCHEM_EFFECTIVE_ROTOR_COUNT>  (1) 
7.4

>  <PUBCHEM_PHARMACOPHORE_FEATURES>  (1) 
6
1 1 acceptor
1 2 acceptor
1 4 cation
5 3 5 6 7 8 rings
6 10 15 16 20 21 23 rings
6 6 7 12 13 17 19 rings

>  <PUBCHEM_HEAVY_ATOM_COUNT>  (1) 
25

>  <PUBCHEM_ATOM_DEF_STEREO_COUNT>  (1) 
0

>  <PUBCHEM_ATOM_UDEF_STEREO_COUNT>  (1) 
1

>  <PUBCHEM_BOND_DEF_STEREO_COUNT>  (1) 
0

>  <PUBCHEM_BOND_UDEF_STEREO_COUNT>  (1) 
0

>  <PUBCHEM_ISOTOPIC_ATOM_COUNT>  (1) 
0

>  <PUBCHEM_COMPONENT_COUNT>  (1) 
1

>  <PUBCHEM_CACTVS_TAUTO_COUNT>  (1) 
1

>  <PUBCHEM_CONFORMER_ID>  (1) 
000099700000000D

>  <PUBCHEM_MMFF94_ENERGY>  (1) 
70.9683

>  <PUBCHEM_FEATURE_SELFOVERLAP>  (1) 
30.534

>  <PUBCHEM_SHAPE_FINGERPRINT>  (1) 
11221954 11 18045232784670852953
12173636 292 16457700919262006424
12422481 6 17985805069847156426
12539773 59 13149036321317571241
12633257 1 18260543408003001025
12788726 201 17758422689278785670
13134695 92 18113887265155124713
13583140 156 17823692165025676539
14790565 3 17391634759029431276
14863182 85 17489308620061609831
15210252 30 17753923556754805621
15238133 3 17460603515851095265
15420108 30 18199177584871177744
16114785 44 17039999708751622000
17980427 23 18270384101047810569
20600515 1 18336260163383845673
20691752 17 18120954805839981507
21524375 3 17401785501446265401
21860390 5 18411699877033076629
22889148 1 16396674136848331543
23419403 2 17413864336978658454
23598291 2 17834663178210221362
238 59 18270678809293539895
26353 1 17768002790083863583
298252 57 17047420613617759154
3052486 1 17827363180799809901
3380486 77 18187364277091038546
46194498 28 18269291174269745431
5081480 168 17767730180331205557
531348 171 16755534395696268692
57527573 199 17540221295326710325
5939293 188 18335424577644348149
6287921 2 18271821150398326087
81228 2 17979938024140020673
9862522 239 17762620994151467981

>  <PUBCHEM_SHAPE_MULTIPOLES>  (1) 
492.79
6.03
4.57
2.37
8.9
4.42
0.02
-0.16
-2.19
-2.01
2.75
-2
-1.7
0.33

>  <PUBCHEM_SHAPE_SELFOVERLAP>  (1) 
1052.932

>  <PUBCHEM_SHAPE_VOLUME>  (1) 
277.1

>  <PUBCHEM_COORDINATE_TYPE>  (1) 
2
5
10

$$$$
