39286
     RDKit          3D

 21 23  0  0  1  0  0  0  0  0999 V2000
    0.0244    1.6189    1.9603 O   0  0  0  0  0  0  0  0  0  0  0  0
    1.0865   -0.1689    0.8426 N   0  0  0  0  0  0  0  0  0  0  0  0
    4.2063    1.5468   -0.2462 N   0  0  0  0  0  0  0  0  0  0  0  0
   -1.2645   -0.2921    1.1105 C   0  0  0  0  0  0  0  0  0  0  0  0
   -0.7188   -1.4812    0.3665 C   0  0  0  0  0  0  0  0  0  0  0  0
    0.6660   -1.3633    0.2420 C   0  0  0  0  0  0  0  0  0  0  0  0
    0.0035    0.5410    1.3831 C   0  0  0  0  0  0  0  0  0  0  0  0
    2.4594    0.2746    0.8983 C   0  0  0  0  0  0  0  0  0  0  0  0
   -2.2572    0.4943    0.3266 C   0  0  0  0  0  0  0  0  0  0  0  0
    2.8270    1.0853   -0.3357 C   0  0  0  0  0  0  0  0  0  0  0  0
   -1.3860   -2.5846   -0.1374 C   0  0  0  0  0  0  0  0  0  0  0  0
    1.4248   -2.3289   -0.3963 C   0  0  0  0  0  0  0  0  0  0  0  0
   -0.6356   -3.5689   -0.7853 C   0  0  0  0  0  0  0  0  0  0  0  0
    0.7579   -3.4413   -0.9145 C   0  0  0  0  0  0  0  0  0  0  0  0
   -3.6230    0.2520    0.4842 C   0  0  0  0  0  0  0  0  0  0  0  0
   -1.8242    1.4754   -0.5669 C   0  0  0  0  0  0  0  0  0  0  0  0
   -4.5528    0.9884   -0.2497 C   0  0  0  0  0  0  0  0  0  0  0  0
   -2.7542    2.2120   -1.3008 C   0  0  0  0  0  0  0  0  0  0  0  0
    4.5554    2.3598   -1.4129 C   0  0  0  0  0  0  0  0  0  0  0  0
    5.1238    0.4121   -0.1264 C   0  0  0  0  0  0  0  0  0  0  0  0
   -4.1185    1.9684   -1.1421 C   0  0  0  0  0  0  0  0  0  0  0  0
  1  7  2  0
  2  6  1  0
  2  7  1  0
  2  8  1  0
  3 10  1  0
  3 19  1  0
  3 20  1  0
  4  5  1  0
  4  7  1  0
  4  9  1  0
  5  6  2  0
  5 11  1  0
  6 12  1  0
  8 10  1  0
  9 15  2  0
  9 16  1  0
 11 13  2  0
 12 14  2  0
 13 14  1  0
 15 17  1  0
 16 18  2  0
 17 21  2  0
 18 21  1  0
M  END
>  <PUBCHEM_COMPOUND_CID>  (1) 
39286

>  <PUBCHEM_CONFORMER_RMSD>  (1) 
0.6

>  <PUBCHEM_CONFORMER_DIVERSEORDER>  (1) 
4
13
5
6
14
8
7
9
12
2
11
1
10
3

>  <PUBCHEM_MMFF94_PARTIAL_CHARGES>  (1) 
30
1 -0.57
10 0.27
11 -0.15
12 -0.15
13 -0.15
14 -0.15
15 -0.15
16 -0.15
17 -0.15
18 -0.15
19 0.27
2 -0.48
20 0.27
21 -0.15
27 0.15
28 0.15
29 0.15
3 -0.81
30 0.15
31 0.15
32 0.15
39 0.15
4 0.35
40 0.15
41 0.15
5 -0.14
6 0.12
7 0.57
8 0.3
9 -0.14

>  <PUBCHEM_EFFECTIVE_ROTOR_COUNT>  (1) 
4.4

>  <PUBCHEM_PHARMACOPHORE_FEATURES>  (1) 
5
1 1 acceptor
1 3 cation
5 2 4 5 6 7 rings
6 5 6 11 12 13 14 rings
6 9 15 16 17 18 21 rings

>  <PUBCHEM_HEAVY_ATOM_COUNT>  (1) 
21

>  <PUBCHEM_ATOM_DEF_STEREO_COUNT>  (1) 
0

>  <PUBCHEM_ATOM_UDEF_STEREO_COUNT>  (1) 
1

>  <PUBCHEM_BOND_DEF_STEREO_COUNT>  (1) 
0

>  <PUBCHEM_BOND_UDEF_STEREO_COUNT>  (1) 
0

>  <PUBCHEM_ISOTOPIC_ATOM_COUNT>  (1) 
0

>  <PUBCHEM_COMPONENT_COUNT>  (1) 
1

>  <PUBCHEM_CACTVS_TAUTO_COUNT>  (1) 
2

>  <PUBCHEM_CONFORMER_ID>  (1) 
0000997600000004

>  <PUBCHEM_MMFF94_ENERGY>  (1) 
58.6695

>  <PUBCHEM_FEATURE_SELFOVERLAP>  (1) 
25.457

>  <PUBCHEM_SHAPE_FINGERPRINT>  (1) 
10165383 225 18341904004088387313
105312 117 18410293635894171812
10871710 139 17756155840126165356
11370993 70 18410293592765040308
11796584 16 13110961998657688045
12895836 83 18337111284321563436
12895837 130 17826244174949240836
13149001 5 17702092771652288936
133893 2 17982185426049983522
13583140 156 17750245724677474202
13911987 19 18341902912771366760
14713325 29 18189904290743474835
15163728 17 18190481401288545436
15463212 79 18189891110047441080
15475509 35 11455018408595393637
15502722 9 18196087751054014607
16752209 62 18127117787752449338
167882 2 18265897965095445614
16945 1 17984689284678181083
17134986 127 18409449163724680622
17492 54 18189317126338925863
20101258 96 17396157088781410482
20602899 9 18202849863407634754
21524375 3 18334575745961433944
22182313 1 18267325216692129243
22620623 9 17843121660558686190
22907989 373 18194111052237653342
23114952 82 18122059802167172973
23227448 37 18263085568579806572
23419403 2 17759570674171098331
23557571 272 17460344116926788219
23559900 14 18051681149426331539
23566358 2 18131079237520568214
23566358 27 17840323124746581617
238 59 17905012908572902503
26353 1 17046531125600867630
2748010 2 18344148081392989051
2838139 119 17894621548322009964
298252 57 18333447655573973208
3472631 163 17313936408489893349
3729539 64 18124899871188938070
394222 165 18188768344944765138
458136 41 18270971146026361547
46194498 28 17976809892733274685
559249 180 18409728487550711794
58779409 8 18271237343335161615
6287921 2 18118977888270600493
6327066 14 18261387879677315492
81228 2 17619330439801602307
9862522 239 18188193369272824860
9925002 15 17687197790894275111

>  <PUBCHEM_SHAPE_MULTIPOLES>  (1) 
416.34
8
3.77
1.34
4.46
3.45
-0.2
-8.16
2.62
0.42
1.91
-0.02
-0.51
0.18

>  <PUBCHEM_SHAPE_SELFOVERLAP>  (1) 
898.733

>  <PUBCHEM_SHAPE_VOLUME>  (1) 
232.5

>  <PUBCHEM_COORDINATE_TYPE>  (1) 
2
5
10

$$$$
