39290
     RDKit          3D

 24 27  0  0  1  0  0  0  0  0999 V2000
    0.6726    1.3597   -2.1243 O   0  0  0  0  0  0  0  0  0  0  0  0
   -3.5550    0.7339   -0.1193 N   0  0  0  0  0  0  0  0  0  0  0  0
   -0.1492   -0.5123   -0.9440 N   0  0  0  0  0  0  0  0  0  0  0  0
   -4.2729   -0.5486   -0.1203 C   0  0  0  0  0  0  0  0  0  0  0  0
   -4.0684    1.6292    0.9270 C   0  0  0  0  0  0  0  0  0  0  0  0
   -2.1190    0.5161    0.0530 C   0  0  0  0  0  0  0  0  0  0  0  0
   -5.7710   -0.3420   -0.3486 C   0  0  0  0  0  0  0  0  0  0  0  0
   -5.5599    1.9071    0.7326 C   0  0  0  0  0  0  0  0  0  0  0  0
   -6.3629    0.6123    0.6823 C   0  0  0  0  0  0  0  0  0  0  0  0
   -1.5700   -0.3122   -1.1048 C   0  0  0  0  0  0  0  0  0  0  0  0
    2.2021   -0.2509   -1.0747 C   0  0  0  0  0  0  0  0  0  0  0  0
    0.4233   -1.5801   -0.2395 C   0  0  0  0  0  0  0  0  0  0  0  0
    1.8138   -1.4687   -0.2802 C   0  0  0  0  0  0  0  0  0  0  0  0
    0.8340    0.3374   -1.4731 C   0  0  0  0  0  0  0  0  0  0  0  0
    2.9976    0.7378   -0.2949 C   0  0  0  0  0  0  0  0  0  0  0  0
   -0.2049   -2.6207    0.4225 C   0  0  0  0  0  0  0  0  0  0  0  0
    2.6200   -2.4110    0.3349 C   0  0  0  0  0  0  0  0  0  0  0  0
    0.6018   -3.5710    1.0524 C   0  0  0  0  0  0  0  0  0  0  0  0
    2.0027   -3.4679    1.0082 C   0  0  0  0  0  0  0  0  0  0  0  0
    4.3920    0.7216   -0.3609 C   0  0  0  0  0  0  0  0  0  0  0  0
    2.3508    1.6828    0.5033 C   0  0  0  0  0  0  0  0  0  0  0  0
    5.1372    1.6476    0.3692 C   0  0  0  0  0  0  0  0  0  0  0  0
    3.0960    2.6088    1.2332 C   0  0  0  0  0  0  0  0  0  0  0  0
    4.4892    2.5911    1.1661 C   0  0  0  0  0  0  0  0  0  0  0  0
  1 14  2  0
  2  4  1  0
  2  5  1  0
  2  6  1  0
  3 10  1  0
  3 12  1  0
  3 14  1  0
  4  7  1  0
  5  8  1  0
  6 10  1  0
  7  9  1  0
  8  9  1  0
 11 13  1  0
 11 14  1  0
 11 15  1  0
 12 13  2  0
 12 16  1  0
 13 17  1  0
 15 20  2  0
 15 21  1  0
 16 18  2  0
 17 19  2  0
 18 19  1  0
 20 22  1  0
 21 23  2  0
 22 24  2  0
 23 24  1  0
M  END
>  <PUBCHEM_COMPOUND_CID>  (1) 
39290

>  <PUBCHEM_CONFORMER_RMSD>  (1) 
0.8

>  <PUBCHEM_CONFORMER_DIVERSEORDER>  (1) 
1
13
19
5
14
9
20
10
17
7
26
21
16
3
8
12
15
27
18
11
4
25
6
23
24
2
22

>  <PUBCHEM_MMFF94_PARTIAL_CHARGES>  (1) 
30
1 -0.57
10 0.3
11 0.35
12 0.12
13 -0.14
14 0.57
15 -0.14
16 -0.15
17 -0.15
18 -0.15
19 -0.15
2 -0.81
20 -0.15
21 -0.15
22 -0.15
23 -0.15
24 -0.15
3 -0.48
4 0.27
40 0.15
41 0.15
42 0.15
43 0.15
44 0.15
45 0.15
46 0.15
47 0.15
48 0.15
5 0.27
6 0.27

>  <PUBCHEM_EFFECTIVE_ROTOR_COUNT>  (1) 
5.6

>  <PUBCHEM_PHARMACOPHORE_FEATURES>  (1) 
6
1 1 acceptor
1 2 cation
5 3 11 12 13 14 rings
6 12 13 16 17 18 19 rings
6 15 20 21 22 23 24 rings
6 2 4 5 7 8 9 rings

>  <PUBCHEM_HEAVY_ATOM_COUNT>  (1) 
24

>  <PUBCHEM_ATOM_DEF_STEREO_COUNT>  (1) 
0

>  <PUBCHEM_ATOM_UDEF_STEREO_COUNT>  (1) 
1

>  <PUBCHEM_BOND_DEF_STEREO_COUNT>  (1) 
0

>  <PUBCHEM_BOND_UDEF_STEREO_COUNT>  (1) 
0

>  <PUBCHEM_ISOTOPIC_ATOM_COUNT>  (1) 
0

>  <PUBCHEM_COMPONENT_COUNT>  (1) 
1

>  <PUBCHEM_CACTVS_TAUTO_COUNT>  (1) 
2

>  <PUBCHEM_CONFORMER_ID>  (1) 
0000997A00000001

>  <PUBCHEM_MMFF94_ENERGY>  (1) 
52.1683

>  <PUBCHEM_FEATURE_SELFOVERLAP>  (1) 
30.534

>  <PUBCHEM_SHAPE_FINGERPRINT>  (1) 
10165383 225 18333737931587519740
10674148 151 18342739642438662584
11070050 100 18339348743138558792
12107183 9 17546732552274234609
12596602 18 18201723942743315307
12633257 1 18191565636339985680
12788726 201 17131277844676211505
13140716 1 18260821605841290762
13533116 47 18335986355599082099
13726171 33 17131285566769141985
13878862 14 18120071911278481349
14178342 30 18187930650339408279
146900 427 18343028766065935731
14739800 52 18130495384066273281
14787075 74 18128813221696811917
14849402 71 18410013217753676840
14863182 85 17894922805939035518
15142526 21 18269829985657747672
15420108 30 18337662109529755610
15475509 84 17834113043928119328
17913733 40 18334845113441115927
17980427 26 18342442756306774710
20511986 3 18410282594166094135
20567600 254 18338227258336971221
20739085 24 18041000592237089078
20832881 197 18270409278779316742
21033648 29 18266461086736653104
21120745 212 17042897785638978790
21475661 188 18130222782814171384
22224240 67 18335415819984381716
22956985 138 17097756994614431986
23558518 356 17908697676500287612
23559900 14 17968389948493652715
23845131 108 18334573572845846971
268830 7 18200872869230507701
2838139 119 17489299845390942792
3411729 13 18413389817545721956
34797466 226 17346608461112789653
392239 28 18269000958723182291
427121 178 18408323306762125550
4340502 62 18409452509398741467
465052 167 16370727049559515484
469060 322 17751060600490916935
474 4 18338517542302343933
5104073 3 18337119956513993441
56616090 13 17631443634972097320
58807428 26 18187633752446231170
59755656 520 18340200894762562598
633830 44 18200868582410022020
6442390 28 18336546118127639362
653340 110 18191594266302239915
67856867 119 18339075983014663419
6913067 236 17822001043596607477
7288768 16 17910935152909920336
9658208 31 18337404845468003702
9777508 108 18192153908724505386
9999458 23 18411982481528358324

>  <PUBCHEM_SHAPE_MULTIPOLES>  (1) 
478.08
12.08
3.7
1.31
17.75
2.7
-0.31
-9.38
3.15
-3.74
2.07
-0.43
-0.23
-0.17

>  <PUBCHEM_SHAPE_SELFOVERLAP>  (1) 
1035.334

>  <PUBCHEM_SHAPE_VOLUME>  (1) 
263.5

>  <PUBCHEM_COORDINATE_TYPE>  (1) 
2
5
10

$$$$
