39316
     RDKit          3D

 22 25  0  0  0  0  0  0  0  0999 V2000
   -1.7991   -1.7820   -1.1716 O   0  0  0  0  0  0  0  0  0  0  0  0
    2.5529    2.8027    0.2508 O   0  0  0  0  0  0  0  0  0  0  0  0
   -3.4624    0.1609   -0.3603 N   0  0  0  0  0  0  0  0  0  0  0  0
   -3.2302    0.1885    1.0906 C   0  0  0  0  0  0  0  0  0  0  0  0
   -4.8224    0.6103   -0.6894 C   0  0  0  0  0  0  0  0  0  0  0  0
   -4.2293   -0.7057    1.8262 C   0  0  0  0  0  0  0  0  0  0  0  0
   -5.8736   -0.2704   -0.0121 C   0  0  0  0  0  0  0  0  0  0  0  0
   -5.6668   -0.3188    1.4975 C   0  0  0  0  0  0  0  0  0  0  0  0
   -2.4703    0.9830   -1.0528 C   0  0  0  0  0  0  0  0  0  0  0  0
   -1.0871    0.4817   -0.7906 C   0  0  0  0  0  0  0  0  0  0  0  0
    1.1767    0.8902   -0.2431 C   0  0  0  0  0  0  0  0  0  0  0  0
    1.4800   -0.4806   -0.3086 C   0  0  0  0  0  0  0  0  0  0  0  0
   -0.0847    1.3994   -0.4765 C   0  0  0  0  0  0  0  0  0  0  0  0
   -0.8073   -0.8965   -0.8617 C   0  0  0  0  0  0  0  0  0  0  0  0
    2.8834   -0.6710   -0.0124 C   0  0  0  0  0  0  0  0  0  0  0  0
    0.4821   -1.3870   -0.6203 C   0  0  0  0  0  0  0  0  0  0  0  0
    3.4745    0.5787    0.2419 C   0  0  0  0  0  0  0  0  0  0  0  0
    2.4214    1.6071    0.1061 C   0  0  0  0  0  0  0  0  0  0  0  0
    3.6557   -1.8174    0.0486 C   0  0  0  0  0  0  0  0  0  0  0  0
    4.8093    0.7357    0.5560 C   0  0  0  0  0  0  0  0  0  0  0  0
    5.0136   -1.6859    0.3654 C   0  0  0  0  0  0  0  0  0  0  0  0
    5.5836   -0.4230    0.6163 C   0  0  0  0  0  0  0  0  0  0  0  0
  1 14  1  0
  2 18  2  0
  3  4  1  0
  3  5  1  0
  3  9  1  0
  4  6  1  0
  5  7  1  0
  6  8  1  0
  7  8  1  0
  9 10  1  0
 10 13  2  0
 10 14  1  0
 11 12  2  0
 11 13  1  0
 11 18  1  0
 12 15  1  0
 12 16  1  0
 14 16  2  0
 15 17  2  0
 15 19  1  0
 17 18  1  0
 17 20  1  0
 19 21  2  0
 20 22  2  0
 21 22  1  0
M  END
>  <PUBCHEM_COMPOUND_CID>  (1) 
39316

>  <PUBCHEM_CONFORMER_RMSD>  (1) 
0.6

>  <PUBCHEM_CONFORMER_DIVERSEORDER>  (1) 
4
6
1
5
8
2
7
3

>  <PUBCHEM_MMFF94_PARTIAL_CHARGES>  (1) 
24
1 -0.53
10 -0.14
11 0.09
13 -0.15
14 0.08
16 -0.15
17 0.09
18 0.4
19 -0.15
2 -0.57
20 -0.15
21 -0.15
22 -0.15
3 -0.81
35 0.15
36 0.15
37 0.15
38 0.15
39 0.15
4 0.27
40 0.45
41 0.15
5 0.27
9 0.41

>  <PUBCHEM_EFFECTIVE_ROTOR_COUNT>  (1) 
3.2

>  <PUBCHEM_PHARMACOPHORE_FEATURES>  (1) 
7
1 1 donor
1 2 acceptor
1 3 cation
5 11 12 15 17 18 rings
6 10 11 12 13 14 16 rings
6 15 17 19 20 21 22 rings
6 3 4 5 6 7 8 rings

>  <PUBCHEM_HEAVY_ATOM_COUNT>  (1) 
22

>  <PUBCHEM_ATOM_DEF_STEREO_COUNT>  (1) 
0

>  <PUBCHEM_ATOM_UDEF_STEREO_COUNT>  (1) 
0

>  <PUBCHEM_BOND_DEF_STEREO_COUNT>  (1) 
0

>  <PUBCHEM_BOND_UDEF_STEREO_COUNT>  (1) 
0

>  <PUBCHEM_ISOTOPIC_ATOM_COUNT>  (1) 
0

>  <PUBCHEM_COMPONENT_COUNT>  (1) 
1

>  <PUBCHEM_CACTVS_TAUTO_COUNT>  (1) 
5

>  <PUBCHEM_CONFORMER_ID>  (1) 
0000999400000004

>  <PUBCHEM_MMFF94_ENERGY>  (1) 
63.6604

>  <PUBCHEM_FEATURE_SELFOVERLAP>  (1) 
35.691

>  <PUBCHEM_SHAPE_FINGERPRINT>  (1) 
10 15 18260539070302732496
10354089 29 18272653454572032848
10688039 33 18260547788422003796
11045977 3 18113338622069893987
11545043 162 17603868897191683769
11578080 2 17129563903274028218
11796584 16 16877944932064900923
12236239 1 17418089923356861765
12251169 10 18342736325547185612
12507560 40 18260266356526399589
12596602 18 17703789240810929251
12616971 3 18131350826088646533
12633257 1 18130788979361396079
12916748 109 15051738599039016299
13140716 1 18270395121970827966
13402501 40 17967256385974939859
13540713 5 18056466490529018182
13583140 156 18114172017508315463
13675066 3 18259700107731860500
14341114 176 18408889529069208840
14341114 328 17346889948736706985
14386348 63 17822012003825697219
14739800 52 16844435210748689104
14790565 3 17615410694193139468
15183329 4 12757140308676557555
15295992 7 17131542955020311346
15475509 35 17168130231506625120
15527383 91 18408323302277319104
15788980 27 18260828198383208399
17349148 13 17703785920695337349
17959699 21 11024114234911873227
1813 80 17313104129520981100
18222031 100 15430038763903158663
18769570 83 15410897340189780034
18785283 64 18116154544595837012
19141452 34 18343014518984649318
19489759 90 17240761766577564837
200 152 18271801311812685701
20028762 73 18201433705607053951
20261772 1 18413387644055068838
21033648 144 17916003815303274724
21033648 29 18337090311948732317
21033650 10 15266243434529127202
21267235 1 18339642236225281022
21623969 137 18335421253434632762
21637258 2 16298380266904854762
21682296 61 18197220252299886630
21792961 116 18187922817199853150
22182313 1 18126565622202919900
23184049 59 18413392033453460732
23402539 116 15195558001233466717
23559900 14 17022907882344970957
23569943 247 17344079463625336742
23622692 88 18202566185318325620
239999 70 17748547052521987128
25147074 1 18058160807502874308
26918003 58 18187365428643381185
2838139 119 13614237027785649715
2916195 48 13182733732609751235
29717793 49 12685085956726683666
335352 9 18341886395017567774
345986 75 18057595474248987306
34797466 226 16226058773112792886
350125 39 18410853252758292628
4325135 7 16153999036197160622
465052 167 18334861606200168670
5104073 3 18199735007639318690
542803 24 16559029393778729782
5718773 13 17678186082642032563
5895379 119 14404640838742450728
59755656 215 17095239207612878451
602551 16 16443068330366169930
7495541 125 18040157327122174028
8863177 126 18113625603089787602

>  <PUBCHEM_SHAPE_MULTIPOLES>  (1) 
436.03
13.12
1.84
1.19
5.84
0.42
-0.26
-2.64
-4.69
-1.85
0.08
1.5
-0.21
0.68

>  <PUBCHEM_SHAPE_SELFOVERLAP>  (1) 
969.18

>  <PUBCHEM_SHAPE_VOLUME>  (1) 
234

>  <PUBCHEM_COORDINATE_TYPE>  (1) 
2
5
10

$$$$
