39310
     RDKit          3D

 23 26  0  0  0  0  0  0  0  0999 V2000
   -1.0724   -3.0580    0.3980 O   0  0  0  0  0  0  0  0  0  0  0  0
    1.6114    2.6210   -1.1935 O   0  0  0  0  0  0  0  0  0  0  0  0
   -3.2766    0.2657   -0.3651 N   0  0  0  0  0  0  0  0  0  0  0  0
   -3.1198    0.4768    1.0809 C   0  0  0  0  0  0  0  0  0  0  0  0
   -4.6953    0.1777   -0.7383 C   0  0  0  0  0  0  0  0  0  0  0  0
   -3.8212    1.7595    1.5306 C   0  0  0  0  0  0  0  0  0  0  0  0
   -5.4483    1.4504   -0.3480 C   0  0  0  0  0  0  0  0  0  0  0  0
   -5.2942    1.7525    1.1383 C   0  0  0  0  0  0  0  0  0  0  0  0
   -2.5612   -0.9384   -0.7868 C   0  0  0  0  0  0  0  0  0  0  0  0
   -1.1019   -0.8232   -0.4864 C   0  0  0  0  0  0  0  0  0  0  0  0
    0.9055    0.4266   -0.4992 C   0  0  0  0  0  0  0  0  0  0  0  0
   -0.4411    0.3656   -0.7957 C   0  0  0  0  0  0  0  0  0  0  0  0
    1.6157   -0.6358    0.0863 C   0  0  0  0  0  0  0  0  0  0  0  0
   -0.4116   -1.9011    0.1007 C   0  0  0  0  0  0  0  0  0  0  0  0
    2.9976   -0.2440    0.2607 C   0  0  0  0  0  0  0  0  0  0  0  0
    0.9558   -1.8131    0.3912 C   0  0  0  0  0  0  0  0  0  0  0  0
    3.1680    1.0683   -0.2135 C   0  0  0  0  0  0  0  0  0  0  0  0
    1.8570    1.5381   -0.7091 C   0  0  0  0  0  0  0  0  0  0  0  0
    4.0804   -0.9269    0.7854 C   0  0  0  0  0  0  0  0  0  0  0  0
    4.3775    1.7325   -0.1871 C   0  0  0  0  0  0  0  0  0  0  0  0
    5.3196   -0.2756    0.8239 C   0  0  0  0  0  0  0  0  0  0  0  0
    5.4660    1.0397    0.3429 C   0  0  0  0  0  0  0  0  0  0  0  0
   -1.1107   -4.0582   -0.6162 C   0  0  0  0  0  0  0  0  0  0  0  0
  1 14  1  0
  1 23  1  0
  2 18  2  0
  3  4  1  0
  3  5  1  0
  3  9  1  0
  4  6  1  0
  5  7  1  0
  6  8  1  0
  7  8  1  0
  9 10  1  0
 10 12  2  0
 10 14  1  0
 11 12  1  0
 11 13  2  0
 11 18  1  0
 13 15  1  0
 13 16  1  0
 14 16  2  0
 15 17  2  0
 15 19  1  0
 17 18  1  0
 17 20  1  0
 19 21  2  0
 20 22  2  0
 21 22  1  0
M  END
>  <PUBCHEM_COMPOUND_CID>  (1) 
39310

>  <PUBCHEM_CONFORMER_RMSD>  (1) 
0.8

>  <PUBCHEM_CONFORMER_DIVERSEORDER>  (1) 
1
5
4
3
2
6

>  <PUBCHEM_MMFF94_PARTIAL_CHARGES>  (1) 
24
1 -0.36
10 -0.14
11 0.09
12 -0.15
14 0.08
16 -0.15
17 0.09
18 0.4
19 -0.15
2 -0.57
20 -0.15
21 -0.15
22 -0.15
23 0.28
3 -0.81
36 0.15
37 0.15
38 0.15
39 0.15
4 0.27
40 0.15
41 0.15
5 0.27
9 0.41

>  <PUBCHEM_EFFECTIVE_ROTOR_COUNT>  (1) 
4.2

>  <PUBCHEM_PHARMACOPHORE_FEATURES>  (1) 
7
1 1 acceptor
1 2 acceptor
1 3 cation
5 11 13 15 17 18 rings
6 10 11 12 13 14 16 rings
6 15 17 19 20 21 22 rings
6 3 4 5 6 7 8 rings

>  <PUBCHEM_HEAVY_ATOM_COUNT>  (1) 
23

>  <PUBCHEM_ATOM_DEF_STEREO_COUNT>  (1) 
0

>  <PUBCHEM_ATOM_UDEF_STEREO_COUNT>  (1) 
0

>  <PUBCHEM_BOND_DEF_STEREO_COUNT>  (1) 
0

>  <PUBCHEM_BOND_UDEF_STEREO_COUNT>  (1) 
0

>  <PUBCHEM_ISOTOPIC_ATOM_COUNT>  (1) 
0

>  <PUBCHEM_COMPONENT_COUNT>  (1) 
1

>  <PUBCHEM_CACTVS_TAUTO_COUNT>  (1) 
1

>  <PUBCHEM_CONFORMER_ID>  (1) 
0000998E00000001

>  <PUBCHEM_MMFF94_ENERGY>  (1) 
75.8896

>  <PUBCHEM_FEATURE_SELFOVERLAP>  (1) 
35.691

>  <PUBCHEM_SHAPE_FINGERPRINT>  (1) 
10042902 136 12830073134775125737
10411042 1 17472976203523094459
10493431 412 18409729564516370946
10906281 52 18041848432620925056
11089746 13 18060412534766741456
11578080 2 17771334568204109616
11640471 11 17916594111982869489
12107183 9 18337383847604898490
12236239 1 18272364265480741109
12507557 5 18260832600983480913
12633257 1 18334572464654042068
12788726 201 18054496170030228575
13140716 1 18188490310521466882
13540713 5 17970909097294484718
13583140 156 17458344177984469675
14466204 15 18337668594898665545
14739800 52 17631711804213725578
14790565 3 18408324376040690660
15209294 21 18343862203778913496
15475509 8 18269294386868333876
19141452 34 18336258024933399358
20157964 124 18193555572372212517
204376 136 18410294692530044187
20739085 24 18118413842910107438
20775438 99 15536105678861480343
21033648 144 18265318689781519708
21033648 29 18265593464314180248
21033650 10 17345218681998377256
21298829 104 18269554932528244793
21421861 104 17823119169845116930
221357 26 10807928229237090737
22182313 1 17896872149950108878
22950370 63 8502368940835622665
23184049 59 18187366527870107364
23402539 116 18201710778009261293
23558518 356 17754739656259354254
23559900 14 18273219729463209132
23569917 315 18412544301848151119
23598288 3 18055356004843517854
25147074 1 17970914585909488558
2838139 119 17489862713613183977
335352 9 18335696135963552950
34934 24 18261102020155588786
350125 39 18191024710562093995
4098825 35 13901642783607742113
474 4 18339080393951311987
5104073 3 18115577296948923904
59755656 520 18412542106702202543
6328613 192 18339085990558007876
633830 44 18129384817546131039
7226269 152 18131634482534613136
7832392 63 18263076772892810094
9981440 41 18340214007809342475

>  <PUBCHEM_SHAPE_MULTIPOLES>  (1) 
456.61
11.65
3.06
1.1
1.48
2.98
0.15
-7.74
2.7
1.21
-0.25
0.63
-0.36
-1.5

>  <PUBCHEM_SHAPE_SELFOVERLAP>  (1) 
1006.474

>  <PUBCHEM_SHAPE_VOLUME>  (1) 
247.8

>  <PUBCHEM_COORDINATE_TYPE>  (1) 
2
5
10

$$$$
