39340
     RDKit          3D

 21 22  0  0  1  0  0  0  0  0999 V2000
    1.8296   -2.8438   -1.5970 O   0  0  0  0  0  0  0  0  0  0  0  0
    2.5998    0.4659   -0.0719 N   0  0  0  0  0  0  0  0  0  0  0  0
   -1.9787   -0.3643   -0.7644 C   0  0  0  0  0  0  0  0  0  0  0  0
   -3.0076    0.4505   -1.5087 C   0  0  0  0  0  0  0  0  0  0  0  0
   -3.4297    1.7135   -0.7587 C   0  0  0  0  0  0  0  0  0  0  0  0
   -2.2635   -0.9620    0.4774 C   0  0  0  0  0  0  0  0  0  0  0  0
   -4.4566    1.4640    0.3443 C   0  0  0  0  0  0  0  0  0  0  0  0
   -3.6140   -0.8217    1.1353 C   0  0  0  0  0  0  0  0  0  0  0  0
   -3.9507    0.6203    1.5130 C   0  0  0  0  0  0  0  0  0  0  0  0
    1.6202   -1.4564   -1.3020 C   0  0  0  0  0  0  0  0  0  0  0  0
    0.2742   -1.2878   -0.6822 C   0  0  0  0  0  0  0  0  0  0  0  0
    2.7526   -0.9532   -0.3847 C   0  0  0  0  0  0  0  0  0  0  0  0
   -0.7047   -0.5378   -1.3326 C   0  0  0  0  0  0  0  0  0  0  0  0
   -1.2672   -1.7178    1.1191 C   0  0  0  0  0  0  0  0  0  0  0  0
    2.6503    1.2682   -1.2941 C   0  0  0  0  0  0  0  0  0  0  0  0
    3.6361    0.8986    0.8655 C   0  0  0  0  0  0  0  0  0  0  0  0
   -0.0072   -1.8781    0.5441 C   0  0  0  0  0  0  0  0  0  0  0  0
    2.4270    2.7431   -0.9693 C   0  0  0  0  0  0  0  0  0  0  0  0
    3.5814    0.0599    2.1399 C   0  0  0  0  0  0  0  0  0  0  0  0
    1.0823    2.9640   -0.2938 C   0  0  0  0  0  0  0  0  0  0  0  0
    2.2264    0.1750    2.8209 C   0  0  0  0  0  0  0  0  0  0  0  0
  1 10  1  0
  2 12  1  0
  2 15  1  0
  2 16  1  0
  3  4  1  0
  3  6  2  0
  3 13  1  0
  4  5  1  0
  5  7  1  0
  6  8  1  0
  6 14  1  0
  7  9  1  0
  8  9  1  0
 10 11  1  0
 10 12  1  0
 11 13  2  0
 11 17  1  0
 14 17  2  0
 15 18  1  0
 16 19  1  0
 18 20  1  0
 19 21  1  0
M  END
>  <PUBCHEM_COMPOUND_CID>  (1) 
39340

>  <PUBCHEM_CONFORMER_RMSD>  (1) 
0.8

>  <PUBCHEM_CONFORMER_DIVERSEORDER>  (1) 
7
57
115
111
126
38
145
90
39
116
136
101
69
112
25
70
146
109
24
47
120
93
140
89
4
55
121
133
148
125
106
36
134
138
130
45
43
30
122
73
77
65
35
12
32
100
62
11
147
46
91
131
103
105
63
21
85
137
1
8
149
118
97
117
124
27
139
53
34
31
82
87
13
129
94
143
142
67
22
99
50
6
75
49
54
42
151
17
76
128
28
72
123
132
37
81
48
52
141
135
61
102
58
60
144
66
19
107
74
114
71
127
51
119
56
33
150
68
40
92
98
104
20
5
108
9
86
64
16
83
2
29
84
15
95
10
23
96
78
44
18
59
14
152
113
80
79
110
88
41
26
3

>  <PUBCHEM_MMFF94_PARTIAL_CHARGES>  (1) 
18
1 -0.68
10 0.42
11 -0.14
12 0.27
13 -0.15
14 -0.15
15 0.27
16 0.27
17 -0.15
2 -0.81
3 -0.14
35 0.15
36 0.15
4 0.14
41 0.15
46 0.4
6 -0.14
8 0.14

>  <PUBCHEM_EFFECTIVE_ROTOR_COUNT>  (1) 
8

>  <PUBCHEM_PHARMACOPHORE_FEATURES>  (1) 
7
1 1 acceptor
1 1 donor
1 2 cation
1 20 hydrophobe
1 21 hydrophobe
6 3 6 11 13 14 17 rings
7 3 4 5 6 7 8 9 rings

>  <PUBCHEM_HEAVY_ATOM_COUNT>  (1) 
21

>  <PUBCHEM_ATOM_DEF_STEREO_COUNT>  (1) 
0

>  <PUBCHEM_ATOM_UDEF_STEREO_COUNT>  (1) 
1

>  <PUBCHEM_BOND_DEF_STEREO_COUNT>  (1) 
0

>  <PUBCHEM_BOND_UDEF_STEREO_COUNT>  (1) 
0

>  <PUBCHEM_ISOTOPIC_ATOM_COUNT>  (1) 
0

>  <PUBCHEM_COMPONENT_COUNT>  (1) 
1

>  <PUBCHEM_CACTVS_TAUTO_COUNT>  (1) 
1

>  <PUBCHEM_CONFORMER_ID>  (1) 
000099AC00000007

>  <PUBCHEM_MMFF94_ENERGY>  (1) 
41.4104

>  <PUBCHEM_FEATURE_SELFOVERLAP>  (1) 
35.528

>  <PUBCHEM_SHAPE_FINGERPRINT>  (1) 
10366900 7 17023191590261356075
11640471 11 17274820268038348455
12403259 327 17603578621431149713
12633257 1 18113896078443795033
12670546 177 14405177378978949873
12892183 10 16805324430806965817
128993 33 17907587178473171312
13134695 92 17487903293924909846
13533116 47 16588298402417156867
13583140 156 16878214351026154805
14251764 30 14708323601214041418
14289901 80 18341908427952447627
14866123 147 15667035910001533531
14957384 54 17967805050930158409
17093844 170 18049998896657316264
18186145 218 18341061709314438375
18219364 16 18113896044479884181
18981168 100 18202284727458291003
21475661 188 18263082133007247069
21731516 1 11026060370587780918
21864079 5 18267027330513395101
23419403 2 16837374950434507170
23503958 8 15502369006939520729
23557571 272 16772375430381983111
23559900 14 18337683996698576015
2838139 119 15338542964707920032
3052486 1 17755861914287189564
312425 83 14045480919916768617
474 4 18412826880519459165
49207404 50 18263380212121178427
5939293 188 18335135410339265964
7097593 13 17676752245768077322
8509985 295 17604693466113589805
90316 7 16081091459409668247

>  <PUBCHEM_SHAPE_MULTIPOLES>  (1) 
421.32
7.61
2.74
2.11
3.81
1.15
-0.97
2.99
-2.69
-1.02
0.86
-1.22
-0.49
0.36

>  <PUBCHEM_SHAPE_SELFOVERLAP>  (1) 
852.477

>  <PUBCHEM_SHAPE_VOLUME>  (1) 
245.5

>  <PUBCHEM_COORDINATE_TYPE>  (1) 
2
5
10

$$$$
