39354
     RDKit          3D

 12 13  0  0  0  0  0  0  0  0999 V2000
   -1.4201    2.1255   -0.0589 O   0  0  0  0  0  0  0  0  0  0  0  0
   -3.3820    0.1911   -0.0125 O   0  0  0  0  0  0  0  0  0  0  0  0
    2.6801    1.0141    0.3576 N   0  0  0  0  0  0  0  0  0  0  0  0
    2.0746   -1.3454    0.0542 C   0  0  0  0  0  0  0  0  0  0  0  0
    0.6266   -0.9282    0.0112 C   0  0  0  0  0  0  0  0  0  0  0  0
    0.2837    0.4356    0.0008 C   0  0  0  0  0  0  0  0  0  0  0  0
    3.0241   -0.2170   -0.3527 C   0  0  0  0  0  0  0  0  0  0  0  0
    1.3572    1.4945   -0.0581 C   0  0  0  0  0  0  0  0  0  0  0  0
   -1.0672    0.8075   -0.0174 C   0  0  0  0  0  0  0  0  0  0  0  0
   -0.3844   -1.8972    0.0406 C   0  0  0  0  0  0  0  0  0  0  0  0
   -2.0668   -0.1651    0.0019 C   0  0  0  0  0  0  0  0  0  0  0  0
   -1.7258   -1.5155    0.0333 C   0  0  0  0  0  0  0  0  0  0  0  0
  1  9  1  0
  2 11  1  0
  3  7  1  0
  3  8  1  0
  4  5  1  0
  4  7  1  0
  5  6  2  0
  5 10  1  0
  6  8  1  0
  6  9  1  0
  9 11  2  0
 10 12  2  0
 11 12  1  0
M  END
>  <PUBCHEM_COMPOUND_CID>  (1) 
39354

>  <PUBCHEM_CONFORMER_RMSD>  (1) 
0.4

>  <PUBCHEM_CONFORMER_DIVERSEORDER>  (1) 
1

>  <PUBCHEM_MMFF94_PARTIAL_CHARGES>  (1) 
17
1 -0.53
10 -0.15
11 0.08
12 -0.15
19 0.36
2 -0.53
20 0.15
21 0.15
22 0.45
23 0.45
3 -0.9
4 0.14
5 -0.14
6 -0.14
7 0.27
8 0.41
9 0.08

>  <PUBCHEM_EFFECTIVE_ROTOR_COUNT>  (1) 
0.8

>  <PUBCHEM_PHARMACOPHORE_FEATURES>  (1) 
6
1 1 donor
1 2 donor
1 3 cation
1 3 donor
6 3 4 5 6 7 8 rings
6 5 6 9 10 11 12 rings

>  <PUBCHEM_HEAVY_ATOM_COUNT>  (1) 
12

>  <PUBCHEM_ATOM_DEF_STEREO_COUNT>  (1) 
0

>  <PUBCHEM_ATOM_UDEF_STEREO_COUNT>  (1) 
0

>  <PUBCHEM_BOND_DEF_STEREO_COUNT>  (1) 
0

>  <PUBCHEM_BOND_UDEF_STEREO_COUNT>  (1) 
0

>  <PUBCHEM_ISOTOPIC_ATOM_COUNT>  (1) 
0

>  <PUBCHEM_COMPONENT_COUNT>  (1) 
1

>  <PUBCHEM_CACTVS_TAUTO_COUNT>  (1) 
18

>  <PUBCHEM_CONFORMER_ID>  (1) 
000099BA00000001

>  <PUBCHEM_MMFF94_ENERGY>  (1) 
26.7837

>  <PUBCHEM_FEATURE_SELFOVERLAP>  (1) 
30.473

>  <PUBCHEM_SHAPE_FINGERPRINT>  (1) 
10967382 1 18410575084678929167
11206711 2 18337391526431066405
12032990 46 18337399347820024883
12524768 44 18412548729562826278
12897270 3 18410856576935781358
13380535 76 18411415133079980782
13897977 150 18340202011285130497
14325111 11 18411138069023782825
15775835 57 18410300215525443564
16945 1 18410292514580626986
17844478 74 18114756992032801715
193761 8 17617659856368312143
19973954 147 18410858776117214420
20201158 50 18342459240074757974
20871998 184 18128823121375299175
21040471 1 18337953389952803726
21501502 16 18266178331463762904
2334 1 17977948217262819206
23402655 69 18195509425940990181
23463225 33 18335135359036684266
23552423 10 18189335843379224358
23559900 14 18054794975938255606
2748010 2 18122626316637501247
369184 2 18342175595907311258
5084963 1 18130505245200278146
528886 8 18411414042131660659
53812653 166 18342172301983841664
66348 1 18410010996685787958

>  <PUBCHEM_SHAPE_MULTIPOLES>  (1) 
230.23
4.11
1.99
0.61
0.2
0.09
-0.01
0.26
-0.08
-0.18
0.02
0.08
-0.02
0.09

>  <PUBCHEM_SHAPE_SELFOVERLAP>  (1) 
493.545

>  <PUBCHEM_SHAPE_VOLUME>  (1) 
126

>  <PUBCHEM_COORDINATE_TYPE>  (1) 
2
5
10

$$$$
