3937
     RDKit          3D

 29 30  0  0  1  0  0  0  0  0999 V2000
    1.0405   -1.2700    1.4986 O   0  0  0  0  0  0  0  0  0  0  0  0
    3.2835   -4.3943    1.6874 O   0  0  0  0  0  0  0  0  0  0  0  0
    4.4434   -2.4665    1.3209 O   0  0  0  0  0  0  0  0  0  0  0  0
   -1.1130    0.7266   -2.9098 O   0  0  0  0  0  0  0  0  0  0  0  0
   -0.7351    2.5733   -1.6506 O   0  0  0  0  0  0  0  0  0  0  0  0
    2.4299   -1.6271   -0.3177 N   0  0  0  0  0  0  0  0  0  0  0  0
    0.0425    0.9262    0.4172 N   0  0  0  0  0  0  0  0  0  0  0  0
    3.9606    6.2530    1.1692 N   0  0  0  0  0  0  0  0  0  0  0  0
    2.5960   -3.0612   -0.1209 C   0  0  0  0  0  0  0  0  0  0  0  0
    3.1847   -3.5665   -1.4331 C   0  0  0  0  0  0  0  0  0  0  0  0
    3.1085   -1.1798   -1.5314 C   0  0  0  0  0  0  0  0  0  0  0  0
    3.9630   -2.3632   -1.9596 C   0  0  0  0  0  0  0  0  0  0  0  0
    1.4040    0.5689    0.0305 C   0  0  0  0  0  0  0  0  0  0  0  0
    1.5969   -0.8576    0.4795 C   0  0  0  0  0  0  0  0  0  0  0  0
    2.4227    1.5070    0.6859 C   0  0  0  0  0  0  0  0  0  0  0  0
   -0.9208    0.4118   -0.5451 C   0  0  0  0  0  0  0  0  0  0  0  0
    2.2266    2.9644    0.2493 C   0  0  0  0  0  0  0  0  0  0  0  0
    3.5479   -3.2429    1.0228 C   0  0  0  0  0  0  0  0  0  0  0  0
   -2.3073    0.3497    0.1108 C   0  0  0  0  0  0  0  0  0  0  0  0
    3.2146    3.9341    0.9067 C   0  0  0  0  0  0  0  0  0  0  0  0
   -3.4178   -0.2003   -0.7981 C   0  0  0  0  0  0  0  0  0  0  0  0
   -0.9166    1.3644   -1.7277 C   0  0  0  0  0  0  0  0  0  0  0  0
    2.9995    5.3892    0.4916 C   0  0  0  0  0  0  0  0  0  0  0  0
   -4.7644   -0.3334   -0.1304 C   0  0  0  0  0  0  0  0  0  0  0  0
   -5.1070   -1.5200    0.5180 C   0  0  0  0  0  0  0  0  0  0  0  0
   -5.6665    0.7301   -0.1610 C   0  0  0  0  0  0  0  0  0  0  0  0
   -6.3517   -1.6431    1.1355 C   0  0  0  0  0  0  0  0  0  0  0  0
   -6.9111    0.6069    0.4566 C   0  0  0  0  0  0  0  0  0  0  0  0
   -7.2537   -0.5798    1.1049 C   0  0  0  0  0  0  0  0  0  0  0  0
  1 14  2  0
  2 18  1  0
  3 18  2  0
  4 22  1  0
  5 22  2  0
  6  9  1  0
  6 11  1  0
  6 14  1  0
  7 13  1  0
  7 16  1  0
  8 23  1  0
  9 10  1  0
  9 18  1  0
 10 12  1  0
 11 12  1  0
 13 14  1  0
 13 15  1  0
 15 17  1  0
 16 19  1  0
 16 22  1  0
 17 20  1  0
 19 21  1  0
 20 23  1  0
 21 24  1  0
 24 25  2  0
 24 26  1  0
 25 27  1  0
 26 28  2  0
 27 29  2  0
 28 29  1  0
M  END
>  <PUBCHEM_COMPOUND_CID>  (1) 
3937

>  <PUBCHEM_CONFORMER_RMSD>  (1) 
1.2

>  <PUBCHEM_CONFORMER_DIVERSEORDER>  (1) 
1
112
150
89
99
154
15
127
109
6
171
168
45
75
174
69
124
31
23
38
143
9
166
71
80
139
39
72
20
135
116
172
81
170
49
159
136
62
17
134
102
156
160
7
131
173
70
123
157
86
13
111
24
137
169
43
158
91
97
47
151
30
83
108
33
146
121
101
167
51
175
54
152
142
84
10
16
113
29
36
165
73
74
42
25
93
50
68
95
32
94
41
115
141
55
162
66
76
87
114
140
125
88
132
61
92
63
34
67
79
2
105
164
107
128
85
64
144
48
153
60
56
3
44
82
58
149
103
120
138
19
77
52
129
4
161
148
118
59
18
5
40
27
90
46
122
12
106
100
57
53
104
26
117
37
145
96
110
163
8
133
65
126
78
98
35
147
119
14
28
155
11
130
21
22

>  <PUBCHEM_MMFF94_PARTIAL_CHARGES>  (1) 
33
1 -0.57
11 0.3
13 0.33
14 0.57
16 0.33
18 0.66
2 -0.65
21 0.14
22 0.66
23 0.27
24 -0.14
25 -0.15
26 -0.15
27 -0.15
28 -0.15
29 -0.15
3 -0.57
4 -0.65
40 0.36
5 -0.57
52 0.5
53 0.36
54 0.36
55 0.15
56 0.15
57 0.5
58 0.15
59 0.15
6 -0.66
60 0.15
7 -0.9
8 -0.99
9 0.36

>  <PUBCHEM_EFFECTIVE_ROTOR_COUNT>  (1) 
14

>  <PUBCHEM_PHARMACOPHORE_FEATURES>  (1) 
13
1 1 acceptor
1 2 acceptor
1 3 acceptor
1 4 acceptor
1 5 acceptor
1 7 cation
1 7 donor
1 8 cation
1 8 donor
3 2 3 18 anion
3 4 5 22 anion
5 6 9 10 11 12 rings
6 24 25 26 27 28 29 rings

>  <PUBCHEM_HEAVY_ATOM_COUNT>  (1) 
29

>  <PUBCHEM_ATOM_DEF_STEREO_COUNT>  (1) 
0

>  <PUBCHEM_ATOM_UDEF_STEREO_COUNT>  (1) 
3

>  <PUBCHEM_BOND_DEF_STEREO_COUNT>  (1) 
0

>  <PUBCHEM_BOND_UDEF_STEREO_COUNT>  (1) 
0

>  <PUBCHEM_ISOTOPIC_ATOM_COUNT>  (1) 
0

>  <PUBCHEM_COMPONENT_COUNT>  (1) 
1

>  <PUBCHEM_CACTVS_TAUTO_COUNT>  (1) 
1

>  <PUBCHEM_CONFORMER_ID>  (1) 
00000F6100000001

>  <PUBCHEM_MMFF94_ENERGY>  (1) 
48.8707

>  <PUBCHEM_FEATURE_SELFOVERLAP>  (1) 
66.087

>  <PUBCHEM_SHAPE_FINGERPRINT>  (1) 
10721379 63 18270976707914278376
12107183 9 18124884461115142833
12596602 18 15194985121617071831
12633257 1 17846492609171165951
12788726 201 17617114507718455672
13533116 47 18411992368885432233
13540713 4 17969202509267508501
13757389 114 17327466225002304116
13955234 65 18410009970078055720
14347424 109 18411141325648327761
14565420 104 18197213874062351776
19319366 153 17986671673867455961
1979834 28 18116152349667134133
21049683 271 18333737901507034828
21365058 113 18058188140806608502
22182313 1 17822836642253226661
22950370 63 17968105162339886527
23559900 14 18412262805627542985
249999 5 18340488975156517480
3004659 81 17895768278709825231
3178227 256 18338792420905711544
3411729 13 18270401718930019697
3421961 26 18335139782715712667
4058900 60 18124604329619676984
5104073 3 18340217341041288417
5219985 13 17907014332873369904
58260988 587 18267029525220591009
621550 34 18261946465901694237
6697151 62 18195222457168045861
9841814 1 18342454803363095578

>  <PUBCHEM_SHAPE_MULTIPOLES>  (1) 
552.52
14.36
6.61
1.78
33.17
8.35
0.86
-3.59
-4.68
-17.35
-2.57
-1
-0.64
2.12

>  <PUBCHEM_SHAPE_SELFOVERLAP>  (1) 
1129.028

>  <PUBCHEM_SHAPE_VOLUME>  (1) 
318.9

>  <PUBCHEM_COORDINATE_TYPE>  (1) 
2
5
10

$$$$
