39373
     RDKit          3D

 22 25  0  0  0  0  0  0  0  0999 V2000
    2.0526    0.9372   -1.7287 S   0  0  0  0  0  0  0  0  0  0  0  0
   -1.6296   -0.8445   -0.3128 N   0  0  0  0  0  0  0  0  0  0  0  0
   -4.4732   -1.0133   -0.2254 N   0  0  0  0  0  0  0  0  0  0  0  0
    4.1846   -0.1302   -0.5403 N   0  0  0  0  0  0  0  0  0  0  0  0
   -2.4271   -0.2775   -1.3997 C   0  0  0  0  0  0  0  0  0  0  0  0
   -2.2729   -1.9323    0.4227 C   0  0  0  0  0  0  0  0  0  0  0  0
   -3.8109    0.1220   -0.8838 C   0  0  0  0  0  0  0  0  0  0  0  0
   -3.6599   -1.4969    0.8995 C   0  0  0  0  0  0  0  0  0  0  0  0
   -0.3211   -0.5092   -0.1192 C   0  0  0  0  0  0  0  0  0  0  0  0
   -5.8092   -0.6338    0.2320 C   0  0  0  0  0  0  0  0  0  0  0  0
   -0.0555    0.9339    0.1380 C   0  0  0  0  0  0  0  0  0  0  0  0
    0.6551   -1.4406   -0.1427 C   0  0  0  0  0  0  0  0  0  0  0  0
    0.9363    1.6749   -0.5379 C   0  0  0  0  0  0  0  0  0  0  0  0
    2.1040   -1.2427    0.0133 C   0  0  0  0  0  0  0  0  0  0  0  0
   -0.8520    1.6028    1.0886 C   0  0  0  0  0  0  0  0  0  0  0  0
    2.8379   -0.2551   -0.6520 C   0  0  0  0  0  0  0  0  0  0  0  0
    1.0943    3.0453   -0.2743 C   0  0  0  0  0  0  0  0  0  0  0  0
   -0.6817    2.9634    1.3492 C   0  0  0  0  0  0  0  0  0  0  0  0
    2.8174   -2.1452    0.8111 C   0  0  0  0  0  0  0  0  0  0  0  0
    0.2880    3.6851    0.6644 C   0  0  0  0  0  0  0  0  0  0  0  0
    4.1962   -2.0301    0.9439 C   0  0  0  0  0  0  0  0  0  0  0  0
    4.8270   -1.0133    0.2540 C   0  0  0  0  0  0  0  0  0  0  0  0
  1 13  1  0
  1 16  1  0
  2  5  1  0
  2  6  1  0
  2  9  1  0
  3  7  1  0
  3  8  1  0
  3 10  1  0
  4 16  1  0
  4 22  2  0
  5  7  1  0
  6  8  1  0
  9 11  1  0
  9 12  2  0
 11 13  2  0
 11 15  1  0
 12 14  1  0
 13 17  1  0
 14 16  2  0
 14 19  1  0
 15 18  2  0
 17 20  2  0
 18 20  1  0
 19 21  2  0
 21 22  1  0
M  END
>  <PUBCHEM_COMPOUND_CID>  (1) 
39373

>  <PUBCHEM_CONFORMER_RMSD>  (1) 
0.6

>  <PUBCHEM_CONFORMER_DIVERSEORDER>  (1) 
3
2
4
1
8
7
5
6

>  <PUBCHEM_MMFF94_PARTIAL_CHARGES>  (1) 
30
1 -0.2
10 0.27
11 0.03
12 -0.18
13 0.1
14 0.03
15 -0.15
16 0.41
17 -0.15
18 -0.15
19 -0.15
2 -0.84
20 -0.15
21 -0.15
22 0.16
3 -0.81
34 0.15
35 0.15
36 0.15
37 0.15
38 0.15
39 0.15
4 -0.62
40 0.15
41 0.15
5 0.37
6 0.37
7 0.27
8 0.27
9 0.07

>  <PUBCHEM_EFFECTIVE_ROTOR_COUNT>  (1) 
2.4

>  <PUBCHEM_PHARMACOPHORE_FEATURES>  (1) 
7
1 2 cation
1 3 cation
1 4 acceptor
6 11 13 15 17 18 20 rings
6 2 3 5 6 7 8 rings
6 4 14 16 19 21 22 rings
7 1 9 11 12 13 14 16 rings

>  <PUBCHEM_HEAVY_ATOM_COUNT>  (1) 
22

>  <PUBCHEM_ATOM_DEF_STEREO_COUNT>  (1) 
0

>  <PUBCHEM_ATOM_UDEF_STEREO_COUNT>  (1) 
0

>  <PUBCHEM_BOND_DEF_STEREO_COUNT>  (1) 
0

>  <PUBCHEM_BOND_UDEF_STEREO_COUNT>  (1) 
0

>  <PUBCHEM_ISOTOPIC_ATOM_COUNT>  (1) 
0

>  <PUBCHEM_COMPONENT_COUNT>  (1) 
1

>  <PUBCHEM_CACTVS_TAUTO_COUNT>  (1) 
1

>  <PUBCHEM_CONFORMER_ID>  (1) 
000099CD00000003

>  <PUBCHEM_MMFF94_ENERGY>  (1) 
78.4103

>  <PUBCHEM_FEATURE_SELFOVERLAP>  (1) 
35.542

>  <PUBCHEM_SHAPE_FINGERPRINT>  (1) 
10162869 55 18060420210938578531
10165383 225 17541679630345370685
104564 63 18200316502591363596
1100329 8 18050850215605459616
11045515 52 18260825964657654572
11265709 11 18412545392504943624
11578080 2 18187629290002221524
12166972 35 18040720255648186494
12293681 160 17978257129208769484
12422481 6 17700432281777266707
12553582 1 18269015157331258939
12633257 1 18270136702996130771
12788726 201 18341906146944615488
13004483 165 18339630145174957138
13009979 54 18191870029230363666
13134695 92 18340477954328146533
133893 2 17697283537741006229
13533116 47 18122905602104635119
14178342 30 17904752290121671298
14251757 17 17169249478071360454
14464042 87 18341619183110360089
14466204 15 18268432344034964449
14866123 147 17111842670236729835
14955137 171 18271814548385375687
15042514 8 18124318203161099256
15230672 131 17399515019528455068
15238133 3 18339936930789497493
15927050 60 17692253354207218750
17492 89 18121494653275743082
17980427 26 17839449330355988917
1813 80 18059862761308364519
18222031 100 18202282515323683119
18785283 64 18044938123743928741
19078846 21 18272381871037094569
200 152 18334010566941474446
20369508 70 18340768255731552271
20600515 1 17989211468449238338
21033648 29 17131821037563903419
21041028 32 18413670201817393969
21250096 35 18409445886348343306
21267235 1 18261960656922045830
21344244 181 12901829350641454041
21524375 3 17120295157226612236
22112679 90 18199768993235489888
23175994 123 18411702080229908191
23402539 116 18271796878842245830
23419403 2 18121748773668646604
23557571 272 18129384808924424262
23558518 356 17905335022045442338
23559900 14 17822568430330808151
25147074 1 18116730521411231942
345986 75 18189602865632930474
34934 24 18128818736561466340
350125 39 18333731300300335453
392239 28 18340476872739985482
5895379 119 16557376815297537761
6438718 38 17773596010077117845
7164475 11 18195247720002293238
7364860 26 18268145551071154413
7471813 234 18201992266076660469
7495541 125 18262522610511398823
81228 2 18126574418121816152

>  <PUBCHEM_SHAPE_MULTIPOLES>  (1) 
441.66
8.69
3.42
1.24
4.9
3.42
0.18
-6.91
-0.21
-1.03
-1.36
-0.06
0.36
-0.79

>  <PUBCHEM_SHAPE_SELFOVERLAP>  (1) 
948.279

>  <PUBCHEM_SHAPE_VOLUME>  (1) 
244.3

>  <PUBCHEM_COORDINATE_TYPE>  (1) 
2
5
10

$$$$
