39386
     RDKit          3D

 10  9  0  0  1  0  0  0  0  0999 V2000
   -3.9841    1.1755   -0.3746 O   0  0  0  0  0  0  0  0  0  0  0  0
   -3.3584    0.0220    0.1812 C   0  0  0  0  0  0  0  0  0  0  0  0
   -4.1342   -1.2190   -0.2399 C   0  0  0  0  0  0  0  0  0  0  0  0
   -1.9443   -0.0254   -0.3197 C   0  0  0  0  0  0  0  0  0  0  0  0
   -0.8716    0.0466    0.4829 C   0  0  0  0  0  0  0  0  0  0  0  0
    0.4880   -0.0008   -0.0069 C   0  0  0  0  0  0  0  0  0  0  0  0
    1.5562    0.0715    0.7993 C   0  0  0  0  0  0  0  0  0  0  0  0
    2.8802    0.0212    0.2851 C   0  0  0  0  0  0  0  0  0  0  0  0
    5.3668   -0.0710   -0.6643 C   0  0  0  0  0  0  0  0  0  0  0  0
    4.0015   -0.0205   -0.1431 C   0  0  0  0  0  0  0  0  0  0  0  0
  1  2  1  0
  2  3  1  0
  2  4  1  0
  4  5  2  0
  5  6  1  0
  6  7  2  0
  7  8  1  0
  8 10  3  0
  9 10  1  0
M  END
>  <PUBCHEM_COMPOUND_CID>  (1) 
39386

>  <PUBCHEM_CONFORMER_RMSD>  (1) 
0.4

>  <PUBCHEM_CONFORMER_DIVERSEORDER>  (1) 
1
3
2

>  <PUBCHEM_MMFF94_PARTIAL_CHARGES>  (1) 
14
1 -0.68
10 -0.2
15 0.15
16 0.15
17 0.4
18 0.15
19 0.15
2 0.42
4 -0.29
5 -0.15
6 -0.15
7 -0.09
8 -0.06
9 0.2

>  <PUBCHEM_EFFECTIVE_ROTOR_COUNT>  (1) 
2

>  <PUBCHEM_PHARMACOPHORE_FEATURES>  (1) 
3
1 1 acceptor
1 1 donor
1 9 hydrophobe

>  <PUBCHEM_HEAVY_ATOM_COUNT>  (1) 
10

>  <PUBCHEM_ATOM_DEF_STEREO_COUNT>  (1) 
0

>  <PUBCHEM_ATOM_UDEF_STEREO_COUNT>  (1) 
0

>  <PUBCHEM_BOND_DEF_STEREO_COUNT>  (1) 
0

>  <PUBCHEM_BOND_UDEF_STEREO_COUNT>  (1) 
2

>  <PUBCHEM_ISOTOPIC_ATOM_COUNT>  (1) 
0

>  <PUBCHEM_COMPONENT_COUNT>  (1) 
1

>  <PUBCHEM_CACTVS_TAUTO_COUNT>  (1) 
1

>  <PUBCHEM_CONFORMER_ID>  (1) 
000099DA00000001

>  <PUBCHEM_MMFF94_ENERGY>  (1) 
5.6337

>  <PUBCHEM_FEATURE_SELFOVERLAP>  (1) 
15.223

>  <PUBCHEM_SHAPE_FINGERPRINT>  (1) 
10680689 15 18409732876358104051
11062470 55 12829205576955503242
114248 4 18412828010338424952
13690532 89 15985105206495487620
14123238 8 17240483619683621694
14251718 22 18411983598219406870
14252887 29 14405197157656626420
14455015 7 16988854881893326894
15242439 84 17988921163172676417
17834072 33 18339082695927143300
17834076 25 17022903445195166049
18342897 14 8502657000097483270
190213 19 17775564247311670464
1986462 14 18343582945374384757
20645477 56 18338234865478569357
20645477 70 17846224324170727550
20828058 21 18411697698999171818
20828058 44 10519983768377947220
21119208 17 18344146986275918452
22485316 2 18273492369043507582
23402539 116 18260543416218376420
23402655 69 17676479515070331517
23590187 198 12967134899792094628
42 15 11959735962660955460
42788 4 18260831501450416228
449060 50 14129062508500104610

>  <PUBCHEM_SHAPE_MULTIPOLES>  (1) 
199.93
10.89
0.86
0.78
5.22
0.07
-0.03
1.18
2.41
-0.94
0.06
0.2
-0.03
0.27

>  <PUBCHEM_SHAPE_SELFOVERLAP>  (1) 
373.121

>  <PUBCHEM_SHAPE_VOLUME>  (1) 
124.4

>  <PUBCHEM_COORDINATE_TYPE>  (1) 
2
5
10

$$$$
