39395
     RDKit          3D

 30 33  0  0  1  0  0  0  0  0999 V2000
    3.7164   -1.0736    1.5542 O   0  0  0  0  0  0  0  0  0  0  0  0
   -2.1050   -1.6409   -1.1014 O   0  0  0  0  0  0  0  0  0  0  0  0
   -1.4677   -3.5625    0.0166 O   0  0  0  0  0  0  0  0  0  0  0  0
   -6.3285    0.7829   -1.5423 O   0  0  0  0  0  0  0  0  0  0  0  0
    7.6077    0.0366   -1.5093 O   0  0  0  0  0  0  0  0  0  0  0  0
    6.4612    1.9327   -1.0098 O   0  0  0  0  0  0  0  0  0  0  0  0
    1.8186    0.3867    0.9513 C   0  0  0  0  0  0  0  0  0  0  0  0
    0.8046   -0.7870    0.9955 C   0  0  0  0  0  0  0  0  0  0  0  0
   -0.6723   -0.3394    1.1536 C   0  0  0  0  0  0  0  0  0  0  0  0
   -1.1072    0.7518    0.1404 C   0  0  0  0  0  0  0  0  0  0  0  0
    3.1196   -0.3366    0.4778 C   0  0  0  0  0  0  0  0  0  0  0  0
    1.3455    1.4558   -0.0661 C   0  0  0  0  0  0  0  0  0  0  0  0
   -2.6014    1.2382    0.3444 C   0  0  0  0  0  0  0  0  0  0  0  0
    1.1547   -1.6077   -0.2590 C   0  0  0  0  0  0  0  0  0  0  0  0
   -0.0945    1.9178    0.1511 C   0  0  0  0  0  0  0  0  0  0  0  0
    2.6329   -1.3415   -0.5759 C   0  0  0  0  0  0  0  0  0  0  0  0
   -1.6686   -1.5173    1.2230 C   0  0  0  0  0  0  0  0  0  0  0  0
    1.9969    1.0263    2.3418 C   0  0  0  0  0  0  0  0  0  0  0  0
   -3.5355    0.0400    0.5418 C   0  0  0  0  0  0  0  0  0  0  0  0
   -3.0811   -1.0157    1.5249 C   0  0  0  0  0  0  0  0  0  0  0  0
    4.2206    0.5718   -0.0628 C   0  0  0  0  0  0  0  0  0  0  0  0
   -3.0231    2.0345   -0.9264 C   0  0  0  0  0  0  0  0  0  0  0  0
   -2.7538    2.1553    1.5813 C   0  0  0  0  0  0  0  0  0  0  0  0
   -1.7314   -2.3690   -0.0138 C   0  0  0  0  0  0  0  0  0  0  0  0
   -4.5222    2.2679   -1.0304 C   0  0  0  0  0  0  0  0  0  0  0  0
   -4.7186   -0.1026   -0.0790 C   0  0  0  0  0  0  0  0  0  0  0  0
    5.4537   -0.2028   -0.5052 C   0  0  0  0  0  0  0  0  0  0  0  0
   -5.2626    0.9593   -0.9559 C   0  0  0  0  0  0  0  0  0  0  0  0
    6.5328    0.7105   -1.0315 C   0  0  0  0  0  0  0  0  0  0  0  0
   -2.1917   -2.3715   -2.3290 C   0  0  0  0  0  0  0  0  0  0  0  0
  1 11  1  0
  2 24  1  0
  2 30  1  0
  3 24  2  0
  4 28  2  0
  5 29  1  0
  6 29  2  0
  7  8  1  0
  7 11  1  0
  7 12  1  0
  7 18  1  0
  8  9  1  0
  8 14  1  0
  9 10  1  0
  9 17  1  0
 10 13  1  0
 10 15  1  0
 11 16  1  0
 11 21  1  0
 12 15  1  0
 13 19  1  0
 13 22  1  0
 13 23  1  0
 14 16  1  0
 17 20  1  0
 17 24  1  0
 19 20  1  0
 19 26  2  0
 21 27  1  0
 22 25  1  0
 25 28  1  0
 26 28  1  0
 27 29  1  0
M  END
>  <PUBCHEM_COMPOUND_CID>  (1) 
39395

>  <PUBCHEM_CONFORMER_RMSD>  (1) 
0.8

>  <PUBCHEM_CONFORMER_DIVERSEORDER>  (1) 
1
221
321
138
241
280
205
365
376
388
71
95
393
350
277
338
289
216
248
379
389
347
206
378
72
314
76
334
397
24
278
298
341
326
134
342
118
46
249
364
360
201
224
165
193
160
164
372
276
101
37
173
345
218
123
299
382
316
271
152
260
363
306
200
383
261
396
284
352
318
207
226
49
302
31
274
199
84
286
387
290
140
263
354
144
94
189
322
250
303
235
66
330
54
142
295
394
120
26
148
167
85
361
209
333
368
34
264
121
311
282
81
356
246
163
285
384
371
103
41
391
267
176
174
30
355
359
181
275
268
270
12
190
381
58
245
242
220
357
168
293
203
272
56
25
366
149
367
194
253
380
219
236
297
320
395
196
336
212
99
370
64
217
266
45
153
60
385
374
166
283
323
211
124
36
377
104
185
128
112
369
281
105
108
159
291
179
110
238
254
240
79
210
349
244
222
61
117
88
20
175
78
386
197
392
17
184
90
340
258
198
68
305
114
70
329
180
348
27
43
351
191
151
324
109
55
19
257
73
362
315
126
145
135
113
162
310
353
86
251
215
308
52
202
172
259
139
131
169
256
50
183
53
332
375
344
39
262
390
213
87
243
288
9
234
312
130
300
80
309
186
42
136
48
225
89
82
33
102
116
279
67
122
228
287
2
98
59
214
97
96
252
187
294
178
75
154
343
38
195
10
328
307
161
346
22
208
23
373
92
192
301
232
16
327
141
304
358
227
158
32
182
170
247
319
339
239
292
8
63
233
313
147
296
93
133
83
11
335
269
255
204
77
119
237
6
57
100
65
132
129
325
21
177
229
62
28
106
18
331
171
317
137
13
156
40
74
35
127
7
155
44
91
231
273
150
3
4
223
15
157
47
51
188
111
265
143
125
69
107
5
14
337
146
29
230
115

>  <PUBCHEM_MMFF94_PARTIAL_CHARGES>  (1) 
21
1 -0.68
11 0.28
13 0.14
17 0.06
19 -0.28
2 -0.43
20 0.14
24 0.66
25 0.06
26 -0.14
27 0.06
28 0.49
29 0.66
3 -0.57
30 0.28
4 -0.57
5 -0.65
55 0.4
58 0.15
6 -0.57
64 0.5

>  <PUBCHEM_EFFECTIVE_ROTOR_COUNT>  (1) 
6.8

>  <PUBCHEM_PHARMACOPHORE_FEATURES>  (1) 
11
1 1 acceptor
1 1 donor
1 3 acceptor
1 4 acceptor
1 5 acceptor
1 6 acceptor
3 5 6 29 anion
5 7 8 11 14 16 rings
6 13 19 22 25 26 28 rings
6 7 8 9 10 12 15 rings
6 9 10 13 17 19 20 rings

>  <PUBCHEM_HEAVY_ATOM_COUNT>  (1) 
30

>  <PUBCHEM_ATOM_DEF_STEREO_COUNT>  (1) 
2

>  <PUBCHEM_ATOM_UDEF_STEREO_COUNT>  (1) 
5

>  <PUBCHEM_BOND_DEF_STEREO_COUNT>  (1) 
0

>  <PUBCHEM_BOND_UDEF_STEREO_COUNT>  (1) 
0

>  <PUBCHEM_ISOTOPIC_ATOM_COUNT>  (1) 
0

>  <PUBCHEM_COMPONENT_COUNT>  (1) 
1

>  <PUBCHEM_CACTVS_TAUTO_COUNT>  (1) 
5

>  <PUBCHEM_CONFORMER_ID>  (1) 
000099E300000001

>  <PUBCHEM_MMFF94_ENERGY>  (1) 
96.1127

>  <PUBCHEM_FEATURE_SELFOVERLAP>  (1) 
56.071

>  <PUBCHEM_SHAPE_FINGERPRINT>  (1) 
10076449 9 18200601409816727555
10366900 7 17989485212479502880
10906281 52 18338245855687930873
11135609 187 18338232657601804097
11135926 11 17774457009845415950
11578080 2 15430577490557346870
11961588 58 18186798067267871364
12011746 2 18343863307611830245
12236239 1 16950281806403842728
12788726 201 18270116808164316480
13383661 66 15625082329850298199
13540713 4 17843955086309584450
13583140 156 16660657240655023449
13690498 29 18057889241359171902
13782708 43 15985098613646874780
13911987 19 18410007707136751213
14251757 5 18339361971458708974
14931854 50 18130218264455659589
15131766 46 16081663291339497252
15183329 4 18335990783894772654
16114785 44 13551454970360101063
17492 54 18410288078069385937
18393751 57 12468649339024935600
18608769 82 18337398244261583715
19784866 240 14333407860908069352
20511986 3 17603576439872853256
21033648 29 18270385140694049857
21756936 100 17385728027897586512
22393880 68 18129935788878019770
23559900 14 18059288885243505320
23569943 247 16199042587065821086
23576562 1 18187926257015074805
255183 451 17405982337989967799
2838139 119 18040721407280079812
3383291 50 12175617361414849916
34934 24 17822009791959945784
350125 39 18410018736628617769
4015057 19 16702299096247003914
484989 97 18265328598993731447
497634 4 16660928892935942090
5265222 85 18410857697917172396

>  <PUBCHEM_SHAPE_MULTIPOLES>  (1) 
582.17
13.34
2.7
1.74
18.04
1.17
-0.1
-5.59
7.74
-2.14
0.51
-0.22
0.09
-0.1

>  <PUBCHEM_SHAPE_SELFOVERLAP>  (1) 
1243.599

>  <PUBCHEM_SHAPE_VOLUME>  (1) 
318.6

>  <PUBCHEM_COORDINATE_TYPE>  (1) 
2
5
10

$$$$
