39397
     RDKit          3D

 19 22  0  0  0  0  0  0  0  0999 V2000
    0.0783    0.1603   -0.0001 C   0  0  0  0  0  0  0  0  0  0  0  0
    1.4681    0.5407   -0.0001 C   0  0  0  0  0  0  0  0  0  0  0  0
   -0.2615   -1.2148   -0.0001 C   0  0  0  0  0  0  0  0  0  0  0  0
    2.4635   -0.4713    0.0000 C   0  0  0  0  0  0  0  0  0  0  0  0
   -1.0001    1.0819   -0.0001 C   0  0  0  0  0  0  0  0  0  0  0  0
   -2.3498    0.6805   -0.0001 C   0  0  0  0  0  0  0  0  0  0  0  0
   -2.6568   -0.6920    0.0000 C   0  0  0  0  0  0  0  0  0  0  0  0
   -1.6075   -1.6208    0.0000 C   0  0  0  0  0  0  0  0  0  0  0  0
    3.8279   -0.1342    0.0001 C   0  0  0  0  0  0  0  0  0  0  0  0
    0.7470   -2.1824    0.0000 C   0  0  0  0  0  0  0  0  0  0  0  0
    2.0888   -1.8167    0.0001 C   0  0  0  0  0  0  0  0  0  0  0  0
    1.9272    1.8820   -0.0002 C   0  0  0  0  0  0  0  0  0  0  0  0
    4.2379    1.1953    0.0002 C   0  0  0  0  0  0  0  0  0  0  0  0
    3.2873    2.2040    0.0000 C   0  0  0  0  0  0  0  0  0  0  0  0
   -3.3981    1.6171   -0.0001 C   0  0  0  0  0  0  0  0  0  0  0  0
   -4.0019   -1.0994    0.0000 C   0  0  0  0  0  0  0  0  0  0  0  0
    4.9101   -1.1717    0.0001 C   0  0  0  0  0  0  0  0  0  0  0  0
   -4.7293    1.1995    0.0003 C   0  0  0  0  0  0  0  0  0  0  0  0
   -5.0311   -0.1582    0.0001 C   0  0  0  0  0  0  0  0  0  0  0  0
  1  2  1  0
  1  3  1  0
  1  5  2  0
  2  4  2  0
  2 12  1  0
  3  8  2  0
  3 10  1  0
  4  9  1  0
  4 11  1  0
  5  6  1  0
  6  7  2  0
  6 15  1  0
  7  8  1  0
  7 16  1  0
  9 13  2  0
  9 17  1  0
 10 11  2  0
 12 14  2  0
 13 14  1  0
 15 18  2  0
 16 19  2  0
 18 19  1  0
M  END
>  <PUBCHEM_COMPOUND_CID>  (1) 
39397

>  <PUBCHEM_CONFORMER_RMSD>  (1) 
0.4

>  <PUBCHEM_CONFORMER_DIVERSEORDER>  (1) 
1

>  <PUBCHEM_MMFF94_PARTIAL_CHARGES>  (1) 
24
10 -0.15
11 -0.15
12 -0.15
13 -0.15
14 -0.15
15 -0.15
16 -0.15
17 0.14
18 -0.15
19 -0.15
20 0.15
21 0.15
22 0.15
23 0.15
24 0.15
25 0.15
26 0.15
27 0.15
28 0.15
32 0.15
33 0.15
5 -0.15
8 -0.15
9 -0.14

>  <PUBCHEM_EFFECTIVE_ROTOR_COUNT>  (1) 
0

>  <PUBCHEM_PHARMACOPHORE_FEATURES>  (1) 
4
6 1 2 3 4 10 11 rings
6 1 3 5 6 7 8 rings
6 2 4 9 12 13 14 rings
6 6 7 15 16 18 19 rings

>  <PUBCHEM_HEAVY_ATOM_COUNT>  (1) 
19

>  <PUBCHEM_ATOM_DEF_STEREO_COUNT>  (1) 
0

>  <PUBCHEM_ATOM_UDEF_STEREO_COUNT>  (1) 
0

>  <PUBCHEM_BOND_DEF_STEREO_COUNT>  (1) 
0

>  <PUBCHEM_BOND_UDEF_STEREO_COUNT>  (1) 
0

>  <PUBCHEM_ISOTOPIC_ATOM_COUNT>  (1) 
0

>  <PUBCHEM_COMPONENT_COUNT>  (1) 
1

>  <PUBCHEM_CACTVS_TAUTO_COUNT>  (1) 
1

>  <PUBCHEM_CONFORMER_ID>  (1) 
000099E500000001

>  <PUBCHEM_MMFF94_ENERGY>  (1) 
68.7755

>  <PUBCHEM_FEATURE_SELFOVERLAP>  (1) 
20.37

>  <PUBCHEM_SHAPE_FINGERPRINT>  (1) 
10411042 1 17617941335509180147
10608611 8 18409165493908924709
10616163 171 18339926025535509359
10967382 1 18410575076173436068
11471102 20 18411417310807332244
11578080 2 13625256432151266205
12107183 9 17691407412884710409
12236239 1 17918274247217274509
12403259 226 18409442592076954236
12403259 415 18260823791425457812
12592029 89 18408041788598651458
12644460 14 18188210892443935370
13140716 1 18337385037088766946
13583140 156 16805866494487303497
138480 1 17834395618453660039
13862211 1 18410288082369842170
14790565 3 18336836376486966140
15099037 51 18411703166856627606
15196674 1 18410855481603004772
15442244 35 18195528090850298218
15536298 74 18341895194730323494
1601671 61 18337674114089077996
16945 1 18338516335352983270
18186145 218 18334287665161550068
18681886 176 18272363183713602082
19591789 44 18411418457384615915
200 152 18131911563848859129
20645477 70 18343303643371811182
21267235 1 18411145722719087139
21279426 13 18266742368381514174
21421861 104 17679296365029064546
21452121 103 18270671074126173992
21709351 56 18410285900272923997
221490 88 18409174328366729714
22854114 111 18408323293449897284
23227448 37 18341611572423257855
23402539 116 18272643550050413877
23402655 69 18343582949294948701
23558518 356 17684363241533584088
23559900 14 18342455885837382862
3004659 81 18261118423058029998
335352 9 18410573946929457470
350125 39 18409731742202316868
351380 180 18411135844183179288
3545911 37 18409450267610292813
4214541 1 18410856542855825609
474 4 17967817201208054988
495365 180 17417804106590266768
4990 188 18060145323138621974
5104073 3 18410012156200325793
543358 83 18340492144799735576
6138700 20 18266181635122438254
633830 44 18408880754498684454
69090 78 18413105091110138583
7364860 26 18341333288617849270
77779 3 18410575106322687617
8272917 22 18342743966246766303
9709674 26 18411706490940132375
9981440 41 17472133355336135920
9999458 23 18186803582580925102

>  <PUBCHEM_SHAPE_MULTIPOLES>  (1) 
391.01
9.87
2.27
0.62
2.76
0.05
0
1.62
0
-0.96
0
0
0
0

>  <PUBCHEM_SHAPE_SELFOVERLAP>  (1) 
895.783

>  <PUBCHEM_SHAPE_VOLUME>  (1) 
186.6

>  <PUBCHEM_COORDINATE_TYPE>  (1) 
2
5
10

$$$$
