39400
     RDKit          3D

 23 26  0  0  1  0  0  0  0  0999 V2000
    0.7961   -0.4030   -1.7979 S   0  0  0  0  0  0  0  0  0  0  0  0
    1.9590    4.7098    0.9918 O   0  0  0  0  0  0  0  0  0  0  0  0
   -1.5225   -0.0060    0.3069 N   0  0  0  0  0  0  0  0  0  0  0  0
   -4.3808   -0.1831   -0.0903 N   0  0  0  0  0  0  0  0  0  0  0  0
   -0.3357    0.3796    1.0676 C   0  0  0  0  0  0  0  0  0  0  0  0
   -2.3396   -0.9620    1.0641 C   0  0  0  0  0  0  0  0  0  0  0  0
   -2.3170    1.1747   -0.0539 C   0  0  0  0  0  0  0  0  0  0  0  0
   -3.5868   -1.3643    0.2697 C   0  0  0  0  0  0  0  0  0  0  0  0
   -3.5635    0.7714   -0.8491 C   0  0  0  0  0  0  0  0  0  0  0  0
    0.4536   -0.8351    1.5828 C   0  0  0  0  0  0  0  0  0  0  0  0
    0.5606    1.3676    0.3498 C   0  0  0  0  0  0  0  0  0  0  0  0
    1.2186   -1.7795    0.6740 C   0  0  0  0  0  0  0  0  0  0  0  0
    1.1412    1.0936   -0.8997 C   0  0  0  0  0  0  0  0  0  0  0  0
   -5.5688   -0.5680   -0.8496 C   0  0  0  0  0  0  0  0  0  0  0  0
    0.8529    2.5936    0.9752 C   0  0  0  0  0  0  0  0  0  0  0  0
    1.4306   -1.6717   -0.7126 C   0  0  0  0  0  0  0  0  0  0  0  0
    1.7976   -2.8831    1.3476 C   0  0  0  0  0  0  0  0  0  0  0  0
    1.9802    2.0427   -1.5036 C   0  0  0  0  0  0  0  0  0  0  0  0
    1.6932    3.5283    0.3709 C   0  0  0  0  0  0  0  0  0  0  0  0
    2.1863   -2.6651   -1.3729 C   0  0  0  0  0  0  0  0  0  0  0  0
    2.2570    3.2525   -0.8689 C   0  0  0  0  0  0  0  0  0  0  0  0
    2.5470   -3.8512    0.6821 C   0  0  0  0  0  0  0  0  0  0  0  0
    2.7408   -3.7419   -0.6840 C   0  0  0  0  0  0  0  0  0  0  0  0
  1 13  1  0
  1 16  1  0
  2 19  1  0
  3  5  1  0
  3  6  1  0
  3  7  1  0
  4  8  1  0
  4  9  1  0
  4 14  1  0
  5 10  1  0
  5 11  1  0
  6  8  1  0
  7  9  1  0
 10 12  1  0
 11 13  2  0
 11 15  1  0
 12 16  2  0
 12 17  1  0
 13 18  1  0
 15 19  2  0
 16 20  1  0
 17 22  2  0
 18 21  2  0
 19 21  1  0
 20 23  2  0
 22 23  1  0
M  END
>  <PUBCHEM_COMPOUND_CID>  (1) 
39400

>  <PUBCHEM_CONFORMER_RMSD>  (1) 
0.6

>  <PUBCHEM_CONFORMER_DIVERSEORDER>  (1) 
1
3
6
5
4
2

>  <PUBCHEM_MMFF94_PARTIAL_CHARGES>  (1) 
31
1 -0.2
10 0.14
11 -0.14
12 -0.14
13 0.1
14 0.27
15 -0.15
16 0.1
17 -0.15
18 -0.15
19 0.08
2 -0.53
20 -0.15
21 -0.15
22 -0.15
23 -0.15
3 -0.81
38 0.15
39 0.15
4 -0.81
40 0.15
41 0.15
42 0.15
43 0.15
44 0.15
45 0.45
5 0.41
6 0.27
7 0.27
8 0.27
9 0.27

>  <PUBCHEM_EFFECTIVE_ROTOR_COUNT>  (1) 
2.8

>  <PUBCHEM_PHARMACOPHORE_FEATURES>  (1) 
7
1 2 donor
1 3 cation
1 4 cation
6 11 13 15 18 19 21 rings
6 12 16 17 20 22 23 rings
6 3 4 6 7 8 9 rings
7 1 5 10 11 12 13 16 rings

>  <PUBCHEM_HEAVY_ATOM_COUNT>  (1) 
23

>  <PUBCHEM_ATOM_DEF_STEREO_COUNT>  (1) 
0

>  <PUBCHEM_ATOM_UDEF_STEREO_COUNT>  (1) 
1

>  <PUBCHEM_BOND_DEF_STEREO_COUNT>  (1) 
0

>  <PUBCHEM_BOND_UDEF_STEREO_COUNT>  (1) 
0

>  <PUBCHEM_ISOTOPIC_ATOM_COUNT>  (1) 
0

>  <PUBCHEM_COMPONENT_COUNT>  (1) 
1

>  <PUBCHEM_CACTVS_TAUTO_COUNT>  (1) 
3

>  <PUBCHEM_CONFORMER_ID>  (1) 
000099E800000001

>  <PUBCHEM_MMFF94_ENERGY>  (1) 
74.5977

>  <PUBCHEM_FEATURE_SELFOVERLAP>  (1) 
35.536

>  <PUBCHEM_SHAPE_FINGERPRINT>  (1) 
10721379 63 18341338837942325569
10764073 3 17246064680513874008
11101153 10 18120951508202351670
11265709 11 18122071896489285646
11578080 2 17025133156255792860
121448 382 17550941929039719527
12532896 13 17764585812713645052
12553582 1 17976837392929121307
12730499 353 18265906941882646739
12788726 201 17617392679300787174
13004483 165 17977377235731727498
13134695 92 18339632326933622847
13149001 5 18040727934997464539
13257819 37 17612047261746196959
133893 2 18341066154483887577
13681431 1 18338519633935196506
13955234 65 18411703227181192883
14955137 171 18412536635477980002
1813 80 18126850400194454051
20197701 30 18123182674116842512
20567600 347 18119526797965140763
20600515 1 17611717056171162072
21120745 212 17908157486116670342
21304303 282 17190064633275815868
21452121 199 18268710519585169931
22112679 90 17763492537451846144
23114952 82 18334012804909254949
23419403 2 17389343174747890876
23557571 272 17904752294200113762
23559900 14 18410001123141939731
238 59 18267318701220849471
404807 78 16457377611616271799
6438718 38 16750467279125915290
6442390 28 17833838544346925643
6669772 16 18055636372272521052
6786 2 18048321342481153302
7364860 26 18410008853586778161
7471813 234 18191875513444905358
81228 2 17616820929001665642
9925002 15 17836103185897087400

>  <PUBCHEM_SHAPE_MULTIPOLES>  (1) 
461.35
6.31
5.46
1.57
10.58
5.01
0.16
-6.23
1.77
-6.5
-0.88
-0.63
-0.08
-0.19

>  <PUBCHEM_SHAPE_SELFOVERLAP>  (1) 
984.383

>  <PUBCHEM_SHAPE_VOLUME>  (1) 
256.3

>  <PUBCHEM_COORDINATE_TYPE>  (1) 
2
5
10

$$$$
