39404
     RDKit          3D

 17 17  0  0  0  0  0  0  0  0999 V2000
   -5.7177    0.4763   -1.7819 O   0  0  0  0  0  0  0  0  0  0  0  0
   -2.8295   -1.5603    0.9246 O   0  0  0  0  0  0  0  0  0  0  0  0
    5.6075   -0.3293   -0.5309 O   0  0  0  0  0  0  0  0  0  0  0  0
    4.3181   -2.0989   -0.3733 O   0  0  0  0  0  0  0  0  0  0  0  0
   -3.8569    0.4470    0.3598 N   0  0  0  0  0  0  0  0  0  0  0  0
    4.4820   -0.8550   -0.3539 N   0  0  0  0  0  0  0  0  0  0  0  0
    1.0125    0.2544    0.2968 C   0  0  0  0  0  0  0  0  0  0  0  0
   -5.2274    0.0124    0.5128 C   0  0  0  0  0  0  0  0  0  0  0  0
    2.0977   -0.5777    0.0744 C   0  0  0  0  0  0  0  0  0  0  0  0
    3.3592   -0.0165   -0.1244 C   0  0  0  0  0  0  0  0  0  0  0  0
   -0.3206   -0.3374    0.5063 C   0  0  0  0  0  0  0  0  0  0  0  0
    1.1544    1.6324    0.3257 C   0  0  0  0  0  0  0  0  0  0  0  0
   -5.7625   -0.5467   -0.7958 C   0  0  0  0  0  0  0  0  0  0  0  0
    3.5181    1.3691   -0.0983 C   0  0  0  0  0  0  0  0  0  0  0  0
   -1.4786    0.3209    0.3502 C   0  0  0  0  0  0  0  0  0  0  0  0
    2.4156    2.1935    0.1269 C   0  0  0  0  0  0  0  0  0  0  0  0
   -2.7717   -0.3841    0.5810 C   0  0  0  0  0  0  0  0  0  0  0  0
  1 13  1  0
  2 17  2  0
  3  6  1  0
  4  6  2  0
  5  8  1  0
  5 17  1  0
  6 10  1  0
  7  9  2  0
  7 11  1  0
  7 12  1  0
  8 13  1  0
  9 10  1  0
 10 14  2  0
 11 15  2  0
 12 16  2  0
 14 16  1  0
 15 17  1  0
M  CHG  2   3  -1   6   1
M  END
>  <PUBCHEM_COMPOUND_CID>  (1) 
39404

>  <PUBCHEM_CONFORMER_RMSD>  (1) 
0.8

>  <PUBCHEM_CONFORMER_DIVERSEORDER>  (1) 
1
11
6
4
5
8
13
2
3
10
7
12
9
14

>  <PUBCHEM_MMFF94_PARTIAL_CHARGES>  (1) 
25
1 -0.68
10 0.13
11 -0.18
12 -0.15
13 0.28
14 -0.15
15 -0.14
16 -0.15
17 0.62
2 -0.57
20 0.15
21 0.15
22 0.15
23 0.37
26 0.15
27 0.15
28 0.15
29 0.4
3 -0.52
4 -0.52
5 -0.73
6 0.91
7 0.03
8 0.3
9 -0.15

>  <PUBCHEM_EFFECTIVE_ROTOR_COUNT>  (1) 
6

>  <PUBCHEM_PHARMACOPHORE_FEATURES>  (1) 
8
1 1 acceptor
1 1 donor
1 2 acceptor
1 3 acceptor
1 3 anion
1 4 acceptor
1 5 donor
6 7 9 10 12 14 16 rings

>  <PUBCHEM_HEAVY_ATOM_COUNT>  (1) 
17

>  <PUBCHEM_ATOM_DEF_STEREO_COUNT>  (1) 
0

>  <PUBCHEM_ATOM_UDEF_STEREO_COUNT>  (1) 
0

>  <PUBCHEM_BOND_DEF_STEREO_COUNT>  (1) 
0

>  <PUBCHEM_BOND_UDEF_STEREO_COUNT>  (1) 
1

>  <PUBCHEM_ISOTOPIC_ATOM_COUNT>  (1) 
0

>  <PUBCHEM_COMPONENT_COUNT>  (1) 
1

>  <PUBCHEM_CACTVS_TAUTO_COUNT>  (1) 
2

>  <PUBCHEM_CONFORMER_ID>  (1) 
000099EC00000001

>  <PUBCHEM_MMFF94_ENERGY>  (1) 
39.636

>  <PUBCHEM_FEATURE_SELFOVERLAP>  (1) 
40.682

>  <PUBCHEM_SHAPE_FINGERPRINT>  (1) 
10378564 45 18187354390303020133
10912923 1 17132123467580140249
11471102 20 18411140259710493432
11796584 16 16877664561338085786
12236239 1 17346883351034028280
12555020 224 18412543211115614727
12596602 18 15410891851411647994
12616971 3 17703516566796798393
12670543 26 18187360991841755789
13167823 11 18201155542186556855
13668630 136 17632580452522042735
14251752 14 16950276274385881234
14366163 111 15574722417197808820
14573314 32 17967811622351245933
15242439 84 18114183046789061811
15475509 35 14404637442098513956
17834072 33 18201438116563794151
17834072 8 18259704501762946447
18186145 218 17895190047235442697
18222031 100 18059861632365098062
200 152 17917713500408048457
20612939 158 18335991951551377380
20645477 70 18413394241177725798
21503847 285 16009033924873716669
221357 26 18408598150388965925
221490 88 18192163796050002442
2215653 11 18408604751299733247
22224240 67 17203321209809266166
22289505 5 18260261941115448564
23402539 116 17989488503110363929
23402655 69 18339928215625640057
23559900 14 18410292557445910872
23590187 135 14117511078468272821
2871803 45 18259984855600348632
29717793 49 17989208135844799557
32948 21 17894909611783248789
3545911 37 17967817167555003627
4214541 1 18411705374564815385
4340502 62 12607404382182418868
5104073 3 18338805622843421563
522135 26 18410578400810530088
542803 24 13695867034679717393
633830 44 17095803346770742451
7471813 234 17561081423334481857
90127 26 17168148979076060753
9971528 1 18413105086921049768

>  <PUBCHEM_SHAPE_MULTIPOLES>  (1) 
316.41
13.48
1.63
0.92
11.39
0.2
0.23
-2.71
4.4
-2.08
-0.02
1.27
-0.01
0.59

>  <PUBCHEM_SHAPE_SELFOVERLAP>  (1) 
651.12

>  <PUBCHEM_SHAPE_VOLUME>  (1) 
181.6

>  <PUBCHEM_COORDINATE_TYPE>  (1) 
2
5
10

$$$$
