39411
     RDKit          3D

 16 16  0  0  0  0  0  0  0  0999 V2000
    4.8001   -1.7410   -0.8872 Cl  0  0  0  0  0  0  0  0  0  0  0  0
    5.4989    1.3363   -0.1702 Cl  0  0  0  0  0  0  0  0  0  0  0  0
   -5.3679    1.1756   -1.5423 O   0  0  0  0  0  0  0  0  0  0  0  0
   -2.7197   -1.7020    0.5786 O   0  0  0  0  0  0  0  0  0  0  0  0
   -3.5074    0.4822    0.4843 N   0  0  0  0  0  0  0  0  0  0  0  0
   -4.9174    0.1797    0.5853 C   0  0  0  0  0  0  0  0  0  0  0  0
    1.2593   -0.2363    0.2166 C   0  0  0  0  0  0  0  0  0  0  0  0
   -5.5230   -0.0234   -0.7944 C   0  0  0  0  0  0  0  0  0  0  0  0
   -0.0869   -0.7128    0.3445 C   0  0  0  0  0  0  0  0  0  0  0  0
    2.2864   -1.0908   -0.2194 C   0  0  0  0  0  0  0  0  0  0  0  0
    1.5803    1.0969    0.5238 C   0  0  0  0  0  0  0  0  0  0  0  0
   -2.5254   -0.4941    0.4901 C   0  0  0  0  0  0  0  0  0  0  0  0
   -1.1590    0.0932    0.3710 C   0  0  0  0  0  0  0  0  0  0  0  0
    3.5955   -0.6258   -0.3444 C   0  0  0  0  0  0  0  0  0  0  0  0
    2.8893    1.5619    0.3989 C   0  0  0  0  0  0  0  0  0  0  0  0
    3.8970    0.7005   -0.0353 C   0  0  0  0  0  0  0  0  0  0  0  0
  1 14  1  0
  2 16  1  0
  3  8  1  0
  4 12  2  0
  5  6  1  0
  5 12  1  0
  6  8  1  0
  7  9  1  0
  7 10  2  0
  7 11  1  0
  9 13  2  0
 10 14  1  0
 11 15  2  0
 12 13  1  0
 14 16  2  0
 15 16  1  0
M  END
>  <PUBCHEM_COMPOUND_CID>  (1) 
39411

>  <PUBCHEM_CONFORMER_RMSD>  (1) 
0.6

>  <PUBCHEM_CONFORMER_DIVERSEORDER>  (1) 
1
16
19
7
32
29
38
31
25
23
13
9
18
12
6
28
17
36
3
34
27
35
15
26
11
37
22
5
2
33
20
8
30
21
4
24
14
10

>  <PUBCHEM_MMFF94_PARTIAL_CHARGES>  (1) 
23
1 -0.18
10 -0.15
11 -0.15
12 0.62
13 -0.14
14 0.18
15 -0.15
16 0.18
19 0.37
2 -0.18
22 0.15
23 0.15
24 0.15
25 0.15
26 0.15
27 0.4
3 -0.68
4 -0.57
5 -0.73
6 0.3
7 0.03
8 0.28
9 -0.18

>  <PUBCHEM_EFFECTIVE_ROTOR_COUNT>  (1) 
5

>  <PUBCHEM_PHARMACOPHORE_FEATURES>  (1) 
5
1 3 acceptor
1 3 donor
1 4 acceptor
1 5 donor
6 7 10 11 14 15 16 rings

>  <PUBCHEM_HEAVY_ATOM_COUNT>  (1) 
16

>  <PUBCHEM_ATOM_DEF_STEREO_COUNT>  (1) 
0

>  <PUBCHEM_ATOM_UDEF_STEREO_COUNT>  (1) 
0

>  <PUBCHEM_BOND_DEF_STEREO_COUNT>  (1) 
0

>  <PUBCHEM_BOND_UDEF_STEREO_COUNT>  (1) 
1

>  <PUBCHEM_ISOTOPIC_ATOM_COUNT>  (1) 
0

>  <PUBCHEM_COMPONENT_COUNT>  (1) 
1

>  <PUBCHEM_CACTVS_TAUTO_COUNT>  (1) 
2

>  <PUBCHEM_CONFORMER_ID>  (1) 
000099F300000001

>  <PUBCHEM_MMFF94_ENERGY>  (1) 
30.7639

>  <PUBCHEM_FEATURE_SELFOVERLAP>  (1) 
25.375

>  <PUBCHEM_SHAPE_FINGERPRINT>  (1) 
10014705 185 18187363259748063715
10912923 1 16630533924825380115
11471102 20 18342741819089860482
12236239 1 16917071048891231280
12500047 106 18262519302906559307
12555020 224 18272369742044598375
14573314 32 18261111846481632173
15242439 84 18334299751146955251
15475509 35 13182471989456565476
16079462 125 18334848450504545824
17834072 33 17846497054018633407
17834072 8 18408889516300513934
18186145 218 18259984885559709210
18222031 100 14908181954042785618
200 152 17489871535765640323
20645477 56 18187081789013533897
20645477 70 18201726119843809390
21150785 3 15339121282017714048
21503847 285 16588031233517612076
21709351 56 18339922748232427884
220451 1 16343710928158098311
221357 26 18341891862057852029
22289505 5 18411136939948940324
23402539 116 17822285838013370666
23402655 69 18272371992232304160
23559900 14 18413110576142143394
2871803 45 18409169879128406856
29717793 49 17632017455176125308
300161 21 18408881871469528746
3545911 37 18411141376443954633
4028521 119 18260544511825576185
4072396 5 18341040883756043928
5104073 3 18341338867806851882
522135 26 18343305860070554402
542803 24 17346604066896723267
633830 44 17530965838525059562
77779 3 18341338867574469675
90127 26 17603875519873057169

>  <PUBCHEM_SHAPE_MULTIPOLES>  (1) 
316.29
13.65
1.59
0.93
10.85
0.18
-0.24
-1.8
-4.13
-1.92
-0.1
0.95
-0.06
1.01

>  <PUBCHEM_SHAPE_SELFOVERLAP>  (1) 
629.839

>  <PUBCHEM_SHAPE_VOLUME>  (1) 
187.8

>  <PUBCHEM_COORDINATE_TYPE>  (1) 
2
5
10

$$$$
