39410
     RDKit          3D

 16 16  0  0  0  0  0  0  0  0999 V2000
    1.1911   -2.3148    0.9710 Cl  0  0  0  0  0  0  0  0  0  0  0  0
    5.8147   -0.2597   -0.8452 Cl  0  0  0  0  0  0  0  0  0  0  0  0
   -5.1055   -1.6064   -1.0494 O   0  0  0  0  0  0  0  0  0  0  0  0
   -2.5650    1.0393    1.4682 O   0  0  0  0  0  0  0  0  0  0  0  0
   -3.2375    0.4986   -0.6894 N   0  0  0  0  0  0  0  0  0  0  0  0
   -4.6589    0.6773   -0.4952 C   0  0  0  0  0  0  0  0  0  0  0  0
    1.4767    0.3314    0.3388 C   0  0  0  0  0  0  0  0  0  0  0  0
   -5.3065   -0.6220   -0.0435 C   0  0  0  0  0  0  0  0  0  0  0  0
    0.1104    0.5721    0.7009 C   0  0  0  0  0  0  0  0  0  0  0  0
    2.0805   -0.9382    0.4190 C   0  0  0  0  0  0  0  0  0  0  0  0
    2.2541    1.4109   -0.1180 C   0  0  0  0  0  0  0  0  0  0  0  0
   -2.3089    0.6972    0.3184 C   0  0  0  0  0  0  0  0  0  0  0  0
   -0.9165    0.4417   -0.1526 C   0  0  0  0  0  0  0  0  0  0  0  0
    3.4146   -1.1201    0.0548 C   0  0  0  0  0  0  0  0  0  0  0  0
    3.5882    1.2291   -0.4821 C   0  0  0  0  0  0  0  0  0  0  0  0
    4.1684   -0.0364   -0.3957 C   0  0  0  0  0  0  0  0  0  0  0  0
  1 10  1  0
  2 16  1  0
  3  8  1  0
  4 12  2  0
  5  6  1  0
  5 12  1  0
  6  8  1  0
  7  9  1  0
  7 10  2  0
  7 11  1  0
  9 13  2  0
 10 14  1  0
 11 15  2  0
 12 13  1  0
 14 16  2  0
 15 16  1  0
M  END
>  <PUBCHEM_COMPOUND_CID>  (1) 
39410

>  <PUBCHEM_CONFORMER_RMSD>  (1) 
0.6

>  <PUBCHEM_CONFORMER_DIVERSEORDER>  (1) 
2
21
30
25
34
9
6
39
11
26
38
8
15
29
32
14
4
17
22
35
23
12
18
20
36
16
28
31
7
37
13
5
24
3
27
10
40
1
19
33

>  <PUBCHEM_MMFF94_PARTIAL_CHARGES>  (1) 
23
1 -0.18
10 0.18
11 -0.15
12 0.62
13 -0.14
14 -0.15
15 -0.15
16 0.18
19 0.37
2 -0.18
22 0.15
23 0.15
24 0.15
25 0.15
26 0.15
27 0.4
3 -0.68
4 -0.57
5 -0.73
6 0.3
7 0.03
8 0.28
9 -0.18

>  <PUBCHEM_EFFECTIVE_ROTOR_COUNT>  (1) 
5

>  <PUBCHEM_PHARMACOPHORE_FEATURES>  (1) 
5
1 3 acceptor
1 3 donor
1 4 acceptor
1 5 donor
6 7 10 11 14 15 16 rings

>  <PUBCHEM_HEAVY_ATOM_COUNT>  (1) 
16

>  <PUBCHEM_ATOM_DEF_STEREO_COUNT>  (1) 
0

>  <PUBCHEM_ATOM_UDEF_STEREO_COUNT>  (1) 
0

>  <PUBCHEM_BOND_DEF_STEREO_COUNT>  (1) 
0

>  <PUBCHEM_BOND_UDEF_STEREO_COUNT>  (1) 
1

>  <PUBCHEM_ISOTOPIC_ATOM_COUNT>  (1) 
0

>  <PUBCHEM_COMPONENT_COUNT>  (1) 
1

>  <PUBCHEM_CACTVS_TAUTO_COUNT>  (1) 
2

>  <PUBCHEM_CONFORMER_ID>  (1) 
000099F200000002

>  <PUBCHEM_MMFF94_ENERGY>  (1) 
30.8694

>  <PUBCHEM_FEATURE_SELFOVERLAP>  (1) 
25.375

>  <PUBCHEM_SHAPE_FINGERPRINT>  (1) 
10366900 7 17748829609240015304
11045515 52 18408039615878598741
11089746 13 12468640564090134758
11471102 20 18259989245510540712
11543360 7 18260823804858693185
12236239 1 18202567259092090208
12251169 10 9871742494687717368
12507557 5 9727631713775769399
13167823 11 18412541012049687015
13760787 19 18412542077365132553
13836976 161 18260271854290117518
13862211 1 18263082133465981506
14251717 144 18334576811239956170
14251718 22 18411419526778413492
14252887 29 10087644797595312908
14528608 73 18187365449611848197
14576447 43 18412824677227694342
14911166 2 18335148579320314428
15048467 5 11819279975215659582
15188451 53 14188994740532478741
15375358 24 16805326578390801705
15501527 24 18410859880050533684
15885798 251 11959737061977644890
17834072 33 18411699898032996501
200 152 18410856555777527569
20279233 1 17167869638133399145
20645477 70 17968654913352366210
21054139 6 18409161142896479550
21618674 57 13470689247886721351
21709351 56 18261107469857366165
23402539 116 18131073697017809784
23402655 69 18262233318314291021
23557571 272 16370722591483462159
23559900 14 18200583804614081625
2871803 45 18334293158419368763
29717793 49 17917996044536626076
3060560 45 18187365424438000286
3268164 11 16588293974384866013
33382 64 16128386922150896806
351380 3 18060414751217617351
42 15 12247678275013402001
465052 167 17560802199347265479
4990 188 18272938202192510468
58051976 378 18333738996317279178
7495541 125 15697994158945400640

>  <PUBCHEM_SHAPE_MULTIPOLES>  (1) 
316.29
12.21
1.67
0.99
7.67
0.85
0.08
1.18
-4.65
-0.36
0.2
0.41
0.07
-0.76

>  <PUBCHEM_SHAPE_SELFOVERLAP>  (1) 
629.63

>  <PUBCHEM_SHAPE_VOLUME>  (1) 
187.7

>  <PUBCHEM_COORDINATE_TYPE>  (1) 
2
5
10

$$$$
