3942
     RDKit          3D

 19 21  0  0  0  0  0  0  0  0999 V2000
   -0.9360    2.4017    1.4936 S   0  0  0  0  0  0  0  0  0  0  0  0
   -2.2627   -1.2849   -1.5482 S   0  0  0  0  0  0  0  0  0  0  0  0
    3.0278   -0.3546   -0.2479 N   0  0  0  0  0  0  0  0  0  0  0  0
    3.2232   -1.8221    0.1965 C   0  0  0  0  0  0  0  0  0  0  0  0
    1.8132    0.2978    0.4434 C   0  0  0  0  0  0  0  0  0  0  0  0
    2.0380   -2.3685    0.9940 C   0  0  0  0  0  0  0  0  0  0  0  0
    0.5429   -0.4945    0.3131 C   0  0  0  0  0  0  0  0  0  0  0  0
    0.6872   -1.9885    0.3966 C   0  0  0  0  0  0  0  0  0  0  0  0
    2.8509   -0.2904   -1.7682 C   0  0  0  0  0  0  0  0  0  0  0  0
    4.2778    0.4515    0.1110 C   0  0  0  0  0  0  0  0  0  0  0  0
   -0.6481    0.0912    0.1241 C   0  0  0  0  0  0  0  0  0  0  0  0
   -0.7031    1.5765    0.0534 C   0  0  0  0  0  0  0  0  0  0  0  0
   -1.8497   -0.7768   -0.0051 C   0  0  0  0  0  0  0  0  0  0  0  0
   -0.5845    2.3121   -1.0498 C   0  0  0  0  0  0  0  0  0  0  0  0
   -2.6291   -1.1879    0.9928 C   0  0  0  0  0  0  0  0  0  0  0  0
   -0.6906    3.6926   -0.7139 C   0  0  0  0  0  0  0  0  0  0  0  0
   -3.6768   -2.0016    0.4731 C   0  0  0  0  0  0  0  0  0  0  0  0
   -0.8835    3.8832    0.6368 C   0  0  0  0  0  0  0  0  0  0  0  0
   -3.5968   -2.1368   -0.8953 C   0  0  0  0  0  0  0  0  0  0  0  0
  1 12  1  0
  1 18  1  0
  2 13  1  0
  2 19  1  0
  3  4  1  0
  3  5  1  0
  3  9  1  0
  3 10  1  0
  4  6  1  0
  5  7  1  0
  6  8  1  0
  7  8  1  0
  7 11  2  3
 11 12  1  0
 11 13  1  0
 12 14  2  0
 13 15  2  0
 14 16  1  0
 15 17  1  0
 16 18  2  0
 17 19  2  0
M  CHG  1   3   1
M  END
>  <PUBCHEM_COMPOUND_CID>  (1) 
3942

>  <PUBCHEM_CONFORMER_RMSD>  (1) 
0.6

>  <PUBCHEM_CONFORMER_DIVERSEORDER>  (1) 
3
9
6
11
7
10
8
12
5
16
1
13
4
15
2
14

>  <PUBCHEM_MMFF94_PARTIAL_CHARGES>  (1) 
24
1 -0.08
10 0.5
11 0.09
12 -0.01
13 -0.01
14 -0.15
15 -0.15
16 -0.15
17 -0.15
18 -0.11
19 -0.11
2 -0.08
3 -1.01
34 0.15
35 0.15
36 0.15
37 0.15
38 0.15
39 0.15
4 0.5
5 0.64
7 -0.28
8 0.14
9 0.5

>  <PUBCHEM_EFFECTIVE_ROTOR_COUNT>  (1) 
3

>  <PUBCHEM_PHARMACOPHORE_FEATURES>  (1) 
4
1 3 cation
5 1 12 14 16 18 rings
5 2 13 15 17 19 rings
6 3 4 5 6 7 8 rings

>  <PUBCHEM_HEAVY_ATOM_COUNT>  (1) 
19

>  <PUBCHEM_ATOM_DEF_STEREO_COUNT>  (1) 
0

>  <PUBCHEM_ATOM_UDEF_STEREO_COUNT>  (1) 
0

>  <PUBCHEM_BOND_DEF_STEREO_COUNT>  (1) 
0

>  <PUBCHEM_BOND_UDEF_STEREO_COUNT>  (1) 
0

>  <PUBCHEM_ISOTOPIC_ATOM_COUNT>  (1) 
0

>  <PUBCHEM_COMPONENT_COUNT>  (1) 
1

>  <PUBCHEM_CACTVS_TAUTO_COUNT>  (1) 
1

>  <PUBCHEM_CONFORMER_ID>  (1) 
00000F6600000003

>  <PUBCHEM_MMFF94_ENERGY>  (1) 
63.7192

>  <PUBCHEM_FEATURE_SELFOVERLAP>  (1) 
20.297

>  <PUBCHEM_SHAPE_FINGERPRINT>  (1) 
10165383 225 16746244609209736741
104564 63 18340489967425467639
10670039 82 18262532476684515036
10871710 139 18191333574529589868
11578080 2 17630860816552544153
12553582 1 18410857697996618347
12643181 29 17333655973662806902
12788726 201 18121761860454790931
13004483 165 18339071606284908635
13132413 78 18340494455998828737
13140716 1 18411415107457818505
13149001 5 17830461943901096966
13681431 1 18194958775993039249
13911987 19 17971483033647817750
14178342 30 17974831888305221466
14181834 199 17833823155278891021
14787075 74 18120373413439194654
14955137 171 17983606214369752347
15309172 13 17329147966527538800
15664445 248 18270137818880097270
15906896 17 17981034224664509351
16945 1 18195248819260499137
1813 80 18200047264187534719
18785283 64 17539417935010898731
20361792 2 18271236226975961207
20510252 161 18410291402521545384
20600515 1 18194407907850985696
20645476 183 17763179138030814028
21041028 32 18268442393973691321
21304303 282 17324591719265063108
21524375 3 17615411355079285641
21731228 192 17546167398385541489
22112679 90 18126035799453843977
2255824 54 17979353393513747495
22907989 373 18339368435358213900
23402539 116 18340203085459542806
23419403 2 15232620304406012082
23557571 272 18413672400740065758
23558518 356 18115877287076479754
23598288 3 18196925574524967182
23598291 2 17913497015392625455
2748010 2 18268125708480599945
283562 15 18408602561330434754
3091708 16 9280764916243256577
34934 24 18410294688197945955
350125 39 17976829683335665800
352729 6 17907008479058830699
458136 41 17254851187543240355
532947 4 17907576187657285088
5845 1 10986808883676460345
6443956 14 18268424827394056625
7164475 11 18337105644939560246
7364860 26 17837492221438656417
74978 22 17979071579429461498
7615 1 17897160230940188546
7832392 63 17903637376677484698
81228 2 18337667503965851433
9981440 41 16836222777959170322

>  <PUBCHEM_SHAPE_MULTIPOLES>  (1) 
393.73
5.76
4.26
1.36
2.53
4.77
-0.3
-4.89
-0.61
-2.09
0.39
-0.2
0.08
-0.6

>  <PUBCHEM_SHAPE_SELFOVERLAP>  (1) 
814.751

>  <PUBCHEM_SHAPE_VOLUME>  (1) 
228.4

>  <PUBCHEM_COORDINATE_TYPE>  (1) 
2
5
10

$$$$
