39426
     RDKit          3D

 19 20  0  0  0  0  0  0  0  0999 V2000
    0.7302    0.5351    2.2738 O   0  0  0  0  0  0  0  0  0  0  0  0
    1.5722   -2.3134   -1.2820 O   0  0  0  0  0  0  0  0  0  0  0  0
   -3.9495   -0.7824   -0.7911 O   0  0  0  0  0  0  0  0  0  0  0  0
    0.8301   -1.1585    0.6369 N   0  0  0  0  0  0  0  0  0  0  0  0
   -3.8161    1.2964    0.2342 N   0  0  0  0  0  0  0  0  0  0  0  0
   -0.2237   -2.0265    1.0844 C   0  0  0  0  0  0  0  0  0  0  0  0
   -1.5571   -1.7224    0.4047 C   0  0  0  0  0  0  0  0  0  0  0  0
   -2.0812   -0.3111    0.6767 C   0  0  0  0  0  0  0  0  0  0  0  0
    2.3020    0.5732    0.4996 C   0  0  0  0  0  0  0  0  0  0  0  0
    2.5531   -0.2804   -0.5646 C   0  0  0  0  0  0  0  0  0  0  0  0
    1.1932    0.0175    1.2744 C   0  0  0  0  0  0  0  0  0  0  0  0
    1.6085   -1.3942   -0.4854 C   0  0  0  0  0  0  0  0  0  0  0  0
   -3.3813    0.0084   -0.0429 C   0  0  0  0  0  0  0  0  0  0  0  0
    3.0332    1.7260    0.6992 C   0  0  0  0  0  0  0  0  0  0  0  0
    3.5489   -0.0260   -1.4852 C   0  0  0  0  0  0  0  0  0  0  0  0
    4.0479    2.0041   -0.2209 C   0  0  0  0  0  0  0  0  0  0  0  0
    4.3032    1.1365   -1.3028 C   0  0  0  0  0  0  0  0  0  0  0  0
   -5.0150    1.8572   -0.3441 C   0  0  0  0  0  0  0  0  0  0  0  0
   -5.6986    0.8606   -1.2648 C   0  0  0  0  0  0  0  0  0  0  0  0
  1 11  2  0
  2 12  2  0
  3 13  2  0
  4  6  1  0
  4 11  1  0
  4 12  1  0
  5 13  1  0
  5 18  1  0
  6  7  1  0
  7  8  1  0
  8 13  1  0
  9 10  2  0
  9 11  1  0
  9 14  1  0
 10 12  1  0
 10 15  1  0
 14 16  2  0
 15 17  2  0
 16 17  1  0
 18 19  1  0
M  END
>  <PUBCHEM_COMPOUND_CID>  (1) 
39426

>  <PUBCHEM_CONFORMER_RMSD>  (1) 
0.8

>  <PUBCHEM_CONFORMER_DIVERSEORDER>  (1) 
1
21
18
16
3
12
7
14
9
13
20
10
19
6
15
17
2
5
11
4
8

>  <PUBCHEM_MMFF94_PARTIAL_CHARGES>  (1) 
22
1 -0.57
10 0.09
11 0.54
12 0.54
13 0.57
14 -0.15
15 -0.15
16 -0.15
17 -0.15
18 0.3
2 -0.57
26 0.15
27 0.15
28 0.15
29 0.15
3 -0.57
30 0.37
4 -0.42
5 -0.73
6 0.3
8 0.06
9 0.09

>  <PUBCHEM_EFFECTIVE_ROTOR_COUNT>  (1) 
6.2

>  <PUBCHEM_PHARMACOPHORE_FEATURES>  (1) 
6
1 1 acceptor
1 2 acceptor
1 3 acceptor
1 5 donor
5 4 9 10 11 12 rings
6 9 10 14 15 16 17 rings

>  <PUBCHEM_HEAVY_ATOM_COUNT>  (1) 
19

>  <PUBCHEM_ATOM_DEF_STEREO_COUNT>  (1) 
0

>  <PUBCHEM_ATOM_UDEF_STEREO_COUNT>  (1) 
0

>  <PUBCHEM_BOND_DEF_STEREO_COUNT>  (1) 
0

>  <PUBCHEM_BOND_UDEF_STEREO_COUNT>  (1) 
0

>  <PUBCHEM_ISOTOPIC_ATOM_COUNT>  (1) 
0

>  <PUBCHEM_COMPONENT_COUNT>  (1) 
1

>  <PUBCHEM_CACTVS_TAUTO_COUNT>  (1) 
2

>  <PUBCHEM_CONFORMER_ID>  (1) 
00009A0200000001

>  <PUBCHEM_MMFF94_ENERGY>  (1) 
41.1382

>  <PUBCHEM_FEATURE_SELFOVERLAP>  (1) 
30.538

>  <PUBCHEM_SHAPE_FINGERPRINT>  (1) 
10498660 4 18334573534417565381
11796584 16 11959464353018531893
12251169 10 11963396275102593027
12363563 72 11455891381945579831
12633257 1 12396308062381139525
12670546 177 18131069329478687941
12730499 353 18340216240891941299
12824470 246 12822475402084276020
12892183 10 11674874524064049390
13103583 49 8285934496413336829
13464514 151 18410864247926915090
13965767 371 16950834813429027711
1420 369 10952047862351188973
14251764 38 17827083118852126420
14341114 328 15285648706900676781
14848178 96 18334576824077716693
15163728 17 17751384939177684334
15210252 30 18410576184196884409
15342816 4 13398641528268614020
15885798 251 10592042475408536259
16752209 62 14836127602969046303
16945 1 17127930008084447986
17834072 32 18187087307614427973
1798214 55 18113618980291966429
1813 80 12463570694731680099
18186145 218 18058468645442573530
193927 3 12607404420868668797
200 152 16414659128185975768
20403669 9 10807935964183495021
20775530 9 13181091014751095644
21713013 43 16773228625967941719
21756936 100 15576147440228750950
21864079 5 18115021892984333821
221357 26 17775286067134428393
22393880 68 17917710244459140278
22646028 28 11312049963875578661
231179 274 18334580156871715280
23402655 69 18202285788267733681
23557571 272 18115605866491484691
238 59 17704071832304757710
25 1 18200048312270467554
2748010 2 16337812276504257314
2838139 119 18190181376801848436
3009799 131 18272941488554882334
3060560 45 17918272060804731558
316301 35 10735876153641924724
3472631 163 17894911862662766341
4028521 119 18411986887853249169
427121 178 17022906726629269192
474 4 17967536778883336845
633830 44 18265893563064735919
7808743 9 17967820503990562908
960060 61 17132109122437090909

>  <PUBCHEM_SHAPE_MULTIPOLES>  (1) 
363.44
10.4
2.23
1.49
12.5
0.3
0.2
-7.99
-4.47
-0.09
-0.1
-0.73
0.06
0.61

>  <PUBCHEM_SHAPE_SELFOVERLAP>  (1) 
771.003

>  <PUBCHEM_SHAPE_VOLUME>  (1) 
205.1

>  <PUBCHEM_COORDINATE_TYPE>  (1) 
2
5
10

$$$$
