39437
     RDKit          3D

 12 12  0  0  0  0  0  0  0  0999 V2000
   -0.5364   -2.8403    0.0606 I   0  0  0  0  0  0  0  0  0  0  0  0
    1.6505    0.2877   -0.4106 N   0  0  0  0  0  0  0  0  0  0  0  0
    3.8244    0.3092   -1.2065 N   0  0  0  0  0  0  0  0  0  0  0  0
    3.5480    0.0113    1.0362 N   0  0  0  0  0  0  0  0  0  0  0  0
   -0.6841    0.2103    0.3534 C   0  0  0  0  0  0  0  0  0  0  0  0
    0.7577    0.1644    0.7467 C   0  0  0  0  0  0  0  0  0  0  0  0
   -1.4067   -0.9379    0.0285 C   0  0  0  0  0  0  0  0  0  0  0  0
   -1.3051    1.4588    0.3163 C   0  0  0  0  0  0  0  0  0  0  0  0
   -2.7501   -0.8374   -0.3335 C   0  0  0  0  0  0  0  0  0  0  0  0
   -2.6485    1.5591   -0.0457 C   0  0  0  0  0  0  0  0  0  0  0  0
   -3.3710    0.4111   -0.3706 C   0  0  0  0  0  0  0  0  0  0  0  0
    2.9214    0.2037   -0.1749 C   0  0  0  0  0  0  0  0  0  0  0  0
  1  7  1  0
  2  6  1  0
  2 12  2  3
  3 12  1  0
  4 12  1  0
  5  6  1  0
  5  7  2  0
  5  8  1  0
  7  9  1  0
  8 10  2  0
  9 11  2  0
 10 11  1  0
M  END
>  <PUBCHEM_COMPOUND_CID>  (1) 
39437

>  <PUBCHEM_CONFORMER_RMSD>  (1) 
0.6

>  <PUBCHEM_CONFORMER_DIVERSEORDER>  (1) 
2
11
7
9
3
12
6
5
10
1
4
8

>  <PUBCHEM_MMFF94_PARTIAL_CHARGES>  (1) 
20
1 -0.08
10 -0.15
11 -0.15
12 0.55
15 0.15
16 0.15
17 0.15
18 0.15
19 0.4
2 -0.7
20 0.4
21 0.4
22 0.4
3 -0.85
4 -0.85
5 -0.14
6 0.39
7 0.08
8 -0.15
9 -0.15

>  <PUBCHEM_EFFECTIVE_ROTOR_COUNT>  (1) 
2

>  <PUBCHEM_PHARMACOPHORE_FEATURES>  (1) 
5
1 1 hydrophobe
1 3 donor
1 4 donor
4 2 3 4 12 cation
6 5 7 8 9 10 11 rings

>  <PUBCHEM_HEAVY_ATOM_COUNT>  (1) 
12

>  <PUBCHEM_ATOM_DEF_STEREO_COUNT>  (1) 
0

>  <PUBCHEM_ATOM_UDEF_STEREO_COUNT>  (1) 
0

>  <PUBCHEM_BOND_DEF_STEREO_COUNT>  (1) 
0

>  <PUBCHEM_BOND_UDEF_STEREO_COUNT>  (1) 
0

>  <PUBCHEM_ISOTOPIC_ATOM_COUNT>  (1) 
0

>  <PUBCHEM_COMPONENT_COUNT>  (1) 
1

>  <PUBCHEM_CACTVS_TAUTO_COUNT>  (1) 
2

>  <PUBCHEM_CONFORMER_ID>  (1) 
00009A0D00000002

>  <PUBCHEM_MMFF94_ENERGY>  (1) 
36.7517

>  <PUBCHEM_FEATURE_SELFOVERLAP>  (1) 
25.428

>  <PUBCHEM_SHAPE_FINGERPRINT>  (1) 
10726558 24 18338521833079868903
12716758 59 18341609356003679691
12932764 1 18336270123608268032
13024252 1 13117998912040947917
13380535 76 18336824200075099963
14144814 61 18334293167225672264
14325111 11 18410854326293790448
14614273 12 18189889830052592149
14993402 34 18259702311224254237
15669948 3 18335983185385761758
15775835 57 17894915113557376692
16945 1 18411978091876232555
18186145 218 18060140912107157448
20201158 50 17775852315226775758
20279233 1 17704070707519055390
20645476 183 18113623420993017758
20645477 56 18410577318420924576
20871998 184 18198911490203944167
20871999 31 18267868457114079887
23402539 116 18341879805836199893
23463225 33 18189608350443343026
23552423 10 18050281467177319323
23557571 272 18054227902082402744
23559900 14 18273494577226215144
2748010 2 18267311945417024159
305870 269 18190740834508598411
43471831 8 18336823100616453643
7364860 26 17982164513806849939
77492 1 17821719537964411648
81228 2 18051121798766371595
81539 233 18115865201122566655

>  <PUBCHEM_SHAPE_MULTIPOLES>  (1) 
243.95
5.84
2.23
0.89
4.91
2.1
0.02
-1.93
1.07
-1.37
-0.08
0.57
-0.01
-0.15

>  <PUBCHEM_SHAPE_SELFOVERLAP>  (1) 
478.817

>  <PUBCHEM_SHAPE_VOLUME>  (1) 
149.7

>  <PUBCHEM_COORDINATE_TYPE>  (1) 
2
5
10

$$$$
