39434
     RDKit          3D

 11 11  0  0  0  0  0  0  0  0999 V2000
   -2.2172    0.5629   -0.4766 O   0  0  0  0  0  0  0  0  0  0  0  0
   -1.1890   -0.1402    1.4874 O   0  0  0  0  0  0  0  0  0  0  0  0
    1.3444    0.4194    0.2464 C   0  0  0  0  0  0  0  0  0  0  0  0
    1.4567   -1.0458   -0.1630 C   0  0  0  0  0  0  0  0  0  0  0  0
    2.5871    1.0316   -0.3922 C   0  0  0  0  0  0  0  0  0  0  0  0
    2.9446   -1.3556   -0.0295 C   0  0  0  0  0  0  0  0  0  0  0  0
    3.6715   -0.0166   -0.1651 C   0  0  0  0  0  0  0  0  0  0  0  0
    0.0521    1.0720   -0.2124 C   0  0  0  0  0  0  0  0  0  0  0  0
   -1.1669    0.4147    0.3966 C   0  0  0  0  0  0  0  0  0  0  0  0
   -3.4031    0.0110   -0.0324 C   0  0  0  0  0  0  0  0  0  0  0  0
   -4.0801   -0.9535   -0.6591 C   0  0  0  0  0  0  0  0  0  0  0  0
  1  9  1  0
  1 10  1  0
  2  9  2  0
  3  4  1  0
  3  5  1  0
  3  8  1  0
  4  6  1  0
  5  7  1  0
  6  7  1  0
  8  9  1  0
 10 11  2  0
M  END
>  <PUBCHEM_COMPOUND_CID>  (1) 
39434

>  <PUBCHEM_CONFORMER_RMSD>  (1) 
0.6

>  <PUBCHEM_CONFORMER_DIVERSEORDER>  (1) 
1
35
20
5
26
9
34
46
30
3
27
47
41
10
31
37
2
14
32
42
17
24
44
23
38
11
4
16
18
15
36
13
7
28
39
40
6
19
21
33
45
43
22
12
25
8
29

>  <PUBCHEM_MMFF94_PARTIAL_CHARGES>  (1) 
9
1 -0.23
10 -0.07
11 -0.3
2 -0.57
23 0.15
24 0.15
25 0.15
8 0.06
9 0.66

>  <PUBCHEM_EFFECTIVE_ROTOR_COUNT>  (1) 
5

>  <PUBCHEM_PHARMACOPHORE_FEATURES>  (1) 
2
1 2 acceptor
5 3 4 5 6 7 rings

>  <PUBCHEM_HEAVY_ATOM_COUNT>  (1) 
11

>  <PUBCHEM_ATOM_DEF_STEREO_COUNT>  (1) 
0

>  <PUBCHEM_ATOM_UDEF_STEREO_COUNT>  (1) 
0

>  <PUBCHEM_BOND_DEF_STEREO_COUNT>  (1) 
0

>  <PUBCHEM_BOND_UDEF_STEREO_COUNT>  (1) 
0

>  <PUBCHEM_ISOTOPIC_ATOM_COUNT>  (1) 
0

>  <PUBCHEM_COMPONENT_COUNT>  (1) 
1

>  <PUBCHEM_CACTVS_TAUTO_COUNT>  (1) 
1

>  <PUBCHEM_CONFORMER_ID>  (1) 
00009A0A00000001

>  <PUBCHEM_MMFF94_ENERGY>  (1) 
20.4846

>  <PUBCHEM_FEATURE_SELFOVERLAP>  (1) 
10.148

>  <PUBCHEM_SHAPE_FINGERPRINT>  (1) 
10857977 72 14692569918617031985
11062470 55 17458064871686661708
11769659 78 18201431485060579079
12251169 10 11959724997493404261
12932764 1 17418082222338321965
13705890 14 18408881853973115831
14251717 144 18410009952961405310
14252887 29 16773804713777713998
14325111 11 18410573972361657261
14350558 41 18202004334692097727
15477762 27 18409728490779743916
15757776 16 18408037399200031718
177051 138 17775286049368769374
18186145 218 17312819360172543437
200 152 18342738515790602347
20201158 50 18113903745034206362
20279233 1 17821453464977762296
20645477 70 18336541625644842351
21293036 1 17313103064152774141
22485316 2 18272364278692586749
23402539 116 17531235149964360724
23402655 69 18334010554040592773
3248919 1 17822022998931698152
57812782 119 18040433291291736495
581208 293 18410291428243876032

>  <PUBCHEM_SHAPE_MULTIPOLES>  (1) 
214.64
7
1.24
0.85
3.67
0.19
0.19
1.86
-1.3
-0.51
-0.13
0.31
0.01
-0.27

>  <PUBCHEM_SHAPE_SELFOVERLAP>  (1) 
421.382

>  <PUBCHEM_SHAPE_VOLUME>  (1) 
129.9

>  <PUBCHEM_COORDINATE_TYPE>  (1) 
2
5
10

$$$$
