39436
     RDKit          3D

 12 12  0  0  0  0  0  0  0  0999 V2000
    1.6713    0.1555    0.4222 N   0  0  0  0  0  0  0  0  0  0  0  0
    3.8474    0.2104    1.2090 N   0  0  0  0  0  0  0  0  0  0  0  0
    3.5684    0.0538   -1.0477 N   0  0  0  0  0  0  0  0  0  0  0  0
   -0.6624    0.1702   -0.3487 C   0  0  0  0  0  0  0  0  0  0  0  0
   -1.4005   -0.9733   -0.0430 C   0  0  0  0  0  0  0  0  0  0  0  0
    0.7762    0.0749   -0.7380 C   0  0  0  0  0  0  0  0  0  0  0  0
   -1.2671    1.4261   -0.2932 C   0  0  0  0  0  0  0  0  0  0  0  0
   -2.7432   -0.8608    0.3181 C   0  0  0  0  0  0  0  0  0  0  0  0
   -0.7753   -2.3288   -0.0964 C   0  0  0  0  0  0  0  0  0  0  0  0
   -2.6097    1.5385    0.0680 C   0  0  0  0  0  0  0  0  0  0  0  0
   -3.3476    0.3951    0.3736 C   0  0  0  0  0  0  0  0  0  0  0  0
    2.9425    0.1386    0.1761 C   0  0  0  0  0  0  0  0  0  0  0  0
  1  6  1  0
  1 12  2  3
  2 12  1  0
  3 12  1  0
  4  5  2  0
  4  6  1  0
  4  7  1  0
  5  8  1  0
  5  9  1  0
  7 10  2  0
  8 11  2  0
 10 11  1  0
M  END
>  <PUBCHEM_COMPOUND_CID>  (1) 
39436

>  <PUBCHEM_CONFORMER_RMSD>  (1) 
0.6

>  <PUBCHEM_CONFORMER_DIVERSEORDER>  (1) 
1
9
13
10
12
4
3
7
11
5
6
2
8

>  <PUBCHEM_MMFF94_PARTIAL_CHARGES>  (1) 
20
1 -0.7
10 -0.15
11 -0.15
12 0.55
15 0.15
16 0.15
2 -0.85
20 0.15
21 0.15
22 0.4
23 0.4
24 0.4
25 0.4
3 -0.85
4 -0.14
5 -0.14
6 0.39
7 -0.15
8 -0.15
9 0.14

>  <PUBCHEM_EFFECTIVE_ROTOR_COUNT>  (1) 
2

>  <PUBCHEM_PHARMACOPHORE_FEATURES>  (1) 
4
1 2 donor
1 3 donor
4 1 2 3 12 cation
6 4 5 7 8 10 11 rings

>  <PUBCHEM_HEAVY_ATOM_COUNT>  (1) 
12

>  <PUBCHEM_ATOM_DEF_STEREO_COUNT>  (1) 
0

>  <PUBCHEM_ATOM_UDEF_STEREO_COUNT>  (1) 
0

>  <PUBCHEM_BOND_DEF_STEREO_COUNT>  (1) 
0

>  <PUBCHEM_BOND_UDEF_STEREO_COUNT>  (1) 
0

>  <PUBCHEM_ISOTOPIC_ATOM_COUNT>  (1) 
0

>  <PUBCHEM_COMPONENT_COUNT>  (1) 
1

>  <PUBCHEM_CACTVS_TAUTO_COUNT>  (1) 
2

>  <PUBCHEM_CONFORMER_ID>  (1) 
00009A0C00000001

>  <PUBCHEM_MMFF94_ENERGY>  (1) 
35.7286

>  <PUBCHEM_FEATURE_SELFOVERLAP>  (1) 
20.353

>  <PUBCHEM_SHAPE_FINGERPRINT>  (1) 
11132069 177 18341894095361269861
12251169 10 18336260219397845960
12932764 1 17918273156016136630
13024252 1 14129054807861139101
14144814 61 18333731316752178144
14325111 11 18410857616201796429
14993402 34 18186804694660885349
15219456 202 17988087690182354646
15669948 3 18336269058350890038
15775835 57 18335985281034117585
16945 1 18409735079634174239
17846911 113 18341609296180189969
18186145 218 17846503586605926824
19422 9 17676209069764802754
20279233 1 17918274255722858646
20510252 161 18272374161296647865
20645464 45 18131631188014543591
20871998 184 18270970166636901863
23402539 116 18271795865915558471
23463225 33 18114741525729221530
23559900 14 18271813389424044814
257057 1 17478316995676832919
2748010 2 18047485426387656375
369184 2 17846497032585988391
43471831 8 18334293128608500651
5706482 22 18410284783940265619
6333449 129 18342173375693938999
7364860 26 17910396091411488247
75552 356 18409168843798604365
77492 1 17531253876148254780

>  <PUBCHEM_SHAPE_MULTIPOLES>  (1) 
232.01
6.09
1.64
0.87
5.25
0.68
-0.02
-1.14
-1.13
-1.32
0.06
0.62
-0.04
0.09

>  <PUBCHEM_SHAPE_SELFOVERLAP>  (1) 
475.104

>  <PUBCHEM_SHAPE_VOLUME>  (1) 
132.3

>  <PUBCHEM_COORDINATE_TYPE>  (1) 
2
5
10

$$$$
