39440
     RDKit          3D

 12 12  0  0  0  0  0  0  0  0999 V2000
    4.6885   -0.0252    0.5467 Cl  0  0  0  0  0  0  0  0  0  0  0  0
   -2.0090    0.0465    0.4319 N   0  0  0  0  0  0  0  0  0  0  0  0
   -4.1458    0.0145    1.3192 N   0  0  0  0  0  0  0  0  0  0  0  0
   -3.9691   -0.0685   -0.9517 N   0  0  0  0  0  0  0  0  0  0  0  0
    0.2878    0.0132   -0.4425 C   0  0  0  0  0  0  0  0  0  0  0  0
   -1.1671    0.0259   -0.7709 C   0  0  0  0  0  0  0  0  0  0  0  0
    0.9813    1.2151   -0.3016 C   0  0  0  0  0  0  0  0  0  0  0  0
    0.9549   -1.2007   -0.2774 C   0  0  0  0  0  0  0  0  0  0  0  0
    2.3422    1.2032    0.0044 C   0  0  0  0  0  0  0  0  0  0  0  0
    2.3158   -1.2126    0.0286 C   0  0  0  0  0  0  0  0  0  0  0  0
    3.0095   -0.0106    0.1696 C   0  0  0  0  0  0  0  0  0  0  0  0
   -3.2890   -0.0008    0.2438 C   0  0  0  0  0  0  0  0  0  0  0  0
  1 11  1  0
  2  6  1  0
  2 12  2  3
  3 12  1  0
  4 12  1  0
  5  6  1  0
  5  7  2  0
  5  8  1  0
  7  9  1  0
  8 10  2  0
  9 11  2  0
 10 11  1  0
M  END
>  <PUBCHEM_COMPOUND_CID>  (1) 
39440

>  <PUBCHEM_CONFORMER_RMSD>  (1) 
0.6

>  <PUBCHEM_CONFORMER_DIVERSEORDER>  (1) 
1
2
3

>  <PUBCHEM_MMFF94_PARTIAL_CHARGES>  (1) 
20
1 -0.18
10 -0.15
11 0.18
12 0.55
15 0.15
16 0.15
17 0.15
18 0.15
19 0.4
2 -0.7
20 0.4
21 0.4
22 0.4
3 -0.85
4 -0.85
5 -0.14
6 0.39
7 -0.15
8 -0.15
9 -0.15

>  <PUBCHEM_EFFECTIVE_ROTOR_COUNT>  (1) 
2

>  <PUBCHEM_PHARMACOPHORE_FEATURES>  (1) 
4
1 3 donor
1 4 donor
4 2 3 4 12 cation
6 5 7 8 9 10 11 rings

>  <PUBCHEM_HEAVY_ATOM_COUNT>  (1) 
12

>  <PUBCHEM_ATOM_DEF_STEREO_COUNT>  (1) 
0

>  <PUBCHEM_ATOM_UDEF_STEREO_COUNT>  (1) 
0

>  <PUBCHEM_BOND_DEF_STEREO_COUNT>  (1) 
0

>  <PUBCHEM_BOND_UDEF_STEREO_COUNT>  (1) 
0

>  <PUBCHEM_ISOTOPIC_ATOM_COUNT>  (1) 
0

>  <PUBCHEM_COMPONENT_COUNT>  (1) 
1

>  <PUBCHEM_CACTVS_TAUTO_COUNT>  (1) 
2

>  <PUBCHEM_CONFORMER_ID>  (1) 
00009A1000000001

>  <PUBCHEM_MMFF94_ENERGY>  (1) 
32.1017

>  <PUBCHEM_FEATURE_SELFOVERLAP>  (1) 
20.353

>  <PUBCHEM_SHAPE_FINGERPRINT>  (1) 
10219947 1 18409165515288653348
11062470 55 14201115704343821814
11471102 20 18409724067406592676
12032990 46 18262237712498254022
12251169 10 18410576201391622587
124424 183 17676199174154916901
12500047 106 16732974324063967115
13922767 16 18410851070777333664
14251717 144 18411976962041546407
14252887 29 18409735023905321850
14943859 89 14692566628682561286
15775835 57 17275107223467253099
17844478 74 18040713645324363180
200 152 18272076202620252213
20201158 50 18186238411565013219
20279233 1 17821729425295787279
20281407 28 17167865235828726739
20645477 70 18264476304913380303
20871998 22 18196658397905607870
22485316 2 16298381361973692178
23402539 116 14056995023063037422
23402655 69 18341885260814087013
26918003 58 18261115179782305889
2748010 2 18051117104751706318

>  <PUBCHEM_SHAPE_MULTIPOLES>  (1) 
233.88
8.11
1.11
0.91
3.43
0.01
-0.09
-0.11
-2.1
-0.81
0.08
0.69
0
-0.02

>  <PUBCHEM_SHAPE_SELFOVERLAP>  (1) 
470.756

>  <PUBCHEM_SHAPE_VOLUME>  (1) 
138.1

>  <PUBCHEM_COORDINATE_TYPE>  (1) 
2
5
10

$$$$
