39446
     RDKit          3D

 14 14  0  0  0  0  0  0  0  0999 V2000
    0.0835   -0.6635   -0.8281 O   0  0  0  0  0  0  0  0  0  0  0  0
    2.5629    0.1433    0.2623 N   0  0  0  0  0  0  0  0  0  0  0  0
    4.0511    1.8657    0.6910 N   0  0  0  0  0  0  0  0  0  0  0  0
    4.9002   -0.0199   -0.2672 N   0  0  0  0  0  0  0  0  0  0  0  0
   -1.1809   -0.4548   -0.3700 C   0  0  0  0  0  0  0  0  0  0  0  0
    0.8937   -1.5862   -0.1013 C   0  0  0  0  0  0  0  0  0  0  0  0
   -3.0952    0.9934   -0.0964 C   0  0  0  0  0  0  0  0  0  0  0  0
   -1.7990    0.7802   -0.5656 C   0  0  0  0  0  0  0  0  0  0  0  0
    2.3547   -1.2086   -0.2635 C   0  0  0  0  0  0  0  0  0  0  0  0
   -1.8589   -1.4766    0.2948 C   0  0  0  0  0  0  0  0  0  0  0  0
   -3.7733   -0.0284    0.5683 C   0  0  0  0  0  0  0  0  0  0  0  0
   -3.1553   -1.2634    0.7640 C   0  0  0  0  0  0  0  0  0  0  0  0
   -3.7563    2.3135   -0.3056 C   0  0  0  0  0  0  0  0  0  0  0  0
    3.7728    0.6053    0.2174 C   0  0  0  0  0  0  0  0  0  0  0  0
  1  5  1  0
  1  6  1  0
  2  9  1  0
  2 14  2  3
  3 14  1  0
  4 14  1  0
  5  8  2  0
  5 10  1  0
  6  9  1  0
  7  8  1  0
  7 11  2  0
  7 13  1  0
 10 12  2  0
 11 12  1  0
M  END
>  <PUBCHEM_COMPOUND_CID>  (1) 
39446

>  <PUBCHEM_CONFORMER_RMSD>  (1) 
0.6

>  <PUBCHEM_CONFORMER_DIVERSEORDER>  (1) 
1
76
72
91
35
16
28
42
57
77
90
15
10
25
55
8
21
84
27
74
64
39
51
7
14
38
52
19
47
4
79
24
17
30
6
71
82
49
75
3
73
34
80
12
20
89
83
9
13
44
48
87
70
69
5
32
68
26
62
2
67
65
40
45
41
37
59
43
81
56
31
18
54
86
61
22
63
33
66
36
58
11
60
23
88
29
53
50
85
78
46

>  <PUBCHEM_MMFF94_PARTIAL_CHARGES>  (1) 
22
1 -0.36
10 -0.15
11 -0.15
12 -0.15
13 0.14
14 0.55
17 0.15
2 -0.7
20 0.15
21 0.15
22 0.15
26 0.4
27 0.4
28 0.4
29 0.4
3 -0.85
4 -0.85
5 0.08
6 0.28
7 -0.14
8 -0.15
9 0.25

>  <PUBCHEM_EFFECTIVE_ROTOR_COUNT>  (1) 
4

>  <PUBCHEM_PHARMACOPHORE_FEATURES>  (1) 
5
1 1 acceptor
1 3 donor
1 4 donor
4 2 3 4 14 cation
6 5 7 8 10 11 12 rings

>  <PUBCHEM_HEAVY_ATOM_COUNT>  (1) 
14

>  <PUBCHEM_ATOM_DEF_STEREO_COUNT>  (1) 
0

>  <PUBCHEM_ATOM_UDEF_STEREO_COUNT>  (1) 
0

>  <PUBCHEM_BOND_DEF_STEREO_COUNT>  (1) 
0

>  <PUBCHEM_BOND_UDEF_STEREO_COUNT>  (1) 
0

>  <PUBCHEM_ISOTOPIC_ATOM_COUNT>  (1) 
0

>  <PUBCHEM_COMPONENT_COUNT>  (1) 
1

>  <PUBCHEM_CACTVS_TAUTO_COUNT>  (1) 
2

>  <PUBCHEM_CONFORMER_ID>  (1) 
00009A1600000001

>  <PUBCHEM_MMFF94_ENERGY>  (1) 
44.0805

>  <PUBCHEM_FEATURE_SELFOVERLAP>  (1) 
25.428

>  <PUBCHEM_SHAPE_FINGERPRINT>  (1) 
10608611 8 18338798918478573255
11132069 177 18113340799465384239
122479 349 18338796715350293477
12251169 10 18040720285364797663
12507560 40 18337115570487590567
13081056 2 18342741844701434608
13214271 11 18409165515399488263
13897977 13 18411421751761480609
14123255 52 18342452656000533006
14178342 30 17603877684520997139
14252887 29 13912321257816733522
15219456 202 18340210695656502503
18186145 218 17703514380516078242
19107657 162 10881392132737760816
20510252 161 18411143494226770123
20645477 56 18335144138002428869
20645477 70 17417540107577475830
21065199 12 18334577936321135690
21652331 79 18411699928171808952
22485316 2 9727641592073748142
22926399 37 17561365084559620601
22959321 60 18409166631937900288
231179 274 18201721734818953766
23402539 116 18335698390942890831
23500284 214 18337676304559471617
23557571 272 18340216244922820207
23559900 14 18196649588600999706
27216 239 18409729590655342579
3009799 131 17968368040451116407
449060 50 18412549803420551847
5104073 3 18262239919647214851
90316 7 17023179392791911429

>  <PUBCHEM_SHAPE_MULTIPOLES>  (1) 
267.3
9.18
1.99
0.79
8.02
0.6
0.02
4.14
1.27
-0.9
0.1
-0.12
-0.01
1.01

>  <PUBCHEM_SHAPE_SELFOVERLAP>  (1) 
541.889

>  <PUBCHEM_SHAPE_VOLUME>  (1) 
155.4

>  <PUBCHEM_COORDINATE_TYPE>  (1) 
2
5
10

$$$$
