39444
     RDKit          3D

 14 14  0  0  0  0  0  0  0  0999 V2000
   -0.1891   -0.7782   -0.7020 O   0  0  0  0  0  0  0  0  0  0  0  0
    2.3484    0.0070    0.2623 N   0  0  0  0  0  0  0  0  0  0  0  0
    3.9905    1.6374    0.3661 N   0  0  0  0  0  0  0  0  0  0  0  0
    4.6630   -0.4754   -0.1621 N   0  0  0  0  0  0  0  0  0  0  0  0
   -1.4322   -0.3647   -0.3275 C   0  0  0  0  0  0  0  0  0  0  0  0
   -1.7283    0.9935   -0.2142 C   0  0  0  0  0  0  0  0  0  0  0  0
    0.5250   -1.6003    0.2189 C   0  0  0  0  0  0  0  0  0  0  0  0
    2.0162   -1.3996    0.0203 C   0  0  0  0  0  0  0  0  0  0  0  0
   -2.4142   -1.3176   -0.0562 C   0  0  0  0  0  0  0  0  0  0  0  0
   -3.0062    1.3992    0.1704 C   0  0  0  0  0  0  0  0  0  0  0  0
   -0.6897    2.0274   -0.5005 C   0  0  0  0  0  0  0  0  0  0  0  0
   -3.6922   -0.9120    0.3283 C   0  0  0  0  0  0  0  0  0  0  0  0
   -3.9882    0.4463    0.4416 C   0  0  0  0  0  0  0  0  0  0  0  0
    3.5969    0.3370    0.1545 C   0  0  0  0  0  0  0  0  0  0  0  0
  1  5  1  0
  1  7  1  0
  2  8  1  0
  2 14  2  3
  3 14  1  0
  4 14  1  0
  5  6  2  0
  5  9  1  0
  6 10  1  0
  6 11  1  0
  7  8  1  0
  9 12  2  0
 10 13  2  0
 12 13  1  0
M  END
>  <PUBCHEM_COMPOUND_CID>  (1) 
39444

>  <PUBCHEM_CONFORMER_RMSD>  (1) 
0.6

>  <PUBCHEM_CONFORMER_DIVERSEORDER>  (1) 
1
54
28
49
19
90
14
60
101
23
106
53
102
51
37
22
41
74
76
68
96
48
78
85
71
56
66
15
97
31
55
18
87
52
34
99
6
91
50
12
61
109
82
58
33
43
2
30
57
44
81
29
69
45
95
3
35
77
103
47
64
8
79
67
98
32
20
10
25
59
42
24
62
80
65
70
5
73
93
105
92
63
39
89
9
108
36
107
38
100
110
11
75
72
4
84
17
94
40
16
26
88
7
86
21
27
83
104
13
46

>  <PUBCHEM_MMFF94_PARTIAL_CHARGES>  (1) 
22
1 -0.36
10 -0.15
11 0.14
12 -0.15
13 -0.15
14 0.55
19 0.15
2 -0.7
20 0.15
24 0.15
25 0.15
26 0.4
27 0.4
28 0.4
29 0.4
3 -0.85
4 -0.85
5 0.08
6 -0.14
7 0.28
8 0.25
9 -0.15

>  <PUBCHEM_EFFECTIVE_ROTOR_COUNT>  (1) 
4

>  <PUBCHEM_PHARMACOPHORE_FEATURES>  (1) 
5
1 1 acceptor
1 3 donor
1 4 donor
4 2 3 4 14 cation
6 5 6 9 10 12 13 rings

>  <PUBCHEM_HEAVY_ATOM_COUNT>  (1) 
14

>  <PUBCHEM_ATOM_DEF_STEREO_COUNT>  (1) 
0

>  <PUBCHEM_ATOM_UDEF_STEREO_COUNT>  (1) 
0

>  <PUBCHEM_BOND_DEF_STEREO_COUNT>  (1) 
0

>  <PUBCHEM_BOND_UDEF_STEREO_COUNT>  (1) 
0

>  <PUBCHEM_ISOTOPIC_ATOM_COUNT>  (1) 
0

>  <PUBCHEM_COMPONENT_COUNT>  (1) 
1

>  <PUBCHEM_CACTVS_TAUTO_COUNT>  (1) 
2

>  <PUBCHEM_CONFORMER_ID>  (1) 
00009A1400000001

>  <PUBCHEM_MMFF94_ENERGY>  (1) 
44.9679

>  <PUBCHEM_FEATURE_SELFOVERLAP>  (1) 
25.427

>  <PUBCHEM_SHAPE_FINGERPRINT>  (1) 
10608611 8 18266739090957437621
11132069 177 18408039623803005101
12346645 44 18410854356364135146
13081056 2 18342177778119806858
13214271 11 18410572890425550695
13549 16 10592046847136513379
13897977 13 18412827984336798529
13897977 58 18410579508495302580
14445660 50 18342745087523062609
15196674 1 18410855481903964496
15219456 202 18129951065628448511
15536298 74 18342177795289438420
15775835 57 18342175557442379818
20528008 55 18410007698530738799
20645476 183 13542455445737119069
21652331 79 18409728473906082992
22959321 45 18407761425944357100
23402539 116 18411129260167561582
23557571 272 18201447998867187895
23559900 14 18195241114116043882
7097593 13 17464802485615898090
7364860 26 18196372507402252206
77779 3 18412827971383324770

>  <PUBCHEM_SHAPE_MULTIPOLES>  (1) 
267.3
8.25
1.92
0.69
6.38
0.41
-0.01
1.06
1.22
-0.11
-0.05
-0.11
0.02
0.19

>  <PUBCHEM_SHAPE_SELFOVERLAP>  (1) 
542.381

>  <PUBCHEM_SHAPE_VOLUME>  (1) 
155.1

>  <PUBCHEM_COORDINATE_TYPE>  (1) 
2
5
10

$$$$
