39452
     RDKit          3D

 15 15  0  0  0  0  0  0  0  0999 V2000
   -0.0134    0.3160    0.2114 O   0  0  0  0  0  0  0  0  0  0  0  0
    2.7331   -0.2699   -0.1006 N   0  0  0  0  0  0  0  0  0  0  0  0
    4.6469   -1.2345    0.7780 N   0  0  0  0  0  0  0  0  0  0  0  0
    4.8381    0.8855   -0.0367 N   0  0  0  0  0  0  0  0  0  0  0  0
   -1.3520    0.0640    0.1420 C   0  0  0  0  0  0  0  0  0  0  0  0
   -2.2648    1.1126    0.2545 C   0  0  0  0  0  0  0  0  0  0  0  0
   -1.8084   -1.2412   -0.0415 C   0  0  0  0  0  0  0  0  0  0  0  0
    0.6554    0.6004   -1.0149 C   0  0  0  0  0  0  0  0  0  0  0  0
   -3.6341    0.8561    0.1835 C   0  0  0  0  0  0  0  0  0  0  0  0
   -3.1776   -1.4978   -0.1127 C   0  0  0  0  0  0  0  0  0  0  0  0
   -4.0904   -0.4491   -0.0002 C   0  0  0  0  0  0  0  0  0  0  0  0
   -1.7961    2.5166    0.4524 C   0  0  0  0  0  0  0  0  0  0  0  0
   -0.8474   -2.3776   -0.1651 C   0  0  0  0  0  0  0  0  0  0  0  0
    2.1164    0.8994   -0.7332 C   0  0  0  0  0  0  0  0  0  0  0  0
    3.9944   -0.1804    0.1832 C   0  0  0  0  0  0  0  0  0  0  0  0
  1  5  1  0
  1  8  1  0
  2 14  1  0
  2 15  2  3
  3 15  1  0
  4 15  1  0
  5  6  2  0
  5  7  1  0
  6  9  1  0
  6 12  1  0
  7 10  2  0
  7 13  1  0
  8 14  1  0
  9 11  2  0
 10 11  1  0
M  END
>  <PUBCHEM_COMPOUND_CID>  (1) 
39452

>  <PUBCHEM_CONFORMER_RMSD>  (1) 
0.6

>  <PUBCHEM_CONFORMER_DIVERSEORDER>  (1) 
1
16
21
3
9
19
6
20
2
18
7
12
14
4
15
5
13
17
8
11
10

>  <PUBCHEM_MMFF94_PARTIAL_CHARGES>  (1) 
22
1 -0.36
10 -0.15
11 -0.15
12 0.14
13 0.14
14 0.25
15 0.55
18 0.15
19 0.15
2 -0.7
20 0.15
29 0.4
3 -0.85
30 0.4
31 0.4
32 0.4
4 -0.85
5 0.08
6 -0.14
7 -0.14
8 0.28
9 -0.15

>  <PUBCHEM_EFFECTIVE_ROTOR_COUNT>  (1) 
4

>  <PUBCHEM_PHARMACOPHORE_FEATURES>  (1) 
5
1 1 acceptor
1 3 donor
1 4 donor
4 2 3 4 15 cation
6 5 6 7 9 10 11 rings

>  <PUBCHEM_HEAVY_ATOM_COUNT>  (1) 
15

>  <PUBCHEM_ATOM_DEF_STEREO_COUNT>  (1) 
0

>  <PUBCHEM_ATOM_UDEF_STEREO_COUNT>  (1) 
0

>  <PUBCHEM_BOND_DEF_STEREO_COUNT>  (1) 
0

>  <PUBCHEM_BOND_UDEF_STEREO_COUNT>  (1) 
0

>  <PUBCHEM_ISOTOPIC_ATOM_COUNT>  (1) 
0

>  <PUBCHEM_COMPONENT_COUNT>  (1) 
1

>  <PUBCHEM_CACTVS_TAUTO_COUNT>  (1) 
2

>  <PUBCHEM_CONFORMER_ID>  (1) 
00009A1C00000001

>  <PUBCHEM_MMFF94_ENERGY>  (1) 
49.4938

>  <PUBCHEM_FEATURE_SELFOVERLAP>  (1) 
25.428

>  <PUBCHEM_SHAPE_FINGERPRINT>  (1) 
10062212 137 18409163329403896891
10366900 7 17847060008467436632
10465860 250 18060134336485840624
12107183 9 17760927343007929840
12236239 1 18040715866075519601
12251169 10 18409449206727107580
13167823 11 18335419058822246106
13690532 89 18260547840013650551
13862211 1 18340487876578696015
14614273 12 18263085423162997589
15042514 8 18339086003221331179
15536298 74 18199472073619972342
17804303 29 18413393150350750804
17834072 33 18334299803419812060
17977361 122 18408317783123225859
200 152 18336259124249640551
20510252 161 18201444640308199009
20645477 70 14996273692326974560
22485316 2 18260545632637804724
2297311 6 18129678468649689100
2306618 200 18114456778293601213
23402539 116 18272081700120505245
23463225 33 18334016081462970990
23557571 272 17703524202626749484
23559900 14 18130517344729780300
42 15 18407760326648903154
4214541 1 18410855430580595784
43471831 8 18336549304962133851
5104073 3 18410576197291861000
5706482 22 18340489976395171419
573450 72 18409161087156252824
58051976 100 18260834833928371766
69090 78 18412824689780332399
9709674 26 18342465850071956086

>  <PUBCHEM_SHAPE_MULTIPOLES>  (1) 
287.88
8.76
2.1
0.77
10.35
0.04
0.07
0.62
-1.22
-1.33
-0.16
0.24
-0.06
-0.68

>  <PUBCHEM_SHAPE_SELFOVERLAP>  (1) 
585.38

>  <PUBCHEM_SHAPE_VOLUME>  (1) 
167.1

>  <PUBCHEM_COORDINATE_TYPE>  (1) 
2
5
10

$$$$
