39458
     RDKit          3D

 16 16  0  0  1  0  0  0  0  0999 V2000
   -0.1111    0.5368   -0.3843 O   0  0  0  0  0  0  0  0  0  0  0  0
    2.6909    0.3553   -0.2185 N   0  0  0  0  0  0  0  0  0  0  0  0
    4.6685   -0.1297   -1.3202 N   0  0  0  0  0  0  0  0  0  0  0  0
    4.3067   -1.1858    0.6670 N   0  0  0  0  0  0  0  0  0  0  0  0
    0.5608    0.9449    0.8058 C   0  0  0  0  0  0  0  0  0  0  0  0
   -1.3743    0.0332   -0.2333 C   0  0  0  0  0  0  0  0  0  0  0  0
    1.8360    0.1212    0.9501 C   0  0  0  0  0  0  0  0  0  0  0  0
   -2.4721    0.8893   -0.2794 C   0  0  0  0  0  0  0  0  0  0  0  0
   -1.5565   -1.3330   -0.0334 C   0  0  0  0  0  0  0  0  0  0  0  0
    0.8733    2.4316    0.7042 C   0  0  0  0  0  0  0  0  0  0  0  0
   -3.7598    0.3758   -0.1245 C   0  0  0  0  0  0  0  0  0  0  0  0
   -2.8442   -1.8464    0.1212 C   0  0  0  0  0  0  0  0  0  0  0  0
   -2.2935    2.3564   -0.4920 C   0  0  0  0  0  0  0  0  0  0  0  0
   -0.3899   -2.2637    0.0196 C   0  0  0  0  0  0  0  0  0  0  0  0
   -3.9458   -0.9918    0.0757 C   0  0  0  0  0  0  0  0  0  0  0  0
    3.8109   -0.2941   -0.2580 C   0  0  0  0  0  0  0  0  0  0  0  0
  1  5  1  0
  1  6  1  0
  2  7  1  0
  2 16  2  3
  3 16  1  0
  4 16  1  0
  5  7  1  0
  5 10  1  0
  6  8  2  0
  6  9  1  0
  8 11  1  0
  8 13  1  0
  9 12  2  0
  9 14  1  0
 11 15  2  0
 12 15  1  0
M  END
>  <PUBCHEM_COMPOUND_CID>  (1) 
39458

>  <PUBCHEM_CONFORMER_RMSD>  (1) 
0.6

>  <PUBCHEM_CONFORMER_DIVERSEORDER>  (1) 
1
17
38
26
41
36
30
9
42
24
21
12
2
13
3
35
33
29
28
14
40
18
6
8
43
5
37
19
34
4
20
32
10
25
27
7
22
11
39
31
15
16
23

>  <PUBCHEM_MMFF94_PARTIAL_CHARGES>  (1) 
22
1 -0.36
11 -0.15
12 -0.15
13 0.14
14 0.14
15 -0.15
16 0.55
2 -0.7
23 0.15
24 0.15
3 -0.85
31 0.15
32 0.4
33 0.4
34 0.4
35 0.4
4 -0.85
5 0.28
6 0.08
7 0.25
8 -0.14
9 -0.14

>  <PUBCHEM_EFFECTIVE_ROTOR_COUNT>  (1) 
4

>  <PUBCHEM_PHARMACOPHORE_FEATURES>  (1) 
5
1 1 acceptor
1 3 donor
1 4 donor
4 2 3 4 16 cation
6 6 8 9 11 12 15 rings

>  <PUBCHEM_HEAVY_ATOM_COUNT>  (1) 
16

>  <PUBCHEM_ATOM_DEF_STEREO_COUNT>  (1) 
0

>  <PUBCHEM_ATOM_UDEF_STEREO_COUNT>  (1) 
1

>  <PUBCHEM_BOND_DEF_STEREO_COUNT>  (1) 
0

>  <PUBCHEM_BOND_UDEF_STEREO_COUNT>  (1) 
0

>  <PUBCHEM_ISOTOPIC_ATOM_COUNT>  (1) 
0

>  <PUBCHEM_COMPONENT_COUNT>  (1) 
1

>  <PUBCHEM_CACTVS_TAUTO_COUNT>  (1) 
2

>  <PUBCHEM_CONFORMER_ID>  (1) 
00009A2200000001

>  <PUBCHEM_MMFF94_ENERGY>  (1) 
55.4353

>  <PUBCHEM_FEATURE_SELFOVERLAP>  (1) 
25.427

>  <PUBCHEM_SHAPE_FINGERPRINT>  (1) 
10465860 250 18343297050881679296
10465860 71 18410582798899349756
10751810 167 18260550021788380682
11458722 379 18409731737801809042
12011746 2 18409724046195409469
12186901 62 18040146306346739053
13296908 3 18272643576147440592
14386348 63 17775011180637368054
16752209 62 18336809927961663083
16945 1 18337935849575405347
17804303 29 18411419544290533403
17870717 6 18271260338906277190
19422 9 17894909603314685530
20325693 3 18335147479064933807
20871999 31 18410580578301043908
22094290 60 18333452040630015485
23175994 123 17418097619701159009
23402539 116 18342448218935293700
23557571 272 18342458149770464144
23559900 14 18271802368770058570
23598291 2 17459179686678442000
2748010 2 18121483903182792097
3004659 81 18261114024763657254
3286 77 16987992946645052251
474 4 16517104023770428860
559249 180 18116987785372900154
58051976 100 18260551129795010708
7364860 26 18054506073918461568
81228 2 17630339545167803024
8809292 202 18410293644225578331
9709674 26 18124309673261110346

>  <PUBCHEM_SHAPE_MULTIPOLES>  (1) 
308.46
7.81
2.33
0.88
6.63
0.48
-0.02
-2.1
-1.33
-1.18
0.17
0.64
0.12
0.37

>  <PUBCHEM_SHAPE_SELFOVERLAP>  (1) 
628.191

>  <PUBCHEM_SHAPE_VOLUME>  (1) 
179.6

>  <PUBCHEM_COORDINATE_TYPE>  (1) 
2
5
10

$$$$
