39474
     RDKit          3D

 27 30  0  0  1  0  0  0  0  0999 V2000
    0.9187   -0.5964    2.5468 S   0  0  0  0  0  0  0  0  0  0  0  0
   -2.1607    2.4119   -1.0224 O   0  0  0  0  0  0  0  0  0  0  0  0
    6.3631    0.6030   -1.3855 O   0  0  0  0  0  0  0  0  0  0  0  0
    4.3574    0.3402    0.6168 N   0  0  0  0  0  0  0  0  0  0  0  0
   -3.0441    2.0032    0.0354 C   0  0  0  0  0  0  0  0  0  0  0  0
   -2.2580    1.8133    1.3182 C   0  0  0  0  0  0  0  0  0  0  0  0
   -1.2225    0.6546    1.2296 C   0  0  0  0  0  0  0  0  0  0  0  0
   -4.1129    3.0778    0.1332 C   0  0  0  0  0  0  0  0  0  0  0  0
   -4.2477    3.4995   -1.3085 C   0  0  0  0  0  0  0  0  0  0  0  0
   -2.8134    3.4354   -1.7886 C   0  0  0  0  0  0  0  0  0  0  0  0
   -0.4315    0.6266    2.5663 C   0  0  0  0  0  0  0  0  0  0  0  0
   -1.8507   -0.6592    0.8799 C   0  0  0  0  0  0  0  0  0  0  0  0
   -1.5216   -1.3521   -0.2966 C   0  0  0  0  0  0  0  0  0  0  0  0
    3.3985   -0.4406    1.3958 C   0  0  0  0  0  0  0  0  0  0  0  0
    2.1139    0.3567    1.5845 C   0  0  0  0  0  0  0  0  0  0  0  0
   -2.7869   -1.1791    1.7742 C   0  0  0  0  0  0  0  0  0  0  0  0
    5.7259   -0.1506    0.8308 C   0  0  0  0  0  0  0  0  0  0  0  0
    4.0250    0.2975   -0.8140 C   0  0  0  0  0  0  0  0  0  0  0  0
   -2.1510   -2.5899   -0.5695 C   0  0  0  0  0  0  0  0  0  0  0  0
    6.7063    0.6714   -0.0009 C   0  0  0  0  0  0  0  0  0  0  0  0
    5.0459    1.1080   -1.6074 C   0  0  0  0  0  0  0  0  0  0  0  0
   -3.4056   -2.3965    1.5059 C   0  0  0  0  0  0  0  0  0  0  0  0
   -0.5818   -0.8438   -1.2081 C   0  0  0  0  0  0  0  0  0  0  0  0
   -3.0907   -3.0985    0.3421 C   0  0  0  0  0  0  0  0  0  0  0  0
   -1.8220   -3.2831   -1.7457 C   0  0  0  0  0  0  0  0  0  0  0  0
   -0.2672   -1.5459   -2.3719 C   0  0  0  0  0  0  0  0  0  0  0  0
   -0.8862   -2.7632   -2.6403 C   0  0  0  0  0  0  0  0  0  0  0  0
  1 11  1  0
  1 15  1  0
  2  5  1  0
  2 10  1  0
  3 20  1  0
  3 21  1  0
  4 14  1  0
  4 17  1  0
  4 18  1  0
  5  6  1  0
  5  8  1  0
  6  7  1  0
  7 11  1  0
  7 12  1  0
  8  9  1  0
  9 10  1  0
 12 13  1  0
 12 16  2  0
 13 19  2  0
 13 23  1  0
 14 15  1  0
 16 22  1  0
 17 20  1  0
 18 21  1  0
 19 24  1  0
 19 25  1  0
 22 24  2  0
 23 26  2  0
 25 27  2  0
 26 27  1  0
M  END
>  <PUBCHEM_COMPOUND_CID>  (1) 
39474

>  <PUBCHEM_CONFORMER_RMSD>  (1) 
1

>  <PUBCHEM_CONFORMER_DIVERSEORDER>  (1) 
1
157
77
62
202
257
99
144
37
148
21
84
91
54
130
250
222
45
169
128
100
59
193
76
173
60
252
27
195
71
198
46
246
227
161
65
192
25
35
52
155
255
103
63
73
209
132
53
102
131
141
248
200
36
182
120
199
170
117
137
11
224
181
93
109
89
17
68
205
28
112
133
253
74
242
247
254
216
125
49
163
129
196
15
116
159
108
96
101
146
236
218
229
174
225
135
124
95
239
86
235
191
22
258
87
183
136
13
140
153
145
119
219
154
18
106
113
48
171
97
243
12
98
85
80
7
122
121
230
223
90
190
70
241
41
150
75
64
207
5
10
14
69
30
83
149
164
178
19
186
179
56
197
44
33
31
206
151
16
61
162
32
8
245
79
43
92
165
4
50
211
256
188
42
232
139
107
81
26
167
2
210
118
66
168
220
39
111
3
55
110
231
72
180
203
51
184
94
234
214
166
156
78
160
24
249
251
82
115
185
23
105
138
126
226
213
212
237
158
240
233
58
134
187
194
9
47
142
6
152
88
201
38
29
143
123
20
40
189
34
204
67
104
147
221
57
176
177
127
208
228
215
114
172
244
175
217
238

>  <PUBCHEM_MMFF94_PARTIAL_CHARGES>  (1) 
29
1 -0.46
10 0.28
11 0.23
12 -0.14
14 0.27
15 0.23
16 -0.15
17 0.27
18 0.27
2 -0.56
20 0.28
21 0.28
22 -0.15
23 -0.15
24 -0.15
25 -0.15
26 -0.15
27 -0.15
3 -0.56
4 -0.81
44 0.15
5 0.28
53 0.15
54 0.15
55 0.15
56 0.15
57 0.15
58 0.15
7 0.14

>  <PUBCHEM_EFFECTIVE_ROTOR_COUNT>  (1) 
10.2

>  <PUBCHEM_PHARMACOPHORE_FEATURES>  (1) 
8
1 2 acceptor
1 3 acceptor
1 4 cation
5 1 6 7 11 15 hydrophobe
5 2 5 8 9 10 rings
6 12 13 16 19 22 24 rings
6 13 19 23 25 26 27 rings
6 3 4 17 18 20 21 rings

>  <PUBCHEM_HEAVY_ATOM_COUNT>  (1) 
27

>  <PUBCHEM_ATOM_DEF_STEREO_COUNT>  (1) 
0

>  <PUBCHEM_ATOM_UDEF_STEREO_COUNT>  (1) 
2

>  <PUBCHEM_BOND_DEF_STEREO_COUNT>  (1) 
0

>  <PUBCHEM_BOND_UDEF_STEREO_COUNT>  (1) 
0

>  <PUBCHEM_ISOTOPIC_ATOM_COUNT>  (1) 
0

>  <PUBCHEM_COMPONENT_COUNT>  (1) 
1

>  <PUBCHEM_CACTVS_TAUTO_COUNT>  (1) 
1

>  <PUBCHEM_CONFORMER_ID>  (1) 
00009A3200000001

>  <PUBCHEM_MMFF94_ENERGY>  (1) 
70.3356

>  <PUBCHEM_FEATURE_SELFOVERLAP>  (1) 
40.623

>  <PUBCHEM_SHAPE_FINGERPRINT>  (1) 
10369192 42 18269840818193574145
105312 117 18271244915436318412
107951 10 18336827490057069763
11578080 2 17984725337192157433
12597179 24 18269275660510034541
12714826 92 18130505339874363650
12788726 201 18189314884350562627
13257819 37 18342447102834659789
133893 2 17335613112664001513
13402501 40 16343162310737747934
14114206 34 18120355799415116058
14142880 1 16588027900643985497
14251751 93 18343027713656711402
15163728 17 18050288059767963633
15361156 5 15195023660563860304
15444296 8 18044389433704539651
15876981 60 17895204354051197669
17980427 23 16154561844586031229
1813 80 17837760484964492203
18603816 31 13110421030932197260
21285901 2 16478189034360784191
22907989 373 18341607135843353429
23227448 37 17967817106729564424
23352939 185 16153980378632867179
23419403 2 17771086903631984579
23598288 3 18336814329939619370
3388396 114 17537735656414597652
4015057 19 15769480011395344402
4371632 12 16486676018550145462
4409770 3 18060135444634888627
44249763 50 18341035407536468400
497634 4 17240482550242423362
58260988 587 17838343982679741929
6786 2 18196083340550044807

>  <PUBCHEM_SHAPE_MULTIPOLES>  (1) 
542.78
11.44
4.25
2.77
26.88
0.72
-0.03
6.44
-2.08
-8.79
-2.75
-0.27
-0.75
0.68

>  <PUBCHEM_SHAPE_SELFOVERLAP>  (1) 
1130.708

>  <PUBCHEM_SHAPE_VOLUME>  (1) 
311.4

>  <PUBCHEM_COORDINATE_TYPE>  (1) 
2
5
10

$$$$
