3949
     RDKit          3D

 34 37  0  0  0  0  0  0  0  0999 V2000
   -4.0877   -5.3268   -0.9908 F   0  0  0  0  0  0  0  0  0  0  0  0
   -7.1291    3.4433   -0.2688 F   0  0  0  0  0  0  0  0  0  0  0  0
    4.3739    1.0115   -2.0655 O   0  0  0  0  0  0  0  0  0  0  0  0
    6.5132   -0.4930   -1.1944 O   0  0  0  0  0  0  0  0  0  0  0  0
    6.7280   -1.1637    1.4832 O   0  0  0  0  0  0  0  0  0  0  0  0
   -1.6042    0.3891    0.0819 N   0  0  0  0  0  0  0  0  0  0  0  0
    1.0855    1.4302    0.2827 N   0  0  0  0  0  0  0  0  0  0  0  0
   -1.3531    1.7806    0.4769 C   0  0  0  0  0  0  0  0  0  0  0  0
   -0.4832   -0.4682    0.4864 C   0  0  0  0  0  0  0  0  0  0  0  0
   -0.0358    2.2880   -0.1197 C   0  0  0  0  0  0  0  0  0  0  0  0
    0.8339    0.0385   -0.1114 C   0  0  0  0  0  0  0  0  0  0  0  0
   -2.8597   -0.0941    0.6529 C   0  0  0  0  0  0  0  0  0  0  0  0
    2.3404    1.9131   -0.2903 C   0  0  0  0  0  0  0  0  0  0  0  0
   -3.1917   -1.5110    0.2085 C   0  0  0  0  0  0  0  0  0  0  0  0
   -4.0159    0.8631    0.4040 C   0  0  0  0  0  0  0  0  0  0  0  0
    3.5175    1.0925    0.1653 C   0  0  0  0  0  0  0  0  0  0  0  0
   -3.9150   -2.3243    1.0567 C   0  0  0  0  0  0  0  0  0  0  0  0
   -4.7731    0.7111   -0.7397 C   0  0  0  0  0  0  0  0  0  0  0  0
   -2.7598   -1.9398   -1.0301 C   0  0  0  0  0  0  0  0  0  0  0  0
   -4.2722    1.8549    1.3286 C   0  0  0  0  0  0  0  0  0  0  0  0
    4.4791    0.6788   -0.7471 C   0  0  0  0  0  0  0  0  0  0  0  0
    3.6196    0.7585    1.5095 C   0  0  0  0  0  0  0  0  0  0  0  0
   -4.2197   -3.6230    0.6487 C   0  0  0  0  0  0  0  0  0  0  0  0
   -5.8326    1.5890   -0.9686 C   0  0  0  0  0  0  0  0  0  0  0  0
   -3.0647   -3.2383   -1.4381 C   0  0  0  0  0  0  0  0  0  0  0  0
   -5.3319    2.7327    1.0998 C   0  0  0  0  0  0  0  0  0  0  0  0
    5.5621   -0.0825   -0.3076 C   0  0  0  0  0  0  0  0  0  0  0  0
    4.7025   -0.0028    1.9489 C   0  0  0  0  0  0  0  0  0  0  0  0
   -3.7946   -4.0800   -0.5988 C   0  0  0  0  0  0  0  0  0  0  0  0
   -6.1120    2.5998   -0.0488 C   0  0  0  0  0  0  0  0  0  0  0  0
    5.6738   -0.4233    1.0404 C   0  0  0  0  0  0  0  0  0  0  0  0
    4.9859    2.2321   -2.4750 C   0  0  0  0  0  0  0  0  0  0  0  0
    7.8492   -0.0548   -0.9588 C   0  0  0  0  0  0  0  0  0  0  0  0
    6.5715   -2.5813    1.4791 C   0  0  0  0  0  0  0  0  0  0  0  0
  1 29  1  0
  2 30  1  0
  3 21  1  0
  3 32  1  0
  4 27  1  0
  4 33  1  0
  5 31  1  0
  5 34  1  0
  6  8  1  0
  6  9  1  0
  6 12  1  0
  7 10  1  0
  7 11  1  0
  7 13  1  0
  8 10  1  0
  9 11  1  0
 12 14  1  0
 12 15  1  0
 13 16  1  0
 14 17  2  0
 14 19  1  0
 15 18  2  0
 15 20  1  0
 16 21  2  0
 16 22  1  0
 17 23  1  0
 18 24  1  0
 19 25  2  0
 20 26  2  0
 21 27  1  0
 22 28  2  0
 23 29  2  0
 24 30  2  0
 25 29  1  0
 26 30  1  0
 27 31  2  0
 28 31  1  0
M  END
>  <PUBCHEM_COMPOUND_CID>  (1) 
3949

>  <PUBCHEM_CONFORMER_RMSD>  (1) 
1

>  <PUBCHEM_CONFORMER_DIVERSEORDER>  (1) 
1
53
26
50
30
39
42
48
16
37
46
34
38
31
23
17
27
41
33
29
55
43
24
7
3
44
28
15
19
11
52
54
51
12
32
18
10
36
22
45
13
14
25
40
35
47
4
5
20
49
21
6
9
8
2

>  <PUBCHEM_MMFF94_PARTIAL_CHARGES>  (1) 
44
1 -0.19
10 0.27
11 0.27
12 0.56
13 0.41
14 -0.14
15 -0.14
16 -0.14
17 -0.15
18 -0.15
19 -0.15
2 -0.19
20 -0.15
21 0.08
22 -0.15
23 -0.15
24 -0.15
25 -0.15
26 -0.15
27 0.08
28 -0.15
29 0.19
3 -0.36
30 0.19
31 0.08
32 0.28
33 0.28
34 0.28
4 -0.36
46 0.15
47 0.15
48 0.15
49 0.15
5 -0.36
50 0.15
51 0.15
52 0.15
53 0.15
54 0.15
55 0.15
6 -0.81
7 -0.81
8 0.27
9 0.27

>  <PUBCHEM_EFFECTIVE_ROTOR_COUNT>  (1) 
9.2

>  <PUBCHEM_PHARMACOPHORE_FEATURES>  (1) 
9
1 3 acceptor
1 4 acceptor
1 5 acceptor
1 6 cation
1 7 cation
6 14 17 19 23 25 29 rings
6 15 18 20 24 26 30 rings
6 16 21 22 27 28 31 rings
6 6 7 8 9 10 11 rings

>  <PUBCHEM_HEAVY_ATOM_COUNT>  (1) 
34

>  <PUBCHEM_ATOM_DEF_STEREO_COUNT>  (1) 
0

>  <PUBCHEM_ATOM_UDEF_STEREO_COUNT>  (1) 
0

>  <PUBCHEM_BOND_DEF_STEREO_COUNT>  (1) 
0

>  <PUBCHEM_BOND_UDEF_STEREO_COUNT>  (1) 
0

>  <PUBCHEM_ISOTOPIC_ATOM_COUNT>  (1) 
0

>  <PUBCHEM_COMPONENT_COUNT>  (1) 
1

>  <PUBCHEM_CACTVS_TAUTO_COUNT>  (1) 
1

>  <PUBCHEM_CONFORMER_ID>  (1) 
00000F6D00000001

>  <PUBCHEM_MMFF94_ENERGY>  (1) 
136.6711

>  <PUBCHEM_FEATURE_SELFOVERLAP>  (1) 
45.684

>  <PUBCHEM_SHAPE_FINGERPRINT>  (1) 
10050765 1 18268145542471268129
10305334 12 18337384955253293203
10622 236 18264201598498977967
11331351 85 17822571604238092940
11524674 6 17847056662650990311
11545043 162 18059856211704862410
11763715 3 17688323695597257999
11796584 16 18342462534741649558
11809386 21 18337670935829694347
11991303 11 18333726910811948173
12107183 9 18335980870224316360
12616971 3 17676205771335615792
12633046 712 18339067302295330485
12643181 29 18341614793949143510
12788726 201 18265317582508229627
13690498 29 18124892402013384965
13782708 43 17560525105337825998
13947934 56 18334852865635577805
14118638 360 18117560849689304636
14347332 77 18195245740175512927
15064981 113 18339070476935662629
15131766 46 16372439066700559805
15183329 4 18409732820313110552
15250474 111 18335698368998601362
15361156 5 18040442096465453264
15439362 3 18052822443334609389
1577012 14 17967814955879045626
17492 89 18053945327298457109
19301679 30 18123477330802677267
19311894 1 18409161143439382977
21703447 108 17766550627424259305
21781055 127 18057341504517906505
23522609 53 17970090940279678212
23559900 14 18201998871547185512
23576562 1 18115028623129925021
3004659 81 18260553316709259460
3383291 50 18201717371570297155
3610482 184 17968956282533118309
4015057 19 16271917242897139881
4073 2 18272085024446089824
44062 13 18410854408272682897
44389302 135 18263914464523148122
44880168 125 18188760644432347430
4625314 4 18413107265440042496
497634 4 16878226484678330067
504843 32 18334295341433957963
5085150 59 18059849563254256943
5104073 3 18201157762426199808
513202 73 18265059222802867395
559249 180 18410006629120753601
59755656 520 18411129209392728173
613672 6 17203614787296948664
6691757 9 18201726124449786025
70251023 43 17833827558263915427

>  <PUBCHEM_SHAPE_MULTIPOLES>  (1) 
657.59
20.36
4.64
1.66
20.84
5.35
0.28
-1.62
0.65
-10.56
0.93
2.29
-0.02
-3.23

>  <PUBCHEM_SHAPE_SELFOVERLAP>  (1) 
1419.563

>  <PUBCHEM_SHAPE_VOLUME>  (1) 
363.9

>  <PUBCHEM_COORDINATE_TYPE>  (1) 
2
5
10

$$$$
