39497
     RDKit          3D

 12 12  0  0  0  0  0  0  0  0999 V2000
    3.0604   -0.0077    1.7922 Cl  0  0  0  0  0  0  0  0  0  0  0  0
    2.5379    0.0020   -0.1869 S   0  0  0  0  0  0  0  0  0  0  0  0
    2.9911    1.2744   -0.7173 O   0  0  0  0  0  0  0  0  0  0  0  0
    3.0167   -1.2646   -0.7089 O   0  0  0  0  0  0  0  0  0  0  0  0
   -4.5826   -0.0030    0.1081 N   0  0  0  0  0  0  0  0  0  0  0  0
    0.7934    0.0014   -0.1143 C   0  0  0  0  0  0  0  0  0  0  0  0
    0.0958    1.2087   -0.0794 C   0  0  0  0  0  0  0  0  0  0  0  0
    0.0974   -1.2071   -0.0927 C   0  0  0  0  0  0  0  0  0  0  0  0
   -1.2980    1.2075   -0.0227 C   0  0  0  0  0  0  0  0  0  0  0  0
   -1.2964   -1.2084   -0.0362 C   0  0  0  0  0  0  0  0  0  0  0  0
   -1.9940   -0.0010   -0.0012 C   0  0  0  0  0  0  0  0  0  0  0  0
   -3.4216   -0.0021    0.0592 C   0  0  0  0  0  0  0  0  0  0  0  0
  1  2  1  0
  2  3  2  0
  2  4  2  0
  2  6  1  0
  5 12  3  0
  6  7  2  0
  6  8  1  0
  7  9  1  0
  8 10  2  0
  9 11  2  0
 10 11  1  0
 11 12  1  0
M  END
>  <PUBCHEM_COMPOUND_CID>  (1) 
39497

>  <PUBCHEM_CONFORMER_RMSD>  (1) 
0.4

>  <PUBCHEM_CONFORMER_DIVERSEORDER>  (1) 
1

>  <PUBCHEM_MMFF94_PARTIAL_CHARGES>  (1) 
16
1 -0.19
10 -0.15
11 0.07
12 0.48
13 0.15
14 0.15
15 0.15
16 0.15
2 1.49
3 -0.65
4 -0.65
5 -0.56
6 -0.01
7 -0.15
8 -0.15
9 -0.15

>  <PUBCHEM_EFFECTIVE_ROTOR_COUNT>  (1) 
1

>  <PUBCHEM_PHARMACOPHORE_FEATURES>  (1) 
2
1 5 acceptor
6 6 7 8 9 10 11 rings

>  <PUBCHEM_HEAVY_ATOM_COUNT>  (1) 
12

>  <PUBCHEM_ATOM_DEF_STEREO_COUNT>  (1) 
0

>  <PUBCHEM_ATOM_UDEF_STEREO_COUNT>  (1) 
0

>  <PUBCHEM_BOND_DEF_STEREO_COUNT>  (1) 
0

>  <PUBCHEM_BOND_UDEF_STEREO_COUNT>  (1) 
0

>  <PUBCHEM_ISOTOPIC_ATOM_COUNT>  (1) 
0

>  <PUBCHEM_COMPONENT_COUNT>  (1) 
1

>  <PUBCHEM_CACTVS_TAUTO_COUNT>  (1) 
1

>  <PUBCHEM_CONFORMER_ID>  (1) 
00009A4900000001

>  <PUBCHEM_MMFF94_ENERGY>  (1) 
15.0171

>  <PUBCHEM_FEATURE_SELFOVERLAP>  (1) 
10.148

>  <PUBCHEM_SHAPE_FINGERPRINT>  (1) 
10130415 120 18260261962426468776
10219947 1 18410863157084070213
10857977 72 18412257350343804976
11132069 177 18342168977705592995
12032990 46 18410302401911924983
14325111 11 18410579474346645285
14993402 34 18335710459062118093
16945 1 18410567392508527191
17846911 113 18341886398727050193
18522853 295 18335136484017351170
19026448 4 15913329121799270437
19026448 5 15864070945035049543
193761 8 17617943534911120095
20559304 39 18113612349036404954
20645476 183 17313399970752268262
23402539 116 18201147789522375677
23402655 69 18267570318651022917
23463225 33 18334574611900228370
23552423 10 18334017181349177574
23559900 14 18413392034081429094
2748010 2 18122624946822346509
3286 77 17346317046943263834
369184 2 17095517409417950096
449060 62 18343589533485049143
5084963 1 18271249305177270264
581208 293 18342735221534985550
7364860 26 18341897411651087404

>  <PUBCHEM_SHAPE_MULTIPOLES>  (1) 
235.95
6.4
1.32
0.98
3.2
0
-0.4
-0.02
-0.77
-0.3
0.2
-1.1
0
-0.01

>  <PUBCHEM_SHAPE_SELFOVERLAP>  (1) 
470.736

>  <PUBCHEM_SHAPE_VOLUME>  (1) 
140.2

>  <PUBCHEM_COORDINATE_TYPE>  (1) 
2
5
10

$$$$
