39491
     RDKit          3D

 11 11  0  0  1  0  0  0  0  0999 V2000
    3.2773   -0.1607    1.0757 O   0  0  0  0  0  0  0  0  0  0  0  0
    0.9837    0.5303   -0.4678 N   0  0  0  0  0  0  0  0  0  0  0  0
    1.4624    1.8335   -0.3362 N   0  0  0  0  0  0  0  0  0  0  0  0
    1.9286   -0.4939   -0.8837 C   0  0  0  0  0  0  0  0  0  0  0  0
   -0.3667    0.2160   -0.2092 C   0  0  0  0  0  0  0  0  0  0  0  0
    2.5626   -1.1421    0.3353 C   0  0  0  0  0  0  0  0  0  0  0  0
   -0.8171   -1.0965   -0.3510 C   0  0  0  0  0  0  0  0  0  0  0  0
   -1.2521    1.2181    0.1881 C   0  0  0  0  0  0  0  0  0  0  0  0
   -2.1528   -1.4070   -0.0959 C   0  0  0  0  0  0  0  0  0  0  0  0
   -2.5878    0.9074    0.4434 C   0  0  0  0  0  0  0  0  0  0  0  0
   -3.0380   -0.4051    0.3013 C   0  0  0  0  0  0  0  0  0  0  0  0
  1  6  1  0
  2  3  1  0
  2  4  1  0
  2  5  1  0
  4  6  1  0
  5  7  2  0
  5  8  1  0
  7  9  1  0
  8 10  2  0
  9 11  2  0
 10 11  1  0
M  END
>  <PUBCHEM_COMPOUND_CID>  (1) 
39491

>  <PUBCHEM_CONFORMER_RMSD>  (1) 
0.6

>  <PUBCHEM_CONFORMER_DIVERSEORDER>  (1) 
2
12
14
10
5
7
13
9
1
3
4
8
11
15
6

>  <PUBCHEM_MMFF94_PARTIAL_CHARGES>  (1) 
19
1 -0.68
10 -0.15
11 -0.15
16 0.15
17 0.15
18 0.15
19 0.15
2 -0.48
20 0.36
21 0.36
22 0.15
23 0.4
3 -0.71
4 0.37
5 0.1
6 0.28
7 -0.15
8 -0.15
9 -0.15

>  <PUBCHEM_EFFECTIVE_ROTOR_COUNT>  (1) 
3

>  <PUBCHEM_PHARMACOPHORE_FEATURES>  (1) 
4
1 1 acceptor
1 1 donor
1 3 donor
6 5 7 8 9 10 11 rings

>  <PUBCHEM_HEAVY_ATOM_COUNT>  (1) 
11

>  <PUBCHEM_ATOM_DEF_STEREO_COUNT>  (1) 
0

>  <PUBCHEM_ATOM_UDEF_STEREO_COUNT>  (1) 
0

>  <PUBCHEM_BOND_DEF_STEREO_COUNT>  (1) 
0

>  <PUBCHEM_BOND_UDEF_STEREO_COUNT>  (1) 
0

>  <PUBCHEM_ISOTOPIC_ATOM_COUNT>  (1) 
0

>  <PUBCHEM_COMPONENT_COUNT>  (1) 
1

>  <PUBCHEM_CACTVS_TAUTO_COUNT>  (1) 
1

>  <PUBCHEM_CONFORMER_ID>  (1) 
00009A4300000002

>  <PUBCHEM_MMFF94_ENERGY>  (1) 
35.1647

>  <PUBCHEM_FEATURE_SELFOVERLAP>  (1) 
20.298

>  <PUBCHEM_SHAPE_FINGERPRINT>  (1) 
10857977 72 18272651242368573707
12251169 10 18412263943123833578
12696612 119 18411138069282408124
12932764 1 18040726873881572573
14144814 61 18409453574212825802
15310529 11 16950856846284039735
16945 1 18339653247856529919
20645464 45 17704070659789326390
20653091 64 18260832647974699088
20715346 28 17846502495657892510
20871998 184 17988644137877426567
21501925 9 18340200886135600267
22445834 79 18261109647247581386
23552423 10 18118131487581197765
2748010 2 18340777038981968053
3248919 1 18131639984403023525
369184 2 16056598720861294031
5084963 1 18059870423730454343
7364860 26 18271815682599386236
75552 356 18341609300316836738

>  <PUBCHEM_SHAPE_MULTIPOLES>  (1) 
210.54
4.8
1.57
0.83
1.16
0.24
0.04
-0.74
1.2
-0.16
-0.08
0.42
-0.04
-0.26

>  <PUBCHEM_SHAPE_SELFOVERLAP>  (1) 
425.365

>  <PUBCHEM_SHAPE_VOLUME>  (1) 
123.4

>  <PUBCHEM_COORDINATE_TYPE>  (1) 
2
5
10

$$$$
