39501
     RDKit          3D

 11 11  0  0  0  0  0  0  0  0999 V2000
   -2.7988   -2.2126    0.0010 Cl  0  0  0  0  0  0  0  0  0  0  0  0
   -1.5731    2.5000    0.0009 O   0  0  0  0  0  0  0  0  0  0  0  0
    1.8588   -0.6018   -0.0049 N   0  0  0  0  0  0  0  0  0  0  0  0
   -0.3771   -1.1955   -0.0012 N   0  0  0  0  0  0  0  0  0  0  0  0
    0.1831    1.0709    0.0007 N   0  0  0  0  0  0  0  0  0  0  0  0
   -2.1688    0.3165    0.0015 N   0  0  0  0  0  0  0  0  0  0  0  0
    2.9569    0.3168   -0.0082 C   0  0  0  0  0  0  0  0  0  0  0  0
    0.5560   -0.1853   -0.0007 C   0  0  0  0  0  0  0  0  0  0  0  0
    4.2710   -0.4401    0.0099 C   0  0  0  0  0  0  0  0  0  0  0  0
   -1.7104   -0.8983    0.0001 C   0  0  0  0  0  0  0  0  0  0  0  0
   -1.1975    1.3294    0.0011 C   0  0  0  0  0  0  0  0  0  0  0  0
  1 10  1  0
  2 11  2  0
  3  7  1  0
  3  8  1  0
  4  8  1  0
  4 10  1  0
  5  8  2  0
  5 11  1  0
  6 10  2  0
  6 11  1  0
  7  9  1  0
M  END
>  <PUBCHEM_COMPOUND_CID>  (1) 
39501

>  <PUBCHEM_CONFORMER_RMSD>  (1) 
0.4

>  <PUBCHEM_CONFORMER_DIVERSEORDER>  (1) 
1
5
7
6
3
4
2

>  <PUBCHEM_MMFF94_PARTIAL_CHARGES>  (1) 
12
1 -0.21
10 0.71
11 0.99
14 0.4
18 0.4
2 -0.57
3 -0.82
4 -0.5
5 -0.66
6 -0.66
7 0.37
8 0.55

>  <PUBCHEM_EFFECTIVE_ROTOR_COUNT>  (1) 
2

>  <PUBCHEM_PHARMACOPHORE_FEATURES>  (1) 
6
1 2 acceptor
1 3 donor
1 4 donor
1 5 donor
1 6 donor
6 4 5 6 8 10 11 rings

>  <PUBCHEM_HEAVY_ATOM_COUNT>  (1) 
11

>  <PUBCHEM_ATOM_DEF_STEREO_COUNT>  (1) 
0

>  <PUBCHEM_ATOM_UDEF_STEREO_COUNT>  (1) 
0

>  <PUBCHEM_BOND_DEF_STEREO_COUNT>  (1) 
0

>  <PUBCHEM_BOND_UDEF_STEREO_COUNT>  (1) 
0

>  <PUBCHEM_ISOTOPIC_ATOM_COUNT>  (1) 
0

>  <PUBCHEM_COMPONENT_COUNT>  (1) 
1

>  <PUBCHEM_CACTVS_TAUTO_COUNT>  (1) 
9

>  <PUBCHEM_CONFORMER_ID>  (1) 
00009A4D00000001

>  <PUBCHEM_MMFF94_ENERGY>  (1) 
21.1181

>  <PUBCHEM_FEATURE_SELFOVERLAP>  (1) 
30.639

>  <PUBCHEM_SHAPE_FINGERPRINT>  (1) 
12032990 46 18266180710902421435
12932764 1 17458622260190184604
13024252 1 17603588517104351995
13380535 76 18197211443152475295
14325111 11 18338798919027121380
20871998 184 18201721768719977375
20871998 22 18123187072142254723
21040471 1 18122344566956963361
21061003 4 17060341850797260178
23402539 116 18343011182343251239
23552423 10 18187928442715239796
2748010 2 18195795491504178805
6333449 129 18341328903287233516

>  <PUBCHEM_SHAPE_MULTIPOLES>  (1) 
202.45
5.5
2.09
0.58
6.05
0.74
0
-2.43
0.01
-2.19
0
0.01
-0.03
0

>  <PUBCHEM_SHAPE_SELFOVERLAP>  (1) 
399.927

>  <PUBCHEM_SHAPE_VOLUME>  (1) 
121.3

>  <PUBCHEM_COORDINATE_TYPE>  (1) 
2
5
10

$$$$
