39508
     RDKit          3D

 21 23  0  0  0  0  0  0  0  0999 V2000
   -2.0891    1.7790    0.5483 S   0  0  0  0  0  0  0  0  0  0  0  0
    5.5402   -0.6257   -0.3045 O   0  0  0  0  0  0  0  0  0  0  0  0
    3.8418   -0.5570    1.2547 O   0  0  0  0  0  0  0  0  0  0  0  0
   -1.3886   -0.4857   -0.4681 N   0  0  0  0  0  0  0  0  0  0  0  0
    2.1335    0.7709   -0.5774 C   0  0  0  0  0  0  0  0  0  0  0  0
   -0.2371    0.2810   -0.3632 C   0  0  0  0  0  0  0  0  0  0  0  0
   -0.4205    1.5589    0.1739 C   0  0  0  0  0  0  0  0  0  0  0  0
    1.0640   -0.1138   -0.7433 C   0  0  0  0  0  0  0  0  0  0  0  0
    3.5082    0.3500   -0.9781 C   0  0  0  0  0  0  0  0  0  0  0  0
    1.9265    2.0370   -0.0410 C   0  0  0  0  0  0  0  0  0  0  0  0
    0.6491    2.4526    0.3433 C   0  0  0  0  0  0  0  0  0  0  0  0
   -2.4149    0.1991   -0.0204 C   0  0  0  0  0  0  0  0  0  0  0  0
   -3.7746   -0.2847    0.0226 C   0  0  0  0  0  0  0  0  0  0  0  0
    4.2827   -0.3237    0.1374 C   0  0  0  0  0  0  0  0  0  0  0  0
   -4.0272   -1.6551   -0.0256 C   0  0  0  0  0  0  0  0  0  0  0  0
   -4.8333    0.6185    0.1117 C   0  0  0  0  0  0  0  0  0  0  0  0
   -5.3406   -2.1232    0.0149 C   0  0  0  0  0  0  0  0  0  0  0  0
   -6.1466    0.1502    0.1523 C   0  0  0  0  0  0  0  0  0  0  0  0
   -6.4001   -1.2207    0.1038 C   0  0  0  0  0  0  0  0  0  0  0  0
    6.3901   -1.2714    0.6490 C   0  0  0  0  0  0  0  0  0  0  0  0
    7.7365   -1.5362    0.0098 C   0  0  0  0  0  0  0  0  0  0  0  0
  1  7  1  0
  1 12  1  0
  2 14  1  0
  2 20  1  0
  3 14  2  0
  4  6  1  0
  4 12  2  0
  5  8  2  0
  5  9  1  0
  5 10  1  0
  6  7  2  0
  6  8  1  0
  7 11  1  0
  9 14  1  0
 10 11  2  0
 12 13  1  0
 13 15  2  0
 13 16  1  0
 15 17  1  0
 16 18  2  0
 17 19  2  0
 18 19  1  0
 20 21  1  0
M  END
>  <PUBCHEM_COMPOUND_CID>  (1) 
39508

>  <PUBCHEM_CONFORMER_RMSD>  (1) 
0.8

>  <PUBCHEM_CONFORMER_DIVERSEORDER>  (1) 
1
16
2
15
17
14
18
9
6
4
8
5
13
11
12
3
7
10

>  <PUBCHEM_MMFF94_PARTIAL_CHARGES>  (1) 
28
1 -0.08
10 -0.15
11 -0.15
12 0.33
13 0.05
14 0.66
15 -0.15
16 -0.15
17 -0.15
18 -0.15
19 -0.15
2 -0.43
20 0.28
22 0.15
25 0.15
26 0.15
27 0.15
28 0.15
29 0.15
3 -0.57
30 0.15
33 0.15
4 -0.57
5 -0.14
6 0.23
7 0.04
8 -0.15
9 0.2

>  <PUBCHEM_EFFECTIVE_ROTOR_COUNT>  (1) 
5

>  <PUBCHEM_PHARMACOPHORE_FEATURES>  (1) 
5
1 3 acceptor
1 4 acceptor
5 1 4 6 7 12 rings
6 13 15 16 17 18 19 rings
6 5 6 7 8 10 11 rings

>  <PUBCHEM_HEAVY_ATOM_COUNT>  (1) 
21

>  <PUBCHEM_ATOM_DEF_STEREO_COUNT>  (1) 
0

>  <PUBCHEM_ATOM_UDEF_STEREO_COUNT>  (1) 
0

>  <PUBCHEM_BOND_DEF_STEREO_COUNT>  (1) 
0

>  <PUBCHEM_BOND_UDEF_STEREO_COUNT>  (1) 
0

>  <PUBCHEM_ISOTOPIC_ATOM_COUNT>  (1) 
0

>  <PUBCHEM_COMPONENT_COUNT>  (1) 
1

>  <PUBCHEM_CACTVS_TAUTO_COUNT>  (1) 
1

>  <PUBCHEM_CONFORMER_ID>  (1) 
00009A5400000001

>  <PUBCHEM_MMFF94_ENERGY>  (1) 
45.1611

>  <PUBCHEM_FEATURE_SELFOVERLAP>  (1) 
25.443

>  <PUBCHEM_SHAPE_FINGERPRINT>  (1) 
10 15 17275098445208201786
106641 1 18059850693283641080
10753850 27 18040429980515438786
11315181 36 18411704287843059417
11315621 246 13046523007178596105
11524674 6 17132113550200545599
11796584 16 17967817162822582691
12166972 35 18040438797988755068
12236239 1 18260270741756385684
12516196 113 18411980269720122264
12670543 26 12324233949914711584
12760667 363 18410854361022793867
13288520 33 18408323276665757981
13533116 47 18335139830277110840
13540713 4 16843338778681061556
13668630 136 17822010917020129954
13685833 64 18410573985752870394
13862211 1 18342176695920164151
14123256 34 18335707147758643674
14251752 14 17894906305022609893
14420673 8 18409450297670334899
14556957 393 15647630943136788334
15183329 4 15140675865295099568
15196674 1 18269840968622294165
15927050 60 17695062593626450932
17857418 61 18334857225238516331
18006028 8 18413387623002257908
19784866 240 18187368722640600172
20028762 73 18201438116248238510
20374829 77 18410858780749967317
20832881 197 18408887364717058233
21033648 29 16630232611431516385
21150785 3 12829212178357283987
21267235 1 18409735057795288810
21637258 2 17894623747771922256
21756936 100 9871455509384335156
21792934 111 18201430376632489128
22182313 1 17488756553370772341
22224240 67 16128649747952281678
23035841 295 18408041797035559370
23402539 116 18413669119453610429
23522609 53 18118999998504348957
23559900 14 18262797509671568465
25147074 1 18338254711853005372
26918003 58 18201722868822227597
2838139 119 9583508811822780946
3004659 81 18040151829627176144
335352 9 18411418406609750397
3411729 13 17914891170351569912
3472631 163 9150879603902553002
351380 3 18334292067714219802
4073 2 17898575533795163705
4214541 1 18412548730512320541
465052 167 18412268367172367646
5104073 3 18129953402697001121
543368 44 9007062366298000299
559249 180 18410292506681710895
5718773 13 18269271425884004911
59682541 35 18341884239408384464
59682541 52 15574708093482025714
59755656 215 18411703140813004654
6138700 20 18408041797125457507
636775 8 18341059524088916118
76465 3 18408886252009363273
7970288 3 18409445869585647322
8863177 126 17972048195652308627

>  <PUBCHEM_SHAPE_MULTIPOLES>  (1) 
419.3
17.64
2.14
0.82
12.49
0.49
0.02
-13.63
1.96
-0.33
0.26
0.54
0.01
-0.57

>  <PUBCHEM_SHAPE_SELFOVERLAP>  (1) 
897.439

>  <PUBCHEM_SHAPE_VOLUME>  (1) 
233.9

>  <PUBCHEM_COORDINATE_TYPE>  (1) 
2
5
10

$$$$
