39514
     RDKit          3D

 25 27  0  0  0  0  0  0  0  0999 V2000
   -3.4164   -1.2794    0.1705 O   0  0  0  0  0  0  0  0  0  0  0  0
   -0.9084   -2.7156   -0.1341 O   0  0  0  0  0  0  0  0  0  0  0  0
   -1.2086    2.8500    0.0774 O   0  0  0  0  0  0  0  0  0  0  0  0
    1.5855   -2.3975   -0.3831 O   0  0  0  0  0  0  0  0  0  0  0  0
    3.0006   -0.4144    1.9489 O   0  0  0  0  0  0  0  0  0  0  0  0
   -2.3218    0.6964    0.1232 C   0  0  0  0  0  0  0  0  0  0  0  0
   -2.1934   -0.6876    0.0640 C   0  0  0  0  0  0  0  0  0  0  0  0
   -3.7108    0.9489    0.2750 C   0  0  0  0  0  0  0  0  0  0  0  0
   -0.9784   -1.3542   -0.0834 C   0  0  0  0  0  0  0  0  0  0  0  0
   -1.1605    1.4831    0.0295 C   0  0  0  0  0  0  0  0  0  0  0  0
   -4.3282   -0.2801    0.2977 C   0  0  0  0  0  0  0  0  0  0  0  0
    0.1632   -0.5524   -0.1747 C   0  0  0  0  0  0  0  0  0  0  0  0
    0.0765    0.8410   -0.1195 C   0  0  0  0  0  0  0  0  0  0  0  0
   -4.3708    2.2638    0.3888 C   0  0  0  0  0  0  0  0  0  0  0  0
    1.4761   -1.1648   -0.3306 C   0  0  0  0  0  0  0  0  0  0  0  0
   -5.7311   -0.7005    0.4299 C   0  0  0  0  0  0  0  0  0  0  0  0
    2.7268   -0.3565   -0.4328 C   0  0  0  0  0  0  0  0  0  0  0  0
    3.4185   -0.0268    0.7109 C   0  0  0  0  0  0  0  0  0  0  0  0
    3.1401    0.0316   -1.6884 C   0  0  0  0  0  0  0  0  0  0  0  0
   -1.6182   -3.3605   -1.1886 C   0  0  0  0  0  0  0  0  0  0  0  0
   -1.3601    3.5308   -1.1635 C   0  0  0  0  0  0  0  0  0  0  0  0
    4.5843    0.7301    0.5939 C   0  0  0  0  0  0  0  0  0  0  0  0
    4.3058    0.7886   -1.8051 C   0  0  0  0  0  0  0  0  0  0  0  0
    5.0279    1.1379   -0.6641 C   0  0  0  0  0  0  0  0  0  0  0  0
    3.8014   -0.0118    3.0581 C   0  0  0  0  0  0  0  0  0  0  0  0
  1  7  1  0
  1 11  1  0
  2  9  1  0
  2 20  1  0
  3 10  1  0
  3 21  1  0
  4 15  2  0
  5 18  1  0
  5 25  1  0
  6  7  2  0
  6  8  1  0
  6 10  1  0
  7  9  1  0
  8 11  2  0
  8 14  1  0
  9 12  2  0
 10 13  2  0
 11 16  1  0
 12 13  1  0
 12 15  1  0
 15 17  1  0
 17 18  2  0
 17 19  1  0
 18 22  1  0
 19 23  2  0
 22 24  2  0
 23 24  1  0
M  END
>  <PUBCHEM_COMPOUND_CID>  (1) 
39514

>  <PUBCHEM_CONFORMER_RMSD>  (1) 
0.8

>  <PUBCHEM_CONFORMER_DIVERSEORDER>  (1) 
12
29
31
23
24
25
30
17
5
16
21
32
15
33
22
13
27
19
10
34
8
14
18
26
2
6
28
9
1
11
4
20
3
7

>  <PUBCHEM_MMFF94_PARTIAL_CHARGES>  (1) 
29
1 -0.28
10 0.08
11 -0.04
12 0.09
13 -0.15
14 0.18
15 0.4
16 0.18
17 0.09
18 0.08
19 -0.15
2 -0.36
20 0.28
21 0.28
22 -0.15
23 -0.15
24 -0.15
25 0.28
26 0.15
3 -0.36
33 0.15
4 -0.57
40 0.15
41 0.15
42 0.15
5 -0.36
7 0.14
8 -0.18
9 0.08

>  <PUBCHEM_EFFECTIVE_ROTOR_COUNT>  (1) 
5

>  <PUBCHEM_PHARMACOPHORE_FEATURES>  (1) 
8
1 1 acceptor
1 2 acceptor
1 3 acceptor
1 4 acceptor
1 5 acceptor
5 1 6 7 8 11 rings
6 17 18 19 22 23 24 rings
6 6 7 9 10 12 13 rings

>  <PUBCHEM_HEAVY_ATOM_COUNT>  (1) 
25

>  <PUBCHEM_ATOM_DEF_STEREO_COUNT>  (1) 
0

>  <PUBCHEM_ATOM_UDEF_STEREO_COUNT>  (1) 
0

>  <PUBCHEM_BOND_DEF_STEREO_COUNT>  (1) 
0

>  <PUBCHEM_BOND_UDEF_STEREO_COUNT>  (1) 
0

>  <PUBCHEM_ISOTOPIC_ATOM_COUNT>  (1) 
0

>  <PUBCHEM_COMPONENT_COUNT>  (1) 
1

>  <PUBCHEM_CACTVS_TAUTO_COUNT>  (1) 
1

>  <PUBCHEM_CONFORMER_ID>  (1) 
00009A5A0000000C

>  <PUBCHEM_MMFF94_ENERGY>  (1) 
96.6263

>  <PUBCHEM_FEATURE_SELFOVERLAP>  (1) 
40.72

>  <PUBCHEM_SHAPE_FINGERPRINT>  (1) 
10165383 225 17988934379040240834
10369192 42 16625723759824716456
10411042 1 17692253357933519887
10498660 4 18411144597384940812
10670039 82 18335717005019721020
10906281 52 18263381226398267521
1100329 8 18194407916630869687
11595378 159 18114173125488746912
12173636 292 18268431239563926173
12236239 1 17821729450675084050
12390115 104 18058748913607541553
12403814 3 17530963600989257261
12553582 1 18410569630276159357
12596602 18 17458630046327576240
12788726 201 18259987058787092729
12969540 114 17417805128338906533
13140716 1 18195526119397005867
13224815 77 18411418371442838164
13533116 47 16226043371022277504
13583140 156 16877951593464237321
14341114 328 17749391494325968336
14787075 74 17894916277757232219
14790565 3 18339657697443395549
15196674 1 18339086986499180103
1601671 61 18411145714155545813
17492 89 17968653792197240146
18681886 176 18337118942590838708
20510252 161 18270967847117068137
20511986 3 17895466020454376060
20715895 44 17535170169390496101
21033648 29 17989486325234631473
23227448 37 18199752607898222380
23557571 272 17988364900567925998
23558518 356 17828769443555664185
23559900 14 18051130293926761767
3178227 256 18263944283884529995
34934 24 18408885152935773759
350125 39 18194690267649182982
474 4 16951139498794270972
495365 180 16845851304600397014
5104073 3 18266187136716582179
633830 44 16128658509785837403
7097593 13 17535166879466016210
7808743 9 18340768243115941880

>  <PUBCHEM_SHAPE_MULTIPOLES>  (1) 
485.14
10.36
3
1.58
0.01
0.2
0.95
2.25
1.6
-2.8
-1.21
2.82
0.03
-0.51

>  <PUBCHEM_SHAPE_SELFOVERLAP>  (1) 
1063.651

>  <PUBCHEM_SHAPE_VOLUME>  (1) 
266.4

>  <PUBCHEM_COORDINATE_TYPE>  (1) 
2
5
10

$$$$
