39523
     RDKit          3D

 25 25  0  0  0  0  0  0  0  0999 V2000
   -1.8391   -2.1194    0.9523 I   0  0  0  0  0  0  0  0  0  0  0  0
    0.6337    3.4602    0.7570 I   0  0  0  0  0  0  0  0  0  0  0  0
    4.1387   -1.4620   -0.1047 I   0  0  0  0  0  0  0  0  0  0  0  0
   -1.9348    1.3077    2.2118 O   0  0  0  0  0  0  0  0  0  0  0  0
    1.5076   -3.5469    1.3656 O   0  0  0  0  0  0  0  0  0  0  0  0
   -5.7633   -0.8536   -0.9735 O   0  0  0  0  0  0  0  0  0  0  0  0
    3.2425    2.0381   -2.1141 O   0  0  0  0  0  0  0  0  0  0  0  0
   -4.0535    0.1618   -2.0693 O   0  0  0  0  0  0  0  0  0  0  0  0
   -2.3484    1.4369   -0.0671 N   0  0  0  0  0  0  0  0  0  0  0  0
    3.2113    1.6083    0.2021 N   0  0  0  0  0  0  0  0  0  0  0  0
    1.0728   -3.4474   -0.9100 N   0  0  0  0  0  0  0  0  0  0  0  0
   -0.2552    0.5131    0.7813 C   0  0  0  0  0  0  0  0  0  0  0  0
    1.1127   -1.4265    0.4455 C   0  0  0  0  0  0  0  0  0  0  0  0
    2.0907    0.7813    0.3679 C   0  0  0  0  0  0  0  0  0  0  0  0
   -0.1382   -0.8635    0.6979 C   0  0  0  0  0  0  0  0  0  0  0  0
    0.8398    1.3443    0.6202 C   0  0  0  0  0  0  0  0  0  0  0  0
    2.2272   -0.6041    0.2805 C   0  0  0  0  0  0  0  0  0  0  0  0
   -1.5876    1.1130    1.0498 C   0  0  0  0  0  0  0  0  0  0  0  0
   -3.6476    2.0460    0.0291 C   0  0  0  0  0  0  0  0  0  0  0  0
   -4.7615    1.0099    0.1033 C   0  0  0  0  0  0  0  0  0  0  0  0
    1.2562   -2.8803    0.3518 C   0  0  0  0  0  0  0  0  0  0  0  0
    3.7004    2.1630   -0.9828 C   0  0  0  0  0  0  0  0  0  0  0  0
   -4.7945    0.0913   -1.0990 C   0  0  0  0  0  0  0  0  0  0  0  0
    1.1579   -4.8684   -1.1592 C   0  0  0  0  0  0  0  0  0  0  0  0
    4.9322    2.9973   -0.7362 C   0  0  0  0  0  0  0  0  0  0  0  0
  1 15  1  0
  2 16  1  0
  3 17  1  0
  4 18  2  0
  5 21  2  0
  6 23  1  0
  7 22  2  0
  8 23  2  0
  9 18  1  0
  9 19  1  0
 10 14  1  0
 10 22  1  0
 11 21  1  0
 11 24  1  0
 12 15  2  0
 12 16  1  0
 12 18  1  0
 13 15  1  0
 13 17  2  0
 13 21  1  0
 14 16  2  0
 14 17  1  0
 19 20  1  0
 20 23  1  0
 22 25  1  0
M  END
>  <PUBCHEM_COMPOUND_CID>  (1) 
39523

>  <PUBCHEM_CONFORMER_RMSD>  (1) 
1

>  <PUBCHEM_CONFORMER_DIVERSEORDER>  (1) 
1
6
27
25
13
17
21
10
14
18
20
5
11
24
4
16
26
23
8
15
9
12
19
2
28
22
7
3

>  <PUBCHEM_MMFF94_PARTIAL_CHARGES>  (1) 
29
1 -0.08
10 -0.55
11 -0.73
12 0.09
13 0.09
14 0.12
15 0.08
16 0.08
17 0.08
18 0.54
19 0.3
2 -0.08
20 0.06
21 0.54
22 0.57
23 0.66
24 0.3
25 0.06
28 0.37
3 -0.08
31 0.37
32 0.37
39 0.5
4 -0.57
5 -0.57
6 -0.65
7 -0.57
8 -0.57
9 -0.73

>  <PUBCHEM_EFFECTIVE_ROTOR_COUNT>  (1) 
9

>  <PUBCHEM_PHARMACOPHORE_FEATURES>  (1) 
13
1 1 hydrophobe
1 10 donor
1 11 donor
1 2 hydrophobe
1 3 hydrophobe
1 4 acceptor
1 5 acceptor
1 6 acceptor
1 7 acceptor
1 8 acceptor
1 9 donor
3 6 8 23 anion
6 12 13 14 15 16 17 rings

>  <PUBCHEM_HEAVY_ATOM_COUNT>  (1) 
25

>  <PUBCHEM_ATOM_DEF_STEREO_COUNT>  (1) 
0

>  <PUBCHEM_ATOM_UDEF_STEREO_COUNT>  (1) 
0

>  <PUBCHEM_BOND_DEF_STEREO_COUNT>  (1) 
0

>  <PUBCHEM_BOND_UDEF_STEREO_COUNT>  (1) 
0

>  <PUBCHEM_ISOTOPIC_ATOM_COUNT>  (1) 
0

>  <PUBCHEM_COMPONENT_COUNT>  (1) 
1

>  <PUBCHEM_CACTVS_TAUTO_COUNT>  (1) 
8

>  <PUBCHEM_CONFORMER_ID>  (1) 
00009A6300000001

>  <PUBCHEM_MMFF94_ENERGY>  (1) 
91.2575

>  <PUBCHEM_FEATURE_SELFOVERLAP>  (1) 
66.031

>  <PUBCHEM_SHAPE_FINGERPRINT>  (1) 
11069576 57 18056455306513846759
12788726 201 17560815286202813697
13140716 1 18337692844668244802
13383661 66 17271461402214560279
13911987 19 18263375843881898196
14863182 85 18270949177126198194
15537594 2 18060131090260542351
15842332 3 17843979039395149665
16752209 62 18121497122812392402
16945 1 18121800339135062568
17138139 8 17914879058020906159
17349148 13 18338508621639128090
18681886 176 18341322324004114922
20028762 73 18272365322697285222
20775438 99 17412159333435230077
21033648 144 18113620096772668524
21344244 181 18059030487220852966
21344244 246 18341339877609735550
21634736 98 18053942857924747315
22182313 1 18193020277074451970
2334 1 18267318675904707186
23559900 14 18269543958210680715
23566358 2 18267884928424377550
238 59 18411135883022793761
2748010 2 18339098067699388002
352729 6 18337969925803864146
4280585 95 17691403010375251366
4409770 3 18050293862110011842
46194498 28 18115861906998754357
59554788 191 18409453574862328562

>  <PUBCHEM_SHAPE_MULTIPOLES>  (1) 
506.01
9.03
5.25
1.52
7.82
4.05
-0.29
-4.17
-4.69
-4.62
-0.57
0.58
-0.07
-1.01

>  <PUBCHEM_SHAPE_SELFOVERLAP>  (1) 
984.878

>  <PUBCHEM_SHAPE_VOLUME>  (1) 
314.3

>  <PUBCHEM_COORDINATE_TYPE>  (1) 
2
5
10

$$$$
