39522
     RDKit          3D

 14 14  0  0  0  0  0  0  0  0999 V2000
   -4.2622   -1.2167   -0.1466 O   0  0  0  0  0  0  0  0  0  0  0  0
   -4.4217    0.9922   -0.6585 O   0  0  0  0  0  0  0  0  0  0  0  0
   -1.7528   -1.1054    0.3545 N   0  0  0  0  0  0  0  0  0  0  0  0
    4.2194   -0.3204   -0.0755 C   0  0  0  0  0  0  0  0  0  0  0  0
    2.7027   -0.3116   -0.3538 C   0  0  0  0  0  0  0  0  0  0  0  0
    1.8135    0.0018    0.8575 C   0  0  0  0  0  0  0  0  0  0  0  0
    4.6500    1.0423    0.4755 C   0  0  0  0  0  0  0  0  0  0  0  0
    5.0388   -0.6506   -1.3239 C   0  0  0  0  0  0  0  0  0  0  0  0
    0.3403    0.0536    0.5393 C   0  0  0  0  0  0  0  0  0  0  0  0
   -0.2481    1.2419    0.1579 C   0  0  0  0  0  0  0  0  0  0  0  0
   -0.4288   -1.0828    0.6261 C   0  0  0  0  0  0  0  0  0  0  0  0
   -1.6084    1.2586   -0.1297 C   0  0  0  0  0  0  0  0  0  0  0  0
   -2.3097    0.0690   -0.0174 C   0  0  0  0  0  0  0  0  0  0  0  0
   -3.7330    0.0280   -0.3053 C   0  0  0  0  0  0  0  0  0  0  0  0
  1 14  1  0
  2 14  2  0
  3 11  2  0
  3 13  1  0
  4  5  1  0
  4  7  1  0
  4  8  1  0
  5  6  1  0
  6  9  1  0
  9 10  2  0
  9 11  1  0
 10 12  1  0
 12 13  2  0
 13 14  1  0
M  END
>  <PUBCHEM_COMPOUND_CID>  (1) 
39522

>  <PUBCHEM_CONFORMER_RMSD>  (1) 
0.6

>  <PUBCHEM_CONFORMER_DIVERSEORDER>  (1) 
1
3
5
8
7
6
4
2

>  <PUBCHEM_MMFF94_PARTIAL_CHARGES>  (1) 
14
1 -0.65
10 -0.15
11 0.16
12 -0.15
13 0.4
14 0.63
2 -0.57
26 0.15
27 0.15
28 0.15
29 0.5
3 -0.62
6 0.14
9 -0.14

>  <PUBCHEM_EFFECTIVE_ROTOR_COUNT>  (1) 
4

>  <PUBCHEM_PHARMACOPHORE_FEATURES>  (1) 
6
1 1 acceptor
1 2 acceptor
1 3 acceptor
3 1 2 14 anion
3 4 7 8 hydrophobe
6 3 9 10 11 12 13 rings

>  <PUBCHEM_HEAVY_ATOM_COUNT>  (1) 
14

>  <PUBCHEM_ATOM_DEF_STEREO_COUNT>  (1) 
0

>  <PUBCHEM_ATOM_UDEF_STEREO_COUNT>  (1) 
0

>  <PUBCHEM_BOND_DEF_STEREO_COUNT>  (1) 
0

>  <PUBCHEM_BOND_UDEF_STEREO_COUNT>  (1) 
0

>  <PUBCHEM_ISOTOPIC_ATOM_COUNT>  (1) 
0

>  <PUBCHEM_COMPONENT_COUNT>  (1) 
1

>  <PUBCHEM_CACTVS_TAUTO_COUNT>  (1) 
1

>  <PUBCHEM_CONFORMER_ID>  (1) 
00009A6200000001

>  <PUBCHEM_MMFF94_ENERGY>  (1) 
30.4567

>  <PUBCHEM_FEATURE_SELFOVERLAP>  (1) 
30.518

>  <PUBCHEM_SHAPE_FINGERPRINT>  (1) 
11401426 45 18334007298407746853
114248 4 18342174488116855346
12032990 46 18341332279479590491
12236239 1 17168139036321242000
12251169 10 9655568609094236642
12670543 26 18340762629387802149
14911166 2 18408317787692207445
14993402 34 17821728338215224965
15048467 5 16805600339996613165
17834072 33 17131545149954236464
17870717 6 18342190933425585774
18186145 218 18334568044900715413
187816 3 18261112967314959499
200 152 17132116823207639178
20279233 1 18343587352401324578
204376 136 14634874145408380064
20645476 183 17530686532412128459
20645477 70 17775010059919987638
20871999 31 18260267494518750435
21119208 17 18040720259921924518
22485316 2 17918270965519486046
22926399 37 16081094779097543252
23402539 116 18335695040145232790
23402655 69 18261385599207351725
23557571 272 18342182111847856052
23559900 14 18411417320030269642
265663 24 14418130729407311832
293599 30 18262516984188630709
42 15 10952054455057201936
4990 188 18342737412263627546

>  <PUBCHEM_SHAPE_MULTIPOLES>  (1) 
271.39
10.17
1.26
0.91
4.54
0.11
-0.08
-0.52
-3.01
-0.37
0.02
0.62
-0.08
0.76

>  <PUBCHEM_SHAPE_SELFOVERLAP>  (1) 
550.394

>  <PUBCHEM_SHAPE_VOLUME>  (1) 
158.3

>  <PUBCHEM_COORDINATE_TYPE>  (1) 
2
5
10

$$$$
