39526
     RDKit          3D

 28 32  0  0  1  0  0  0  0  0999 V2000
    2.7436    4.8655   -0.7181 Cl  0  0  0  0  0  0  0  0  0  0  0  0
    4.5480   -0.7710    1.3695 S   0  0  0  0  0  0  0  0  0  0  0  0
    0.6427    0.1556   -2.3204 O   0  0  0  0  0  0  0  0  0  0  0  0
   -5.4891    0.8424    0.4509 N   0  0  0  0  0  0  0  0  0  0  0  0
   -2.8739   -0.1706   -0.0931 N   0  0  0  0  0  0  0  0  0  0  0  0
    1.9380   -0.2334   -0.4101 N   0  0  0  0  0  0  0  0  0  0  0  0
   -5.2629   -0.5782    0.1818 C   0  0  0  0  0  0  0  0  0  0  0  0
   -6.6116   -0.9792   -0.3887 C   0  0  0  0  0  0  0  0  0  0  0  0
   -4.0645   -0.7454   -0.7453 C   0  0  0  0  0  0  0  0  0  0  0  0
   -6.7600    0.9022    1.1586 C   0  0  0  0  0  0  0  0  0  0  0  0
   -7.6055   -0.1389    0.4206 C   0  0  0  0  0  0  0  0  0  0  0  0
   -4.3503    1.4257    1.1442 C   0  0  0  0  0  0  0  0  0  0  0  0
   -3.0924    1.2405    0.2762 C   0  0  0  0  0  0  0  0  0  0  0  0
   -1.6979   -0.3063   -0.9499 C   0  0  0  0  0  0  0  0  0  0  0  0
   -0.4691    0.1700   -0.2030 C   0  0  0  0  0  0  0  0  0  0  0  0
    0.7394    0.0108   -1.1013 C   0  0  0  0  0  0  0  0  0  0  0  0
    2.8005    0.8768   -0.0789 C   0  0  0  0  0  0  0  0  0  0  0  0
    2.3293   -1.5957   -0.1289 C   0  0  0  0  0  0  0  0  0  0  0  0
    3.9845    0.7462    0.6608 C   0  0  0  0  0  0  0  0  0  0  0  0
    3.4489   -1.9426    0.6384 C   0  0  0  0  0  0  0  0  0  0  0  0
    2.4370    2.1858   -0.4744 C   0  0  0  0  0  0  0  0  0  0  0  0
    1.5786   -2.6598   -0.6830 C   0  0  0  0  0  0  0  0  0  0  0  0
    4.7839    1.8749    0.9371 C   0  0  0  0  0  0  0  0  0  0  0  0
    3.7638   -3.2977    0.8694 C   0  0  0  0  0  0  0  0  0  0  0  0
    3.2334    3.3002   -0.1954 C   0  0  0  0  0  0  0  0  0  0  0  0
    1.8985   -4.0002   -0.4534 C   0  0  0  0  0  0  0  0  0  0  0  0
    4.4156    3.1434    0.5049 C   0  0  0  0  0  0  0  0  0  0  0  0
    2.9915   -4.3208    0.3314 C   0  0  0  0  0  0  0  0  0  0  0  0
  1 25  1  0
  2 19  1  0
  2 20  1  0
  3 16  2  0
  4  7  1  0
  4 10  1  0
  4 12  1  0
  5  9  1  0
  5 13  1  0
  5 14  1  0
  6 16  1  0
  6 17  1  0
  6 18  1  0
  7  8  1  0
  7  9  1  0
  8 11  1  0
 10 11  1  0
 12 13  1  0
 14 15  1  0
 15 16  1  0
 17 19  2  0
 17 21  1  0
 18 20  2  0
 18 22  1  0
 19 23  1  0
 20 24  1  0
 21 25  2  0
 22 26  2  0
 23 27  2  0
 24 28  2  0
 25 27  1  0
 26 28  1  0
M  END
>  <PUBCHEM_COMPOUND_CID>  (1) 
39526

>  <PUBCHEM_CONFORMER_RMSD>  (1) 
0.8

>  <PUBCHEM_CONFORMER_DIVERSEORDER>  (1) 
1
53
158
55
95
216
328
167
359
332
258
226
287
101
148
142
355
231
262
369
25
60
127
322
124
306
191
263
45
277
358
289
50
354
350
348
299
169
307
239
128
80
42
245
219
256
9
64
349
105
134
251
337
11
35
153
174
89
345
150
172
196
298
309
352
254
198
372
363
46
161
210
273
98
209
357
132
41
279
36
246
155
305
6
204
149
341
339
70
367
14
179
302
192
144
255
146
319
360
214
240
76
338
235
205
104
186
200
90
5
112
223
182
77
334
12
44
373
63
259
136
267
314
261
87
65
342
59
333
129
145
118
296
99
74
75
178
73
211
353
107
351
160
222
81
228
185
275
94
276
316
317
7
215
202
157
96
30
272
291
152
213
362
143
247
22
103
201
114
266
51
66
47
304
17
288
329
301
137
180
93
297
238
37
16
229
232
68
324
300
181
318
100
230
91
242
15
311
308
154
126
257
241
237
189
268
159
4
83
294
102
54
248
212
310
86
72
282
48
92
274
108
193
313
270
166
69
203
199
303
111
113
163
2
18
312
280
32
56
119
184
197
162
370
207
285
368
171
147
71
33
233
117
168
85
122
84
151
325
110
24
82
224
236
365
156
292
330
27
260
170
206
31
374
43
320
286
326
194
131
115
28
340
61
133
265
195
252
361
271
208
164
346
269
225
138
364
120
79
116
217
21
176
58
177
140
220
67
109
34
62
336
315
375
125
20
38
295
78
141
165
218
278
347
13
135
331
244
19
39
221
356
29
253
52
26
327
321
139
281
88
23
3
10
175
344
183
234
49
190
290
187
40
335
57
188
284
106
123
8
227
323
366
264
97
121
343
173
293
283
243
371
130
249
250

>  <PUBCHEM_MMFF94_PARTIAL_CHARGES>  (1) 
33
1 -0.18
10 0.27
12 0.27
13 0.27
14 0.27
15 0.06
16 0.57
17 0.12
18 0.12
19 0.1
2 -0.2
20 0.1
21 -0.15
22 -0.15
23 -0.15
24 -0.15
25 0.18
26 -0.15
27 -0.15
28 -0.15
3 -0.57
4 -0.81
46 0.15
47 0.15
48 0.15
49 0.15
5 -0.81
50 0.15
51 0.15
52 0.15
6 -0.29
7 0.27
9 0.27

>  <PUBCHEM_EFFECTIVE_ROTOR_COUNT>  (1) 
5.8

>  <PUBCHEM_PHARMACOPHORE_FEATURES>  (1) 
8
1 3 acceptor
1 4 cation
1 5 cation
5 4 7 8 10 11 rings
6 17 19 21 23 25 27 rings
6 18 20 22 24 26 28 rings
6 2 6 17 18 19 20 rings
6 4 5 7 9 12 13 rings

>  <PUBCHEM_HEAVY_ATOM_COUNT>  (1) 
28

>  <PUBCHEM_ATOM_DEF_STEREO_COUNT>  (1) 
0

>  <PUBCHEM_ATOM_UDEF_STEREO_COUNT>  (1) 
1

>  <PUBCHEM_BOND_DEF_STEREO_COUNT>  (1) 
0

>  <PUBCHEM_BOND_UDEF_STEREO_COUNT>  (1) 
0

>  <PUBCHEM_ISOTOPIC_ATOM_COUNT>  (1) 
0

>  <PUBCHEM_COMPONENT_COUNT>  (1) 
1

>  <PUBCHEM_CACTVS_TAUTO_COUNT>  (1) 
1

>  <PUBCHEM_CONFORMER_ID>  (1) 
00009A6600000001

>  <PUBCHEM_MMFF94_ENERGY>  (1) 
99.8122

>  <PUBCHEM_FEATURE_SELFOVERLAP>  (1) 
40.716

>  <PUBCHEM_SHAPE_FINGERPRINT>  (1) 
10165383 225 18261116318402580004
10411042 1 18050284774550641722
10554248 39 17845368861422558429
10595046 47 18343301488110286817
10816530 23 18119531187200035570
10835480 77 18408597055715559461
114674 6 18040998384582357202
11505856 67 16384541597277666780
12107183 9 17909837527030860465
12166972 35 18200594674791355059
13073987 5 18412269428883689089
13533116 47 18335144159456380771
1361 2 18409729590512937530
13785724 45 17983303616395830942
13955234 65 18409165506640969482
14211702 104 17895206536649581995
14400156 188 18261958445009017058
14565420 104 18269831072669562928
14739800 52 17917704725521201609
14790565 3 17977948217473880932
14849402 71 18410013252155710512
15142526 21 18054221313307600328
15250474 111 18201144551560873911
15475509 35 16733811009600182746
15950262 2 15695155327792454178
16992610 120 18191877928356431116
17492 89 18267866077659804843
17844677 252 18340210670503662849
19319366 153 18272365437969889613
19377110 9 18059848485475505887
19427546 62 18265334087064786162
1979834 28 18187083991825738244
20157964 124 18411138048113390353
20739085 24 18409161096432353136
21049683 271 18261963934419540334
21197605 99 18263083386874401843
21315764 268 18335700499708516637
21344244 78 18200581497973771712
21716022 299 14618305544608024028
21792934 111 18187932730227374481
21859007 373 17459736039989605613
23559900 14 18408888429658002779
23569914 152 10300204447251014089
23572383 38 17968382333732889315
23845131 108 18191864750335722922
239999 70 18131079216224735590
25147074 1 17988628732051061319
3178227 256 18335134302928124514
3411729 13 18343023315272609822
3421961 26 18337108943479724734
3663271 9 18343305864782480955
4073 2 18335988683323845563
474 4 18339079405750345552
5104073 3 18341062826733487851
57527585 21 16830366070872182708
67856867 119 18413388722587543819
8272917 22 18413389839126118486
86090 222 17313679131037279427
8988823 20 18408886222329499823

>  <PUBCHEM_SHAPE_MULTIPOLES>  (1) 
561.13
15.92
5.11
1.21
36.83
0.1
-0.18
-2.79
5.74
-10.99
-0.35
-0.15
-0.07
-1.36

>  <PUBCHEM_SHAPE_SELFOVERLAP>  (1) 
1196.884

>  <PUBCHEM_SHAPE_VOLUME>  (1) 
313.1

>  <PUBCHEM_COORDINATE_TYPE>  (1) 
2
5
10

$$$$
