39534
     RDKit          3D

 14 14  0  0  0  0  0  0  0  0999 V2000
   -2.6803    0.2561    0.0577 O   0  0  0  0  0  0  0  0  0  0  0  0
   -0.6986   -1.0435   -0.0215 O   0  0  0  0  0  0  0  0  0  0  0  0
    4.3487   -0.6747   -0.2207 O   0  0  0  0  0  0  0  0  0  0  0  0
   -1.5812    1.1731    0.0215 C   0  0  0  0  0  0  0  0  0  0  0  0
   -2.1286   -1.0638    0.0297 C   0  0  0  0  0  0  0  0  0  0  0  0
   -0.3723    0.2966   -0.0292 C   0  0  0  0  0  0  0  0  0  0  0  0
   -1.7411    2.0433   -1.2249 C   0  0  0  0  0  0  0  0  0  0  0  0
   -1.6469    2.0295    1.2860 C   0  0  0  0  0  0  0  0  0  0  0  0
   -2.5605   -1.7942    1.2974 C   0  0  0  0  0  0  0  0  0  0  0  0
   -2.6506   -1.7787   -1.2127 C   0  0  0  0  0  0  0  0  0  0  0  0
    0.9031    0.6969   -0.0789 C   0  0  0  0  0  0  0  0  0  0  0  0
    2.0198   -0.2162   -0.1260 C   0  0  0  0  0  0  0  0  0  0  0  0
    3.2913    0.1920   -0.1754 C   0  0  0  0  0  0  0  0  0  0  0  0
    5.4972   -0.1165    0.3970 C   0  0  0  0  0  0  0  0  0  0  0  0
  1  4  1  0
  1  5  1  0
  2  5  1  0
  2  6  1  0
  3 13  1  0
  3 14  1  0
  4  6  1  0
  4  7  1  0
  4  8  1  0
  5  9  1  0
  5 10  1  0
  6 11  2  0
 11 12  1  0
 12 13  2  0
M  END
>  <PUBCHEM_COMPOUND_CID>  (1) 
39534

>  <PUBCHEM_CONFORMER_RMSD>  (1) 
0.6

>  <PUBCHEM_CONFORMER_DIVERSEORDER>  (1) 
1
2
4
3

>  <PUBCHEM_MMFF94_PARTIAL_CHARGES>  (1) 
13
1 -0.56
11 -0.15
12 -0.15
13 -0.07
14 0.28
2 -0.36
27 0.15
28 0.15
29 0.15
3 -0.36
4 0.42
5 0.56
6 -0.06

>  <PUBCHEM_EFFECTIVE_ROTOR_COUNT>  (1) 
2.8

>  <PUBCHEM_PHARMACOPHORE_FEATURES>  (1) 
6
1 1 acceptor
1 2 acceptor
1 3 acceptor
3 4 7 8 hydrophobe
3 5 9 10 hydrophobe
5 1 2 4 5 6 rings

>  <PUBCHEM_HEAVY_ATOM_COUNT>  (1) 
14

>  <PUBCHEM_ATOM_DEF_STEREO_COUNT>  (1) 
0

>  <PUBCHEM_ATOM_UDEF_STEREO_COUNT>  (1) 
0

>  <PUBCHEM_BOND_DEF_STEREO_COUNT>  (1) 
0

>  <PUBCHEM_BOND_UDEF_STEREO_COUNT>  (1) 
2

>  <PUBCHEM_ISOTOPIC_ATOM_COUNT>  (1) 
0

>  <PUBCHEM_COMPONENT_COUNT>  (1) 
1

>  <PUBCHEM_CACTVS_TAUTO_COUNT>  (1) 
1

>  <PUBCHEM_CONFORMER_ID>  (1) 
00009A6E00000001

>  <PUBCHEM_MMFF94_ENERGY>  (1) 
31.3738

>  <PUBCHEM_FEATURE_SELFOVERLAP>  (1) 
30.484

>  <PUBCHEM_SHAPE_FINGERPRINT>  (1) 
10014705 185 18261106340655675756
10680689 15 18202569479901249814
11315181 36 18342172255330025480
11357001 24 18410586071426981241
12932764 1 18041280972371756648
13024252 1 15574721283268614817
14614273 12 18261956241373269357
16945 1 17617381027508479621
1986462 14 18412830162206711262
200 152 18130496513595069151
20279233 1 17703794695677435614
20645477 56 18262519169862916788
20711985 344 18261657238862045657
20871998 184 18343311361607273119
21061003 4 17775287204794067480
21339142 126 18413107277480613935
21339142 36 18201990058384420445
2306618 200 18336264552682627296
23402539 116 18411411826281983527
23557571 272 18340213999019129420
23559900 14 18340476851096765576
5104073 3 18410853232052940474
559249 180 18044363942931063506
573450 72 18041828533646923082
58051976 100 18334018268044228566

>  <PUBCHEM_SHAPE_MULTIPOLES>  (1) 
270.51
7.55
2.04
1.1
15.31
0.38
0.07
-2.3
0.42
-2.5
0.04
-0.94
0.06
0.03

>  <PUBCHEM_SHAPE_SELFOVERLAP>  (1) 
540.272

>  <PUBCHEM_SHAPE_VOLUME>  (1) 
163

>  <PUBCHEM_COORDINATE_TYPE>  (1) 
2
5
10

$$$$
