39536
     RDKit          3D

 17 18  0  0  0  0  0  0  0  0999 V2000
   -1.8641    1.5935    0.1045 O   0  0  0  0  0  0  0  0  0  0  0  0
    0.9432    2.3337   -0.0277 O   0  0  0  0  0  0  0  0  0  0  0  0
   -0.8057   -2.9608   -0.1677 O   0  0  0  0  0  0  0  0  0  0  0  0
    3.2836    1.2719   -0.7522 O   0  0  0  0  0  0  0  0  0  0  0  0
   -1.3210   -0.5952   -0.0295 C   0  0  0  0  0  0  0  0  0  0  0  0
   -0.8338    0.7073    0.0021 C   0  0  0  0  0  0  0  0  0  0  0  0
   -2.7333   -0.4813    0.0597 C   0  0  0  0  0  0  0  0  0  0  0  0
   -3.0097    0.8640    0.1388 C   0  0  0  0  0  0  0  0  0  0  0  0
    1.4151   -0.0302   -0.1653 C   0  0  0  0  0  0  0  0  0  0  0  0
    0.5186    1.0378   -0.0626 C   0  0  0  0  0  0  0  0  0  0  0  0
   -0.4016   -1.6538   -0.1330 C   0  0  0  0  0  0  0  0  0  0  0  0
    0.9658   -1.3526   -0.2000 C   0  0  0  0  0  0  0  0  0  0  0  0
   -3.7176   -1.5808    0.0691 C   0  0  0  0  0  0  0  0  0  0  0  0
    2.8483    0.2229   -0.2381 C   0  0  0  0  0  0  0  0  0  0  0  0
   -4.2594    1.6311    0.2487 C   0  0  0  0  0  0  0  0  0  0  0  0
    3.8377   -0.8111    0.3244 C   0  0  0  0  0  0  0  0  0  0  0  0
    5.1339   -0.1965    0.8288 C   0  0  0  0  0  0  0  0  0  0  0  0
  1  6  1  0
  1  8  1  0
  2 10  1  0
  3 11  1  0
  4 14  2  0
  5  6  2  0
  5  7  1  0
  5 11  1  0
  6 10  1  0
  7  8  2  0
  7 13  1  0
  8 15  1  0
  9 10  2  0
  9 12  1  0
  9 14  1  0
 11 12  2  0
 14 16  1  0
 16 17  1  0
M  END
>  <PUBCHEM_COMPOUND_CID>  (1) 
39536

>  <PUBCHEM_CONFORMER_RMSD>  (1) 
0.6

>  <PUBCHEM_CONFORMER_DIVERSEORDER>  (1) 
1
4
2
5
3
6

>  <PUBCHEM_MMFF94_PARTIAL_CHARGES>  (1) 
18
1 -0.28
10 0.08
11 0.08
12 -0.15
13 0.18
14 0.42
15 0.18
16 0.06
18 0.15
2 -0.53
3 -0.53
30 0.45
31 0.45
4 -0.57
6 0.14
7 -0.18
8 -0.04
9 0.09

>  <PUBCHEM_EFFECTIVE_ROTOR_COUNT>  (1) 
2

>  <PUBCHEM_PHARMACOPHORE_FEATURES>  (1) 
7
1 1 acceptor
1 17 hydrophobe
1 2 donor
1 3 donor
1 4 acceptor
5 1 5 6 7 8 rings
6 5 6 9 10 11 12 rings

>  <PUBCHEM_HEAVY_ATOM_COUNT>  (1) 
17

>  <PUBCHEM_ATOM_DEF_STEREO_COUNT>  (1) 
0

>  <PUBCHEM_ATOM_UDEF_STEREO_COUNT>  (1) 
0

>  <PUBCHEM_BOND_DEF_STEREO_COUNT>  (1) 
0

>  <PUBCHEM_BOND_UDEF_STEREO_COUNT>  (1) 
0

>  <PUBCHEM_ISOTOPIC_ATOM_COUNT>  (1) 
0

>  <PUBCHEM_COMPONENT_COUNT>  (1) 
1

>  <PUBCHEM_CACTVS_TAUTO_COUNT>  (1) 
16

>  <PUBCHEM_CONFORMER_ID>  (1) 
00009A7000000001

>  <PUBCHEM_MMFF94_ENERGY>  (1) 
32.1698

>  <PUBCHEM_FEATURE_SELFOVERLAP>  (1) 
35.622

>  <PUBCHEM_SHAPE_FINGERPRINT>  (1) 
10062212 137 18410005537856448139
10967382 1 18267026050892273799
11132069 177 18412264995396115212
11401426 45 18342451517501896685
12236239 1 18040436599365964390
12251169 10 18408881846005653946
13140716 1 18052258689309973267
13214271 11 18343578525647335007
13380535 76 18338238163638685387
13675066 3 18272649043730491970
13862211 1 18267864059516507023
15042514 8 18338238275065755243
15196674 1 18410294730873429020
15209294 21 17845945026151300089
15309172 13 18411429388339810291
15442244 35 18337389439345855516
15536298 74 18200314295358267606
16945 1 18339926042472376119
17804303 29 18413390955828229864
1813 80 17168424849558345622
18186145 218 18130240254392432542
193761 8 17835241525178352197
19422 9 18113622317333673874
200 152 18130777980556747639
20510252 161 18201723950489302904
20645476 183 17824003288219368046
21267235 1 18409175432426616674
21501502 16 18266179624475772476
21524375 3 18410292488942841463
2334 1 18339929225048547175
23366157 5 17898846027105377316
23402539 116 18271796917623220726
23402655 69 18198613342918551725
23463225 33 18335420136684834006
23558518 356 18118404187760387475
23559900 14 18200884989659593126
2748010 2 18268159655817737719
335352 9 18338237063620499989
34934 24 18267015073119311017
350125 39 18339366361527228225
4072396 5 18191574268522273281
43471831 8 18335981952551280658
5104073 3 18409451418245076960
528886 8 18411697647717994769
53812653 166 18343580707343112753
54173680 148 18193559106112386715
58807428 26 18337108943379556946
69090 78 18413384337083296590
7364860 26 17982735168863119591
9709674 26 18413113874619439630

>  <PUBCHEM_SHAPE_MULTIPOLES>  (1) 
326.37
7.83
2.26
0.69
4.37
0.57
-0.02
-0.95
-1.5
-1.27
0.11
0.3
-0.02
-0.36

>  <PUBCHEM_SHAPE_SELFOVERLAP>  (1) 
706.987

>  <PUBCHEM_SHAPE_VOLUME>  (1) 
182.5

>  <PUBCHEM_COORDINATE_TYPE>  (1) 
2
5
10

$$$$
