39548
     RDKit          3D

 21 23  0  0  1  0  0  0  0  0999 V2000
    0.8945    0.0501    1.5286 O   0  0  0  0  0  0  0  0  0  0  0  0
   -3.7066   -0.5388    0.1424 N   0  0  0  0  0  0  0  0  0  0  0  0
    3.0851   -0.3597    0.4846 C   0  0  0  0  0  0  0  0  0  0  0  0
    3.3677    1.1313    0.0762 C   0  0  0  0  0  0  0  0  0  0  0  0
    2.6332    0.9387   -1.2743 C   0  0  0  0  0  0  0  0  0  0  0  0
    1.5206   -0.4774    0.3570 C   0  0  0  0  0  0  0  0  0  0  0  0
    1.2251    0.4330   -0.8622 C   0  0  0  0  0  0  0  0  0  0  0  0
    3.7276   -1.1348   -0.7018 C   0  0  0  0  0  0  0  0  0  0  0  0
    3.3669   -0.2621   -1.9153 C   0  0  0  0  0  0  0  0  0  0  0  0
    3.6463   -0.7921    1.8301 C   0  0  0  0  0  0  0  0  0  0  0  0
    4.8435    1.5539   -0.0691 C   0  0  0  0  0  0  0  0  0  0  0  0
    2.7306    2.2009    0.9927 C   0  0  0  0  0  0  0  0  0  0  0  0
    0.9569   -1.8882    0.1800 C   0  0  0  0  0  0  0  0  0  0  0  0
   -0.4966   -1.8521    0.0078 C   0  0  0  0  0  0  0  0  0  0  0  0
   -1.6893   -1.8318   -0.1344 C   0  0  0  0  0  0  0  0  0  0  0  0
   -3.1444   -1.8110   -0.3105 C   0  0  0  0  0  0  0  0  0  0  0  0
   -3.1346    0.5775   -0.6233 C   0  0  0  0  0  0  0  0  0  0  0  0
   -5.1724   -0.5585    0.0383 C   0  0  0  0  0  0  0  0  0  0  0  0
   -3.6754    1.9200   -0.1291 C   0  0  0  0  0  0  0  0  0  0  0  0
   -5.7798    0.7470    0.5546 C   0  0  0  0  0  0  0  0  0  0  0  0
   -5.1989    1.9543   -0.1725 C   0  0  0  0  0  0  0  0  0  0  0  0
  1  6  1  0
  2 16  1  0
  2 17  1  0
  2 18  1  0
  3  4  1  0
  3  6  1  0
  3  8  1  0
  3 10  1  0
  4  5  1  0
  4 11  1  0
  4 12  1  0
  5  7  1  0
  5  9  1  0
  6  7  1  0
  6 13  1  0
  8  9  1  0
 13 14  1  0
 14 15  3  0
 15 16  1  0
 17 19  1  0
 18 20  1  0
 19 21  1  0
 20 21  1  0
M  END
>  <PUBCHEM_COMPOUND_CID>  (1) 
39548

>  <PUBCHEM_CONFORMER_RMSD>  (1) 
0.6

>  <PUBCHEM_CONFORMER_DIVERSEORDER>  (1) 
8
35
22
41
36
40
26
42
43
12
25
39
38
34
23
37
18
44
13
28
6
21
29
17
33
24
32
10
1
9
27
20
30
11
19
31
2
15
4
7
5
16
3
14

>  <PUBCHEM_MMFF94_PARTIAL_CHARGES>  (1) 
10
1 -0.68
13 0.2
14 -0.2
15 -0.2
16 0.47
17 0.27
18 0.27
2 -0.81
40 0.4
6 0.28

>  <PUBCHEM_EFFECTIVE_ROTOR_COUNT>  (1) 
4.2

>  <PUBCHEM_PHARMACOPHORE_FEATURES>  (1) 
6
1 1 acceptor
1 1 donor
1 2 cation
3 4 11 12 hydrophobe
6 2 17 18 19 20 21 rings
7 3 4 5 6 7 8 9 rings

>  <PUBCHEM_HEAVY_ATOM_COUNT>  (1) 
21

>  <PUBCHEM_ATOM_DEF_STEREO_COUNT>  (1) 
0

>  <PUBCHEM_ATOM_UDEF_STEREO_COUNT>  (1) 
3

>  <PUBCHEM_BOND_DEF_STEREO_COUNT>  (1) 
0

>  <PUBCHEM_BOND_UDEF_STEREO_COUNT>  (1) 
0

>  <PUBCHEM_ISOTOPIC_ATOM_COUNT>  (1) 
0

>  <PUBCHEM_COMPONENT_COUNT>  (1) 
1

>  <PUBCHEM_CACTVS_TAUTO_COUNT>  (1) 
1

>  <PUBCHEM_CONFORMER_ID>  (1) 
00009A7C00000008

>  <PUBCHEM_MMFF94_ENERGY>  (1) 
72.3889

>  <PUBCHEM_FEATURE_SELFOVERLAP>  (1) 
30.446

>  <PUBCHEM_SHAPE_FINGERPRINT>  (1) 
10498660 4 18411699864216784837
10646746 165 18410853308602767108
10670039 82 18262528000278449293
12236239 1 17967813851085889787
12596602 18 16660647405485662649
12916748 109 18336551602858950619
13224815 77 17967809457650870261
13544653 18 11674882199645490879
14341114 176 17748549229827910555
14341114 328 16733274512276314485
15163728 17 17610635476628309948
15196674 1 18410011031383084559
15475509 8 17967827046364835380
16945 1 16482229761632134310
1798214 20 11671779352035469503
18186145 218 17988373636278243762
20261772 1 18113620066929261581
20645477 70 16916801677259358278
20715895 44 17757258290066018261
20739085 24 17530683169684610326
21421861 104 17895740826069361514
21503847 285 17603874398691180390
21864079 5 18410007771386901311
221357 26 18060138743491590105
22289505 5 17989211460313075240
23227448 37 18271241724897655231
23557571 272 18057890340659607791
23559900 14 18060423508455330630
2637199 183 18260557701158653679
2838139 119 17769366459955985208
3680242 22 18339360760504701049
38570 142 16879661321492811678
474 4 17603588560038330615
495365 180 17489303079664645798
5104073 3 18260545645333024211
5161694 15 17489593359160549167
5281201 14 17988651804145701175
59682541 52 16414916323633759669
6328613 192 18260554446264267292
633830 44 18411696603814615071
7064713 232 18334857165536508749
7399639 24 16695524085948675723
7808743 9 18337953522780480169
960060 61 12463566292358513995

>  <PUBCHEM_SHAPE_MULTIPOLES>  (1) 
421.32
12.16
2.29
1.28
13.89
0.18
-0.01
4.92
-0.28
0.73
-0.12
-1.61
0.01
0

>  <PUBCHEM_SHAPE_SELFOVERLAP>  (1) 
877.621

>  <PUBCHEM_SHAPE_VOLUME>  (1) 
244.5

>  <PUBCHEM_COORDINATE_TYPE>  (1) 
2
5
10

$$$$
