3954
     RDKit          3D

 34 37  0  0  0  0  0  0  0  0999 V2000
   -7.8609   -2.5209    0.1847 Cl  0  0  0  0  0  0  0  0  0  0  0  0
   -3.9593    2.6790   -1.0468 O   0  0  0  0  0  0  0  0  0  0  0  0
    2.7438    0.1495    2.5844 O   0  0  0  0  0  0  0  0  0  0  0  0
   -0.5810    2.3885   -0.1812 N   0  0  0  0  0  0  0  0  0  0  0  0
    3.7202    1.8790    1.4381 N   0  0  0  0  0  0  0  0  0  0  0  0
   -3.4093    1.5178   -0.4008 C   0  0  0  0  0  0  0  0  0  0  0  0
   -1.1381    1.9372   -1.5056 C   0  0  0  0  0  0  0  0  0  0  0  0
   -1.6368    2.9864    0.7129 C   0  0  0  0  0  0  0  0  0  0  0  0
   -2.2956    0.9602   -1.3137 C   0  0  0  0  0  0  0  0  0  0  0  0
   -2.7841    2.0027    0.9266 C   0  0  0  0  0  0  0  0  0  0  0  0
    0.2775    1.3552    0.4972 C   0  0  0  0  0  0  0  0  0  0  0  0
    1.4472    0.9989   -0.4284 C   0  0  0  0  0  0  0  0  0  0  0  0
    2.4871   -0.0280    0.1746 C   0  0  0  0  0  0  0  0  0  0  0  0
   -4.5359    0.4938   -0.2529 C   0  0  0  0  0  0  0  0  0  0  0  0
    3.6259   -0.3777   -0.8230 C   0  0  0  0  0  0  0  0  0  0  0  0
    1.8117   -1.4043    0.5198 C   0  0  0  0  0  0  0  0  0  0  0  0
    3.0198    0.6647    1.4898 C   0  0  0  0  0  0  0  0  0  0  0  0
   -4.8691    0.0030    1.0090 C   0  0  0  0  0  0  0  0  0  0  0  0
   -5.2290    0.0536   -1.3795 C   0  0  0  0  0  0  0  0  0  0  0  0
    3.3265   -0.3770   -2.1546 C   0  0  0  0  0  0  0  0  0  0  0  0
    2.3113   -2.0889    1.5792 C   0  0  0  0  0  0  0  0  0  0  0  0
    4.8564   -0.6648   -0.3071 C   0  0  0  0  0  0  0  0  0  0  0  0
    0.7815   -1.8016   -0.2684 C   0  0  0  0  0  0  0  0  0  0  0  0
   -5.8972   -0.9299    1.1442 C   0  0  0  0  0  0  0  0  0  0  0  0
   -6.2573   -0.8792   -1.2442 C   0  0  0  0  0  0  0  0  0  0  0  0
   -6.5914   -1.3710    0.0177 C   0  0  0  0  0  0  0  0  0  0  0  0
    4.3487   -0.6914   -3.0502 C   0  0  0  0  0  0  0  0  0  0  0  0
    1.7120   -3.3106    1.8856 C   0  0  0  0  0  0  0  0  0  0  0  0
    5.8787   -0.9790   -1.2026 C   0  0  0  0  0  0  0  0  0  0  0  0
    0.1822   -3.0233    0.0379 C   0  0  0  0  0  0  0  0  0  0  0  0
    4.0805    2.5456    0.1877 C   0  0  0  0  0  0  0  0  0  0  0  0
    4.1618    2.6027    2.6291 C   0  0  0  0  0  0  0  0  0  0  0  0
    5.6247   -0.9924   -2.5741 C   0  0  0  0  0  0  0  0  0  0  0  0
    0.6475   -3.7778    1.1148 C   0  0  0  0  0  0  0  0  0  0  0  0
  1 26  1  0
  2  6  1  0
  3 17  2  0
  4  7  1  0
  4  8  1  0
  4 11  1  0
  5 17  1  0
  5 31  1  0
  5 32  1  0
  6  9  1  0
  6 10  1  0
  6 14  1  0
  7  9  1  0
  8 10  1  0
 11 12  1  0
 12 13  1  0
 13 15  1  0
 13 16  1  0
 13 17  1  0
 14 18  2  0
 14 19  1  0
 15 20  2  0
 15 22  1  0
 16 21  2  0
 16 23  1  0
 18 24  1  0
 19 25  2  0
 20 27  1  0
 21 28  1  0
 22 29  2  0
 23 30  2  0
 24 26  2  0
 25 26  1  0
 27 33  2  0
 28 34  2  0
 29 33  1  0
 30 34  1  0
M  CHG  1   4   1
M  END
>  <PUBCHEM_COMPOUND_CID>  (1) 
3954

>  <PUBCHEM_CONFORMER_RMSD>  (1) 
1

>  <PUBCHEM_CONFORMER_DIVERSEORDER>  (1) 
1
7
13
17
10
6
15
20
19
8
5
16
11
2
3
18
4
14
9
12

>  <PUBCHEM_MMFF94_PARTIAL_CHARGES>  (1) 
47
1 -0.18
11 0.5
13 0.35
14 -0.14
15 -0.14
16 -0.14
17 0.57
18 -0.15
19 -0.15
2 -0.68
20 -0.15
21 -0.15
22 -0.15
23 -0.15
24 -0.15
25 -0.15
26 0.18
27 -0.15
28 -0.15
29 -0.15
3 -0.57
30 -0.15
31 0.3
32 0.3
33 -0.15
34 -0.15
35 0.45
4 -0.96
48 0.4
49 0.15
5 -0.66
50 0.15
51 0.15
52 0.15
53 0.15
54 0.15
55 0.15
56 0.15
57 0.15
58 0.15
59 0.15
6 0.42
60 0.15
67 0.15
68 0.15
7 0.5
8 0.5

>  <PUBCHEM_EFFECTIVE_ROTOR_COUNT>  (1) 
9.2

>  <PUBCHEM_PHARMACOPHORE_FEATURES>  (1) 
9
1 2 acceptor
1 2 donor
1 3 acceptor
1 4 cation
1 4 donor
6 14 18 19 24 25 26 rings
6 15 20 22 27 29 33 rings
6 16 21 23 28 30 34 rings
6 4 6 7 8 9 10 rings

>  <PUBCHEM_HEAVY_ATOM_COUNT>  (1) 
34

>  <PUBCHEM_ATOM_DEF_STEREO_COUNT>  (1) 
0

>  <PUBCHEM_ATOM_UDEF_STEREO_COUNT>  (1) 
0

>  <PUBCHEM_BOND_DEF_STEREO_COUNT>  (1) 
0

>  <PUBCHEM_BOND_UDEF_STEREO_COUNT>  (1) 
0

>  <PUBCHEM_ISOTOPIC_ATOM_COUNT>  (1) 
0

>  <PUBCHEM_COMPONENT_COUNT>  (1) 
1

>  <PUBCHEM_CACTVS_TAUTO_COUNT>  (1) 
1

>  <PUBCHEM_CONFORMER_ID>  (1) 
00000F7200000001

>  <PUBCHEM_MMFF94_ENERGY>  (1) 
142.9551

>  <PUBCHEM_FEATURE_SELFOVERLAP>  (1) 
45.672

>  <PUBCHEM_SHAPE_FINGERPRINT>  (1) 
10169797 241 18343300366470279762
10864689 126 18411136923038135391
10928967 22 18343292653220745015
11377469 6 18412270536764465677
11421498 54 17974867068646047440
11443803 9 17168152295296741724
11488393 25 17842007593334977046
11578080 2 15983674836695090114
11966995 16 18041547145230136991
12522641 126 17313667032752852394
12596602 18 17632297913121170003
12633257 1 11239991244529897459
13149001 5 18270979985670319680
13383661 66 18058752267898502031
13631057 29 18335708217484782965
13782708 43 18272655601871344190
14068700 686 18335410266950909957
14840074 17 18272083938167712183
14950920 106 14189279475114884765
15001296 14 17970069061594134293
15537594 2 18337963281689747899
15721738 202 17418381297995871608
16114785 44 16334110263413780368
17809404 112 11674892069105972397
17909252 39 18341050705360559739
18681886 176 17894358782787031340
20511986 3 13262683685188432409
20721686 146 11170208587564361622
21054139 6 18260555485066123670
22393880 68 18341610356894869277
23559900 14 17753319881673140803
23572383 38 17895177889053582643
239999 70 18202556268297238028
25222932 49 18267567152516047567
25269216 80 16515409599759752759
392239 28 18198886162786736985
404807 78 17532102768245944931
46194498 28 17847062173358216636
463206 1 18338233899232273131
5309563 4 18409449215828569489
6669772 16 18412818106597638186
86090 222 18337107973017329827

>  <PUBCHEM_SHAPE_MULTIPOLES>  (1) 
679.87
16.03
3.82
2.38
23.16
0.85
-0.3
5.59
-4.38
0.14
1.84
-3.77
0.08
2.02

>  <PUBCHEM_SHAPE_SELFOVERLAP>  (1) 
1451.852

>  <PUBCHEM_SHAPE_VOLUME>  (1) 
376.5

>  <PUBCHEM_COORDINATE_TYPE>  (1) 
2
5
10

$$$$
