39540
     RDKit          3D

 10 11  0  0  1  0  0  0  0  0999 V2000
    0.5786    1.1906   -0.2941 C   0  0  0  0  0  0  0  0  0  0  0  0
    1.3020   -1.0351   -0.4199 C   0  0  0  0  0  0  0  0  0  0  0  0
    1.2211    0.2219   -1.2909 C   0  0  0  0  0  0  0  0  0  0  0  0
    1.4195    0.9566    0.9787 C   0  0  0  0  0  0  0  0  0  0  0  0
    1.9436   -0.4881    0.8632 C   0  0  0  0  0  0  0  0  0  0  0  0
   -0.8815    0.7846   -0.0760 C   0  0  0  0  0  0  0  0  0  0  0  0
   -0.0989   -1.5210   -0.1155 C   0  0  0  0  0  0  0  0  0  0  0  0
   -1.1312   -0.6642    0.0334 C   0  0  0  0  0  0  0  0  0  0  0  0
   -2.5138   -1.1692    0.3319 C   0  0  0  0  0  0  0  0  0  0  0  0
   -1.8395    1.7237   -0.0108 C   0  0  0  0  0  0  0  0  0  0  0  0
  1  3  1  0
  1  4  1  0
  1  6  1  0
  2  3  1  0
  2  5  1  0
  2  7  1  0
  4  5  1  0
  6  8  1  0
  6 10  2  0
  7  8  2  0
  8  9  1  0
M  END
>  <PUBCHEM_COMPOUND_CID>  (1) 
39540

>  <PUBCHEM_CONFORMER_RMSD>  (1) 
0.4

>  <PUBCHEM_CONFORMER_DIVERSEORDER>  (1) 
1
2

>  <PUBCHEM_MMFF94_PARTIAL_CHARGES>  (1) 
10
1 0.14
10 -0.3
19 0.15
2 0.14
23 0.15
24 0.15
6 -0.14
7 -0.29
8 -0.14
9 0.14

>  <PUBCHEM_EFFECTIVE_ROTOR_COUNT>  (1) 
0.6

>  <PUBCHEM_PHARMACOPHORE_FEATURES>  (1) 
1
8 1 2 3 4 5 6 7 8 rings

>  <PUBCHEM_HEAVY_ATOM_COUNT>  (1) 
10

>  <PUBCHEM_ATOM_DEF_STEREO_COUNT>  (1) 
0

>  <PUBCHEM_ATOM_UDEF_STEREO_COUNT>  (1) 
2

>  <PUBCHEM_BOND_DEF_STEREO_COUNT>  (1) 
0

>  <PUBCHEM_BOND_UDEF_STEREO_COUNT>  (1) 
0

>  <PUBCHEM_ISOTOPIC_ATOM_COUNT>  (1) 
0

>  <PUBCHEM_COMPONENT_COUNT>  (1) 
1

>  <PUBCHEM_CACTVS_TAUTO_COUNT>  (1) 
1

>  <PUBCHEM_CONFORMER_ID>  (1) 
00009A7400000001

>  <PUBCHEM_MMFF94_ENERGY>  (1) 
23.0773

>  <PUBCHEM_FEATURE_SELFOVERLAP>  (1) 
5.074

>  <PUBCHEM_SHAPE_FINGERPRINT>  (1) 
10702982 57 12691503659916143254
12423570 1 10172183961320568188
13024252 1 13194235577813954112
137420 1 8081668312879231900
15557651 10 17058081362122362232
16945 1 18268977860077736594
18185500 45 17760923339417992227
20653091 64 17676209099629113698
21040471 1 18121504544336674381
21922407 69 16588032337165912041
23552423 10 18114188514134950767
241688 4 18336271141204144313
2748010 2 18412261701140368605
5084963 1 18201169813872160515

>  <PUBCHEM_SHAPE_MULTIPOLES>  (1) 
205.8
2.72
1.76
0.99
0.98
0.15
0.06
-0.28
-0.45
0.61
-0.03
-0.48
0.07
0.16

>  <PUBCHEM_SHAPE_SELFOVERLAP>  (1) 
434.48

>  <PUBCHEM_SHAPE_VOLUME>  (1) 
111.7

>  <PUBCHEM_COORDINATE_TYPE>  (1) 
2
5
10

$$$$
