39553
     RDKit          3D

 20 22  0  0  1  0  0  0  0  0999 V2000
   -1.1087   -1.1276   -0.0109 N   0  0  0  0  0  0  0  0  0  0  0  0
    4.2220   -0.2374   -0.1719 N   0  0  0  0  0  0  0  0  0  0  0  0
   -3.5024   -0.3463    0.2715 C   0  0  0  0  0  0  0  0  0  0  0  0
   -3.2192    0.9741   -0.5108 C   0  0  0  0  0  0  0  0  0  0  0  0
   -1.8190    1.2724    0.0846 C   0  0  0  0  0  0  0  0  0  0  0  0
   -3.1457    0.0427    1.7335 C   0  0  0  0  0  0  0  0  0  0  0  0
   -2.0383    1.1045    1.6054 C   0  0  0  0  0  0  0  0  0  0  0  0
   -2.5248   -1.4727   -0.1968 C   0  0  0  0  0  0  0  0  0  0  0  0
   -0.7688    0.2457   -0.4006 C   0  0  0  0  0  0  0  0  0  0  0  0
   -4.9422   -0.8524    0.1633 C   0  0  0  0  0  0  0  0  0  0  0  0
   -4.2123    2.1181   -0.1822 C   0  0  0  0  0  0  0  0  0  0  0  0
   -3.2309    0.8391   -2.0453 C   0  0  0  0  0  0  0  0  0  0  0  0
   -0.2249   -2.1036   -0.6371 C   0  0  0  0  0  0  0  0  0  0  0  0
    1.1700   -1.8687   -0.2528 C   0  0  0  0  0  0  0  0  0  0  0  0
    2.3145   -1.6797    0.0590 C   0  0  0  0  0  0  0  0  0  0  0  0
    3.7073   -1.4528    0.4414 C   0  0  0  0  0  0  0  0  0  0  0  0
    5.6155    0.0227    0.1883 C   0  0  0  0  0  0  0  0  0  0  0  0
    3.4907    0.9557    0.2535 C   0  0  0  0  0  0  0  0  0  0  0  0
    5.8066    1.4761   -0.2192 C   0  0  0  0  0  0  0  0  0  0  0  0
    4.4107    2.0901   -0.1730 C   0  0  0  0  0  0  0  0  0  0  0  0
  1  8  1  0
  1  9  1  0
  1 13  1  0
  2 16  1  0
  2 17  1  0
  2 18  1  0
  3  4  1  0
  3  6  1  0
  3  8  1  0
  3 10  1  0
  4  5  1  0
  4 11  1  0
  4 12  1  0
  5  7  1  0
  5  9  1  0
  6  7  1  0
 13 14  1  0
 14 15  3  0
 15 16  1  0
 17 19  1  0
 18 20  1  0
 19 20  1  0
M  END
>  <PUBCHEM_COMPOUND_CID>  (1) 
39553

>  <PUBCHEM_CONFORMER_RMSD>  (1) 
0.6

>  <PUBCHEM_CONFORMER_DIVERSEORDER>  (1) 
1
52
9
28
36
31
6
49
40
35
7
45
37
10
48
22
26
38
16
8
50
33
30
29
21
15
12
51
34
24
17
41
23
11
5
46
42
18
43
19
39
44
13
2
32
14
25
47
27
3
20
4

>  <PUBCHEM_MMFF94_PARTIAL_CHARGES>  (1) 
10
1 -0.81
13 0.47
14 -0.2
15 -0.2
16 0.47
17 0.27
18 0.27
2 -0.81
8 0.27
9 0.27

>  <PUBCHEM_EFFECTIVE_ROTOR_COUNT>  (1) 
4.2

>  <PUBCHEM_PHARMACOPHORE_FEATURES>  (1) 
5
1 1 cation
1 2 cation
3 4 11 12 hydrophobe
5 2 17 18 19 20 rings
8 1 3 4 5 6 7 8 9 rings

>  <PUBCHEM_HEAVY_ATOM_COUNT>  (1) 
20

>  <PUBCHEM_ATOM_DEF_STEREO_COUNT>  (1) 
0

>  <PUBCHEM_ATOM_UDEF_STEREO_COUNT>  (1) 
2

>  <PUBCHEM_BOND_DEF_STEREO_COUNT>  (1) 
0

>  <PUBCHEM_BOND_UDEF_STEREO_COUNT>  (1) 
0

>  <PUBCHEM_ISOTOPIC_ATOM_COUNT>  (1) 
0

>  <PUBCHEM_COMPONENT_COUNT>  (1) 
1

>  <PUBCHEM_CACTVS_TAUTO_COUNT>  (1) 
1

>  <PUBCHEM_CONFORMER_ID>  (1) 
00009A8100000001

>  <PUBCHEM_MMFF94_ENERGY>  (1) 
57.6598

>  <PUBCHEM_FEATURE_SELFOVERLAP>  (1) 
25.372

>  <PUBCHEM_SHAPE_FINGERPRINT>  (1) 
10498660 4 18412544301857582980
10670039 82 18271821081858677916
11961588 58 17677871476144350557
12507557 5 18337103476181224146
12523318 42 16443635704368105923
13224815 77 18410859832573849606
13583140 156 17749106669058742338
14787075 74 18342735256396280027
15163728 17 15121281464198283833
15196674 1 18410573964056474774
15342168 16 18130234739923449875
15840311 113 17767698161794021809
17834072 32 18411419475502497894
19489759 90 16515399668629501343
20325693 3 14548735093332249647
20715895 44 17977094661491438925
212916 134 15647613333617334141
21521721 280 18193839246482974393
21623110 236 18340775926458831321
21652331 79 18410012152237731890
21864079 5 18200318693356922664
23227448 37 18340486763438108342
23559900 14 18123185701874282890
245318 6 17534077534205717364
27216 239 18261115153822656227
3545911 37 18411984680709596358
4325135 7 18343299288723417959
474 4 18270117907554299546
5104073 3 18187367567152025347
633830 44 17987243235208791022
90127 26 18261120625553267914

>  <PUBCHEM_SHAPE_MULTIPOLES>  (1) 
401.63
12.46
2.32
1.18
14.37
0.12
-0.02
-4.84
-0.07
0.69
0.24
-1.43
-0.29
0.01

>  <PUBCHEM_SHAPE_SELFOVERLAP>  (1) 
829.661

>  <PUBCHEM_SHAPE_VOLUME>  (1) 
231.6

>  <PUBCHEM_COORDINATE_TYPE>  (1) 
2
5
10

$$$$
