39557
     RDKit          3D

 22 24  0  0  0  0  0  0  0  0999 V2000
    5.9530   -2.3723    0.0542 S   0  0  0  0  0  0  0  0  0  0  0  0
   -5.0866   -0.0567    0.4404 O   0  0  0  0  0  0  0  0  0  0  0  0
   -3.2940   -1.4764    0.4773 O   0  0  0  0  0  0  0  0  0  0  0  0
    2.4312    1.2323   -0.1093 N   0  0  0  0  0  0  0  0  0  0  0  0
    1.6076   -0.8169    0.1391 N   0  0  0  0  0  0  0  0  0  0  0  0
   -3.0314    0.8414    0.2352 N   0  0  0  0  0  0  0  0  0  0  0  0
    3.3820    2.2717   -0.2651 N   0  0  0  0  0  0  0  0  0  0  0  0
    5.1841    0.0874   -0.1479 N   0  0  0  0  0  0  0  0  0  0  0  0
    1.0703    1.3896   -0.0490 C   0  0  0  0  0  0  0  0  0  0  0  0
    0.5790    0.0964    0.1060 C   0  0  0  0  0  0  0  0  0  0  0  0
    2.7027   -0.1024    0.0077 C   0  0  0  0  0  0  0  0  0  0  0  0
   -0.8086   -0.1020    0.2030 C   0  0  0  0  0  0  0  0  0  0  0  0
   -1.6496    1.0161    0.1393 C   0  0  0  0  0  0  0  0  0  0  0  0
    0.2519    2.5177   -0.1149 C   0  0  0  0  0  0  0  0  0  0  0  0
   -1.1266    2.3018   -0.0169 C   0  0  0  0  0  0  0  0  0  0  0  0
    4.0573   -0.6953   -0.0081 C   0  0  0  0  0  0  0  0  0  0  0  0
   -5.9644   -1.0729   -0.0581 C   0  0  0  0  0  0  0  0  0  0  0  0
   -3.7480   -0.3418    0.3922 C   0  0  0  0  0  0  0  0  0  0  0  0
   -7.4051   -0.6108    0.0985 C   0  0  0  0  0  0  0  0  0  0  0  0
   -5.6178   -1.3660   -1.5099 C   0  0  0  0  0  0  0  0  0  0  0  0
    4.2696   -2.0502    0.1150 C   0  0  0  0  0  0  0  0  0  0  0  0
    6.2433   -0.6909   -0.1289 C   0  0  0  0  0  0  0  0  0  0  0  0
  1 21  1  0
  1 22  1  0
  2 17  1  0
  2 18  1  0
  3 18  2  0
  4  7  1  0
  4  9  1  0
  4 11  1  0
  5 10  1  0
  5 11  2  0
  6 13  1  0
  6 18  1  0
  8 16  1  0
  8 22  2  0
  9 10  2  0
  9 14  1  0
 10 12  1  0
 11 16  1  0
 12 13  2  0
 13 15  1  0
 14 15  2  0
 16 21  2  0
 17 19  1  0
 17 20  1  0
M  END
>  <PUBCHEM_COMPOUND_CID>  (1) 
39557

>  <PUBCHEM_CONFORMER_RMSD>  (1) 
0.8

>  <PUBCHEM_CONFORMER_DIVERSEORDER>  (1) 
1
21
17
27
18
9
12
28
2
16
15
19
25
26
22
13
3
20
24
7
8
10
14
11
4
23
5
6

>  <PUBCHEM_MMFF94_PARTIAL_CHARGES>  (1) 
28
1 -0.08
10 0.23
11 0.19
12 -0.15
13 0.12
14 -0.15
15 -0.15
16 0.23
17 0.28
18 0.78
2 -0.43
21 -0.11
22 0.23
23 0.15
24 0.15
25 0.15
27 0.37
28 0.36
29 0.36
3 -0.57
36 0.15
37 0.15
4 0.45
5 -0.57
6 -0.55
7 -0.87
8 -0.57
9 -0.15

>  <PUBCHEM_EFFECTIVE_ROTOR_COUNT>  (1) 
5

>  <PUBCHEM_PHARMACOPHORE_FEATURES>  (1) 
9
1 3 acceptor
1 6 donor
1 7 donor
1 8 acceptor
3 17 19 20 hydrophobe
3 4 5 11 cation
5 1 8 16 21 22 rings
5 4 5 9 10 11 rings
6 9 10 12 13 14 15 rings

>  <PUBCHEM_HEAVY_ATOM_COUNT>  (1) 
22

>  <PUBCHEM_ATOM_DEF_STEREO_COUNT>  (1) 
0

>  <PUBCHEM_ATOM_UDEF_STEREO_COUNT>  (1) 
0

>  <PUBCHEM_BOND_DEF_STEREO_COUNT>  (1) 
0

>  <PUBCHEM_BOND_UDEF_STEREO_COUNT>  (1) 
0

>  <PUBCHEM_ISOTOPIC_ATOM_COUNT>  (1) 
0

>  <PUBCHEM_COMPONENT_COUNT>  (1) 
1

>  <PUBCHEM_CACTVS_TAUTO_COUNT>  (1) 
2

>  <PUBCHEM_CONFORMER_ID>  (1) 
00009A8500000001

>  <PUBCHEM_MMFF94_ENERGY>  (1) 
40.6868

>  <PUBCHEM_FEATURE_SELFOVERLAP>  (1) 
45.778

>  <PUBCHEM_SHAPE_FINGERPRINT>  (1) 
10 15 12247676084812261279
10411042 1 18410012092356466872
10753850 27 18334290950832669659
11524674 6 16343699933237305591
11806522 49 18334298630872485032
12236239 1 18060139851360836089
12293681 160 12251905884310926004
12516196 113 18343018891297928888
12555020 224 18335133229091965279
12592606 108 18413385459067026951
12596602 18 16917067763273353634
12623949 98 17631180688975088254
12760667 363 18411138022248673563
13288520 33 18411139113122841897
13533116 47 18342738550609582184
13540713 5 18266761132994384080
13583140 156 15410609221394196409
13685833 64 18407763638221935739
13862211 1 18410856542534098266
14508225 48 18113898251835007925
15048467 5 8790881878274318170
15183329 4 16588019087566200871
15188451 53 16199856376468347327
15196674 1 18409731742149627816
15352361 1 18409731750654828635
17492 89 18050567344775602842
17857418 61 18413108359464290678
18006028 8 18342175561953761313
18222031 100 18410567392455818848
19784866 240 18409173207886401177
200 152 18413670206001318801
20028762 73 18272931613713620502
20645477 70 18334574667987939435
21150785 3 16081091489015652095
21236236 1 18339080389693482313
21267235 1 18409737252776856203
21637258 2 18060129938571068007
22224240 67 16630520734996839734
23198884 109 14562528466808369931
23402539 116 18412261701420060301
23522609 53 18124910964446391464
23559900 14 18188209917628796649
23622692 118 18410857629182163464
25147074 1 18340223928604138001
28498 318 18408884019607278471
2871803 45 18113615685767142449
29717793 49 18412829092401216933
3004659 81 18113616793826422249
3014063 24 18130782365502559911
314194 84 18341334478392180163
335352 9 18409730669272551559
34797466 226 16443353121437330805
351380 3 18412542102613015183
397830 11 15122645051278655087
4073 2 18041847349218574259
4325135 7 18334299777797402670
46194498 28 17313103098212015004
465052 167 18342461451835287526
5104073 3 18199462170031517216
559249 180 18341894061750390427
5718773 13 18263922134427279154
59682541 35 18271234007210735434
59755656 215 18113617854710367931
6138700 20 18408604739090330915
77188 2 18411419518295071600
7970288 3 18411696578082097975

>  <PUBCHEM_SHAPE_MULTIPOLES>  (1) 
419.96
16.96
2.43
0.74
11.21
0.82
0.15
-12.82
1.15
-1.73
0.18
0.66
-0.18
-0.64

>  <PUBCHEM_SHAPE_SELFOVERLAP>  (1) 
897.129

>  <PUBCHEM_SHAPE_VOLUME>  (1) 
237.5

>  <PUBCHEM_COORDINATE_TYPE>  (1) 
2
5
10

$$$$
