39565
     RDKit          3D

 26 30  0  0  1  0  0  0  0  0999 V2000
    6.0375   -0.9084    0.0350 F   0  0  0  0  0  0  0  0  0  0  0  0
   -0.5271    4.5594   -0.0741 O   0  0  0  0  0  0  0  0  0  0  0  0
    1.6497    3.5509    0.1168 O   0  0  0  0  0  0  0  0  0  0  0  0
    0.1836   -3.1016   -0.0581 O   0  0  0  0  0  0  0  0  0  0  0  0
   -0.4859   -0.9434   -0.0241 N   0  0  0  0  0  0  0  0  0  0  0  0
   -4.6068   -1.2342    0.3751 N   0  0  0  0  0  0  0  0  0  0  0  0
   -2.5460   -0.0188   -0.0679 C   0  0  0  0  0  0  0  0  0  0  0  0
   -1.8462   -1.2036   -0.0147 C   0  0  0  0  0  0  0  0  0  0  0  0
   -2.5102   -2.5424    0.0180 C   0  0  0  0  0  0  0  0  0  0  0  0
   -4.0382    0.0398   -0.1192 C   0  0  0  0  0  0  0  0  0  0  0  0
   -1.6026    1.0371   -0.0823 C   0  0  0  0  0  0  0  0  0  0  0  0
   -4.0108   -2.3978   -0.3133 C   0  0  0  0  0  0  0  0  0  0  0  0
   -0.3209    0.4509   -0.0166 C   0  0  0  0  0  0  0  0  0  0  0  0
   -1.7403    2.4450   -0.1222 C   0  0  0  0  0  0  0  0  0  0  0  0
    0.8372    1.2527    0.0832 C   0  0  0  0  0  0  0  0  0  0  0  0
   -6.0607   -1.2306    0.2123 C   0  0  0  0  0  0  0  0  0  0  0  0
    0.5311   -1.9247   -0.0191 C   0  0  0  0  0  0  0  0  0  0  0  0
   -0.5847    3.1988   -0.0602 C   0  0  0  0  0  0  0  0  0  0  0  0
    0.6529    2.6237    0.0462 C   0  0  0  0  0  0  0  0  0  0  0  0
    1.9788   -1.6574   -0.0048 C   0  0  0  0  0  0  0  0  0  0  0  0
    0.8937    4.7754    0.0345 C   0  0  0  0  0  0  0  0  0  0  0  0
    2.6521   -1.5364    1.2097 C   0  0  0  0  0  0  0  0  0  0  0  0
    2.6738   -1.5261   -1.2061 C   0  0  0  0  0  0  0  0  0  0  0  0
    4.0237   -1.2833    1.2231 C   0  0  0  0  0  0  0  0  0  0  0  0
    4.0455   -1.2731   -1.1928 C   0  0  0  0  0  0  0  0  0  0  0  0
    4.7206   -1.1518    0.0218 C   0  0  0  0  0  0  0  0  0  0  0  0
  1 26  1  0
  2 18  1  0
  2 21  1  0
  3 19  1  0
  3 21  1  0
  4 17  2  0
  5  8  1  0
  5 13  1  0
  5 17  1  0
  6 10  1  0
  6 12  1  0
  6 16  1  0
  7  8  2  0
  7 10  1  0
  7 11  1  0
  8  9  1  0
  9 12  1  0
 11 13  2  0
 11 14  1  0
 13 15  1  0
 14 18  2  0
 15 19  2  0
 17 20  1  0
 18 19  1  0
 20 22  2  0
 20 23  1  0
 22 24  1  0
 23 25  2  0
 24 26  2  0
 25 26  1  0
M  END
>  <PUBCHEM_COMPOUND_CID>  (1) 
39565

>  <PUBCHEM_CONFORMER_RMSD>  (1) 
0.8

>  <PUBCHEM_CONFORMER_DIVERSEORDER>  (1) 
1
4
6
2
3
5
7

>  <PUBCHEM_MMFF94_PARTIAL_CHARGES>  (1) 
31
1 -0.19
10 0.45
12 0.27
13 -0.15
14 -0.15
15 -0.15
16 0.27
17 0.49
18 0.08
19 0.08
2 -0.36
20 0.09
21 0.56
22 -0.15
23 -0.15
24 -0.15
25 -0.15
26 0.19
3 -0.36
33 0.15
34 0.15
4 -0.57
40 0.15
41 0.15
42 0.15
43 0.15
5 0.29
6 -0.81
7 -0.18
8 -0.33
9 0.18

>  <PUBCHEM_EFFECTIVE_ROTOR_COUNT>  (1) 
3.4

>  <PUBCHEM_PHARMACOPHORE_FEATURES>  (1) 
9
1 2 acceptor
1 3 acceptor
1 4 acceptor
1 6 cation
5 2 3 18 19 21 rings
5 5 7 8 11 13 rings
6 11 13 14 15 18 19 rings
6 20 22 23 24 25 26 rings
6 6 7 8 9 10 12 rings

>  <PUBCHEM_HEAVY_ATOM_COUNT>  (1) 
26

>  <PUBCHEM_ATOM_DEF_STEREO_COUNT>  (1) 
0

>  <PUBCHEM_ATOM_UDEF_STEREO_COUNT>  (1) 
0

>  <PUBCHEM_BOND_DEF_STEREO_COUNT>  (1) 
0

>  <PUBCHEM_BOND_UDEF_STEREO_COUNT>  (1) 
0

>  <PUBCHEM_ISOTOPIC_ATOM_COUNT>  (1) 
0

>  <PUBCHEM_COMPONENT_COUNT>  (1) 
1

>  <PUBCHEM_CACTVS_TAUTO_COUNT>  (1) 
1

>  <PUBCHEM_CONFORMER_ID>  (1) 
00009A8D00000001

>  <PUBCHEM_MMFF94_ENERGY>  (1) 
73.3114

>  <PUBCHEM_FEATURE_SELFOVERLAP>  (1) 
46.004

>  <PUBCHEM_SHAPE_FINGERPRINT>  (1) 
10006869 2 17905603299330983227
10050765 1 18122343751958364043
10319926 262 18052234226099616818
10411042 1 18410575084790101703
10498660 4 18194119608339968748
10670039 82 18264502689635659390
10675989 125 16604896307881114685
10967382 1 18194401323555435349
1100329 8 18337673134721126587
11115154 58 17485893439037820341
11265709 11 18410013238532076929
11578080 2 17387384974313638308
12156800 1 11342027057132044308
12166972 35 17748829605514682758
12173636 292 17689995639664690292
12236239 1 17748827376411156082
12553582 1 18410571760801932247
12788726 201 18189055309005867074
13009979 54 17897994743123114770
13140716 1 18337394967175085187
13540713 4 17826509153293845715
13540713 5 17913776295952628423
138480 1 14735917726112746445
13965767 371 16960138679471547244
14020679 6 18042707047943571619
14081887 123 18195800770050536786
14178342 30 18047747092801501122
14347332 77 18195249915042480670
14787075 74 18113339717107739138
14790565 3 17475518278943995089
14955137 171 18337966652801965979
15042514 8 18194118521206912083
15230672 131 17327462927269761196
15475509 8 17914083952601160511
15664445 248 18342190972101676230
15927050 60 17691411132141901878
15961568 22 18411417358796180260
16087824 20 18194403295827035421
167882 2 18121500425642372565
17492 89 18051130595281873811
1813 80 18343026583631990983
18336668 15 18113339717207479100
18785283 64 18193282008165708539
19319366 153 17821726152267828362
19591789 44 18410294730842014389
20510252 161 18125440817565426178
20642791 35 18267873959156972980
20715895 44 17103107110593939757
21033648 29 17489011683366333259
21049683 271 18115317798840000517
21133665 82 17546172265570958132
21304253 13 18341897377112027153
21796203 349 17975734763112286987
22440779 20 16679015683230799515
23352939 185 18271816738934208744
23366157 5 17972314281291107597
23419403 2 17971165209771940183
23557571 272 18200033937231205502
23559900 14 18339635776246035459
23845131 108 17260196493218328465
24771293 8 18201709708409339424
24771750 20 17974583682076074893
283562 15 18264492788907886066
3091708 16 9282729713547108769
3298306 158 17905052804318873636
335352 9 18410572886600030047
350125 39 18409171004905820925
352729 6 17329139175108915059
469060 322 18339654325587327898
5104073 3 18265626562392161779
532947 4 18122911094438917693
6443956 14 18337674225420987909
7364860 26 18195529413911377749
7808743 9 18122346775324579600
8863177 126 17752502099212020299
9981440 41 17255677495837523344

>  <PUBCHEM_SHAPE_MULTIPOLES>  (1) 
500.22
9.17
5.23
0.85
0.49
8.33
0
-8.7
-0.35
-0.21
0.05
-0.75
-0.35
0.08

>  <PUBCHEM_SHAPE_SELFOVERLAP>  (1) 
1129.227

>  <PUBCHEM_SHAPE_VOLUME>  (1) 
265.5

>  <PUBCHEM_COORDINATE_TYPE>  (1) 
2
5
10

$$$$
