39575
     RDKit          3D

 26 30  0  0  1  0  0  0  0  0999 V2000
    4.3365    0.1380   -2.5507 Br  0  0  0  0  0  0  0  0  0  0  0  0
   -0.3864    4.5705   -0.0044 O   0  0  0  0  0  0  0  0  0  0  0  0
    1.6928    3.5694    0.6786 O   0  0  0  0  0  0  0  0  0  0  0  0
    0.1799   -2.9591    1.1066 O   0  0  0  0  0  0  0  0  0  0  0  0
   -0.4276   -0.9216    0.3405 N   0  0  0  0  0  0  0  0  0  0  0  0
   -4.5470   -1.1820   -0.0940 N   0  0  0  0  0  0  0  0  0  0  0  0
   -2.4236    0.0035   -0.1706 C   0  0  0  0  0  0  0  0  0  0  0  0
   -1.7647   -1.1782    0.0860 C   0  0  0  0  0  0  0  0  0  0  0  0
   -2.4387   -2.5119    0.0526 C   0  0  0  0  0  0  0  0  0  0  0  0
   -3.8732    0.0623   -0.5279 C   0  0  0  0  0  0  0  0  0  0  0  0
   -1.4834    1.0551   -0.0476 C   0  0  0  0  0  0  0  0  0  0  0  0
   -3.8385   -2.3823   -0.5847 C   0  0  0  0  0  0  0  0  0  0  0  0
   -0.2496    0.4707    0.3085 C   0  0  0  0  0  0  0  0  0  0  0  0
   -1.5918    2.4592   -0.1882 C   0  0  0  0  0  0  0  0  0  0  0  0
    0.8744    1.2743    0.6003 C   0  0  0  0  0  0  0  0  0  0  0  0
   -5.9372   -1.1843   -0.5497 C   0  0  0  0  0  0  0  0  0  0  0  0
    0.5543   -1.9033    0.6039 C   0  0  0  0  0  0  0  0  0  0  0  0
   -0.4633    3.2128    0.0685 C   0  0  0  0  0  0  0  0  0  0  0  0
    0.7192    2.6418    0.4548 C   0  0  0  0  0  0  0  0  0  0  0  0
    1.9891   -1.7834    0.2965 C   0  0  0  0  0  0  0  0  0  0  0  0
    0.9852    4.7892    0.3800 C   0  0  0  0  0  0  0  0  0  0  0  0
    2.4069   -1.0155   -0.7893 C   0  0  0  0  0  0  0  0  0  0  0  0
    2.9272   -2.4388    1.0925 C   0  0  0  0  0  0  0  0  0  0  0  0
    3.7665   -0.9027   -1.0799 C   0  0  0  0  0  0  0  0  0  0  0  0
    4.2867   -2.3260    0.8019 C   0  0  0  0  0  0  0  0  0  0  0  0
    4.7064   -1.5579   -0.2841 C   0  0  0  0  0  0  0  0  0  0  0  0
  1 24  1  0
  2 18  1  0
  2 21  1  0
  3 19  1  0
  3 21  1  0
  4 17  2  0
  5  8  1  0
  5 13  1  0
  5 17  1  0
  6 10  1  0
  6 12  1  0
  6 16  1  0
  7  8  2  0
  7 10  1  0
  7 11  1  0
  8  9  1  0
  9 12  1  0
 11 13  2  0
 11 14  1  0
 13 15  1  0
 14 18  2  0
 15 19  2  0
 17 20  1  0
 18 19  1  0
 20 22  2  0
 20 23  1  0
 22 24  1  0
 23 25  2  0
 24 26  2  0
 25 26  1  0
M  END
>  <PUBCHEM_COMPOUND_CID>  (1) 
39575

>  <PUBCHEM_CONFORMER_RMSD>  (1) 
0.8

>  <PUBCHEM_CONFORMER_DIVERSEORDER>  (1) 
1
13
15
10
7
5
8
11
14
6
9
4
12
2
17
3
16
18

>  <PUBCHEM_MMFF94_PARTIAL_CHARGES>  (1) 
31
1 -0.11
10 0.45
12 0.27
13 -0.15
14 -0.15
15 -0.15
16 0.27
17 0.49
18 0.08
19 0.08
2 -0.36
20 0.09
21 0.56
22 -0.15
23 -0.15
24 0.11
25 -0.15
26 -0.15
3 -0.36
33 0.15
34 0.15
4 -0.57
40 0.15
41 0.15
42 0.15
43 0.15
5 0.29
6 -0.81
7 -0.18
8 -0.33
9 0.18

>  <PUBCHEM_EFFECTIVE_ROTOR_COUNT>  (1) 
3.4

>  <PUBCHEM_PHARMACOPHORE_FEATURES>  (1) 
10
1 1 hydrophobe
1 2 acceptor
1 3 acceptor
1 4 acceptor
1 6 cation
5 2 3 18 19 21 rings
5 5 7 8 11 13 rings
6 11 13 14 15 18 19 rings
6 20 22 23 24 25 26 rings
6 6 7 8 9 10 12 rings

>  <PUBCHEM_HEAVY_ATOM_COUNT>  (1) 
26

>  <PUBCHEM_ATOM_DEF_STEREO_COUNT>  (1) 
0

>  <PUBCHEM_ATOM_UDEF_STEREO_COUNT>  (1) 
0

>  <PUBCHEM_BOND_DEF_STEREO_COUNT>  (1) 
0

>  <PUBCHEM_BOND_UDEF_STEREO_COUNT>  (1) 
0

>  <PUBCHEM_ISOTOPIC_ATOM_COUNT>  (1) 
0

>  <PUBCHEM_COMPONENT_COUNT>  (1) 
1

>  <PUBCHEM_CACTVS_TAUTO_COUNT>  (1) 
1

>  <PUBCHEM_CONFORMER_ID>  (1) 
00009A9700000001

>  <PUBCHEM_MMFF94_ENERGY>  (1) 
73.8067

>  <PUBCHEM_FEATURE_SELFOVERLAP>  (1) 
51.078

>  <PUBCHEM_SHAPE_FINGERPRINT>  (1) 
10050765 1 18194958781259158743
10319926 262 17764557982323119906
10411042 1 18410847733814864539
1100329 8 18339643313803558793
11524674 6 17125360565227837792
11578080 2 17532904208757801964
11640471 11 17609522453006254230
12166972 35 17822286852216899110
12173636 292 17619059534639024100
12293681 160 18189070822897166694
12553582 1 18411697652071341563
12788726 201 18264783072925739758
13009979 54 17972307426888028042
13140716 1 18268986492820070880
133893 2 17983036701341851529
13402501 40 18196936797949816212
13540713 4 17971183979892788107
13590594 115 18410862019355983441
138480 1 14521150111306145273
13965767 371 16314981458513646658
14178342 30 17758944940586489690
14347332 77 18124600782414631182
14787075 74 18114469989349389299
14790565 3 17692818086230222473
14931854 50 18262819440101390076
14955137 171 18195275285382110555
15042514 8 18123467177024391475
15230672 131 17471011854014504372
15439362 3 18193832880708464957
15475509 8 17915484730478159655
15664445 248 18272381883647995614
15775530 1 17538293121314811051
15927050 60 17763745785930400511
16087824 20 18122903128388218869
17492 54 18262533588189163094
17818456 19 17760076320855582770
1813 80 18130790048972023471
19319366 153 17896323502633792195
19591789 44 18410009910375878625
20028762 73 16181016544699954399
20642791 105 17899682475673955582
20642791 239 18263098753965647249
20642791 35 18341056327466819069
20715895 44 17320973144993809885
20775438 99 17766262550788000535
21033648 29 10881701116532233830
21033650 10 17977410264921771086
21049683 271 18188217605994640573
2132832 1 18114739327254618190
22182313 1 18194373719980173381
23352939 185 18271812327876201731
23366157 5 18118395378951242327
23557571 272 18058165017088178174
23558518 356 17686345269745776203
23559900 14 18197212761966021281
238918 7 17115794869393294050
24771293 8 18201142356109184656
24771750 20 17974580387804425821
3004659 81 18114461171929411902
3091708 16 9499463268049908329
3298306 158 17763472007835738868
352729 6 17258206377165966553
4017518 198 17410214337049632228
469060 322 18268437832127391658
532947 4 18123472949228387004
57527293 21 17487870429210064430
57527358 35 14459140077919675930
6443956 14 18338232790212838877
6669772 16 17979073013458344028
7164475 11 18194404390415721150
7364860 26 18268424827388431033
9709674 26 18121775299613578067

>  <PUBCHEM_SHAPE_MULTIPOLES>  (1) 
513.44
8.73
5.35
1.23
2.74
7.86
0.67
-8.22
3.6
-0.45
-1.54
-1.71
-0.24
-0.86

>  <PUBCHEM_SHAPE_SELFOVERLAP>  (1) 
1140.508

>  <PUBCHEM_SHAPE_VOLUME>  (1) 
283.6

>  <PUBCHEM_COORDINATE_TYPE>  (1) 
2
5
10

$$$$
