39598
     RDKit          3D

 24 26  0  0  1  0  0  0  0  0999 V2000
   -4.5748   -1.1486    0.0915 O   0  0  0  0  0  0  0  0  0  0  0  0
   -0.1200    1.1471   -1.9813 O   0  0  0  0  0  0  0  0  0  0  0  0
    3.7177    1.1854    0.5034 O   0  0  0  0  0  0  0  0  0  0  0  0
   -0.2454    2.1921    2.5444 O   0  0  0  0  0  0  0  0  0  0  0  0
   -0.2975    1.5200    0.3092 N   0  0  0  0  0  0  0  0  0  0  0  0
   -2.4783    0.7475   -0.2422 N   0  0  0  0  0  0  0  0  0  0  0  0
    1.7129    1.5716    1.5442 N   0  0  0  0  0  0  0  0  0  0  0  0
    1.6974    0.3571   -0.5816 C   0  0  0  0  0  0  0  0  0  0  0  0
    0.3539    1.0578   -0.8469 C   0  0  0  0  0  0  0  0  0  0  0  0
    2.5172    0.3933   -1.8919 C   0  0  0  0  0  0  0  0  0  0  0  0
   -1.6982    1.9059    0.1882 C   0  0  0  0  0  0  0  0  0  0  0  0
    1.5026   -1.1258   -0.1904 C   0  0  0  0  0  0  0  0  0  0  0  0
    2.4917    1.0820    0.5092 C   0  0  0  0  0  0  0  0  0  0  0  0
   -2.3809   -0.3413    0.7399 C   0  0  0  0  0  0  0  0  0  0  0  0
   -3.8862    1.1142   -0.4493 C   0  0  0  0  0  0  0  0  0  0  0  0
    0.3352    1.7698    1.5411 C   0  0  0  0  0  0  0  0  0  0  0  0
   -3.2119   -1.5336    0.2749 C   0  0  0  0  0  0  0  0  0  0  0  0
   -4.6824   -0.1124   -0.8854 C   0  0  0  0  0  0  0  0  0  0  0  0
    2.7821    1.8176   -2.3294 C   0  0  0  0  0  0  0  0  0  0  0  0
    2.0274   -1.5934    1.0077 C   0  0  0  0  0  0  0  0  0  0  0  0
    0.8047   -1.9734   -1.0412 C   0  0  0  0  0  0  0  0  0  0  0  0
    1.8516   -2.9313    1.3608 C   0  0  0  0  0  0  0  0  0  0  0  0
    0.6289   -3.3114   -0.6879 C   0  0  0  0  0  0  0  0  0  0  0  0
    1.1523   -3.7902    0.5132 C   0  0  0  0  0  0  0  0  0  0  0  0
  1 17  1  0
  1 18  1  0
  2  9  2  0
  3 13  2  0
  4 16  2  0
  5  9  1  0
  5 11  1  0
  5 16  1  0
  6 11  1  0
  6 14  1  0
  6 15  1  0
  7 13  1  0
  7 16  1  0
  8  9  1  0
  8 10  1  0
  8 12  1  0
  8 13  1  0
 10 19  1  0
 12 20  2  0
 12 21  1  0
 14 17  1  0
 15 18  1  0
 20 22  1  0
 21 23  2  0
 22 24  2  0
 23 24  1  0
M  END
>  <PUBCHEM_COMPOUND_CID>  (1) 
39598

>  <PUBCHEM_CONFORMER_RMSD>  (1) 
0.8

>  <PUBCHEM_CONFORMER_DIVERSEORDER>  (1) 
1
14
21
15
32
18
20
17
12
9
3
25
19
6
22
26
11
16
13
24
8
30
23
31
27
10
5
29
28
2
33
7
4

>  <PUBCHEM_MMFF94_PARTIAL_CHARGES>  (1) 
28
1 -0.56
11 0.57
12 -0.14
13 0.57
14 0.27
15 0.27
16 0.69
17 0.28
18 0.28
2 -0.57
20 -0.15
21 -0.15
22 -0.15
23 -0.15
24 -0.15
3 -0.57
37 0.37
4 -0.57
41 0.15
42 0.15
43 0.15
44 0.15
45 0.15
5 -0.42
6 -0.81
7 -0.49
8 0.27
9 0.57

>  <PUBCHEM_EFFECTIVE_ROTOR_COUNT>  (1) 
5.8

>  <PUBCHEM_PHARMACOPHORE_FEATURES>  (1) 
10
1 1 acceptor
1 19 hydrophobe
1 2 acceptor
1 3 acceptor
1 4 acceptor
1 6 cation
1 7 donor
6 1 6 14 15 17 18 rings
6 12 20 21 22 23 24 rings
6 5 7 8 9 13 16 rings

>  <PUBCHEM_HEAVY_ATOM_COUNT>  (1) 
24

>  <PUBCHEM_ATOM_DEF_STEREO_COUNT>  (1) 
0

>  <PUBCHEM_ATOM_UDEF_STEREO_COUNT>  (1) 
1

>  <PUBCHEM_BOND_DEF_STEREO_COUNT>  (1) 
0

>  <PUBCHEM_BOND_UDEF_STEREO_COUNT>  (1) 
0

>  <PUBCHEM_ISOTOPIC_ATOM_COUNT>  (1) 
0

>  <PUBCHEM_COMPONENT_COUNT>  (1) 
1

>  <PUBCHEM_CACTVS_TAUTO_COUNT>  (1) 
3

>  <PUBCHEM_CONFORMER_ID>  (1) 
00009AAE00000001

>  <PUBCHEM_MMFF94_ENERGY>  (1) 
67.9432

>  <PUBCHEM_FEATURE_SELFOVERLAP>  (1) 
50.747

>  <PUBCHEM_SHAPE_FINGERPRINT>  (1) 
10064457 181 18194391410554631902
11067466 332 18410296933996349630
11370993 70 18261669371949244285
11578080 2 17974561399818092756
121448 382 18196121969369951652
12156800 1 15758455388571720635
12506688 2 18269267959401590171
12553582 1 17910684159252383059
12788726 201 17629780976165471705
13004483 165 16886379040801079210
13149001 5 17696493031993955036
133893 2 17825696381575651406
14787075 74 17915177038541389800
14863182 85 18335703866213666807
16945 1 18334587857579596656
17134984 74 17769338908067628671
20197701 30 18335421305242888964
20600515 1 17544470856244021526
20775530 9 17688586066127724571
20905425 154 18411984633138123015
21421861 104 18127422159109716001
21452121 199 18115859694467928548
21452121 99 17905049505641142890
22393880 68 18342737429623027319
23184049 29 18052255090227125075
23419403 2 17758918620609459898
23559900 14 18335691690155423637
298252 57 17534077525230237868
3052486 1 17831289867398020610
392239 28 18130207273771493322
394222 165 17749959976308081904
404807 78 17680710629858695187
460360 51 18195534684469577977
463206 1 18339353197590070815

>  <PUBCHEM_SHAPE_MULTIPOLES>  (1) 
455.49
6.17
3.67
1.88
8.29
3.44
0.04
-0.02
-1.24
-2.18
0.58
-1.16
-1.15
-0.71

>  <PUBCHEM_SHAPE_SELFOVERLAP>  (1) 
973.385

>  <PUBCHEM_SHAPE_VOLUME>  (1) 
249.6

>  <PUBCHEM_COORDINATE_TYPE>  (1) 
2
5
10

$$$$
