39607
     RDKit          3D

  5  4  0  0  0  0  0  0  0  0999 V2000
    0.8254   -0.3955    0.0000 O   0  0  0  0  0  0  0  0  0  0  0  0
   -1.2834    0.5964    0.0000 O   0  0  0  0  0  0  0  0  0  0  0  0
    2.2012   -0.1270    0.0000 C   0  0  0  0  0  0  0  0  0  0  0  0
    0.0721    0.6555    0.0000 C   0  0  0  0  0  0  0  0  0  0  0  0
   -1.8153   -0.7295    0.0000 C   0  0  0  0  0  0  0  0  0  0  0  0
  1  3  1  0
  1  4  2  0
  2  4  1  0
  2  5  1  0
M  CHG  1   1   1
M  END
>  <PUBCHEM_COMPOUND_CID>  (1) 
39607

>  <PUBCHEM_CONFORMER_RMSD>  (1) 
0.4

>  <PUBCHEM_CONFORMER_DIVERSEORDER>  (1) 
1

>  <PUBCHEM_MMFF94_PARTIAL_CHARGES>  (1) 
6
1 -1
12 0.06
2 -0.43
3 1.05
4 1.04
5 0.28

>  <PUBCHEM_EFFECTIVE_ROTOR_COUNT>  (1) 
1

>  <PUBCHEM_PHARMACOPHORE_FEATURES>  (1) 
1
1 1 acceptor

>  <PUBCHEM_HEAVY_ATOM_COUNT>  (1) 
5

>  <PUBCHEM_ATOM_DEF_STEREO_COUNT>  (1) 
0

>  <PUBCHEM_ATOM_UDEF_STEREO_COUNT>  (1) 
0

>  <PUBCHEM_BOND_DEF_STEREO_COUNT>  (1) 
0

>  <PUBCHEM_BOND_UDEF_STEREO_COUNT>  (1) 
0

>  <PUBCHEM_ISOTOPIC_ATOM_COUNT>  (1) 
0

>  <PUBCHEM_COMPONENT_COUNT>  (1) 
1

>  <PUBCHEM_CACTVS_TAUTO_COUNT>  (1) 
1

>  <PUBCHEM_CONFORMER_ID>  (1) 
00009AB700000001

>  <PUBCHEM_MMFF94_ENERGY>  (1) 
7.6614

>  <PUBCHEM_FEATURE_SELFOVERLAP>  (1) 
5.074

>  <PUBCHEM_SHAPE_FINGERPRINT>  (1) 
139733 1 18410856521169700228
16714656 1 9727636124147961226
20096714 4 9511463324817326359
29004967 10 18343303694916465906
5460574 1 18410856542597076932

>  <PUBCHEM_SHAPE_MULTIPOLES>  (1) 
91.16
2.79
0.88
0.58
0.58
0.02
0
-0.59
0
-0.21
0
0.01
0
0

>  <PUBCHEM_SHAPE_SELFOVERLAP>  (1) 
155.965

>  <PUBCHEM_SHAPE_VOLUME>  (1) 
61.3

>  <PUBCHEM_COORDINATE_TYPE>  (1) 
2
5
10

$$$$
