39609
     RDKit          3D

 28 31  0  0  1  0  0  0  0  0999 V2000
    3.1136    0.1146   -1.7793 O   0  0  0  0  0  0  0  0  0  0  0  0
   -1.2714   -1.0935    0.2931 O   0  0  0  0  0  0  0  0  0  0  0  0
    1.0476    0.6089    0.0911 N   0  0  0  0  0  0  0  0  0  0  0  0
   -3.4258    1.6130    0.0890 N   0  0  0  0  0  0  0  0  0  0  0  0
   -3.2278    0.2267    0.0130 N   0  0  0  0  0  0  0  0  0  0  0  0
    2.4560    0.5320    0.5368 C   0  0  0  0  0  0  0  0  0  0  0  0
    3.1967   -0.4127   -0.4472 C   0  0  0  0  0  0  0  0  0  0  0  0
    0.9274    1.0675   -1.2969 C   0  0  0  0  0  0  0  0  0  0  0  0
    0.1882    1.3784    0.9834 C   0  0  0  0  0  0  0  0  0  0  0  0
    1.7571    0.1801   -2.2196 C   0  0  0  0  0  0  0  0  0  0  0  0
    3.1472    1.9018    0.6732 C   0  0  0  0  0  0  0  0  0  0  0  0
   -1.2414    1.2702    0.6133 C   0  0  0  0  0  0  0  0  0  0  0  0
    4.6401   -0.6819   -0.0625 C   0  0  0  0  0  0  0  0  0  0  0  0
   -2.2219    2.1813    0.5025 C   0  0  0  0  0  0  0  0  0  0  0  0
   -1.8775   -0.0342    0.2614 C   0  0  0  0  0  0  0  0  0  0  0  0
    5.6547    0.1486   -0.5376 C   0  0  0  0  0  0  0  0  0  0  0  0
    4.9512   -1.7600    0.7658 C   0  0  0  0  0  0  0  0  0  0  0  0
   -2.1109    3.6522    0.7280 C   0  0  0  0  0  0  0  0  0  0  0  0
   -4.2875   -0.7145    0.0195 C   0  0  0  0  0  0  0  0  0  0  0  0
   -4.2430    2.2549   -0.9364 C   0  0  0  0  0  0  0  0  0  0  0  0
    6.9812   -0.0990   -0.1842 C   0  0  0  0  0  0  0  0  0  0  0  0
    6.2776   -2.0076    1.1192 C   0  0  0  0  0  0  0  0  0  0  0  0
    7.2926   -1.1770    0.6443 C   0  0  0  0  0  0  0  0  0  0  0  0
   -4.0486   -2.0472   -0.3301 C   0  0  0  0  0  0  0  0  0  0  0  0
   -5.5801   -0.3168    0.3746 C   0  0  0  0  0  0  0  0  0  0  0  0
   -5.0920   -2.9728   -0.3248 C   0  0  0  0  0  0  0  0  0  0  0  0
   -6.6235   -1.2424    0.3800 C   0  0  0  0  0  0  0  0  0  0  0  0
   -6.3794   -2.5706    0.0303 C   0  0  0  0  0  0  0  0  0  0  0  0
  1  7  1  0
  1 10  1  0
  2 15  2  0
  3  6  1  0
  3  8  1  0
  3  9  1  0
  4  5  1  0
  4 14  1  0
  4 20  1  0
  5 15  1  0
  5 19  1  0
  6  7  1  0
  6 11  1  0
  7 13  1  0
  8 10  1  0
  9 12  1  0
 12 14  2  0
 12 15  1  0
 13 16  2  0
 13 17  1  0
 14 18  1  0
 16 21  1  0
 17 22  2  0
 19 24  2  0
 19 25  1  0
 21 23  2  0
 22 23  1  0
 24 26  1  0
 25 27  2  0
 26 28  2  0
 27 28  1  0
M  END
>  <PUBCHEM_COMPOUND_CID>  (1) 
39609

>  <PUBCHEM_CONFORMER_RMSD>  (1) 
0.8

>  <PUBCHEM_CONFORMER_DIVERSEORDER>  (1) 
30
89
28
1
81
12
58
79
5
41
88
84
22
43
68
17
57
73
59
71
90
31
35
29
63
76
87
47
50
2
15
80
16
94
36
52
40
10
66
53
18
86
39
60
44
37
54
64
32
92
91
7
77
56
95
3
48
34
69
21
78
14
61
49
38
62
67
65
83
45
33
51
27
25
75
55
8
93
74
26
46
70
11
19
23
6
85
72
20
24
82
42
13
9
4

>  <PUBCHEM_MMFF94_PARTIAL_CHARGES>  (1) 
37
1 -0.56
10 0.28
12 -0.12
13 -0.14
14 -0.04
15 0.62
16 -0.15
17 -0.15
18 0.14
19 0.12
2 -0.57
20 0.37
21 -0.15
22 -0.15
23 -0.15
24 -0.15
25 -0.15
26 -0.15
27 -0.15
28 -0.15
3 -0.81
4 -0.49
40 0.15
41 0.15
48 0.15
49 0.15
5 -0.16
50 0.15
51 0.15
52 0.15
53 0.15
54 0.15
55 0.15
6 0.27
7 0.42
8 0.27
9 0.41

>  <PUBCHEM_EFFECTIVE_ROTOR_COUNT>  (1) 
5.2

>  <PUBCHEM_PHARMACOPHORE_FEATURES>  (1) 
7
1 1 acceptor
1 2 acceptor
1 3 cation
5 4 5 12 14 15 rings
6 1 3 6 7 8 10 rings
6 13 16 17 21 22 23 rings
6 19 24 25 26 27 28 rings

>  <PUBCHEM_HEAVY_ATOM_COUNT>  (1) 
28

>  <PUBCHEM_ATOM_DEF_STEREO_COUNT>  (1) 
0

>  <PUBCHEM_ATOM_UDEF_STEREO_COUNT>  (1) 
2

>  <PUBCHEM_BOND_DEF_STEREO_COUNT>  (1) 
0

>  <PUBCHEM_BOND_UDEF_STEREO_COUNT>  (1) 
0

>  <PUBCHEM_ISOTOPIC_ATOM_COUNT>  (1) 
0

>  <PUBCHEM_COMPONENT_COUNT>  (1) 
1

>  <PUBCHEM_CACTVS_TAUTO_COUNT>  (1) 
1

>  <PUBCHEM_CONFORMER_ID>  (1) 
00009AB90000001E

>  <PUBCHEM_MMFF94_ENERGY>  (1) 
93.3144

>  <PUBCHEM_FEATURE_SELFOVERLAP>  (1) 
35.523

>  <PUBCHEM_SHAPE_FINGERPRINT>  (1) 
10 15 17561078129716349314
10319926 262 18200864110948114592
10411042 1 18339923835697910641
10595046 47 18335143081693876544
10622 236 17896864491886919762
10670039 82 12396566430080929223
10939801 23 18270116950457113622
11135609 99 18337672018435779038
11524674 6 16774079596449630991
11646440 116 16415479350859506602
117089 54 17899987315922870499
11796584 16 18338795590132217290
11809386 21 18334292046392215051
11963148 33 17836920466591762662
12107698 1 18410856585567913952
12166972 35 17968097555198425156
12236239 1 18041000609627882936
12596602 18 18408601440549640242
12633257 1 16343419613289856837
12760667 363 18409450310692179219
13533116 47 18261957448475467440
13540713 4 16413532012250098324
13631057 29 18412261726936637267
13668630 136 16660365908970844547
13782708 43 18342174487848057466
14068700 675 18408887360132115685
14211702 104 18409737222849995154
14251751 18 18412262843712653319
14294032 229 17750788849774520533
14347329 18 7925640985663332879
14347332 77 18408885135428577649
14840074 17 12319739163307428107
15021287 119 17313395495744453941
15183329 4 15647049357050742890
15188451 53 18408318891256397990
15439362 3 17614554840433621685
15728490 51 18412260675582434910
17857418 61 18409451396670090859
20505436 4 17388534909623107057
20511986 3 18187635870007194978
21033648 29 15912183315104166024
21130935 74 18267297639778000914
21223535 225 15430306993538151013
21267235 1 18410296934413204699
21623969 137 17060062553163227222
21781051 124 17632307757513760670
22224240 67 15554727780639734134
23522609 53 18122940665405594449
23559900 14 18341602711911410208
23569914 152 14133506635853238154
3004659 81 18114457954692393563
3009799 131 14923945665778670670
335352 9 18412260641512652141
34797466 226 17703798037784756652
3633792 109 17530961397375667549
397830 11 18200580484904867016
4015057 19 16950577609381559412
4058900 60 8213879101483333213
439807 62 18408604786049822787
463206 1 18265897033040491963
465052 167 18131915970933652342
5104073 3 16844460314858744546
559249 180 18260545576766280619
5718773 13 18411416232612902515
59682541 52 14562795643728228722
6700243 42 17985298238137340396
67856867 119 18335707169629443964
96874 4 18260259755077795850
9862886 166 18341894082254756945

>  <PUBCHEM_SHAPE_MULTIPOLES>  (1) 
549.55
18.73
3.07
1.2
10.29
0.71
-0.54
-14.34
2.09
-4.49
0.59
0.99
0.2
-0.94

>  <PUBCHEM_SHAPE_SELFOVERLAP>  (1) 
1181.673

>  <PUBCHEM_SHAPE_VOLUME>  (1) 
303.4

>  <PUBCHEM_COORDINATE_TYPE>  (1) 
2
5
10

$$$$
