39604
     RDKit          3D

 18 19  0  0  0  0  0  0  0  0999 V2000
    1.2539   -1.0017   -0.5260 O   0  0  0  0  0  0  0  0  0  0  0  0
    0.8872   -1.1056    1.7442 O   0  0  0  0  0  0  0  0  0  0  0  0
    4.6138    0.3962    0.0759 N   0  0  0  0  0  0  0  0  0  0  0  0
   -1.6632    0.2074    0.1092 C   0  0  0  0  0  0  0  0  0  0  0  0
    3.1785    0.3859   -0.1645 C   0  0  0  0  0  0  0  0  0  0  0  0
   -0.9539   -0.9984    0.2330 C   0  0  0  0  0  0  0  0  0  0  0  0
   -3.0350    0.1708   -0.2367 C   0  0  0  0  0  0  0  0  0  0  0  0
    2.6686   -1.0391   -0.3088 C   0  0  0  0  0  0  0  0  0  0  0  0
   -1.5880   -2.2227    0.0191 C   0  0  0  0  0  0  0  0  0  0  0  0
   -1.0412    1.4486    0.3211 C   0  0  0  0  0  0  0  0  0  0  0  0
    0.4621   -1.0411    0.5866 C   0  0  0  0  0  0  0  0  0  0  0  0
   -3.6571   -1.0704   -0.4488 C   0  0  0  0  0  0  0  0  0  0  0  0
   -3.7444    1.3765   -0.3606 C   0  0  0  0  0  0  0  0  0  0  0  0
   -2.9369   -2.2586   -0.3214 C   0  0  0  0  0  0  0  0  0  0  0  0
    5.0991    1.7665    0.2567 C   0  0  0  0  0  0  0  0  0  0  0  0
    5.3286   -0.2516   -1.0266 C   0  0  0  0  0  0  0  0  0  0  0  0
   -1.7615    2.6366    0.1939 C   0  0  0  0  0  0  0  0  0  0  0  0
   -3.1106    2.6007   -0.1463 C   0  0  0  0  0  0  0  0  0  0  0  0
  1  8  1  0
  1 11  1  0
  2 11  2  0
  3  5  1  0
  3 15  1  0
  3 16  1  0
  4  6  2  0
  4  7  1  0
  4 10  1  0
  5  8  1  0
  6  9  1  0
  6 11  1  0
  7 12  2  0
  7 13  1  0
  9 14  2  0
 10 17  2  0
 12 14  1  0
 13 18  2  0
 17 18  1  0
M  END
>  <PUBCHEM_COMPOUND_CID>  (1) 
39604

>  <PUBCHEM_CONFORMER_RMSD>  (1) 
0.6

>  <PUBCHEM_CONFORMER_DIVERSEORDER>  (1) 
4
117
114
45
13
120
113
49
97
96
115
124
68
67
59
34
58
79
137
11
131
116
138
64
85
48
74
136
98
2
69
71
105
14
112
73
94
118
53
135
100
16
81
83
104
30
15
27
21
9
130
111
76
125
90
17
93
24
43
110
72
29
1
133
10
42
132
123
89
20
46
19
92
22
75
122
108
23
101
52
31
84
38
28
128
87
12
32
7
70
65
57
126
41
8
80
54
127
40
121
50
47
66
86
39
56
63
55
44
5
60
18
103
26
33
35
139
99
106
6
37
82
109
3
129
88
61
25
77
36
102
62
51
134
95
91
107
78
119

>  <PUBCHEM_MMFF94_PARTIAL_CHARGES>  (1) 
23
1 -0.43
10 -0.15
11 0.63
12 -0.15
13 -0.15
14 -0.15
15 0.27
16 0.27
17 -0.15
18 -0.15
2 -0.57
23 0.15
24 0.15
25 0.15
26 0.15
27 0.15
3 -0.81
34 0.15
35 0.15
5 0.27
6 0.09
8 0.28
9 -0.15

>  <PUBCHEM_EFFECTIVE_ROTOR_COUNT>  (1) 
5

>  <PUBCHEM_PHARMACOPHORE_FEATURES>  (1) 
4
1 2 acceptor
1 3 cation
6 4 6 7 9 12 14 rings
6 4 7 10 13 17 18 rings

>  <PUBCHEM_HEAVY_ATOM_COUNT>  (1) 
18

>  <PUBCHEM_ATOM_DEF_STEREO_COUNT>  (1) 
0

>  <PUBCHEM_ATOM_UDEF_STEREO_COUNT>  (1) 
0

>  <PUBCHEM_BOND_DEF_STEREO_COUNT>  (1) 
0

>  <PUBCHEM_BOND_UDEF_STEREO_COUNT>  (1) 
0

>  <PUBCHEM_ISOTOPIC_ATOM_COUNT>  (1) 
0

>  <PUBCHEM_COMPONENT_COUNT>  (1) 
1

>  <PUBCHEM_CACTVS_TAUTO_COUNT>  (1) 
1

>  <PUBCHEM_CONFORMER_ID>  (1) 
00009AB400000004

>  <PUBCHEM_MMFF94_ENERGY>  (1) 
55.5262

>  <PUBCHEM_FEATURE_SELFOVERLAP>  (1) 
20.324

>  <PUBCHEM_SHAPE_FINGERPRINT>  (1) 
10411042 1 17978229697041834807
10493431 412 18269846315888544793
10498660 4 18410006598555225196
10646746 165 18411420601211229980
10670039 82 18261689172508771484
11961588 58 17823677725899262229
12173636 292 18338795607285596271
12390115 104 18056775242996597409
14142880 1 17968094184134349061
14251764 38 18336548343285286852
14739800 52 18265310963710205040
14790565 3 17982457001512867785
15196674 1 18411701006651757324
16945 1 18196636425142727419
17134986 127 17689716359759003109
17492 89 18409449163646436170
20300324 65 18412826914641827062
20510252 161 18341614785375137267
20645477 56 18338806619296945255
20871999 31 18343291566509096887
21623110 236 18268155438038942968
23227448 37 18411418427277783612
23352939 185 18059018422615130395
23402539 116 18410849992835559710
235170 7 17560815337594422716
23557571 272 18271816738818280918
23559900 14 18128815232095577526
245318 6 16738063074737746020
2748010 2 18196067032791083579
351380 180 18411697712596301688
4028521 119 18409448063970381676
4214541 1 18411702058907812172
4340502 62 16516259422968157641
441001 317 18411135857632648560
474 4 17603594014894593046
5104073 3 18335702711136412442
9709674 26 18342745100371307726
9981440 41 18261388970894200138

>  <PUBCHEM_SHAPE_MULTIPOLES>  (1) 
353.71
9.61
2.76
0.87
14.9
0.93
0.16
2.92
-2.18
-2.64
0.05
0.36
-0.18
0.14

>  <PUBCHEM_SHAPE_SELFOVERLAP>  (1) 
750.04

>  <PUBCHEM_SHAPE_VOLUME>  (1) 
199.8

>  <PUBCHEM_COORDINATE_TYPE>  (1) 
2
5
10

$$$$
