39614
     RDKit          3D

 25 28  0  0  0  0  0  0  0  0999 V2000
    1.7275    4.0176   -0.1015 O   0  0  0  0  0  0  0  0  0  0  0  0
   -0.6690    3.8227   -0.2122 O   0  0  0  0  0  0  0  0  0  0  0  0
   -1.6035   -2.7166   -1.3158 O   0  0  0  0  0  0  0  0  0  0  0  0
    5.2754   -1.9842    0.9764 O   0  0  0  0  0  0  0  0  0  0  0  0
    3.2976   -1.4072    1.9336 O   0  0  0  0  0  0  0  0  0  0  0  0
   -0.1798   -1.1111   -0.5937 N   0  0  0  0  0  0  0  0  0  0  0  0
    1.5373    0.3547   -0.4080 C   0  0  0  0  0  0  0  0  0  0  0  0
    0.1333    0.2480   -0.4655 C   0  0  0  0  0  0  0  0  0  0  0  0
    2.0618   -0.9568   -0.4975 C   0  0  0  0  0  0  0  0  0  0  0  0
    1.0039   -1.8237   -0.6025 C   0  0  0  0  0  0  0  0  0  0  0  0
    2.1497    1.6227   -0.2805 C   0  0  0  0  0  0  0  0  0  0  0  0
   -0.6908    1.3926   -0.4088 C   0  0  0  0  0  0  0  0  0  0  0  0
    3.4932   -1.3269   -0.4766 C   0  0  0  0  0  0  0  0  0  0  0  0
    1.3172    2.7244   -0.2220 C   0  0  0  0  0  0  0  0  0  0  0  0
   -0.0468    2.6117   -0.2845 C   0  0  0  0  0  0  0  0  0  0  0  0
    1.0756   -3.3003   -0.7149 C   0  0  0  0  0  0  0  0  0  0  0  0
   -1.4679   -1.6859   -0.6646 C   0  0  0  0  0  0  0  0  0  0  0  0
    0.4623    4.7079   -0.0936 C   0  0  0  0  0  0  0  0  0  0  0  0
   -2.6734   -1.1278   -0.0222 C   0  0  0  0  0  0  0  0  0  0  0  0
    3.9807   -1.5816    0.9324 C   0  0  0  0  0  0  0  0  0  0  0  0
   -2.5543   -0.3957    1.1565 C   0  0  0  0  0  0  0  0  0  0  0  0
   -3.9244   -1.3354   -0.5978 C   0  0  0  0  0  0  0  0  0  0  0  0
   -3.6937    0.1321    1.7637 C   0  0  0  0  0  0  0  0  0  0  0  0
   -5.0637   -0.8074    0.0094 C   0  0  0  0  0  0  0  0  0  0  0  0
   -4.9483   -0.0737    1.1902 C   0  0  0  0  0  0  0  0  0  0  0  0
  1 14  1  0
  1 18  1  0
  2 15  1  0
  2 18  1  0
  3 17  2  0
  4 20  1  0
  5 20  2  0
  6  8  1  0
  6 10  1  0
  6 17  1  0
  7  8  2  0
  7  9  1  0
  7 11  1  0
  8 12  1  0
  9 10  2  0
  9 13  1  0
 10 16  1  0
 11 14  2  0
 12 15  2  0
 13 20  1  0
 14 15  1  0
 17 19  1  0
 19 21  2  0
 19 22  1  0
 21 23  1  0
 22 24  2  0
 23 25  2  0
 24 25  1  0
M  END
>  <PUBCHEM_COMPOUND_CID>  (1) 
39614

>  <PUBCHEM_CONFORMER_RMSD>  (1) 
0.8

>  <PUBCHEM_CONFORMER_DIVERSEORDER>  (1) 
4
9
19
21
7
18
17
10
5
15
11
1
16
6
8
20
3
14
2
13
12

>  <PUBCHEM_MMFF94_PARTIAL_CHARGES>  (1) 
32
1 -0.36
10 -0.33
11 -0.15
12 -0.15
13 0.24
14 0.08
15 0.08
16 0.18
17 0.49
18 0.56
19 0.09
2 -0.36
20 0.66
21 -0.15
22 -0.15
23 -0.15
24 -0.15
25 -0.15
26 0.15
27 0.15
3 -0.57
35 0.15
36 0.15
37 0.15
38 0.15
39 0.15
4 -0.65
40 0.5
5 -0.57
6 0.29
8 -0.15
9 -0.18

>  <PUBCHEM_EFFECTIVE_ROTOR_COUNT>  (1) 
4.6

>  <PUBCHEM_PHARMACOPHORE_FEATURES>  (1) 
10
1 1 acceptor
1 2 acceptor
1 3 acceptor
1 4 acceptor
1 5 acceptor
3 4 5 20 anion
5 1 2 14 15 18 rings
5 6 7 8 9 10 rings
6 19 21 22 23 24 25 rings
6 7 8 11 12 14 15 rings

>  <PUBCHEM_HEAVY_ATOM_COUNT>  (1) 
25

>  <PUBCHEM_ATOM_DEF_STEREO_COUNT>  (1) 
0

>  <PUBCHEM_ATOM_UDEF_STEREO_COUNT>  (1) 
0

>  <PUBCHEM_BOND_DEF_STEREO_COUNT>  (1) 
0

>  <PUBCHEM_BOND_UDEF_STEREO_COUNT>  (1) 
0

>  <PUBCHEM_ISOTOPIC_ATOM_COUNT>  (1) 
0

>  <PUBCHEM_COMPONENT_COUNT>  (1) 
1

>  <PUBCHEM_CACTVS_TAUTO_COUNT>  (1) 
1

>  <PUBCHEM_CONFORMER_ID>  (1) 
00009ABE00000004

>  <PUBCHEM_MMFF94_ENERGY>  (1) 
67.3759

>  <PUBCHEM_FEATURE_SELFOVERLAP>  (1) 
51.055

>  <PUBCHEM_SHAPE_FINGERPRINT>  (1) 
10074138 170 17540783150553835128
10411042 1 18410573955319308638
1100329 8 18122627425393314772
11640471 11 17630071423407393449
12166972 35 18200579398272904699
12293681 4 18187944841064277147
12403260 363 18342175601093685679
12553582 1 18339089206633580790
12633257 1 18334304158321770299
12788726 201 18189066300143629834
13004483 165 18337097974217231314
13009979 54 17988368169022337459
13134695 92 18334019418895243997
13140716 1 18339642351298244162
13692114 37 17186148774644066625
138480 1 18411426119738024093
14022347 108 18266479653827844270
14117953 113 18270964527676833671
14178342 30 17903073335744412798
14466204 15 18265051332662523137
14739800 52 17345184713154690600
14790565 3 17976831109487426116
14955137 171 18337968847466976638
15042514 8 18120936097136188092
15420108 30 17914608599851444276
15475509 35 17313393361330383291
15475509 8 17842875232868402604
17349148 13 18131068272991047175
17492 89 18124599931858151527
17980427 23 17632291302723454181
1813 80 18412268307116866710
192875 21 18343580763821285211
19319366 153 17968101984174974158
20600515 1 18273217508226917998
20642791 35 18269569384886883284
20739085 24 18412266155364397720
21033648 29 17702934834519233019
21041028 32 18335983082142964548
2132832 1 17914594289036712799
21796203 349 18048636752131854104
22182313 1 17911521991402720846
23366157 5 18045501073623101069
23419403 2 17969199244374490532
23558518 356 17685504143418891190
23559900 14 17489042559474130596
2748010 2 17765720122287740478
3091708 16 9283008980873816404
345986 75 17750777862398279738
352729 6 17977946778839607348
3886686 26 16686229978721563928
4409770 3 18046051671298175477
474 4 18196660811692688489
5104073 3 18339374079826273915
513202 73 18049445838272216274
5939293 188 18340495554998708399
5951187 136 13897439187340418977
7064713 232 17846227596597794283
81228 2 17901682465860658077
84936 182 17770226269057668073
90316 7 18339070493603451218
9777508 108 17619912751441115968
9981440 41 17402887225061223201

>  <PUBCHEM_SHAPE_MULTIPOLES>  (1) 
480.16
7.91
4.87
1.21
4.55
6.47
-0.52
-5.47
-3.54
-3.51
0.91
0.13
-0.61
-1.24

>  <PUBCHEM_SHAPE_SELFOVERLAP>  (1) 
1078.06

>  <PUBCHEM_SHAPE_VOLUME>  (1) 
254.8

>  <PUBCHEM_COORDINATE_TYPE>  (1) 
2
5
10

$$$$
