39627
     RDKit          3D

 25 29  0  0  0  0  0  0  0  0999 V2000
    1.8612   -4.2482    0.1225 O   0  0  0  0  0  0  0  0  0  0  0  0
   -0.4221   -3.8265   -0.5107 O   0  0  0  0  0  0  0  0  0  0  0  0
   -0.6577    2.8566   -1.0424 O   0  0  0  0  0  0  0  0  0  0  0  0
    0.4765    1.0627   -0.2655 N   0  0  0  0  0  0  0  0  0  0  0  0
    2.6537    0.6918    0.2005 C   0  0  0  0  0  0  0  0  0  0  0  0
    1.7069    1.6649   -0.0436 C   0  0  0  0  0  0  0  0  0  0  0  0
    4.0798    1.0013    0.5140 C   0  0  0  0  0  0  0  0  0  0  0  0
    1.9855    3.1376   -0.0338 C   0  0  0  0  0  0  0  0  0  0  0  0
    4.4344    2.4485    0.1399 C   0  0  0  0  0  0  0  0  0  0  0  0
    3.3523    3.4312    0.6090 C   0  0  0  0  0  0  0  0  0  0  0  0
    2.0142   -0.5685    0.1101 C   0  0  0  0  0  0  0  0  0  0  0  0
    0.6641   -0.3272   -0.2162 C   0  0  0  0  0  0  0  0  0  0  0  0
    2.4850   -1.8951    0.2573 C   0  0  0  0  0  0  0  0  0  0  0  0
   -0.2215   -1.3971   -0.4718 C   0  0  0  0  0  0  0  0  0  0  0  0
   -0.7333    1.7486   -0.5191 C   0  0  0  0  0  0  0  0  0  0  0  0
    1.5834   -2.9179    0.0372 C   0  0  0  0  0  0  0  0  0  0  0  0
    0.2844   -2.6763   -0.3206 C   0  0  0  0  0  0  0  0  0  0  0  0
   -2.0808    1.2601   -0.1797 C   0  0  0  0  0  0  0  0  0  0  0  0
    0.5830   -4.8183   -0.2214 C   0  0  0  0  0  0  0  0  0  0  0  0
   -2.2614    0.4266    0.9228 C   0  0  0  0  0  0  0  0  0  0  0  0
   -3.1730    1.6327   -0.9617 C   0  0  0  0  0  0  0  0  0  0  0  0
   -3.5375   -0.0357    1.2442 C   0  0  0  0  0  0  0  0  0  0  0  0
   -4.4493    1.1705   -0.6402 C   0  0  0  0  0  0  0  0  0  0  0  0
   -4.6315    0.3363    0.4629 C   0  0  0  0  0  0  0  0  0  0  0  0
   -5.9960   -0.1588    0.8063 C   0  0  0  0  0  0  0  0  0  0  0  0
  1 16  1  0
  1 19  1  0
  2 17  1  0
  2 19  1  0
  3 15  2  0
  4  6  1  0
  4 12  1  0
  4 15  1  0
  5  6  2  0
  5  7  1  0
  5 11  1  0
  6  8  1  0
  7  9  1  0
  8 10  1  0
  9 10  1  0
 11 12  2  0
 11 13  1  0
 12 14  1  0
 13 16  2  0
 14 17  2  0
 15 18  1  0
 16 17  1  0
 18 20  2  0
 18 21  1  0
 20 22  1  0
 21 23  2  0
 22 24  2  0
 23 24  1  0
 24 25  1  0
M  END
>  <PUBCHEM_COMPOUND_CID>  (1) 
39627

>  <PUBCHEM_CONFORMER_RMSD>  (1) 
0.6

>  <PUBCHEM_CONFORMER_DIVERSEORDER>  (1) 
1
7
3
4
2
5
6

>  <PUBCHEM_MMFF94_PARTIAL_CHARGES>  (1) 
28
1 -0.36
12 -0.15
13 -0.15
14 -0.15
15 0.49
16 0.08
17 0.08
18 0.09
19 0.56
2 -0.36
20 -0.15
21 -0.15
22 -0.15
23 -0.15
24 -0.14
25 0.14
3 -0.57
34 0.15
35 0.15
38 0.15
39 0.15
4 0.29
40 0.15
41 0.15
5 -0.18
6 -0.33
7 0.18
8 0.18

>  <PUBCHEM_EFFECTIVE_ROTOR_COUNT>  (1) 
3.4

>  <PUBCHEM_PHARMACOPHORE_FEATURES>  (1) 
8
1 1 acceptor
1 2 acceptor
1 3 acceptor
5 1 2 16 17 19 rings
5 4 5 6 11 12 rings
6 11 12 13 14 16 17 rings
6 18 20 21 22 23 24 rings
6 5 6 7 8 9 10 rings

>  <PUBCHEM_HEAVY_ATOM_COUNT>  (1) 
25

>  <PUBCHEM_ATOM_DEF_STEREO_COUNT>  (1) 
0

>  <PUBCHEM_ATOM_UDEF_STEREO_COUNT>  (1) 
0

>  <PUBCHEM_BOND_DEF_STEREO_COUNT>  (1) 
0

>  <PUBCHEM_BOND_UDEF_STEREO_COUNT>  (1) 
0

>  <PUBCHEM_ISOTOPIC_ATOM_COUNT>  (1) 
0

>  <PUBCHEM_COMPONENT_COUNT>  (1) 
1

>  <PUBCHEM_CACTVS_TAUTO_COUNT>  (1) 
1

>  <PUBCHEM_CONFORMER_ID>  (1) 
00009ACB00000001

>  <PUBCHEM_MMFF94_ENERGY>  (1) 
66.1015

>  <PUBCHEM_FEATURE_SELFOVERLAP>  (1) 
40.925

>  <PUBCHEM_SHAPE_FINGERPRINT>  (1) 
10050765 1 17834675282051677624
10074138 170 17906142386187483410
10165383 225 18340211911459723720
10411042 1 17690841164233550431
10493431 412 18268146642051214240
10940486 97 15671561500046251822
10967382 1 18338793416889185222
1100329 8 18269270330498182112
11227688 84 17621026569537072463
114674 6 18188780439973928227
11582403 64 16739679150043839805
12403259 226 17973444304482806767
12553582 1 17475804151702582718
12788726 201 16968020523890213596
13140716 1 18339359772445808178
13540713 5 17539681818272082996
13583140 156 16734920523890818084
1361 2 18337953502070450451
138480 1 18051128090713826006
13911987 19 18335978778633882933
140371 6 17186148770417313980
14223421 5 18192430775401390381
14363568 33 18195828296274871274
14659021 117 16463319865703487875
14787075 74 17844526811097605121
14790565 3 18265617765186127228
14863182 85 18261689128703964557
14866123 147 18266732675073064402
14955137 171 18194111924902504378
15927050 60 18340486785461824246
16728300 4 17607213525916942210
17138139 8 17413276386400383751
19591789 44 18410858720720613030
1979834 28 18190481483551962697
19930381 70 18337951186703373625
20028762 73 18200869677210237055
204376 136 18340206400678702385
20642791 13 17692243458655517612
20645477 70 18263073341266694605
20739085 24 18335431131590816804
20775438 99 17469838296632951421
21033648 29 18270104842264766601
21133410 32 16233712408713507987
21197605 99 18192441985841533619
21285901 2 17748825186188494541
21781051 124 18115043995054402520
21796203 349 17979102408120079419
221490 88 18120655721375901111
22224240 67 18270961366285803153
23558518 356 17469878248455511640
23559900 14 18120365454701342665
23845131 108 18337951319900458315
25222932 49 17313671580784894795
283562 15 17401755823712581042
3091708 16 9548756569093605386
3178227 256 18410020909839514240
3380486 145 17473845930241626480
33824 294 18410013230153210505
3421961 26 18266181621862346931
5104073 3 18262243223142125945
5309563 4 18051132493372211807
59755656 520 18269556211842384628
621550 34 18407761426430050149
6438718 38 17556304195471606886
6442390 28 18339081617610633988
6443956 14 17977386027666438925
653340 110 17476914031677200552
6669772 16 18343309171796457886
7399639 24 18334853927057463805
81228 2 17470153126261936544
9709674 26 18047465622167022789
9777508 108 17837484520372767848

>  <PUBCHEM_SHAPE_MULTIPOLES>  (1) 
491.9
8.47
5.44
0.9
9.34
6.94
0.05
-6.15
2.24
-4.89
-0.68
0.62
-0.24
0.67

>  <PUBCHEM_SHAPE_SELFOVERLAP>  (1) 
1110.433

>  <PUBCHEM_SHAPE_VOLUME>  (1) 
259.7

>  <PUBCHEM_COORDINATE_TYPE>  (1) 
2
5
10

$$$$
