39625
     RDKit          3D

 25 29  0  0  0  0  0  0  0  0999 V2000
   -6.3524   -0.1977    0.8628 Br  0  0  0  0  0  0  0  0  0  0  0  0
    1.8122   -4.2697    0.1227 O   0  0  0  0  0  0  0  0  0  0  0  0
   -0.4617   -3.8136   -0.5202 O   0  0  0  0  0  0  0  0  0  0  0  0
   -0.5962    2.8728   -1.0453 O   0  0  0  0  0  0  0  0  0  0  0  0
    0.5079    1.0615   -0.2654 N   0  0  0  0  0  0  0  0  0  0  0  0
    2.6773    0.6580    0.2098 C   0  0  0  0  0  0  0  0  0  0  0  0
    1.7461    1.6453   -0.0373 C   0  0  0  0  0  0  0  0  0  0  0  0
    4.1064    0.9461    0.5300 C   0  0  0  0  0  0  0  0  0  0  0  0
    2.0464    3.1136   -0.0246 C   0  0  0  0  0  0  0  0  0  0  0  0
    4.4840    2.3883    0.1592 C   0  0  0  0  0  0  0  0  0  0  0  0
    3.4145    3.3863    0.6246 C   0  0  0  0  0  0  0  0  0  0  0  0
    2.0196   -0.5926    0.1152 C   0  0  0  0  0  0  0  0  0  0  0  0
    0.6747   -0.3310   -0.2168 C   0  0  0  0  0  0  0  0  0  0  0  0
    2.4701   -1.9262    0.2630 C   0  0  0  0  0  0  0  0  0  0  0  0
   -0.2255   -1.3875   -0.4775 C   0  0  0  0  0  0  0  0  0  0  0  0
   -0.6905    1.7655   -0.5236 C   0  0  0  0  0  0  0  0  0  0  0  0
    1.5545   -2.9353    0.0377 C   0  0  0  0  0  0  0  0  0  0  0  0
    0.2609   -2.6742   -0.3256 C   0  0  0  0  0  0  0  0  0  0  0  0
   -2.0465    1.2966   -0.1907 C   0  0  0  0  0  0  0  0  0  0  0  0
    0.5273   -4.8205   -0.2275 C   0  0  0  0  0  0  0  0  0  0  0  0
   -2.2444    0.4647    0.9101 C   0  0  0  0  0  0  0  0  0  0  0  0
   -3.1296    1.6845   -0.9781 C   0  0  0  0  0  0  0  0  0  0  0  0
   -3.5283    0.0193    1.2243 C   0  0  0  0  0  0  0  0  0  0  0  0
   -4.4136    1.2391   -0.6640 C   0  0  0  0  0  0  0  0  0  0  0  0
   -4.6131    0.4066    0.4373 C   0  0  0  0  0  0  0  0  0  0  0  0
  1 25  1  0
  2 17  1  0
  2 20  1  0
  3 18  1  0
  3 20  1  0
  4 16  2  0
  5  7  1  0
  5 13  1  0
  5 16  1  0
  6  7  2  0
  6  8  1  0
  6 12  1  0
  7  9  1  0
  8 10  1  0
  9 11  1  0
 10 11  1  0
 12 13  2  0
 12 14  1  0
 13 15  1  0
 14 17  2  0
 15 18  2  0
 16 19  1  0
 17 18  1  0
 19 21  2  0
 19 22  1  0
 21 23  1  0
 22 24  2  0
 23 25  2  0
 24 25  1  0
M  END
>  <PUBCHEM_COMPOUND_CID>  (1) 
39625

>  <PUBCHEM_CONFORMER_RMSD>  (1) 
0.6

>  <PUBCHEM_CONFORMER_DIVERSEORDER>  (1) 
1
7
3
4
2
5
6

>  <PUBCHEM_MMFF94_PARTIAL_CHARGES>  (1) 
28
1 -0.11
13 -0.15
14 -0.15
15 -0.15
16 0.49
17 0.08
18 0.08
19 0.09
2 -0.36
20 0.56
21 -0.15
22 -0.15
23 -0.15
24 -0.15
25 0.11
3 -0.36
34 0.15
35 0.15
38 0.15
39 0.15
4 -0.57
40 0.15
41 0.15
5 0.29
6 -0.18
7 -0.33
8 0.18
9 0.18

>  <PUBCHEM_EFFECTIVE_ROTOR_COUNT>  (1) 
3.4

>  <PUBCHEM_PHARMACOPHORE_FEATURES>  (1) 
9
1 1 hydrophobe
1 2 acceptor
1 3 acceptor
1 4 acceptor
5 2 3 17 18 20 rings
5 5 6 7 12 13 rings
6 12 13 14 15 17 18 rings
6 19 21 22 23 24 25 rings
6 6 7 8 9 10 11 rings

>  <PUBCHEM_HEAVY_ATOM_COUNT>  (1) 
25

>  <PUBCHEM_ATOM_DEF_STEREO_COUNT>  (1) 
0

>  <PUBCHEM_ATOM_UDEF_STEREO_COUNT>  (1) 
0

>  <PUBCHEM_BOND_DEF_STEREO_COUNT>  (1) 
0

>  <PUBCHEM_BOND_UDEF_STEREO_COUNT>  (1) 
0

>  <PUBCHEM_ISOTOPIC_ATOM_COUNT>  (1) 
0

>  <PUBCHEM_COMPONENT_COUNT>  (1) 
1

>  <PUBCHEM_CACTVS_TAUTO_COUNT>  (1) 
1

>  <PUBCHEM_CONFORMER_ID>  (1) 
00009AC900000001

>  <PUBCHEM_MMFF94_ENERGY>  (1) 
64.4633

>  <PUBCHEM_FEATURE_SELFOVERLAP>  (1) 
45.999

>  <PUBCHEM_SHAPE_FINGERPRINT>  (1) 
10050765 1 17834674178255619072
10074138 170 17905859807409484914
10165383 225 18340211907148925712
10411042 1 17691122634920555575
10493431 412 18268428112727669856
10906281 52 17823440291327722305
10940486 97 15671842970722720438
10967382 1 18338792308824533126
1100329 8 18269270334740479840
11227688 84 17548970066621336767
11421498 54 17561092371179342993
114674 6 18188500060266651587
11582403 64 16811738938810068949
12403259 226 17973445404026089543
12553582 1 17475804147433989190
12788726 201 17040082507310793732
13140716 1 18339360867651912642
13540713 5 17539682917757330556
13583140 156 16734920519622224524
1361 2 18337954597276541979
138480 1 18051128086439944742
13911987 19 18335697299320013477
140371 6 17114091172100236508
14363568 33 18195828291958837458
14787075 74 17844526811092343377
14790565 3 18265899240189185661
14863182 85 18261970603707048997
14866123 147 18266732670793934362
14955137 171 18194111924897268610
15927050 60 18340768256122488094
16728300 4 17534874452607368810
17138139 8 17413275282583219695
17859628 70 18339649928005422947
19591789 44 18410857616924573958
1979834 28 18262537973778046753
19930381 70 18337950078596523473
20028762 73 18200869677241885567
20642791 13 17692524929321397756
20645477 70 18263075544563818357
21033648 29 18269823362945596385
21133410 32 16233712408713520987
21197605 99 18192441981557102819
21285901 2 17748827393828025909
21781051 124 18115324366203425600
21796203 349 17979382779311287507
221490 88 18120654621890640607
22224240 67 18270961361943376089
23558518 356 17541935838198491760
23559900 14 18048306756856832649
23845131 108 18337951315616040563
25222932 49 17313670481315465019
283562 15 17401474344451446122
3091708 16 9549319519062844458
3178227 256 18410300181492733784
3380486 145 17473844826477196920
33824 294 18410013225863524465
3421961 26 18266181621909819699
4340502 62 18272374225826723601
5309563 4 18051133592915488055
58260988 647 16843358664342258060
59755656 520 18269837682471354492
621550 34 18408042901417310301
6438718 38 17628081414060315134
6442390 28 18339081613299835940
6443956 14 17905327329779704917
653340 110 17548690142148411776
6669772 16 18343309171785914878
6679774 75 18113891668483606426
7399639 24 18334853927057470301
81228 2 17470153121977512216
9709674 26 17975408023839415301
9777508 108 17837484516051420304

>  <PUBCHEM_SHAPE_MULTIPOLES>  (1) 
497.84
9.04
5.39
0.92
11.71
6.95
0.05
-6.11
2.69
-4.99
-0.7
0.66
-0.25
0.74

>  <PUBCHEM_SHAPE_SELFOVERLAP>  (1) 
1109.874

>  <PUBCHEM_SHAPE_VOLUME>  (1) 
273.5

>  <PUBCHEM_COORDINATE_TYPE>  (1) 
2
5
10

$$$$
