39636
     RDKit          3D

 26 30  0  0  1  0  0  0  0  0999 V2000
    4.8478   -3.1442    1.8252 Br  0  0  0  0  0  0  0  0  0  0  0  0
   -3.9657   -2.8426    0.2780 O   0  0  0  0  0  0  0  0  0  0  0  0
   -5.6793   -1.2476   -0.2833 O   0  0  0  0  0  0  0  0  0  0  0  0
    1.1322    0.5317   -1.8129 O   0  0  0  0  0  0  0  0  0  0  0  0
   -2.2580    2.2888   -0.3176 N   0  0  0  0  0  0  0  0  0  0  0  0
    0.7605    0.3544    0.5278 C   0  0  0  0  0  0  0  0  0  0  0  0
   -0.5963    0.8961    0.2049 C   0  0  0  0  0  0  0  0  0  0  0  0
    1.5291    1.1555    1.5865 C   0  0  0  0  0  0  0  0  0  0  0  0
   -0.9104    2.2138   -0.0792 C   0  0  0  0  0  0  0  0  0  0  0  0
    1.9635    2.5755    1.2035 C   0  0  0  0  0  0  0  0  0  0  0  0
   -0.0407    3.4194   -0.1566 C   0  0  0  0  0  0  0  0  0  0  0  0
    0.8261    3.5928    1.0879 C   0  0  0  0  0  0  0  0  0  0  0  0
   -1.8203    0.1474    0.1277 C   0  0  0  0  0  0  0  0  0  0  0  0
   -2.8417    1.0503   -0.2000 C   0  0  0  0  0  0  0  0  0  0  0  0
    1.5738    0.1848   -0.7200 C   0  0  0  0  0  0  0  0  0  0  0  0
   -2.1451   -1.2184    0.3065 C   0  0  0  0  0  0  0  0  0  0  0  0
   -4.1840    0.6754   -0.3613 C   0  0  0  0  0  0  0  0  0  0  0  0
   -3.4728   -1.5790    0.1452 C   0  0  0  0  0  0  0  0  0  0  0  0
   -4.4498   -0.6689   -0.1751 C   0  0  0  0  0  0  0  0  0  0  0  0
    2.9353   -0.4132   -0.6216 C   0  0  0  0  0  0  0  0  0  0  0  0
   -5.3640   -2.6238    0.0061 C   0  0  0  0  0  0  0  0  0  0  0  0
    3.1866   -1.3270    0.3777 C   0  0  0  0  0  0  0  0  0  0  0  0
    3.8927   -0.0296   -1.5342 C   0  0  0  0  0  0  0  0  0  0  0  0
    4.4614   -1.8861    0.4690 C   0  0  0  0  0  0  0  0  0  0  0  0
    5.1673   -0.5886   -1.4429 C   0  0  0  0  0  0  0  0  0  0  0  0
    5.4517   -1.5169   -0.4414 C   0  0  0  0  0  0  0  0  0  0  0  0
  1 24  1  0
  2 18  1  0
  2 21  1  0
  3 19  1  0
  3 21  1  0
  4 15  2  0
  5  9  1  0
  5 14  1  0
  6  7  1  0
  6  8  1  0
  6 15  1  0
  7  9  2  0
  7 13  1  0
  8 10  1  0
  9 11  1  0
 10 12  1  0
 11 12  1  0
 13 14  2  0
 13 16  1  0
 14 17  1  0
 15 20  1  0
 16 18  2  0
 17 19  2  0
 18 19  1  0
 20 22  2  0
 20 23  1  0
 22 24  1  0
 23 25  2  0
 24 26  2  0
 25 26  1  0
M  END
>  <PUBCHEM_COMPOUND_CID>  (1) 
39636

>  <PUBCHEM_CONFORMER_RMSD>  (1) 
0.8

>  <PUBCHEM_CONFORMER_DIVERSEORDER>  (1) 
1
39
38
37
21
30
15
40
29
32
35
4
10
22
23
3
41
24
19
36
13
2
16
34
25
20
26
28
6
9
31
11
8
14
5
33
27
12
18
7
17

>  <PUBCHEM_MMFF94_PARTIAL_CHARGES>  (1) 
29
1 -0.11
11 0.18
14 -0.15
15 0.42
16 -0.15
17 -0.15
18 0.08
19 0.08
2 -0.36
20 0.09
21 0.56
22 -0.15
23 -0.15
24 0.11
25 -0.15
26 -0.15
3 -0.36
36 0.27
37 0.15
38 0.15
4 -0.57
41 0.15
42 0.15
43 0.15
44 0.15
5 0.03
6 0.24
7 -0.18
9 -0.33

>  <PUBCHEM_EFFECTIVE_ROTOR_COUNT>  (1) 
3.6

>  <PUBCHEM_PHARMACOPHORE_FEATURES>  (1) 
11
1 1 hydrophobe
1 2 acceptor
1 3 acceptor
1 4 acceptor
1 5 cation
1 5 donor
5 2 3 18 19 21 rings
5 5 7 9 13 14 rings
6 13 14 16 17 18 19 rings
6 20 22 23 24 25 26 rings
7 6 7 8 9 10 11 12 rings

>  <PUBCHEM_HEAVY_ATOM_COUNT>  (1) 
26

>  <PUBCHEM_ATOM_DEF_STEREO_COUNT>  (1) 
0

>  <PUBCHEM_ATOM_UDEF_STEREO_COUNT>  (1) 
1

>  <PUBCHEM_BOND_DEF_STEREO_COUNT>  (1) 
0

>  <PUBCHEM_BOND_UDEF_STEREO_COUNT>  (1) 
0

>  <PUBCHEM_ISOTOPIC_ATOM_COUNT>  (1) 
0

>  <PUBCHEM_COMPONENT_COUNT>  (1) 
1

>  <PUBCHEM_CACTVS_TAUTO_COUNT>  (1) 
2

>  <PUBCHEM_CONFORMER_ID>  (1) 
00009AD400000001

>  <PUBCHEM_MMFF94_ENERGY>  (1) 
58.5074

>  <PUBCHEM_FEATURE_SELFOVERLAP>  (1) 
56.105

>  <PUBCHEM_SHAPE_FINGERPRINT>  (1) 
10622 236 17679570156821804138
11578080 2 17532905312586145564
11796584 16 18338238154769403662
11963148 33 18049993695615503170
12107183 9 17394726177709079666
12236239 1 17749958756078459964
12403259 118 9871453289149623654
12516196 113 18343585148687488726
12633257 1 18130239176656321873
12788726 201 18264777553945317378
12969540 114 14562822040444053586
12969540 37 18191300696253660711
13140716 1 18272088266656424649
13533116 47 17986394619260665371
13540713 4 18266443464897637989
13631057 29 18410580544489866694
13955234 65 17911803784180566201
14068700 675 18042957676508029130
14790565 3 17548705079892316529
14866123 147 18196935475073320881
15250474 111 18115866304834781634
17138139 8 18186802487338462922
17492 89 18124314076436454175
18222031 100 17847061082014101540
20028762 73 17489584619118997663
20626108 58 18187076210035899170
20775438 99 17688577678040978955
21033648 29 16486684762665769026
21728266 224 18263359197083764338
22182313 1 18268128998415349957
23522609 53 18122098431330555413
23557571 272 17700984249536631492
23559900 14 18338793524437798133
3004659 81 18186803548232203798
3178227 256 18122644764562190801
329604 57 18410300220173826092
335352 9 18410856543557316093
3411729 13 17845085358883784312
3421961 26 18270118044940421281
38570 142 13110100085359329050
3886686 26 17043444242923336178
439807 62 18113340825642084491
463206 1 18335421287562905931
5104073 3 18130794499101175835
5486654 36 18340784692856341497
57527293 21 17345449588673631870
6371380 46 18341047407754026049
6669772 16 17695916909909308252
6823239 73 18340196470724617289
7495541 125 18342741844553871580
7970288 3 18409447029126837199
8863177 126 18118978124879189915
9709674 26 18121778593889962811

>  <PUBCHEM_SHAPE_MULTIPOLES>  (1) 
518.42
11.9
3.9
1.34
0.57
1.34
-0.03
-13.12
1.33
0.67
-1.67
-2.08
0.02
-0.65

>  <PUBCHEM_SHAPE_SELFOVERLAP>  (1) 
1151.992

>  <PUBCHEM_SHAPE_VOLUME>  (1) 
284.2

>  <PUBCHEM_COORDINATE_TYPE>  (1) 
2
5
10

$$$$
