39634
     RDKit          3D

 26 30  0  0  1  0  0  0  0  0999 V2000
    4.7990   -3.0392    1.7447 Cl  0  0  0  0  0  0  0  0  0  0  0  0
   -3.9728   -2.8325    0.2984 O   0  0  0  0  0  0  0  0  0  0  0  0
   -5.6805   -1.2378   -0.2816 O   0  0  0  0  0  0  0  0  0  0  0  0
    1.1398    0.5086   -1.8096 O   0  0  0  0  0  0  0  0  0  0  0  0
   -2.2491    2.2885   -0.3388 N   0  0  0  0  0  0  0  0  0  0  0  0
    0.7617    0.3532    0.5316 C   0  0  0  0  0  0  0  0  0  0  0  0
   -0.5927    0.8958    0.2004 C   0  0  0  0  0  0  0  0  0  0  0  0
    1.5299    1.1617    1.5850 C   0  0  0  0  0  0  0  0  0  0  0  0
   -0.9024    2.2119   -0.0962 C   0  0  0  0  0  0  0  0  0  0  0  0
    1.9693    2.5770    1.1905 C   0  0  0  0  0  0  0  0  0  0  0  0
   -0.0291    3.4142   -0.1822 C   0  0  0  0  0  0  0  0  0  0  0  0
    0.8351    3.5963    1.0629 C   0  0  0  0  0  0  0  0  0  0  0  0
   -1.8187    0.1500    0.1268 C   0  0  0  0  0  0  0  0  0  0  0  0
   -2.8366    1.0528   -0.2116 C   0  0  0  0  0  0  0  0  0  0  0  0
    1.5778    0.1702   -0.7125 C   0  0  0  0  0  0  0  0  0  0  0  0
   -2.1477   -1.2133    0.3170 C   0  0  0  0  0  0  0  0  0  0  0  0
   -4.1796    0.6801   -0.3729 C   0  0  0  0  0  0  0  0  0  0  0  0
   -3.4761   -1.5715    0.1555 C   0  0  0  0  0  0  0  0  0  0  0  0
   -4.4496   -0.6617   -0.1754 C   0  0  0  0  0  0  0  0  0  0  0  0
    2.9373   -0.4307   -0.6053 C   0  0  0  0  0  0  0  0  0  0  0  0
   -5.3698   -2.6123    0.0209 C   0  0  0  0  0  0  0  0  0  0  0  0
    3.1825   -1.3376    0.4017 C   0  0  0  0  0  0  0  0  0  0  0  0
    3.8983   -0.0581   -1.5188 C   0  0  0  0  0  0  0  0  0  0  0  0
    4.4549   -1.9010    0.5003 C   0  0  0  0  0  0  0  0  0  0  0  0
    5.1704   -0.6215   -1.4201 C   0  0  0  0  0  0  0  0  0  0  0  0
    5.4487   -1.5429   -0.4107 C   0  0  0  0  0  0  0  0  0  0  0  0
  1 24  1  0
  2 18  1  0
  2 21  1  0
  3 19  1  0
  3 21  1  0
  4 15  2  0
  5  9  1  0
  5 14  1  0
  6  7  1  0
  6  8  1  0
  6 15  1  0
  7  9  2  0
  7 13  1  0
  8 10  1  0
  9 11  1  0
 10 12  1  0
 11 12  1  0
 13 14  2  0
 13 16  1  0
 14 17  1  0
 15 20  1  0
 16 18  2  0
 17 19  2  0
 18 19  1  0
 20 22  2  0
 20 23  1  0
 22 24  1  0
 23 25  2  0
 24 26  2  0
 25 26  1  0
M  END
>  <PUBCHEM_COMPOUND_CID>  (1) 
39634

>  <PUBCHEM_CONFORMER_RMSD>  (1) 
0.8

>  <PUBCHEM_CONFORMER_DIVERSEORDER>  (1) 
1
46
42
35
20
41
30
36
47
2
33
26
14
24
31
44
10
3
40
25
27
45
32
13
43
34
23
28
18
4
39
21
8
11
29
9
38
15
12
7
22
16
6
19
17
37
5

>  <PUBCHEM_MMFF94_PARTIAL_CHARGES>  (1) 
29
1 -0.18
11 0.18
14 -0.15
15 0.42
16 -0.15
17 -0.15
18 0.08
19 0.08
2 -0.36
20 0.09
21 0.56
22 -0.15
23 -0.15
24 0.18
25 -0.15
26 -0.15
3 -0.36
36 0.27
37 0.15
38 0.15
4 -0.57
41 0.15
42 0.15
43 0.15
44 0.15
5 0.03
6 0.24
7 -0.18
9 -0.33

>  <PUBCHEM_EFFECTIVE_ROTOR_COUNT>  (1) 
3.6

>  <PUBCHEM_PHARMACOPHORE_FEATURES>  (1) 
10
1 2 acceptor
1 3 acceptor
1 4 acceptor
1 5 cation
1 5 donor
5 2 3 18 19 21 rings
5 5 7 9 13 14 rings
6 13 14 16 17 18 19 rings
6 20 22 23 24 25 26 rings
7 6 7 8 9 10 11 12 rings

>  <PUBCHEM_HEAVY_ATOM_COUNT>  (1) 
26

>  <PUBCHEM_ATOM_DEF_STEREO_COUNT>  (1) 
0

>  <PUBCHEM_ATOM_UDEF_STEREO_COUNT>  (1) 
1

>  <PUBCHEM_BOND_DEF_STEREO_COUNT>  (1) 
0

>  <PUBCHEM_BOND_UDEF_STEREO_COUNT>  (1) 
0

>  <PUBCHEM_ISOTOPIC_ATOM_COUNT>  (1) 
0

>  <PUBCHEM_COMPONENT_COUNT>  (1) 
1

>  <PUBCHEM_CACTVS_TAUTO_COUNT>  (1) 
2

>  <PUBCHEM_CONFORMER_ID>  (1) 
00009AD200000001

>  <PUBCHEM_MMFF94_ENERGY>  (1) 
58.3455

>  <PUBCHEM_FEATURE_SELFOVERLAP>  (1) 
51.031

>  <PUBCHEM_SHAPE_FINGERPRINT>  (1) 
10622 236 17679570156821804154
11578080 2 17605245481117699700
11796584 16 18338238154758854150
11963148 33 18050275166323613802
12236239 1 17749677281096468068
12403259 118 9871452189632721126
12403259 226 18410567409978936381
12516196 113 18343302574193882038
12633257 1 18130520651627770777
12788726 201 18264777558245552906
12969540 114 14562822040438778858
13140716 1 18271806791679713985
13533116 47 17986113139973150179
13540713 4 18266161989920927349
13631057 29 18337960000503818158
13955234 65 17911522309214411545
14068700 675 18043240250996348026
14790565 3 17548986550505494649
14866123 147 18268712697983272769
15250474 111 18115866304840049898
17138139 8 18186802487333188186
17492 89 18124032601459749967
1813 80 17988378021492561868
18222031 100 17847061082019369788
20028762 73 17489303144137031735
20626108 58 18187077313821388698
20775438 99 17688577678040978979
21033648 29 16486684762681593282
21728266 224 18263077726380921946
22182313 1 18268128998410068717
23522609 53 18122379893190294581
23557571 272 17773041843558735204
23559900 14 18338792424926150837
3004659 81 18114464479201734438
3178227 256 18122363289585486625
329604 57 18410299120662185308
335352 9 18410855439750727525
3411729 13 17845366833855226712
3421961 26 18269835470452082857
38570 142 13182157683686936562
439807 62 18113340825657895771
463206 1 18335421287573455419
5104073 3 18130513028445825723
5486654 36 18340784692861616249
57527293 21 17345449588668324702
6371380 46 18340765932777308881
6669772 16 17695635434937865860
6823239 73 18340196470724617289
7495541 125 18342741844553865076
7970288 3 18409447024831869895
8863177 126 18118978124884464675
9709674 26 18121497118902741643

>  <PUBCHEM_SHAPE_MULTIPOLES>  (1) 
514.35
11.79
3.82
1.3
0.95
1.6
-0.02
-12.86
1.33
0.61
-1.5
-1.89
0.02
-0.34

>  <PUBCHEM_SHAPE_SELFOVERLAP>  (1) 
1149.411

>  <PUBCHEM_SHAPE_VOLUME>  (1) 
273.9

>  <PUBCHEM_COORDINATE_TYPE>  (1) 
2
5
10

$$$$
