39646
     RDKit          3D

 25 26  0  0  0  0  0  0  0  0999 V2000
   -5.3449    1.5110    2.1112 Cl  0  0  0  0  0  0  0  0  0  0  0  0
    0.5316    1.9479   -2.2398 O   0  0  0  0  0  0  0  0  0  0  0  0
    1.5812    0.8344   -0.4725 N   0  0  0  0  0  0  0  0  0  0  0  0
    2.0303   -2.5589    1.0331 N   0  0  0  0  0  0  0  0  0  0  0  0
    1.5206   -0.2189    0.5385 C   0  0  0  0  0  0  0  0  0  0  0  0
    2.0735   -1.5308    0.0013 C   0  0  0  0  0  0  0  0  0  0  0  0
    2.8056    1.6224   -0.4896 C   0  0  0  0  0  0  0  0  0  0  0  0
    2.7224    2.8464    0.4164 C   0  0  0  0  0  0  0  0  0  0  0  0
    0.6784   -3.1072    1.1595 C   0  0  0  0  0  0  0  0  0  0  0  0
    2.9853   -3.6286    0.7364 C   0  0  0  0  0  0  0  0  0  0  0  0
    0.5273    1.0712   -1.3693 C   0  0  0  0  0  0  0  0  0  0  0  0
    3.9972    3.6923    0.3804 C   0  0  0  0  0  0  0  0  0  0  0  0
   -0.6602    0.2242   -1.2964 C   0  0  0  0  0  0  0  0  0  0  0  0
   -1.7628    0.5395   -0.4857 C   0  0  0  0  0  0  0  0  0  0  0  0
    0.6044   -4.1331    2.2777 C   0  0  0  0  0  0  0  0  0  0  0  0
    2.6351   -4.3322   -0.5638 C   0  0  0  0  0  0  0  0  0  0  0  0
    3.8629    4.9360    1.2452 C   0  0  0  0  0  0  0  0  0  0  0  0
   -2.8794   -0.3298   -0.4673 C   0  0  0  0  0  0  0  0  0  0  0  0
   -0.6586   -0.9316   -2.0776 C   0  0  0  0  0  0  0  0  0  0  0  0
   -1.7818    1.6986    0.3071 C   0  0  0  0  0  0  0  0  0  0  0  0
   -2.8604   -1.4890   -1.2600 C   0  0  0  0  0  0  0  0  0  0  0  0
   -1.7565   -1.7866   -2.0595 C   0  0  0  0  0  0  0  0  0  0  0  0
   -3.9820   -0.0146    0.3434 C   0  0  0  0  0  0  0  0  0  0  0  0
   -2.8857    1.9961    1.1067 C   0  0  0  0  0  0  0  0  0  0  0  0
   -3.9837    1.1413    1.1248 C   0  0  0  0  0  0  0  0  0  0  0  0
  1 25  1  0
  2 11  2  0
  3  5  1  0
  3  7  1  0
  3 11  1  0
  4  6  1  0
  4  9  1  0
  4 10  1  0
  5  6  1  0
  7  8  1  0
  8 12  1  0
  9 15  1  0
 10 16  1  0
 11 13  1  0
 12 17  1  0
 13 14  2  0
 13 19  1  0
 14 18  1  0
 14 20  1  0
 18 21  2  0
 18 23  1  0
 19 22  2  0
 20 24  2  0
 21 22  1  0
 23 25  2  0
 24 25  1  0
M  END
>  <PUBCHEM_COMPOUND_CID>  (1) 
39646

>  <PUBCHEM_CONFORMER_RMSD>  (1) 
1

>  <PUBCHEM_CONFORMER_DIVERSEORDER>  (1) 
2
106
84
72
78
153
119
152
30
8
53
51
18
100
25
81
29
154
117
63
120
116
138
5
144
125
52
146
124
113
74
108
80
102
121
54
6
36
110
16
67
28
46
85
99
56
142
97
151
12
38
103
98
14
132
50
45
111
94
13
136
49
73
139
150
33
64
22
37
44
133
127
140
129
42
62
88
48
15
68
61
95
148
39
32
34
40
112
66
92
17
35
65
86
23
122
31
47
93
58
130
147
1
96
57
105
118
155
11
104
134
128
4
24
123
79
87
143
41
7
60
149
109
43
114
101
115
27
3
21
71
20
75
89
69
26
76
141
82
9
19
83
137
91
10
77
135
131
70
59
90
126
55
107
145

>  <PUBCHEM_MMFF94_PARTIAL_CHARGES>  (1) 
24
1 -0.18
10 0.27
11 0.54
13 0.09
19 -0.15
2 -0.57
20 -0.15
21 -0.15
22 -0.15
23 -0.15
24 -0.15
25 0.18
3 -0.66
4 -0.81
49 0.15
5 0.3
50 0.15
51 0.15
52 0.15
53 0.15
54 0.15
6 0.27
7 0.3
9 0.27

>  <PUBCHEM_EFFECTIVE_ROTOR_COUNT>  (1) 
10

>  <PUBCHEM_PHARMACOPHORE_FEATURES>  (1) 
5
1 17 hydrophobe
1 2 acceptor
1 4 cation
6 13 14 18 19 21 22 rings
6 14 18 20 23 24 25 rings

>  <PUBCHEM_HEAVY_ATOM_COUNT>  (1) 
25

>  <PUBCHEM_ATOM_DEF_STEREO_COUNT>  (1) 
0

>  <PUBCHEM_ATOM_UDEF_STEREO_COUNT>  (1) 
0

>  <PUBCHEM_BOND_DEF_STEREO_COUNT>  (1) 
0

>  <PUBCHEM_BOND_UDEF_STEREO_COUNT>  (1) 
0

>  <PUBCHEM_ISOTOPIC_ATOM_COUNT>  (1) 
0

>  <PUBCHEM_COMPONENT_COUNT>  (1) 
1

>  <PUBCHEM_CACTVS_TAUTO_COUNT>  (1) 
1

>  <PUBCHEM_CONFORMER_ID>  (1) 
00009ADE00000002

>  <PUBCHEM_MMFF94_ENERGY>  (1) 
56.6844

>  <PUBCHEM_FEATURE_SELFOVERLAP>  (1) 
25.398

>  <PUBCHEM_SHAPE_FINGERPRINT>  (1) 
12160290 23 17321548623762186174
12293681 160 17479426372664503447
12293681 4 17334492100076604132
12553582 1 17829038819235735010
12788726 201 17404283592418356254
13135754 10 16899346638063275082
13533116 47 18262531299525261489
13583140 156 18189900816726634661
13965767 371 18269575870198218933
14787075 74 17549529065061543517
14955137 171 17981341000951208431
17980427 23 17768521691375462101
20600515 1 17180827155218394597
20642791 268 18201424845125438138
20739085 24 18113897191257510988
21033648 29 16767303069953396907
23558518 356 18124886912628683100
3737641 26 17395868561363794851
392239 28 17691410028493257307
394222 165 18130238098334869505
4409770 3 17254259645918910250
59755656 520 18118681265413922976
6287921 2 18270662217529498274
6376802 137 17045411835611996926
7097593 13 18268144271102120591
9981440 41 17483955248797435232

>  <PUBCHEM_SHAPE_MULTIPOLES>  (1) 
500.53
7.71
6.22
2.09
5.06
1.02
-0.2
-6.46
4.02
-10.69
3.39
1.15
0.8
-1.46

>  <PUBCHEM_SHAPE_SELFOVERLAP>  (1) 
1023.196

>  <PUBCHEM_SHAPE_VOLUME>  (1) 
292.3

>  <PUBCHEM_COORDINATE_TYPE>  (1) 
2
5
10

$$$$
