39649
     RDKit          3D

 19 20  0  0  0  0  0  0  0  0999 V2000
    1.8139   -0.7150   -0.0357 O   0  0  0  0  0  0  0  0  0  0  0  0
   -0.4658    1.7569   -1.1569 O   0  0  0  0  0  0  0  0  0  0  0  0
   -4.4859   -0.0425    0.0975 N   0  0  0  0  0  0  0  0  0  0  0  0
   -0.8449   -0.4541   -0.5702 N   0  0  0  0  0  0  0  0  0  0  0  0
   -3.0600   -0.0604    0.3970 C   0  0  0  0  0  0  0  0  0  0  0  0
   -2.2651   -0.4575   -0.8383 C   0  0  0  0  0  0  0  0  0  0  0  0
   -5.2548    0.3757    1.2714 C   0  0  0  0  0  0  0  0  0  0  0  0
   -4.9344   -1.3595   -0.3593 C   0  0  0  0  0  0  0  0  0  0  0  0
   -4.8062    1.7413    1.7636 C   0  0  0  0  0  0  0  0  0  0  0  0
   -6.4054   -1.3374   -0.7386 C   0  0  0  0  0  0  0  0  0  0  0  0
    0.0039    0.6638   -0.7423 C   0  0  0  0  0  0  0  0  0  0  0  0
    1.3891    0.5046   -0.4572 C   0  0  0  0  0  0  0  0  0  0  0  0
    3.5960    0.6707   -0.1230 C   0  0  0  0  0  0  0  0  0  0  0  0
    3.1577   -0.6169    0.1687 C   0  0  0  0  0  0  0  0  0  0  0  0
    2.4403    1.3892   -0.5277 C   0  0  0  0  0  0  0  0  0  0  0  0
    4.9621    0.9656    0.0287 C   0  0  0  0  0  0  0  0  0  0  0  0
    3.9903   -1.6456    0.6057 C   0  0  0  0  0  0  0  0  0  0  0  0
    5.8244   -0.0489    0.4670 C   0  0  0  0  0  0  0  0  0  0  0  0
    5.3447   -1.3302    0.7496 C   0  0  0  0  0  0  0  0  0  0  0  0
  1 12  1  0
  1 14  1  0
  2 11  2  0
  3  5  1  0
  3  7  1  0
  3  8  1  0
  4  6  1  0
  4 11  1  0
  5  6  1  0
  7  9  1  0
  8 10  1  0
 11 12  1  0
 12 15  2  0
 13 14  2  0
 13 15  1  0
 13 16  1  0
 14 17  1  0
 16 18  2  0
 17 19  2  0
 18 19  1  0
M  END
>  <PUBCHEM_COMPOUND_CID>  (1) 
39649

>  <PUBCHEM_CONFORMER_RMSD>  (1) 
0.8

>  <PUBCHEM_CONFORMER_DIVERSEORDER>  (1) 
2
25
54
24
40
12
34
36
44
20
51
23
16
27
37
32
31
47
30
43
17
6
9
35
39
7
55
29
21
5
14
49
38
50
3
46
19
22
53
4
10
48
45
33
1
11
18
8
41
52
15
42
13
26
28

>  <PUBCHEM_MMFF94_PARTIAL_CHARGES>  (1) 
22
1 -0.28
11 0.71
12 0.05
14 0.14
15 -0.15
16 -0.15
17 -0.15
18 -0.15
19 -0.15
2 -0.57
28 0.37
3 -0.81
35 0.15
36 0.15
37 0.15
38 0.15
39 0.15
4 -0.73
5 0.27
6 0.3
7 0.27
8 0.27

>  <PUBCHEM_EFFECTIVE_ROTOR_COUNT>  (1) 
7

>  <PUBCHEM_PHARMACOPHORE_FEATURES>  (1) 
6
1 1 acceptor
1 2 acceptor
1 3 cation
1 4 donor
5 1 12 13 14 15 rings
6 13 14 16 17 18 19 rings

>  <PUBCHEM_HEAVY_ATOM_COUNT>  (1) 
19

>  <PUBCHEM_ATOM_DEF_STEREO_COUNT>  (1) 
0

>  <PUBCHEM_ATOM_UDEF_STEREO_COUNT>  (1) 
0

>  <PUBCHEM_BOND_DEF_STEREO_COUNT>  (1) 
0

>  <PUBCHEM_BOND_UDEF_STEREO_COUNT>  (1) 
0

>  <PUBCHEM_ISOTOPIC_ATOM_COUNT>  (1) 
0

>  <PUBCHEM_COMPONENT_COUNT>  (1) 
1

>  <PUBCHEM_CACTVS_TAUTO_COUNT>  (1) 
2

>  <PUBCHEM_CONFORMER_ID>  (1) 
00009AE100000002

>  <PUBCHEM_MMFF94_ENERGY>  (1) 
25.534

>  <PUBCHEM_FEATURE_SELFOVERLAP>  (1) 
30.548

>  <PUBCHEM_SHAPE_FINGERPRINT>  (1) 
10912923 1 18341899614541918865
11315181 36 18341050804882590395
11545043 162 15502381153639686185
11796584 16 14996280327360519209
12107183 9 17766567854527241867
12236239 1 18272370879730344490
12507557 5 16200434680586908313
12596602 18 18060419118518856154
13403585 85 17489867146393551009
13533116 47 18411698768963259946
13685833 64 17749110006649212283
13862211 1 18040709260426673210
13914758 101 18261387824781171821
1420 363 16515406261214351224
14251764 18 18412829096981027089
14386348 63 16877946044086838434
14739800 52 17630321067928754672
17844677 252 17821446850385625357
17857418 61 18409162238450490367
1813 80 17967544440730291244
19489759 90 17704354373166587403
20028762 73 18411131437864349006
20281389 69 15482667983431243634
20645477 56 14979954774722184669
20645477 70 18186512186214261086
21065198 48 18342178873173112473
21267235 1 18334011654449005974
21623969 137 17458071460092842723
22224240 67 18262510503351571448
23402539 116 18342454842476529429
23522609 53 18191896511598466604
23557571 272 15430301521460035567
23559900 14 14201400533932610351
2871803 45 17312814962120718594
314173 85 16950282901583716381
4340502 62 15769780169221492014
465052 167 18408041831733109446
5104073 3 18412826910272994424
542803 24 17918275354749144136
59682541 35 18262790883164577416
59755656 520 12967129428125365069

>  <PUBCHEM_SHAPE_MULTIPOLES>  (1) 
369.31
16.35
1.64
1.14
8.65
0.11
-0.23
-3.65
-4.32
0.5
-0.15
1.06
0.33
-2.19

>  <PUBCHEM_SHAPE_SELFOVERLAP>  (1) 
769.386

>  <PUBCHEM_SHAPE_VOLUME>  (1) 
212.4

>  <PUBCHEM_COORDINATE_TYPE>  (1) 
2
5
10

$$$$
