3965
     RDKit          3D

 18 19  0  0  1  0  0  0  0  0999 V2000
    4.8111    1.1902    0.9558 O   0  0  0  0  0  0  0  0  0  0  0  0
   -5.4161   -1.2669    0.3225 O   0  0  0  0  0  0  0  0  0  0  0  0
   -3.3575   -1.5844    1.2154 O   0  0  0  0  0  0  0  0  0  0  0  0
    2.8055   -0.0449    0.3686 C   0  0  0  0  0  0  0  0  0  0  0  0
    2.7477   -1.1942   -0.6395 C   0  0  0  0  0  0  0  0  0  0  0  0
    4.0150   -1.9933   -0.3648 C   0  0  0  0  0  0  0  0  0  0  0  0
    5.0904   -0.9362   -0.1472 C   0  0  0  0  0  0  0  0  0  0  0  0
    2.0334    1.1783   -0.0834 C   0  0  0  0  0  0  0  0  0  0  0  0
    4.2987    0.1962    0.4566 C   0  0  0  0  0  0  0  0  0  0  0  0
    0.5541    0.9053   -0.1924 C   0  0  0  0  0  0  0  0  0  0  0  0
    0.0331    0.4485   -1.3933 C   0  0  0  0  0  0  0  0  0  0  0  0
   -0.2599    1.1154    0.9102 C   0  0  0  0  0  0  0  0  0  0  0  0
   -2.1655    0.4028   -0.3928 C   0  0  0  0  0  0  0  0  0  0  0  0
   -1.3350    0.1958   -1.4942 C   0  0  0  0  0  0  0  0  0  0  0  0
   -1.6280    0.8626    0.8094 C   0  0  0  0  0  0  0  0  0  0  0  0
   -3.6282    0.1327   -0.5006 C   0  0  0  0  0  0  0  0  0  0  0  0
   -4.5077    1.3783   -0.2691 C   0  0  0  0  0  0  0  0  0  0  0  0
   -4.0911   -0.9864    0.4389 C   0  0  0  0  0  0  0  0  0  0  0  0
  1  9  2  0
  2 18  1  0
  3 18  2  0
  4  5  1  0
  4  8  1  0
  4  9  1  0
  5  6  1  0
  6  7  1  0
  7  9  1  0
  8 10  1  0
 10 11  2  0
 10 12  1  0
 11 14  1  0
 12 15  2  0
 13 14  2  0
 13 15  1  0
 13 16  1  0
 16 17  1  0
 16 18  1  0
M  END
>  <PUBCHEM_COMPOUND_CID>  (1) 
3965

>  <PUBCHEM_CONFORMER_RMSD>  (1) 
0.6

>  <PUBCHEM_CONFORMER_DIVERSEORDER>  (1) 
1
105
125
61
69
70
78
121
114
64
110
97
86
75
127
71
118
101
115
47
99
54
72
117
34
37
92
85
98
40
116
122
41
19
63
46
87
25
56
38
123
5
59
35
90
126
100
88
91
45
36
80
119
107
73
84
120
83
26
113
21
111
43
11
96
2
57
82
39
103
53
48
106
124
102
16
4
24
13
32
20
65
7
129
12
28
112
62
33
14
104
66
15
23
51
60
94
10
68
6
109
22
79
89
30
58
55
77
74
3
93
67
29
108
31
95
128
17
52
27
44
50
81
18
8
49
42
9
76

>  <PUBCHEM_MMFF94_PARTIAL_CHARGES>  (1) 
20
1 -0.57
10 -0.14
11 -0.15
12 -0.15
13 -0.14
14 -0.15
15 -0.15
16 0.2
18 0.66
2 -0.65
28 0.15
29 0.15
3 -0.57
31 0.15
32 0.15
36 0.5
4 0.06
7 0.06
8 0.14
9 0.45

>  <PUBCHEM_EFFECTIVE_ROTOR_COUNT>  (1) 
4.8

>  <PUBCHEM_PHARMACOPHORE_FEATURES>  (1) 
7
1 1 acceptor
1 17 hydrophobe
1 2 acceptor
1 3 acceptor
3 2 3 18 anion
5 4 5 6 7 9 rings
6 10 11 12 13 14 15 rings

>  <PUBCHEM_HEAVY_ATOM_COUNT>  (1) 
18

>  <PUBCHEM_ATOM_DEF_STEREO_COUNT>  (1) 
0

>  <PUBCHEM_ATOM_UDEF_STEREO_COUNT>  (1) 
2

>  <PUBCHEM_BOND_DEF_STEREO_COUNT>  (1) 
0

>  <PUBCHEM_BOND_UDEF_STEREO_COUNT>  (1) 
0

>  <PUBCHEM_ISOTOPIC_ATOM_COUNT>  (1) 
0

>  <PUBCHEM_COMPONENT_COUNT>  (1) 
1

>  <PUBCHEM_CACTVS_TAUTO_COUNT>  (1) 
3

>  <PUBCHEM_CONFORMER_ID>  (1) 
00000F7D00000001

>  <PUBCHEM_MMFF94_ENERGY>  (1) 
36.5711

>  <PUBCHEM_FEATURE_SELFOVERLAP>  (1) 
35.58

>  <PUBCHEM_SHAPE_FINGERPRINT>  (1) 
106641 1 16773512295535790131
11128504 68 15357706287863792478
11595378 159 15195298486045005539
11796584 16 18187359965629896019
12251169 10 16702017582478488708
124424 183 18273492360786090357
12507560 40 18343300366327614261
12596602 18 16845291691330286107
12670546 177 13190344603657904043
12892183 10 18130787845595778160
13288520 33 18186803582575481279
13583140 156 18202274831869835441
13675066 3 18272082799073067484
14251764 18 18060144250151197833
14251764 38 9871749113227812322
14252887 29 18412826885014801898
14386348 63 18335422365562072018
14911166 2 14490470911166671901
15209294 21 13830142671845140643
15375462 189 17632852027952388120
17844677 252 18341618113563770096
1813 80 17458065962545123468
18785283 64 18119804961781165632
19141452 34 18113901546401230431
192875 21 13912317976245474174
193927 3 17677064541672768507
19862831 5 13190342370169356204
200 152 18343018887018766217
20281475 54 17749104444423730284
20374829 77 17749105573699409846
20432913 95 18343305876738948147
20645477 70 18334575759009872300
21033650 10 16372420147580064668
21079973 296 18113900485222697978
21267235 1 17989211417642769470
21503847 285 13326568584213002714
22485316 2 18186800249264160584
23402539 116 15213012730785657204
23557571 272 17822005372607546396
23559900 14 18409164403003218272
239999 70 18407760335745512826
26918003 58 18412822456581811856
351380 180 10519982664634772534
42 15 18272933799719332004
4325135 7 17676772071695655772
465052 167 18131356331614338327
4921388 177 17023195941506559643
5104073 3 18130504124688548792

>  <PUBCHEM_SHAPE_MULTIPOLES>  (1) 
352.82
11.42
1.63
1.13
0.71
0.44
0.16
3.6
-1.79
0.2
-0.24
-0.37
-0.02
1.12

>  <PUBCHEM_SHAPE_SELFOVERLAP>  (1) 
742.686

>  <PUBCHEM_SHAPE_VOLUME>  (1) 
199.3

>  <PUBCHEM_COORDINATE_TYPE>  (1) 
2
5
10

$$$$
