39668
     RDKit          3D

 22 23  0  0  1  0  0  0  0  0999 V2000
   -0.8890   -2.4850    1.0283 O   0  0  0  0  0  0  0  0  0  0  0  0
    4.4842    0.6467    0.1273 O   0  0  0  0  0  0  0  0  0  0  0  0
    1.2030    3.0334   -0.2860 O   0  0  0  0  0  0  0  0  0  0  0  0
    3.2811    2.7481   -1.1618 O   0  0  0  0  0  0  0  0  0  0  0  0
   -1.7330   -1.0612   -0.7450 C   0  0  0  0  0  0  0  0  0  0  0  0
   -2.6529   -2.2219   -1.1873 C   0  0  0  0  0  0  0  0  0  0  0  0
   -2.5199    0.0861   -0.1351 C   0  0  0  0  0  0  0  0  0  0  0  0
   -0.6631   -1.5777    0.2291 C   0  0  0  0  0  0  0  0  0  0  0  0
    0.7052   -0.9857    0.2024 C   0  0  0  0  0  0  0  0  0  0  0  0
   -1.9025   -3.3579   -1.8720 C   0  0  0  0  0  0  0  0  0  0  0  0
    1.7748   -1.7768    0.5569 C   0  0  0  0  0  0  0  0  0  0  0  0
   -3.0410    1.0578   -0.9671 C   0  0  0  0  0  0  0  0  0  0  0  0
   -2.6925    0.1262    1.2347 C   0  0  0  0  0  0  0  0  0  0  0  0
    0.8481    0.3303   -0.1767 C   0  0  0  0  0  0  0  0  0  0  0  0
    3.0548   -1.2230    0.5309 C   0  0  0  0  0  0  0  0  0  0  0  0
    2.1280    0.8841   -0.2027 C   0  0  0  0  0  0  0  0  0  0  0  0
    3.2314    0.1074    0.1510 C   0  0  0  0  0  0  0  0  0  0  0  0
   -3.7634    2.1114   -0.4069 C   0  0  0  0  0  0  0  0  0  0  0  0
   -3.4150    1.1799    1.7948 C   0  0  0  0  0  0  0  0  0  0  0  0
    4.2236   -2.0706    0.9121 C   0  0  0  0  0  0  0  0  0  0  0  0
   -3.9504    2.1724    0.9739 C   0  0  0  0  0  0  0  0  0  0  0  0
    2.2885    2.2761   -0.6007 C   0  0  0  0  0  0  0  0  0  0  0  0
  1  8  2  0
  2 17  1  0
  3 22  1  0
  4 22  2  0
  5  6  1  0
  5  7  1  0
  5  8  1  0
  6 10  1  0
  7 12  2  0
  7 13  1  0
  8  9  1  0
  9 11  2  0
  9 14  1  0
 11 15  1  0
 12 18  1  0
 13 19  2  0
 14 16  2  0
 15 17  2  0
 15 20  1  0
 16 17  1  0
 16 22  1  0
 18 21  2  0
 19 21  1  0
M  END
>  <PUBCHEM_COMPOUND_CID>  (1) 
39668

>  <PUBCHEM_CONFORMER_RMSD>  (1) 
0.8

>  <PUBCHEM_CONFORMER_DIVERSEORDER>  (1) 
1
22
27
56
33
51
38
58
6
29
16
37
60
54
8
44
59
34
12
26
18
24
50
36
57
21
23
11
9
41
20
55
25
47
13
32
53
42
28
31
48
2
3
30
43
19
10
4
7
14
17
40
52
39
15
45
46
5
35
49

>  <PUBCHEM_MMFF94_PARTIAL_CHARGES>  (1) 
29
1 -0.57
11 -0.15
12 -0.15
13 -0.15
14 -0.15
15 -0.14
16 0.09
17 0.08
18 -0.15
19 -0.15
2 -0.53
20 0.14
21 -0.15
22 0.63
29 0.15
3 -0.65
30 0.15
31 0.15
32 0.15
33 0.15
34 0.15
38 0.15
39 0.45
4 -0.57
40 0.5
5 0.2
7 -0.14
8 0.42
9 0.09

>  <PUBCHEM_EFFECTIVE_ROTOR_COUNT>  (1) 
5

>  <PUBCHEM_PHARMACOPHORE_FEATURES>  (1) 
8
1 1 acceptor
1 10 hydrophobe
1 2 donor
1 3 acceptor
1 4 acceptor
3 3 4 22 anion
6 7 12 13 18 19 21 rings
6 9 11 14 15 16 17 rings

>  <PUBCHEM_HEAVY_ATOM_COUNT>  (1) 
22

>  <PUBCHEM_ATOM_DEF_STEREO_COUNT>  (1) 
0

>  <PUBCHEM_ATOM_UDEF_STEREO_COUNT>  (1) 
1

>  <PUBCHEM_BOND_DEF_STEREO_COUNT>  (1) 
0

>  <PUBCHEM_BOND_UDEF_STEREO_COUNT>  (1) 
0

>  <PUBCHEM_ISOTOPIC_ATOM_COUNT>  (1) 
0

>  <PUBCHEM_COMPONENT_COUNT>  (1) 
1

>  <PUBCHEM_CACTVS_TAUTO_COUNT>  (1) 
11

>  <PUBCHEM_CONFORMER_ID>  (1) 
00009AF400000001

>  <PUBCHEM_MMFF94_ENERGY>  (1) 
68.8238

>  <PUBCHEM_FEATURE_SELFOVERLAP>  (1) 
40.652

>  <PUBCHEM_SHAPE_FINGERPRINT>  (1) 
10366900 7 17168429242723833315
11578080 2 17559379447963847728
11640471 11 18272935981794904977
12403259 327 17387993979702319929
12553582 1 18116424848494551250
12788726 201 18058158600375714767
13140716 1 18409165502430190426
13583140 156 17823137835403706819
14022347 108 17973173833513489218
14178342 30 18268690840472827138
14790565 3 18116724109168295860
15238133 3 17680723526795437748
15442244 35 18409161108836940746
1601671 61 18334580131808910068
17492 89 18339918315800720478
18219364 16 18114460059585175085
192875 21 17903332025502497004
20739085 24 17621617015933600635
21033650 10 16271663182142771865
21041028 32 17176855740672890954
21501502 16 18337951306767266166
21524375 3 18412266108362435163
21864079 5 18261960746767770708
22094290 62 18408324363044616000
22907989 373 17987793159011369287
23184049 59 18264773168504217424
23557571 272 17489586817724857978
23558518 356 18336540624574876355
23598288 3 18200880707129228287
23598291 2 18411697720627190886
2748010 2 17545876032193963718
312423 11 18337394945104110630
350125 39 18409452526652437851
4409770 3 14236608605946873951
469060 322 17684383024084709441
474 4 18197499515763286155
5048184 11 18337117864000477413
5104073 3 18335696135689188442
53777708 50 18339357573554746174
6992083 37 18341044121191103199
70251023 43 17769097083200352086
7164475 11 18199175364357190271
7615 1 18339915030213165406
7832392 63 18410570669753456590
9981440 41 17759790842795136392

>  <PUBCHEM_SHAPE_MULTIPOLES>  (1) 
429.27
7.97
3.66
1.36
2.19
0.37
-0.05
-3.02
-1.34
-0.35
1.41
-0.97
0.32
-2.36

>  <PUBCHEM_SHAPE_SELFOVERLAP>  (1) 
923.136

>  <PUBCHEM_SHAPE_VOLUME>  (1) 
236.7

>  <PUBCHEM_COORDINATE_TYPE>  (1) 
2
5
10

$$$$
