39670
     RDKit          3D

 12 12  0  0  1  0  0  0  0  0999 V2000
    1.3012   -1.2795   -1.0706 F   0  0  0  0  0  0  0  0  0  0  0  0
    1.4539    1.2123   -1.4888 O   0  0  0  0  0  0  0  0  0  0  0  0
    1.7583    1.7579    0.6941 O   0  0  0  0  0  0  0  0  0  0  0  0
   -1.8731    0.4239    1.0925 N   0  0  0  0  0  0  0  0  0  0  0  0
    2.6797   -1.0105    0.7256 N   0  0  0  0  0  0  0  0  0  0  0  0
   -2.8725   -0.0468   -0.8341 N   0  0  0  0  0  0  0  0  0  0  0  0
    0.2445   -0.8841    1.0019 C   0  0  0  0  0  0  0  0  0  0  0  0
    1.4390   -0.5768    0.0883 C   0  0  0  0  0  0  0  0  0  0  0  0
   -1.0745   -0.4220    0.4204 C   0  0  0  0  0  0  0  0  0  0  0  0
    1.5804    0.9098   -0.1711 C   0  0  0  0  0  0  0  0  0  0  0  0
   -1.6750   -0.7118   -0.7490 C   0  0  0  0  0  0  0  0  0  0  0  0
   -2.9617    0.6275    0.2908 C   0  0  0  0  0  0  0  0  0  0  0  0
  1  8  1  0
  2 10  1  0
  3 10  2  0
  4  9  1  0
  4 12  1  0
  5  8  1  0
  6 11  1  0
  6 12  2  0
  7  8  1  0
  7  9  1  0
  8 10  1  0
  9 11  2  0
M  END
>  <PUBCHEM_COMPOUND_CID>  (1) 
39670

>  <PUBCHEM_CONFORMER_RMSD>  (1) 
0.6

>  <PUBCHEM_CONFORMER_DIVERSEORDER>  (1) 
1
26
4
13
24
32
16
11
10
3
20
21
31
28
15
30
7
17
2
12
29
19
22
23
18
25
27
14
9
8
6
5

>  <PUBCHEM_MMFF94_PARTIAL_CHARGES>  (1) 
18
1 -0.34
10 0.66
11 0.08
12 0.04
15 0.27
16 0.15
17 0.36
18 0.36
19 0.15
2 -0.65
20 0.5
3 -0.57
4 0.03
5 -0.99
6 -0.57
7 0.18
8 0.67
9 -0.33

>  <PUBCHEM_EFFECTIVE_ROTOR_COUNT>  (1) 
3

>  <PUBCHEM_PHARMACOPHORE_FEATURES>  (1) 
8
1 2 acceptor
1 3 acceptor
1 4 donor
1 5 cation
1 5 donor
3 2 3 10 anion
3 4 6 12 cation
5 4 6 9 11 12 rings

>  <PUBCHEM_HEAVY_ATOM_COUNT>  (1) 
12

>  <PUBCHEM_ATOM_DEF_STEREO_COUNT>  (1) 
0

>  <PUBCHEM_ATOM_UDEF_STEREO_COUNT>  (1) 
1

>  <PUBCHEM_BOND_DEF_STEREO_COUNT>  (1) 
0

>  <PUBCHEM_BOND_UDEF_STEREO_COUNT>  (1) 
0

>  <PUBCHEM_ISOTOPIC_ATOM_COUNT>  (1) 
0

>  <PUBCHEM_COMPONENT_COUNT>  (1) 
1

>  <PUBCHEM_CACTVS_TAUTO_COUNT>  (1) 
2

>  <PUBCHEM_CONFORMER_ID>  (1) 
00009AF600000001

>  <PUBCHEM_MMFF94_ENERGY>  (1) 
9.4728

>  <PUBCHEM_FEATURE_SELFOVERLAP>  (1) 
40.653

>  <PUBCHEM_SHAPE_FINGERPRINT>  (1) 
10857977 72 15141256437810397307
12897270 3 17774160239851340597
12932764 1 17676209052759208259
15775835 57 18340771532544010365
16945 1 18343022151141254586
19973954 147 17676491661412028245
21130352 189 17749100067757149276
230 275 18040431118096469365
23552423 10 17917993832934339143
3248919 1 18202845444218784755
369184 2 18113898282152290931
5084963 1 18113898294689117611
63268167 104 18408039606623233464

>  <PUBCHEM_SHAPE_MULTIPOLES>  (1) 
213
4.09
1.37
1.18
1.69
0.3
0.15
0.43
-0.01
-0.92
0
-0.02
0.05
-0.2

>  <PUBCHEM_SHAPE_SELFOVERLAP>  (1) 
443.709

>  <PUBCHEM_SHAPE_VOLUME>  (1) 
122.1

>  <PUBCHEM_COORDINATE_TYPE>  (1) 
2
5
10

$$$$
