39678
     RDKit          3D

 25 27  0  0  0  0  0  0  0  0999 V2000
   -1.6103    2.7246    1.0513 S   0  0  0  0  0  0  0  0  0  0  0  0
    1.2550   -1.1623   -0.2153 O   0  0  0  0  0  0  0  0  0  0  0  0
    1.0304    1.5650    0.6250 O   0  0  0  0  0  0  0  0  0  0  0  0
    1.2102    2.2387   -1.5823 O   0  0  0  0  0  0  0  0  0  0  0  0
   -4.8274   -2.0844   -0.2607 O   0  0  0  0  0  0  0  0  0  0  0  0
   -0.6805    2.8591   -0.3835 N   0  0  0  0  0  0  0  0  0  0  0  0
    1.8064   -2.4997   -0.3892 C   0  0  0  0  0  0  0  0  0  0  0  0
    3.3438   -2.3915   -0.5194 C   0  0  0  0  0  0  0  0  0  0  0  0
    3.5488   -1.0125   -0.0220 C   0  0  0  0  0  0  0  0  0  0  0  0
    2.3277   -0.3724    0.1042 C   0  0  0  0  0  0  0  0  0  0  0  0
    1.4004   -3.3328    0.8332 C   0  0  0  0  0  0  0  0  0  0  0  0
    1.1849   -3.0940   -1.6540 C   0  0  0  0  0  0  0  0  0  0  0  0
    4.7300   -0.3481    0.2557 C   0  0  0  0  0  0  0  0  0  0  0  0
    2.2314    0.9454    0.5084 C   0  0  0  0  0  0  0  0  0  0  0  0
    4.6570    0.9827    0.6746 C   0  0  0  0  0  0  0  0  0  0  0  0
    3.4149    1.6259    0.7994 C   0  0  0  0  0  0  0  0  0  0  0  0
    0.5612    2.2298   -0.5364 C   0  0  0  0  0  0  0  0  0  0  0  0
   -1.3000    3.5845   -1.4835 C   0  0  0  0  0  0  0  0  0  0  0  0
   -2.5799    1.2754    0.6550 C   0  0  0  0  0  0  0  0  0  0  0  0
   -2.1017    0.0116    0.9887 C   0  0  0  0  0  0  0  0  0  0  0  0
   -3.8079    1.4183    0.0157 C   0  0  0  0  0  0  0  0  0  0  0  0
   -4.0893   -0.9812    0.0396 C   0  0  0  0  0  0  0  0  0  0  0  0
   -2.8580   -1.1192    0.6803 C   0  0  0  0  0  0  0  0  0  0  0  0
   -4.5643    0.2876   -0.2927 C   0  0  0  0  0  0  0  0  0  0  0  0
   -4.2824   -3.3505    0.1079 C   0  0  0  0  0  0  0  0  0  0  0  0
  1  6  1  0
  1 19  1  0
  2  7  1  0
  2 10  1  0
  3 14  1  0
  3 17  1  0
  4 17  2  0
  5 22  1  0
  5 25  1  0
  6 17  1  0
  6 18  1  0
  7  8  1  0
  7 11  1  0
  7 12  1  0
  8  9  1  0
  9 10  2  0
  9 13  1  0
 10 14  1  0
 13 15  2  0
 14 16  2  0
 15 16  1  0
 19 20  2  0
 19 21  1  0
 20 23  1  0
 21 24  2  0
 22 23  2  0
 22 24  1  0
M  END
>  <PUBCHEM_COMPOUND_CID>  (1) 
39678

>  <PUBCHEM_CONFORMER_RMSD>  (1) 
0.8

>  <PUBCHEM_CONFORMER_DIVERSEORDER>  (1) 
1
365
402
255
38
295
185
291
406
195
322
87
316
441
351
28
149
108
293
156
334
304
206
317
21
245
285
196
303
437
60
294
366
36
342
354
94
133
292
251
373
186
335
264
27
372
184
151
113
434
370
269
88
83
172
44
321
419
332
275
39
404
309
287
220
296
289
246
101
344
253
109
389
305
105
386
202
341
268
248
32
178
382
380
90
176
118
150
208
392
442
100
436
286
80
54
121
433
135
421
191
393
254
438
230
350
56
62
114
78
424
299
96
282
364
440
249
427
325
444
346
409
181
219
362
261
75
158
359
300
338
112
84
260
352
256
384
412
187
401
331
319
237
122
110
244
318
20
198
258
280
148
398
267
265
131
281
137
381
70
435
143
95
288
385
301
74
343
405
66
396
327
241
263
34
48
432
192
394
239
142
126
164
177
408
15
81
5
312
361
30
51
242
320
308
226
272
353
407
379
257
298
16
72
416
138
41
376
374
348
197
14
236
326
211
429
328
193
47
383
339
247
117
161
223
194
209
203
340
276
35
18
182
55
266
227
174
415
85
243
355
125
333
205
439
368
238
391
324
139
155
399
224
356
8
302
13
431
132
165
315
306
284
19
400
152
279
189
314
12
65
99
337
116
270
180
216
64
140
199
107
144
217
89
147
397
358
200
154
307
179
422
277
283
221
171
11
119
357
388
207
45
103
417
146
136
378
145
157
367
9
76
232
360
86
375
369
387
46
93
2
274
330
259
53
25
430
71
115
159
10
33
134
77
160
426
124
23
443
411
311
141
240
26
297
175
273
225
61
418
127
22
413
190
7
228
17
173
212
278
153
229
313
40
336
271
63
215
120
29
43
395
390
204
98
290
233
130
262
52
410
250
329
42
162
201
349
106
425
167
231
371
163
188
97
252
37
414
49
323
91
345
363
213
210
235
169
168
73
420
82
128
104
111
6
59
423
58
57
428
347
129
222
377
166
50
3
4
403
234
24
170
67
68
69
183
214
218
79
92
310
123
31
102

>  <PUBCHEM_MMFF94_PARTIAL_CHARGES>  (1) 
30
1 -0.09
10 0.08
13 -0.15
14 0.08
15 -0.15
16 -0.15
17 0.78
18 0.3
19 0.1
2 -0.36
20 -0.15
21 -0.15
22 0.08
23 -0.15
24 -0.15
25 0.28
3 -0.23
34 0.15
35 0.15
36 0.15
4 -0.57
40 0.15
41 0.15
42 0.15
43 0.15
5 -0.36
6 -0.37
7 0.28
8 0.14
9 -0.14

>  <PUBCHEM_EFFECTIVE_ROTOR_COUNT>  (1) 
6.6

>  <PUBCHEM_PHARMACOPHORE_FEATURES>  (1) 
7
1 2 acceptor
1 4 acceptor
1 5 acceptor
3 7 11 12 hydrophobe
5 2 7 8 9 10 rings
6 19 20 21 22 23 24 rings
6 9 10 13 14 15 16 rings

>  <PUBCHEM_HEAVY_ATOM_COUNT>  (1) 
25

>  <PUBCHEM_ATOM_DEF_STEREO_COUNT>  (1) 
0

>  <PUBCHEM_ATOM_UDEF_STEREO_COUNT>  (1) 
0

>  <PUBCHEM_BOND_DEF_STEREO_COUNT>  (1) 
0

>  <PUBCHEM_BOND_UDEF_STEREO_COUNT>  (1) 
0

>  <PUBCHEM_ISOTOPIC_ATOM_COUNT>  (1) 
0

>  <PUBCHEM_COMPONENT_COUNT>  (1) 
1

>  <PUBCHEM_CACTVS_TAUTO_COUNT>  (1) 
1

>  <PUBCHEM_CONFORMER_ID>  (1) 
00009AFE00000001

>  <PUBCHEM_MMFF94_ENERGY>  (1) 
85.8041

>  <PUBCHEM_FEATURE_SELFOVERLAP>  (1) 
35.622

>  <PUBCHEM_SHAPE_FINGERPRINT>  (1) 
10616163 171 18342177730527072049
11552529 35 18129660794569414505
12553582 1 18189921779955747085
12596599 1 17915759590556706203
12633257 1 17694225465133351728
13122387 1 17762059839694797351
13402501 40 18410009927122964859
13583140 156 17416951868471876936
14223421 5 18267864982548749668
14251757 17 17824522107726753597
14251757 5 17258803424406874198
14790565 3 18266184022939807532
14863182 85 18268440190259595694
15352361 1 18410854395424658945
17093844 170 18335417929008379528
17357779 13 18335410232290082141
19141452 34 18338803295488780065
19591789 44 18341895161072198574
20600515 1 17240491328859897847
20775530 9 18411418419283746291
21197605 99 18053666064146462843
21285901 2 18188201001741277805
21673915 165 18342174462236372840
22113638 7 18051408766715830479
22393880 68 18341336582910512806
23559900 14 18341886372805019464
2871803 45 18337670815364336096
46194498 28 17750507550574230133
463206 1 18126283288676289571
5309563 4 18269556216527508043
57527585 103 17678767676483658723
6433294 58 17977945687617109978
9709674 26 18197782102572134307

>  <PUBCHEM_SHAPE_MULTIPOLES>  (1) 
489.88
9.48
4.71
1.16
2.75
1.04
-0.3
3.71
1.03
1.53
-1.13
-0.1
-0.32
0.76

>  <PUBCHEM_SHAPE_SELFOVERLAP>  (1) 
1036.06

>  <PUBCHEM_SHAPE_VOLUME>  (1) 
279.5

>  <PUBCHEM_COORDINATE_TYPE>  (1) 
2
5
10

$$$$
