39676
     RDKit          3D

 18 19  0  0  1  0  0  0  0  0999 V2000
    3.9853   -2.5247   -0.6000 Cl  0  0  0  0  0  0  0  0  0  0  0  0
    3.7335    2.8038    0.2195 Cl  0  0  0  0  0  0  0  0  0  0  0  0
   -2.5389   -0.9643    0.6165 O   0  0  0  0  0  0  0  0  0  0  0  0
   -1.1783    1.9714   -0.6568 O   0  0  0  0  0  0  0  0  0  0  0  0
   -0.7697   -2.2829    1.0887 O   0  0  0  0  0  0  0  0  0  0  0  0
   -0.5051   -0.1258    0.1933 N   0  0  0  0  0  0  0  0  0  0  0  0
   -2.7742    0.3785    0.1881 C   0  0  0  0  0  0  0  0  0  0  0  0
   -1.3896    0.8793   -0.1470 C   0  0  0  0  0  0  0  0  0  0  0  0
   -3.3880    1.1732    1.3311 C   0  0  0  0  0  0  0  0  0  0  0  0
   -1.1945   -1.2198    0.6571 C   0  0  0  0  0  0  0  0  0  0  0  0
    0.9182   -0.0393    0.0683 C   0  0  0  0  0  0  0  0  0  0  0  0
   -3.6310    0.3688   -1.0326 C   0  0  0  0  0  0  0  0  0  0  0  0
    1.5603    1.1959    0.1903 C   0  0  0  0  0  0  0  0  0  0  0  0
    1.6731   -1.1896   -0.1761 C   0  0  0  0  0  0  0  0  0  0  0  0
    3.0601   -1.1052   -0.2979 C   0  0  0  0  0  0  0  0  0  0  0  0
    2.9472    1.2802    0.0684 C   0  0  0  0  0  0  0  0  0  0  0  0
   -4.2056   -0.7292   -1.5351 C   0  0  0  0  0  0  0  0  0  0  0  0
    3.6971    0.1296   -0.1758 C   0  0  0  0  0  0  0  0  0  0  0  0
  1 15  1  0
  2 16  1  0
  3  7  1  0
  3 10  1  0
  4  8  2  0
  5 10  2  0
  6  8  1  0
  6 10  1  0
  6 11  1  0
  7  8  1  0
  7  9  1  0
  7 12  1  0
 11 13  2  0
 11 14  1  0
 12 17  2  0
 13 16  1  0
 14 15  2  0
 15 18  1  0
 16 18  2  0
M  END
>  <PUBCHEM_COMPOUND_CID>  (1) 
39676

>  <PUBCHEM_CONFORMER_RMSD>  (1) 
0.6

>  <PUBCHEM_CONFORMER_DIVERSEORDER>  (1) 
1
2
5
4
6
3

>  <PUBCHEM_MMFF94_PARTIAL_CHARGES>  (1) 
23
1 -0.18
10 0.78
11 0.12
12 -0.29
13 -0.15
14 -0.15
15 0.18
16 0.18
17 -0.3
18 -0.15
2 -0.18
22 0.15
23 0.15
24 0.15
25 0.15
26 0.15
27 0.15
3 -0.43
4 -0.57
5 -0.57
6 -0.24
7 0.48
8 0.57

>  <PUBCHEM_EFFECTIVE_ROTOR_COUNT>  (1) 
2.6

>  <PUBCHEM_PHARMACOPHORE_FEATURES>  (1) 
5
1 17 hydrophobe
1 4 acceptor
1 5 acceptor
5 3 6 7 8 10 rings
6 11 13 14 15 16 18 rings

>  <PUBCHEM_HEAVY_ATOM_COUNT>  (1) 
18

>  <PUBCHEM_ATOM_DEF_STEREO_COUNT>  (1) 
0

>  <PUBCHEM_ATOM_UDEF_STEREO_COUNT>  (1) 
1

>  <PUBCHEM_BOND_DEF_STEREO_COUNT>  (1) 
0

>  <PUBCHEM_BOND_UDEF_STEREO_COUNT>  (1) 
0

>  <PUBCHEM_ISOTOPIC_ATOM_COUNT>  (1) 
0

>  <PUBCHEM_COMPONENT_COUNT>  (1) 
1

>  <PUBCHEM_CACTVS_TAUTO_COUNT>  (1) 
1

>  <PUBCHEM_CONFORMER_ID>  (1) 
00009AFC00000001

>  <PUBCHEM_MMFF94_ENERGY>  (1) 
45.2089

>  <PUBCHEM_FEATURE_SELFOVERLAP>  (1) 
25.371

>  <PUBCHEM_SHAPE_FINGERPRINT>  (1) 
10062212 137 17917146092162749951
10366900 7 18270679887088107960
10608611 8 18408604781623071000
11132069 177 18042400399425533964
11471102 20 18411699881385825276
11543360 7 17274822505700654005
12403259 415 18040715849075076613
12916754 54 18343298145992805927
13140716 1 18334866025500087682
13296908 3 17676212380978918041
13380535 76 18337103570517471778
13583140 156 16081080528290969113
14250199 8 18411981338581345045
14289901 80 17988641921320431984
15219456 202 18336833086372562672
15375358 24 18261385715060861140
15442244 35 18198350554816752240
15848702 151 18058450915385195527
16945 1 18261391083643270395
18186145 218 18187368696643962491
19026448 5 17703792509301828161
19422 9 17988923353569035197
200 152 17988917868911602975
20279233 1 18260264178845903608
20281475 54 18202843240578600743
20528008 55 18334290997998155876
20645477 56 18113619027241272485
20645477 70 18411415111884647942
21069387 34 18131352968845024958
21486144 27 18334575758814732676
21501502 16 18273218586015614009
22096605 113 18271521004755862600
221490 88 18410581699398453174
22182313 1 18187936143565572235
23402539 116 18337947892130985980
23402655 69 18342735183033462205
23493267 7 16226335802734957345
23557571 272 17749677405698050782
23559900 14 18409727366231619754
2748010 2 18189346816841571010
312423 11 18131359600057862133
3286 77 17417515965127921777
4028521 119 18187356640908048757
5104073 3 18409173216022617112
633830 44 18337105679483486221
69090 78 18411132545769953095
7364860 26 18413392034271125032
81228 2 17679881576035773507
8809292 202 18262249832642937778
9709674 26 18411140242525466318
9971528 1 18200591385574061690
9981440 41 17911504704238307200

>  <PUBCHEM_SHAPE_MULTIPOLES>  (1) 
351.58
8.19
2.53
1.05
0.36
0.18
0.04
0.03
1.75
-3.03
-0.11
1.19
-0.16
0.13

>  <PUBCHEM_SHAPE_SELFOVERLAP>  (1) 
739.407

>  <PUBCHEM_SHAPE_VOLUME>  (1) 
202

>  <PUBCHEM_COORDINATE_TYPE>  (1) 
2
5
10

$$$$
