39677
     RDKit          3D

 13 14  0  0  0  0  0  0  0  0999 V2000
   -0.1107    0.7982    0.0002 N   0  0  0  0  0  0  0  0  0  0  0  0
   -2.3220    0.6195    0.0002 N   0  0  0  0  0  0  0  0  0  0  0  0
    1.1366    1.3180    0.0000 N   0  0  0  0  0  0  0  0  0  0  0  0
    1.9232   -0.9549   -0.0001 N   0  0  0  0  0  0  0  0  0  0  0  0
   -1.3236    2.8122   -0.0002 N   0  0  0  0  0  0  0  0  0  0  0  0
    3.4137    0.8777    0.0000 N   0  0  0  0  0  0  0  0  0  0  0  0
   -0.3829   -0.5373    0.0002 C   0  0  0  0  0  0  0  0  0  0  0  0
   -1.7519   -0.6323    0.0000 C   0  0  0  0  0  0  0  0  0  0  0  0
    0.7182   -1.4386    0.0002 C   0  0  0  0  0  0  0  0  0  0  0  0
   -1.3068    1.4585    0.0000 C   0  0  0  0  0  0  0  0  0  0  0  0
   -2.6069   -1.8295   -0.0003 C   0  0  0  0  0  0  0  0  0  0  0  0
    0.5003   -2.9221   -0.0001 C   0  0  0  0  0  0  0  0  0  0  0  0
    2.1128    0.4306   -0.0002 C   0  0  0  0  0  0  0  0  0  0  0  0
  1  3  1  0
  1  7  1  0
  1 10  1  0
  2  8  1  0
  2 10  2  0
  3 13  2  0
  4  9  2  0
  4 13  1  0
  5 10  1  0
  6 13  1  0
  7  8  2  0
  7  9  1  0
  8 11  1  0
  9 12  1  0
M  END
>  <PUBCHEM_COMPOUND_CID>  (1) 
39677

>  <PUBCHEM_CONFORMER_RMSD>  (1) 
0.4

>  <PUBCHEM_CONFORMER_DIVERSEORDER>  (1) 
1

>  <PUBCHEM_MMFF94_PARTIAL_CHARGES>  (1) 
17
1 0.51
10 0.27
11 0.18
12 0.06
13 0.71
2 -0.57
20 0.4
21 0.4
22 0.4
23 0.4
3 -0.65
4 -0.66
5 -0.88
6 -0.85
7 -0.24
8 0.05
9 0.47

>  <PUBCHEM_EFFECTIVE_ROTOR_COUNT>  (1) 
0

>  <PUBCHEM_PHARMACOPHORE_FEATURES>  (1) 
7
1 4 acceptor
1 5 donor
1 6 donor
4 1 2 5 10 cation
4 3 4 6 13 cation
5 1 2 7 8 10 rings
6 1 3 4 7 9 13 rings

>  <PUBCHEM_HEAVY_ATOM_COUNT>  (1) 
13

>  <PUBCHEM_ATOM_DEF_STEREO_COUNT>  (1) 
0

>  <PUBCHEM_ATOM_UDEF_STEREO_COUNT>  (1) 
0

>  <PUBCHEM_BOND_DEF_STEREO_COUNT>  (1) 
0

>  <PUBCHEM_BOND_UDEF_STEREO_COUNT>  (1) 
0

>  <PUBCHEM_ISOTOPIC_ATOM_COUNT>  (1) 
0

>  <PUBCHEM_COMPONENT_COUNT>  (1) 
1

>  <PUBCHEM_CACTVS_TAUTO_COUNT>  (1) 
7

>  <PUBCHEM_CONFORMER_ID>  (1) 
00009AFD00000001

>  <PUBCHEM_MMFF94_ENERGY>  (1) 
30.1688

>  <PUBCHEM_FEATURE_SELFOVERLAP>  (1) 
35.636

>  <PUBCHEM_SHAPE_FINGERPRINT>  (1) 
108231 29 18125724736209664817
10967382 1 18338797801808207687
12423570 1 13216751986601774071
12524768 44 18119250558395100431
12897270 3 18411417319202133551
13380535 21 18267881483575646049
13380535 76 18265605498890761807
14614273 12 18260820467241862645
14648413 74 17977669705919038018
16945 1 18266742381007920263
193761 8 18194682570761768231
19973954 147 18266741272795549127
20510252 161 18271245023174368160
20511035 2 17768509621878751414
20871998 184 18272373130272173775
21040471 1 18122624946537645989
21501502 16 18266456507884445771
2334 1 18266459991261204327
23402539 116 18127401465825486142
23552423 10 18264491671994771390
23559900 14 17911528597938381870
241688 4 18196368349699115467
2748010 2 18338795748877111335
43471831 8 18335698343260498138
5084963 1 18130511928327678730
528886 8 18411412955689505627
7364860 26 18053942853545364390

>  <PUBCHEM_SHAPE_MULTIPOLES>  (1) 
237.65
3.61
2.84
0.58
1.38
0.26
0
-0.23
0
-0.81
0
-0.02
0.04
0

>  <PUBCHEM_SHAPE_SELFOVERLAP>  (1) 
514.525

>  <PUBCHEM_SHAPE_VOLUME>  (1) 
128.1

>  <PUBCHEM_COORDINATE_TYPE>  (1) 
2
5
10

$$$$
