39683
     RDKit          3D

 19 20  0  0  0  0  0  0  0  0999 V2000
   -2.8157   -0.3971    0.3292 O   0  0  0  0  0  0  0  0  0  0  0  0
   -3.3977    1.8071    0.4142 O   0  0  0  0  0  0  0  0  0  0  0  0
    0.3569    2.9745   -0.3776 O   0  0  0  0  0  0  0  0  0  0  0  0
   -1.7442    3.4729    0.0561 O   0  0  0  0  0  0  0  0  0  0  0  0
    1.1784    0.7310   -0.5237 N   0  0  0  0  0  0  0  0  0  0  0  0
   -0.8170    2.6772   -0.1296 N   0  0  0  0  0  0  0  0  0  0  0  0
    2.2675   -0.1829   -0.3205 C   0  0  0  0  0  0  0  0  0  0  0  0
    3.5394    0.5802    0.0457 C   0  0  0  0  0  0  0  0  0  0  0  0
   -0.1271    0.4147   -0.2494 C   0  0  0  0  0  0  0  0  0  0  0  0
    4.7075   -0.3765    0.2875 C   0  0  0  0  0  0  0  0  0  0  0  0
   -0.4946   -1.0223   -0.1585 C   0  0  0  0  0  0  0  0  0  0  0  0
   -1.1304    1.2860   -0.0494 C   0  0  0  0  0  0  0  0  0  0  0  0
   -1.8190   -1.3730    0.1278 C   0  0  0  0  0  0  0  0  0  0  0  0
    0.4112   -2.0804   -0.3450 C   0  0  0  0  0  0  0  0  0  0  0  0
    5.9859    0.3770    0.6179 C   0  0  0  0  0  0  0  0  0  0  0  0
   -2.5322    0.9558    0.2473 C   0  0  0  0  0  0  0  0  0  0  0  0
   -2.2435   -2.7013    0.2309 C   0  0  0  0  0  0  0  0  0  0  0  0
    0.0001   -3.4164   -0.2455 C   0  0  0  0  0  0  0  0  0  0  0  0
   -1.3255   -3.7265    0.0425 C   0  0  0  0  0  0  0  0  0  0  0  0
  1 13  1  0
  1 16  1  0
  2 16  2  0
  3  6  1  0
  4  6  2  0
  5  7  1  0
  5  9  1  0
  6 12  1  0
  7  8  1  0
  8 10  1  0
  9 11  1  0
  9 12  2  0
 10 15  1  0
 11 13  2  0
 11 14  1  0
 12 16  1  0
 13 17  1  0
 14 18  2  0
 17 19  2  0
 18 19  1  0
M  CHG  2   3  -1   6   1
M  END
>  <PUBCHEM_COMPOUND_CID>  (1) 
39683

>  <PUBCHEM_CONFORMER_RMSD>  (1) 
0.6

>  <PUBCHEM_CONFORMER_DIVERSEORDER>  (1) 
1
4
2
3

>  <PUBCHEM_MMFF94_PARTIAL_CHARGES>  (1) 
21
1 -0.23
11 0.03
12 0.22
13 0.08
14 -0.15
16 0.71
17 -0.15
18 -0.15
19 -0.15
2 -0.57
24 0.4
27 0.15
3 -0.52
31 0.15
32 0.15
33 0.15
4 -0.52
5 -0.87
6 0.84
7 0.37
9 0.07

>  <PUBCHEM_EFFECTIVE_ROTOR_COUNT>  (1) 
5

>  <PUBCHEM_PHARMACOPHORE_FEATURES>  (1) 
9
1 15 hydrophobe
1 2 acceptor
1 3 acceptor
1 3 anion
1 4 acceptor
1 5 cation
1 5 donor
6 1 9 11 12 13 16 rings
6 11 13 14 17 18 19 rings

>  <PUBCHEM_HEAVY_ATOM_COUNT>  (1) 
19

>  <PUBCHEM_ATOM_DEF_STEREO_COUNT>  (1) 
0

>  <PUBCHEM_ATOM_UDEF_STEREO_COUNT>  (1) 
0

>  <PUBCHEM_BOND_DEF_STEREO_COUNT>  (1) 
0

>  <PUBCHEM_BOND_UDEF_STEREO_COUNT>  (1) 
0

>  <PUBCHEM_ISOTOPIC_ATOM_COUNT>  (1) 
0

>  <PUBCHEM_COMPONENT_COUNT>  (1) 
1

>  <PUBCHEM_CACTVS_TAUTO_COUNT>  (1) 
2

>  <PUBCHEM_CONFORMER_ID>  (1) 
00009B0300000001

>  <PUBCHEM_MMFF94_ENERGY>  (1) 
89.2373

>  <PUBCHEM_FEATURE_SELFOVERLAP>  (1) 
45.811

>  <PUBCHEM_SHAPE_FINGERPRINT>  (1) 
10319926 262 18270099294273581650
10411042 1 17978510063621544998
10493431 412 18342185414629993625
10616163 171 18410293657770382670
10967382 1 18121789326749309375
1100329 8 18266180715640162683
12173636 292 18338794503637412548
12553582 1 17978242873842821358
13140716 1 18267031724565372457
138480 1 16825589186005459566
14420673 8 18193554459992026922
14790565 3 18338813207825237337
14844126 61 18336258054929898042
15042514 8 18336833081903950778
15230672 131 18048322146828019726
16945 1 18195263306517744743
193761 8 17834684073110058949
19591789 44 18050293557320464038
20510252 161 18271527494435687856
21650355 55 18338794636575527128
23184049 29 18050573146547646678
2334 1 18050860106440388757
23402539 116 18271517701910473967
23419403 2 17415259905139241259
23557571 272 18200610193262147108
23559900 14 18270982150281057814
23728640 28 18409448106999513938
257057 1 17907294712485090359
266924 87 18049428254681186421
2748010 2 18193861261799356071
3071541 12 17475234596105057039
3091708 16 9272901183327429378
335352 9 18338235002706604591
352729 6 18410303509585998813
43471831 8 18192153685327650610
54173680 148 18338237192685880718
58807428 26 18266189343833893219
7364860 26 17546730348380809847
81228 2 18269287913587837538
90316 7 18338237192801970842
9709674 26 18343586235731225734
9981440 41 18192428571956567569

>  <PUBCHEM_SHAPE_MULTIPOLES>  (1) 
357.57
7.01
4.38
0.67
14.84
0.24
-0.01
-0.19
-1.88
-4.22
0.17
0.13
0.04
-0.12

>  <PUBCHEM_SHAPE_SELFOVERLAP>  (1) 
762.306

>  <PUBCHEM_SHAPE_VOLUME>  (1) 
197.1

>  <PUBCHEM_COORDINATE_TYPE>  (1) 
2
5
10

$$$$
