39686
     RDKit          3D

 19 20  0  0  0  0  0  0  0  0999 V2000
    0.8505   -2.3187    0.0950 O   0  0  0  0  0  0  0  0  0  0  0  0
   -1.2445   -3.2195    0.1590 O   0  0  0  0  0  0  0  0  0  0  0  0
   -2.9577    0.4069    0.1261 O   0  0  0  0  0  0  0  0  0  0  0  0
   -3.1383   -1.7875    0.1816 O   0  0  0  0  0  0  0  0  0  0  0  0
   -0.8603    1.5573    0.0450 N   0  0  0  0  0  0  0  0  0  0  0  0
   -2.4891   -0.7367    0.1396 N   0  0  0  0  0  0  0  0  0  0  0  0
   -0.3533    0.2836    0.0591 C   0  0  0  0  0  0  0  0  0  0  0  0
   -1.1048    2.2843    1.2801 C   0  0  0  0  0  0  0  0  0  0  0  0
   -0.9410    2.3233   -1.1882 C   0  0  0  0  0  0  0  0  0  0  0  0
    1.1230    0.1178    0.0223 C   0  0  0  0  0  0  0  0  0  0  0  0
   -1.0660   -0.8547    0.1041 C   0  0  0  0  0  0  0  0  0  0  0  0
    1.6674   -1.1714    0.0433 C   0  0  0  0  0  0  0  0  0  0  0  0
   -0.2661    3.5474    1.3176 C   0  0  0  0  0  0  0  0  0  0  0  0
   -1.1076    1.3905   -2.3725 C   0  0  0  0  0  0  0  0  0  0  0  0
    2.0345    1.1858   -0.0352 C   0  0  0  0  0  0  0  0  0  0  0  0
   -0.5307   -2.2241    0.1217 C   0  0  0  0  0  0  0  0  0  0  0  0
    3.0447   -1.4107    0.0122 C   0  0  0  0  0  0  0  0  0  0  0  0
    3.4174    0.9615   -0.0675 C   0  0  0  0  0  0  0  0  0  0  0  0
    3.9219   -0.3352   -0.0435 C   0  0  0  0  0  0  0  0  0  0  0  0
  1 12  1  0
  1 16  1  0
  2 16  2  0
  3  6  1  0
  4  6  2  0
  5  7  1  0
  5  8  1  0
  5  9  1  0
  6 11  1  0
  7 10  1  0
  7 11  2  0
  8 13  1  0
  9 14  1  0
 10 12  2  0
 10 15  1  0
 11 16  1  0
 12 17  1  0
 15 18  2  0
 17 19  2  0
 18 19  1  0
M  CHG  2   3  -1   6   1
M  END
>  <PUBCHEM_COMPOUND_CID>  (1) 
39686

>  <PUBCHEM_CONFORMER_RMSD>  (1) 
0.6

>  <PUBCHEM_CONFORMER_DIVERSEORDER>  (1) 
1
2
3

>  <PUBCHEM_MMFF94_PARTIAL_CHARGES>  (1) 
21
1 -0.23
10 0.03
11 0.22
12 0.08
15 -0.15
16 0.71
17 -0.15
18 -0.15
19 -0.15
2 -0.57
3 -0.52
30 0.15
31 0.15
32 0.15
33 0.15
4 -0.52
5 -0.84
6 0.84
7 0.07
8 0.37
9 0.37

>  <PUBCHEM_EFFECTIVE_ROTOR_COUNT>  (1) 
4

>  <PUBCHEM_PHARMACOPHORE_FEATURES>  (1) 
7
1 2 acceptor
1 3 acceptor
1 3 anion
1 4 acceptor
1 5 cation
6 1 7 10 11 12 16 rings
6 10 12 15 17 18 19 rings

>  <PUBCHEM_HEAVY_ATOM_COUNT>  (1) 
19

>  <PUBCHEM_ATOM_DEF_STEREO_COUNT>  (1) 
0

>  <PUBCHEM_ATOM_UDEF_STEREO_COUNT>  (1) 
0

>  <PUBCHEM_BOND_DEF_STEREO_COUNT>  (1) 
0

>  <PUBCHEM_BOND_UDEF_STEREO_COUNT>  (1) 
0

>  <PUBCHEM_ISOTOPIC_ATOM_COUNT>  (1) 
0

>  <PUBCHEM_COMPONENT_COUNT>  (1) 
1

>  <PUBCHEM_CACTVS_TAUTO_COUNT>  (1) 
1

>  <PUBCHEM_CONFORMER_ID>  (1) 
00009B0600000001

>  <PUBCHEM_MMFF94_ENERGY>  (1) 
87.3987

>  <PUBCHEM_FEATURE_SELFOVERLAP>  (1) 
35.662

>  <PUBCHEM_SHAPE_FINGERPRINT>  (1) 
108231 29 18269274719405820617
10967382 1 18267305515771678874
11132069 177 18339356478496113962
12173636 292 18198063569318087156
13027679 85 18196938983417776257
13132413 78 17977111480392751708
13140716 1 18338238283803227386
14178342 30 17835795305603450394
14614273 12 18115868490650582829
14817 1 16018526051911779613
15490181 8 17764863594049850234
15906896 17 17700691757668242941
16945 1 18052536861445770451
17357779 13 18118379951729636583
18219364 16 17684935700254805540
193761 8 17907019478095912747
19591789 44 16683742290739595386
20510252 161 18341894069765526792
20511035 2 17328592129087341391
21029758 11 18270676601458790243
21029758 27 17970076740763914487
21160774 45 18335133193966829542
2334 1 18050007993503284426
23402539 116 18342731940348938990
23419403 2 17546129340754003100
23557571 272 18269567173041574540
23559900 14 18342739659291308584
238 59 16743369961269616941
2748010 2 18409167705527029287
350125 39 18193565458568866986
353137 74 18335133176850354602
7364860 26 17477489071672967779
81228 2 18334871523300741362
8272917 22 16828692012309839433

>  <PUBCHEM_SHAPE_MULTIPOLES>  (1) 
357.57
4.59
3.59
1.19
3.52
0.09
0.62
0.44
0.05
-1.85
-0.95
-0.77
-1.06
0.05

>  <PUBCHEM_SHAPE_SELFOVERLAP>  (1) 
768.051

>  <PUBCHEM_SHAPE_VOLUME>  (1) 
196.5

>  <PUBCHEM_COORDINATE_TYPE>  (1) 
2
5
10

$$$$
