39699
     RDKit          3D

 25 27  0  0  0  0  0  0  0  0999 V2000
   -3.4629   -3.9127   -0.2379 Br  0  0  0  0  0  0  0  0  0  0  0  0
   -3.6851    2.5509   -0.2149 S   0  0  0  0  0  0  0  0  0  0  0  0
    1.6509   -1.0899    0.1599 O   0  0  0  0  0  0  0  0  0  0  0  0
    1.0300    1.6333    0.7872 O   0  0  0  0  0  0  0  0  0  0  0  0
    0.6843    2.0405   -1.4749 O   0  0  0  0  0  0  0  0  0  0  0  0
   -1.0010    2.4345    0.0707 N   0  0  0  0  0  0  0  0  0  0  0  0
    2.4221   -2.3156   -0.0006 C   0  0  0  0  0  0  0  0  0  0  0  0
    3.8594   -1.9463   -0.4365 C   0  0  0  0  0  0  0  0  0  0  0  0
    3.8652   -0.5024   -0.1105 C   0  0  0  0  0  0  0  0  0  0  0  0
    2.5809   -0.0847    0.1946 C   0  0  0  0  0  0  0  0  0  0  0  0
    2.4117   -3.0516    1.3452 C   0  0  0  0  0  0  0  0  0  0  0  0
    1.7230   -3.1644   -1.0637 C   0  0  0  0  0  0  0  0  0  0  0  0
    4.9177    0.3950   -0.1270 C   0  0  0  0  0  0  0  0  0  0  0  0
    2.2925    1.2331    0.4934 C   0  0  0  0  0  0  0  0  0  0  0  0
    4.6517    1.7317    0.1806 C   0  0  0  0  0  0  0  0  0  0  0  0
    3.3464    2.1484    0.4882 C   0  0  0  0  0  0  0  0  0  0  0  0
    0.2641    2.0465   -0.3216 C   0  0  0  0  0  0  0  0  0  0  0  0
   -2.0165    2.9092   -0.8474 C   0  0  0  0  0  0  0  0  0  0  0  0
   -3.6316    0.7647   -0.1834 C   0  0  0  0  0  0  0  0  0  0  0  0
   -3.8049    0.0460    1.0002 C   0  0  0  0  0  0  0  0  0  0  0  0
   -3.4080    0.0875   -1.3827 C   0  0  0  0  0  0  0  0  0  0  0  0
   -3.7547   -1.3479    0.9842 C   0  0  0  0  0  0  0  0  0  0  0  0
   -4.0461    0.7250    2.3106 C   0  0  0  0  0  0  0  0  0  0  0  0
   -3.3579   -1.3064   -1.3986 C   0  0  0  0  0  0  0  0  0  0  0  0
   -3.5313   -2.0241   -0.2151 C   0  0  0  0  0  0  0  0  0  0  0  0
  1 25  1  0
  2 18  1  0
  2 19  1  0
  3  7  1  0
  3 10  1  0
  4 14  1  0
  4 17  1  0
  5 17  2  0
  6 17  1  0
  6 18  1  0
  7  8  1  0
  7 11  1  0
  7 12  1  0
  8  9  1  0
  9 10  2  0
  9 13  1  0
 10 14  1  0
 13 15  2  0
 14 16  2  0
 15 16  1  0
 19 20  2  0
 19 21  1  0
 20 22  1  0
 20 23  1  0
 21 24  2  0
 22 25  2  0
 24 25  1  0
M  END
>  <PUBCHEM_COMPOUND_CID>  (1) 
39699

>  <PUBCHEM_CONFORMER_RMSD>  (1) 
1

>  <PUBCHEM_CONFORMER_DIVERSEORDER>  (1) 
2
273
300
153
233
116
224
267
53
52
197
195
157
248
311
94
30
16
269
202
102
175
23
254
156
301
284
63
129
306
73
299
24
123
265
191
231
33
212
249
133
124
87
307
315
130
304
83
228
131
258
7
154
247
183
146
217
172
279
308
200
278
50
119
243
141
85
89
178
180
148
9
286
113
208
41
232
95
152
226
255
251
160
26
93
97
48
302
163
144
86
62
222
75
323
27
71
211
65
220
310
40
305
111
260
44
92
107
118
170
272
140
78
313
6
303
122
96
294
215
309
165
189
283
198
158
60
193
5
318
59
223
218
184
143
326
164
176
10
296
274
171
103
47
190
239
66
125
20
100
149
49
105
281
199
39
127
82
287
275
253
321
11
285
240
320
21
61
230
142
270
167
277
79
108
188
81
43
225
166
291
192
114
147
159
22
325
25
292
126
242
72
235
36
259
117
136
194
18
17
312
324
261
213
185
297
74
55
206
70
145
204
244
38
101
205
69
135
8
91
76
252
319
56
203
19
32
317
58
241
181
29
28
161
37
110
271
282
316
238
236
280
216
54
262
214
35
139
150
196
237
98
298
210
15
45
264
67
207
182
155
179
173
268
90
169
99
257
120
88
128
80
104
177
187
1
295
51
288
109
227
77
115
186
31
46
293
68
174
290
168
132
221
289
64
121
12
3
137
4
246
13
151
256
229
322
276
14
219
266
201
134
84
314
34
234
250
42
209
263
162
245
112
106
57
138

>  <PUBCHEM_MMFF94_PARTIAL_CHARGES>  (1) 
30
1 -0.11
10 0.08
13 -0.15
14 0.08
15 -0.15
16 -0.15
17 0.78
18 0.53
19 0.1
2 -0.33
20 -0.14
21 -0.15
22 -0.15
23 0.14
24 -0.15
25 0.11
3 -0.36
34 0.15
35 0.15
36 0.15
37 0.37
4 -0.23
40 0.15
41 0.15
45 0.15
5 -0.57
6 -0.73
7 0.28
8 0.14
9 -0.14

>  <PUBCHEM_EFFECTIVE_ROTOR_COUNT>  (1) 
6.6

>  <PUBCHEM_PHARMACOPHORE_FEATURES>  (1) 
8
1 1 hydrophobe
1 3 acceptor
1 5 acceptor
1 6 donor
3 7 11 12 hydrophobe
5 3 7 8 9 10 rings
6 19 20 21 22 24 25 rings
6 9 10 13 14 15 16 rings

>  <PUBCHEM_HEAVY_ATOM_COUNT>  (1) 
25

>  <PUBCHEM_ATOM_DEF_STEREO_COUNT>  (1) 
0

>  <PUBCHEM_ATOM_UDEF_STEREO_COUNT>  (1) 
0

>  <PUBCHEM_BOND_DEF_STEREO_COUNT>  (1) 
0

>  <PUBCHEM_BOND_UDEF_STEREO_COUNT>  (1) 
0

>  <PUBCHEM_ISOTOPIC_ATOM_COUNT>  (1) 
0

>  <PUBCHEM_COMPONENT_COUNT>  (1) 
1

>  <PUBCHEM_CACTVS_TAUTO_COUNT>  (1) 
2

>  <PUBCHEM_CONFORMER_ID>  (1) 
00009B1300000002

>  <PUBCHEM_MMFF94_ENERGY>  (1) 
71.9754

>  <PUBCHEM_FEATURE_SELFOVERLAP>  (1) 
40.696

>  <PUBCHEM_SHAPE_FINGERPRINT>  (1) 
10074138 170 17043408478804230576
10616163 171 18411978061579353077
10675989 125 15957504904996843636
107951 10 17243585187968551297
11014199 57 18122067773721854991
11370993 144 17988089889459135849
11488393 25 17701553814098573846
11552529 35 17917709149622170537
12422481 6 18267280098756634466
12539773 59 17775559819923497023
12633257 1 18128537063810654803
12788726 201 17130993036451801953
13122387 1 15384995758559844135
13224815 77 18260544502581468409
13402501 40 18189618409420430115
13583140 156 17988632034538630641
13989917 61 17328302957973458691
14617045 38 18410300172765947621
14790565 3 18194404618291788892
15537594 2 18339939146317310980
21315759 227 17241058698603614603
21673915 165 18340766035085909876
221490 88 18338518522045088460
22393880 68 18412546492306728350
23559900 14 18338509738695290456
3737641 26 18340497689924443414
4403749 210 18195217097302795704
463206 1 17905604759367260295
5309563 4 18049719913193991671
6433294 58 18193837046446667498
9709674 26 18337950073958820780

>  <PUBCHEM_SHAPE_MULTIPOLES>  (1) 
501.69
10.71
4.59
1.35
1.74
2.37
-0.32
0.94
-1.05
-1.34
0.55
-1.37
0.04
-0.06

>  <PUBCHEM_SHAPE_SELFOVERLAP>  (1) 
1045.907

>  <PUBCHEM_SHAPE_VOLUME>  (1) 
294.2

>  <PUBCHEM_COORDINATE_TYPE>  (1) 
2
5
10

$$$$
