39697
     RDKit          3D

 24 26  0  0  0  0  0  0  0  0999 V2000
    3.7248   -3.6523   -0.0061 Cl  0  0  0  0  0  0  0  0  0  0  0  0
    3.8060    2.6394   -0.0980 S   0  0  0  0  0  0  0  0  0  0  0  0
   -1.4746   -1.0999   -0.1481 O   0  0  0  0  0  0  0  0  0  0  0  0
   -0.9274    1.6119   -0.8840 O   0  0  0  0  0  0  0  0  0  0  0  0
   -0.5013    2.0968    1.3488 O   0  0  0  0  0  0  0  0  0  0  0  0
    1.1152    2.4693   -0.2736 N   0  0  0  0  0  0  0  0  0  0  0  0
   -2.2169   -2.3326    0.0810 C   0  0  0  0  0  0  0  0  0  0  0  0
   -3.6425   -1.9734    0.5616 C   0  0  0  0  0  0  0  0  0  0  0  0
   -3.6868   -0.5410    0.1911 C   0  0  0  0  0  0  0  0  0  0  0  0
   -2.4231   -0.1120   -0.1774 C   0  0  0  0  0  0  0  0  0  0  0  0
   -2.2457   -3.1108   -1.2404 C   0  0  0  0  0  0  0  0  0  0  0  0
   -1.4618   -3.1352    1.1416 C   0  0  0  0  0  0  0  0  0  0  0  0
   -4.7538    0.3388    0.2211 C   0  0  0  0  0  0  0  0  0  0  0  0
   -2.1701    1.2002   -0.5284 C   0  0  0  0  0  0  0  0  0  0  0  0
   -4.5240    1.6692   -0.1384 C   0  0  0  0  0  0  0  0  0  0  0  0
   -3.2393    2.0975   -0.5102 C   0  0  0  0  0  0  0  0  0  0  0  0
   -0.1264    2.0729    0.1801 C   0  0  0  0  0  0  0  0  0  0  0  0
    2.1571    2.9899    0.5883 C   0  0  0  0  0  0  0  0  0  0  0  0
    3.7832    0.8526   -0.0716 C   0  0  0  0  0  0  0  0  0  0  0  0
    3.6208    0.1794    1.1365 C   0  0  0  0  0  0  0  0  0  0  0  0
    3.9275    0.1406   -1.2596 C   0  0  0  0  0  0  0  0  0  0  0  0
    3.6027   -1.2152    1.1566 C   0  0  0  0  0  0  0  0  0  0  0  0
    3.9093   -1.2540   -1.2394 C   0  0  0  0  0  0  0  0  0  0  0  0
    3.7470   -1.9319   -0.0314 C   0  0  0  0  0  0  0  0  0  0  0  0
  1 24  1  0
  2 18  1  0
  2 19  1  0
  3  7  1  0
  3 10  1  0
  4 14  1  0
  4 17  1  0
  5 17  2  0
  6 17  1  0
  6 18  1  0
  7  8  1  0
  7 11  1  0
  7 12  1  0
  8  9  1  0
  9 10  2  0
  9 13  1  0
 10 14  1  0
 13 15  2  0
 14 16  2  0
 15 16  1  0
 19 20  2  0
 19 21  1  0
 20 22  1  0
 21 23  2  0
 22 24  2  0
 23 24  1  0
M  END
>  <PUBCHEM_COMPOUND_CID>  (1) 
39697

>  <PUBCHEM_CONFORMER_RMSD>  (1) 
0.8

>  <PUBCHEM_CONFORMER_DIVERSEORDER>  (1) 
1
352
379
222
111
262
285
378
136
64
389
131
55
118
361
193
19
396
140
388
322
369
215
267
75
315
15
8
146
115
306
105
339
281
50
349
214
51
259
195
399
196
393
338
271
36
29
204
241
383
163
88
165
166
300
54
182
201
116
330
206
57
249
367
185
83
298
368
171
100
62
94
360
359
78
96
270
398
341
103
124
32
381
101
112
156
236
190
257
24
324
38
184
89
364
391
239
251
390
294
160
213
344
127
303
232
240
370
67
45
334
245
174
343
276
65
211
148
150
320
107
313
275
317
392
39
305
61
347
333
287
130
128
87
68
159
49
44
207
203
348
233
255
198
183
42
132
217
327
384
74
188
265
231
336
147
375
109
230
126
366
158
173
23
248
151
181
235
296
311
212
363
149
167
186
20
292
86
210
358
155
301
220
95
278
40
102
284
354
191
48
142
90
161
63
108
72
304
254
283
84
125
326
269
310
25
290
152
97
60
400
243
321
328
69
58
73
272
362
356
33
331
169
154
319
52
387
34
244
110
234
14
134
261
66
30
4
377
293
141
178
139
17
76
385
288
252
202
180
77
22
164
316
229
189
219
382
80
280
98
224
197
376
144
37
91
199
295
237
153
79
21
279
104
176
308
346
260
337
82
143
99
9
332
10
168
394
318
209
119
264
41
208
256
225
35
5
277
123
250
274
46
325
6
353
351
113
266
16
228
216
246
314
297
345
397
138
386
238
302
145
2
205
218
342
162
268
157
120
286
335
31
357
395
187
3
242
81
307
11
194
27
380
177
117
291
71
85
26
273
114
323
289
106
340
172
93
12
135
200
56
137
18
179
329
7
374
13
92
170
53
365
373
133
129
247
309
263
258
221
299
372
227
121
282
253
43
28
175
192
371
59
226
312
122
47
355
223
350
70

>  <PUBCHEM_MMFF94_PARTIAL_CHARGES>  (1) 
30
1 -0.18
10 0.08
13 -0.15
14 0.08
15 -0.15
16 -0.15
17 0.78
18 0.53
19 0.1
2 -0.33
20 -0.15
21 -0.15
22 -0.15
23 -0.15
24 0.18
3 -0.36
33 0.15
34 0.15
35 0.15
36 0.37
39 0.15
4 -0.23
40 0.15
41 0.15
42 0.15
5 -0.57
6 -0.73
7 0.28
8 0.14
9 -0.14

>  <PUBCHEM_EFFECTIVE_ROTOR_COUNT>  (1) 
6.6

>  <PUBCHEM_PHARMACOPHORE_FEATURES>  (1) 
7
1 3 acceptor
1 5 acceptor
1 6 donor
3 7 11 12 hydrophobe
5 3 7 8 9 10 rings
6 19 20 21 22 23 24 rings
6 9 10 13 14 15 16 rings

>  <PUBCHEM_HEAVY_ATOM_COUNT>  (1) 
24

>  <PUBCHEM_ATOM_DEF_STEREO_COUNT>  (1) 
0

>  <PUBCHEM_ATOM_UDEF_STEREO_COUNT>  (1) 
0

>  <PUBCHEM_BOND_DEF_STEREO_COUNT>  (1) 
0

>  <PUBCHEM_BOND_UDEF_STEREO_COUNT>  (1) 
0

>  <PUBCHEM_ISOTOPIC_ATOM_COUNT>  (1) 
0

>  <PUBCHEM_COMPONENT_COUNT>  (1) 
1

>  <PUBCHEM_CACTVS_TAUTO_COUNT>  (1) 
2

>  <PUBCHEM_CONFORMER_ID>  (1) 
00009B1100000001

>  <PUBCHEM_MMFF94_ENERGY>  (1) 
67.1902

>  <PUBCHEM_FEATURE_SELFOVERLAP>  (1) 
35.62

>  <PUBCHEM_SHAPE_FINGERPRINT>  (1) 
10616163 171 18121218941906935172
11112241 14 17129835426347368520
11552529 35 17773319152237339711
12422481 6 18266203728507601499
12633257 1 18409159996366571050
12788726 201 17846226501144549592
13122387 1 18266456701559511350
13402501 40 18270120093951395758
13533116 47 18201718492108446601
13583140 156 17701534237004810593
14251757 17 18410009944297689505
14617045 38 18337402641801250740
14790565 3 18193841444963040945
14866123 147 17621603813051697697
1813 80 17095519655981719861
19591789 44 18335980866214146281
19930381 70 18122062000932348859
21521239 73 18128230403905318189
21703447 108 17054128687093832913
23559900 14 18341332210881420124
3004659 81 18187366468157199140
314173 41 18410859875829932492
3298306 158 18046896096587101005
3680242 22 18193563272251159091
463206 1 17042598189525288039
474144 1 17316473995121571098
5309563 4 17327745505166115723
6433294 58 18409730681640404074
6823239 73 18343592849975268380
9709674 26 18337955726172588516

>  <PUBCHEM_SHAPE_MULTIPOLES>  (1) 
477.04
10.46
4.57
1.12
1.01
1.69
0
1.14
0.41
1.45
-0.19
0.55
0.28
0.43

>  <PUBCHEM_SHAPE_SELFOVERLAP>  (1) 
1000.631

>  <PUBCHEM_SHAPE_VOLUME>  (1) 
274.1

>  <PUBCHEM_COORDINATE_TYPE>  (1) 
2
5
10

$$$$
