39694
     RDKit          3D

 27 29  0  0  0  0  0  0  0  0999 V2000
   -2.4489    3.8707    0.0963 S   0  0  0  0  0  0  0  0  0  0  0  0
    1.6439   -1.1409    0.1472 O   0  0  0  0  0  0  0  0  0  0  0  0
    1.8392    1.6184    0.8833 O   0  0  0  0  0  0  0  0  0  0  0  0
    1.5584    2.2001   -1.3494 O   0  0  0  0  0  0  0  0  0  0  0  0
    0.0990    2.9896    0.2727 N   0  0  0  0  0  0  0  0  0  0  0  0
    2.0308   -2.5269   -0.0816 C   0  0  0  0  0  0  0  0  0  0  0  0
    3.5008   -2.5609   -0.5612 C   0  0  0  0  0  0  0  0  0  0  0  0
    3.9252   -1.1920   -0.1907 C   0  0  0  0  0  0  0  0  0  0  0  0
    2.8214   -0.4416    0.1770 C   0  0  0  0  0  0  0  0  0  0  0  0
    1.0898   -3.0994   -1.1426 C   0  0  0  0  0  0  0  0  0  0  0  0
    1.8503   -3.2845    1.2400 C   0  0  0  0  0  0  0  0  0  0  0  0
   -3.9903   -1.9924    0.0044 C   0  0  0  0  0  0  0  0  0  0  0  0
    5.1882   -0.6285   -0.2200 C   0  0  0  0  0  0  0  0  0  0  0  0
    2.9271    0.8907    0.5279 C   0  0  0  0  0  0  0  0  0  0  0  0
   -3.6118   -0.5502    0.0271 C   0  0  0  0  0  0  0  0  0  0  0  0
    5.3211    0.7151    0.1394 C   0  0  0  0  0  0  0  0  0  0  0  0
   -3.9806   -2.6672   -1.4074 C   0  0  0  0  0  0  0  0  0  0  0  0
   -3.0200   -2.8461    0.8787 C   0  0  0  0  0  0  0  0  0  0  0  0
   -5.4335   -2.2073    0.5571 C   0  0  0  0  0  0  0  0  0  0  0  0
    4.1969    1.4705    0.5104 C   0  0  0  0  0  0  0  0  0  0  0  0
   -3.5877    0.1457    1.2356 C   0  0  0  0  0  0  0  0  0  0  0  0
   -3.2810    0.1026   -1.1605 C   0  0  0  0  0  0  0  0  0  0  0  0
   -3.2329    1.4945    1.2567 C   0  0  0  0  0  0  0  0  0  0  0  0
   -2.9261    1.4515   -1.1394 C   0  0  0  0  0  0  0  0  0  0  0  0
   -2.9032    2.1424    0.0692 C   0  0  0  0  0  0  0  0  0  0  0  0
    1.1903    2.2766   -0.1809 C   0  0  0  0  0  0  0  0  0  0  0  0
   -0.7661    3.7693   -0.5894 C   0  0  0  0  0  0  0  0  0  0  0  0
  1 25  1  0
  1 27  1  0
  2  6  1  0
  2  9  1  0
  3 14  1  0
  3 26  1  0
  4 26  2  0
  5 26  1  0
  5 27  1  0
  6  7  1  0
  6 10  1  0
  6 11  1  0
  7  8  1  0
  8  9  2  0
  8 13  1  0
  9 14  1  0
 12 15  1  0
 12 17  1  0
 12 18  1  0
 12 19  1  0
 13 16  2  0
 14 20  2  0
 15 21  2  0
 15 22  1  0
 16 20  1  0
 21 23  1  0
 22 24  2  0
 23 25  2  0
 24 25  1  0
M  END
>  <PUBCHEM_COMPOUND_CID>  (1) 
39694

>  <PUBCHEM_CONFORMER_RMSD>  (1) 
1.2

>  <PUBCHEM_CONFORMER_DIVERSEORDER>  (1) 
1
13
18
42
21
58
74
78
43
38
59
34
83
4
70
8
33
24
7
16
55
81
47
35
79
60
45
49
12
51
57
48
52
26
40
84
3
29
66
25
73
53
63
31
62
28
36
23
69
10
20
11
50
75
82
64
9
67
54
71
80
27
76
19
6
72
68
5
56
61
46
65
14
15
77
44
17
30
37
39
32
41
2
22

>  <PUBCHEM_MMFF94_PARTIAL_CHARGES>  (1) 
30
1 -0.33
12 0.14
13 -0.15
14 0.08
15 -0.14
16 -0.15
2 -0.36
20 -0.15
21 -0.15
22 -0.15
23 -0.15
24 -0.15
25 0.1
26 0.78
27 0.53
3 -0.23
36 0.15
4 -0.57
46 0.15
47 0.15
48 0.15
49 0.15
5 -0.73
50 0.15
51 0.15
54 0.37
6 0.28
7 0.14
8 -0.14
9 0.08

>  <PUBCHEM_EFFECTIVE_ROTOR_COUNT>  (1) 
7.6

>  <PUBCHEM_PHARMACOPHORE_FEATURES>  (1) 
8
1 2 acceptor
1 4 acceptor
1 5 donor
3 6 10 11 hydrophobe
4 12 17 18 19 hydrophobe
5 2 6 7 8 9 rings
6 15 21 22 23 24 25 rings
6 8 9 13 14 16 20 rings

>  <PUBCHEM_HEAVY_ATOM_COUNT>  (1) 
27

>  <PUBCHEM_ATOM_DEF_STEREO_COUNT>  (1) 
0

>  <PUBCHEM_ATOM_UDEF_STEREO_COUNT>  (1) 
0

>  <PUBCHEM_BOND_DEF_STEREO_COUNT>  (1) 
0

>  <PUBCHEM_BOND_UDEF_STEREO_COUNT>  (1) 
0

>  <PUBCHEM_ISOTOPIC_ATOM_COUNT>  (1) 
0

>  <PUBCHEM_COMPONENT_COUNT>  (1) 
1

>  <PUBCHEM_CACTVS_TAUTO_COUNT>  (1) 
2

>  <PUBCHEM_CONFORMER_ID>  (1) 
00009B0E00000001

>  <PUBCHEM_MMFF94_ENERGY>  (1) 
86.3143

>  <PUBCHEM_FEATURE_SELFOVERLAP>  (1) 
40.696

>  <PUBCHEM_SHAPE_FINGERPRINT>  (1) 
10616163 171 18339922606535599052
11014199 57 18338523044329159543
11136131 41 18262507119134354378
11186622 123 18264487295866267010
11552529 35 18202281364357097281
12633257 1 17908136577677841939
13122387 1 18194399983610236427
13402501 40 18335983168142758147
1361 2 17834953453670257083
13989917 61 17905329881624307899
14117953 113 18342177812896706095
14251757 5 17620493315018950126
15352361 1 18410011078490847561
19930381 70 18121779701885978123
20764821 26 18044961166190581651
20775530 9 18337385037062425449
21133410 171 17470670725619464075
21673915 165 18413387657214212256
22113638 7 17907855450725442087
22393880 68 18339928104447133190
23559900 14 18338223990510443737
3246872 21 18268706284811317463
325973 47 17832989721144105011
3737641 26 18341901744887980294
4403749 210 18266996442111156176
445580 102 18413107234214248092
463206 1 18194119857406237507
508706 21 18114178653190849419
5309563 4 18338796840189129575
6433294 58 17978229349022006354

>  <PUBCHEM_SHAPE_MULTIPOLES>  (1) 
536.91
11.16
5.29
1.18
2.49
1.13
-0.08
-4.4
0.6
-2.64
-0.33
-0.75
-0.29
0.19

>  <PUBCHEM_SHAPE_SELFOVERLAP>  (1) 
1128.215

>  <PUBCHEM_SHAPE_VOLUME>  (1) 
308.9

>  <PUBCHEM_COORDINATE_TYPE>  (1) 
2
5
10

$$$$
