39698
     RDKit          3D

 24 26  0  0  0  0  0  0  0  0999 V2000
    3.7459   -3.7963   -0.0038 Br  0  0  0  0  0  0  0  0  0  0  0  0
    3.7924    2.6653   -0.0983 S   0  0  0  0  0  0  0  0  0  0  0  0
   -1.4696   -1.1001   -0.1485 O   0  0  0  0  0  0  0  0  0  0  0  0
   -0.9360    1.6145   -0.8839 O   0  0  0  0  0  0  0  0  0  0  0  0
   -0.5119    2.1010    1.3489 O   0  0  0  0  0  0  0  0  0  0  0  0
    1.1025    2.4818   -0.2736 N   0  0  0  0  0  0  0  0  0  0  0  0
   -2.2058   -2.3365    0.0805 C   0  0  0  0  0  0  0  0  0  0  0  0
   -3.6332   -1.9845    0.5613 C   0  0  0  0  0  0  0  0  0  0  0  0
   -3.6846   -0.5522    0.1911 C   0  0  0  0  0  0  0  0  0  0  0  0
   -2.4230   -0.1169   -0.1774 C   0  0  0  0  0  0  0  0  0  0  0  0
   -2.2309   -3.1146   -1.2411 C   0  0  0  0  0  0  0  0  0  0  0  0
   -1.4467   -3.1356    1.1408 C   0  0  0  0  0  0  0  0  0  0  0  0
   -4.7559    0.3223    0.2214 C   0  0  0  0  0  0  0  0  0  0  0  0
   -2.1766    1.1966   -0.5282 C   0  0  0  0  0  0  0  0  0  0  0  0
   -4.5327    1.6539   -0.1378 C   0  0  0  0  0  0  0  0  0  0  0  0
   -3.2502    2.0886   -0.5097 C   0  0  0  0  0  0  0  0  0  0  0  0
   -0.1371    2.0792    0.1802 C   0  0  0  0  0  0  0  0  0  0  0  0
    2.1419    3.0074    0.5883 C   0  0  0  0  0  0  0  0  0  0  0  0
    3.7784    0.8783   -0.0722 C   0  0  0  0  0  0  0  0  0  0  0  0
    3.6196    0.2048    1.1359 C   0  0  0  0  0  0  0  0  0  0  0  0
    3.9275    0.1670   -1.2601 C   0  0  0  0  0  0  0  0  0  0  0  0
    3.6097   -1.1899    1.1566 C   0  0  0  0  0  0  0  0  0  0  0  0
    3.9176   -1.2277   -1.2393 C   0  0  0  0  0  0  0  0  0  0  0  0
    3.7587   -1.9062   -0.0311 C   0  0  0  0  0  0  0  0  0  0  0  0
  1 24  1  0
  2 18  1  0
  2 19  1  0
  3  7  1  0
  3 10  1  0
  4 14  1  0
  4 17  1  0
  5 17  2  0
  6 17  1  0
  6 18  1  0
  7  8  1  0
  7 11  1  0
  7 12  1  0
  8  9  1  0
  9 10  2  0
  9 13  1  0
 10 14  1  0
 13 15  2  0
 14 16  2  0
 15 16  1  0
 19 20  2  0
 19 21  1  0
 20 22  1  0
 21 23  2  0
 22 24  2  0
 23 24  1  0
M  END
>  <PUBCHEM_COMPOUND_CID>  (1) 
39698

>  <PUBCHEM_CONFORMER_RMSD>  (1) 
0.8

>  <PUBCHEM_CONFORMER_DIVERSEORDER>  (1) 
1
244
60
399
84
389
85
247
393
265
71
287
205
86
317
333
42
303
202
365
57
391
32
147
254
97
380
264
20
56
363
309
395
8
284
295
40
159
162
376
98
100
343
321
24
375
251
75
332
113
286
52
144
229
142
390
133
134
206
217
377
139
235
53
347
335
301
396
256
106
248
47
297
197
370
150
283
64
99
240
120
266
278
189
54
199
95
338
386
208
366
39
182
65
6
114
268
121
198
373
381
299
46
275
105
61
50
334
313
305
400
315
223
135
241
23
279
294
270
213
384
157
302
72
203
392
242
401
190
104
388
378
344
226
281
310
55
116
337
215
137
319
31
211
273
83
149
107
339
77
355
308
82
45
67
130
398
369
252
146
354
196
43
185
155
382
127
178
92
291
153
168
220
21
397
260
193
320
201
73
356
314
253
200
362
174
94
5
350
276
177
245
246
164
110
131
93
192
209
51
227
111
180
170
258
387
74
148
17
119
37
103
166
109
212
26
383
340
138
367
117
282
66
323
280
372
101
364
274
108
69
336
59
352
115
35
324
176
161
293
224
68
232
214
187
348
118
14
318
243
173
285
87
316
359
19
218
91
158
216
34
167
90
221
292
15
25
312
368
16
345
371
141
327
342
361
207
257
263
172
296
322
191
165
219
290
341
27
230
225
234
9
238
151
124
41
3
261
328
374
81
175
267
249
12
169
70
236
360
125
269
237
10
330
11
2
123
304
63
145
171
228
136
129
62
160
329
239
194
394
140
4
143
29
231
346
325
76
272
255
271
33
79
38
152
300
80
49
250
307
132
89
179
96
22
306
195
351
128
222
233
385
163
288
28
154
126
188
262
326
156
379
58
259
112
122
18
353
331
184
204
7
48
78
349
311
36
13
30
357
44
277
181
88
186
298
102
183
210
289
358

>  <PUBCHEM_MMFF94_PARTIAL_CHARGES>  (1) 
30
1 -0.11
10 0.08
13 -0.15
14 0.08
15 -0.15
16 -0.15
17 0.78
18 0.53
19 0.1
2 -0.33
20 -0.15
21 -0.15
22 -0.15
23 -0.15
24 0.11
3 -0.36
33 0.15
34 0.15
35 0.15
36 0.37
39 0.15
4 -0.23
40 0.15
41 0.15
42 0.15
5 -0.57
6 -0.73
7 0.28
8 0.14
9 -0.14

>  <PUBCHEM_EFFECTIVE_ROTOR_COUNT>  (1) 
6.6

>  <PUBCHEM_PHARMACOPHORE_FEATURES>  (1) 
8
1 1 hydrophobe
1 3 acceptor
1 5 acceptor
1 6 donor
3 7 11 12 hydrophobe
5 3 7 8 9 10 rings
6 19 20 21 22 23 24 rings
6 9 10 13 14 15 16 rings

>  <PUBCHEM_HEAVY_ATOM_COUNT>  (1) 
24

>  <PUBCHEM_ATOM_DEF_STEREO_COUNT>  (1) 
0

>  <PUBCHEM_ATOM_UDEF_STEREO_COUNT>  (1) 
0

>  <PUBCHEM_BOND_DEF_STEREO_COUNT>  (1) 
0

>  <PUBCHEM_BOND_UDEF_STEREO_COUNT>  (1) 
0

>  <PUBCHEM_ISOTOPIC_ATOM_COUNT>  (1) 
0

>  <PUBCHEM_COMPONENT_COUNT>  (1) 
1

>  <PUBCHEM_CACTVS_TAUTO_COUNT>  (1) 
2

>  <PUBCHEM_CONFORMER_ID>  (1) 
00009B1200000001

>  <PUBCHEM_MMFF94_ENERGY>  (1) 
67.3187

>  <PUBCHEM_FEATURE_SELFOVERLAP>  (1) 
40.696

>  <PUBCHEM_SHAPE_FINGERPRINT>  (1) 
10616163 171 18121218941901673420
11112241 14 17129836525864258048
11552529 35 17701262662000738591
12422481 6 18265922253541420843
12633257 1 18409159996361244342
12788726 201 17846226501128731840
13122387 1 18266456705865041142
13402501 40 18270120089661716198
13533116 47 18201438116643376721
13583140 156 17701534241310327385
14251757 17 18410291419284949657
14617045 38 18337402646096224532
14790565 3 18194122919945026353
14866123 147 17621602713545351161
1813 80 17095519655965934589
19591789 44 18335980866214152785
19930381 70 18051130294058766927
21521239 73 18128231507717149029
21703447 108 17053847212106611729
23559900 14 18341050735899428212
3004659 81 18187366472425909604
314173 41 18410859875829938988
3298306 158 18046896096581800261
3680242 22 18194127321726744659
463206 1 17042316714548564343
474144 1 17244416401094199162
5309563 4 17327744409959998251
6433294 58 18409730677356012250
6823239 73 18343592849975294356
9709674 26 18266179607111384236

>  <PUBCHEM_SHAPE_MULTIPOLES>  (1) 
481.11
10.5
4.72
1.12
0.65
1.87
0
1.37
0.43
1.96
-0.21
0.56
0.26
0.41

>  <PUBCHEM_SHAPE_SELFOVERLAP>  (1) 
1003.169

>  <PUBCHEM_SHAPE_VOLUME>  (1) 
281.6

>  <PUBCHEM_COORDINATE_TYPE>  (1) 
2
5
10

$$$$
