39692
     RDKit          3D

 24 26  0  0  0  0  0  0  0  0999 V2000
    2.5150   -2.1796   -0.8235 S   0  0  0  0  0  0  0  0  0  0  0  0
   -1.2484    1.0845    0.3046 O   0  0  0  0  0  0  0  0  0  0  0  0
   -0.3011   -1.4517   -0.6254 O   0  0  0  0  0  0  0  0  0  0  0  0
   -0.6004   -2.3168    1.5008 O   0  0  0  0  0  0  0  0  0  0  0  0
    1.5184   -2.4108    0.5529 N   0  0  0  0  0  0  0  0  0  0  0  0
   -2.1535    2.0984    0.8298 C   0  0  0  0  0  0  0  0  0  0  0  0
   -3.5727    1.8349    0.2745 C   0  0  0  0  0  0  0  0  0  0  0  0
   -3.4031    0.4507   -0.2217 C   0  0  0  0  0  0  0  0  0  0  0  0
   -2.0631    0.1037   -0.1965 C   0  0  0  0  0  0  0  0  0  0  0  0
   -2.1195    2.0047    2.3604 C   0  0  0  0  0  0  0  0  0  0  0  0
   -1.6284    3.4627    0.3799 C   0  0  0  0  0  0  0  0  0  0  0  0
   -4.3544   -0.4283   -0.7076 C   0  0  0  0  0  0  0  0  0  0  0  0
   -1.6169   -1.1227   -0.6505 C   0  0  0  0  0  0  0  0  0  0  0  0
   -3.9278   -1.6780   -1.1641 C   0  0  0  0  0  0  0  0  0  0  0  0
   -2.5668   -2.0227   -1.1364 C   0  0  0  0  0  0  0  0  0  0  0  0
    0.1567   -2.0841    0.5584 C   0  0  0  0  0  0  0  0  0  0  0  0
    3.0859   -0.5135   -0.5139 C   0  0  0  0  0  0  0  0  0  0  0  0
    2.1427   -3.0651    1.6941 C   0  0  0  0  0  0  0  0  0  0  0  0
    2.8087    1.8683   -0.7645 C   0  0  0  0  0  0  0  0  0  0  0  0
    2.3623    0.5691   -1.0057 C   0  0  0  0  0  0  0  0  0  0  0  0
    4.2525   -0.3075    0.2172 C   0  0  0  0  0  0  0  0  0  0  0  0
    3.9772    2.0796   -0.0324 C   0  0  0  0  0  0  0  0  0  0  0  0
    4.6990    0.9918    0.4584 C   0  0  0  0  0  0  0  0  0  0  0  0
    2.0374    3.0322   -1.2889 C   0  0  0  0  0  0  0  0  0  0  0  0
  1  5  1  0
  1 17  1  0
  2  6  1  0
  2  9  1  0
  3 13  1  0
  3 16  1  0
  4 16  2  0
  5 16  1  0
  5 18  1  0
  6  7  1  0
  6 10  1  0
  6 11  1  0
  7  8  1  0
  8  9  2  0
  8 12  1  0
  9 13  1  0
 12 14  2  0
 13 15  2  0
 14 15  1  0
 17 20  1  0
 17 21  2  0
 19 20  2  0
 19 22  1  0
 19 24  1  0
 21 23  1  0
 22 23  2  0
M  END
>  <PUBCHEM_COMPOUND_CID>  (1) 
39692

>  <PUBCHEM_CONFORMER_RMSD>  (1) 
1

>  <PUBCHEM_CONFORMER_DIVERSEORDER>  (1) 
1
150
261
248
241
176
121
278
214
144
139
81
242
175
218
120
279
272
39
163
270
12
89
60
257
227
47
171
45
217
199
85
249
219
109
280
137
84
135
165
153
251
226
26
103
19
100
215
9
173
104
245
53
123
185
143
207
174
112
168
223
141
183
203
159
208
192
235
31
71
158
255
83
233
102
152
21
189
224
73
87
264
66
201
101
110
178
128
106
25
239
41
4
259
74
91
92
262
161
169
231
119
30
212
23
170
276
244
118
211
133
221
238
194
111
62
186
166
126
136
172
108
138
117
177
105
250
205
82
180
206
281
222
61
57
33
80
49
36
56
77
156
253
182
246
75
260
247
256
216
213
267
52
149
263
271
7
273
187
43
98
164
193
228
132
38
268
140
78
167
48
68
17
204
79
27
202
16
116
14
234
243
32
93
275
229
40
131
236
22
162
113
15
127
269
5
96
58
76
274
65
154
254
59
225
10
44
18
237
157
181
265
155
97
64
107
184
277
179
54
142
147
67
148
88
209
46
230
72
70
258
8
197
35
115
198
210
188
196
94
240
63
34
6
195
145
124
266
24
252
55
151
134
29
20
129
86
50
37
190
122
3
90
2
114
130
95
11
99
146
160
51
42
220
191
232
125
28
200
13
69

>  <PUBCHEM_MMFF94_PARTIAL_CHARGES>  (1) 
29
1 -0.09
12 -0.15
13 0.08
14 -0.15
15 -0.15
16 0.78
17 0.1
18 0.3
19 -0.14
2 -0.36
20 -0.15
21 -0.15
22 -0.15
23 -0.15
24 0.14
3 -0.23
33 0.15
34 0.15
35 0.15
39 0.15
4 -0.57
40 0.15
41 0.15
42 0.15
5 -0.37
6 0.28
7 0.14
8 -0.14
9 0.08

>  <PUBCHEM_EFFECTIVE_ROTOR_COUNT>  (1) 
5.6

>  <PUBCHEM_PHARMACOPHORE_FEATURES>  (1) 
6
1 2 acceptor
1 4 acceptor
3 6 10 11 hydrophobe
5 2 6 7 8 9 rings
6 17 19 20 21 22 23 rings
6 8 9 12 13 14 15 rings

>  <PUBCHEM_HEAVY_ATOM_COUNT>  (1) 
24

>  <PUBCHEM_ATOM_DEF_STEREO_COUNT>  (1) 
0

>  <PUBCHEM_ATOM_UDEF_STEREO_COUNT>  (1) 
0

>  <PUBCHEM_BOND_DEF_STEREO_COUNT>  (1) 
0

>  <PUBCHEM_BOND_UDEF_STEREO_COUNT>  (1) 
0

>  <PUBCHEM_ISOTOPIC_ATOM_COUNT>  (1) 
0

>  <PUBCHEM_COMPONENT_COUNT>  (1) 
1

>  <PUBCHEM_CACTVS_TAUTO_COUNT>  (1) 
1

>  <PUBCHEM_CONFORMER_ID>  (1) 
00009B0C00000001

>  <PUBCHEM_MMFF94_ENERGY>  (1) 
73.6623

>  <PUBCHEM_FEATURE_SELFOVERLAP>  (1) 
30.546

>  <PUBCHEM_SHAPE_FINGERPRINT>  (1) 
10708813 3 18337956679808478100
11370993 70 18262794211078545980
11578080 2 17606099724463519389
12156800 1 13175648724346058704
12403259 327 13334734643575786950
12596599 1 17985838033778746662
12633257 1 17822839996748979316
12788726 201 18055370268440723013
13122387 1 18122064195924355140
13583140 156 17607822603692664129
13965767 371 17693950587469468624
14117953 113 17114938890864421245
14123250 116 18271818899139312681
14251764 3 16515674567905728359
14787075 74 18118967142531613135
14790565 3 17914343373216783585
14931854 50 18339642364167049844
15420108 30 17764588720707314904
17349148 13 18335977662083939548
17492 89 18342740684776396575
192875 21 18337103583550222764
20715895 44 17906723710138441453
2132832 1 18122032374342873503
21857420 4 15258002805591125798
21864079 5 18268995271806667259
22749437 52 18336270136461534204
23557571 272 17775566467846874174
23558518 356 18338248123166535525
23559900 14 17845090662672444614
238918 7 15095052343080833803
35225 105 16155144756993030952
392239 28 18189630487005662299
4340502 62 17821737126631143707
474 4 18260828224063542806
5048184 11 18340498763645655616
539174 4 18262801735660717036
5895379 119 17843682167124160730
6328613 192 18115874178337763564
7832392 63 18124036736937918574
9709674 26 18341621442400470366
9981440 41 18266173010521835002

>  <PUBCHEM_SHAPE_MULTIPOLES>  (1) 
475.17
8.5
4.11
1.47
2.09
0.7
0.62
1.73
-1.12
0.49
0.75
-0.3
-0.11
-2.22

>  <PUBCHEM_SHAPE_SELFOVERLAP>  (1) 
1005.672

>  <PUBCHEM_SHAPE_VOLUME>  (1) 
270.6

>  <PUBCHEM_COORDINATE_TYPE>  (1) 
2
5
10

$$$$
