39715
     RDKit          3D

 17 17  0  0  0  0  0  0  0  0999 V2000
   -3.4353   -0.2686   -1.2317 S   0  0  0  0  0  0  0  0  0  0  0  0
    1.0595   -1.1842    0.5511 O   0  0  0  0  0  0  0  0  0  0  0  0
   -0.7655    0.5567   -0.6183 O   0  0  0  0  0  0  0  0  0  0  0  0
   -1.2259    1.4147    1.4840 O   0  0  0  0  0  0  0  0  0  0  0  0
   -2.9347    0.4588    0.2359 N   0  0  0  0  0  0  0  0  0  0  0  0
    1.7246   -2.2918   -0.0532 C   0  0  0  0  0  0  0  0  0  0  0  0
    1.4456    0.0607    0.1553 C   0  0  0  0  0  0  0  0  0  0  0  0
    2.4416   -3.0928    1.0229 C   0  0  0  0  0  0  0  0  0  0  0  0
    0.7081   -3.1366   -0.8059 C   0  0  0  0  0  0  0  0  0  0  0  0
    0.5643    0.9444   -0.4260 C   0  0  0  0  0  0  0  0  0  0  0  0
    2.7695    0.4593    0.3406 C   0  0  0  0  0  0  0  0  0  0  0  0
    0.9380    2.2065   -0.8321 C   0  0  0  0  0  0  0  0  0  0  0  0
    3.1776    1.7315   -0.0604 C   0  0  0  0  0  0  0  0  0  0  0  0
    2.2619    2.6050   -0.6467 C   0  0  0  0  0  0  0  0  0  0  0  0
   -1.6122    0.8578    0.4564 C   0  0  0  0  0  0  0  0  0  0  0  0
   -3.9737    0.6794    1.2311 C   0  0  0  0  0  0  0  0  0  0  0  0
   -3.1435   -2.0008   -0.8029 C   0  0  0  0  0  0  0  0  0  0  0  0
  1  5  1  0
  1 17  1  0
  2  6  1  0
  2  7  1  0
  3 10  1  0
  3 15  1  0
  4 15  2  0
  5 15  1  0
  5 16  1  0
  6  8  1  0
  6  9  1  0
  7 10  2  0
  7 11  1  0
 10 12  1  0
 11 13  2  0
 12 14  2  0
 13 14  1  0
M  END
>  <PUBCHEM_COMPOUND_CID>  (1) 
39715

>  <PUBCHEM_CONFORMER_RMSD>  (1) 
0.8

>  <PUBCHEM_CONFORMER_DIVERSEORDER>  (1) 
2
71
115
105
88
34
124
33
23
94
111
83
60
46
13
75
32
116
100
38
54
102
50
122
56
107
119
96
74
63
118
121
81
92
11
61
73
20
59
7
27
80
114
43
51
120
66
79
110
44
87
113
18
78
90
112
40
17
30
14
106
104
49
76
109
86
45
10
62
101
48
58
103
85
26
16
82
68
69
25
31
97
9
67
53
91
72
65
21
39
35
42
98
36
117
84
57
37
93
47
41
15
19
24
64
95
4
52
29
22
123
99
8
77
5
28
12
70
6
108
1
89
55
3

>  <PUBCHEM_MMFF94_PARTIAL_CHARGES>  (1) 
19
1 -0.22
10 0.08
11 -0.15
12 -0.15
13 -0.15
14 -0.15
15 0.78
16 0.3
17 0.23
2 -0.36
25 0.15
26 0.15
27 0.15
28 0.15
3 -0.23
4 -0.57
5 -0.37
6 0.28
7 0.08

>  <PUBCHEM_EFFECTIVE_ROTOR_COUNT>  (1) 
6

>  <PUBCHEM_PHARMACOPHORE_FEATURES>  (1) 
4
1 2 acceptor
1 4 acceptor
3 6 8 9 hydrophobe
6 7 10 11 12 13 14 rings

>  <PUBCHEM_HEAVY_ATOM_COUNT>  (1) 
17

>  <PUBCHEM_ATOM_DEF_STEREO_COUNT>  (1) 
0

>  <PUBCHEM_ATOM_UDEF_STEREO_COUNT>  (1) 
0

>  <PUBCHEM_BOND_DEF_STEREO_COUNT>  (1) 
0

>  <PUBCHEM_BOND_UDEF_STEREO_COUNT>  (1) 
0

>  <PUBCHEM_ISOTOPIC_ATOM_COUNT>  (1) 
0

>  <PUBCHEM_COMPONENT_COUNT>  (1) 
1

>  <PUBCHEM_CACTVS_TAUTO_COUNT>  (1) 
1

>  <PUBCHEM_CONFORMER_ID>  (1) 
00009B2300000002

>  <PUBCHEM_MMFF94_ENERGY>  (1) 
50.9569

>  <PUBCHEM_FEATURE_SELFOVERLAP>  (1) 
20.297

>  <PUBCHEM_SHAPE_FINGERPRINT>  (1) 
11578080 2 17698684139604214729
12553582 1 18050288072294013566
13083527 12 17972007324489928794
14787075 74 17340388724827654489
15279307 12 18272096028031106215
15375462 189 18273217530049524601
16945 1 18334295374628054108
18186145 218 18339083820739557236
20645477 70 18261381231462845743
20871998 22 18048319938227391866
22445834 79 18341901736139848593
2255824 54 18410866446960577204
23598291 2 18200596882646761151
2748010 2 17972616634214828104
3060560 45 18262237823903802980
458136 41 18261690258291003484
633830 44 18198642083832296876
6438718 38 16977328941701450270
6992083 37 17694793917071968993
7364860 26 18340213994259704152
81228 2 17111845969066213040
8272917 22 18410295783536075189

>  <PUBCHEM_SHAPE_MULTIPOLES>  (1) 
331.11
5.99
3.61
1.18
5.05
2.9
0.13
-0.7
0.31
-3.09
-0.29
0.76
-0.02
-1.49

>  <PUBCHEM_SHAPE_SELFOVERLAP>  (1) 
655.685

>  <PUBCHEM_SHAPE_VOLUME>  (1) 
200.3

>  <PUBCHEM_COORDINATE_TYPE>  (1) 
2
5
10

$$$$
