39722
     RDKit          3D

 17 17  0  0  0  0  0  0  0  0999 V2000
   -0.8116   -4.0880    1.0144 Cl  0  0  0  0  0  0  0  0  0  0  0  0
    3.7075    1.1136   -0.6323 O   0  0  0  0  0  0  0  0  0  0  0  0
    1.2648   -2.6070   -0.2266 O   0  0  0  0  0  0  0  0  0  0  0  0
    0.3458   -0.4497   -0.3862 N   0  0  0  0  0  0  0  0  0  0  0  0
   -0.7574    0.3743   -0.1380 C   0  0  0  0  0  0  0  0  0  0  0  0
    1.5776    0.1003   -1.0295 C   0  0  0  0  0  0  0  0  0  0  0  0
   -0.8598    1.0562    1.0745 C   0  0  0  0  0  0  0  0  0  0  0  0
   -1.7551    0.5134   -1.1027 C   0  0  0  0  0  0  0  0  0  0  0  0
    2.5469    0.6172    0.0215 C   0  0  0  0  0  0  0  0  0  0  0  0
    0.3160   -1.8452   -0.0263 C   0  0  0  0  0  0  0  0  0  0  0  0
   -1.9600    1.8772    1.3224 C   0  0  0  0  0  0  0  0  0  0  0  0
   -2.8553    1.3344   -0.8550 C   0  0  0  0  0  0  0  0  0  0  0  0
    0.1927    0.9277    2.1278 C   0  0  0  0  0  0  0  0  0  0  0  0
   -1.6738   -0.2038   -2.4114 C   0  0  0  0  0  0  0  0  0  0  0  0
   -2.9577    2.0163    0.3576 C   0  0  0  0  0  0  0  0  0  0  0  0
   -0.9684   -2.3699    0.5921 C   0  0  0  0  0  0  0  0  0  0  0  0
    4.6481    1.6329    0.2979 C   0  0  0  0  0  0  0  0  0  0  0  0
  1 16  1  0
  2  9  1  0
  2 17  1  0
  3 10  2  0
  4  5  1  0
  4  6  1  0
  4 10  1  0
  5  7  2  0
  5  8  1  0
  6  9  1  0
  7 11  1  0
  7 13  1  0
  8 12  2  0
  8 14  1  0
 10 16  1  0
 11 15  2  0
 12 15  1  0
M  END
>  <PUBCHEM_COMPOUND_CID>  (1) 
39722

>  <PUBCHEM_CONFORMER_RMSD>  (1) 
0.8

>  <PUBCHEM_CONFORMER_DIVERSEORDER>  (1) 
1
10
18
16
20
14
26
2
21
24
5
15
4
27
3
22
7
17
9
19
8
12
13
11
6
25
23

>  <PUBCHEM_MMFF94_PARTIAL_CHARGES>  (1) 
20
1 -0.29
10 0.57
11 -0.15
12 -0.15
13 0.14
14 0.14
15 -0.15
16 0.35
17 0.28
2 -0.56
22 0.15
23 0.15
3 -0.57
30 0.15
4 -0.48
5 0.12
6 0.3
7 -0.14
8 -0.14
9 0.28

>  <PUBCHEM_EFFECTIVE_ROTOR_COUNT>  (1) 
6

>  <PUBCHEM_PHARMACOPHORE_FEATURES>  (1) 
3
1 2 acceptor
1 3 acceptor
6 5 7 8 11 12 15 rings

>  <PUBCHEM_HEAVY_ATOM_COUNT>  (1) 
17

>  <PUBCHEM_ATOM_DEF_STEREO_COUNT>  (1) 
0

>  <PUBCHEM_ATOM_UDEF_STEREO_COUNT>  (1) 
0

>  <PUBCHEM_BOND_DEF_STEREO_COUNT>  (1) 
0

>  <PUBCHEM_BOND_UDEF_STEREO_COUNT>  (1) 
0

>  <PUBCHEM_ISOTOPIC_ATOM_COUNT>  (1) 
0

>  <PUBCHEM_COMPONENT_COUNT>  (1) 
1

>  <PUBCHEM_CACTVS_TAUTO_COUNT>  (1) 
1

>  <PUBCHEM_CONFORMER_ID>  (1) 
00009B2A00000001

>  <PUBCHEM_MMFF94_ENERGY>  (1) 
69.6405

>  <PUBCHEM_FEATURE_SELFOVERLAP>  (1) 
15.223

>  <PUBCHEM_SHAPE_FINGERPRINT>  (1) 
121448 382 18340756126474902241
12423570 1 12010195484221151439
13583140 156 17257410369529562825
13898156 1 17342083815475437205
14787075 74 18201441436658098297
14817 1 11550573832912102567
16945 1 18119556424649509511
1813 80 8502366793373268800
19765921 60 18272086046063062025
20510252 161 18123756619471287266
20600515 1 17330300749062182166
20645476 183 18410564111312113024
21330990 113 18123206833186719635
21524375 3 18201159836905919964
23419403 2 17477758447927174507
23598291 2 17696756562544503645
2748010 2 18044968721080356987
394222 165 17841723902360064457
4340502 62 18337119973419717945
474 4 18268988692175109168
576247 118 17474664426274843915
81228 2 17973466556523991306
9981440 41 17845356891137428170

>  <PUBCHEM_SHAPE_MULTIPOLES>  (1) 
335
4.98
3.55
1.73
6.71
5.17
0.18
-4.83
0.73
-1.13
-1.59
-0.88
-0.31
0.05

>  <PUBCHEM_SHAPE_SELFOVERLAP>  (1) 
667.858

>  <PUBCHEM_SHAPE_VOLUME>  (1) 
200.4

>  <PUBCHEM_COORDINATE_TYPE>  (1) 
2
5
10

$$$$
