39723
     RDKit          3D

 16 16  0  0  0  0  0  0  0  0999 V2000
    1.2263   -3.6194   -1.2212 Cl  0  0  0  0  0  0  0  0  0  0  0  0
    2.9019    1.1941   -0.1122 O   0  0  0  0  0  0  0  0  0  0  0  0
    2.1875   -1.5721    0.4903 O   0  0  0  0  0  0  0  0  0  0  0  0
    0.4018   -0.0442    0.5364 N   0  0  0  0  0  0  0  0  0  0  0  0
    1.1303    0.8759    1.4632 C   0  0  0  0  0  0  0  0  0  0  0  0
   -0.8838    0.2673    0.0865 C   0  0  0  0  0  0  0  0  0  0  0  0
   -2.0103   -0.1476    0.7966 C   0  0  0  0  0  0  0  0  0  0  0  0
    1.9481    1.8901    0.6795 C   0  0  0  0  0  0  0  0  0  0  0  0
   -1.0323    1.0046   -1.0883 C   0  0  0  0  0  0  0  0  0  0  0  0
    1.0543   -1.2603    0.1166 C   0  0  0  0  0  0  0  0  0  0  0  0
   -3.2855    0.1745    0.3318 C   0  0  0  0  0  0  0  0  0  0  0  0
   -1.8813   -0.9386    2.0578 C   0  0  0  0  0  0  0  0  0  0  0  0
   -2.3074    1.3268   -1.5531 C   0  0  0  0  0  0  0  0  0  0  0  0
   -3.4340    0.9118   -0.8430 C   0  0  0  0  0  0  0  0  0  0  0  0
    0.2968   -2.1514   -0.8527 C   0  0  0  0  0  0  0  0  0  0  0  0
    3.6876    2.0885   -0.8881 C   0  0  0  0  0  0  0  0  0  0  0  0
  1 15  1  0
  2  8  1  0
  2 16  1  0
  3 10  2  0
  4  5  1  0
  4  6  1  0
  4 10  1  0
  5  8  1  0
  6  7  2  0
  6  9  1  0
  7 11  1  0
  7 12  1  0
  9 13  2  0
 10 15  1  0
 11 14  2  0
 13 14  1  0
M  END
>  <PUBCHEM_COMPOUND_CID>  (1) 
39723

>  <PUBCHEM_CONFORMER_RMSD>  (1) 
0.8

>  <PUBCHEM_CONFORMER_DIVERSEORDER>  (1) 
1
13
20
35
16
21
32
31
24
30
37
11
19
6
29
15
17
34
36
28
23
18
12
14
22
33
2
9
25
8
3
26
10
27
5
4
7

>  <PUBCHEM_MMFF94_PARTIAL_CHARGES>  (1) 
20
1 -0.29
10 0.57
11 -0.15
12 0.14
13 -0.15
14 -0.15
15 0.35
16 0.28
2 -0.56
21 0.15
22 0.15
26 0.15
27 0.15
3 -0.57
4 -0.48
5 0.3
6 0.12
7 -0.14
8 0.28
9 -0.15

>  <PUBCHEM_EFFECTIVE_ROTOR_COUNT>  (1) 
6

>  <PUBCHEM_PHARMACOPHORE_FEATURES>  (1) 
3
1 2 acceptor
1 3 acceptor
6 6 7 9 11 13 14 rings

>  <PUBCHEM_HEAVY_ATOM_COUNT>  (1) 
16

>  <PUBCHEM_ATOM_DEF_STEREO_COUNT>  (1) 
0

>  <PUBCHEM_ATOM_UDEF_STEREO_COUNT>  (1) 
0

>  <PUBCHEM_BOND_DEF_STEREO_COUNT>  (1) 
0

>  <PUBCHEM_BOND_UDEF_STEREO_COUNT>  (1) 
0

>  <PUBCHEM_ISOTOPIC_ATOM_COUNT>  (1) 
0

>  <PUBCHEM_COMPONENT_COUNT>  (1) 
1

>  <PUBCHEM_CACTVS_TAUTO_COUNT>  (1) 
1

>  <PUBCHEM_CONFORMER_ID>  (1) 
00009B2B00000001

>  <PUBCHEM_MMFF94_ENERGY>  (1) 
61.8522

>  <PUBCHEM_FEATURE_SELFOVERLAP>  (1) 
15.225

>  <PUBCHEM_SHAPE_FINGERPRINT>  (1) 
107287 299 18409449193420251337
11031198 65 18412818092789914281
11322862 65 17840888565712566814
13681431 1 18052818048876164390
13839132 238 17603857884447176329
14648413 74 18117833309244856589
14817 1 9845271176929192443
15219456 202 18187363212081599281
15309172 13 18269559488612021201
15490181 7 18123458651593345936
16945 1 18198619943554947203
18186145 218 17987525973328081096
19786989 88 18410855438906539415
20344682 1 18189619521937772075
20361792 2 17412458039973816599
20379382 53 18198647457052012227
20711985 344 17546713216194258962
20871998 184 18043536233770573649
21501502 16 18334565850430617379
21524375 3 18263072374635335000
21947302 44 18188478069648655313
22713019 5 16682587790207315501
22802520 49 18117279155637554573
23114952 82 18264209110417650477
23419403 2 17544817438894125378
23526113 38 17900823747485450739
23557571 272 17605021198125299355
23559900 14 17749942255104408746
2748010 2 18339081591746060146
3729539 64 18123503568936328174
458136 41 18342749524018823671
5845 1 16194516863755705734
77492 1 16773503396273557315
81228 2 17258769851031610138
84936 31 18341897350872588806

>  <PUBCHEM_SHAPE_MULTIPOLES>  (1) 
314.42
5.07
3
1.61
0.09
2.9
0.3
-3.07
-0.92
-3.1
-1.36
0.65
0.04
0.85

>  <PUBCHEM_SHAPE_SELFOVERLAP>  (1) 
625.052

>  <PUBCHEM_SHAPE_VOLUME>  (1) 
187.9

>  <PUBCHEM_COORDINATE_TYPE>  (1) 
2
5
10

$$$$
