39724
     RDKit          3D

 22 23  0  0  0  0  0  0  0  0999 V2000
   -5.8734   -0.7983    0.6495 O   0  0  0  0  0  0  0  0  0  0  0  0
    5.9046   -1.1333   -0.0759 O   0  0  0  0  0  0  0  0  0  0  0  0
   -1.1378    1.9219   -0.3993 N   0  0  0  0  0  0  0  0  0  0  0  0
    0.5304    0.2491   -0.0398 N   0  0  0  0  0  0  0  0  0  0  0  0
    1.0370    2.4810   -0.7455 N   0  0  0  0  0  0  0  0  0  0  0  0
   -2.3396    1.2314   -0.1336 C   0  0  0  0  0  0  0  0  0  0  0  0
   -4.7144   -0.1326    0.3928 C   0  0  0  0  0  0  0  0  0  0  0  0
   -3.4449    1.9228    0.3609 C   0  0  0  0  0  0  0  0  0  0  0  0
   -2.4204   -0.1413   -0.3650 C   0  0  0  0  0  0  0  0  0  0  0  0
   -4.6327    1.2405    0.6241 C   0  0  0  0  0  0  0  0  0  0  0  0
   -3.6082   -0.8236   -0.1018 C   0  0  0  0  0  0  0  0  0  0  0  0
    1.8847   -0.0993   -0.0489 C   0  0  0  0  0  0  0  0  0  0  0  0
    4.5862   -0.7950   -0.0666 C   0  0  0  0  0  0  0  0  0  0  0  0
    0.1740    1.4683   -0.3651 C   0  0  0  0  0  0  0  0  0  0  0  0
    2.6542    0.0632    1.1031 C   0  0  0  0  0  0  0  0  0  0  0  0
    2.4659   -0.6096   -1.2097 C   0  0  0  0  0  0  0  0  0  0  0  0
    4.0050   -0.2847    1.0941 C   0  0  0  0  0  0  0  0  0  0  0  0
    3.8167   -0.9575   -1.2185 C   0  0  0  0  0  0  0  0  0  0  0  0
   -6.1555   -1.9442   -0.1524 C   0  0  0  0  0  0  0  0  0  0  0  0
    6.7695   -0.3984    0.7887 C   0  0  0  0  0  0  0  0  0  0  0  0
   -7.6560   -2.1061   -0.2705 C   0  0  0  0  0  0  0  0  0  0  0  0
    8.1546   -0.3544    0.1794 C   0  0  0  0  0  0  0  0  0  0  0  0
  1  7  1  0
  1 19  1  0
  2 13  1  0
  2 20  1  0
  3  6  1  0
  3 14  1  0
  4 12  1  0
  4 14  2  0
  5 14  1  0
  6  8  2  0
  6  9  1  0
  7 10  2  0
  7 11  1  0
  8 10  1  0
  9 11  2  0
 12 15  2  0
 12 16  1  0
 13 17  2  0
 13 18  1  0
 15 17  1  0
 16 18  2  0
 19 21  1  0
 20 22  1  0
M  END
>  <PUBCHEM_COMPOUND_CID>  (1) 
39724

>  <PUBCHEM_CONFORMER_RMSD>  (1) 
0.8

>  <PUBCHEM_CONFORMER_DIVERSEORDER>  (1) 
1
39
18
37
31
16
24
27
15
29
21
17
35
8
32
30
12
20
6
10
38
7
11
28
2
22
9
14
4
19
36
25
23
34
33
3
5
26
13

>  <PUBCHEM_MMFF94_PARTIAL_CHARGES>  (1) 
31
1 -0.36
10 -0.15
11 -0.15
12 0.18
13 0.08
14 0.55
15 -0.15
16 -0.15
17 -0.15
18 -0.15
19 0.28
2 -0.36
20 0.28
23 0.15
24 0.15
25 0.15
26 0.15
27 0.4
28 0.15
29 0.15
3 -0.55
30 0.15
31 0.15
4 -0.63
42 0.4
43 0.4
5 -0.85
6 0.1
7 0.08
8 -0.15
9 -0.15

>  <PUBCHEM_EFFECTIVE_ROTOR_COUNT>  (1) 
7

>  <PUBCHEM_PHARMACOPHORE_FEATURES>  (1) 
7
1 1 acceptor
1 2 acceptor
1 3 donor
1 5 donor
4 3 4 5 14 cation
6 12 13 15 16 17 18 rings
6 6 7 8 9 10 11 rings

>  <PUBCHEM_HEAVY_ATOM_COUNT>  (1) 
22

>  <PUBCHEM_ATOM_DEF_STEREO_COUNT>  (1) 
0

>  <PUBCHEM_ATOM_UDEF_STEREO_COUNT>  (1) 
0

>  <PUBCHEM_BOND_DEF_STEREO_COUNT>  (1) 
0

>  <PUBCHEM_BOND_UDEF_STEREO_COUNT>  (1) 
0

>  <PUBCHEM_ISOTOPIC_ATOM_COUNT>  (1) 
0

>  <PUBCHEM_COMPONENT_COUNT>  (1) 
1

>  <PUBCHEM_CACTVS_TAUTO_COUNT>  (1) 
2

>  <PUBCHEM_CONFORMER_ID>  (1) 
00009B2C00000001

>  <PUBCHEM_MMFF94_ENERGY>  (1) 
83.4481

>  <PUBCHEM_FEATURE_SELFOVERLAP>  (1) 
35.578

>  <PUBCHEM_SHAPE_FINGERPRINT>  (1) 
106641 1 18273210928764009218
11135609 99 18265053711958938887
11211813 128 18272370876316748270
11315181 36 18410013221869575377
11724838 91 18187366546004843260
12236239 1 17386008321895407860
12596602 18 17418099780275664667
12730499 353 17489306357389162046
13288520 33 18335420158449911761
13533116 47 18267584787931495553
13862211 1 18335140903829017771
14123256 34 18334582373623856059
14251764 18 18060419140109736678
14341114 176 16845294912871729864
15183329 4 13045934699041620709
15188451 53 18272930540551219731
17780758 139 18131635556756160193
18222031 100 18260547840193122093
18335252 98 18272653438194367782
190975 80 18342736338658999186
193927 3 18336840766243579763
200 152 16081374003696221364
20028762 73 18342739658817237319
21033648 29 17131255858305937313
21054139 6 17967533458805233826
21130935 74 18271808952665559098
21267235 1 18410294726383146483
21315759 148 17560529399713895014
21315763 178 17677051235241541369
21585482 111 9870935458350997003
21623969 137 17418096494746781518
221357 26 13695581157124697735
22224240 67 17346593084502226478
22896161 15 18408886239878504120
23402539 116 16009034925907116572
23522609 53 18119280343967938060
23559900 14 18413099555114150273
23622692 118 18407760357051882205
3004659 81 17822288020167967423
3009799 131 12973606630050130916
312425 54 17703241633076807587
3383291 50 18335143137450123355
351380 3 18333168375557717419
4325135 7 18334860520185327300
445580 204 11891319938292070551
5104073 3 17844814685121951938
5385378 56 11599738267620245188
559249 180 18408885132125127295
59682541 35 18130502024665928858
59682541 52 13118268249160519088
59755656 520 10231750068048577896
7495541 125 18413386519580895312

>  <PUBCHEM_SHAPE_MULTIPOLES>  (1) 
426.07
20.34
2
0.98
5.63
0.58
-0.02
-12.89
3.26
-3.3
-0.32
0.79
-0.03
-0.18

>  <PUBCHEM_SHAPE_SELFOVERLAP>  (1) 
890.527

>  <PUBCHEM_SHAPE_VOLUME>  (1) 
240.5

>  <PUBCHEM_COORDINATE_TYPE>  (1) 
2
5
10

$$$$
