39739
     RDKit          3D

 14 14  0  0  1  0  0  0  0  0999 V2000
   -3.5562    0.6542    0.2464 N   0  0  0  0  0  0  0  0  0  0  0  0
   -0.2075   -3.0263    0.6378 N   0  0  0  0  0  0  0  0  0  0  0  0
   -1.1365    0.2854    0.0781 C   0  0  0  0  0  0  0  0  0  0  0  0
   -0.0025   -0.6261   -0.4408 C   0  0  0  0  0  0  0  0  0  0  0  0
   -2.5305   -0.2456   -0.2702 C   0  0  0  0  0  0  0  0  0  0  0  0
    1.3849   -0.0525   -0.2138 C   0  0  0  0  0  0  0  0  0  0  0  0
   -4.8924    0.1374   -0.0533 C   0  0  0  0  0  0  0  0  0  0  0  0
   -3.3930    1.9965   -0.3138 C   0  0  0  0  0  0  0  0  0  0  0  0
    1.6225    0.6984    0.9214 C   0  0  0  0  0  0  0  0  0  0  0  0
    2.3731   -0.2971   -1.1481 C   0  0  0  0  0  0  0  0  0  0  0  0
   -0.1161   -1.9704    0.1650 C   0  0  0  0  0  0  0  0  0  0  0  0
    2.8970    1.2254    1.1303 C   0  0  0  0  0  0  0  0  0  0  0  0
    3.6476    0.2298   -0.9390 C   0  0  0  0  0  0  0  0  0  0  0  0
    3.9095    0.9909    0.2002 C   0  0  0  0  0  0  0  0  0  0  0  0
  1  5  1  0
  1  7  1  0
  1  8  1  0
  2 11  3  0
  3  4  1  0
  3  5  1  0
  4  6  1  0
  4 11  1  0
  6  9  2  0
  6 10  1  0
  9 12  1  0
 10 13  2  0
 12 14  2  0
 13 14  1  0
M  END
>  <PUBCHEM_COMPOUND_CID>  (1) 
39739

>  <PUBCHEM_CONFORMER_RMSD>  (1) 
0.6

>  <PUBCHEM_CONFORMER_DIVERSEORDER>  (1) 
1
26
20
10
19
23
16
25
21
17
24
22
15
13
14
9
2
5
8
11
7
12
18
6
3
4

>  <PUBCHEM_MMFF94_PARTIAL_CHARGES>  (1) 
18
1 -0.81
10 -0.15
11 0.36
12 -0.15
13 -0.15
14 -0.15
2 -0.56
26 0.15
27 0.15
28 0.15
29 0.15
30 0.15
4 0.34
5 0.27
6 -0.14
7 0.27
8 0.27
9 -0.15

>  <PUBCHEM_EFFECTIVE_ROTOR_COUNT>  (1) 
4

>  <PUBCHEM_PHARMACOPHORE_FEATURES>  (1) 
3
1 1 cation
1 2 acceptor
6 6 9 10 12 13 14 rings

>  <PUBCHEM_HEAVY_ATOM_COUNT>  (1) 
14

>  <PUBCHEM_ATOM_DEF_STEREO_COUNT>  (1) 
0

>  <PUBCHEM_ATOM_UDEF_STEREO_COUNT>  (1) 
1

>  <PUBCHEM_BOND_DEF_STEREO_COUNT>  (1) 
0

>  <PUBCHEM_BOND_UDEF_STEREO_COUNT>  (1) 
0

>  <PUBCHEM_ISOTOPIC_ATOM_COUNT>  (1) 
0

>  <PUBCHEM_COMPONENT_COUNT>  (1) 
1

>  <PUBCHEM_CACTVS_TAUTO_COUNT>  (1) 
1

>  <PUBCHEM_CONFORMER_ID>  (1) 
00009B3B00000001

>  <PUBCHEM_MMFF94_ENERGY>  (1) 
33.8369

>  <PUBCHEM_FEATURE_SELFOVERLAP>  (1) 
15.223

>  <PUBCHEM_SHAPE_FINGERPRINT>  (1) 
10498660 4 18337950082960718781
10608611 8 18129658754670672520
10922049 32 18412547617292910063
11471102 20 17489591164695998140
11543360 7 16343693365941944493
122479 349 18270397325320666760
12251169 10 13912324603037178680
12346645 44 18408884006120989783
12500047 106 18338518650889021022
12532896 13 18411133683889054094
13081056 2 18273215300598007397
13294875 104 18199731592892294458
14648413 74 17984980659802240496
15775835 57 18411980256265378087
18186145 218 18131356292970051889
200 152 15195574489565306844
201361 129 18195251018468299529
20645477 56 18338234985246984824
20645477 70 17060349500318501132
21119208 17 15913330190882481125
21524375 3 18413107251457712959
22485316 2 9511461112993844365
23402539 116 18342166791562042788
23402655 69 17346882242959203368
23526113 38 17988379086929391702
23559900 14 18272093812408106830
25 1 18202005399822738492
2748010 2 17701264869941034776
276578 36 18187080646357294882
305870 269 18335132042936790427
366044 4 18408041827063407106
4028521 119 18201998807343799389
4047638 21 18131634499766755092
4990 188 17917998260665462533
6333272 397 18336265729735430609
633830 44 18272650125846128909
69090 78 17775563169517641455
7364860 26 18124593076878804783
81228 2 17903068172703262107
81539 233 18114176389779949211

>  <PUBCHEM_SHAPE_MULTIPOLES>  (1) 
278.15
7.99
1.99
0.99
5.45
1.38
-0.01
-4.12
-0.63
0.64
0.5
-0.77
-0.04
0.61

>  <PUBCHEM_SHAPE_SELFOVERLAP>  (1) 
560.103

>  <PUBCHEM_SHAPE_VOLUME>  (1) 
161.6

>  <PUBCHEM_COORDINATE_TYPE>  (1) 
2
5
10

$$$$
