39759
     RDKit          3D

 27 30  0  0  1  0  0  0  0  0999 V2000
   -3.8867    1.0809    3.5614 Cl  0  0  0  0  0  0  0  0  0  0  0  0
    0.4559    2.3117   -3.1392 O   0  0  0  0  0  0  0  0  0  0  0  0
    5.7206   -0.9989    2.4181 O   0  0  0  0  0  0  0  0  0  0  0  0
    0.1751   -0.2309   -1.0833 N   0  0  0  0  0  0  0  0  0  0  0  0
   -1.1526    2.4394   -1.5255 N   0  0  0  0  0  0  0  0  0  0  0  0
    0.8408    1.0586   -1.1136 C   0  0  0  0  0  0  0  0  0  0  0  0
    2.2554    0.8348   -1.6390 C   0  0  0  0  0  0  0  0  0  0  0  0
   -0.9412   -0.3535   -0.4508 C   0  0  0  0  0  0  0  0  0  0  0  0
   -1.6540    0.7604    0.2424 C   0  0  0  0  0  0  0  0  0  0  0  0
    0.0386    1.9622   -2.0338 C   0  0  0  0  0  0  0  0  0  0  0  0
   -1.8025    2.0269   -0.3442 C   0  0  0  0  0  0  0  0  0  0  0  0
    3.1793    0.3457   -0.5570 C   0  0  0  0  0  0  0  0  0  0  0  0
   -1.5632   -1.7090   -0.4551 C   0  0  0  0  0  0  0  0  0  0  0  0
   -2.2876    0.4831    1.4649 C   0  0  0  0  0  0  0  0  0  0  0  0
   -2.6698    2.9567    0.2493 C   0  0  0  0  0  0  0  0  0  0  0  0
    3.8820    1.2651    0.2096 C   0  0  0  0  0  0  0  0  0  0  0  0
    3.3167   -1.0186   -0.3398 C   0  0  0  0  0  0  0  0  0  0  0  0
   -3.1071    1.4358    2.0689 C   0  0  0  0  0  0  0  0  0  0  0  0
   -3.3126    2.6652    1.4523 C   0  0  0  0  0  0  0  0  0  0  0  0
   -2.9467   -1.8287   -0.4177 C   0  0  0  0  0  0  0  0  0  0  0  0
   -0.7520   -2.8358   -0.4967 C   0  0  0  0  0  0  0  0  0  0  0  0
    4.7388    0.8117    1.2126 C   0  0  0  0  0  0  0  0  0  0  0  0
    4.1734   -1.4721    0.6632 C   0  0  0  0  0  0  0  0  0  0  0  0
    4.8844   -0.5570    1.4395 C   0  0  0  0  0  0  0  0  0  0  0  0
   -3.5286   -3.0965   -0.4219 C   0  0  0  0  0  0  0  0  0  0  0  0
   -1.3340   -4.1035   -0.5009 C   0  0  0  0  0  0  0  0  0  0  0  0
   -2.7223   -4.2338   -0.4636 C   0  0  0  0  0  0  0  0  0  0  0  0
  1 18  1  0
  2 10  2  0
  3 24  1  0
  4  6  1  0
  4  8  2  0
  5 10  1  0
  5 11  1  0
  6  7  1  0
  6 10  1  0
  7 12  1  0
  8  9  1  0
  8 13  1  0
  9 11  2  0
  9 14  1  0
 11 15  1  0
 12 16  2  0
 12 17  1  0
 13 20  2  0
 13 21  1  0
 14 18  2  0
 15 19  2  0
 16 22  1  0
 17 23  2  0
 18 19  1  0
 20 25  1  0
 21 26  2  0
 22 24  2  0
 23 24  1  0
 25 27  2  0
 26 27  1  0
M  END
>  <PUBCHEM_COMPOUND_CID>  (1) 
39759

>  <PUBCHEM_CONFORMER_RMSD>  (1) 
0.8

>  <PUBCHEM_CONFORMER_DIVERSEORDER>  (1) 
1
4
8
7
6
5
3
2

>  <PUBCHEM_MMFF94_PARTIAL_CHARGES>  (1) 
41
1 -0.18
10 0.57
11 0.12
12 -0.14
13 0.09
14 -0.15
15 -0.15
16 -0.15
17 -0.15
18 0.18
19 -0.15
2 -0.57
20 -0.15
21 -0.15
22 -0.15
23 -0.15
24 0.08
25 -0.15
26 -0.15
27 -0.15
3 -0.53
31 0.37
32 0.15
33 0.15
34 0.15
35 0.15
36 0.15
37 0.15
38 0.15
39 0.15
4 -0.7
40 0.15
41 0.15
42 0.15
43 0.15
44 0.45
5 -0.55
6 0.31
7 0.14
8 0.28
9 0.09

>  <PUBCHEM_EFFECTIVE_ROTOR_COUNT>  (1) 
3.4

>  <PUBCHEM_PHARMACOPHORE_FEATURES>  (1) 
8
1 2 acceptor
1 3 donor
1 4 acceptor
1 5 donor
6 12 16 17 22 23 24 rings
6 13 20 21 25 26 27 rings
6 9 11 14 15 18 19 rings
7 4 5 6 8 9 10 11 rings

>  <PUBCHEM_HEAVY_ATOM_COUNT>  (1) 
27

>  <PUBCHEM_ATOM_DEF_STEREO_COUNT>  (1) 
1

>  <PUBCHEM_ATOM_UDEF_STEREO_COUNT>  (1) 
0

>  <PUBCHEM_BOND_DEF_STEREO_COUNT>  (1) 
0

>  <PUBCHEM_BOND_UDEF_STEREO_COUNT>  (1) 
0

>  <PUBCHEM_ISOTOPIC_ATOM_COUNT>  (1) 
0

>  <PUBCHEM_COMPONENT_COUNT>  (1) 
1

>  <PUBCHEM_CACTVS_TAUTO_COUNT>  (1) 
6

>  <PUBCHEM_CONFORMER_ID>  (1) 
00009B4F00000001

>  <PUBCHEM_MMFF94_ENERGY>  (1) 
98.1308

>  <PUBCHEM_FEATURE_SELFOVERLAP>  (1) 
40.608

>  <PUBCHEM_SHAPE_FINGERPRINT>  (1) 
10074138 170 18343306989658016707
11070050 100 17124848978412873995
11552529 35 18340477950534182960
11578080 2 18046606065825189973
11582403 64 16448662422690998965
12160290 23 17915205553292946279
12293681 160 16752434880700956189
12422481 6 18118709655025709945
12633257 1 18342457024198875976
12788726 201 18124047967992573918
12839892 36 18122939519376164249
13004483 165 18195233636477605551
13583140 156 17203032050687462378
13965767 371 18120942706837837682
14178342 30 18412828001654038814
14537116 161 8284510432041038523
14739800 52 16766505915639579929
150020 26 17612883595401762706
15842332 3 18116167729865438996
17809404 112 14635690043604140632
1979834 28 17905645149418878649
20600515 1 17056135261175691531
20642791 105 18409726301275078151
21033648 29 18127140666811315104
23419403 2 17839432803606468965
23598288 3 17241045380136999948
3380486 145 18040708208165344284
3380486 77 18116436027903890007
345986 75 17979927325704183419
392239 28 17622722442179885824
4340502 62 17915190027076283705
484985 159 17752172077808291278
7064713 232 18270694073079685043
81228 2 17769971113877605687
9981440 41 16486964043151334094

>  <PUBCHEM_SHAPE_MULTIPOLES>  (1) 
535.82
9.05
4.59
2.52
12.52
4.46
-0.75
0.49
-7.74
-6.51
0.86
-0.14
-2.11
-2.56

>  <PUBCHEM_SHAPE_SELFOVERLAP>  (1) 
1176.893

>  <PUBCHEM_SHAPE_VOLUME>  (1) 
288

>  <PUBCHEM_COORDINATE_TYPE>  (1) 
2
5
10

$$$$
