39755
     RDKit          3D

 33 36  0  0  0  0  0  0  0  0999 V2000
    0.8150    5.3326    0.0714 S   0  0  0  0  0  0  0  0  0  0  0  0
    1.9815   -0.3958   -1.6248 O   0  0  0  0  0  0  0  0  0  0  0  0
   -1.7118   -0.4402    1.4370 O   0  0  0  0  0  0  0  0  0  0  0  0
    3.1085    1.1637    0.5274 O   0  0  0  0  0  0  0  0  0  0  0  0
   -2.6477    1.8547    0.0042 O   0  0  0  0  0  0  0  0  0  0  0  0
    1.0038    1.2907    1.5124 O   0  0  0  0  0  0  0  0  0  0  0  0
   -1.0092    1.5326   -1.6158 O   0  0  0  0  0  0  0  0  0  0  0  0
    2.2076    3.1941    0.9570 N   0  0  0  0  0  0  0  0  0  0  0  0
   -1.1279    3.5254   -0.4364 N   0  0  0  0  0  0  0  0  0  0  0  0
    1.7058   -1.5199   -2.5099 C   0  0  0  0  0  0  0  0  0  0  0  0
   -1.6931   -1.7741    2.0234 C   0  0  0  0  0  0  0  0  0  0  0  0
    1.7366   -2.8255   -1.6813 C   0  0  0  0  0  0  0  0  0  0  0  0
   -2.4618   -2.7388    1.0905 C   0  0  0  0  0  0  0  0  0  0  0  0
    2.4112   -2.3383   -0.4570 C   0  0  0  0  0  0  0  0  0  0  0  0
   -3.1754   -1.7606    0.2389 C   0  0  0  0  0  0  0  0  0  0  0  0
    2.4940   -0.9566   -0.4848 C   0  0  0  0  0  0  0  0  0  0  0  0
   -2.6837   -0.4877    0.4728 C   0  0  0  0  0  0  0  0  0  0  0  0
    2.7780   -1.5218   -3.6070 C   0  0  0  0  0  0  0  0  0  0  0  0
    0.3265   -1.2915   -3.1300 C   0  0  0  0  0  0  0  0  0  0  0  0
   -0.2297   -2.1940    2.1680 C   0  0  0  0  0  0  0  0  0  0  0  0
   -2.3496   -1.6831    3.4068 C   0  0  0  0  0  0  0  0  0  0  0  0
    2.8778   -3.0552    0.6303 C   0  0  0  0  0  0  0  0  0  0  0  0
   -4.1564   -1.9785   -0.7121 C   0  0  0  0  0  0  0  0  0  0  0  0
    3.0398   -0.2358    0.5602 C   0  0  0  0  0  0  0  0  0  0  0  0
   -3.1436    0.6130   -0.2245 C   0  0  0  0  0  0  0  0  0  0  0  0
    3.4419   -2.3485    1.6954 C   0  0  0  0  0  0  0  0  0  0  0  0
   -4.6432   -0.8791   -1.4237 C   0  0  0  0  0  0  0  0  0  0  0  0
    3.5216   -0.9468    1.6607 C   0  0  0  0  0  0  0  0  0  0  0  0
   -4.1389    0.4091   -1.1818 C   0  0  0  0  0  0  0  0  0  0  0  0
    2.0044    1.8329    1.0538 C   0  0  0  0  0  0  0  0  0  0  0  0
   -1.5307    2.2480   -0.7660 C   0  0  0  0  0  0  0  0  0  0  0  0
    1.2573    4.1880    1.4101 C   0  0  0  0  0  0  0  0  0  0  0  0
   -0.0085    4.1870   -1.0654 C   0  0  0  0  0  0  0  0  0  0  0  0
  1 32  1  0
  1 33  1  0
  2 10  1  0
  2 16  1  0
  3 11  1  0
  3 17  1  0
  4 24  1  0
  4 30  1  0
  5 25  1  0
  5 31  1  0
  6 30  2  0
  7 31  2  0
  8 30  1  0
  8 32  1  0
  9 31  1  0
  9 33  1  0
 10 12  1  0
 10 18  1  0
 10 19  1  0
 11 13  1  0
 11 20  1  0
 11 21  1  0
 12 14  1  0
 13 15  1  0
 14 16  2  0
 14 22  1  0
 15 17  2  0
 15 23  1  0
 16 24  1  0
 17 25  1  0
 22 26  2  0
 23 27  2  0
 24 28  2  0
 25 29  2  0
 26 28  1  0
 27 29  1  0
M  END
>  <PUBCHEM_COMPOUND_CID>  (1) 
39755

>  <PUBCHEM_CONFORMER_RMSD>  (1) 
1.4

>  <PUBCHEM_CONFORMER_DIVERSEORDER>  (1) 
2
26
35
22
3
39
25
67
60
14
24
44
38
72
1
40
74
55
45
27
47
17
32
75
30
43
18
9
64
5
49
28
42
73
51
52
46
37
10
57
68
36
29
71
69
12
65
11
63
33
7
66
48
62
56
31
34
59
21
70
54
53
58
20
8
61
23
13
15
4
41
19
6
16
50

>  <PUBCHEM_MMFF94_PARTIAL_CHARGES>  (1) 
37
1 -0.46
10 0.28
11 0.28
12 0.14
13 0.14
14 -0.14
15 -0.14
16 0.08
17 0.08
2 -0.36
22 -0.15
23 -0.15
24 0.08
25 0.08
26 -0.15
27 -0.15
28 -0.15
29 -0.15
3 -0.36
30 0.78
31 0.78
32 0.53
33 0.53
4 -0.23
5 -0.23
50 0.15
51 0.15
52 0.15
53 0.15
54 0.15
55 0.15
56 0.37
57 0.37
6 -0.57
7 -0.57
8 -0.73
9 -0.73

>  <PUBCHEM_EFFECTIVE_ROTOR_COUNT>  (1) 
11.2

>  <PUBCHEM_PHARMACOPHORE_FEATURES>  (1) 
12
1 2 acceptor
1 3 acceptor
1 6 acceptor
1 7 acceptor
1 8 donor
1 9 donor
3 10 18 19 hydrophobe
3 11 20 21 hydrophobe
5 2 10 12 14 16 rings
5 3 11 13 15 17 rings
6 14 16 22 24 26 28 rings
6 15 17 23 25 27 29 rings

>  <PUBCHEM_HEAVY_ATOM_COUNT>  (1) 
33

>  <PUBCHEM_ATOM_DEF_STEREO_COUNT>  (1) 
0

>  <PUBCHEM_ATOM_UDEF_STEREO_COUNT>  (1) 
0

>  <PUBCHEM_BOND_DEF_STEREO_COUNT>  (1) 
0

>  <PUBCHEM_BOND_UDEF_STEREO_COUNT>  (1) 
0

>  <PUBCHEM_ISOTOPIC_ATOM_COUNT>  (1) 
0

>  <PUBCHEM_COMPONENT_COUNT>  (1) 
1

>  <PUBCHEM_CACTVS_TAUTO_COUNT>  (1) 
3

>  <PUBCHEM_CONFORMER_ID>  (1) 
00009B4B00000002

>  <PUBCHEM_MMFF94_ENERGY>  (1) 
95.2085

>  <PUBCHEM_FEATURE_SELFOVERLAP>  (1) 
61.096

>  <PUBCHEM_SHAPE_FINGERPRINT>  (1) 
10366900 7 18335136505518658846
11828532 37 18113886175146268903
12156800 1 14079346865926272027
12160290 23 17761234127530992304
12633257 1 18340765919053039475
12788726 201 17975999582137608749
13383668 90 15322719587445542727
133893 2 17984726629476315643
1361 2 17690544708816333215
13642711 20 17467295259317795221
14747281 78 18262528103758648957
20397935 3 18187377488684727654
20764821 26 18263648376730481976
21860390 5 18338506543059449096
23559900 14 18119229895424043065
238 59 18199183077944029738
3493558 16 13412158104135459328
35225 105 17174011424244903822
469060 322 17628314351548414535
5080951 261 16259596957632061422
550186 7 18053367813628211466
6287921 2 17551553197106604771

>  <PUBCHEM_SHAPE_MULTIPOLES>  (1) 
637.8
6.95
5.89
3.09
4.4
9.55
1.03
-4.23
0.38
-2.78
-0.79
-0.91
-2.46
1.88

>  <PUBCHEM_SHAPE_SELFOVERLAP>  (1) 
1357.362

>  <PUBCHEM_SHAPE_VOLUME>  (1) 
362.8

>  <PUBCHEM_COORDINATE_TYPE>  (1) 
2
5
10

$$$$
