39756
     RDKit          3D

 29 32  0  0  1  0  0  0  0  0999 V2000
    7.6226    0.1386    0.9631 O   0  0  0  0  0  0  0  0  0  0  0  0
   -0.5153   -2.9035   -1.5123 O   0  0  0  0  0  0  0  0  0  0  0  0
    3.4146    0.4399    0.1967 C   0  0  0  0  0  0  0  0  0  0  0  0
    1.8774    0.4331    0.5475 C   0  0  0  0  0  0  0  0  0  0  0  0
   -0.7031    0.6294   -0.9790 C   0  0  0  0  0  0  0  0  0  0  0  0
    4.0206   -0.9114    0.6998 C   0  0  0  0  0  0  0  0  0  0  0  0
    1.1754   -0.7983   -0.0437 C   0  0  0  0  0  0  0  0  0  0  0  0
    1.1766    1.7843    0.2539 C   0  0  0  0  0  0  0  0  0  0  0  0
    0.0356   -0.6723   -0.7462 C   0  0  0  0  0  0  0  0  0  0  0  0
   -2.1800    0.1633   -0.8612 C   0  0  0  0  0  0  0  0  0  0  0  0
   -0.3393    1.6465    0.1167 C   0  0  0  0  0  0  0  0  0  0  0  0
    4.1403    1.5944    0.9413 C   0  0  0  0  0  0  0  0  0  0  0  0
    3.3338   -2.1208    0.0522 C   0  0  0  0  0  0  0  0  0  0  0  0
    1.8286   -2.1115    0.3235 C   0  0  0  0  0  0  0  0  0  0  0  0
    5.5448   -0.9823    0.5432 C   0  0  0  0  0  0  0  0  0  0  0  0
    3.6223    0.6216   -1.3321 C   0  0  0  0  0  0  0  0  0  0  0  0
   -2.2301   -1.2104   -1.5479 C   0  0  0  0  0  0  0  0  0  0  0  0
    5.6630    1.5355    0.8103 C   0  0  0  0  0  0  0  0  0  0  0  0
    6.2288    0.1884    1.2482 C   0  0  0  0  0  0  0  0  0  0  0  0
   -0.8512   -1.7538   -1.2800 C   0  0  0  0  0  0  0  0  0  0  0  0
   -3.2203    1.1255   -1.4217 C   0  0  0  0  0  0  0  0  0  0  0  0
   -0.3603    1.1800   -2.3787 C   0  0  0  0  0  0  0  0  0  0  0  0
   -4.6645    0.6189   -1.2302 C   0  0  0  0  0  0  0  0  0  0  0  0
   -3.0733    2.4999   -0.7578 C   0  0  0  0  0  0  0  0  0  0  0  0
   -5.0895    0.3255    0.2147 C   0  0  0  0  0  0  0  0  0  0  0  0
   -6.5074   -0.2429    0.3311 C   0  0  0  0  0  0  0  0  0  0  0  0
   -6.9593   -0.4703    1.7870 C   0  0  0  0  0  0  0  0  0  0  0  0
   -6.8976    0.8064    2.6271 C   0  0  0  0  0  0  0  0  0  0  0  0
   -6.0929   -1.5538    2.4346 C   0  0  0  0  0  0  0  0  0  0  0  0
  1 19  1  0
  2 20  2  0
  3  4  1  0
  3  6  1  0
  3 12  1  0
  3 16  1  0
  4  7  1  0
  4  8  1  0
  5  9  1  0
  5 10  1  0
  5 11  1  0
  5 22  1  0
  6 13  1  0
  6 15  1  0
  7  9  2  0
  7 14  1  0
  8 11  1  0
  9 20  1  0
 10 17  1  0
 10 21  1  0
 12 18  1  0
 13 14  1  0
 15 19  1  0
 17 20  1  0
 18 19  1  0
 21 23  1  0
 21 24  1  0
 23 25  1  0
 25 26  1  0
 26 27  1  0
 27 28  1  0
 27 29  1  0
M  END
>  <PUBCHEM_COMPOUND_CID>  (1) 
39756

>  <PUBCHEM_CONFORMER_RMSD>  (1) 
0.8

>  <PUBCHEM_CONFORMER_DIVERSEORDER>  (1) 
4
8
11
3
10
9
6
5
14
1
2
12
7
13

>  <PUBCHEM_MMFF94_PARTIAL_CHARGES>  (1) 
11
1 -0.68
14 0.14
17 0.06
19 0.28
2 -0.57
20 0.49
4 0.14
5 0.14
62 0.4
7 -0.28
9 -0.12

>  <PUBCHEM_EFFECTIVE_ROTOR_COUNT>  (1) 
7

>  <PUBCHEM_PHARMACOPHORE_FEATURES>  (1) 
10
1 1 acceptor
1 1 donor
1 2 acceptor
1 24 hydrophobe
3 27 28 29 hydrophobe
5 21 23 25 26 27 hydrophobe
5 5 9 10 17 20 rings
6 3 4 6 7 13 14 rings
6 3 6 12 15 18 19 rings
6 4 5 7 8 9 11 rings

>  <PUBCHEM_HEAVY_ATOM_COUNT>  (1) 
29

>  <PUBCHEM_ATOM_DEF_STEREO_COUNT>  (1) 
5

>  <PUBCHEM_ATOM_UDEF_STEREO_COUNT>  (1) 
2

>  <PUBCHEM_BOND_DEF_STEREO_COUNT>  (1) 
0

>  <PUBCHEM_BOND_UDEF_STEREO_COUNT>  (1) 
0

>  <PUBCHEM_ISOTOPIC_ATOM_COUNT>  (1) 
0

>  <PUBCHEM_COMPONENT_COUNT>  (1) 
1

>  <PUBCHEM_CACTVS_TAUTO_COUNT>  (1) 
8

>  <PUBCHEM_CONFORMER_ID>  (1) 
00009B4C00000004

>  <PUBCHEM_MMFF94_ENERGY>  (1) 
81.3496

>  <PUBCHEM_FEATURE_SELFOVERLAP>  (1) 
50.851

>  <PUBCHEM_SHAPE_FINGERPRINT>  (1) 
10 15 18261106400352382792
10674148 151 16559033797016968136
10906281 52 17561085855982940772
11497681 19 14418121895208353680
11578080 2 17057220432023120514
11646440 116 18272086102346263912
11796584 16 16443065011490404483
11963148 33 16732973228504786810
12035758 1 18412826901899310943
12236239 1 17203320117985135588
12422481 6 18409738357158646319
12730499 353 18336262367287955314
12788726 201 17203320066646307024
13140716 1 18196080273400200012
13540713 4 18123755245313868413
13782708 43 15068613873052567616
13914758 101 13901913306227768300
14341114 328 17275107215721252659
14765038 42 18060136582685209928
14790565 3 18271797970159681588
14849402 71 17916581084830882609
14955137 171 18259985998062110941
15183329 4 11312063132345612911
15188451 53 16370725946322535123
15238133 3 16343697738128916242
15475509 8 16916802781045028972
17349148 13 11458702764125984852
18608769 82 18187646933611165898
19611394 137 17968098650362416097
20028762 73 13262392254794100016
20105231 36 18410297991466412814
21267235 1 18339921524947379030
21424621 283 15626225714943469583
21623969 137 18407760326432839963
21756936 100 16702299066714871791
21781051 124 18114474400829421866
21859007 373 11743835807612392610
22224240 67 18272932731037476743
23522609 53 17987246701353426361
23559900 14 18129360740650637440
2747138 104 17967251992350002516
2838139 119 14620790509863937675
3009799 131 10015865383629164484
3178227 256 18411140246625242176
335352 9 18342161277493707510
350125 39 18338784655467287292
392239 28 18272369802374204041
397830 11 17458907153555109781
4073 2 17969218950122300305
4093350 32 15985112881691795014
4340502 62 17968094209540149154
439807 62 12252486470487170425
465052 167 17603590737428468365
474113 269 11167399262514867188
50009960 94 17607826190624353907
5104073 3 18263360283431000209
5385378 56 17846785070009568319
5969126 39 12179835100703225255
6009941 240 17677042444198237141
999808 66 18113616776926193091

>  <PUBCHEM_SHAPE_MULTIPOLES>  (1) 
585.07
17.36
2.28
2.03
7.22
0.31
0.25
2.18
14.03
0.23
-0.39
2.79
0.26
1.66

>  <PUBCHEM_SHAPE_SELFOVERLAP>  (1) 
1220.477

>  <PUBCHEM_SHAPE_VOLUME>  (1) 
330.8

>  <PUBCHEM_COORDINATE_TYPE>  (1) 
2
5
10

$$$$
