39763
     RDKit          3D

 11 11  0  0  0  0  0  0  0  0999 V2000
    3.5933   -0.6986   -0.0342 O   0  0  0  0  0  0  0  0  0  0  0  0
   -3.0027   -0.5482    1.0898 O   0  0  0  0  0  0  0  0  0  0  0  0
   -1.5420    0.9544    0.0621 N   0  0  0  0  0  0  0  0  0  0  0  0
   -0.3038    0.5760    0.0385 C   0  0  0  0  0  0  0  0  0  0  0  0
    0.8226    1.5355    0.0036 C   0  0  0  0  0  0  0  0  0  0  0  0
    0.0385   -0.8659    0.0464 C   0  0  0  0  0  0  0  0  0  0  0  0
    2.0908    1.1201   -0.0203 C   0  0  0  0  0  0  0  0  0  0  0  0
    1.3073   -1.2791    0.0226 C   0  0  0  0  0  0  0  0  0  0  0  0
    2.4282   -0.3179   -0.0129 C   0  0  0  0  0  0  0  0  0  0  0  0
   -2.5030   -0.0288    0.0936 C   0  0  0  0  0  0  0  0  0  0  0  0
   -2.9292   -0.4476   -1.2892 C   0  0  0  0  0  0  0  0  0  0  0  0
  1  9  2  0
  2 10  2  0
  3  4  2  3
  3 10  1  0
  4  5  1  0
  4  6  1  0
  5  7  2  0
  6  8  2  0
  7  9  1  0
  8  9  1  0
 10 11  1  0
M  END
>  <PUBCHEM_COMPOUND_CID>  (1) 
39763

>  <PUBCHEM_CONFORMER_RMSD>  (1) 
0.4

>  <PUBCHEM_CONFORMER_DIVERSEORDER>  (1) 
1
4
2
3

>  <PUBCHEM_MMFF94_PARTIAL_CHARGES>  (1) 
15
1 -0.57
10 0.72
11 0.06
12 0.15
13 0.15
14 0.15
15 0.15
2 -0.57
3 -0.66
4 0.42
5 -0.14
6 -0.14
7 -0.14
8 -0.14
9 0.54

>  <PUBCHEM_EFFECTIVE_ROTOR_COUNT>  (1) 
1

>  <PUBCHEM_PHARMACOPHORE_FEATURES>  (1) 
5
1 1 acceptor
1 2 acceptor
1 3 acceptor
1 3 donor
6 4 5 6 7 8 9 rings

>  <PUBCHEM_HEAVY_ATOM_COUNT>  (1) 
11

>  <PUBCHEM_ATOM_DEF_STEREO_COUNT>  (1) 
0

>  <PUBCHEM_ATOM_UDEF_STEREO_COUNT>  (1) 
0

>  <PUBCHEM_BOND_DEF_STEREO_COUNT>  (1) 
0

>  <PUBCHEM_BOND_UDEF_STEREO_COUNT>  (1) 
0

>  <PUBCHEM_ISOTOPIC_ATOM_COUNT>  (1) 
0

>  <PUBCHEM_COMPONENT_COUNT>  (1) 
1

>  <PUBCHEM_CACTVS_TAUTO_COUNT>  (1) 
1

>  <PUBCHEM_CONFORMER_ID>  (1) 
00009B5300000001

>  <PUBCHEM_MMFF94_ENERGY>  (1) 
28.6097

>  <PUBCHEM_FEATURE_SELFOVERLAP>  (1) 
25.415

>  <PUBCHEM_SHAPE_FINGERPRINT>  (1) 
10219947 1 18343019986730847526
10857977 72 18409722941887771400
12032990 46 18338243674071300082
12897270 3 18260824891068505861
12932764 1 17917433159028734929
14128692 85 18202558492694359700
14325111 11 18410575110491177808
16945 1 18410854373675554702
17844478 74 17968104139741693217
20201158 50 18333731295193121115
20645477 70 18412256238216508839
23402655 69 18194102050767390501
23552423 10 18335422348223771829
2748010 2 18121223344396067662
29004967 10 18408608036896765816
5084963 1 18273491282079113200

>  <PUBCHEM_SHAPE_MULTIPOLES>  (1) 
209.66
5.02
1.36
0.84
0.66
0.21
0.07
-1.05
0.24
-0.6
0
0.71
-0.11
-0.05

>  <PUBCHEM_SHAPE_SELFOVERLAP>  (1) 
433.94

>  <PUBCHEM_SHAPE_VOLUME>  (1) 
119.3

>  <PUBCHEM_COORDINATE_TYPE>  (1) 
2
5
10

$$$$
