39768
     RDKit          3D

 17 19  0  0  0  0  0  0  0  0999 V2000
    0.0002    1.4731    0.2450 N   0  0  0  0  0  0  0  0  0  0  0  0
   -4.0363   -2.2859   -0.1663 N   0  0  0  0  0  0  0  0  0  0  0  0
    4.0357   -2.2863   -0.1686 N   0  0  0  0  0  0  0  0  0  0  0  0
   -1.1320    0.6974    0.1593 C   0  0  0  0  0  0  0  0  0  0  0  0
    1.1320    0.6972    0.1602 C   0  0  0  0  0  0  0  0  0  0  0  0
   -0.7157   -0.6262    0.0150 C   0  0  0  0  0  0  0  0  0  0  0  0
    0.7155   -0.6264    0.0154 C   0  0  0  0  0  0  0  0  0  0  0  0
    0.0001    2.9139    0.4023 C   0  0  0  0  0  0  0  0  0  0  0  0
   -1.6971   -1.6337   -0.0953 C   0  0  0  0  0  0  0  0  0  0  0  0
    1.6966   -1.6340   -0.0950 C   0  0  0  0  0  0  0  0  0  0  0  0
   -2.4814    1.0666    0.1988 C   0  0  0  0  0  0  0  0  0  0  0  0
    2.4815    1.0660    0.2005 C   0  0  0  0  0  0  0  0  0  0  0  0
   -3.0507   -1.2801   -0.0572 C   0  0  0  0  0  0  0  0  0  0  0  0
    3.0502   -1.2807   -0.0570 C   0  0  0  0  0  0  0  0  0  0  0  0
   -3.4347    0.0508    0.0875 C   0  0  0  0  0  0  0  0  0  0  0  0
    3.4346    0.0502    0.0885 C   0  0  0  0  0  0  0  0  0  0  0  0
    0.0013    3.6381   -0.9330 C   0  0  0  0  0  0  0  0  0  0  0  0
  1  4  1  0
  1  5  1  0
  1  8  1  0
  2 13  1  0
  3 14  1  0
  4  6  2  0
  4 11  1  0
  5  7  2  0
  5 12  1  0
  6  7  1  0
  6  9  1  0
  7 10  1  0
  8 17  1  0
  9 13  2  0
 10 14  2  0
 11 15  2  0
 12 16  2  0
 13 15  1  0
 14 16  1  0
M  END
>  <PUBCHEM_COMPOUND_CID>  (1) 
39768

>  <PUBCHEM_CONFORMER_RMSD>  (1) 
0.6

>  <PUBCHEM_CONFORMER_DIVERSEORDER>  (1) 
1

>  <PUBCHEM_MMFF94_PARTIAL_CHARGES>  (1) 
24
1 0.05
10 -0.15
11 -0.15
12 -0.15
13 0.1
14 0.1
15 -0.15
16 -0.15
2 -0.9
20 0.15
21 0.15
22 0.15
23 0.15
24 0.15
25 0.15
29 0.4
3 -0.9
30 0.4
31 0.4
32 0.4
4 -0.15
5 -0.15
8 0.26
9 -0.15

>  <PUBCHEM_EFFECTIVE_ROTOR_COUNT>  (1) 
1

>  <PUBCHEM_PHARMACOPHORE_FEATURES>  (1) 
8
1 1 cation
1 2 cation
1 2 donor
1 3 cation
1 3 donor
5 1 4 5 6 7 rings
6 4 6 9 11 13 15 rings
6 5 7 10 12 14 16 rings

>  <PUBCHEM_HEAVY_ATOM_COUNT>  (1) 
17

>  <PUBCHEM_ATOM_DEF_STEREO_COUNT>  (1) 
0

>  <PUBCHEM_ATOM_UDEF_STEREO_COUNT>  (1) 
0

>  <PUBCHEM_BOND_DEF_STEREO_COUNT>  (1) 
0

>  <PUBCHEM_BOND_UDEF_STEREO_COUNT>  (1) 
0

>  <PUBCHEM_ISOTOPIC_ATOM_COUNT>  (1) 
0

>  <PUBCHEM_COMPONENT_COUNT>  (1) 
1

>  <PUBCHEM_CACTVS_TAUTO_COUNT>  (1) 
1

>  <PUBCHEM_CONFORMER_ID>  (1) 
00009B5800000001

>  <PUBCHEM_MMFF94_ENERGY>  (1) 
56.5428

>  <PUBCHEM_FEATURE_SELFOVERLAP>  (1) 
40.776

>  <PUBCHEM_SHAPE_FINGERPRINT>  (1) 
10319926 262 17907833152231740530
10618630 7 18411138013416106790
10967382 1 18123469637792569696
11132069 177 18342170025498194002
11769659 78 18413105065234995643
11806522 49 18267018538947273127
12032990 46 18411984662881010651
12553582 1 18336825282106288754
13132413 78 18340490057519963557
13140716 1 18341050722476521290
13296908 3 18412262839317608691
13583140 156 13901327201726216431
138480 1 14880034022348479269
14790565 3 17835530323033156937
15042514 8 18194126218120804387
15196674 1 18412545409500352386
15442244 35 18413393137576560401
15536298 74 18272369780640878786
16752209 62 17975401421978783072
16945 1 18342457045082725713
17804303 29 18199190586000549926
193761 8 17402049998527823211
200 152 17917419961174444303
20510252 161 18127125265247943664
20559304 39 18194683889332526377
20645477 70 17975683211174233295
21029758 27 18335434460326984585
21267235 1 18412272739212146058
21501502 16 18412550907074062226
21524375 3 17178846934739885080
221490 88 18119814857227098987
2255824 54 17977104887602394173
2334 1 18411981394394866266
23402539 116 18127964227143133789
23463225 33 18412265038504134694
23559900 14 18269829814623751586
2748010 2 18412818088383761500
3071541 158 18263077867772224349
3091708 16 9210391769692757968
335352 9 18124034533371418669
34934 24 18410565180505450211
458136 41 17543088109135492305
5104073 3 18341894086581705042
54173680 148 18267304235686632904
6992083 37 18270416992150203297
7364860 26 18051975010972737577
81228 2 18265908951189019000
8809292 202 18336270045993213314
9709674 26 18264770050754177587

>  <PUBCHEM_SHAPE_MULTIPOLES>  (1) 
334.91
6.04
3.3
0.68
0
2.57
0.04
-4.8
0.09
0
0.6
0
0.23
0

>  <PUBCHEM_SHAPE_SELFOVERLAP>  (1) 
744.92

>  <PUBCHEM_SHAPE_VOLUME>  (1) 
181.3

>  <PUBCHEM_COORDINATE_TYPE>  (1) 
2
5
10

$$$$
