39775
     RDKit          3D

 23 24  0  0  1  0  0  0  0  0999 V2000
   -1.3510   -2.9765   -0.0815 N   0  0  0  0  0  0  0  0  0  0  0  0
   -0.2663    2.2111   -2.5627 N   0  0  0  0  0  0  0  0  0  0  0  0
   -0.4138    0.7833   -0.3331 C   0  0  0  0  0  0  0  0  0  0  0  0
   -0.8478   -0.6663   -0.7442 C   0  0  0  0  0  0  0  0  0  0  0  0
    0.8962    0.7466    0.4777 C   0  0  0  0  0  0  0  0  0  0  0  0
   -1.5721    1.3932    0.5313 C   0  0  0  0  0  0  0  0  0  0  0  0
   -0.9291   -1.6703    0.4164 C   0  0  0  0  0  0  0  0  0  0  0  0
    2.0521    0.2340   -0.0802 C   0  0  0  0  0  0  0  0  0  0  0  0
    0.8206    1.2487    1.7565 C   0  0  0  0  0  0  0  0  0  0  0  0
   -2.9055    1.4906   -0.1724 C   0  0  0  0  0  0  0  0  0  0  0  0
   -0.3219    1.5878   -1.5848 C   0  0  0  0  0  0  0  0  0  0  0  0
    3.2218    0.2287    0.7164 C   0  0  0  0  0  0  0  0  0  0  0  0
    2.1095   -0.2744   -1.3881 C   0  0  0  0  0  0  0  0  0  0  0  0
    1.9711    1.2437    2.5396 C   0  0  0  0  0  0  0  0  0  0  0  0
    3.1646    0.7374    2.0242 C   0  0  0  0  0  0  0  0  0  0  0  0
   -4.0903    0.9837    0.2189 C   0  0  0  0  0  0  0  0  0  0  0  0
   -1.4140   -3.9469    1.0118 C   0  0  0  0  0  0  0  0  0  0  0  0
   -2.6492   -2.8765   -0.7492 C   0  0  0  0  0  0  0  0  0  0  0  0
    4.4146   -0.2847    0.1816 C   0  0  0  0  0  0  0  0  0  0  0  0
    3.3030   -0.7809   -1.9031 C   0  0  0  0  0  0  0  0  0  0  0  0
    4.4535   -0.7862   -1.1198 C   0  0  0  0  0  0  0  0  0  0  0  0
   -5.3253    1.2095   -0.6125 C   0  0  0  0  0  0  0  0  0  0  0  0
   -4.3206    0.1644    1.4572 C   0  0  0  0  0  0  0  0  0  0  0  0
  1  7  1  0
  1 17  1  0
  1 18  1  0
  2 11  3  0
  3  4  1  0
  3  5  1  0
  3  6  1  0
  3 11  1  0
  4  7  1  0
  5  8  2  0
  5  9  1  0
  6 10  1  0
  8 12  1  0
  8 13  1  0
  9 14  2  0
 10 16  2  3
 12 15  2  0
 12 19  1  0
 13 20  2  0
 14 15  1  0
 16 22  1  0
 16 23  1  0
 19 21  2  0
 20 21  1  0
M  END
>  <PUBCHEM_COMPOUND_CID>  (1) 
39775

>  <PUBCHEM_CONFORMER_RMSD>  (1) 
0.8

>  <PUBCHEM_CONFORMER_DIVERSEORDER>  (1) 
1
45
94
24
29
12
100
83
65
40
30
10
49
57
48
56
61
23
7
96
42
38
93
80
98
90
63
91
50
16
35
8
86
20
81
79
84
82
5
67
25
99
77
19
66
6
28
62
73
53
101
27
4
78
88
36
31
2
69
58
55
37
103
87
54
15
33
52
11
47
18
3
26
14
22
97
21
34
70
74
89
71
102
64
95
41
17
104
32
44
76
39
68
59
9
92
46
13
75
51
85
43
60
72

>  <PUBCHEM_MMFF94_PARTIAL_CHARGES>  (1) 
28
1 -0.81
10 -0.29
11 0.36
13 -0.15
14 -0.15
15 -0.15
16 -0.28
17 0.27
18 0.27
19 -0.15
2 -0.56
20 -0.15
21 -0.15
22 0.14
23 0.14
3 0.34
30 0.15
31 0.15
32 0.15
33 0.15
34 0.15
41 0.15
42 0.15
43 0.15
5 -0.14
6 0.14
7 0.27
9 -0.15

>  <PUBCHEM_EFFECTIVE_ROTOR_COUNT>  (1) 
6

>  <PUBCHEM_PHARMACOPHORE_FEATURES>  (1) 
6
1 1 cation
1 2 acceptor
3 16 22 23 hydrophobe
4 3 4 6 10 hydrophobe
6 5 8 9 12 14 15 rings
6 8 12 13 19 20 21 rings

>  <PUBCHEM_HEAVY_ATOM_COUNT>  (1) 
23

>  <PUBCHEM_ATOM_DEF_STEREO_COUNT>  (1) 
0

>  <PUBCHEM_ATOM_UDEF_STEREO_COUNT>  (1) 
1

>  <PUBCHEM_BOND_DEF_STEREO_COUNT>  (1) 
0

>  <PUBCHEM_BOND_UDEF_STEREO_COUNT>  (1) 
0

>  <PUBCHEM_ISOTOPIC_ATOM_COUNT>  (1) 
0

>  <PUBCHEM_COMPONENT_COUNT>  (1) 
1

>  <PUBCHEM_CACTVS_TAUTO_COUNT>  (1) 
1

>  <PUBCHEM_CONFORMER_ID>  (1) 
00009B5F00000001

>  <PUBCHEM_MMFF94_ENERGY>  (1) 
82.9116

>  <PUBCHEM_FEATURE_SELFOVERLAP>  (1) 
30.472

>  <PUBCHEM_SHAPE_FINGERPRINT>  (1) 
10366900 7 17703795812221524976
11578080 2 17841739565763167777
11582403 64 15968688398329053712
12166972 35 13830125087784813800
12236239 1 16877949312863054916
12293681 4 17632582621322135225
12633257 1 18270378560719223658
13583140 156 16916215723239182577
14115302 16 18341623598616432036
14787075 74 17917716746949942276
15209289 33 18059584533754320921
1601671 61 17968098552089961965
16752209 62 18260823856298405427
16945 1 18269012928528055868
17349148 13 13326580669659941205
19930381 70 16986041076686814151
20600515 1 17467313014480714999
20771845 171 17386576752232984599
20832881 197 17630052550598401675
21033648 29 18341885256656828401
22112679 90 17677040356237027788
22393880 68 18058714803357240781
22956985 138 17536584111474399211
23559900 14 18202005443173571988
3052486 1 18260264196084113363
3383291 50 17771351877044690742
34934 24 17313396646584653652
465052 167 17459208377376555593
5845 1 17550923211456400582
59755656 215 18412825781657197647
602551 16 18408882970738660978
633830 44 17988351564858352961
81228 2 18192416679297664799
9709674 26 17917138519892560671
9981440 41 16050919923592322785

>  <PUBCHEM_SHAPE_MULTIPOLES>  (1) 
463.37
8.23
2.97
2.11
2.66
3.84
-0.01
-0.94
-0.18
2.8
0.45
-1.31
-0.9
1.47

>  <PUBCHEM_SHAPE_SELFOVERLAP>  (1) 
971.133

>  <PUBCHEM_SHAPE_VOLUME>  (1) 
260.7

>  <PUBCHEM_COORDINATE_TYPE>  (1) 
2
5
10

$$$$
