39786
     RDKit          3D

 39 40  0  0  0  0  0  0  0  0999 V2000
   -1.3109    2.3152    0.5162 N   0  0  0  0  0  0  0  0  0  0  0  0
    3.2983   -0.9758    0.1301 N   0  0  0  0  0  0  0  0  0  0  0  0
   -0.0254   -1.8122   -3.4283 N   0  0  0  0  0  0  0  0  0  0  0  0
   -0.4435   -1.2018   -0.8829 C   0  0  0  0  0  0  0  0  0  0  0  0
   -0.7349    0.3376   -0.8206 C   0  0  0  0  0  0  0  0  0  0  0  0
    0.9033   -1.4553   -0.1210 C   0  0  0  0  0  0  0  0  0  0  0  0
   -1.5890   -1.9911   -0.2232 C   0  0  0  0  0  0  0  0  0  0  0  0
   -1.0645    0.8773    0.5800 C   0  0  0  0  0  0  0  0  0  0  0  0
    2.1068   -0.6616   -0.6533 C   0  0  0  0  0  0  0  0  0  0  0  0
   -2.9079   -1.9291   -0.7016 C   0  0  0  0  0  0  0  0  0  0  0  0
   -0.2159   -1.5517   -2.3130 C   0  0  0  0  0  0  0  0  0  0  0  0
   -1.2686   -2.7811    0.8813 C   0  0  0  0  0  0  0  0  0  0  0  0
   -3.9161   -2.6792   -0.0506 C   0  0  0  0  0  0  0  0  0  0  0  0
   -2.1433    2.7439    1.6406 C   0  0  0  0  0  0  0  0  0  0  0  0
   -0.0471    3.0526    0.5079 C   0  0  0  0  0  0  0  0  0  0  0  0
    3.8284   -2.2869   -0.2451 C   0  0  0  0  0  0  0  0  0  0  0  0
    4.3188    0.0571   -0.0510 C   0  0  0  0  0  0  0  0  0  0  0  0
   -2.2600   -3.5190    1.5212 C   0  0  0  0  0  0  0  0  0  0  0  0
   -3.2486   -1.1392   -1.8119 C   0  0  0  0  0  0  0  0  0  0  0  0
   -3.5756   -3.4694    1.0595 C   0  0  0  0  0  0  0  0  0  0  0  0
   -5.2351   -2.6174   -0.5289 C   0  0  0  0  0  0  0  0  0  0  0  0
   -3.5852    2.3924    1.4195 C   0  0  0  0  0  0  0  0  0  0  0  0
   -0.2146    4.4190   -0.0891 C   0  0  0  0  0  0  0  0  0  0  0  0
    4.6683   -2.8721    0.8521 C   0  0  0  0  0  0  0  0  0  0  0  0
    4.0020    1.2859    0.7497 C   0  0  0  0  0  0  0  0  0  0  0  0
   -4.5643   -1.0895   -2.2733 C   0  0  0  0  0  0  0  0  0  0  0  0
   -5.5557   -1.8272   -1.6330 C   0  0  0  0  0  0  0  0  0  0  0  0
   -4.3778    1.6047    2.1716 C   0  0  0  0  0  0  0  0  0  0  0  0
    0.3960    4.9382   -1.1716 C   0  0  0  0  0  0  0  0  0  0  0  0
    5.9683   -3.2226    0.8125 C   0  0  0  0  0  0  0  0  0  0  0  0
    4.3140    2.5667    0.4729 C   0  0  0  0  0  0  0  0  0  0  0  0
   -3.8352    0.9459    3.4130 C   0  0  0  0  0  0  0  0  0  0  0  0
   -5.8207    1.2930    1.8912 C   0  0  0  0  0  0  0  0  0  0  0  0
    1.3934    4.1177   -1.9472 C   0  0  0  0  0  0  0  0  0  0  0  0
    0.1809    6.3212   -1.7180 C   0  0  0  0  0  0  0  0  0  0  0  0
    6.7521   -3.8063    1.9538 C   0  0  0  0  0  0  0  0  0  0  0  0
    6.7647   -3.0430   -0.4536 C   0  0  0  0  0  0  0  0  0  0  0  0
    3.9641    3.7555    1.3225 C   0  0  0  0  0  0  0  0  0  0  0  0
    5.0805    2.9079   -0.7784 C   0  0  0  0  0  0  0  0  0  0  0  0
  1  8  1  0
  1 14  1  0
  1 15  1  0
  2  9  1  0
  2 16  1  0
  2 17  1  0
  3 11  3  0
  4  5  1  0
  4  6  1  0
  4  7  1  0
  4 11  1  0
  5  8  1  0
  6  9  1  0
  7 10  2  0
  7 12  1  0
 10 13  1  0
 10 19  1  0
 12 18  2  0
 13 20  2  0
 13 21  1  0
 14 22  1  0
 15 23  1  0
 16 24  1  0
 17 25  1  0
 18 20  1  0
 19 26  2  0
 21 27  2  0
 22 28  2  3
 23 29  2  3
 24 30  2  3
 25 31  2  3
 26 27  1  0
 28 32  1  0
 28 33  1  0
 29 34  1  0
 29 35  1  0
 30 36  1  0
 30 37  1  0
 31 38  1  0
 31 39  1  0
M  END
>  <PUBCHEM_COMPOUND_CID>  (1) 
39786

>  <PUBCHEM_CONFORMER_RMSD>  (1) 
1.4

>  <PUBCHEM_CONFORMER_DIVERSEORDER>  (1) 
2
30
58
27
40
24
33
55
45
48
36
14
28
17
32
22
26
54
25
57
56
51
46
23
42
11
19
53
43
38
10
34
16
59
37
6
50
49
9
39
44
21
41
1
52
18
7
15
31
47
5
29
35
4
20
13
8
3
12

>  <PUBCHEM_MMFF94_PARTIAL_CHARGES>  (1) 
46
1 -0.81
11 0.36
12 -0.15
14 0.41
15 0.41
16 0.41
17 0.41
18 -0.15
19 -0.15
2 -0.81
20 -0.15
21 -0.15
22 -0.29
23 -0.29
24 -0.29
25 -0.29
26 -0.15
27 -0.15
28 -0.28
29 -0.28
3 -0.56
30 -0.28
31 -0.28
32 0.14
33 0.14
34 0.14
35 0.14
36 0.14
37 0.14
38 0.14
39 0.14
4 0.34
48 0.15
57 0.15
58 0.15
59 0.15
60 0.15
61 0.15
62 0.15
63 0.15
64 0.15
65 0.15
66 0.15
7 -0.14
8 0.27
9 0.27

>  <PUBCHEM_EFFECTIVE_ROTOR_COUNT>  (1) 
15

>  <PUBCHEM_PHARMACOPHORE_FEATURES>  (1) 
9
1 1 cation
1 2 cation
1 3 acceptor
3 28 32 33 hydrophobe
3 29 34 35 hydrophobe
3 30 36 37 hydrophobe
3 31 38 39 hydrophobe
6 10 13 19 21 26 27 rings
6 7 10 12 13 18 20 rings

>  <PUBCHEM_HEAVY_ATOM_COUNT>  (1) 
39

>  <PUBCHEM_ATOM_DEF_STEREO_COUNT>  (1) 
0

>  <PUBCHEM_ATOM_UDEF_STEREO_COUNT>  (1) 
0

>  <PUBCHEM_BOND_DEF_STEREO_COUNT>  (1) 
0

>  <PUBCHEM_BOND_UDEF_STEREO_COUNT>  (1) 
0

>  <PUBCHEM_ISOTOPIC_ATOM_COUNT>  (1) 
0

>  <PUBCHEM_COMPONENT_COUNT>  (1) 
1

>  <PUBCHEM_CACTVS_TAUTO_COUNT>  (1) 
1

>  <PUBCHEM_CONFORMER_ID>  (1) 
00009B6A00000002

>  <PUBCHEM_MMFF94_ENERGY>  (1) 
107.3473

>  <PUBCHEM_FEATURE_SELFOVERLAP>  (1) 
45.698

>  <PUBCHEM_SHAPE_FINGERPRINT>  (1) 
10006869 2 18272930561298277070
11513181 2 17560814250572155556
11763715 3 18261127265678079702
140371 6 18194122043079977947
15264996 151 18335983185707645289
23559900 14 18040426724778163694

>  <PUBCHEM_SHAPE_MULTIPOLES>  (1) 
787.66
13.62
7.96
2.56
12.15
9.55
-0.08
-12.62
4.66
5.55
-0.86
-2.89
0.33
-3.85

>  <PUBCHEM_SHAPE_SELFOVERLAP>  (1) 
1598.012

>  <PUBCHEM_SHAPE_VOLUME>  (1) 
456.9

>  <PUBCHEM_COORDINATE_TYPE>  (1) 
2
5
10

$$$$
