39809
     RDKit          3D

 18 20  0  0  0  0  0  0  0  0999 V2000
   -1.5860    0.6722    1.2485 O   0  0  0  0  0  0  0  0  0  0  0  0
   -1.5652    0.9141   -1.1488 O   0  0  0  0  0  0  0  0  0  0  0  0
   -2.7252   -2.0440    1.0385 O   0  0  0  0  0  0  0  0  0  0  0  0
   -2.5930   -2.0609   -1.2338 O   0  0  0  0  0  0  0  0  0  0  0  0
   -2.3650    0.9489    0.0587 C   0  0  0  0  0  0  0  0  0  0  0  0
   -3.4606   -0.1100   -0.0577 C   0  0  0  0  0  0  0  0  0  0  0  0
   -0.3459    0.4799    0.7189 C   0  0  0  0  0  0  0  0  0  0  0  0
   -0.3340    0.6178   -0.6470 C   0  0  0  0  0  0  0  0  0  0  0  0
   -2.9737    2.3439    0.1941 C   0  0  0  0  0  0  0  0  0  0  0  0
    0.7981    0.1792    1.4290 C   0  0  0  0  0  0  0  0  0  0  0  0
    0.8225    0.4634   -1.3831 C   0  0  0  0  0  0  0  0  0  0  0  0
    1.9999    0.0129    0.7191 C   0  0  0  0  0  0  0  0  0  0  0  0
    2.0123    0.1565   -0.7003 C   0  0  0  0  0  0  0  0  0  0  0  0
   -2.8844   -1.4926   -0.1921 C   0  0  0  0  0  0  0  0  0  0  0  0
    3.1961   -0.2939    1.3855 C   0  0  0  0  0  0  0  0  0  0  0  0
    3.2205   -0.0126   -1.3940 C   0  0  0  0  0  0  0  0  0  0  0  0
    4.3858   -0.4575    0.6748 C   0  0  0  0  0  0  0  0  0  0  0  0
    4.3979   -0.3173   -0.7101 C   0  0  0  0  0  0  0  0  0  0  0  0
  1  5  1  0
  1  7  1  0
  2  5  1  0
  2  8  1  0
  3 14  1  0
  4 14  2  0
  5  6  1  0
  5  9  1  0
  6 14  1  0
  7  8  2  0
  7 10  1  0
  8 11  1  0
 10 12  2  0
 11 13  2  0
 12 13  1  0
 12 15  1  0
 13 16  1  0
 15 17  2  0
 16 18  2  0
 17 18  1  0
M  END
>  <PUBCHEM_COMPOUND_CID>  (1) 
39809

>  <PUBCHEM_CONFORMER_RMSD>  (1) 
0.6

>  <PUBCHEM_CONFORMER_DIVERSEORDER>  (1) 
1
2
3

>  <PUBCHEM_MMFF94_PARTIAL_CHARGES>  (1) 
22
1 -0.36
10 -0.15
11 -0.15
14 0.66
15 -0.15
16 -0.15
17 -0.15
18 -0.15
2 -0.36
24 0.15
25 0.15
26 0.15
27 0.15
28 0.15
29 0.15
3 -0.65
30 0.5
4 -0.57
5 0.56
6 0.06
7 0.08
8 0.08

>  <PUBCHEM_EFFECTIVE_ROTOR_COUNT>  (1) 
2.6

>  <PUBCHEM_PHARMACOPHORE_FEATURES>  (1) 
8
1 1 acceptor
1 2 acceptor
1 3 acceptor
1 4 acceptor
3 3 4 14 anion
5 1 2 5 7 8 rings
6 12 13 15 16 17 18 rings
6 7 8 10 11 12 13 rings

>  <PUBCHEM_HEAVY_ATOM_COUNT>  (1) 
18

>  <PUBCHEM_ATOM_DEF_STEREO_COUNT>  (1) 
0

>  <PUBCHEM_ATOM_UDEF_STEREO_COUNT>  (1) 
0

>  <PUBCHEM_BOND_DEF_STEREO_COUNT>  (1) 
0

>  <PUBCHEM_BOND_UDEF_STEREO_COUNT>  (1) 
0

>  <PUBCHEM_ISOTOPIC_ATOM_COUNT>  (1) 
0

>  <PUBCHEM_COMPONENT_COUNT>  (1) 
1

>  <PUBCHEM_CACTVS_TAUTO_COUNT>  (1) 
1

>  <PUBCHEM_CONFORMER_ID>  (1) 
00009B8100000001

>  <PUBCHEM_MMFF94_ENERGY>  (1) 
45.0953

>  <PUBCHEM_FEATURE_SELFOVERLAP>  (1) 
40.835

>  <PUBCHEM_SHAPE_FINGERPRINT>  (1) 
10062212 137 17603299324002884384
10498660 4 11242787328296042911
11132069 177 15123494884036284156
11471102 22 16200436879188222046
11543360 7 18338528512160261148
11552529 35 15553596473306158990
11578080 2 17751049561850583212
12236239 1 17821731611344515617
12346177 29 18411129217259670933
12500047 106 18271241599763517109
12633257 1 16987731249734829067
13296908 3 17418093204727719576
13583140 156 17917131824492097106
13760787 19 18339362968297095618
13760787 5 16298392327505259580
14289901 80 18272368702598617944
15375358 24 17346312657222975657
15653759 3 17775286066664533456
16752209 62 18337658789625127959
16945 1 18342458097471077841
17349148 13 16226315015293802304
17844478 74 17060342915912291088
18186145 218 14634874124191967104
19026448 4 18131348592589594848
19026448 5 18260832575139681140
19049666 15 17202217213148579620
19862831 5 16950557804901767510
200 152 17240760696386954958
20279233 1 17489586748968211196
20645477 70 15913044245240506668
21452121 199 17906449179822563655
21634736 98 17533224295548648542
21639500 275 16298674992003282356
22112679 90 18113057125233634317
23402539 116 17530962458849729012
23402655 69 16660638531919341678
23493267 7 17845654733485443632
23557571 272 18343299254110712192
23559900 14 17916590830680674278
2748010 2 14906236793656964496
3082319 5 17749390377481522690
4921388 177 18335431157233617315
568465 68 16558475304248284487
602551 16 18272086141053729854
77492 1 17822011995156751592
90525 40 18113616742587676859

>  <PUBCHEM_SHAPE_MULTIPOLES>  (1) 
346.95
7.53
1.59
1.47
4.1
0.32
0.01
1.34
0.12
-2.54
0.04
0.68
0.08
-0.39

>  <PUBCHEM_SHAPE_SELFOVERLAP>  (1) 
773.495

>  <PUBCHEM_SHAPE_VOLUME>  (1) 
185.9

>  <PUBCHEM_COORDINATE_TYPE>  (1) 
2
5
10

$$$$
