39803
     RDKit          3D

 18 19  0  0  1  0  0  0  0  0999 V2000
    0.5021    2.4491   -0.9707 O   0  0  0  0  0  0  0  0  0  0  0  0
    2.9362    1.5615   -0.1294 O   0  0  0  0  0  0  0  0  0  0  0  0
    3.3125   -1.1126    0.4666 O   0  0  0  0  0  0  0  0  0  0  0  0
   -2.5902    1.1772    1.0398 N   0  0  0  0  0  0  0  0  0  0  0  0
   -2.9272    0.6168   -0.2708 C   0  0  0  0  0  0  0  0  0  0  0  0
   -3.4751   -0.8141   -0.1625 C   0  0  0  0  0  0  0  0  0  0  0  0
   -1.7642    0.7600   -1.2677 C   0  0  0  0  0  0  0  0  0  0  0  0
   -2.5026   -1.8868    0.3286 C   0  0  0  0  0  0  0  0  0  0  0  0
   -1.3396   -2.1440   -0.6281 C   0  0  0  0  0  0  0  0  0  0  0  0
   -0.4282    0.2289   -0.8021 C   0  0  0  0  0  0  0  0  0  0  0  0
   -0.2306   -1.1306   -0.5001 C   0  0  0  0  0  0  0  0  0  0  0  0
    0.6504    1.1223   -0.6754 C   0  0  0  0  0  0  0  0  0  0  0  0
    1.0388   -1.5612   -0.0760 C   0  0  0  0  0  0  0  0  0  0  0  0
    1.9026    0.6806   -0.2508 C   0  0  0  0  0  0  0  0  0  0  0  0
    2.0968   -0.6619    0.0496 C   0  0  0  0  0  0  0  0  0  0  0  0
   -3.7014    1.0187    1.9609 C   0  0  0  0  0  0  0  0  0  0  0  0
    3.0956    2.2015    1.1345 C   0  0  0  0  0  0  0  0  0  0  0  0
    3.4242   -2.5053    0.7536 C   0  0  0  0  0  0  0  0  0  0  0  0
  1 12  1  0
  2 14  1  0
  2 17  1  0
  3 15  1  0
  3 18  1  0
  4  5  1  0
  4 16  1  0
  5  6  1  0
  5  7  1  0
  6  8  1  0
  7 10  1  0
  8  9  1  0
  9 11  1  0
 10 11  2  0
 10 12  1  0
 11 13  1  0
 12 14  2  0
 13 15  2  0
 14 15  1  0
M  END
>  <PUBCHEM_COMPOUND_CID>  (1) 
39803

>  <PUBCHEM_CONFORMER_RMSD>  (1) 
0.6

>  <PUBCHEM_CONFORMER_DIVERSEORDER>  (1) 
14
19
13
26
29
30
15
32
31
11
22
4
21
20
6
28
25
18
7
27
1
17
23
33
2
3
16
12
9
5
8
10
24

>  <PUBCHEM_MMFF94_PARTIAL_CHARGES>  (1) 
19
1 -0.53
10 -0.14
11 -0.14
12 0.08
13 -0.15
14 0.08
15 0.08
16 0.27
17 0.28
18 0.28
2 -0.36
28 0.36
29 0.15
3 -0.36
33 0.45
4 -0.9
5 0.27
7 0.14
9 0.14

>  <PUBCHEM_EFFECTIVE_ROTOR_COUNT>  (1) 
4

>  <PUBCHEM_PHARMACOPHORE_FEATURES>  (1) 
7
1 1 donor
1 2 acceptor
1 3 acceptor
1 4 cation
1 4 donor
6 10 11 12 13 14 15 rings
7 5 6 7 8 9 10 11 rings

>  <PUBCHEM_HEAVY_ATOM_COUNT>  (1) 
18

>  <PUBCHEM_ATOM_DEF_STEREO_COUNT>  (1) 
0

>  <PUBCHEM_ATOM_UDEF_STEREO_COUNT>  (1) 
1

>  <PUBCHEM_BOND_DEF_STEREO_COUNT>  (1) 
0

>  <PUBCHEM_BOND_UDEF_STEREO_COUNT>  (1) 
0

>  <PUBCHEM_ISOTOPIC_ATOM_COUNT>  (1) 
0

>  <PUBCHEM_COMPONENT_COUNT>  (1) 
1

>  <PUBCHEM_CACTVS_TAUTO_COUNT>  (1) 
9

>  <PUBCHEM_CONFORMER_ID>  (1) 
00009B7B0000000E

>  <PUBCHEM_MMFF94_ENERGY>  (1) 
68.6789

>  <PUBCHEM_FEATURE_SELFOVERLAP>  (1) 
35.532

>  <PUBCHEM_SHAPE_FINGERPRINT>  (1) 
10967382 1 18263075672954096494
10980938 120 18335139825559799716
11086676 242 18190188888371919066
11132069 177 18188765170911107117
11471102 22 18261963924990653337
11680986 33 18335695078684160167
12202030 40 15213295335438987145
12251169 10 18339365149903261155
12382932 28 18337383932797173749
12390115 104 17980207705796815608
12491281 212 18343031011769419723
12553582 1 18191584155948925782
12633257 1 18270970016222875681
12696612 119 18335426802220857183
13140716 1 18409725149495972426
13172582 1 18337392621695283767
13380535 21 18336548308682059046
14178342 30 18265606774612177904
14223421 5 18264483056327188398
14787075 74 17337302430211586725
15209294 21 18200029689302821552
15375462 189 17968660393725439178
15442244 35 18411134710480936510
15536298 74 18340764940069677102
16945 1 18266456499416012646
17804303 29 18337108947801007598
200 152 18201420494619278655
20510252 161 17548695635311122376
21029758 27 17971479503263873422
21501502 16 18411418440167797663
22445834 79 18336549442316184647
23114952 82 10663827411784236250
23184049 59 18337959969753140939
2334 1 18335974380708099502
23388829 49 17978782733809128647
23463225 33 18335135380189761078
23557571 272 17485373592420606487
2748010 2 18262502767487879958
3286 77 17559934606962793683
5104073 3 18410293627499513827
57426455 70 18189621531576589947
6992083 37 18410857625097913503
7097593 13 18409173246129520347
7364860 26 18341043095258369870

>  <PUBCHEM_SHAPE_MULTIPOLES>  (1) 
347.84
6.26
2.71
1.25
0.09
0.27
0.36
-0.03
2.74
-1.62
0.33
0.76
-0.52
-0.67

>  <PUBCHEM_SHAPE_SELFOVERLAP>  (1) 
724.182

>  <PUBCHEM_SHAPE_VOLUME>  (1) 
197.9

>  <PUBCHEM_COORDINATE_TYPE>  (1) 
2
5
10

$$$$
