39804
     RDKit          3D

 19 20  0  0  0  0  0  0  0  0999 V2000
   -0.5053   -2.1969   -0.9755 O   0  0  0  0  0  0  0  0  0  0  0  0
   -2.9226   -1.3493   -0.0385 O   0  0  0  0  0  0  0  0  0  0  0  0
   -3.2733    1.2858    0.7223 O   0  0  0  0  0  0  0  0  0  0  0  0
    4.2054   -0.8322    1.4185 O   0  0  0  0  0  0  0  0  0  0  0  0
    3.1781   -1.2878    0.5917 N   0  0  0  0  0  0  0  0  0  0  0  0
    1.3613    2.3730   -0.4074 C   0  0  0  0  0  0  0  0  0  0  0  0
    2.5567    2.0632    0.5011 C   0  0  0  0  0  0  0  0  0  0  0  0
    0.2480    1.3522   -0.3182 C   0  0  0  0  0  0  0  0  0  0  0  0
    0.4290    0.0090   -0.7081 C   0  0  0  0  0  0  0  0  0  0  0  0
    3.5087    1.0209   -0.0788 C   0  0  0  0  0  0  0  0  0  0  0  0
    1.7505   -0.4912   -1.2319 C   0  0  0  0  0  0  0  0  0  0  0  0
    2.8414   -0.3248   -0.2037 C   0  0  0  0  0  0  0  0  0  0  0  0
   -0.6476   -0.8881   -0.6090 C   0  0  0  0  0  0  0  0  0  0  0  0
   -1.0095    1.7599    0.1592 C   0  0  0  0  0  0  0  0  0  0  0  0
   -1.8872   -0.4667   -0.1304 C   0  0  0  0  0  0  0  0  0  0  0  0
   -2.0682    0.8570    0.2535 C   0  0  0  0  0  0  0  0  0  0  0  0
   -0.0848   -3.1068    0.0364 C   0  0  0  0  0  0  0  0  0  0  0  0
   -3.4783   -1.5616    1.2571 C   0  0  0  0  0  0  0  0  0  0  0  0
   -4.2023    1.7843   -0.2382 C   0  0  0  0  0  0  0  0  0  0  0  0
  1 13  1  0
  1 17  1  0
  2 15  1  0
  2 18  1  0
  3 16  1  0
  3 19  1  0
  4  5  1  0
  5 12  2  0
  6  7  1  0
  6  8  1  0
  7 10  1  0
  8  9  2  0
  8 14  1  0
  9 11  1  0
  9 13  1  0
 10 12  1  0
 11 12  1  0
 13 15  2  0
 14 16  2  0
 15 16  1  0
M  END
>  <PUBCHEM_COMPOUND_CID>  (1) 
39804

>  <PUBCHEM_CONFORMER_RMSD>  (1) 
0.6

>  <PUBCHEM_CONFORMER_DIVERSEORDER>  (1) 
4
1
6
14
8
11
10
5
2
13
3
15
9
12
7

>  <PUBCHEM_MMFF94_PARTIAL_CHARGES>  (1) 
20
1 -0.36
10 0.06
11 0.2
12 0.33
13 0.08
14 -0.15
15 0.08
16 0.08
17 0.28
18 0.28
19 0.28
2 -0.36
28 0.15
3 -0.36
38 0.4
4 -0.34
5 -0.51
6 0.14
8 -0.14
9 -0.14

>  <PUBCHEM_EFFECTIVE_ROTOR_COUNT>  (1) 
3.8

>  <PUBCHEM_PHARMACOPHORE_FEATURES>  (1) 
7
1 1 acceptor
1 2 acceptor
1 3 acceptor
1 4 anion
1 5 acceptor
6 8 9 13 14 15 16 rings
7 6 7 8 9 10 11 12 rings

>  <PUBCHEM_HEAVY_ATOM_COUNT>  (1) 
19

>  <PUBCHEM_ATOM_DEF_STEREO_COUNT>  (1) 
0

>  <PUBCHEM_ATOM_UDEF_STEREO_COUNT>  (1) 
0

>  <PUBCHEM_BOND_DEF_STEREO_COUNT>  (1) 
0

>  <PUBCHEM_BOND_UDEF_STEREO_COUNT>  (1) 
1

>  <PUBCHEM_ISOTOPIC_ATOM_COUNT>  (1) 
0

>  <PUBCHEM_COMPONENT_COUNT>  (1) 
1

>  <PUBCHEM_CACTVS_TAUTO_COUNT>  (1) 
2

>  <PUBCHEM_CONFORMER_ID>  (1) 
00009B7C00000004

>  <PUBCHEM_MMFF94_ENERGY>  (1) 
86.5625

>  <PUBCHEM_FEATURE_SELFOVERLAP>  (1) 
35.54

>  <PUBCHEM_SHAPE_FINGERPRINT>  (1) 
10967382 1 18268153050068125253
11132069 177 18341049605784932972
11680986 33 18196948673185885919
12011746 2 18270121206363496396
12251169 10 18341044130234646920
12382932 28 18342181033309488740
12592029 89 18338241453599302945
13140716 1 18411989052722728753
13172582 1 18341611486534220804
13380535 76 18339081467698176935
14178342 30 18198357173234521121
14223421 5 18267592496669434206
15196674 1 18411983580939525276
15375462 189 18189051065899814634
16945 1 18196106451426231749
17349148 13 18343293765427104125
17804303 29 18340775866492670078
18186145 218 17916886658757502093
20510252 161 18130518525455656241
20645476 183 18042988612228462596
21501502 16 18340485672410958908
22445834 79 18336542836867453832
2334 1 18269002036565002253
23419403 2 16763596890917968156
23463225 33 18410295838832820044
23559900 14 18200887175581604134
2748010 2 18341066184791511397
4072396 5 18192704553875756353
5104073 3 18410575106322935384
58807428 26 18340772550498505291
7097593 13 18335976571283539818
7364860 26 17982174418038286591

>  <PUBCHEM_SHAPE_MULTIPOLES>  (1) 
362.55
6.58
2.91
1.01
0.43
0.77
0.09
-0.9
2.14
0.55
0.07
-0.23
0.29
0.03

>  <PUBCHEM_SHAPE_SELFOVERLAP>  (1) 
760.178

>  <PUBCHEM_SHAPE_VOLUME>  (1) 
204.9

>  <PUBCHEM_COORDINATE_TYPE>  (1) 
2
5
10

$$$$
