39829
     RDKit          3D

 23 25  0  0  0  0  0  0  0  0999 V2000
    1.3950   -1.4090   -0.3517 O   0  0  0  0  0  0  0  0  0  0  0  0
   -0.4635    0.2109   -1.8818 O   0  0  0  0  0  0  0  0  0  0  0  0
    3.0578   -2.2952    0.9708 O   0  0  0  0  0  0  0  0  0  0  0  0
   -1.4391   -1.4881   -0.5998 N   0  0  0  0  0  0  0  0  0  0  0  0
   -3.2083   -0.9666    0.9009 N   0  0  0  0  0  0  0  0  0  0  0  0
    4.3316    2.4870    0.1063 N   0  0  0  0  0  0  0  0  0  0  0  0
   -0.5637   -2.5111   -1.1701 C   0  0  0  0  0  0  0  0  0  0  0  0
   -2.3996   -1.8196    0.3538 C   0  0  0  0  0  0  0  0  0  0  0  0
   -2.1931    0.8199   -0.4319 C   0  0  0  0  0  0  0  0  0  0  0  0
   -1.2794   -0.1672   -1.0459 C   0  0  0  0  0  0  0  0  0  0  0  0
   -3.1194    0.3773    0.5157 C   0  0  0  0  0  0  0  0  0  0  0  0
    0.7055   -2.6521   -0.3451 C   0  0  0  0  0  0  0  0  0  0  0  0
   -2.1294    2.1701   -0.7949 C   0  0  0  0  0  0  0  0  0  0  0  0
   -2.5091   -3.2639    0.7817 C   0  0  0  0  0  0  0  0  0  0  0  0
   -3.9868    1.3080    1.0989 C   0  0  0  0  0  0  0  0  0  0  0  0
   -2.9997    3.0857   -0.2053 C   0  0  0  0  0  0  0  0  0  0  0  0
   -3.9279    2.6558    0.7405 C   0  0  0  0  0  0  0  0  0  0  0  0
    2.5623   -1.3687    0.3485 C   0  0  0  0  0  0  0  0  0  0  0  0
    3.1805   -0.0214    0.2640 C   0  0  0  0  0  0  0  0  0  0  0  0
    4.5497    0.0897    0.3301 C   0  0  0  0  0  0  0  0  0  0  0  0
    2.3670    1.0782    0.1217 C   0  0  0  0  0  0  0  0  0  0  0  0
    5.0773    1.3681    0.2464 C   0  0  0  0  0  0  0  0  0  0  0  0
    2.9923    2.3124    0.0473 C   0  0  0  0  0  0  0  0  0  0  0  0
  1 12  1  0
  1 18  1  0
  2 10  2  0
  3 18  2  0
  4  7  1  0
  4  8  1  0
  4 10  1  0
  5  8  2  0
  5 11  1  0
  6 22  2  0
  6 23  1  0
  7 12  1  0
  8 14  1  0
  9 10  1  0
  9 11  2  0
  9 13  1  0
 11 15  1  0
 13 16  2  0
 15 17  2  0
 16 17  1  0
 18 19  1  0
 19 20  2  0
 19 21  1  0
 20 22  1  0
 21 23  2  0
M  END
>  <PUBCHEM_COMPOUND_CID>  (1) 
39829

>  <PUBCHEM_CONFORMER_RMSD>  (1) 
0.8

>  <PUBCHEM_CONFORMER_DIVERSEORDER>  (1) 
1
25
49
43
48
27
34
6
57
64
26
58
4
15
60
28
32
17
10
46
55
61
11
20
42
45
13
19
3
18
40
35
8
54
7
65
29
14
22
33
63
44
21
56
9
23
5
2
51
59
62
39
12
53
36
37
31
50
16
52
41
47
24
30
38

>  <PUBCHEM_MMFF94_PARTIAL_CHARGES>  (1) 
31
1 -0.43
10 0.54
11 0.18
12 0.28
13 -0.15
14 0.06
15 -0.15
16 -0.15
17 -0.15
18 0.63
19 0.09
2 -0.57
20 -0.15
21 -0.15
22 0.16
23 0.16
28 0.15
3 -0.57
32 0.15
33 0.15
34 0.15
35 0.15
36 0.15
37 0.15
38 0.15
4 -0.42
5 -0.63
6 -0.62
7 0.3
8 0.45
9 0.09

>  <PUBCHEM_EFFECTIVE_ROTOR_COUNT>  (1) 
5

>  <PUBCHEM_PHARMACOPHORE_FEATURES>  (1) 
6
1 2 acceptor
1 3 acceptor
1 6 acceptor
6 4 5 8 9 10 11 rings
6 6 19 20 21 22 23 rings
6 9 11 13 15 16 17 rings

>  <PUBCHEM_HEAVY_ATOM_COUNT>  (1) 
23

>  <PUBCHEM_ATOM_DEF_STEREO_COUNT>  (1) 
0

>  <PUBCHEM_ATOM_UDEF_STEREO_COUNT>  (1) 
0

>  <PUBCHEM_BOND_DEF_STEREO_COUNT>  (1) 
0

>  <PUBCHEM_BOND_UDEF_STEREO_COUNT>  (1) 
0

>  <PUBCHEM_ISOTOPIC_ATOM_COUNT>  (1) 
0

>  <PUBCHEM_COMPONENT_COUNT>  (1) 
1

>  <PUBCHEM_CACTVS_TAUTO_COUNT>  (1) 
1

>  <PUBCHEM_CONFORMER_ID>  (1) 
00009B9500000001

>  <PUBCHEM_MMFF94_ENERGY>  (1) 
65.0496

>  <PUBCHEM_FEATURE_SELFOVERLAP>  (1) 
30.477

>  <PUBCHEM_SHAPE_FINGERPRINT>  (1) 
10616163 171 18410013277334703152
10670039 82 18191879022976505484
10871710 139 18197777919522116023
1100329 8 14733099682390469621
11370993 70 18338796710997505329
12173636 292 18342450499700064902
12390115 104 18341345482383417484
12422481 6 18120909778162070554
12633257 1 18118114779952947970
12788726 201 17844502578765755247
12892183 10 18187093827627770203
12978246 48 18339358570082364624
13004483 165 18267572684650903883
13140716 1 18337110055675573470
13583140 156 17532925000763091963
14178342 30 18187939403487882895
14251751 93 18410006680512837032
14787075 74 18272365327202735657
151778 21 18339925900875644496
16110190 28 18262789654651079610
20621476 13 17617369589493878717
21475661 188 17834109741462213365
21756936 100 18200589324016276484
21864079 5 18342171150916768934
22182937 141 18412265042640801072
23227448 37 18411700980501872577
23559900 14 17982456988384794399
27216 239 18410011056915712955
392239 28 17898299547808179163
474 4 17983853381189504113
5048184 11 18413105065514719912
5081480 168 17199987416942923796
5104073 3 18336816585725546520
6287921 2 18115317798945670916
7097593 13 18260832600519426284
7808743 9 18341612667930016384

>  <PUBCHEM_SHAPE_MULTIPOLES>  (1) 
440.78
9.16
4.03
1.1
7.42
0.61
0.22
-6.14
-2.85
-1.85
-0.21
-0.6
0.19
-0.03

>  <PUBCHEM_SHAPE_SELFOVERLAP>  (1) 
959.31

>  <PUBCHEM_SHAPE_VOLUME>  (1) 
237.4

>  <PUBCHEM_COORDINATE_TYPE>  (1) 
2
5
10

$$$$
