39825
     RDKit          3D

 22 23  0  0  0  0  0  0  0  0999 V2000
   -2.9705    0.5238   -1.4595 O   0  0  0  0  0  0  0  0  0  0  0  0
   -3.3686    1.1893    0.8229 O   0  0  0  0  0  0  0  0  0  0  0  0
    1.4331    1.9034    0.2309 O   0  0  0  0  0  0  0  0  0  0  0  0
    5.1648   -0.7480    0.3045 N   0  0  0  0  0  0  0  0  0  0  0  0
    1.5252   -0.3023    0.9491 N   0  0  0  0  0  0  0  0  0  0  0  0
   -2.8076    1.5607   -0.4605 C   0  0  0  0  0  0  0  0  0  0  0  0
   -1.3132    1.8222   -0.2761 C   0  0  0  0  0  0  0  0  0  0  0  0
   -0.5985    0.5866    0.2544 C   0  0  0  0  0  0  0  0  0  0  0  0
   -3.5201    2.8200   -0.9520 C   0  0  0  0  0  0  0  0  0  0  0  0
    3.7382   -0.7579    0.0080 C   0  0  0  0  0  0  0  0  0  0  0  0
   -3.6237   -0.4359   -0.7473 C   0  0  0  0  0  0  0  0  0  0  0  0
   -3.8509   -0.0560    0.5556 C   0  0  0  0  0  0  0  0  0  0  0  0
    2.9410   -0.3265    1.2302 C   0  0  0  0  0  0  0  0  0  0  0  0
    0.8851    0.8297    0.4660 C   0  0  0  0  0  0  0  0  0  0  0  0
    5.6912    0.6179    0.2640 C   0  0  0  0  0  0  0  0  0  0  0  0
    5.8939   -1.6002   -0.6369 C   0  0  0  0  0  0  0  0  0  0  0  0
   -4.0323   -1.6628   -1.2279 C   0  0  0  0  0  0  0  0  0  0  0  0
   -4.4991   -0.8820    1.4504 C   0  0  0  0  0  0  0  0  0  0  0  0
    7.1636    0.6501    0.6370 C   0  0  0  0  0  0  0  0  0  0  0  0
    5.7634   -1.0834   -2.0597 C   0  0  0  0  0  0  0  0  0  0  0  0
   -4.6916   -2.5184   -0.3422 C   0  0  0  0  0  0  0  0  0  0  0  0
   -4.9237   -2.1303    0.9892 C   0  0  0  0  0  0  0  0  0  0  0  0
  1  6  1  0
  1 11  1  0
  2  6  1  0
  2 12  1  0
  3 14  2  0
  4 10  1  0
  4 15  1  0
  4 16  1  0
  5 13  1  0
  5 14  1  0
  6  7  1  0
  6  9  1  0
  7  8  1  0
  8 14  1  0
 10 13  1  0
 11 12  2  0
 11 17  1  0
 12 18  1  0
 15 19  1  0
 16 20  1  0
 17 21  2  0
 18 22  2  0
 21 22  1  0
M  END
>  <PUBCHEM_COMPOUND_CID>  (1) 
39825

>  <PUBCHEM_CONFORMER_RMSD>  (1) 
1

>  <PUBCHEM_CONFORMER_DIVERSEORDER>  (1) 
1
75
14
28
133
43
107
80
115
24
101
131
161
32
45
134
62
65
25
99
10
122
4
2
103
121
110
83
33
18
36
67
90
7
111
16
60
5
95
30
39
57
56
89
66
96
8
47
137
13
123
105
142
146
3
98
127
97
94
38
109
130
17
77
11
74
93
73
140
44
54
12
152
15
53
114
29
150
157
145
55
104
106
153
128
144
20
69
88
26
63
22
117
21
68
138
113
23
49
141
143
51
126
124
6
159
92
160
147
136
76
70
118
27
108
91
48
116
102
154
34
9
120
46
135
87
31
84
78
156
72
158
125
119
86
149
37
151
59
40
112
81
41
79
100
82
148
52
19
155
35
61
139
71
132
42
50
129
85
64
58

>  <PUBCHEM_MMFF94_PARTIAL_CHARGES>  (1) 
23
1 -0.36
10 0.27
11 0.08
12 0.08
13 0.3
14 0.57
15 0.27
16 0.27
17 -0.15
18 -0.15
2 -0.36
21 -0.15
22 -0.15
3 -0.57
34 0.37
39 0.15
4 -0.81
40 0.15
47 0.15
48 0.15
5 -0.73
6 0.56
8 0.06

>  <PUBCHEM_EFFECTIVE_ROTOR_COUNT>  (1) 
9.6

>  <PUBCHEM_PHARMACOPHORE_FEATURES>  (1) 
7
1 1 acceptor
1 2 acceptor
1 3 acceptor
1 4 cation
1 5 donor
5 1 2 6 11 12 rings
6 11 12 17 18 21 22 rings

>  <PUBCHEM_HEAVY_ATOM_COUNT>  (1) 
22

>  <PUBCHEM_ATOM_DEF_STEREO_COUNT>  (1) 
0

>  <PUBCHEM_ATOM_UDEF_STEREO_COUNT>  (1) 
0

>  <PUBCHEM_BOND_DEF_STEREO_COUNT>  (1) 
0

>  <PUBCHEM_BOND_UDEF_STEREO_COUNT>  (1) 
0

>  <PUBCHEM_ISOTOPIC_ATOM_COUNT>  (1) 
0

>  <PUBCHEM_COMPONENT_COUNT>  (1) 
1

>  <PUBCHEM_CACTVS_TAUTO_COUNT>  (1) 
2

>  <PUBCHEM_CONFORMER_ID>  (1) 
00009B9100000001

>  <PUBCHEM_MMFF94_ENERGY>  (1) 
41.0887

>  <PUBCHEM_FEATURE_SELFOVERLAP>  (1) 
35.675

>  <PUBCHEM_SHAPE_FINGERPRINT>  (1) 
10968037 57 18342455989296243707
11056379 131 18335422322749477549
11089746 13 12251896010776989778
12422481 6 12679192587350062024
12616971 3 16226336910868265812
12730499 353 17918272074617885826
13103583 49 15984827064144685211
13941219 33 17632585933122007387
14251757 5 17750243658513796994
14251758 9 10807939258597055546
14251764 30 18202289078561069494
14950920 106 15984540139123826371
15537594 2 18260266322182492395
15799311 1 16271926043232225780
17780758 139 17704076196450388963
17844677 252 18341895173741212488
18927931 339 18335143098588824687
193927 3 18411138073545622979
20101258 96 18187369831096278853
20621476 21 18130236999113742854
21054139 6 17821722849901454210
21315759 148 17989212538323375954
21623969 137 17489872627051668398
22950370 63 18131917057228237880
2303208 19 18130793339370503382
23081809 10 17313105216516945536
23559900 14 18336251432016597369
2838139 119 12540686029256664806
312425 83 14636247371123500747
329604 57 18113902697257267330
3737641 26 17774169989670339142
4325135 7 18335700568258824468
4938544 92 17775294833189027993
5312625 73 18339920532678461448
6328613 192 10879984801226237938
7226269 152 9871755701902355306
8217 86 18261116321626759227

>  <PUBCHEM_SHAPE_MULTIPOLES>  (1) 
425.18
17.34
2.48
1.39
26.42
0.37
-0.33
-7.28
-0.92
-3.51
-0.57
0.1
-0.36
1.67

>  <PUBCHEM_SHAPE_SELFOVERLAP>  (1) 
873.97

>  <PUBCHEM_SHAPE_VOLUME>  (1) 
246.4

>  <PUBCHEM_COORDINATE_TYPE>  (1) 
2
5
10

$$$$
