39834
     RDKit          3D

 13 14  0  0  0  0  0  0  0  0999 V2000
    2.0018    2.4135    0.8206 O   0  0  0  0  0  0  0  0  0  0  0  0
    2.7308   -1.1407   -0.1452 O   0  0  0  0  0  0  0  0  0  0  0  0
    0.4460   -2.8242    0.1933 O   0  0  0  0  0  0  0  0  0  0  0  0
    1.0728    0.5598   -0.2349 N   0  0  0  0  0  0  0  0  0  0  0  0
   -0.3315    0.5407   -0.1431 C   0  0  0  0  0  0  0  0  0  0  0  0
   -0.7920   -0.7622    0.0357 C   0  0  0  0  0  0  0  0  0  0  0  0
    1.5953   -0.7174   -0.1217 C   0  0  0  0  0  0  0  0  0  0  0  0
    0.3853   -1.6261    0.0598 C   0  0  0  0  0  0  0  0  0  0  0  0
    1.8632    1.7523   -0.4220 C   0  0  0  0  0  0  0  0  0  0  0  0
   -1.2225    1.5961   -0.2070 C   0  0  0  0  0  0  0  0  0  0  0  0
   -2.1283   -1.0783    0.1573 C   0  0  0  0  0  0  0  0  0  0  0  0
   -2.5864    1.3051   -0.0866 C   0  0  0  0  0  0  0  0  0  0  0  0
   -3.0345   -0.0186    0.0937 C   0  0  0  0  0  0  0  0  0  0  0  0
  1  9  1  0
  2  7  2  0
  3  8  2  0
  4  5  1  0
  4  7  1  0
  4  9  1  0
  5  6  2  0
  5 10  1  0
  6  8  1  0
  6 11  1  0
  7  8  1  0
 10 12  2  0
 11 13  2  0
 12 13  1  0
M  END
>  <PUBCHEM_COMPOUND_CID>  (1) 
39834

>  <PUBCHEM_CONFORMER_RMSD>  (1) 
0.4

>  <PUBCHEM_CONFORMER_DIVERSEORDER>  (1) 
1
3
2

>  <PUBCHEM_MMFF94_PARTIAL_CHARGES>  (1) 
18
1 -0.68
10 -0.15
11 -0.15
12 -0.15
13 -0.15
16 0.15
17 0.15
18 0.15
19 0.15
2 -0.57
20 0.4
3 -0.57
4 -0.48
5 0.12
6 0.09
7 0.63
8 0.48
9 0.58

>  <PUBCHEM_EFFECTIVE_ROTOR_COUNT>  (1) 
1.2

>  <PUBCHEM_PHARMACOPHORE_FEATURES>  (1) 
6
1 1 acceptor
1 1 donor
1 2 acceptor
1 3 acceptor
5 4 5 6 7 8 rings
6 5 6 10 11 12 13 rings

>  <PUBCHEM_HEAVY_ATOM_COUNT>  (1) 
13

>  <PUBCHEM_ATOM_DEF_STEREO_COUNT>  (1) 
0

>  <PUBCHEM_ATOM_UDEF_STEREO_COUNT>  (1) 
0

>  <PUBCHEM_BOND_DEF_STEREO_COUNT>  (1) 
0

>  <PUBCHEM_BOND_UDEF_STEREO_COUNT>  (1) 
0

>  <PUBCHEM_ISOTOPIC_ATOM_COUNT>  (1) 
0

>  <PUBCHEM_COMPONENT_COUNT>  (1) 
1

>  <PUBCHEM_CACTVS_TAUTO_COUNT>  (1) 
1

>  <PUBCHEM_CONFORMER_ID>  (1) 
00009B9A00000001

>  <PUBCHEM_MMFF94_ENERGY>  (1) 
33.8339

>  <PUBCHEM_FEATURE_SELFOVERLAP>  (1) 
30.539

>  <PUBCHEM_SHAPE_FINGERPRINT>  (1) 
10967382 1 18409731763550098063
11206711 2 18263366901896267775
12382932 28 17977658706513165290
12423570 1 11928719362047720909
12524768 44 18334014965182781157
13140716 1 18409732876231490715
13380535 76 18196084663051591428
16945 1 18337953364156704167
193761 8 18194122043280788638
19973954 147 18410295804631174709
20511035 2 18261684764869608910
20588541 1 18118971282362498199
21040471 1 18192999441766118780
21501502 16 18410858776033006797
2334 1 18265336286140587839
23463225 33 18044937870573005890
23552423 10 18335703819253590447
23559900 14 18269283357719664118
241688 4 17401205573502758971
2748010 2 18335989778081238607
5084963 1 18201721747266083731
5255222 1 18190459359563517037
53812653 166 18267581308321904248
63268167 104 18048037367970704161
7364860 26 18341612581508151574
81228 2 17545886391459857330

>  <PUBCHEM_SHAPE_MULTIPOLES>  (1) 
244.94
3.76
2.57
0.66
0.93
0.21
0.02
-0.75
0.06
-1.15
0.26
-0.07
-0.14
0.25

>  <PUBCHEM_SHAPE_SELFOVERLAP>  (1) 
535.73

>  <PUBCHEM_SHAPE_VOLUME>  (1) 
133.3

>  <PUBCHEM_COORDINATE_TYPE>  (1) 
2
5
10

$$$$
