39831
     RDKit          3D

 10 10  0  0  0  0  0  0  0  0999 V2000
    2.0688   -0.4257   -0.0141 O   0  0  0  0  0  0  0  0  0  0  0  0
    0.9616    1.6014    0.0389 O   0  0  0  0  0  0  0  0  0  0  0  0
   -2.6345   -0.5930   -0.0639 N   0  0  0  0  0  0  0  0  0  0  0  0
   -3.7648    0.0831   -0.7003 C   0  0  0  0  0  0  0  0  0  0  0  0
   -3.7105   -0.0894    0.7896 C   0  0  0  0  0  0  0  0  0  0  0  0
   -1.4435    0.0594   -0.0318 C   0  0  0  0  0  0  0  0  0  0  0  0
   -0.2225   -0.4863   -0.0379 C   0  0  0  0  0  0  0  0  0  0  0  0
    0.9739    0.3814    0.0004 C   0  0  0  0  0  0  0  0  0  0  0  0
    3.3308    0.2491    0.0201 C   0  0  0  0  0  0  0  0  0  0  0  0
    4.4409   -0.7799   -0.0011 C   0  0  0  0  0  0  0  0  0  0  0  0
  1  8  1  0
  1  9  1  0
  2  8  2  0
  3  4  1  0
  3  5  1  0
  3  6  1  0
  4  5  1  0
  6  7  2  0
  7  8  1  0
  9 10  1  0
M  END
>  <PUBCHEM_COMPOUND_CID>  (1) 
39831

>  <PUBCHEM_CONFORMER_RMSD>  (1) 
0.6

>  <PUBCHEM_CONFORMER_DIVERSEORDER>  (1) 
1
9
14
10
22
26
21
15
20
17
19
18
13
7
3
11
4
2
23
25
5
6
12
24
8
16

>  <PUBCHEM_MMFF94_PARTIAL_CHARGES>  (1) 
15
1 -0.43
11 0.1
12 0.1
13 0.1
14 0.1
15 0.15
16 0.15
2 -0.57
3 -0.44
4 -0.03
5 -0.03
6 -0.05
7 -0.14
8 0.71
9 0.28

>  <PUBCHEM_EFFECTIVE_ROTOR_COUNT>  (1) 
4.6

>  <PUBCHEM_PHARMACOPHORE_FEATURES>  (1) 
2
1 2 acceptor
1 3 cation

>  <PUBCHEM_HEAVY_ATOM_COUNT>  (1) 
10

>  <PUBCHEM_ATOM_DEF_STEREO_COUNT>  (1) 
0

>  <PUBCHEM_ATOM_UDEF_STEREO_COUNT>  (1) 
0

>  <PUBCHEM_BOND_DEF_STEREO_COUNT>  (1) 
0

>  <PUBCHEM_BOND_UDEF_STEREO_COUNT>  (1) 
1

>  <PUBCHEM_ISOTOPIC_ATOM_COUNT>  (1) 
0

>  <PUBCHEM_COMPONENT_COUNT>  (1) 
1

>  <PUBCHEM_CACTVS_TAUTO_COUNT>  (1) 
1

>  <PUBCHEM_CONFORMER_ID>  (1) 
00009B9700000001

>  <PUBCHEM_MMFF94_ENERGY>  (1) 
28.53

>  <PUBCHEM_FEATURE_SELFOVERLAP>  (1) 
10.148

>  <PUBCHEM_SHAPE_FINGERPRINT>  (1) 
10219947 1 18202003235306927422
11062470 55 14692573216835391099
12032990 46 18408045095839286002
124424 183 18333729113555216125
12932764 1 17313651750572553019
13690532 89 18342736325404994583
14252887 29 18201446848301333342
14325111 11 18338516447211874639
190213 19 18040154019775647468
20645477 70 18261947436501103222
22485316 2 18334008398088277194
23402539 116 14620789375887264361

>  <PUBCHEM_SHAPE_MULTIPOLES>  (1) 
189.08
8.3
0.95
0.71
1.79
0.25
0.02
-1.54
0.05
0.43
0.01
-0.46
-0.01
0.06

>  <PUBCHEM_SHAPE_SELFOVERLAP>  (1) 
362.799

>  <PUBCHEM_SHAPE_VOLUME>  (1) 
117.3

>  <PUBCHEM_COORDINATE_TYPE>  (1) 
2
5
10

$$$$
