39836
     RDKit          3D

 16 15  0  0  1  0  0  0  0  0999 V2000
   -2.4621    1.6757    0.1848 O   0  0  0  0  0  0  0  0  0  0  0  0
   -4.0305    0.4373   -0.9623 O   0  0  0  0  0  0  0  0  0  0  0  0
    4.2745    2.0719    0.4074 O   0  0  0  0  0  0  0  0  0  0  0  0
    2.1166    1.6779    0.2282 O   0  0  0  0  0  0  0  0  0  0  0  0
   -3.7100   -1.6759    0.7116 N   0  0  0  0  0  0  0  0  0  0  0  0
    1.3932   -0.7870   -0.2471 N   0  0  0  0  0  0  0  0  0  0  0  0
    3.6259    0.0165    0.0110 N   0  0  0  0  0  0  0  0  0  0  0  0
    3.3105   -2.1957   -0.3985 N   0  0  0  0  0  0  0  0  0  0  0  0
    3.3019    1.3319    0.2268 N   0  0  0  0  0  0  0  0  0  0  0  0
   -1.3545   -0.9161    0.8563 C   0  0  0  0  0  0  0  0  0  0  0  0
   -0.9306   -1.5243   -0.4897 C   0  0  0  0  0  0  0  0  0  0  0  0
   -2.8380   -0.5244    0.9378 C   0  0  0  0  0  0  0  0  0  0  0  0
    0.5358   -1.9469   -0.4975 C   0  0  0  0  0  0  0  0  0  0  0  0
   -3.2005    0.5533   -0.0698 C   0  0  0  0  0  0  0  0  0  0  0  0
    2.6744   -0.9803   -0.2152 C   0  0  0  0  0  0  0  0  0  0  0  0
   -2.7065    2.7864   -0.6841 C   0  0  0  0  0  0  0  0  0  0  0  0
  1 14  1  0
  1 16  1  0
  2 14  2  0
  3  9  1  0
  4  9  2  0
  5 12  1  0
  6 13  1  0
  6 15  2  0
  7  9  1  0
  7 15  1  0
  8 15  1  0
 10 11  1  0
 10 12  1  0
 11 13  1  0
 12 14  1  0
M  CHG  2   3  -1   9   1
M  END
>  <PUBCHEM_COMPOUND_CID>  (1) 
39836

>  <PUBCHEM_CONFORMER_RMSD>  (1) 
0.8

>  <PUBCHEM_CONFORMER_DIVERSEORDER>  (1) 
1
49
75
143
95
137
16
194
159
178
68
39
117
98
128
20
99
91
170
78
165
59
9
195
192
83
152
60
7
93
127
108
210
74
113
202
24
88
48
191
69
6
65
84
46
161
186
56
176
158
34
162
36
146
112
208
67
181
77
157
190
183
55
66
122
18
101
61
171
131
148
35
97
188
153
81
139
54
92
182
31
166
200
121
2
167
163
37
174
76
105
5
130
142
198
23
115
196
125
19
90
173
85
42
116
28
118
175
147
87
4
12
126
50
154
209
184
72
57
30
106
43
11
180
169
8
27
10
89
197
156
3
145
107
86
206
123
63
47
111
149
103
26
203
82
134
177
96
79
140
132
94
100
21
25
15
17
110
179
33
102
189
53
185
64
73
151
32
45
187
70
62
172
160
22
136
80
205
141
129
13
109
138
52
104
201
14
204
51
119
133
207
135
58
29
150
144
40
44
114
71
38
193
120
168
199
41
164
155
124

>  <PUBCHEM_MMFF94_PARTIAL_CHARGES>  (1) 
19
1 -0.43
12 0.33
13 0.25
14 0.66
15 0.55
16 0.28
2 -0.57
24 0.36
25 0.36
29 0.4
3 -0.52
30 0.4
31 0.4
4 -0.52
5 -0.99
6 -0.7
7 -0.45
8 -0.85
9 1.04

>  <PUBCHEM_EFFECTIVE_ROTOR_COUNT>  (1) 
8

>  <PUBCHEM_PHARMACOPHORE_FEATURES>  (1) 
8
1 2 acceptor
1 3 acceptor
1 4 acceptor
1 5 cation
1 5 donor
1 7 donor
1 8 donor
4 6 7 8 15 cation

>  <PUBCHEM_HEAVY_ATOM_COUNT>  (1) 
16

>  <PUBCHEM_ATOM_DEF_STEREO_COUNT>  (1) 
1

>  <PUBCHEM_ATOM_UDEF_STEREO_COUNT>  (1) 
0

>  <PUBCHEM_BOND_DEF_STEREO_COUNT>  (1) 
0

>  <PUBCHEM_BOND_UDEF_STEREO_COUNT>  (1) 
0

>  <PUBCHEM_ISOTOPIC_ATOM_COUNT>  (1) 
0

>  <PUBCHEM_COMPONENT_COUNT>  (1) 
1

>  <PUBCHEM_CACTVS_TAUTO_COUNT>  (1) 
3

>  <PUBCHEM_CONFORMER_ID>  (1) 
00009B9C00000001

>  <PUBCHEM_MMFF94_ENERGY>  (1) 
28.4674

>  <PUBCHEM_FEATURE_SELFOVERLAP>  (1) 
40.734

>  <PUBCHEM_SHAPE_FINGERPRINT>  (1) 
10608611 8 18410014295157510671
11615756 256 18410865325689587976
11615756 56 18339924814058852061
11715629 250 18341896337434464150
13618510 140 18413107281627907528
14026960 21 18411423950658155183
14251764 38 18338790122417797256
17041 50 18198072374011671662
17802600 8 18410853222539936391
18186145 218 18130801026892841410
20645477 56 18189908513365875855
20681677 76 18409168809492022779
21249577 43 18410013229984658676
21524375 3 18200879598932765382
21652331 79 18339082695621110027
22182937 141 18196381316743978577
23557571 272 18187375354381503947
23590187 86 18337951194897935677
351380 180 18337666421565377903
3524813 1 18199748209804504864
4028521 119 18188483584819102405
8050 44 18410855417447657101

>  <PUBCHEM_SHAPE_MULTIPOLES>  (1) 
280.89
8.35
2.83
0.86
2.79
1.29
0.02
2.7
0.18
0.32
-0.28
-0.53
-0.08
1.4

>  <PUBCHEM_SHAPE_SELFOVERLAP>  (1) 
539.263

>  <PUBCHEM_SHAPE_VOLUME>  (1) 
170.6

>  <PUBCHEM_COORDINATE_TYPE>  (1) 
2
5
10

$$$$
