39844
     RDKit          3D

 20 21  0  0  1  0  0  0  0  0999 V2000
    6.9352   -0.8776   -0.1821 Cl  0  0  0  0  0  0  0  0  0  0  0  0
   -3.2200    2.6435    0.4441 O   0  0  0  0  0  0  0  0  0  0  0  0
   -4.4576   -1.4428    0.0830 N   0  0  0  0  0  0  0  0  0  0  0  0
   -3.8749    0.7292   -0.8763 C   0  0  0  0  0  0  0  0  0  0  0  0
   -3.0714    1.2255    0.3385 C   0  0  0  0  0  0  0  0  0  0  0  0
   -3.8787   -0.7867   -1.0643 C   0  0  0  0  0  0  0  0  0  0  0  0
   -1.5946    0.9156    0.2618 C   0  0  0  0  0  0  0  0  0  0  0  0
   -0.7506    1.7957   -0.3951 C   0  0  0  0  0  0  0  0  0  0  0  0
   -1.1137   -0.2426    0.8499 C   0  0  0  0  0  0  0  0  0  0  0  0
    1.1129    0.3473    0.1212 C   0  0  0  0  0  0  0  0  0  0  0  0
    0.6128    1.5096   -0.4660 C   0  0  0  0  0  0  0  0  0  0  0  0
    0.2496   -0.5287    0.7791 C   0  0  0  0  0  0  0  0  0  0  0  0
   -4.4662   -2.9022   -0.0887 C   0  0  0  0  0  0  0  0  0  0  0  0
   -5.8247   -0.9661    0.3335 C   0  0  0  0  0  0  0  0  0  0  0  0
    2.5270    0.0506    0.0478 C   0  0  0  0  0  0  0  0  0  0  0  0
    3.4566    1.0890   -0.0102 C   0  0  0  0  0  0  0  0  0  0  0  0
    2.9609   -1.2751    0.0350 C   0  0  0  0  0  0  0  0  0  0  0  0
    4.8198    0.8018   -0.0811 C   0  0  0  0  0  0  0  0  0  0  0  0
    4.3240   -1.5622   -0.0359 C   0  0  0  0  0  0  0  0  0  0  0  0
    5.2535   -0.5238   -0.0940 C   0  0  0  0  0  0  0  0  0  0  0  0
  1 20  1  0
  2  5  1  0
  3  6  1  0
  3 13  1  0
  3 14  1  0
  4  5  1  0
  4  6  1  0
  5  7  1  0
  7  8  2  0
  7  9  1  0
  8 11  1  0
  9 12  2  0
 10 11  2  0
 10 12  1  0
 10 15  1  0
 15 16  2  0
 15 17  1  0
 16 18  1  0
 17 19  2  0
 18 20  2  0
 19 20  1  0
M  END
>  <PUBCHEM_COMPOUND_CID>  (1) 
39844

>  <PUBCHEM_CONFORMER_RMSD>  (1) 
0.8

>  <PUBCHEM_CONFORMER_DIVERSEORDER>  (1) 
2
3
11
8
7
4
9
6
5
10
1

>  <PUBCHEM_MMFF94_PARTIAL_CHARGES>  (1) 
26
1 -0.18
11 -0.15
12 -0.15
13 0.27
14 0.27
16 -0.15
17 -0.15
18 -0.15
19 -0.15
2 -0.68
20 0.18
26 0.15
27 0.15
28 0.15
29 0.15
3 -0.81
36 0.4
37 0.15
38 0.15
39 0.15
40 0.15
5 0.42
6 0.27
7 -0.14
8 -0.15
9 -0.15

>  <PUBCHEM_EFFECTIVE_ROTOR_COUNT>  (1) 
5

>  <PUBCHEM_PHARMACOPHORE_FEATURES>  (1) 
5
1 2 acceptor
1 2 donor
1 3 cation
6 15 16 17 18 19 20 rings
6 7 8 9 10 11 12 rings

>  <PUBCHEM_HEAVY_ATOM_COUNT>  (1) 
20

>  <PUBCHEM_ATOM_DEF_STEREO_COUNT>  (1) 
0

>  <PUBCHEM_ATOM_UDEF_STEREO_COUNT>  (1) 
1

>  <PUBCHEM_BOND_DEF_STEREO_COUNT>  (1) 
0

>  <PUBCHEM_BOND_UDEF_STEREO_COUNT>  (1) 
0

>  <PUBCHEM_ISOTOPIC_ATOM_COUNT>  (1) 
0

>  <PUBCHEM_COMPONENT_COUNT>  (1) 
1

>  <PUBCHEM_CACTVS_TAUTO_COUNT>  (1) 
1

>  <PUBCHEM_CONFORMER_ID>  (1) 
00009BA400000002

>  <PUBCHEM_MMFF94_ENERGY>  (1) 
59.7429

>  <PUBCHEM_FEATURE_SELFOVERLAP>  (1) 
25.371

>  <PUBCHEM_SHAPE_FINGERPRINT>  (1) 
10 15 11383829385250019998
10595046 47 18409450289064147204
11045515 52 18187079568458219037
11089746 13 13045945724571154022
11524674 6 16630808820244789095
11806522 49 18335700576279209125
12107183 9 17619068330863720680
12166972 35 17603588555917567196
12760667 363 18342454877089598887
13167823 11 18341328920630620078
13288520 33 18412263939303665365
13583140 156 16916492658520117296
13862211 1 18187644679111778298
13911882 115 17846225431955986862
1420 363 18343866623648355670
14251732 16 18341046402588747328
14251740 79 18260267473392204035
14350574 20 18113901593635314619
15196674 1 18409449163693012368
17349148 13 17894630361562791136
17834072 33 18409450297617100156
17844677 252 18342744017834132392
18927931 339 18410020926845537071
19784866 170 11887682779401427281
200 152 18272931605323320600
20645477 70 18409732825103774606
21054139 6 18187079568611004706
21130935 74 18341327779029682554
21150785 3 16081375180369560710
21236236 1 18411420588015189201
21267235 1 18409454695231107490
21421861 104 12247136164958901860
221490 88 18190463955452563897
22393880 68 17895741963829421573
23035841 295 18410293618719603027
23379529 103 18046912864203403427
23402539 116 18334293132924066596
23557571 272 18202006499213345732
23559900 14 18341321266793586288
25122255 55 18272380758451167894
2838139 119 12685088189899187967
3004659 81 18114176462398527046
335352 9 18410008837266719845
4214541 1 18412262800684002009
4325135 7 18408606967718973526
465052 167 18202288022041202630
5104073 3 18272927185833628792
5283173 99 18040989618426985580
531348 171 17460583736766840518
59755656 520 16733271162397295473
7062679 117 18410856551176624502
7495541 125 17703505584206830656
7970288 3 18197493133464035839
9709674 26 18337118869360116466

>  <PUBCHEM_SHAPE_MULTIPOLES>  (1) 
402.61
14.44
2.27
0.82
7.7
0.28
0.04
7.2
1.24
-2.58
0.03
-0.45
-0.01
-0.13

>  <PUBCHEM_SHAPE_SELFOVERLAP>  (1) 
839.672

>  <PUBCHEM_SHAPE_VOLUME>  (1) 
231.6

>  <PUBCHEM_COORDINATE_TYPE>  (1) 
2
5
10

$$$$
