39840
     RDKit          3D

 21 22  0  0  1  0  0  0  0  0999 V2000
   -2.1765    3.0855    0.1608 O   0  0  0  0  0  0  0  0  0  0  0  0
   -3.7340   -0.8802   -0.0119 N   0  0  0  0  0  0  0  0  0  0  0  0
   -2.9865    1.1882   -1.0928 C   0  0  0  0  0  0  0  0  0  0  0  0
   -3.0818   -0.3342   -1.1971 C   0  0  0  0  0  0  0  0  0  0  0  0
   -2.1683    1.6570    0.1213 C   0  0  0  0  0  0  0  0  0  0  0  0
   -3.8298   -2.3380   -0.1025 C   0  0  0  0  0  0  0  0  0  0  0  0
   -5.0638   -0.2934    0.1605 C   0  0  0  0  0  0  0  0  0  0  0  0
   -0.7284    1.1995    0.1053 C   0  0  0  0  0  0  0  0  0  0  0  0
   -0.2390    0.4637    1.1719 C   0  0  0  0  0  0  0  0  0  0  0  0
    0.0742    1.5248   -0.9757 C   0  0  0  0  0  0  0  0  0  0  0  0
   -2.4591   -2.9682   -0.2820 C   0  0  0  0  0  0  0  0  0  0  0  0
   -5.7293   -0.8041    1.4272 C   0  0  0  0  0  0  0  0  0  0  0  0
    1.9117    0.3608    0.0760 C   0  0  0  0  0  0  0  0  0  0  0  0
    1.0905    0.0413    1.1572 C   0  0  0  0  0  0  0  0  0  0  0  0
    1.4036    1.1025   -0.9906 C   0  0  0  0  0  0  0  0  0  0  0  0
    3.2904   -0.0778    0.0603 C   0  0  0  0  0  0  0  0  0  0  0  0
    4.2862    0.7319    0.6063 C   0  0  0  0  0  0  0  0  0  0  0  0
    3.6235   -1.3106   -0.5006 C   0  0  0  0  0  0  0  0  0  0  0  0
    5.6154    0.3089    0.5913 C   0  0  0  0  0  0  0  0  0  0  0  0
    4.9526   -1.7338   -0.5156 C   0  0  0  0  0  0  0  0  0  0  0  0
    5.9485   -0.9239    0.0304 C   0  0  0  0  0  0  0  0  0  0  0  0
  1  5  1  0
  2  4  1  0
  2  6  1  0
  2  7  1  0
  3  4  1  0
  3  5  1  0
  5  8  1  0
  6 11  1  0
  7 12  1  0
  8  9  2  0
  8 10  1  0
  9 14  1  0
 10 15  2  0
 13 14  2  0
 13 15  1  0
 13 16  1  0
 16 17  2  0
 16 18  1  0
 17 19  1  0
 18 20  2  0
 19 21  2  0
 20 21  1  0
M  END
>  <PUBCHEM_COMPOUND_CID>  (1) 
39840

>  <PUBCHEM_CONFORMER_RMSD>  (1) 
0.8

>  <PUBCHEM_CONFORMER_DIVERSEORDER>  (1) 
1
13
26
21
8
36
17
28
33
35
39
34
12
29
22
3
19
23
16
9
24
14
37
27
7
25
15
6
20
32
31
10
30
5
11
18
38
4
2

>  <PUBCHEM_MMFF94_PARTIAL_CHARGES>  (1) 
26
1 -0.68
10 -0.15
14 -0.15
15 -0.15
17 -0.15
18 -0.15
19 -0.15
2 -0.81
20 -0.15
21 -0.15
31 0.15
32 0.15
39 0.4
4 0.27
40 0.15
41 0.15
42 0.15
43 0.15
44 0.15
45 0.15
46 0.15
5 0.42
6 0.27
7 0.27
8 -0.14
9 -0.15

>  <PUBCHEM_EFFECTIVE_ROTOR_COUNT>  (1) 
7

>  <PUBCHEM_PHARMACOPHORE_FEATURES>  (1) 
5
1 1 acceptor
1 1 donor
1 2 cation
6 16 17 18 19 20 21 rings
6 8 9 10 13 14 15 rings

>  <PUBCHEM_HEAVY_ATOM_COUNT>  (1) 
21

>  <PUBCHEM_ATOM_DEF_STEREO_COUNT>  (1) 
0

>  <PUBCHEM_ATOM_UDEF_STEREO_COUNT>  (1) 
1

>  <PUBCHEM_BOND_DEF_STEREO_COUNT>  (1) 
0

>  <PUBCHEM_BOND_UDEF_STEREO_COUNT>  (1) 
0

>  <PUBCHEM_ISOTOPIC_ATOM_COUNT>  (1) 
0

>  <PUBCHEM_COMPONENT_COUNT>  (1) 
1

>  <PUBCHEM_CACTVS_TAUTO_COUNT>  (1) 
1

>  <PUBCHEM_CONFORMER_ID>  (1) 
00009BA000000001

>  <PUBCHEM_MMFF94_ENERGY>  (1) 
54.1447

>  <PUBCHEM_FEATURE_SELFOVERLAP>  (1) 
25.371

>  <PUBCHEM_SHAPE_FINGERPRINT>  (1) 
11089746 13 9007061240615382248
11370993 144 17489591159999987323
11552529 35 17201628089944525207
12553582 1 18262785359435759635
12596602 18 14045445774489691334
12633257 1 16415477190105828031
13103583 49 17561091349330605579
13167823 11 18340482266992185086
13288520 33 18410011018123909149
13402501 40 18343022207161114999
13544653 18 18131345332313771924
13583140 156 17774426205975906740
13941219 33 18059581269500288243
14251740 79 18408887317177324227
14251764 18 17561086930146627835
14251764 30 17823146781958144043
14341114 176 18272371975305980400
14350574 20 17603589646707280489
146900 427 17060330873367208584
15209294 21 11312056547738670660
15537594 2 18040712571857242171
17349148 13 17022897943838120664
17844677 252 18342179942979126592
1813 80 17821732749204641293
19141452 34 18342741857739797983
193927 3 18187654612790852533
19784866 170 13830139390068360641
200 152 17748542645289669680
20739085 24 14692279694992328802
21150785 3 16370734742484122638
21267235 1 18259992573514044259
21403212 168 18201166464968762523
21673915 165 18412261735975341246
23379529 103 18044665423412187147
23402539 116 17022899009026887884
23557571 272 18202003188157791208
23559900 14 18340756118096497144
351380 3 18040996258562430651
4214541 1 18341328886445208292
4325135 7 18335706070301860868
4921388 177 18409728426381608167
5104073 3 18129936772699519658
6433294 58 18268145353972975934
7495541 125 17917705829797197440
9709674 26 18201158741968860694

>  <PUBCHEM_SHAPE_MULTIPOLES>  (1) 
421.32
13.18
2.47
1.13
5.95
0.48
-0.07
6.3
-1.94
-2.21
0.37
-0.58
-0.1
0.62

>  <PUBCHEM_SHAPE_SELFOVERLAP>  (1) 
877.466

>  <PUBCHEM_SHAPE_VOLUME>  (1) 
242.1

>  <PUBCHEM_COORDINATE_TYPE>  (1) 
2
5
10

$$$$
