39849
     RDKit          3D

 32 34  0  0  1  0  0  0  0  0999 V2000
   -3.0483   -2.6579   -1.6532 S   0  0  0  0  0  0  0  0  0  0  0  0
   -0.7046   -1.7805    1.9730 O   0  0  0  0  0  0  0  0  0  0  0  0
   -2.2453    1.1765    0.6464 O   0  0  0  0  0  0  0  0  0  0  0  0
   -4.4693    0.9673    1.2401 O   0  0  0  0  0  0  0  0  0  0  0  0
    1.8711   -3.3498    1.0610 O   0  0  0  0  0  0  0  0  0  0  0  0
   -0.9119    3.1377    0.8045 O   0  0  0  0  0  0  0  0  0  0  0  0
    0.7880    3.7131   -0.4748 O   0  0  0  0  0  0  0  0  0  0  0  0
   -1.0438    2.7188   -1.4586 O   0  0  0  0  0  0  0  0  0  0  0  0
   -1.8514   -1.0884    0.0298 N   0  0  0  0  0  0  0  0  0  0  0  0
    0.9542   -2.3102   -0.7978 N   0  0  0  0  0  0  0  0  0  0  0  0
    4.3219   -3.4287   -0.2114 N   0  0  0  0  0  0  0  0  0  0  0  0
   -1.5121   -1.7584   -1.2291 C   0  0  0  0  0  0  0  0  0  0  0  0
   -4.0882   -1.3428   -0.8414 C   0  0  0  0  0  0  0  0  0  0  0  0
   -3.2466   -0.9153    0.3803 C   0  0  0  0  0  0  0  0  0  0  0  0
   -0.4457   -2.5405   -0.4503 C   0  0  0  0  0  0  0  0  0  0  0  0
   -0.9271   -1.7518    0.7838 C   0  0  0  0  0  0  0  0  0  0  0  0
   -5.4217   -1.9575   -0.4125 C   0  0  0  0  0  0  0  0  0  0  0  0
   -4.3289   -0.2294   -1.8699 C   0  0  0  0  0  0  0  0  0  0  0  0
   -3.4206    0.5062    0.8109 C   0  0  0  0  0  0  0  0  0  0  0  0
    2.0156   -2.7420    0.0014 C   0  0  0  0  0  0  0  0  0  0  0  0
    3.3798   -2.3626   -0.5639 C   0  0  0  0  0  0  0  0  0  0  0  0
   -2.2229    2.5706    1.0116 C   0  0  0  0  0  0  0  0  0  0  0  0
    3.8209   -1.0088   -0.0473 C   0  0  0  0  0  0  0  0  0  0  0  0
   -2.5359    2.6991    2.4956 C   0  0  0  0  0  0  0  0  0  0  0  0
    4.6342   -0.2172   -0.8386 C   0  0  0  0  0  0  0  0  0  0  0  0
    3.4007   -0.5949    1.2040 C   0  0  0  0  0  0  0  0  0  0  0  0
    5.0408    1.0294   -0.3628 C   0  0  0  0  0  0  0  0  0  0  0  0
    3.8071    0.6517    1.6799 C   0  0  0  0  0  0  0  0  0  0  0  0
   -0.4505    3.1457   -0.4773 C   0  0  0  0  0  0  0  0  0  0  0  0
    4.6272    1.4638    0.8964 C   0  0  0  0  0  0  0  0  0  0  0  0
    1.4284    3.8040   -1.7518 C   0  0  0  0  0  0  0  0  0  0  0  0
    2.7851    4.4527   -1.5778 C   0  0  0  0  0  0  0  0  0  0  0  0
  1 12  1  0
  1 13  1  0
  2 16  2  0
  3 19  1  0
  3 22  1  0
  4 19  2  0
  5 20  2  0
  6 22  1  0
  6 29  1  0
  7 29  1  0
  7 31  1  0
  8 29  2  0
  9 12  1  0
  9 14  1  0
  9 16  1  0
 10 15  1  0
 10 20  1  0
 11 21  1  0
 12 15  1  0
 13 14  1  0
 13 17  1  0
 13 18  1  0
 14 19  1  0
 15 16  1  0
 20 21  1  0
 21 23  1  0
 22 24  1  0
 23 25  2  0
 23 26  1  0
 25 27  1  0
 26 28  2  0
 27 30  2  0
 28 30  1  0
 31 32  1  0
M  END
>  <PUBCHEM_COMPOUND_CID>  (1) 
39849

>  <PUBCHEM_CONFORMER_RMSD>  (1) 
1.2

>  <PUBCHEM_CONFORMER_DIVERSEORDER>  (1) 
6
116
135
106
15
137
92
71
24
139
88
114
80
51
196
152
178
148
189
145
53
138
172
186
75
146
10
197
158
105
59
198
179
94
31
11
22
202
120
36
181
97
118
78
76
85
171
194
177
101
65
123
117
48
55
61
125
93
47
121
155
66
33
79
3
9
187
20
206
82
140
42
174
32
184
144
124
205
45
163
34
191
157
16
133
23
5
131
201
21
193
180
73
107
91
84
160
182
52
142
60
132
169
69
127
170
8
159
95
176
57
43
83
185
68
128
109
168
126
18
199
72
50
175
103
4
26
77
111
150
204
151
14
19
147
110
30
13
195
129
190
98
102
108
12
203
162
46
113
119
164
96
134
167
28
81
56
141
64
38
35
112
149
89
63
156
90
58
70
200
104
54
86
44
136
7
165
99
37
40
1
62
188
161
130
153
29
74
100
143
39
2
17
41
173
87
166
115
122
67
183
49
154
25
27
192

>  <PUBCHEM_MMFF94_PARTIAL_CHARGES>  (1) 
36
1 -0.45
10 -0.65
11 -0.99
12 0.44
13 0.23
14 0.36
15 0.28
16 0.58
19 0.66
2 -0.57
20 0.57
21 0.47
22 0.56
23 -0.14
25 -0.15
26 -0.15
27 -0.15
28 -0.15
29 0.87
3 -0.43
30 -0.15
31 0.28
4 -0.57
42 0.37
45 0.36
46 0.36
5 -0.57
50 0.15
51 0.15
52 0.15
53 0.15
54 0.15
6 -0.43
7 -0.43
8 -0.57
9 -0.59

>  <PUBCHEM_EFFECTIVE_ROTOR_COUNT>  (1) 
11.8

>  <PUBCHEM_PHARMACOPHORE_FEATURES>  (1) 
10
1 10 donor
1 11 cation
1 11 donor
1 2 acceptor
1 4 acceptor
1 5 acceptor
3 13 17 18 hydrophobe
4 9 12 15 16 rings
6 23 25 26 27 28 30 rings
7 1 9 12 13 14 15 16 rings

>  <PUBCHEM_HEAVY_ATOM_COUNT>  (1) 
32

>  <PUBCHEM_ATOM_DEF_STEREO_COUNT>  (1) 
3

>  <PUBCHEM_ATOM_UDEF_STEREO_COUNT>  (1) 
2

>  <PUBCHEM_BOND_DEF_STEREO_COUNT>  (1) 
0

>  <PUBCHEM_BOND_UDEF_STEREO_COUNT>  (1) 
0

>  <PUBCHEM_ISOTOPIC_ATOM_COUNT>  (1) 
0

>  <PUBCHEM_COMPONENT_COUNT>  (1) 
1

>  <PUBCHEM_CACTVS_TAUTO_COUNT>  (1) 
2

>  <PUBCHEM_CONFORMER_ID>  (1) 
00009BA900000006

>  <PUBCHEM_MMFF94_ENERGY>  (1) 
78.3097

>  <PUBCHEM_FEATURE_SELFOVERLAP>  (1) 
54.479

>  <PUBCHEM_SHAPE_FINGERPRINT>  (1) 
10498660 4 18341321284284607074
10670039 82 18412270528136945086
11093857 51 18267865172112899484
11513181 2 17846786169837343878
12156800 1 13315916154622377076
13122387 1 18265051336884013956
14840074 17 18341058428270498297
14955137 171 18056475282791855187
15001296 14 18047472515452909028
15210252 30 18262795298116689524
15975801 100 17757864155326692172
17974551 9 15369264032072576123
17977149 70 18124900975227199812
20764821 26 18191868912391050300
25265897 201 17271755813463162133
35225 105 16883559940427027364
354706 35 16096840541949334356
44344687 77 16112330048865152623
45266715 3 16905783724883169325
463206 1 17840017778035807895
469060 322 18333726909910270632
6287921 2 18199760154076457856

>  <PUBCHEM_SHAPE_MULTIPOLES>  (1) 
606.37
10.36
5.73
1.86
1.93
3.9
0.26
-2.57
-0.69
2.88
-1.41
-0.64
1.17
-2.57

>  <PUBCHEM_SHAPE_SELFOVERLAP>  (1) 
1257.61

>  <PUBCHEM_SHAPE_VOLUME>  (1) 
349

>  <PUBCHEM_COORDINATE_TYPE>  (1) 
2
5
10

$$$$
