39858
     RDKit          3D

 36 41  0  0  1  0  0  0  0  0999 V2000
    2.1835   -0.2652    1.0408 F   0  0  0  0  0  0  0  0  0  0  0  0
   -2.1227   -0.9275    0.5410 O   0  0  0  0  0  0  0  0  0  0  0  0
   -2.4051   -2.6623   -1.0182 O   0  0  0  0  0  0  0  0  0  0  0  0
    1.4131    2.7413   -0.7709 O   0  0  0  0  0  0  0  0  0  0  0  0
   -4.0420    0.2062   -1.8276 O   0  0  0  0  0  0  0  0  0  0  0  0
   -4.7467    1.9446    0.1927 O   0  0  0  0  0  0  0  0  0  0  0  0
    6.8976   -0.3191    2.2888 O   0  0  0  0  0  0  0  0  0  0  0  0
   -4.1944    3.7239    1.5590 O   0  0  0  0  0  0  0  0  0  0  0  0
   -0.6496    0.4119   -0.9254 C   0  0  0  0  0  0  0  0  0  0  0  0
    0.3196   -0.7891   -1.0233 C   0  0  0  0  0  0  0  0  0  0  0  0
   -1.9876   -0.3506   -0.7550 C   0  0  0  0  0  0  0  0  0  0  0  0
    1.7760   -0.3761   -1.2780 C   0  0  0  0  0  0  0  0  0  0  0  0
   -1.8769   -1.5385   -1.7137 C   0  0  0  0  0  0  0  0  0  0  0  0
    2.2618    0.5291   -0.0930 C   0  0  0  0  0  0  0  0  0  0  0  0
   -0.3740   -1.7309   -2.0100 C   0  0  0  0  0  0  0  0  0  0  0  0
   -0.2019    1.2640    0.2767 C   0  0  0  0  0  0  0  0  0  0  0  0
    1.2779    1.7050    0.1894 C   0  0  0  0  0  0  0  0  0  0  0  0
    3.7864    0.9176   -0.2329 C   0  0  0  0  0  0  0  0  0  0  0  0
    2.6678   -1.6221   -1.4277 C   0  0  0  0  0  0  0  0  0  0  0  0
   -0.7041    1.2670   -2.2205 C   0  0  0  0  0  0  0  0  0  0  0  0
   -2.5530   -2.2755    0.3451 C   0  0  0  0  0  0  0  0  0  0  0  0
   -3.2179    0.4836   -0.9574 C   0  0  0  0  0  0  0  0  0  0  0  0
    4.1426   -1.2629   -1.5636 C   0  0  0  0  0  0  0  0  0  0  0  0
    4.5764   -0.3837   -0.4183 C   0  0  0  0  0  0  0  0  0  0  0  0
   -4.0208   -2.4161    0.7807 C   0  0  0  0  0  0  0  0  0  0  0  0
   -1.7493   -3.2143    1.2502 C   0  0  0  0  0  0  0  0  0  0  0  0
    4.0949    1.8379   -1.4361 C   0  0  0  0  0  0  0  0  0  0  0  0
    4.2517    1.6710    1.0051 C   0  0  0  0  0  0  0  0  0  0  0  0
   -4.0314   -3.5240    1.8291 C   0  0  0  0  0  0  0  0  0  0  0  0
   -2.6503   -3.4456    2.4539 C   0  0  0  0  0  0  0  0  0  0  0  0
   -3.3801    1.6738   -0.0360 C   0  0  0  0  0  0  0  0  0  0  0  0
    5.5701   -0.7754    0.3946 C   0  0  0  0  0  0  0  0  0  0  0  0
    5.2392    1.2853    1.8190 C   0  0  0  0  0  0  0  0  0  0  0  0
    5.9783    0.0366    1.5590 C   0  0  0  0  0  0  0  0  0  0  0  0
   -5.0236    3.0062    1.0164 C   0  0  0  0  0  0  0  0  0  0  0  0
   -6.5052    3.1740    1.1664 C   0  0  0  0  0  0  0  0  0  0  0  0
  1 14  1  0
  2 11  1  0
  2 21  1  0
  3 13  1  0
  3 21  1  0
  4 17  1  0
  5 22  2  0
  6 31  1  0
  6 35  1  0
  7 34  2  0
  8 35  2  0
  9 10  1  0
  9 11  1  0
  9 16  1  0
  9 20  1  0
 10 12  1  0
 10 15  1  0
 11 13  1  0
 11 22  1  0
 12 14  1  0
 12 19  1  0
 13 15  1  0
 14 17  1  0
 14 18  1  0
 16 17  1  0
 18 24  1  0
 18 27  1  0
 18 28  1  0
 19 23  1  0
 21 25  1  0
 21 26  1  0
 22 31  1  0
 23 24  1  0
 24 32  2  0
 25 29  1  0
 26 30  1  0
 28 33  2  0
 29 30  1  0
 32 34  1  0
 33 34  1  0
 35 36  1  0
M  END
>  <PUBCHEM_COMPOUND_CID>  (1) 
39858

>  <PUBCHEM_CONFORMER_RMSD>  (1) 
1

>  <PUBCHEM_CONFORMER_DIVERSEORDER>  (1) 
1
18
83
19
82
68
46
40
11
61
88
34
90
50
56
49
63
62
84
2
47
16
81
91
42
92
26
76
30
71
64
69
89
8
25
75
15
32
80
45
48
14
21
23
29
17
39
53
35
41
65
60
77
44
13
87
52
54
28
70
22
4
86
73
78
36
72
59
24
43
58
12
74
10
3
67
55
85
6
7
31
20
38
5
66
33
57
79
51
9
27
37

>  <PUBCHEM_MMFF94_PARTIAL_CHARGES>  (1) 
28
1 -0.34
11 0.34
13 0.28
14 0.34
17 0.28
18 0.28
2 -0.56
21 0.56
22 0.45
23 0.14
24 -0.28
28 -0.29
3 -0.56
31 0.34
32 -0.14
33 -0.14
34 0.54
35 0.66
36 0.06
4 -0.68
5 -0.57
59 0.15
6 -0.43
60 0.4
67 0.15
68 0.15
7 -0.57
8 -0.57

>  <PUBCHEM_EFFECTIVE_ROTOR_COUNT>  (1) 
6.2

>  <PUBCHEM_PHARMACOPHORE_FEATURES>  (1) 
13
1 2 acceptor
1 3 acceptor
1 4 acceptor
1 4 donor
1 5 acceptor
1 7 acceptor
1 8 acceptor
5 2 3 11 13 21 rings
5 21 25 26 29 30 rings
5 9 10 11 13 15 rings
6 12 14 18 19 23 24 rings
6 18 24 28 32 33 34 rings
6 9 10 12 14 16 17 rings

>  <PUBCHEM_HEAVY_ATOM_COUNT>  (1) 
36

>  <PUBCHEM_ATOM_DEF_STEREO_COUNT>  (1) 
5

>  <PUBCHEM_ATOM_UDEF_STEREO_COUNT>  (1) 
3

>  <PUBCHEM_BOND_DEF_STEREO_COUNT>  (1) 
0

>  <PUBCHEM_BOND_UDEF_STEREO_COUNT>  (1) 
0

>  <PUBCHEM_ISOTOPIC_ATOM_COUNT>  (1) 
0

>  <PUBCHEM_COMPONENT_COUNT>  (1) 
1

>  <PUBCHEM_CACTVS_TAUTO_COUNT>  (1) 
6

>  <PUBCHEM_CONFORMER_ID>  (1) 
00009BB200000001

>  <PUBCHEM_MMFF94_ENERGY>  (1) 
118.8714

>  <PUBCHEM_FEATURE_SELFOVERLAP>  (1) 
66.772

>  <PUBCHEM_SHAPE_FINGERPRINT>  (1) 
10074138 170 18333455339787189985
10319926 262 18409733958811597526
10906281 52 18271816678731131932
11405975 8 18334573560113256340
11443803 9 17987219076982913589
11578080 2 16271054104187713936
11763715 3 17693662923713546543
11796584 16 17531508942020324450
12422481 6 18130779071747660830
12608794 3 18187081733195621957
12633257 1 18113613478365189300
12788726 201 18046643453868207955
131258 38 14857571580204322065
13135754 10 17969806218302072619
13224815 77 18200312251238437734
13692114 37 18339656568726469455
13726171 33 18117867562210741284
14020679 6 18334863792195903121
14190465 44 18410852196360205969
14705955 166 18340208587170160091
15238133 3 18343023263960316804
15357212 105 18120122660058656428
15799311 1 17313103051621761674
19301679 30 18119826934949923003
21033648 29 18060422412674128718
22122407 14 17489300914848245704
22182313 1 17916325924901795510
23559900 14 17387677539017206502
244849 19 17914922888452572119
2838139 119 17416962821065658157
3380486 145 17911804884177698279
3383291 50 18411976992739833163
376196 1 17842280268445190173
4058900 60 17976557017907312297
4073 2 18411700989598131634
460360 51 18059868267920661296
484985 159 17604416501164179475
5104073 3 18261667177632783136
563151 248 17748832890969089497
57527293 21 17822297898503402788
57527573 199 18129669582510540281
6009941 240 18412822465520062576
6371380 46 18124045524330262382
7288768 16 18340209575445511185
9981440 41 18131348596837290847

>  <PUBCHEM_SHAPE_MULTIPOLES>  (1) 
692.5
13.43
4.1
2.22
7.53
0.32
-0.17
-5.59
-8.13
-8.27
-2.33
0.45
0.74
0.36

>  <PUBCHEM_SHAPE_SELFOVERLAP>  (1) 
1522.419

>  <PUBCHEM_SHAPE_VOLUME>  (1) 
376

>  <PUBCHEM_COORDINATE_TYPE>  (1) 
2
5
10

$$$$
