39853
     RDKit          3D

 20 21  0  0  0  0  0  0  0  0999 V2000
    0.2752   -2.3301    0.1974 S   0  0  0  0  0  0  0  0  0  0  0  0
    3.8030    2.2463   -0.8638 F   0  0  0  0  0  0  0  0  0  0  0  0
    0.8899   -3.0955    1.2660 O   0  0  0  0  0  0  0  0  0  0  0  0
   -0.0147   -2.9692   -1.0719 O   0  0  0  0  0  0  0  0  0  0  0  0
   -0.6538    2.4360    1.7757 O   0  0  0  0  0  0  0  0  0  0  0  0
   -1.0650    0.4271    2.7562 O   0  0  0  0  0  0  0  0  0  0  0  0
   -1.1372   -1.5569    0.8059 N   0  0  0  0  0  0  0  0  0  0  0  0
    1.3376   -0.9511   -0.1223 C   0  0  0  0  0  0  0  0  0  0  0  0
   -1.7349   -0.5109    0.0342 C   0  0  0  0  0  0  0  0  0  0  0  0
   -1.7402    0.8065    0.4925 C   0  0  0  0  0  0  0  0  0  0  0  0
    2.1820   -0.5056    0.8783 C   0  0  0  0  0  0  0  0  0  0  0  0
    1.3017   -0.3477   -1.3660 C   0  0  0  0  0  0  0  0  0  0  0  0
   -2.3172   -0.8244   -1.1939 C   0  0  0  0  0  0  0  0  0  0  0  0
   -2.3279    1.8104   -0.2772 C   0  0  0  0  0  0  0  0  0  0  0  0
   -2.9048    0.1795   -1.9637 C   0  0  0  0  0  0  0  0  0  0  0  0
    3.0195    0.5809    0.6264 C   0  0  0  0  0  0  0  0  0  0  0  0
    2.1394    0.7389   -1.6180 C   0  0  0  0  0  0  0  0  0  0  0  0
   -2.9101    1.4968   -1.5054 C   0  0  0  0  0  0  0  0  0  0  0  0
    2.9982    1.2032   -0.6217 C   0  0  0  0  0  0  0  0  0  0  0  0
   -1.1404    1.1659    1.7711 C   0  0  0  0  0  0  0  0  0  0  0  0
  1  3  2  0
  1  4  2  0
  1  7  1  0
  1  8  1  0
  2 19  1  0
  5 20  1  0
  6 20  2  0
  7  9  1  0
  8 11  2  0
  8 12  1  0
  9 10  2  0
  9 13  1  0
 10 14  1  0
 10 20  1  0
 11 16  1  0
 12 17  2  0
 13 15  2  0
 14 18  2  0
 15 18  1  0
 16 19  2  0
 17 19  1  0
M  END
>  <PUBCHEM_COMPOUND_CID>  (1) 
39853

>  <PUBCHEM_CONFORMER_RMSD>  (1) 
0.6

>  <PUBCHEM_CONFORMER_DIVERSEORDER>  (1) 
1
13
6
15
26
12
30
2
14
21
7
31
22
11
23
29
20
24
3
4
27
19
9
10
33
32
16
25
28
17
18
5
8

>  <PUBCHEM_MMFF94_PARTIAL_CHARGES>  (1) 
30
1 1.45
10 0.09
11 -0.15
12 -0.15
13 -0.15
14 -0.15
15 -0.15
16 -0.15
17 -0.15
18 -0.15
19 0.19
2 -0.19
20 0.63
21 0.42
22 0.15
23 0.15
24 0.15
25 0.15
26 0.15
27 0.15
28 0.15
29 0.15
3 -0.65
30 0.5
4 -0.65
5 -0.65
6 -0.57
7 -0.76
8 -0.01
9 0.2

>  <PUBCHEM_EFFECTIVE_ROTOR_COUNT>  (1) 
4

>  <PUBCHEM_PHARMACOPHORE_FEATURES>  (1) 
8
1 3 acceptor
1 4 acceptor
1 5 acceptor
1 6 acceptor
1 7 donor
3 5 6 20 anion
6 8 11 12 16 17 19 rings
6 9 10 13 14 15 18 rings

>  <PUBCHEM_HEAVY_ATOM_COUNT>  (1) 
20

>  <PUBCHEM_ATOM_DEF_STEREO_COUNT>  (1) 
0

>  <PUBCHEM_ATOM_UDEF_STEREO_COUNT>  (1) 
0

>  <PUBCHEM_BOND_DEF_STEREO_COUNT>  (1) 
0

>  <PUBCHEM_BOND_UDEF_STEREO_COUNT>  (1) 
0

>  <PUBCHEM_ISOTOPIC_ATOM_COUNT>  (1) 
0

>  <PUBCHEM_COMPONENT_COUNT>  (1) 
1

>  <PUBCHEM_CACTVS_TAUTO_COUNT>  (1) 
2

>  <PUBCHEM_CONFORMER_ID>  (1) 
00009BAD00000001

>  <PUBCHEM_MMFF94_ENERGY>  (1) 
48.1219

>  <PUBCHEM_FEATURE_SELFOVERLAP>  (1) 
40.673

>  <PUBCHEM_SHAPE_FINGERPRINT>  (1) 
10165383 225 17250957494229650270
10863032 1 17458893912012271371
11640471 11 18341046298713148541
12633257 1 14129331940547254020
128993 33 17981643448390213140
13134695 92 17537424129313975406
13299463 15 15482666849317050463
13693222 7 18269848509835617273
14181834 199 17977647724250465607
14817 1 15764107586727738435
15664445 248 15912172401228483937
15848702 105 17969765561861937207
16945 1 18057874930116242854
17492 54 18120924255732038069
18981168 100 18117587074516780294
192875 21 18270667689359641496
19765921 60 18340760473224398947
20510252 161 18119817056123669414
20600515 1 17255437188043378750
20691752 17 17326018125539244351
20905425 154 16691555914129340879
21731516 1 9583508811374114972
23419403 2 17192637516339011427
23557571 272 16126093280386031075
430814 3 17696796235062120555
5262128 65 16988842808587491280
5895379 119 15950123015681389685
68419 9 17557707962761959731
6992083 37 16690197540543699723
81228 2 17687496827971659770

>  <PUBCHEM_SHAPE_MULTIPOLES>  (1) 
379.71
4.83
2.82
2.09
1.15
1.47
-0.72
-3
2.04
0.84
-0.26
-0.78
-0.57
-0.75

>  <PUBCHEM_SHAPE_SELFOVERLAP>  (1) 
807.688

>  <PUBCHEM_SHAPE_VOLUME>  (1) 
213

>  <PUBCHEM_COORDINATE_TYPE>  (1) 
2
5
10

$$$$
