39870
     RDKit          3D

 18 19  0  0  0  0  0  0  0  0999 V2000
    1.3932    3.2489   -0.3675 O   0  0  0  0  0  0  0  0  0  0  0  0
    4.1559   -2.9206    0.2158 O   0  0  0  0  0  0  0  0  0  0  0  0
    2.8623   -1.9076   -1.3509 O   0  0  0  0  0  0  0  0  0  0  0  0
   -0.7189    0.3021    0.1251 C   0  0  0  0  0  0  0  0  0  0  0  0
    1.5801   -0.2778    0.5882 C   0  0  0  0  0  0  0  0  0  0  0  0
    0.2362   -0.6415    0.5025 C   0  0  0  0  0  0  0  0  0  0  0  0
   -2.1129   -0.0752    0.0350 C   0  0  0  0  0  0  0  0  0  0  0  0
   -0.3304    1.6096   -0.1667 C   0  0  0  0  0  0  0  0  0  0  0  0
    1.9687    1.0297    0.2965 C   0  0  0  0  0  0  0  0  0  0  0  0
    1.0134    1.9735   -0.0810 C   0  0  0  0  0  0  0  0  0  0  0  0
    2.6022   -1.2870    0.9894 C   0  0  0  0  0  0  0  0  0  0  0  0
   -2.6276   -0.5615   -1.1667 C   0  0  0  0  0  0  0  0  0  0  0  0
   -2.9419    0.0471    1.1500 C   0  0  0  0  0  0  0  0  0  0  0  0
   -3.9714   -0.9254   -1.2535 C   0  0  0  0  0  0  0  0  0  0  0  0
   -4.2857   -0.3169    1.0633 C   0  0  0  0  0  0  0  0  0  0  0  0
    3.1941   -2.0464   -0.1817 C   0  0  0  0  0  0  0  0  0  0  0  0
   -4.8004   -0.8031   -0.1385 C   0  0  0  0  0  0  0  0  0  0  0  0
    2.7831    3.5521   -0.2594 C   0  0  0  0  0  0  0  0  0  0  0  0
  1 10  1  0
  1 18  1  0
  2 16  1  0
  3 16  2  0
  4  6  1  0
  4  7  1  0
  4  8  2  0
  5  6  2  0
  5  9  1  0
  5 11  1  0
  7 12  2  0
  7 13  1  0
  8 10  1  0
  9 10  2  0
 11 16  1  0
 12 14  1  0
 13 15  2  0
 14 17  2  0
 15 17  1  0
M  END
>  <PUBCHEM_COMPOUND_CID>  (1) 
39870

>  <PUBCHEM_CONFORMER_RMSD>  (1) 
0.6

>  <PUBCHEM_CONFORMER_DIVERSEORDER>  (1) 
1
22
5
18
9
19
4
23
12
21
2
15
17
6
8
20
14
11
24
7
10
13
3
16

>  <PUBCHEM_MMFF94_PARTIAL_CHARGES>  (1) 
25
1 -0.36
10 0.08
11 0.2
12 -0.15
13 -0.15
14 -0.15
15 -0.15
16 0.66
17 -0.15
18 0.28
19 0.15
2 -0.65
20 0.15
21 0.15
24 0.15
25 0.15
26 0.15
27 0.15
28 0.15
3 -0.57
32 0.5
5 -0.14
6 -0.15
8 -0.15
9 -0.15

>  <PUBCHEM_EFFECTIVE_ROTOR_COUNT>  (1) 
4

>  <PUBCHEM_PHARMACOPHORE_FEATURES>  (1) 
6
1 1 acceptor
1 2 acceptor
1 3 acceptor
3 2 3 16 anion
6 4 5 6 8 9 10 rings
6 7 12 13 14 15 17 rings

>  <PUBCHEM_HEAVY_ATOM_COUNT>  (1) 
18

>  <PUBCHEM_ATOM_DEF_STEREO_COUNT>  (1) 
0

>  <PUBCHEM_ATOM_UDEF_STEREO_COUNT>  (1) 
0

>  <PUBCHEM_BOND_DEF_STEREO_COUNT>  (1) 
0

>  <PUBCHEM_BOND_UDEF_STEREO_COUNT>  (1) 
0

>  <PUBCHEM_ISOTOPIC_ATOM_COUNT>  (1) 
0

>  <PUBCHEM_COMPONENT_COUNT>  (1) 
1

>  <PUBCHEM_CACTVS_TAUTO_COUNT>  (1) 
1

>  <PUBCHEM_CONFORMER_ID>  (1) 
00009BBE00000001

>  <PUBCHEM_MMFF94_ENERGY>  (1) 
58.3196

>  <PUBCHEM_FEATURE_SELFOVERLAP>  (1) 
30.504

>  <PUBCHEM_SHAPE_FINGERPRINT>  (1) 
12236239 1 17987801942398934449
12363563 72 18263361404317425850
12553582 1 18264204720935219859
12707595 3 18187642475092318835
12841375 25 18337671914902350506
12916754 54 18410289242622772975
13009979 54 17917442994503609475
13140716 1 18049155876392201328
13533116 47 18270679896205426875
13955234 65 18339082712653312713
14178000 29 18341895156123486974
14252887 29 18411972551437161858
15042514 8 17761214310799353736
15502722 9 18263644128986941285
15842332 3 17917153904998093433
16945 1 18335979886576701848
17492 89 18339922714448176347
17539 30 17904473009598448372
17818456 19 17702114577581137049
1813 80 18270972232389356302
18186145 218 17530959186042425401
18915476 22 18118418446998972170
19422 9 18202002166271754619
19784866 34 17980480392758638465
20339313 130 18411702066907013563
20361792 2 18338795615532853423
20388580 30 18412543197602595014
204376 136 17756706695230589229
20645477 70 18263350525476170095
20671657 53 18336825299354339843
20693207 138 17749398100218252379
20871998 22 18339074900429515256
21054139 6 17768238368807862399
21524375 3 17540528450076465728
221490 88 18262242247588482747
22182313 1 18192407741650128396
2255824 54 18411983589276343150
23175994 123 18261675861740020795
23402539 116 18192430771365184746
23559900 14 18410284826874114587
23598291 2 18272937124335086461
2748010 2 18193254335501802096
3060560 45 18119808268826635340
3071541 250 18336271162942919572
3091708 16 9502547368270022912
312423 11 18342187678330803657
458136 41 18119258499647641160
474 4 18049441744978309897
6025842 7 18266170819919325431
6049 1 17676485056037124741
6992083 37 17985560948227256601
7364860 26 18339363071271095056
7615 1 17988644125277127305
77492 1 17988082309258193545
7970288 3 18338233748133821731
81228 2 17833821686489993576
81539 233 18044374057162288140
8272917 22 18337953505906696173
9709674 26 18262517112905813491
9841814 1 18114451301951407448

>  <PUBCHEM_SHAPE_MULTIPOLES>  (1) 
352.82
8.15
3.2
1.1
6.39
1.77
0.08
-4.1
0.29
-6.27
0.57
0.64
-0.33
-0.4

>  <PUBCHEM_SHAPE_SELFOVERLAP>  (1) 
757.474

>  <PUBCHEM_SHAPE_VOLUME>  (1) 
196.1

>  <PUBCHEM_COORDINATE_TYPE>  (1) 
2
5
10

$$$$
