39878
     RDKit          3D

 19 20  0  0  0  0  0  0  0  0999 V2000
   -1.8777   -3.2227   -0.3789 O   0  0  0  0  0  0  0  0  0  0  0  0
   -4.3410    3.0738    0.1880 O   0  0  0  0  0  0  0  0  0  0  0  0
   -3.0825    2.0010   -1.3674 O   0  0  0  0  0  0  0  0  0  0  0  0
    0.3709   -0.3835    0.1409 C   0  0  0  0  0  0  0  0  0  0  0  0
    1.7825   -0.0748    0.0658 C   0  0  0  0  0  0  0  0  0  0  0  0
   -1.9017    0.3075    0.5817 C   0  0  0  0  0  0  0  0  0  0  0  0
   -0.5408    0.6052    0.5104 C   0  0  0  0  0  0  0  0  0  0  0  0
   -0.0781   -1.6700   -0.1574 C   0  0  0  0  0  0  0  0  0  0  0  0
   -2.3507   -0.9789    0.2835 C   0  0  0  0  0  0  0  0  0  0  0  0
   -1.4390   -1.9677   -0.0860 C   0  0  0  0  0  0  0  0  0  0  0  0
   -2.8772    1.3650    0.9744 C   0  0  0  0  0  0  0  0  0  0  0  0
    2.1975    1.2160   -0.2614 C   0  0  0  0  0  0  0  0  0  0  0  0
    2.7282   -1.0683    0.3199 C   0  0  0  0  0  0  0  0  0  0  0  0
    4.5041    0.5201   -0.0804 C   0  0  0  0  0  0  0  0  0  0  0  0
    3.5583    1.5134   -0.3345 C   0  0  0  0  0  0  0  0  0  0  0  0
    4.0890   -0.7707    0.2468 C   0  0  0  0  0  0  0  0  0  0  0  0
    5.9590    0.8382   -0.1585 C   0  0  0  0  0  0  0  0  0  0  0  0
   -3.4191    2.1540   -0.2013 C   0  0  0  0  0  0  0  0  0  0  0  0
   -3.2818   -3.4576   -0.2857 C   0  0  0  0  0  0  0  0  0  0  0  0
  1 10  1  0
  1 19  1  0
  2 18  1  0
  3 18  2  0
  4  5  1  0
  4  7  1  0
  4  8  2  0
  5 12  2  0
  5 13  1  0
  6  7  2  0
  6  9  1  0
  6 11  1  0
  8 10  1  0
  9 10  2  0
 11 18  1  0
 12 15  1  0
 13 16  2  0
 14 15  2  0
 14 16  1  0
 14 17  1  0
M  END
>  <PUBCHEM_COMPOUND_CID>  (1) 
39878

>  <PUBCHEM_CONFORMER_RMSD>  (1) 
0.6

>  <PUBCHEM_CONFORMER_DIVERSEORDER>  (1) 
1
12
18
10
16
13
6
5
19
4
15
9
11
3
17
14
2
8
7

>  <PUBCHEM_MMFF94_PARTIAL_CHARGES>  (1) 
25
1 -0.36
10 0.08
11 0.2
12 -0.15
13 -0.15
14 -0.14
15 -0.15
16 -0.15
17 0.14
18 0.66
19 0.28
2 -0.65
20 0.15
21 0.15
22 0.15
25 0.15
26 0.15
27 0.15
28 0.15
3 -0.57
35 0.5
6 -0.14
7 -0.15
8 -0.15
9 -0.15

>  <PUBCHEM_EFFECTIVE_ROTOR_COUNT>  (1) 
4

>  <PUBCHEM_PHARMACOPHORE_FEATURES>  (1) 
6
1 1 acceptor
1 2 acceptor
1 3 acceptor
3 2 3 18 anion
6 4 6 7 8 9 10 rings
6 5 12 13 14 15 16 rings

>  <PUBCHEM_HEAVY_ATOM_COUNT>  (1) 
19

>  <PUBCHEM_ATOM_DEF_STEREO_COUNT>  (1) 
0

>  <PUBCHEM_ATOM_UDEF_STEREO_COUNT>  (1) 
0

>  <PUBCHEM_BOND_DEF_STEREO_COUNT>  (1) 
0

>  <PUBCHEM_BOND_UDEF_STEREO_COUNT>  (1) 
0

>  <PUBCHEM_ISOTOPIC_ATOM_COUNT>  (1) 
0

>  <PUBCHEM_COMPONENT_COUNT>  (1) 
1

>  <PUBCHEM_CACTVS_TAUTO_COUNT>  (1) 
1

>  <PUBCHEM_CONFORMER_ID>  (1) 
00009BC600000001

>  <PUBCHEM_MMFF94_ENERGY>  (1) 
62.7809

>  <PUBCHEM_FEATURE_SELFOVERLAP>  (1) 
30.504

>  <PUBCHEM_SHAPE_FINGERPRINT>  (1) 
10014705 185 18408041810252842032
10411042 1 17907298002900115515
10616163 171 18341899644718050910
11045515 52 17901379319054394287
12107183 9 18119522146890216610
12173636 292 18411696620946647527
12403814 3 18336557104965031019
12500047 106 18413105052666403624
12788726 201 18264198274490119131
13583140 156 17385725772876479097
14178342 30 18337935883993439234
14508225 48 18125148592654858503
15042514 8 18266468787861220195
15196674 1 18410857672880429034
16087824 20 18411701020396671127
16752209 62 18272075141125630350
1741750 31 18341052930174185241
17492 89 18411703222903043338
17539 30 18199177563791772543
17834072 32 18338238163137830817
19784866 34 18126852586528142769
200 152 18194398020784035806
204376 136 18267587914377322361
20645477 56 18412833485852190793
20645477 70 16773249396598441150
21267235 1 18195538206005331910
21307412 95 17699591159988937038
21339142 126 18267309905481729387
21426921 1 18339643450709229403
21524375 3 18261114007156104521
21709351 56 18335139839041060740
22907989 373 18339917246658838373
2306618 200 18129956679266554355
23227448 37 18410857667789065397
23402539 116 18198903802302298151
23402655 69 18407762526104948260
23419403 2 16986861574786494203
23557571 272 18201727283705742612
23558518 356 18261116304605489906
23559900 14 18127402565400391456
2748010 2 18124056549907008323
283562 15 18264484156071613635
335352 9 18266179427376944342
34934 24 18334293133240525848
350125 39 18339366382347826657
3545911 37 18342182163455619432
394222 165 17972879151205648465
4214541 1 18411984689156917808
474 4 18052821343316748585
5104073 3 18334572452328141008
559249 180 18410290281910140490
573450 72 18335973242947837738
58051976 100 18339927116229842542
6327066 14 18334854961838828645
633830 44 17771351863990041061
68521 5 18268429216850717535
7164475 11 18266177408193656470
77188 2 17690843780406236087
7832392 63 18408603660879115392
81228 2 18191579972745199299
9709674 26 18273221889178157590

>  <PUBCHEM_SHAPE_MULTIPOLES>  (1) 
373.4
9.73
3.36
0.8
10.2
1.12
0.04
-3.98
0.58
-6.12
0.56
-0.38
-0.22
-0.4

>  <PUBCHEM_SHAPE_SELFOVERLAP>  (1) 
800.735

>  <PUBCHEM_SHAPE_VOLUME>  (1) 
209

>  <PUBCHEM_COORDINATE_TYPE>  (1) 
2
5
10

$$$$
