39876
     RDKit          3D

 19 20  0  0  0  0  0  0  0  0999 V2000
    6.1749    0.8593   -0.1669 Cl  0  0  0  0  0  0  0  0  0  0  0  0
   -1.9023   -3.2174   -0.3807 O   0  0  0  0  0  0  0  0  0  0  0  0
   -4.3405    3.0888    0.1869 O   0  0  0  0  0  0  0  0  0  0  0  0
   -3.0851    2.0115   -1.3681 O   0  0  0  0  0  0  0  0  0  0  0  0
    0.3574   -0.3876    0.1418 C   0  0  0  0  0  0  0  0  0  0  0  0
   -1.9127    0.3125    0.5812 C   0  0  0  0  0  0  0  0  0  0  0  0
   -0.5504    0.6047    0.5110 C   0  0  0  0  0  0  0  0  0  0  0  0
    1.7703   -0.0846    0.0679 C   0  0  0  0  0  0  0  0  0  0  0  0
   -0.0965   -1.6722   -0.1573 C   0  0  0  0  0  0  0  0  0  0  0  0
   -2.3666   -0.9721    0.2822 C   0  0  0  0  0  0  0  0  0  0  0  0
   -1.4586   -1.9644   -0.0871 C   0  0  0  0  0  0  0  0  0  0  0  0
   -2.8842    1.3737    0.9736 C   0  0  0  0  0  0  0  0  0  0  0  0
    2.1907    1.2046   -0.2585 C   0  0  0  0  0  0  0  0  0  0  0  0
    2.7119   -1.0819    0.3221 C   0  0  0  0  0  0  0  0  0  0  0  0
    3.5529    1.4966   -0.3308 C   0  0  0  0  0  0  0  0  0  0  0  0
    4.0739   -0.7898    0.2500 C   0  0  0  0  0  0  0  0  0  0  0  0
   -3.4220    2.1655   -0.2021 C   0  0  0  0  0  0  0  0  0  0  0  0
    4.4944    0.4995   -0.0766 C   0  0  0  0  0  0  0  0  0  0  0  0
   -3.3074   -3.4468   -0.2886 C   0  0  0  0  0  0  0  0  0  0  0  0
  1 18  1  0
  2 11  1  0
  2 19  1  0
  3 17  1  0
  4 17  2  0
  5  7  1  0
  5  8  1  0
  5  9  2  0
  6  7  2  0
  6 10  1  0
  6 12  1  0
  8 13  2  0
  8 14  1  0
  9 11  1  0
 10 11  2  0
 12 17  1  0
 13 15  1  0
 14 16  2  0
 15 18  2  0
 16 18  1  0
M  END
>  <PUBCHEM_COMPOUND_CID>  (1) 
39876

>  <PUBCHEM_CONFORMER_RMSD>  (1) 
0.6

>  <PUBCHEM_CONFORMER_DIVERSEORDER>  (1) 
2
12
18
10
16
13
6
5
19
4
15
9
11
3
17
14
1
8
7

>  <PUBCHEM_MMFF94_PARTIAL_CHARGES>  (1) 
25
1 -0.18
10 -0.15
11 0.08
12 0.2
13 -0.15
14 -0.15
15 -0.15
16 -0.15
17 0.66
18 0.18
19 0.28
2 -0.36
20 0.15
21 0.15
22 0.15
25 0.15
26 0.15
27 0.15
28 0.15
3 -0.65
32 0.5
4 -0.57
6 -0.14
7 -0.15
9 -0.15

>  <PUBCHEM_EFFECTIVE_ROTOR_COUNT>  (1) 
4

>  <PUBCHEM_PHARMACOPHORE_FEATURES>  (1) 
6
1 2 acceptor
1 3 acceptor
1 4 acceptor
3 3 4 17 anion
6 5 6 7 9 10 11 rings
6 8 13 14 15 16 18 rings

>  <PUBCHEM_HEAVY_ATOM_COUNT>  (1) 
19

>  <PUBCHEM_ATOM_DEF_STEREO_COUNT>  (1) 
0

>  <PUBCHEM_ATOM_UDEF_STEREO_COUNT>  (1) 
0

>  <PUBCHEM_BOND_DEF_STEREO_COUNT>  (1) 
0

>  <PUBCHEM_BOND_UDEF_STEREO_COUNT>  (1) 
0

>  <PUBCHEM_ISOTOPIC_ATOM_COUNT>  (1) 
0

>  <PUBCHEM_COMPONENT_COUNT>  (1) 
1

>  <PUBCHEM_CACTVS_TAUTO_COUNT>  (1) 
1

>  <PUBCHEM_CONFORMER_ID>  (1) 
00009BC400000002

>  <PUBCHEM_MMFF94_ENERGY>  (1) 
60.981

>  <PUBCHEM_FEATURE_SELFOVERLAP>  (1) 
30.504

>  <PUBCHEM_SHAPE_FINGERPRINT>  (1) 
10014705 185 18408041805994785008
10411042 1 17979355592653625659
10616163 171 18341899644712782654
11045515 52 17901378219553316015
12107183 9 18119522142595242818
12173636 292 18411696620967733543
12293681 160 17630602328204378649
12403814 3 18336557104980861779
12500047 106 18413105052666397128
12788726 201 18264198274469026611
13583140 156 17632006546597529194
14178342 30 18337935879687980906
14508225 48 18125148588354609959
15196674 1 18410577293130928378
16087824 20 18411701016096370607
16752209 62 18272075141152004103
17492 89 18411984697874466262
17539 30 18199177563797047295
17834072 32 18338238163132556073
19427546 20 18337112383595268982
200 152 18194115442021829078
204376 136 18267869389364576033
20645477 56 18412832386340576017
20645477 70 16773248297097362878
21267235 1 18267595791548199346
21307412 95 17699591155672877230
21339142 126 18267309905492272395
21426921 1 18339643446414268603
21524375 3 18189056408833758793
21709351 56 18334858364053813564
22907989 373 18339917242400742397
2306618 200 18129956674971587067
23227448 37 18411139142765782541
23402539 116 18198903802254825391
23402655 69 18407761426582757980
23419403 2 16986861574802318459
23557571 272 18201727288064039412
23558518 356 18260834829639328794
23559900 14 18199460155164444608
2748010 2 18124055450405923555
283562 15 18264484151797758339
335352 9 18266179423071427542
34934 24 18334293133229982840
350125 39 18339366378031708392
352729 6 18200316511387332043
3545911 37 18342463638432336592
394222 165 17972879151195118449
4214541 1 18411984689172755056
474 4 18052821343327304585
5104073 3 18334290977351410864
559249 180 18410290281920683490
573450 72 18335973242958380738
58051976 100 18339927111929613486
6327066 14 18262515892845276077
633830 44 17771633338966751717
68521 5 18268429216871816543
7164475 11 18338233902698883590
77188 2 17691125255377659007
7832392 63 18408603656573592096
81228 2 18191861443437492163
9709674 26 18273221889157065070

>  <PUBCHEM_SHAPE_MULTIPOLES>  (1) 
375.27
10.01
3.35
0.8
11.5
1.03
0.04
-4.06
0.63
-6.21
0.56
-0.37
-0.22
-0.4

>  <PUBCHEM_SHAPE_SELFOVERLAP>  (1) 
797.642

>  <PUBCHEM_SHAPE_VOLUME>  (1) 
211.4

>  <PUBCHEM_COORDINATE_TYPE>  (1) 
2
5
10

$$$$
