39884
     RDKit          3D

 25 27  0  0  1  0  0  0  0  0999 V2000
   -5.7928   -3.5803   -0.1342 F   0  0  0  0  0  0  0  0  0  0  0  0
   -2.3991    3.4332   -0.5970 O   0  0  0  0  0  0  0  0  0  0  0  0
   -3.9586    2.2658    1.1873 O   0  0  0  0  0  0  0  0  0  0  0  0
    0.6272    0.5022    0.1396 N   0  0  0  0  0  0  0  0  0  0  0  0
    3.4442    0.0309    0.0940 N   0  0  0  0  0  0  0  0  0  0  0  0
    5.2617   -1.0414   -1.0436 N   0  0  0  0  0  0  0  0  0  0  0  0
    1.4571    1.0675   -0.9315 C   0  0  0  0  0  0  0  0  0  0  0  0
    1.3928    0.4526    1.3910 C   0  0  0  0  0  0  0  0  0  0  0  0
    2.7085    0.2175   -1.1630 C   0  0  0  0  0  0  0  0  0  0  0  0
    2.6431   -0.4171    1.2372 C   0  0  0  0  0  0  0  0  0  0  0  0
   -0.5916    1.2912    0.3146 C   0  0  0  0  0  0  0  0  0  0  0  0
   -1.4221    1.2724   -0.9736 C   0  0  0  0  0  0  0  0  0  0  0  0
   -2.7239    2.0759   -0.8746 C   0  0  0  0  0  0  0  0  0  0  0  0
    4.7986   -0.3125    0.0185 C   0  0  0  0  0  0  0  0  0  0  0  0
   -3.6581    1.5667    0.2208 C   0  0  0  0  0  0  0  0  0  0  0  0
    5.6528    0.1064    1.0479 C   0  0  0  0  0  0  0  0  0  0  0  0
   -4.2286    0.1937    0.1262 C   0  0  0  0  0  0  0  0  0  0  0  0
    7.0013   -0.2269    0.9870 C   0  0  0  0  0  0  0  0  0  0  0  0
    6.5785   -1.3464   -1.0684 C   0  0  0  0  0  0  0  0  0  0  0  0
    7.4811   -0.9669   -0.0880 C   0  0  0  0  0  0  0  0  0  0  0  0
   -4.4484   -0.3471   -1.1215 C   0  0  0  0  0  0  0  0  0  0  0  0
   -4.5145   -0.4862    1.2896 C   0  0  0  0  0  0  0  0  0  0  0  0
   -4.9813   -1.6331   -1.2102 C   0  0  0  0  0  0  0  0  0  0  0  0
   -5.0473   -1.7723    1.2007 C   0  0  0  0  0  0  0  0  0  0  0  0
   -5.2807   -2.3458   -0.0491 C   0  0  0  0  0  0  0  0  0  0  0  0
  1 25  1  0
  2 13  1  0
  3 15  2  0
  4  7  1  0
  4  8  1  0
  4 11  1  0
  5  9  1  0
  5 10  1  0
  5 14  1  0
  6 14  2  0
  6 19  1  0
  7  9  1  0
  8 10  1  0
 11 12  1  0
 12 13  1  0
 13 15  1  0
 14 16  1  0
 15 17  1  0
 16 18  2  0
 17 21  2  0
 17 22  1  0
 18 20  1  0
 19 20  2  0
 21 23  1  0
 22 24  2  0
 23 25  2  0
 24 25  1  0
M  END
>  <PUBCHEM_COMPOUND_CID>  (1) 
39884

>  <PUBCHEM_CONFORMER_RMSD>  (1) 
1

>  <PUBCHEM_CONFORMER_DIVERSEORDER>  (1) 
1
555
81
118
417
586
254
305
19
176
28
571
9
310
509
567
105
694
467
524
580
537
566
102
184
3
392
179
25
127
54
345
365
250
574
730
474
644
713
658
398
412
89
371
44
74
48
140
85
637
237
33
37
587
53
325
221
156
14
205
433
639
338
356
413
111
39
50
299
312
137
682
294
234
513
487
505
387
316
22
187
370
346
716
249
602
578
301
23
289
4
425
6
180
10
12
72
451
565
284
64
73
60
182
300
290
601
468
98
18
61
113
183
460
49
112
174
645
69
547
321
31
76
95
132
360
88
493
142
275
517
110
123
427
114
191
92
728
7
2
119
148
600
56
307
705
99
239
421
563
130
24
34

>  <PUBCHEM_MMFF94_PARTIAL_CHARGES>  (1) 
33
1 -0.19
10 0.37
11 0.27
13 0.34
14 0.41
15 0.42
16 -0.15
17 0.09
18 -0.15
19 0.16
2 -0.68
20 -0.15
21 -0.15
22 -0.15
23 -0.15
24 -0.15
25 0.19
3 -0.57
39 0.15
4 -0.81
40 0.4
41 0.15
42 0.15
43 0.15
44 0.15
45 0.15
46 0.15
47 0.15
5 -0.84
6 -0.62
7 0.27
8 0.27
9 0.37

>  <PUBCHEM_EFFECTIVE_ROTOR_COUNT>  (1) 
7.2

>  <PUBCHEM_PHARMACOPHORE_FEATURES>  (1) 
9
1 2 acceptor
1 2 donor
1 3 acceptor
1 4 cation
1 5 cation
1 6 acceptor
6 17 21 22 23 24 25 rings
6 4 5 7 8 9 10 rings
6 6 14 16 18 19 20 rings

>  <PUBCHEM_HEAVY_ATOM_COUNT>  (1) 
25

>  <PUBCHEM_ATOM_DEF_STEREO_COUNT>  (1) 
0

>  <PUBCHEM_ATOM_UDEF_STEREO_COUNT>  (1) 
1

>  <PUBCHEM_BOND_DEF_STEREO_COUNT>  (1) 
0

>  <PUBCHEM_BOND_UDEF_STEREO_COUNT>  (1) 
0

>  <PUBCHEM_ISOTOPIC_ATOM_COUNT>  (1) 
0

>  <PUBCHEM_COMPONENT_COUNT>  (1) 
1

>  <PUBCHEM_CACTVS_TAUTO_COUNT>  (1) 
4

>  <PUBCHEM_CONFORMER_ID>  (1) 
00009BCC00000001

>  <PUBCHEM_MMFF94_ENERGY>  (1) 
69.4008

>  <PUBCHEM_FEATURE_SELFOVERLAP>  (1) 
45.683

>  <PUBCHEM_SHAPE_FINGERPRINT>  (1) 
11056379 131 18335419015719897653
11135609 201 8718285563301496319
11315181 36 18341891883759457317
11315621 246 18333730199865522295
11545043 162 18202559562162595016
12616971 3 17677067766745211085
12633257 1 16056040294046453807
13631057 29 18335134297973806683
13782708 43 18412540990749177274
14251751 18 18343304781601259558
14461889 52 18341322371670709586
14556957 393 16153715284175965343
14849402 71 14332544805037789722
14856354 85 15482383248316185093
14931854 50 17458893942805699155
14950920 106 16271924978143866835
15021287 119 15195559109176722256
15183329 4 17385443228701045842
15352257 5 18130791127346808206
15716309 27 18131068238208808812
17093844 174 17989200404703362681
17780758 139 17775571931678037313
17844677 252 17917992763440276184
18927931 339 18334017181491381501
20028762 73 18334294284292274086
20281389 69 9943808889155612046
20621476 66 9871474239646821435
21054139 6 17967530169050156618
21095123 145 18201434805813960854
21315759 148 18060421292162463582
21623969 137 17275387590864803566
21756936 100 10159699110309810421
220451 1 18189058603609532952
2303208 19 17988927739215843828
23081809 10 17168145586331309296
23198884 109 11746932097133406457
23402539 116 17676489414849019189
23424782 7 18341612659782946584
23522609 53 17972067823611075540
23559900 14 18187639275853717245
24771293 8 17748830727023756924
249057 3 18114178597836771453
270888 7 9582979955683920791
2838139 119 7925908166978540174
328310 18 13407068177005114287
3418910 222 18343305894906268344
397830 11 18200865275601695840
4015057 19 16588602984044262732
4073 2 18201159849880180784
4169191 19 12390928152419208994
445580 167 17895203233750535740
484985 159 18408879638772525663
4938544 92 17845943927067440577
6009941 240 17703516476080558121
6328613 192 10952042373451777466
6431902 208 18334575750288569203
6673363 416 18410866473765278756
7495541 125 18201999954221490904
7970288 3 18265615566891060127
9953998 17 18272652320637779249
999808 66 17989771090035230950

>  <PUBCHEM_SHAPE_MULTIPOLES>  (1) 
480.53
19.79
2.63
1.4
22.62
0.04
-0.1
12.99
-0.36
-6.21
0.36
0
0.07
0.42

>  <PUBCHEM_SHAPE_SELFOVERLAP>  (1) 
1017.114

>  <PUBCHEM_SHAPE_VOLUME>  (1) 
268.2

>  <PUBCHEM_COORDINATE_TYPE>  (1) 
2
5
10

$$$$
