39880
     RDKit          3D

 11 11  0  0  0  0  0  0  0  0999 V2000
   -0.1072    1.9519   -0.0001 O   0  0  0  0  0  0  0  0  0  0  0  0
    2.8437   -0.8871    0.0008 O   0  0  0  0  0  0  0  0  0  0  0  0
    2.3837    1.3389   -0.0002 O   0  0  0  0  0  0  0  0  0  0  0  0
   -0.3982    0.7095   -0.0001 N   0  0  0  0  0  0  0  0  0  0  0  0
   -1.0413   -2.0137   -0.0002 N   0  0  0  0  0  0  0  0  0  0  0  0
   -1.7111    0.2975    0.0001 C   0  0  0  0  0  0  0  0  0  0  0  0
    0.5917   -0.2462   -0.0002 C   0  0  0  0  0  0  0  0  0  0  0  0
   -2.7896    1.3212    0.0004 C   0  0  0  0  0  0  0  0  0  0  0  0
   -1.9914   -1.0574    0.0000 C   0  0  0  0  0  0  0  0  0  0  0  0
    0.2363   -1.5835   -0.0003 C   0  0  0  0  0  0  0  0  0  0  0  0
    1.9834    0.1689   -0.0003 C   0  0  0  0  0  0  0  0  0  0  0  0
  1  4  1  0
  2 11  1  0
  3 11  2  0
  4  6  2  0
  4  7  1  0
  5  9  2  0
  5 10  1  0
  6  8  1  0
  6  9  1  0
  7 10  2  0
  7 11  1  0
M  CHG  2   1  -1   4   1
M  END
>  <PUBCHEM_COMPOUND_CID>  (1) 
39880

>  <PUBCHEM_CONFORMER_RMSD>  (1) 
0.4

>  <PUBCHEM_CONFORMER_DIVERSEORDER>  (1) 
1
2

>  <PUBCHEM_MMFF94_PARTIAL_CHARGES>  (1) 
14
1 -0.75
10 0.16
11 0.63
15 0.15
16 0.15
17 0.5
2 -0.65
3 -0.57
4 0.57
5 -0.62
6 -0.05
7 0.18
8 0.14
9 0.16

>  <PUBCHEM_EFFECTIVE_ROTOR_COUNT>  (1) 
1

>  <PUBCHEM_PHARMACOPHORE_FEATURES>  (1) 
6
1 1 anion
1 2 acceptor
1 3 acceptor
1 5 acceptor
3 2 3 11 anion
6 4 5 6 7 9 10 rings

>  <PUBCHEM_HEAVY_ATOM_COUNT>  (1) 
11

>  <PUBCHEM_ATOM_DEF_STEREO_COUNT>  (1) 
0

>  <PUBCHEM_ATOM_UDEF_STEREO_COUNT>  (1) 
0

>  <PUBCHEM_BOND_DEF_STEREO_COUNT>  (1) 
0

>  <PUBCHEM_BOND_UDEF_STEREO_COUNT>  (1) 
0

>  <PUBCHEM_ISOTOPIC_ATOM_COUNT>  (1) 
0

>  <PUBCHEM_COMPONENT_COUNT>  (1) 
1

>  <PUBCHEM_CACTVS_TAUTO_COUNT>  (1) 
1

>  <PUBCHEM_CONFORMER_ID>  (1) 
00009BC800000001

>  <PUBCHEM_MMFF94_ENERGY>  (1) 
31.7432

>  <PUBCHEM_FEATURE_SELFOVERLAP>  (1) 
30.504

>  <PUBCHEM_SHAPE_FINGERPRINT>  (1) 
12423570 1 12712922803718999623
14325111 11 18410855455854436421
16945 1 18266459797818942407
193761 8 17978228584454582541
19973954 147 18338518663304275060
20871998 184 18128542750242067855
21040471 1 18410573972350971271
23235685 24 18338793395124347709
23402655 69 18051675661265599941
23552423 10 18260548973964280846
23559900 14 18343306925818673022
241688 4 16537920634662777563
2748010 2 18411139159903258647
369184 2 18412262873687649722
5084963 1 18058725797623750490
528886 8 18339073787874697521

>  <PUBCHEM_SHAPE_MULTIPOLES>  (1) 
198.8
3.65
1.97
0.57
0.71
0.16
0
-0.79
0
-0.4
0
-0.04
0.01
0

>  <PUBCHEM_SHAPE_SELFOVERLAP>  (1) 
416.465

>  <PUBCHEM_SHAPE_VOLUME>  (1) 
112.1

>  <PUBCHEM_COORDINATE_TYPE>  (1) 
2
5
10

$$$$
