39896
     RDKit          3D

 17 18  0  0  0  0  0  0  0  0999 V2000
    0.8004   -2.4172   -0.0486 Cl  0  0  0  0  0  0  0  0  0  0  0  0
    5.1587    0.7932    0.1951 Cl  0  0  0  0  0  0  0  0  0  0  0  0
   -3.8478    0.0832    2.3086 Cl  0  0  0  0  0  0  0  0  0  0  0  0
   -5.2558   -0.0808   -0.6001 Cl  0  0  0  0  0  0  0  0  0  0  0  0
    3.6748   -1.7906    0.1438 O   0  0  0  0  0  0  0  0  0  0  0  0
    0.6761    0.3064   -0.1152 C   0  0  0  0  0  0  0  0  0  0  0  0
   -0.7641    0.2129   -0.2161 C   0  0  0  0  0  0  0  0  0  0  0  0
    1.4914   -0.8252   -0.0329 C   0  0  0  0  0  0  0  0  0  0  0  0
    1.2540    1.5782   -0.1008 C   0  0  0  0  0  0  0  0  0  0  0  0
   -1.5453    0.1931    0.9394 C   0  0  0  0  0  0  0  0  0  0  0  0
   -1.3715    0.1423   -1.4698 C   0  0  0  0  0  0  0  0  0  0  0  0
    2.8759   -0.6858    0.0632 C   0  0  0  0  0  0  0  0  0  0  0  0
    2.6385    1.7176   -0.0046 C   0  0  0  0  0  0  0  0  0  0  0  0
    3.4495    0.5856    0.0774 C   0  0  0  0  0  0  0  0  0  0  0  0
   -2.9336    0.1028    0.8412 C   0  0  0  0  0  0  0  0  0  0  0  0
   -2.7600    0.0520   -1.5681 C   0  0  0  0  0  0  0  0  0  0  0  0
   -3.5411    0.0324   -0.4125 C   0  0  0  0  0  0  0  0  0  0  0  0
  1  8  1  0
  2 14  1  0
  3 15  1  0
  4 17  1  0
  5 12  1  0
  6  7  1  0
  6  8  2  0
  6  9  1  0
  7 10  2  0
  7 11  1  0
  8 12  1  0
  9 13  2  0
 10 15  1  0
 11 16  2  0
 12 14  2  0
 13 14  1  0
 15 17  2  0
 16 17  1  0
M  END
>  <PUBCHEM_COMPOUND_CID>  (1) 
39896

>  <PUBCHEM_CONFORMER_RMSD>  (1) 
0.6

>  <PUBCHEM_CONFORMER_DIVERSEORDER>  (1) 
2
3
4
6
5
1

>  <PUBCHEM_MMFF94_PARTIAL_CHARGES>  (1) 
21
1 -0.18
10 -0.15
11 -0.15
12 0.08
13 -0.15
14 0.18
15 0.18
16 -0.15
17 0.18
18 0.15
19 0.15
2 -0.18
20 0.15
21 0.15
22 0.15
23 0.45
3 -0.18
4 -0.18
5 -0.53
8 0.18
9 -0.15

>  <PUBCHEM_EFFECTIVE_ROTOR_COUNT>  (1) 
1

>  <PUBCHEM_PHARMACOPHORE_FEATURES>  (1) 
3
1 5 donor
6 6 8 9 12 13 14 rings
6 7 10 11 15 16 17 rings

>  <PUBCHEM_HEAVY_ATOM_COUNT>  (1) 
17

>  <PUBCHEM_ATOM_DEF_STEREO_COUNT>  (1) 
0

>  <PUBCHEM_ATOM_UDEF_STEREO_COUNT>  (1) 
0

>  <PUBCHEM_BOND_DEF_STEREO_COUNT>  (1) 
0

>  <PUBCHEM_BOND_UDEF_STEREO_COUNT>  (1) 
0

>  <PUBCHEM_ISOTOPIC_ATOM_COUNT>  (1) 
0

>  <PUBCHEM_COMPONENT_COUNT>  (1) 
1

>  <PUBCHEM_CACTVS_TAUTO_COUNT>  (1) 
3

>  <PUBCHEM_CONFORMER_ID>  (1) 
00009BD800000002

>  <PUBCHEM_MMFF94_ENERGY>  (1) 
47.8026

>  <PUBCHEM_FEATURE_SELFOVERLAP>  (1) 
15.223

>  <PUBCHEM_SHAPE_FINGERPRINT>  (1) 
11471102 20 18409163303433243388
11615757 297 18343582953816645733
11796584 16 16298380224245261354
12236239 1 17775565346849795309
12390115 104 17763472016790066232
12670546 56 17846778494488205153
13140716 1 18193831781465648432
13296908 3 17603309258288548689
13538477 17 17417519319887763847
13583140 156 18272103690669572385
13965767 371 16841945701579807929
14251717 144 18411415103041408190
14386348 63 17675925399869893137
15219456 202 17967532363250631549
15309172 13 18408888464043926386
15375358 24 17676485038825561335
15653759 3 17022904553349586417
16752209 62 16343411831326055221
16945 1 18411138013358065166
1813 80 17986405395159693910
18175812 5 17530965817028831831
18186145 218 18343023302540487244
19049666 15 17605546652813617061
19422 9 17704073975567369551
200 152 18343014498073866653
20279233 1 17675925395664544723
204376 136 18336546126954723478
20600515 1 16226051059345969109
20645477 70 18335975372597754854
22854114 59 18335702753964531397
23048698 100 18202280308052968357
23402539 116 15936403477078016439
23557571 272 16950274083651971508
23559900 14 16515684403760936754
26918003 58 18113899372805147337
2748010 2 18192700156309247972
3268164 11 14907894947649812193
33824 294 18334853905313452426
474 4 17843672503337293608
5104073 3 18335416812116676457
602551 16 16226056629523042800
633830 44 18059592294401561052
77492 1 17775565346865600077
81228 2 16680889053638589882
8272917 22 18270121206463645095

>  <PUBCHEM_SHAPE_MULTIPOLES>  (1) 
351.46
9.44
1.59
1.37
0.51
0.75
0.4
-1.08
0.9
-1.83
0.03
2.17
-0.1
-0.2

>  <PUBCHEM_SHAPE_SELFOVERLAP>  (1) 
728.604

>  <PUBCHEM_SHAPE_VOLUME>  (1) 
205.1

>  <PUBCHEM_COORDINATE_TYPE>  (1) 
2
5
10

$$$$
