39902
     RDKit          3D

  8  8  0  0  0  0  0  0  0  0999 V2000
   -0.1175   -1.1984   -0.3495 O   0  0  0  0  0  0  0  0  0  0  0  0
   -0.1174    1.1981   -0.3501 O   0  0  0  0  0  0  0  0  0  0  0  0
   -0.8255   -0.0001   -0.0028 C   0  0  0  0  0  0  0  0  0  0  0  0
    1.9780    0.0001   -0.2393 C   0  0  0  0  0  0  0  0  0  0  0  0
    1.2090   -1.2457    0.1695 C   0  0  0  0  0  0  0  0  0  0  0  0
    1.2087    1.2457    0.1692 C   0  0  0  0  0  0  0  0  0  0  0  0
   -2.0885   -0.0003   -0.8687 C   0  0  0  0  0  0  0  0  0  0  0  0
   -1.2468    0.0005    1.4716 C   0  0  0  0  0  0  0  0  0  0  0  0
  1  3  1  0
  1  5  1  0
  2  3  1  0
  2  6  1  0
  3  7  1  0
  3  8  1  0
  4  5  1  0
  4  6  1  0
M  END
>  <PUBCHEM_COMPOUND_CID>  (1) 
39902

>  <PUBCHEM_CONFORMER_RMSD>  (1) 
0.4

>  <PUBCHEM_CONFORMER_DIVERSEORDER>  (1) 
1
2
3

>  <PUBCHEM_MMFF94_PARTIAL_CHARGES>  (1) 
5
1 -0.56
2 -0.56
3 0.56
5 0.28
6 0.28

>  <PUBCHEM_EFFECTIVE_ROTOR_COUNT>  (1) 
1.2

>  <PUBCHEM_PHARMACOPHORE_FEATURES>  (1) 
4
1 1 acceptor
1 2 acceptor
3 3 7 8 hydrophobe
6 1 2 3 4 5 6 rings

>  <PUBCHEM_HEAVY_ATOM_COUNT>  (1) 
8

>  <PUBCHEM_ATOM_DEF_STEREO_COUNT>  (1) 
0

>  <PUBCHEM_ATOM_UDEF_STEREO_COUNT>  (1) 
0

>  <PUBCHEM_BOND_DEF_STEREO_COUNT>  (1) 
0

>  <PUBCHEM_BOND_UDEF_STEREO_COUNT>  (1) 
0

>  <PUBCHEM_ISOTOPIC_ATOM_COUNT>  (1) 
0

>  <PUBCHEM_COMPONENT_COUNT>  (1) 
1

>  <PUBCHEM_CACTVS_TAUTO_COUNT>  (1) 
1

>  <PUBCHEM_CONFORMER_ID>  (1) 
00009BDE00000001

>  <PUBCHEM_MMFF94_ENERGY>  (1) 
16.7554

>  <PUBCHEM_FEATURE_SELFOVERLAP>  (1) 
20.329

>  <PUBCHEM_SHAPE_FINGERPRINT>  (1) 
12423570 1 17325480502595763673
137420 1 12855608583412380723
18185500 45 18201714042005064406
20096714 4 18340771536923022886
21040471 1 18265325303840763692
23552333 60 18131058355563011195
24536 1 17603593993071642396
29004967 10 18260839188861640537
5084963 1 18267028447299356622
5943 1 11584625282669413219

>  <PUBCHEM_SHAPE_MULTIPOLES>  (1) 
152.9
2.4
1.29
1.02
0.08
0
0.32
0
-0.3
-0.47
-0.03
0.56
0
0

>  <PUBCHEM_SHAPE_SELFOVERLAP>  (1) 
295.128

>  <PUBCHEM_SHAPE_VOLUME>  (1) 
94.1

>  <PUBCHEM_COORDINATE_TYPE>  (1) 
2
5
10

$$$$
