3991
     RDKit          3D

 17 17  0  0  0  0  0  0  0  0999 V2000
    1.9444   -1.5172    1.1842 F   0  0  0  0  0  0  0  0  0  0  0  0
    3.8376   -1.0164    0.2286 F   0  0  0  0  0  0  0  0  0  0  0  0
    2.8121    0.4617    1.4656 F   0  0  0  0  0  0  0  0  0  0  0  0
    2.6775    1.0025   -1.3027 O   0  0  0  0  0  0  0  0  0  0  0  0
    1.7470   -1.0951   -1.6111 O   0  0  0  0  0  0  0  0  0  0  0  0
   -2.9942   -0.6682    0.0200 N   0  0  0  0  0  0  0  0  0  0  0  0
   -1.7720    0.2531    0.0135 C   0  0  0  0  0  0  0  0  0  0  0  0
   -4.0131   -0.1389   -0.9852 C   0  0  0  0  0  0  0  0  0  0  0  0
   -3.5828   -0.6932    1.4279 C   0  0  0  0  0  0  0  0  0  0  0  0
   -2.6393   -2.1011   -0.3719 C   0  0  0  0  0  0  0  0  0  0  0  0
   -0.5835   -0.3069   -0.3166 C   0  0  0  0  0  0  0  0  0  0  0  0
    0.5302    0.5330   -0.3211 C   0  0  0  0  0  0  0  0  0  0  0  0
    1.8735   -0.0111   -0.6742 C   0  0  0  0  0  0  0  0  0  0  0  0
   -1.9816    1.5510    0.3399 C   0  0  0  0  0  0  0  0  0  0  0  0
    0.3879    1.8818    0.0049 C   0  0  0  0  0  0  0  0  0  0  0  0
   -0.8678    2.3908    0.3353 C   0  0  0  0  0  0  0  0  0  0  0  0
    2.6239   -0.5258    0.5629 C   0  0  0  0  0  0  0  0  0  0  0  0
  1 17  1  0
  2 17  1  0
  3 17  1  0
  4 13  1  0
  5 13  1  0
  6  7  1  0
  6  8  1  0
  6  9  1  0
  6 10  1  0
  7 11  2  0
  7 14  1  0
 11 12  1  0
 12 13  1  0
 12 15  2  0
 13 17  1  0
 14 16  2  0
 15 16  1  0
M  CHG  1   6   1
M  END
>  <PUBCHEM_COMPOUND_CID>  (1) 
3991

>  <PUBCHEM_CONFORMER_RMSD>  (1) 
0.6

>  <PUBCHEM_CONFORMER_DIVERSEORDER>  (1) 
1
7
6
3
4
5
8
2

>  <PUBCHEM_MMFF94_PARTIAL_CHARGES>  (1) 
23
1 -0.34
10 0.5
11 -0.15
12 -0.14
13 0.7
14 -0.15
15 -0.15
16 -0.15
17 1.02
2 -0.34
27 0.15
28 0.15
29 0.15
3 -0.34
30 0.15
31 0.4
32 0.4
4 -0.68
5 -0.68
6 -0.87
7 0.36
8 0.5
9 0.5

>  <PUBCHEM_EFFECTIVE_ROTOR_COUNT>  (1) 
3

>  <PUBCHEM_PHARMACOPHORE_FEATURES>  (1) 
6
1 4 acceptor
1 4 donor
1 5 acceptor
1 5 donor
1 6 cation
6 7 11 12 14 15 16 rings

>  <PUBCHEM_HEAVY_ATOM_COUNT>  (1) 
17

>  <PUBCHEM_ATOM_DEF_STEREO_COUNT>  (1) 
0

>  <PUBCHEM_ATOM_UDEF_STEREO_COUNT>  (1) 
0

>  <PUBCHEM_BOND_DEF_STEREO_COUNT>  (1) 
0

>  <PUBCHEM_BOND_UDEF_STEREO_COUNT>  (1) 
0

>  <PUBCHEM_ISOTOPIC_ATOM_COUNT>  (1) 
0

>  <PUBCHEM_COMPONENT_COUNT>  (1) 
1

>  <PUBCHEM_CACTVS_TAUTO_COUNT>  (1) 
1

>  <PUBCHEM_CONFORMER_ID>  (1) 
00000F9700000001

>  <PUBCHEM_MMFF94_ENERGY>  (1) 
52.9285

>  <PUBCHEM_FEATURE_SELFOVERLAP>  (1) 
30.541

>  <PUBCHEM_SHAPE_FINGERPRINT>  (1) 
10130415 120 18409731776973187025
10366900 7 17561079224104945202
10618630 7 18408884031505697643
11132069 177 18272081729604897354
11578080 2 17896298325029503884
12202030 40 17202494298784804076
12382932 28 18201719591387738323
12500047 106 18048587123716390568
12553582 1 18341624753851669975
12932764 1 18189621708118336799
13172582 1 18272938240931696343
13296908 3 18335704961683236067
13538477 17 18189627042056697004
13693222 15 18201428177624440424
13705890 14 16443350913481268273
14022347 108 18194714547188750615
14115302 16 17967531281261861911
14144814 61 18272096023704392799
14252887 29 18201167623528620835
15375462 189 18262528107794984563
16752209 62 18337667508492712749
16945 1 18272658964999483269
17834072 14 18200294594480261997
18186145 218 12685089306700850327
19049666 15 17342949143942865932
200 152 18260260845861604719
20279233 1 17989203729150084735
20281475 54 18410298051125657487
20361792 2 18410013264692400861
20645477 70 18336543910656880927
20871998 184 18201434723170495317
21501925 9 18200304558761898205
21731516 1 18337116756130289617
22112679 90 18264223447129630812
232386 152 18408042922301075751
23402539 116 18200578221261786573
23419403 2 17977061864873292597
23557571 272 18201996582302638504
23559900 14 18342172220590530988
2748010 2 17983311334825997669
276578 36 8502383255893081045
34934 24 18269272524904535021
5902787 121 18265614458451225043
6338986 31 18411408540605433141
7364860 26 17913776295177038361
81228 2 18269283361291937929
9882013 296 17131822218188902553

>  <PUBCHEM_SHAPE_MULTIPOLES>  (1) 
311.31
6.22
2
1.22
0.73
0.58
-0.07
-2.47
-0.45
0.49
-0.09
-0.23
-0.24
-0.23

>  <PUBCHEM_SHAPE_SELFOVERLAP>  (1) 
648.588

>  <PUBCHEM_SHAPE_VOLUME>  (1) 
181.6

>  <PUBCHEM_COORDINATE_TYPE>  (1) 
2
5
10

$$$$
