3993
     RDKit          3D

 21 21  0  0  1  0  0  0  0  0999 V2000
   -3.6836    0.8281    0.8870 P   0  0  0  0  0  0  0  0  0  0  0  0
   -3.4825   -1.6991   -0.6051 P   0  0  0  0  0  0  0  0  0  0  0  0
   -2.1488    1.2492    0.5945 O   0  0  0  0  0  0  0  0  0  0  0  0
   -4.0489   -0.2189   -0.2894 O   0  0  0  0  0  0  0  0  0  0  0  0
   -4.5437    2.1411    0.4951 O   0  0  0  0  0  0  0  0  0  0  0  0
   -3.9405    0.3108    2.2727 O   0  0  0  0  0  0  0  0  0  0  0  0
   -4.4190   -2.1976   -1.8244 O   0  0  0  0  0  0  0  0  0  0  0  0
   -4.0009   -2.5730    0.6518 O   0  0  0  0  0  0  0  0  0  0  0  0
   -2.0064   -1.7621   -0.8651 O   0  0  0  0  0  0  0  0  0  0  0  0
    5.8412   -1.5748    0.5084 O   0  0  0  0  0  0  0  0  0  0  0  0
    3.9101   -2.6132    0.6155 O   0  0  0  0  0  0  0  0  0  0  0  0
    0.4640    0.8806   -0.3778 N   0  0  0  0  0  0  0  0  0  0  0  0
    4.5889   -1.5746    0.4289 N   0  0  0  0  0  0  0  0  0  0  0  0
   -0.2964    2.0685   -0.6893 C   0  0  0  0  0  0  0  0  0  0  0  0
   -1.7824    1.7520   -0.6787 C   0  0  0  0  0  0  0  0  0  0  0  0
    1.8460    0.8556   -0.2835 C   0  0  0  0  0  0  0  0  0  0  0  0
    2.5280   -0.3366    0.0240 C   0  0  0  0  0  0  0  0  0  0  0  0
    2.6051    2.0222   -0.4928 C   0  0  0  0  0  0  0  0  0  0  0  0
    3.9194   -0.3614    0.1186 C   0  0  0  0  0  0  0  0  0  0  0  0
    3.9965    1.9975   -0.3981 C   0  0  0  0  0  0  0  0  0  0  0  0
    4.6537    0.8057   -0.0924 C   0  0  0  0  0  0  0  0  0  0  0  0
  1  3  1  0
  1  4  1  0
  1  5  1  0
  1  6  2  0
  2  4  1  0
  2  7  1  0
  2  8  1  0
  2  9  2  0
  3 15  1  0
 10 13  1  0
 11 13  2  0
 12 14  1  0
 12 16  1  0
 13 19  1  0
 14 15  1  0
 16 17  2  0
 16 18  1  0
 17 19  1  0
 18 20  2  0
 19 21  2  0
 20 21  1  0
M  CHG  2  10  -1  13   1
M  END
>  <PUBCHEM_COMPOUND_CID>  (1) 
3993

>  <PUBCHEM_CONFORMER_RMSD>  (1) 
0.8

>  <PUBCHEM_CONFORMER_DIVERSEORDER>  (1) 
1
158
96
54
51
123
137
78
141
16
99
14
87
132
55
59
80
13
128
159
74
120
17
135
147
187
145
26
29
84
142
77
60
19
41
38
88
167
3
5
154
58
150
24
149
103
166
160
8
61
138
110
65
102
9
20
162
23
69
155
85
182
44
30
98
53
189
168
35
188
52
48
18
37
2
72
91
125
124
6
153
112
190
81
47
27
171
71
126
10
101
185
131
95
172
45
34
86
4
106
39
70
43
75
94
89
152
56
157
133
7
63
181
184
67
169
64
127
21
79
33
116
73
90
163
118
93
130
122
31
25
15
32
40
57
11
111
46
49
143
136
164
183
50
177
139
173
140
92
68
161
175
83
179
156
134
108
129
12
117
66
36
174
121
100
114
180
109
104
119
28
115
165
76
176
144
113
178
42
148
105
82
186
146
22
62
151
107
97
170

>  <PUBCHEM_MMFF94_PARTIAL_CHARGES>  (1) 
29
1 1.51
10 -0.52
11 -0.52
12 -0.87
13 0.91
14 0.37
15 0.28
16 0.1
17 -0.15
18 -0.15
19 0.13
2 1.51
20 -0.15
21 -0.15
26 0.4
27 0.15
28 0.15
29 0.15
3 -0.55
30 0.15
31 0.5
32 0.5
33 0.5
4 -0.54
5 -0.77
6 -0.7
7 -0.77
8 -0.77
9 -0.7

>  <PUBCHEM_EFFECTIVE_ROTOR_COUNT>  (1) 
8

>  <PUBCHEM_PHARMACOPHORE_FEATURES>  (1) 
12
1 10 acceptor
1 10 anion
1 11 acceptor
1 12 cation
1 12 donor
1 5 acceptor
1 6 acceptor
1 7 acceptor
1 8 acceptor
1 9 acceptor
4 2 7 8 9 anion
6 16 17 18 19 20 21 rings

>  <PUBCHEM_HEAVY_ATOM_COUNT>  (1) 
21

>  <PUBCHEM_ATOM_DEF_STEREO_COUNT>  (1) 
0

>  <PUBCHEM_ATOM_UDEF_STEREO_COUNT>  (1) 
0

>  <PUBCHEM_BOND_DEF_STEREO_COUNT>  (1) 
0

>  <PUBCHEM_BOND_UDEF_STEREO_COUNT>  (1) 
0

>  <PUBCHEM_ISOTOPIC_ATOM_COUNT>  (1) 
0

>  <PUBCHEM_COMPONENT_COUNT>  (1) 
1

>  <PUBCHEM_CACTVS_TAUTO_COUNT>  (1) 
1

>  <PUBCHEM_CONFORMER_ID>  (1) 
00000F9900000001

>  <PUBCHEM_MMFF94_ENERGY>  (1) 
0.9465

>  <PUBCHEM_FEATURE_SELFOVERLAP>  (1) 
61.027

>  <PUBCHEM_SHAPE_FINGERPRINT>  (1) 
10622 236 18198883972359425127
11552529 35 17988079010338162325
12107183 9 18196093231179109456
12596602 18 17703787033740681376
12633257 1 18201164264753328093
13167823 11 18411420626480010080
13551218 46 18408892819615557395
13583140 156 15267054831139939582
15196674 1 18409448106745818884
15250474 111 18412257359150400774
15537594 2 18263662756402496372
17857418 61 18409722959236399918
19141452 34 18337393747161604365
20261772 1 18410581664684916792
20281475 54 18411134757736275844
20621476 51 18201147841004487279
20645477 70 17895470431680862968
20681651 13 18202288030399243097
21033648 29 14692580904985230281
21065198 48 18341895224874534292
21673915 165 18409447020462029718
221490 88 18334011701229214852
235170 7 15068624889706939634
4283 87 18188201005777619730
5104073 3 18343303686469138560
559249 180 18411133598653865741
5924683 9 18201996651401644061
633830 44 17167866361073793761
7064713 232 18060139799531084704

>  <PUBCHEM_SHAPE_MULTIPOLES>  (1) 
377.08
12.79
3.03
1.17
3.11
1.04
-0.21
5.2
-1.83
-0.42
0.29
-1.76
0.21
-2.16

>  <PUBCHEM_SHAPE_SELFOVERLAP>  (1) 
738.562

>  <PUBCHEM_SHAPE_VOLUME>  (1) 
226.9

>  <PUBCHEM_COORDINATE_TYPE>  (1) 
2
5
10

$$$$
