39936
     RDKit          3D

 31 35  0  0  1  0  0  0  0  0999 V2000
    0.3155   -2.3086    1.5961 O   0  0  0  0  0  0  0  0  0  0  0  0
    2.5380   -2.2074   -1.1422 O   0  0  0  0  0  0  0  0  0  0  0  0
    4.9639    2.0140    0.7605 O   0  0  0  0  0  0  0  0  0  0  0  0
   -5.7612    0.6671   -2.8415 O   0  0  0  0  0  0  0  0  0  0  0  0
    4.3474   -0.9252   -1.7892 O   0  0  0  0  0  0  0  0  0  0  0  0
    4.8740    3.2179   -1.1987 O   0  0  0  0  0  0  0  0  0  0  0  0
   -0.0941   -1.1877    0.7941 C   0  0  0  0  0  0  0  0  0  0  0  0
    0.8265    0.0193    1.1361 C   0  0  0  0  0  0  0  0  0  0  0  0
   -1.6022   -0.9222    1.0635 C   0  0  0  0  0  0  0  0  0  0  0  0
   -2.1068    0.4176    0.4517 C   0  0  0  0  0  0  0  0  0  0  0  0
   -3.6350    0.6745    0.7381 C   0  0  0  0  0  0  0  0  0  0  0  0
    2.1603   -0.4223    0.4670 C   0  0  0  0  0  0  0  0  0  0  0  0
    0.2661    1.3262    0.5244 C   0  0  0  0  0  0  0  0  0  0  0  0
   -1.1952    1.5788    0.8908 C   0  0  0  0  0  0  0  0  0  0  0  0
    0.2665   -1.5138   -0.6726 C   0  0  0  0  0  0  0  0  0  0  0  0
   -4.4722   -0.5519    0.2475 C   0  0  0  0  0  0  0  0  0  0  0  0
   -2.4835   -2.1090    0.6236 C   0  0  0  0  0  0  0  0  0  0  0  0
    1.7279   -1.0734   -0.8587 C   0  0  0  0  0  0  0  0  0  0  0  0
   -3.9713   -1.8663    0.8622 C   0  0  0  0  0  0  0  0  0  0  0  0
   -4.1796    1.9455    0.0190 C   0  0  0  0  0  0  0  0  0  0  0  0
    1.0346    0.2074    2.6529 C   0  0  0  0  0  0  0  0  0  0  0  0
   -3.8927    0.9023    2.2515 C   0  0  0  0  0  0  0  0  0  0  0  0
   -4.5255   -0.6732   -1.2873 C   0  0  0  0  0  0  0  0  0  0  0  0
    3.1835    0.6551    0.2869 C   0  0  0  0  0  0  0  0  0  0  0  0
   -4.1770    1.8572   -1.4988 C   0  0  0  0  0  0  0  0  0  0  0  0
   -4.9317    0.6281   -1.9341 C   0  0  0  0  0  0  0  0  0  0  0  0
    4.2041    0.9359    1.3169 C   0  0  0  0  0  0  0  0  0  0  0  0
    3.3178    1.4679   -0.7576 C   0  0  0  0  0  0  0  0  0  0  0  0
    3.8681   -1.9553   -1.3351 C   0  0  0  0  0  0  0  0  0  0  0  0
    4.4548    2.3413   -0.4628 C   0  0  0  0  0  0  0  0  0  0  0  0
    4.6791   -3.1397   -0.9042 C   0  0  0  0  0  0  0  0  0  0  0  0
  1  7  1  0
  2 18  1  0
  2 29  1  0
  3 27  1  0
  3 30  1  0
  4 26  2  0
  5 29  2  0
  6 30  2  0
  7  8  1  0
  7  9  1  0
  7 15  1  0
  8 12  1  0
  8 13  1  0
  8 21  1  0
  9 10  1  0
  9 17  1  0
 10 11  1  0
 10 14  1  0
 11 16  1  0
 11 20  1  0
 11 22  1  0
 12 18  1  0
 12 24  1  0
 13 14  1  0
 15 18  1  0
 16 19  1  0
 16 23  1  0
 17 19  1  0
 20 25  1  0
 23 26  1  0
 24 27  1  0
 24 28  2  0
 25 26  1  0
 28 30  1  0
 29 31  1  0
M  END
>  <PUBCHEM_COMPOUND_CID>  (1) 
39936

>  <PUBCHEM_CONFORMER_RMSD>  (1) 
0.8

>  <PUBCHEM_CONFORMER_DIVERSEORDER>  (1) 
4
39
67
71
60
43
63
2
37
38
29
24
49
48
7
27
70
62
6
46
64
68
52
57
19
21
14
8
18
9
40
25
65
61
41
15
23
51
32
44
56
58
69
55
50
45
36
20
17
11
16
26
10
59
3
28
5
22
13
47
31
54
35
42
30
53
66
12
1
34
33

>  <PUBCHEM_MMFF94_PARTIAL_CHARGES>  (1) 
20
1 -0.68
12 0.14
18 0.28
2 -0.43
23 0.06
24 -0.28
25 0.06
26 0.45
27 0.42
28 -0.14
29 0.66
3 -0.43
30 0.71
31 0.06
4 -0.57
5 -0.57
57 0.4
6 -0.57
62 0.15
7 0.28

>  <PUBCHEM_EFFECTIVE_ROTOR_COUNT>  (1) 
5.4

>  <PUBCHEM_PHARMACOPHORE_FEATURES>  (1) 
10
1 1 acceptor
1 1 donor
1 4 acceptor
1 5 acceptor
1 6 acceptor
5 3 24 27 28 30 rings
5 7 8 12 15 18 rings
6 11 16 20 23 25 26 rings
6 7 8 9 10 13 14 rings
6 9 10 11 16 17 19 rings

>  <PUBCHEM_HEAVY_ATOM_COUNT>  (1) 
31

>  <PUBCHEM_ATOM_DEF_STEREO_COUNT>  (1) 
5

>  <PUBCHEM_ATOM_UDEF_STEREO_COUNT>  (1) 
3

>  <PUBCHEM_BOND_DEF_STEREO_COUNT>  (1) 
0

>  <PUBCHEM_BOND_UDEF_STEREO_COUNT>  (1) 
0

>  <PUBCHEM_ISOTOPIC_ATOM_COUNT>  (1) 
0

>  <PUBCHEM_COMPONENT_COUNT>  (1) 
1

>  <PUBCHEM_CACTVS_TAUTO_COUNT>  (1) 
3

>  <PUBCHEM_CONFORMER_ID>  (1) 
00009C0000000004

>  <PUBCHEM_MMFF94_ENERGY>  (1) 
99.5693

>  <PUBCHEM_FEATURE_SELFOVERLAP>  (1) 
50.982

>  <PUBCHEM_SHAPE_FINGERPRINT>  (1) 
10498660 4 18186516592771260653
10928967 22 14189283868629344533
11796584 16 15051439527787282541
11961588 58 18041542724990233725
11963148 33 18054225711307437574
12403259 415 18114473287968044801
12616971 3 17417820491437073291
12969540 114 17703230753502387072
13224815 77 18202001014893192609
13383661 66 15121818313081339223
13911987 19 17914062151104956088
14068700 675 17416405347501279942
14790565 3 17981621368602259153
15082195 135 18130208433476349053
15238133 3 15502649369508814925
15961568 22 17968946425778859652
17349148 13 17703514277068033442
18186145 218 18261684691907945019
20715895 44 17968079894562254085
21033648 144 18410581686043683078
21033648 29 17531253841909868293
21033650 10 17530975652477630905
22182313 1 18337963371193387243
22393880 68 18113618950237920255
22950370 63 12103571930238389433
23559900 14 18340494374573960706
32027 91 18265335006483836234
341906 21 17095525101704455485
34797466 226 18333732450824011021
4015057 19 18272654523713103690
44317340 157 18272934891089541353
44802255 64 17690307193468669252
460360 51 18186522094128605619
46194498 28 18190182480570870405
5081480 168 18195833811244605716
508706 21 18260266304976340181
5104073 3 18200890507838448875
57527295 17 17346600776508708801
6086070 43 18114172004544539034
633830 44 18339089185495971243
6523845 18 17387155107864403275
9709674 26 18341619212953520099
9981440 41 17240193344825227155

>  <PUBCHEM_SHAPE_MULTIPOLES>  (1) 
602.75
12.2
2.96
2.12
0.98
0.3
-0.17
-3.23
-6.1
-3.58
-0.66
1.61
-0.2
1.28

>  <PUBCHEM_SHAPE_SELFOVERLAP>  (1) 
1305.588

>  <PUBCHEM_SHAPE_VOLUME>  (1) 
327.7

>  <PUBCHEM_COORDINATE_TYPE>  (1) 
2
5
10

$$$$
