39943
     RDKit          3D

 21 23  0  0  1  0  0  0  0  0999 V2000
   -0.5146    0.4809   -0.2417 O   0  0  0  0  0  0  0  0  0  0  0  0
    6.0718    1.5416    0.4693 O   0  0  0  0  0  0  0  0  0  0  0  0
    4.0548    1.4877    1.5011 O   0  0  0  0  0  0  0  0  0  0  0  0
   -0.9015   -1.7010    0.2341 N   0  0  0  0  0  0  0  0  0  0  0  0
    4.4184    0.0272   -0.4229 C   0  0  0  0  0  0  0  0  0  0  0  0
    3.0276   -0.4865   -0.2389 C   0  0  0  0  0  0  0  0  0  0  0  0
    0.6916   -0.1560   -0.1770 C   0  0  0  0  0  0  0  0  0  0  0  0
    1.9517    0.3990   -0.3632 C   0  0  0  0  0  0  0  0  0  0  0  0
    0.4509   -1.4906    0.1145 C   0  0  0  0  0  0  0  0  0  0  0  0
    2.8289   -1.8413    0.0546 C   0  0  0  0  0  0  0  0  0  0  0  0
    1.5405   -2.3649    0.2357 C   0  0  0  0  0  0  0  0  0  0  0  0
   -1.4139   -0.5100    0.0147 C   0  0  0  0  0  0  0  0  0  0  0  0
    4.6861    0.6113   -1.8238 C   0  0  0  0  0  0  0  0  0  0  0  0
   -2.7911   -0.1000    0.0094 C   0  0  0  0  0  0  0  0  0  0  0  0
    4.8016    1.0816    0.6202 C   0  0  0  0  0  0  0  0  0  0  0  0
   -3.1269    1.2324   -0.2464 C   0  0  0  0  0  0  0  0  0  0  0  0
   -3.8028   -1.0310    0.2604 C   0  0  0  0  0  0  0  0  0  0  0  0
   -5.4701    0.6981    0.0001 C   0  0  0  0  0  0  0  0  0  0  0  0
   -4.4638    1.6307   -0.2510 C   0  0  0  0  0  0  0  0  0  0  0  0
   -5.1396   -0.6329    0.2556 C   0  0  0  0  0  0  0  0  0  0  0  0
   -6.8995    1.1237   -0.0048 C   0  0  0  0  0  0  0  0  0  0  0  0
  1  7  1  0
  1 12  1  0
  2 15  1  0
  3 15  2  0
  4  9  1  0
  4 12  2  0
  5  6  1  0
  5 13  1  0
  5 15  1  0
  6  8  1  0
  6 10  2  0
  7  8  2  0
  7  9  1  0
  9 11  2  0
 10 11  1  0
 12 14  1  0
 14 16  2  0
 14 17  1  0
 16 19  1  0
 17 20  2  0
 18 19  2  0
 18 20  1  0
 18 21  1  0
M  END
>  <PUBCHEM_COMPOUND_CID>  (1) 
39943

>  <PUBCHEM_CONFORMER_RMSD>  (1) 
0.6

>  <PUBCHEM_CONFORMER_DIVERSEORDER>  (1) 
1
4
2
3

>  <PUBCHEM_MMFF94_PARTIAL_CHARGES>  (1) 
28
1 -0.28
10 -0.15
11 -0.15
12 0.43
14 0.05
15 0.66
16 -0.15
17 -0.15
18 -0.14
19 -0.15
2 -0.65
20 -0.15
21 0.14
23 0.15
24 0.15
25 0.15
29 0.15
3 -0.57
30 0.15
31 0.15
32 0.15
36 0.5
4 -0.57
5 0.2
6 -0.14
7 0.14
8 -0.15
9 0.23

>  <PUBCHEM_EFFECTIVE_ROTOR_COUNT>  (1) 
3

>  <PUBCHEM_PHARMACOPHORE_FEATURES>  (1) 
7
1 13 hydrophobe
1 2 acceptor
1 3 acceptor
3 2 3 15 anion
5 1 4 7 9 12 rings
6 14 16 17 18 19 20 rings
6 6 7 8 9 10 11 rings

>  <PUBCHEM_HEAVY_ATOM_COUNT>  (1) 
21

>  <PUBCHEM_ATOM_DEF_STEREO_COUNT>  (1) 
0

>  <PUBCHEM_ATOM_UDEF_STEREO_COUNT>  (1) 
1

>  <PUBCHEM_BOND_DEF_STEREO_COUNT>  (1) 
0

>  <PUBCHEM_BOND_UDEF_STEREO_COUNT>  (1) 
0

>  <PUBCHEM_ISOTOPIC_ATOM_COUNT>  (1) 
0

>  <PUBCHEM_COMPONENT_COUNT>  (1) 
1

>  <PUBCHEM_CACTVS_TAUTO_COUNT>  (1) 
1

>  <PUBCHEM_CONFORMER_ID>  (1) 
00009C0700000001

>  <PUBCHEM_MMFF94_ENERGY>  (1) 
46.6637

>  <PUBCHEM_FEATURE_SELFOVERLAP>  (1) 
35.698

>  <PUBCHEM_SHAPE_FINGERPRINT>  (1) 
10 15 17968098646178146841
10366900 7 13973966502235399415
10411042 1 17618221711422811822
10670039 82 18188788149614265724
11089746 13 18131344211590869636
11128504 68 15985101924744919224
11595378 159 17241032219903867885
12107183 9 17471290652708124617
12236239 1 18131631158683067143
12403259 415 18188485770482637517
12633257 1 16515685571633091592
12730499 353 18343591732725030726
12969540 114 17917422137994577423
13533116 47 18339080367680692651
13955234 65 18266458711440929410
14461889 52 18041006159021347619
14528608 73 18272368672291318703
15196674 1 18335703802142572271
15788980 27 12324241676481775339
1601671 61 18259706705207991124
16079462 125 18187354399404852557
18222031 100 9583522018825818174
20281389 69 18334294228489042441
20397935 70 13695586624807638312
20645477 70 18270121184414367463
21033648 29 18271516615510393776
21150785 3 15985097539936913101
21452121 103 18409442558218174562
221357 26 17346320379896343536
23402539 116 18408600388124585687
23402655 69 18341331119891427967
23559900 14 18051969225820958755
245318 6 16663767909431925876
2916195 48 18342734160815304560
293599 30 18411983567674743806
29717793 49 17346041060660568175
300161 21 18335416851340820735
335352 9 18410295788205874846
34797466 226 17489873747579047085
34934 24 18413102874801733199
350125 39 18262516975709271030
3545911 37 18408326562357801055
4072396 5 18187356623960366002
4073 2 18040443208398155971
4340502 62 16587745326050230027
465052 167 8430312459130940568
474 4 17967542267461092446
495365 180 17918268758476293778
5104073 3 18261678060937233579
542803 24 17603308158914084007
59682541 52 17203061711937428380
960060 61 13686299093206051528

>  <PUBCHEM_SHAPE_MULTIPOLES>  (1) 
409.58
14.93
1.93
0.91
8.1
0.58
-0.11
-8.1
0.37
-0.77
0.24
-1.3
-0.31
0.61

>  <PUBCHEM_SHAPE_SELFOVERLAP>  (1) 
902.748

>  <PUBCHEM_SHAPE_VOLUME>  (1) 
222.9

>  <PUBCHEM_COORDINATE_TYPE>  (1) 
2
5
10

$$$$
