39942
     RDKit          3D

 21 23  0  0  1  0  0  0  0  0999 V2000
   -5.6807   -2.6843    0.2808 Cl  0  0  0  0  0  0  0  0  0  0  0  0
   -0.9414    1.5081   -0.1380 O   0  0  0  0  0  0  0  0  0  0  0  0
    6.1295   -1.3587   -0.5384 O   0  0  0  0  0  0  0  0  0  0  0  0
    4.1051   -1.3734   -1.5570 O   0  0  0  0  0  0  0  0  0  0  0  0
   -0.5625   -0.6926    0.2499 N   0  0  0  0  0  0  0  0  0  0  0  0
    4.4043    0.0313    0.4188 C   0  0  0  0  0  0  0  0  0  0  0  0
    2.9873    0.4764    0.2621 C   0  0  0  0  0  0  0  0  0  0  0  0
    0.6356   -0.0214    0.2079 C   0  0  0  0  0  0  0  0  0  0  0  0
    1.9559   -0.4689    0.3593 C   0  0  0  0  0  0  0  0  0  0  0  0
    0.4076    1.3260   -0.0297 C   0  0  0  0  0  0  0  0  0  0  0  0
    2.7131    1.8283    0.0210 C   0  0  0  0  0  0  0  0  0  0  0  0
    1.4018    2.2912   -0.1324 C   0  0  0  0  0  0  0  0  0  0  0  0
    4.7138   -0.5898    1.7952 C   0  0  0  0  0  0  0  0  0  0  0  0
   -1.4486    0.2562    0.0404 C   0  0  0  0  0  0  0  0  0  0  0  0
   -2.8806    0.1626   -0.0289 C   0  0  0  0  0  0  0  0  0  0  0  0
    4.8357   -0.9615   -0.6653 C   0  0  0  0  0  0  0  0  0  0  0  0
   -3.5146   -1.0718    0.1399 C   0  0  0  0  0  0  0  0  0  0  0  0
   -3.6492    1.3062   -0.2651 C   0  0  0  0  0  0  0  0  0  0  0  0
   -4.9051   -1.1619    0.0736 C   0  0  0  0  0  0  0  0  0  0  0  0
   -5.0396    1.2160   -0.3318 C   0  0  0  0  0  0  0  0  0  0  0  0
   -5.6675   -0.0180   -0.1623 C   0  0  0  0  0  0  0  0  0  0  0  0
  1 19  1  0
  2 10  1  0
  2 14  1  0
  3 16  1  0
  4 16  2  0
  5  8  1  0
  5 14  2  0
  6  7  1  0
  6 13  1  0
  6 16  1  0
  7  9  2  0
  7 11  1  0
  8  9  1  0
  8 10  2  0
 10 12  1  0
 11 12  2  0
 14 15  1  0
 15 17  2  0
 15 18  1  0
 17 19  1  0
 18 20  2  0
 19 21  2  0
 20 21  1  0
M  END
>  <PUBCHEM_COMPOUND_CID>  (1) 
39942

>  <PUBCHEM_CONFORMER_RMSD>  (1) 
0.6

>  <PUBCHEM_CONFORMER_DIVERSEORDER>  (1) 
2
12
9
1
11
6
3
7
13
8
10
4
5

>  <PUBCHEM_MMFF94_PARTIAL_CHARGES>  (1) 
28
1 -0.18
10 0.14
11 -0.15
12 -0.15
14 0.43
15 0.05
16 0.66
17 -0.15
18 -0.15
19 0.18
2 -0.28
20 -0.15
21 -0.15
23 0.15
24 0.15
25 0.15
29 0.15
3 -0.65
30 0.15
31 0.15
32 0.15
33 0.5
4 -0.57
5 -0.57
6 0.2
7 -0.14
8 0.23
9 -0.15

>  <PUBCHEM_EFFECTIVE_ROTOR_COUNT>  (1) 
3

>  <PUBCHEM_PHARMACOPHORE_FEATURES>  (1) 
7
1 13 hydrophobe
1 3 acceptor
1 4 acceptor
3 3 4 16 anion
5 2 5 8 10 14 rings
6 15 17 18 19 20 21 rings
6 7 8 9 10 11 12 rings

>  <PUBCHEM_HEAVY_ATOM_COUNT>  (1) 
21

>  <PUBCHEM_ATOM_DEF_STEREO_COUNT>  (1) 
0

>  <PUBCHEM_ATOM_UDEF_STEREO_COUNT>  (1) 
1

>  <PUBCHEM_BOND_DEF_STEREO_COUNT>  (1) 
0

>  <PUBCHEM_BOND_UDEF_STEREO_COUNT>  (1) 
0

>  <PUBCHEM_ISOTOPIC_ATOM_COUNT>  (1) 
0

>  <PUBCHEM_COMPONENT_COUNT>  (1) 
1

>  <PUBCHEM_CACTVS_TAUTO_COUNT>  (1) 
1

>  <PUBCHEM_CONFORMER_ID>  (1) 
00009C0600000002

>  <PUBCHEM_MMFF94_ENERGY>  (1) 
44.8772

>  <PUBCHEM_FEATURE_SELFOVERLAP>  (1) 
35.698

>  <PUBCHEM_SHAPE_FINGERPRINT>  (1) 
10366900 7 17022618689211867609
11128504 68 16081092584174024228
11796584 16 18410851049460655539
12236239 1 17168143403749171800
12403259 226 18335975471920455973
12596602 18 15339111368658337967
12916754 54 18339365266379120089
13167823 11 18337387244738970987
13288520 33 18410013226121974269
13533116 47 16343707599817101862
13675066 3 18060131055014807625
13685833 64 18413111666599580194
13862211 1 18333725818988551594
14341114 176 18409171047586644001
15183329 4 18260263027989697731
15196674 1 18336263539502680177
15788980 27 17847057792153678581
17492 89 18194122047918790231
17844677 252 18409453600336453761
1813 80 18040435490584310348
18222031 100 18409449172409573704
18927931 339 18260551143603390227
19141452 34 17917705816284463662
193927 3 18202294588544856148
19784866 240 18272378554900309816
200 152 18201999941246554369
20028762 73 18271523208011691695
20374829 77 18334574624785110756
20645477 70 18409730703052079964
21033648 29 17202463551145756193
21033650 10 17388839478221431404
21150785 3 17313392261407031670
21267235 1 18335425686252026995
21623969 137 17561086899465029558
21682296 61 17988089889279866199
21709351 56 18333724732926055493
220451 1 17894912893249097907
221490 88 18263086676881679441
22393880 68 18260258655887037703
23402539 116 18334849529094822413
23522609 53 17970094203911660149
23559900 14 18410567422990478001
239999 70 18413108360276524522
29717793 49 18341889710537342661
300161 21 9943532895052958641
3004659 81 18259705588785382852
335352 9 18408884015217710221
338550 245 18270400610696862062
3411729 13 18265042721528181160
3545911 37 18408038495054865725
4214541 1 18408319995701244313
4340502 62 14764628624845937196
465052 167 18272093807575342366
4990 188 18410013230016053892
5104073 3 18411135883450205329
542803 24 15068340099141940589
559249 180 18335977602255259715
59682541 52 13840257041034408690
59755656 215 18334853879939079783
77779 3 18336545014669268873
8863177 126 17823713047441448387
960060 61 17313107445198738158
9709674 26 18190746525730506523

>  <PUBCHEM_SHAPE_MULTIPOLES>  (1) 
411.45
14.6
2.11
0.92
3
0.04
0.07
7.7
-0.61
1.19
-0.14
-1.32
0.31
0.8

>  <PUBCHEM_SHAPE_SELFOVERLAP>  (1) 
899.567

>  <PUBCHEM_SHAPE_VOLUME>  (1) 
225.3

>  <PUBCHEM_COORDINATE_TYPE>  (1) 
2
5
10

$$$$
