39947
     RDKit          3D

 23 25  0  0  1  0  0  0  0  0999 V2000
   -7.8824   -1.0643   -0.1519 Cl  0  0  0  0  0  0  0  0  0  0  0  0
   -1.6925    1.3462   -0.3865 O   0  0  0  0  0  0  0  0  0  0  0  0
    5.6996   -0.5455   -0.0451 O   0  0  0  0  0  0  0  0  0  0  0  0
    3.7148   -1.1139   -1.0659 O   0  0  0  0  0  0  0  0  0  0  0  0
   -1.0679   -0.6366    0.5164 N   0  0  0  0  0  0  0  0  0  0  0  0
    3.7673    0.7205    0.5450 C   0  0  0  0  0  0  0  0  0  0  0  0
    2.3140    0.9360    0.2764 C   0  0  0  0  0  0  0  0  0  0  0  0
    0.0422    0.1500    0.3249 C   0  0  0  0  0  0  0  0  0  0  0  0
    1.4000   -0.0811    0.5881 C   0  0  0  0  0  0  0  0  0  0  0  0
   -0.3363    1.3645   -0.2280 C   0  0  0  0  0  0  0  0  0  0  0  0
    1.8893    2.1482   -0.2812 C   0  0  0  0  0  0  0  0  0  0  0  0
    4.0810    0.4961    2.0374 C   0  0  0  0  0  0  0  0  0  0  0  0
    0.5386    2.3948   -0.5501 C   0  0  0  0  0  0  0  0  0  0  0  0
    4.3585   -0.4261   -0.2839 C   0  0  0  0  0  0  0  0  0  0  0  0
   -2.0527    0.1181    0.0808 C   0  0  0  0  0  0  0  0  0  0  0  0
   -3.4598   -0.1671    0.0251 C   0  0  0  0  0  0  0  0  0  0  0  0
   -4.3502    0.7835   -0.4817 C   0  0  0  0  0  0  0  0  0  0  0  0
   -3.9462   -1.3969    0.4769 C   0  0  0  0  0  0  0  0  0  0  0  0
    6.3713   -1.5679   -0.7880 C   0  0  0  0  0  0  0  0  0  0  0  0
   -5.7163    0.5065   -0.5361 C   0  0  0  0  0  0  0  0  0  0  0  0
   -5.3123   -1.6740    0.4224 C   0  0  0  0  0  0  0  0  0  0  0  0
   -6.1972   -0.7221   -0.0840 C   0  0  0  0  0  0  0  0  0  0  0  0
    7.8374   -1.5689   -0.4110 C   0  0  0  0  0  0  0  0  0  0  0  0
  1 22  1  0
  2 10  1  0
  2 15  1  0
  3 14  1  0
  3 19  1  0
  4 14  2  0
  5  8  1  0
  5 15  2  0
  6  7  1  0
  6 12  1  0
  6 14  1  0
  7  9  2  0
  7 11  1  0
  8  9  1  0
  8 10  2  0
 10 13  1  0
 11 13  2  0
 15 16  1  0
 16 17  2  0
 16 18  1  0
 17 20  1  0
 18 21  2  0
 19 23  1  0
 20 22  2  0
 21 22  1  0
M  END
>  <PUBCHEM_COMPOUND_CID>  (1) 
39947

>  <PUBCHEM_CONFORMER_RMSD>  (1) 
0.8

>  <PUBCHEM_CONFORMER_DIVERSEORDER>  (1) 
1
4
15
8
5
9
13
2
17
16
11
14
7
3
6
10
12

>  <PUBCHEM_MMFF94_PARTIAL_CHARGES>  (1) 
28
1 -0.18
10 0.14
11 -0.15
13 -0.15
14 0.66
15 0.43
16 0.05
17 -0.15
18 -0.15
19 0.28
2 -0.28
20 -0.15
21 -0.15
22 0.18
25 0.15
26 0.15
3 -0.43
30 0.15
31 0.15
32 0.15
35 0.15
36 0.15
4 -0.57
5 -0.57
6 0.2
7 -0.14
8 0.23
9 -0.15

>  <PUBCHEM_EFFECTIVE_ROTOR_COUNT>  (1) 
5

>  <PUBCHEM_PHARMACOPHORE_FEATURES>  (1) 
5
1 12 hydrophobe
1 4 acceptor
5 2 5 8 10 15 rings
6 16 17 18 20 21 22 rings
6 7 8 9 10 11 13 rings

>  <PUBCHEM_HEAVY_ATOM_COUNT>  (1) 
23

>  <PUBCHEM_ATOM_DEF_STEREO_COUNT>  (1) 
0

>  <PUBCHEM_ATOM_UDEF_STEREO_COUNT>  (1) 
1

>  <PUBCHEM_BOND_DEF_STEREO_COUNT>  (1) 
0

>  <PUBCHEM_BOND_UDEF_STEREO_COUNT>  (1) 
0

>  <PUBCHEM_ISOTOPIC_ATOM_COUNT>  (1) 
0

>  <PUBCHEM_COMPONENT_COUNT>  (1) 
1

>  <PUBCHEM_CACTVS_TAUTO_COUNT>  (1) 
1

>  <PUBCHEM_CONFORMER_ID>  (1) 
00009C0B00000001

>  <PUBCHEM_MMFF94_ENERGY>  (1) 
45.3506

>  <PUBCHEM_FEATURE_SELFOVERLAP>  (1) 
25.489

>  <PUBCHEM_SHAPE_FINGERPRINT>  (1) 
106641 1 13182730451196792790
10670039 82 16660358156728591925
11524674 6 17275383213971798239
11963148 33 18335976511208102818
12166972 35 18273215326426022513
12236239 1 18059575828214288433
12516196 113 18412542128261538768
12596602 18 16128369432738377911
13288520 33 18408605855570357037
13402501 40 18341618092495219702
13533116 47 17275107232252522210
13668630 136 18407760343686646351
13673619 4 18059859433595167064
13685833 64 18273216387641139898
13862211 1 18260543415970437154
13885169 127 18272090453248120961
14123256 34 18334019401493776891
14216079 64 18341332219102576710
14294032 229 17315348134165112901
15131766 46 16054319592013242641
15183329 4 18040432188023146795
15788980 27 18060135475084690501
17492 89 18049445035065644391
17844677 252 18412549820917315529
18222031 100 18333448750949005872
19141452 34 18131345353714885503
19784866 240 18412552010875616369
20105231 36 17894640270986527075
2026 5 18272371919150484390
20554085 129 18050572047913011444
21033648 29 17631432549893622073
21130935 74 18200877404636981131
21150785 3 14779550101752604003
21267235 1 18261115192909813577
21682296 61 18343589512253163223
22224240 67 16415472741216301814
2297311 6 18260830384658965493
23016692 55 18260269642223509380
23035841 295 18260830384231548147
23522609 53 18120407352113486604
23559900 14 18337107985538546089
23569943 247 18195530281263670594
239999 70 18410009962094470520
2838139 119 11170203094200462546
29717793 49 18410572929322901541
3004659 81 17967250910144539244
335352 9 18333729105477101757
3411729 13 17972309883614914136
4214541 1 18260543447000877325
4340502 62 14979961384386878669
465052 167 18272374178787448110
542803 24 14273448185363983389
543368 44 10809337841841017351
5718773 13 18267304228062874494
5758199 1 9511462229890718981
59682541 35 18131340901163284034
59755656 215 18333731295103840075
6138700 20 18335422343929187778

>  <PUBCHEM_SHAPE_MULTIPOLES>  (1) 
452.61
19.55
1.92
0.98
1.45
0.49
-0.32
-13.53
2.62
-0.98
0.34
-1.06
0.01
1.41

>  <PUBCHEM_SHAPE_SELFOVERLAP>  (1) 
975.314

>  <PUBCHEM_SHAPE_VOLUME>  (1) 
252

>  <PUBCHEM_COORDINATE_TYPE>  (1) 
2
5
10

$$$$
