39941
     RDKit          3D

 21 23  0  0  1  0  0  0  0  0999 V2000
   -7.2831    0.6113    0.1048 Cl  0  0  0  0  0  0  0  0  0  0  0  0
   -0.9273   -1.3347    0.1861 O   0  0  0  0  0  0  0  0  0  0  0  0
    6.2685    1.2137    0.5065 O   0  0  0  0  0  0  0  0  0  0  0  0
    4.2362    1.3874    1.4943 O   0  0  0  0  0  0  0  0  0  0  0  0
   -0.4389    0.8172   -0.3313 N   0  0  0  0  0  0  0  0  0  0  0  0
    4.4889   -0.1499   -0.3869 C   0  0  0  0  0  0  0  0  0  0  0  0
    3.0506   -0.5169   -0.2226 C   0  0  0  0  0  0  0  0  0  0  0  0
    0.7251    0.0940   -0.2316 C   0  0  0  0  0  0  0  0  0  0  0  0
    2.0669    0.4683   -0.3920 C   0  0  0  0  0  0  0  0  0  0  0  0
    0.4300   -1.2238    0.0853 C   0  0  0  0  0  0  0  0  0  0  0  0
    2.7091   -1.8367    0.0974 C   0  0  0  0  0  0  0  0  0  0  0  0
    1.3754   -2.2267    0.2610 C   0  0  0  0  0  0  0  0  0  0  0  0
    4.8427    0.3690   -1.7945 C   0  0  0  0  0  0  0  0  0  0  0  0
   -1.3718   -0.0737   -0.0760 C   0  0  0  0  0  0  0  0  0  0  0  0
   -2.7983    0.0916   -0.0323 C   0  0  0  0  0  0  0  0  0  0  0  0
    4.9558    0.8868    0.6398 C   0  0  0  0  0  0  0  0  0  0  0  0
   -3.6236   -0.9972    0.2631 C   0  0  0  0  0  0  0  0  0  0  0  0
   -3.3693    1.3420   -0.2852 C   0  0  0  0  0  0  0  0  0  0  0  0
   -5.0086   -0.8369    0.3051 C   0  0  0  0  0  0  0  0  0  0  0  0
   -4.7543    1.5023   -0.2429 C   0  0  0  0  0  0  0  0  0  0  0  0
   -5.5740    0.4129    0.0520 C   0  0  0  0  0  0  0  0  0  0  0  0
  1 21  1  0
  2 10  1  0
  2 14  1  0
  3 16  1  0
  4 16  2  0
  5  8  1  0
  5 14  2  0
  6  7  1  0
  6 13  1  0
  6 16  1  0
  7  9  2  0
  7 11  1  0
  8  9  1  0
  8 10  2  0
 10 12  1  0
 11 12  2  0
 14 15  1  0
 15 17  2  0
 15 18  1  0
 17 19  1  0
 18 20  2  0
 19 21  2  0
 20 21  1  0
M  END
>  <PUBCHEM_COMPOUND_CID>  (1) 
39941

>  <PUBCHEM_CONFORMER_RMSD>  (1) 
0.6

>  <PUBCHEM_CONFORMER_DIVERSEORDER>  (1) 
1
4
2
3

>  <PUBCHEM_MMFF94_PARTIAL_CHARGES>  (1) 
28
1 -0.18
10 0.14
11 -0.15
12 -0.15
14 0.43
15 0.05
16 0.66
17 -0.15
18 -0.15
19 -0.15
2 -0.28
20 -0.15
21 0.18
23 0.15
24 0.15
25 0.15
29 0.15
3 -0.65
30 0.15
31 0.15
32 0.15
33 0.5
4 -0.57
5 -0.57
6 0.2
7 -0.14
8 0.23
9 -0.15

>  <PUBCHEM_EFFECTIVE_ROTOR_COUNT>  (1) 
3

>  <PUBCHEM_PHARMACOPHORE_FEATURES>  (1) 
7
1 13 hydrophobe
1 3 acceptor
1 4 acceptor
3 3 4 16 anion
5 2 5 8 10 14 rings
6 15 17 18 19 20 21 rings
6 7 8 9 10 11 12 rings

>  <PUBCHEM_HEAVY_ATOM_COUNT>  (1) 
21

>  <PUBCHEM_ATOM_DEF_STEREO_COUNT>  (1) 
0

>  <PUBCHEM_ATOM_UDEF_STEREO_COUNT>  (1) 
1

>  <PUBCHEM_BOND_DEF_STEREO_COUNT>  (1) 
0

>  <PUBCHEM_BOND_UDEF_STEREO_COUNT>  (1) 
0

>  <PUBCHEM_ISOTOPIC_ATOM_COUNT>  (1) 
0

>  <PUBCHEM_COMPONENT_COUNT>  (1) 
1

>  <PUBCHEM_CACTVS_TAUTO_COUNT>  (1) 
1

>  <PUBCHEM_CONFORMER_ID>  (1) 
00009C0500000001

>  <PUBCHEM_MMFF94_ENERGY>  (1) 
44.8714

>  <PUBCHEM_FEATURE_SELFOVERLAP>  (1) 
35.698

>  <PUBCHEM_SHAPE_FINGERPRINT>  (1) 
10 15 18113337539379783608
10366900 7 14117799111570205999
10670039 82 18188788145398387220
11128504 68 16056878043869420528
11595378 159 17313933139333939313
12107183 9 17471009177720922929
12236239 1 17989487399198033351
12516196 113 18342176666061212065
12730499 353 18272658939266940542
12916748 109 18202004308837969176
13073987 5 18262520282797048865
13533116 47 18340487751112040963
13955234 65 18270116799674933202
14461889 52 18113624503889253475
14528608 73 18343300366232506463
15048467 5 18343864420272019705
15183329 4 11095889259056798535
15196674 1 18335422322696853479
15788980 27 12324243875425831659
16079462 125 18261381227263148781
17844677 252 17560529416825484641
18222031 100 9655578517699898118
200 152 18271805697306467763
20281389 69 18334294236899589989
20397935 70 14129055890040027936
20645477 70 18268432334617419959
21033648 29 18200301247389820352
21150785 3 16128369398304526789
21267235 1 18264215716183255647
21452121 103 18409724028910454426
22079108 93 18412821408398834039
221357 26 17275107215120360256
22224240 67 18261106404557568963
23035841 295 10231758890216923661
23402539 116 16515682256414269967
23559900 14 18410575076073150850
2916195 48 18271238417435435040
29717793 49 16343710902119236740
300161 21 18335698326301746111
34797466 226 17489591168642780013
34934 24 18411976970636943935
3545911 37 18408888417126216863
4072396 5 18040427794192611626
4073 2 18040723588179298667
4340502 62 16370445548776078298
5104073 3 18261676948508918955
542803 24 17530969089830860639
5486654 2 18408610270374763783
59682541 35 18261677081679428153
59682541 52 17059792052693303532
67856867 119 18042128816022211549

>  <PUBCHEM_SHAPE_MULTIPOLES>  (1) 
411.45
15.79
1.69
0.91
9.13
0.54
-0.09
-6.19
0.81
-0.55
0.2
-1.32
-0.25
0.64

>  <PUBCHEM_SHAPE_SELFOVERLAP>  (1) 
899.63

>  <PUBCHEM_SHAPE_VOLUME>  (1) 
225.5

>  <PUBCHEM_COORDINATE_TYPE>  (1) 
2
5
10

$$$$
