39954
     RDKit          3D

 22 24  0  0  1  0  0  0  0  0999 V2000
   -2.3799   -2.6445   -0.1910 Cl  0  0  0  0  0  0  0  0  0  0  0  0
   -7.1915   -0.2602    0.0397 Cl  0  0  0  0  0  0  0  0  0  0  0  0
   -0.7924    1.3881   -0.4478 O   0  0  0  0  0  0  0  0  0  0  0  0
    6.3651   -1.2774   -0.2394 O   0  0  0  0  0  0  0  0  0  0  0  0
    4.3275   -1.6198   -1.1707 O   0  0  0  0  0  0  0  0  0  0  0  0
   -0.3334   -0.6191    0.4994 N   0  0  0  0  0  0  0  0  0  0  0  0
    4.6080    0.2663    0.3558 C   0  0  0  0  0  0  0  0  0  0  0  0
    3.1745    0.6130    0.1198 C   0  0  0  0  0  0  0  0  0  0  0  0
    0.8405    0.0511    0.2537 C   0  0  0  0  0  0  0  0  0  0  0  0
    2.1773   -0.3021    0.4873 C   0  0  0  0  0  0  0  0  0  0  0  0
    0.5635    1.2802   -0.3265 C   0  0  0  0  0  0  0  0  0  0  0  0
    2.8511    1.8441   -0.4638 C   0  0  0  0  0  0  0  0  0  0  0  0
    1.5227    2.2119   -0.7038 C   0  0  0  0  0  0  0  0  0  0  0  0
    4.9585    0.0415    1.8398 C   0  0  0  0  0  0  0  0  0  0  0  0
   -1.2541    0.2142    0.0670 C   0  0  0  0  0  0  0  0  0  0  0  0
   -2.6831    0.0644    0.0581 C   0  0  0  0  0  0  0  0  0  0  0  0
    5.0568   -0.9655   -0.4368 C   0  0  0  0  0  0  0  0  0  0  0  0
   -3.3011   -1.1866   -0.0546 C   0  0  0  0  0  0  0  0  0  0  0  0
   -3.4755    1.2129    0.1655 C   0  0  0  0  0  0  0  0  0  0  0  0
   -4.6924   -1.2872   -0.0596 C   0  0  0  0  0  0  0  0  0  0  0  0
   -4.8667    1.1124    0.1602 C   0  0  0  0  0  0  0  0  0  0  0  0
   -5.4752   -0.1377    0.0477 C   0  0  0  0  0  0  0  0  0  0  0  0
  1 18  1  0
  2 22  1  0
  3 11  1  0
  3 15  1  0
  4 17  1  0
  5 17  2  0
  6  9  1  0
  6 15  2  0
  7  8  1  0
  7 14  1  0
  7 17  1  0
  8 10  2  0
  8 12  1  0
  9 10  1  0
  9 11  2  0
 11 13  1  0
 12 13  2  0
 15 16  1  0
 16 18  2  0
 16 19  1  0
 18 20  1  0
 19 21  2  0
 20 22  2  0
 21 22  1  0
M  END
>  <PUBCHEM_COMPOUND_CID>  (1) 
39954

>  <PUBCHEM_CONFORMER_RMSD>  (1) 
0.6

>  <PUBCHEM_CONFORMER_DIVERSEORDER>  (1) 
3
26
7
9
27
18
34
33
24
29
15
1
19
8
32
25
12
20
14
23
4
21
30
6
10
31
28
13
17
2
22
5
11
16

>  <PUBCHEM_MMFF94_PARTIAL_CHARGES>  (1) 
28
1 -0.18
10 -0.15
11 0.14
12 -0.15
13 -0.15
15 0.43
16 0.05
17 0.66
18 0.18
19 -0.15
2 -0.18
20 -0.15
21 -0.15
22 0.18
24 0.15
25 0.15
26 0.15
3 -0.28
30 0.15
31 0.15
32 0.15
33 0.5
4 -0.65
5 -0.57
6 -0.57
7 0.2
8 -0.14
9 0.23

>  <PUBCHEM_EFFECTIVE_ROTOR_COUNT>  (1) 
3

>  <PUBCHEM_PHARMACOPHORE_FEATURES>  (1) 
7
1 14 hydrophobe
1 4 acceptor
1 5 acceptor
3 4 5 17 anion
5 3 6 9 11 15 rings
6 16 18 19 20 21 22 rings
6 8 9 10 11 12 13 rings

>  <PUBCHEM_HEAVY_ATOM_COUNT>  (1) 
22

>  <PUBCHEM_ATOM_DEF_STEREO_COUNT>  (1) 
0

>  <PUBCHEM_ATOM_UDEF_STEREO_COUNT>  (1) 
1

>  <PUBCHEM_BOND_DEF_STEREO_COUNT>  (1) 
0

>  <PUBCHEM_BOND_UDEF_STEREO_COUNT>  (1) 
0

>  <PUBCHEM_ISOTOPIC_ATOM_COUNT>  (1) 
0

>  <PUBCHEM_COMPONENT_COUNT>  (1) 
1

>  <PUBCHEM_CACTVS_TAUTO_COUNT>  (1) 
1

>  <PUBCHEM_CONFORMER_ID>  (1) 
00009C1200000003

>  <PUBCHEM_MMFF94_ENERGY>  (1) 
49.2418

>  <PUBCHEM_FEATURE_SELFOVERLAP>  (1) 
35.698

>  <PUBCHEM_SHAPE_FINGERPRINT>  (1) 
11405975 8 18336264655946004289
11524674 6 17203607081788217791
12107183 9 17833266415937916065
12166972 35 18343303677816419977
12236239 1 18409730694857771249
12596602 18 14620502450460256086
12730499 353 8214144088170518208
13167823 11 18335983168068508707
13288520 33 18410294705340924189
13533116 47 17346602941610413078
13583140 156 17059765749559019850
13675066 3 18131346427678151256
13685833 64 18410578383224478979
13862211 1 18186516583891052568
14341114 176 18412267254591338433
15042514 8 18265899241207297115
15183329 4 18260265239845263523
15196674 1 18263645220282946921
15788980 27 17917991693686931437
17349148 13 18202569483689905893
17492 89 18120659290525853147
17844677 252 18342745104350088544
1813 80 17531248352936532508
18222031 100 18333450928766404696
19141452 34 18342174496380086855
19489759 90 17632296766101326521
200 152 18343864433162326217
20028762 73 18412542132530489639
20612939 158 17894919563054130133
20645477 70 18334013930148566340
21033648 29 17274240778182045753
21130935 74 17988926682496308679
21150785 3 16298393478166260838
21267235 1 18334300877134930793
21641784 216 16081655461345110974
21859007 373 18042945637234819333
23402539 116 18273208725625251421
23522609 53 17824571623899008532
23559900 14 18270396216997876992
23569917 315 18341619248353664511
23569943 247 18048600322030300370
239999 70 18413671310325021298
29717793 49 18411699902618179357
3004659 81 18259706709618918300
335352 9 18408886243941402191
338550 245 18339645645627812070
3411729 13 18191018114110045384
34797466 226 17560528407819724628
351380 3 17967247585866115722
3545911 37 18410855456418731059
3633792 109 18341889646592822373
404807 14 16836874654995002207
4072396 5 13039185879849340388
4073 2 17969507193951379320
4214541 1 18410575085159171945
4325135 7 18187087274261959700
4340502 62 15698282209295703588
465052 167 18409172116848774046
5104073 3 18264209274001116977
559249 180 18409446960438041063
59755656 215 18261108544010659311
59755656 520 16950558913995347811
6138700 20 18335704884511585418
633830 44 17313945358584026497
67856867 119 18193272120597774176
8863177 126 17387148652686819667
9709674 26 18190747637636640115
9971528 1 18335137626690064140
9981440 41 17109879492304554657

>  <PUBCHEM_SHAPE_MULTIPOLES>  (1) 
433.9
15.31
2.01
0.9
4.3
0.28
0.2
4.11
0.87
-0.15
-0.5
-1.13
0.05
0.08

>  <PUBCHEM_SHAPE_SELFOVERLAP>  (1) 
939.812

>  <PUBCHEM_SHAPE_VOLUME>  (1) 
240.7

>  <PUBCHEM_COORDINATE_TYPE>  (1) 
2
5
10

$$$$
