39956
     RDKit          3D

 21 23  0  0  1  0  0  0  0  0999 V2000
   -2.7013   -2.6794   -0.1863 Cl  0  0  0  0  0  0  0  0  0  0  0  0
   -1.1466    1.3661   -0.4457 O   0  0  0  0  0  0  0  0  0  0  0  0
    6.0327   -1.2404   -0.2434 O   0  0  0  0  0  0  0  0  0  0  0  0
    3.9970   -1.6004   -1.1720 O   0  0  0  0  0  0  0  0  0  0  0  0
   -0.6700   -0.6365    0.5027 N   0  0  0  0  0  0  0  0  0  0  0  0
    4.2637    0.2893    0.3526 C   0  0  0  0  0  0  0  0  0  0  0  0
    2.8272    0.6240    0.1180 C   0  0  0  0  0  0  0  0  0  0  0  0
    0.4981    0.0431    0.2550 C   0  0  0  0  0  0  0  0  0  0  0  0
    1.8379   -0.2989    0.4874 C   0  0  0  0  0  0  0  0  0  0  0  0
    0.2103    1.2694   -0.3258 C   0  0  0  0  0  0  0  0  0  0  0  0
    2.4930    1.8520   -0.4663 C   0  0  0  0  0  0  0  0  0  0  0  0
    1.1614    2.2086   -0.7050 C   0  0  0  0  0  0  0  0  0  0  0  0
    4.6178    0.0686    1.8364 C   0  0  0  0  0  0  0  0  0  0  0  0
   -1.5981    0.1889    0.0707 C   0  0  0  0  0  0  0  0  0  0  0  0
   -3.0257    0.0273    0.0635 C   0  0  0  0  0  0  0  0  0  0  0  0
    4.7217   -0.9394   -0.4395 C   0  0  0  0  0  0  0  0  0  0  0  0
   -3.6336   -1.2291   -0.0471 C   0  0  0  0  0  0  0  0  0  0  0  0
   -3.8277    1.1693    0.1709 C   0  0  0  0  0  0  0  0  0  0  0  0
   -5.0240   -1.3413   -0.0505 C   0  0  0  0  0  0  0  0  0  0  0  0
   -5.2180    1.0571    0.1676 C   0  0  0  0  0  0  0  0  0  0  0  0
   -5.8161   -0.1982    0.0567 C   0  0  0  0  0  0  0  0  0  0  0  0
  1 17  1  0
  2 10  1  0
  2 14  1  0
  3 16  1  0
  4 16  2  0
  5  8  1  0
  5 14  2  0
  6  7  1  0
  6 13  1  0
  6 16  1  0
  7  9  2  0
  7 11  1  0
  8  9  1  0
  8 10  2  0
 10 12  1  0
 11 12  2  0
 14 15  1  0
 15 17  2  0
 15 18  1  0
 17 19  1  0
 18 20  2  0
 19 21  2  0
 20 21  1  0
M  END
>  <PUBCHEM_COMPOUND_CID>  (1) 
39956

>  <PUBCHEM_CONFORMER_RMSD>  (1) 
0.6

>  <PUBCHEM_CONFORMER_DIVERSEORDER>  (1) 
5
25
9
3
26
7
30
32
28
14
24
1
4
18
23
15
22
11
2
12
27
21
10
31
20
17
29
16
19
13
6
8

>  <PUBCHEM_MMFF94_PARTIAL_CHARGES>  (1) 
28
1 -0.18
10 0.14
11 -0.15
12 -0.15
14 0.43
15 0.05
16 0.66
17 0.18
18 -0.15
19 -0.15
2 -0.28
20 -0.15
21 -0.15
23 0.15
24 0.15
25 0.15
29 0.15
3 -0.65
30 0.15
31 0.15
32 0.15
33 0.5
4 -0.57
5 -0.57
6 0.2
7 -0.14
8 0.23
9 -0.15

>  <PUBCHEM_EFFECTIVE_ROTOR_COUNT>  (1) 
3

>  <PUBCHEM_PHARMACOPHORE_FEATURES>  (1) 
7
1 13 hydrophobe
1 3 acceptor
1 4 acceptor
3 3 4 16 anion
5 2 5 8 10 14 rings
6 15 17 18 19 20 21 rings
6 7 8 9 10 11 12 rings

>  <PUBCHEM_HEAVY_ATOM_COUNT>  (1) 
21

>  <PUBCHEM_ATOM_DEF_STEREO_COUNT>  (1) 
0

>  <PUBCHEM_ATOM_UDEF_STEREO_COUNT>  (1) 
1

>  <PUBCHEM_BOND_DEF_STEREO_COUNT>  (1) 
0

>  <PUBCHEM_BOND_UDEF_STEREO_COUNT>  (1) 
0

>  <PUBCHEM_ISOTOPIC_ATOM_COUNT>  (1) 
0

>  <PUBCHEM_COMPONENT_COUNT>  (1) 
1

>  <PUBCHEM_CACTVS_TAUTO_COUNT>  (1) 
1

>  <PUBCHEM_CONFORMER_ID>  (1) 
00009C1400000005

>  <PUBCHEM_MMFF94_ENERGY>  (1) 
48.4571

>  <PUBCHEM_FEATURE_SELFOVERLAP>  (1) 
35.698

>  <PUBCHEM_SHAPE_FINGERPRINT>  (1) 
10670039 82 11095614445885990890
11405975 8 18338800121343833425
11524674 6 17203605973802771430
12107183 9 17833266420364706673
12236239 1 18412828006006807345
12553582 1 18186789275469862098
12555020 224 18410003365230854719
12596602 18 14476950212232352478
13167823 11 18335983172542830563
13288520 33 18410576180317615365
13533116 47 17274826818217298766
13583140 156 17059765745063592523
13675066 3 18131346427414407152
13862211 1 18186514401852610851
14341114 176 18341898506192540737
14420673 8 18410016494197116687
15042514 8 18266181815716767059
15099037 51 18407762529925070983
15183329 4 18260264131864903575
15196674 1 18335984272038776957
15537594 2 17895193277156688866
15788980 27 17918273168827146405
15848702 151 18412265029761128559
17349148 13 18202570587686340061
17492 89 18120659290652473171
17844677 252 18343308062835370265
1813 80 17603586326613165324
18186145 218 17530958137701243861
18222031 100 18333731308420920848
19141452 34 18341893008629172591
19489759 90 17632296761843295481
200 152 18272088318517350065
20374829 77 18335702715483957542
20612939 158 17822297923904116717
20645477 70 18261674869565593780
21033648 29 17345736521867870417
21267235 1 18334301989605430459
21641784 216 16153995625576397030
21709351 56 18260542329945299549
21859007 373 18042944533475723013
221490 88 18117567446500361371
23402539 116 18201996634496360805
23522609 53 17897473647183128172
23557571 272 18270966743426563148
23559900 14 18271241724449658600
239999 70 18413671310256449530
26918003 58 17918274242568970394
29717793 49 18411696608594489245
3004659 81 18187086161411684100
335352 9 18408886226856582493
338550 245 18339364170556168854
3411729 13 18191018114067847376
351380 3 17967247585744828914
404807 14 16765381106222095127
4073 2 18115310119649348458
4214541 1 18410856564541561233
4325135 7 18187087274272496204
4340502 62 15482672385519514901
465052 167 18410860966735483262
5104073 3 18335985388899268249
542803 24 13840262585377958813
559249 180 18409728439804774983
5924683 9 17559665317246412047
59755656 215 18339361864137378279
6138700 20 18335704880174452602
633830 44 17313664974724259273
67856867 119 18192990645599971024
8863177 126 17387148657108432987
960060 61 17676494960178844980
9709674 26 18190747637863480427
9841814 1 17822562902560510648
9971528 1 18408321116260694076
9981440 41 17037540432127757473

>  <PUBCHEM_SHAPE_MULTIPOLES>  (1) 
411.45
13.27
2.08
0.91
0.13
0.33
0.21
4.01
0.79
0.42
-0.52
-1.09
0.04
0.09

>  <PUBCHEM_SHAPE_SELFOVERLAP>  (1) 
900.785

>  <PUBCHEM_SHAPE_VOLUME>  (1) 
224.5

>  <PUBCHEM_COORDINATE_TYPE>  (1) 
2
5
10

$$$$
