39950
     RDKit          3D

 20 22  0  0  1  0  0  0  0  0999 V2000
   -0.8394    0.5679   -0.2424 O   0  0  0  0  0  0  0  0  0  0  0  0
    5.7810    1.3888    0.4696 O   0  0  0  0  0  0  0  0  0  0  0  0
    3.7632    1.4086    1.5010 O   0  0  0  0  0  0  0  0  0  0  0  0
   -1.3054   -1.5983    0.2341 N   0  0  0  0  0  0  0  0  0  0  0  0
    4.0738   -0.0648   -0.4224 C   0  0  0  0  0  0  0  0  0  0  0  0
    2.6653   -0.5276   -0.2386 C   0  0  0  0  0  0  0  0  0  0  0  0
    0.3428   -0.1124   -0.1773 C   0  0  0  0  0  0  0  0  0  0  0  0
    1.6223    0.3964   -0.3634 C   0  0  0  0  0  0  0  0  0  0  0  0
    0.0538   -1.4372    0.1147 C   0  0  0  0  0  0  0  0  0  0  0  0
    2.4174   -1.8741    0.0554 C   0  0  0  0  0  0  0  0  0  0  0  0
    1.1108   -2.3505    0.2364 C   0  0  0  0  0  0  0  0  0  0  0  0
    4.3629    0.5086   -1.8235 C   0  0  0  0  0  0  0  0  0  0  0  0
   -1.7741   -0.3896    0.0142 C   0  0  0  0  0  0  0  0  0  0  0  0
    4.4949    0.9754    0.6203 C   0  0  0  0  0  0  0  0  0  0  0  0
   -3.1355    0.0702    0.0084 C   0  0  0  0  0  0  0  0  0  0  0  0
   -3.4229    1.4139   -0.2479 C   0  0  0  0  0  0  0  0  0  0  0  0
   -4.1805   -0.8233    0.2601 C   0  0  0  0  0  0  0  0  0  0  0  0
   -4.7444    1.8602   -0.2526 C   0  0  0  0  0  0  0  0  0  0  0  0
   -5.5020   -0.3769    0.2552 C   0  0  0  0  0  0  0  0  0  0  0  0
   -5.7841    0.9648   -0.0012 C   0  0  0  0  0  0  0  0  0  0  0  0
  1  7  1  0
  1 13  1  0
  2 14  1  0
  3 14  2  0
  4  9  1  0
  4 13  2  0
  5  6  1  0
  5 12  1  0
  5 14  1  0
  6  8  1  0
  6 10  2  0
  7  8  2  0
  7  9  1  0
  9 11  2  0
 10 11  1  0
 13 15  1  0
 15 16  2  0
 15 17  1  0
 16 18  1  0
 17 19  2  0
 18 20  2  0
 19 20  1  0
M  END
>  <PUBCHEM_COMPOUND_CID>  (1) 
39950

>  <PUBCHEM_CONFORMER_RMSD>  (1) 
0.6

>  <PUBCHEM_CONFORMER_DIVERSEORDER>  (1) 
1
5
6
2
4
7
3

>  <PUBCHEM_MMFF94_PARTIAL_CHARGES>  (1) 
28
1 -0.28
10 -0.15
11 -0.15
13 0.43
14 0.66
15 0.05
16 -0.15
17 -0.15
18 -0.15
19 -0.15
2 -0.65
20 -0.15
22 0.15
23 0.15
24 0.15
28 0.15
29 0.15
3 -0.57
30 0.15
31 0.15
32 0.15
33 0.5
4 -0.57
5 0.2
6 -0.14
7 0.14
8 -0.15
9 0.23

>  <PUBCHEM_EFFECTIVE_ROTOR_COUNT>  (1) 
3

>  <PUBCHEM_PHARMACOPHORE_FEATURES>  (1) 
7
1 12 hydrophobe
1 2 acceptor
1 3 acceptor
3 2 3 14 anion
5 1 4 7 9 13 rings
6 15 16 17 18 19 20 rings
6 6 7 8 9 10 11 rings

>  <PUBCHEM_HEAVY_ATOM_COUNT>  (1) 
20

>  <PUBCHEM_ATOM_DEF_STEREO_COUNT>  (1) 
0

>  <PUBCHEM_ATOM_UDEF_STEREO_COUNT>  (1) 
1

>  <PUBCHEM_BOND_DEF_STEREO_COUNT>  (1) 
0

>  <PUBCHEM_BOND_UDEF_STEREO_COUNT>  (1) 
0

>  <PUBCHEM_ISOTOPIC_ATOM_COUNT>  (1) 
0

>  <PUBCHEM_COMPONENT_COUNT>  (1) 
1

>  <PUBCHEM_CACTVS_TAUTO_COUNT>  (1) 
1

>  <PUBCHEM_CONFORMER_ID>  (1) 
00009C0E00000001

>  <PUBCHEM_MMFF94_ENERGY>  (1) 
44.0733

>  <PUBCHEM_FEATURE_SELFOVERLAP>  (1) 
35.698

>  <PUBCHEM_SHAPE_FINGERPRINT>  (1) 
10 15 18187366574940856528
10670039 82 18189351099514952460
11089746 13 18131061624106911524
11128504 68 15913606181206846089
11543360 7 16271921644821509332
11595378 159 17313653859243791881
12107183 9 17398670108737926345
12236239 1 17989488498683280855
12403259 415 18412548695287360393
12633257 1 16515685571654216632
12670546 56 15068334614152192797
12730499 353 18272661138010640710
12916748 109 18342744013401677169
12969540 114 17917702505043863989
13685833 64 9655570829750733709
13955234 65 18268148665070845578
14251764 18 18187639207571493066
14528608 73 18343581837183197239
15196674 1 18335703789347237247
15536298 74 18337675209084536687
15788980 27 12324243875615703227
1601671 61 18187368727009602676
17834072 33 18202280290894386751
18222031 100 9439405726832590934
20645477 56 18342457071031708535
20645477 70 18200316494028322958
21033648 29 18272361014264624552
21150785 3 15913319226152740829
21452121 103 18337666430450958666
21618674 25 18409728460878860514
23227448 37 18129094687835603525
23402539 116 18410851084084066703
23402655 69 18341894052749239719
23559900 14 18041569022585156082
245318 6 16591429935496817220
2838139 119 17988630944064992584
2916195 48 18343014531906357352
293599 30 18412546517707247398
300161 21 18334571318388104815
34797466 226 17489872656746972725
34934 24 18341608226422181359
350125 39 18262518066514913174
3545911 37 18409170987345974743
4340502 62 16877666747059577787
465052 167 8358257064269326928
474 4 17967823738137548087
495365 180 17846492635046262686
4990 188 17988651774302638774
5104073 3 18261678052436898315
542803 24 17603309254046380925
59682541 52 17131848529834012684
59755656 215 18338804416759801750
67856867 119 18263355898058751595
77779 3 18335705975696613479
7808743 9 18192149519942895312
960060 61 13542463180967658232

>  <PUBCHEM_SHAPE_MULTIPOLES>  (1) 
389
13.13
1.92
0.93
4.79
0.51
-0.11
-6.64
0.43
-0.28
0.21
-1.27
-0.3
0.64

>  <PUBCHEM_SHAPE_SELFOVERLAP>  (1) 
860.639

>  <PUBCHEM_SHAPE_VOLUME>  (1) 
209.8

>  <PUBCHEM_COORDINATE_TYPE>  (1) 
2
5
10

$$$$
