3995
     RDKit          3D

 20 20  0  0  1  0  0  0  0  0999 V2000
   -3.1194   -3.3269    0.7149 Cl  0  0  0  0  0  0  0  0  0  0  0  0
   -1.7749    2.8229   -0.4086 F   0  0  0  0  0  0  0  0  0  0  0  0
   -3.7241    1.9856   -0.8596 F   0  0  0  0  0  0  0  0  0  0  0  0
   -3.0908    2.2061    1.2090 F   0  0  0  0  0  0  0  0  0  0  0  0
    1.3976   -0.6906   -2.2389 O   0  0  0  0  0  0  0  0  0  0  0  0
    3.6022   -0.4394   -0.4057 N   0  0  0  0  0  0  0  0  0  0  0  0
   -4.1586   -0.4812    0.6966 N   0  0  0  0  0  0  0  0  0  0  0  0
    4.4952    0.3507    0.4483 C   0  0  0  0  0  0  0  0  0  0  0  0
    2.2196   -0.2738    0.0096 C   0  0  0  0  0  0  0  0  0  0  0  0
    1.2808   -1.1010   -0.8772 C   0  0  0  0  0  0  0  0  0  0  0  0
    5.9356    0.1518   -0.0351 C   0  0  0  0  0  0  0  0  0  0  0  0
    4.1010    1.8269    0.3330 C   0  0  0  0  0  0  0  0  0  0  0  0
    4.3573   -0.1197    1.9011 C   0  0  0  0  0  0  0  0  0  0  0  0
   -0.1637   -0.9395   -0.4570 C   0  0  0  0  0  0  0  0  0  0  0  0
   -0.7241    0.3261   -0.4357 C   0  0  0  0  0  0  0  0  0  0  0  0
   -0.8942   -2.0611   -0.1045 C   0  0  0  0  0  0  0  0  0  0  0  0
   -2.0563    0.4745   -0.0499 C   0  0  0  0  0  0  0  0  0  0  0  0
   -2.8074   -0.6448    0.3086 C   0  0  0  0  0  0  0  0  0  0  0  0
   -2.2264   -1.9127    0.2812 C   0  0  0  0  0  0  0  0  0  0  0  0
   -2.6495    1.8460   -0.0301 C   0  0  0  0  0  0  0  0  0  0  0  0
  1 19  1  0
  2 20  1  0
  3 20  1  0
  4 20  1  0
  5 10  1  0
  6  8  1  0
  6  9  1  0
  7 18  1  0
  8 11  1  0
  8 12  1  0
  8 13  1  0
  9 10  1  0
 10 14  1  0
 14 15  2  0
 14 16  1  0
 15 17  1  0
 16 19  2  0
 17 18  2  0
 17 20  1  0
 18 19  1  0
M  END
>  <PUBCHEM_COMPOUND_CID>  (1) 
3995

>  <PUBCHEM_CONFORMER_RMSD>  (1) 
0.8

>  <PUBCHEM_CONFORMER_DIVERSEORDER>  (1) 
1
26
14
13
9
30
20
29
7
21
15
19
4
25
6
10
23
11
24
28
17
2
18
16
22
12
8
3
27
5

>  <PUBCHEM_MMFF94_PARTIAL_CHARGES>  (1) 
23
1 -0.18
10 0.42
14 -0.14
15 -0.15
16 -0.15
17 -0.14
18 0.1
19 0.18
2 -0.34
20 1.16
23 0.36
3 -0.34
34 0.15
35 0.15
36 0.4
37 0.4
38 0.4
4 -0.34
5 -0.68
6 -0.9
7 -0.9
8 0.27
9 0.27

>  <PUBCHEM_EFFECTIVE_ROTOR_COUNT>  (1) 
5

>  <PUBCHEM_PHARMACOPHORE_FEATURES>  (1) 
8
1 5 acceptor
1 5 donor
1 6 cation
1 6 donor
1 7 cation
1 7 donor
4 8 11 12 13 hydrophobe
6 14 15 16 17 18 19 rings

>  <PUBCHEM_HEAVY_ATOM_COUNT>  (1) 
20

>  <PUBCHEM_ATOM_DEF_STEREO_COUNT>  (1) 
0

>  <PUBCHEM_ATOM_UDEF_STEREO_COUNT>  (1) 
1

>  <PUBCHEM_BOND_DEF_STEREO_COUNT>  (1) 
0

>  <PUBCHEM_BOND_UDEF_STEREO_COUNT>  (1) 
0

>  <PUBCHEM_ISOTOPIC_ATOM_COUNT>  (1) 
0

>  <PUBCHEM_COMPONENT_COUNT>  (1) 
1

>  <PUBCHEM_CACTVS_TAUTO_COUNT>  (1) 
1

>  <PUBCHEM_CONFORMER_ID>  (1) 
00000F9B00000001

>  <PUBCHEM_MMFF94_ENERGY>  (1) 
50.1194

>  <PUBCHEM_FEATURE_SELFOVERLAP>  (1) 
40.598

>  <PUBCHEM_SHAPE_FINGERPRINT>  (1) 
10319926 262 18411691072698467746
10366900 7 18270672177352637018
10608611 8 18343023259554014462
10646746 165 18413390938890979726
11595378 159 17894630331788131300
12077114 3 18342453742643011798
12107183 9 17900810562399803474
12236239 1 17385724716319779174
12390115 104 18128553586613315265
12403814 3 18059012916356715383
12507560 40 18341334409952590246
12596602 18 17386008420463469192
12633257 1 18341058496388621056
12892183 10 18335695105150361122
12930653 34 18410576184434033638
13140716 1 18193572287962773091
13296909 8 18333168375256822959
13583140 156 18131343129497066046
13965767 371 17535752884429699333
14178342 30 18259992565098865086
14289901 80 18334858355152648978
14341114 176 18335143124405945368
14420673 8 18191864519014904058
15042514 8 18265621072664678195
15099037 37 18340208595544134231
15209294 21 18186799158574751458
16945 1 18264228988207076975
17844677 252 18338524144442044090
18915476 22 17131282246442689654
200 152 15140950790441636294
20510252 161 18341055129598276539
20645477 56 18410862027307282711
20645477 70 16845021117650310958
21033648 29 17560790044689940736
21065198 48 18113891685367490962
21065198 57 18411136922921960846
21065199 12 18412260675397825202
21065201 7 18410301302622213766
21650355 55 18263928915705593347
22182937 141 18272377442456489729
22943178 12 18202013100968671646
23402539 116 18340762736894184615
23503958 25 18059005207285818088
23557571 272 18271537445616209454
23559900 14 18270123401424353830
23845131 108 17978811012728569177
27216 239 18202562895141365579
2748010 2 17902255329358559319
4214541 1 18409729560801619944
5104073 3 18338520725005018762
573450 72 18114452423106877778
7097593 13 17970331647458041490
7615 1 17531822358009192686
81228 2 18265638579293754827
90316 7 17676765392489053132
9981440 41 17987788618709204146

>  <PUBCHEM_SHAPE_MULTIPOLES>  (1) 
375.81
10.2
2.81
1.21
12.88
0.43
-0.09
1.22
2.93
-4.37
0.3
0.72
-0.15
0.63

>  <PUBCHEM_SHAPE_SELFOVERLAP>  (1) 
767.128

>  <PUBCHEM_SHAPE_VOLUME>  (1) 
222.5

>  <PUBCHEM_COORDINATE_TYPE>  (1) 
2
5
10

$$$$
