39962
     RDKit          3D

 21 23  0  0  1  0  0  0  0  0999 V2000
   -3.8537   -2.2688   -0.3342 Cl  0  0  0  0  0  0  0  0  0  0  0  0
   -0.6342    0.6464   -0.3176 O   0  0  0  0  0  0  0  0  0  0  0  0
    6.0205    1.3394    0.1784 O   0  0  0  0  0  0  0  0  0  0  0  0
    4.0203    1.6166    1.2071 O   0  0  0  0  0  0  0  0  0  0  0  0
   -1.1670   -1.3815    0.5430 N   0  0  0  0  0  0  0  0  0  0  0  0
    4.2512   -0.1869   -0.4241 C   0  0  0  0  0  0  0  0  0  0  0  0
    2.8306   -0.5578   -0.1482 C   0  0  0  0  0  0  0  0  0  0  0  0
    0.5249   -0.0540   -0.1420 C   0  0  0  0  0  0  0  0  0  0  0  0
    1.8181    0.3665   -0.4273 C   0  0  0  0  0  0  0  0  0  0  0  0
    0.1950   -1.2940    0.3849 C   0  0  0  0  0  0  0  0  0  0  0  0
    2.5411   -1.8203    0.3841 C   0  0  0  0  0  0  0  0  0  0  0  0
    1.2218   -2.2087    0.6589 C   0  0  0  0  0  0  0  0  0  0  0  0
    4.5386    0.1162   -1.9077 C   0  0  0  0  0  0  0  0  0  0  0  0
   -1.5972   -0.2152    0.1143 C   0  0  0  0  0  0  0  0  0  0  0  0
   -2.9420    0.2855    0.0383 C   0  0  0  0  0  0  0  0  0  0  0  0
    4.7234    1.0066    0.4119 C   0  0  0  0  0  0  0  0  0  0  0  0
   -4.0414   -0.5579   -0.1615 C   0  0  0  0  0  0  0  0  0  0  0  0
   -3.1500    1.6633    0.1691 C   0  0  0  0  0  0  0  0  0  0  0  0
   -5.3309   -0.0303   -0.2299 C   0  0  0  0  0  0  0  0  0  0  0  0
   -4.4394    2.1908    0.1010 C   0  0  0  0  0  0  0  0  0  0  0  0
   -5.5298    1.3441   -0.0986 C   0  0  0  0  0  0  0  0  0  0  0  0
  1 17  1  0
  2  8  1  0
  2 14  1  0
  3 16  1  0
  4 16  2  0
  5 10  1  0
  5 14  2  0
  6  7  1  0
  6 13  1  0
  6 16  1  0
  7  9  1  0
  7 11  2  0
  8  9  2  0
  8 10  1  0
 10 12  2  0
 11 12  1  0
 14 15  1  0
 15 17  2  0
 15 18  1  0
 17 19  1  0
 18 20  2  0
 19 21  2  0
 20 21  1  0
M  END
>  <PUBCHEM_COMPOUND_CID>  (1) 
39962

>  <PUBCHEM_CONFORMER_RMSD>  (1) 
0.6

>  <PUBCHEM_CONFORMER_DIVERSEORDER>  (1) 
4
11
28
34
17
18
3
36
8
20
15
12
26
30
31
1
37
22
14
6
25
29
35
21
7
5
13
2
23
32
33
16
27
10
19
24
9

>  <PUBCHEM_MMFF94_PARTIAL_CHARGES>  (1) 
28
1 -0.18
10 0.23
11 -0.15
12 -0.15
14 0.43
15 0.05
16 0.66
17 0.18
18 -0.15
19 -0.15
2 -0.28
20 -0.15
21 -0.15
23 0.15
24 0.15
25 0.15
29 0.15
3 -0.65
30 0.15
31 0.15
32 0.15
33 0.5
4 -0.57
5 -0.57
6 0.2
7 -0.14
8 0.14
9 -0.15

>  <PUBCHEM_EFFECTIVE_ROTOR_COUNT>  (1) 
3

>  <PUBCHEM_PHARMACOPHORE_FEATURES>  (1) 
7
1 13 hydrophobe
1 3 acceptor
1 4 acceptor
3 3 4 16 anion
5 2 5 8 10 14 rings
6 15 17 18 19 20 21 rings
6 7 8 9 10 11 12 rings

>  <PUBCHEM_HEAVY_ATOM_COUNT>  (1) 
21

>  <PUBCHEM_ATOM_DEF_STEREO_COUNT>  (1) 
0

>  <PUBCHEM_ATOM_UDEF_STEREO_COUNT>  (1) 
1

>  <PUBCHEM_BOND_DEF_STEREO_COUNT>  (1) 
0

>  <PUBCHEM_BOND_UDEF_STEREO_COUNT>  (1) 
0

>  <PUBCHEM_ISOTOPIC_ATOM_COUNT>  (1) 
0

>  <PUBCHEM_COMPONENT_COUNT>  (1) 
1

>  <PUBCHEM_CACTVS_TAUTO_COUNT>  (1) 
1

>  <PUBCHEM_CONFORMER_ID>  (1) 
00009C1A00000004

>  <PUBCHEM_MMFF94_ENERGY>  (1) 
48.4606

>  <PUBCHEM_FEATURE_SELFOVERLAP>  (1) 
35.698

>  <PUBCHEM_SHAPE_FINGERPRINT>  (1) 
10411042 1 17617378828290967771
10498660 4 18341050731119476040
10670039 82 18041858207470905364
11089746 13 18343576326866756780
11128504 68 13973962142811776640
11595378 159 17241314785834043713
12107183 9 17545036001252512505
12236239 1 18410572851902661767
12390115 104 18128830655539084145
12633257 1 16515686666997451628
12730499 353 18341903978097245058
13631057 29 18268144430755044915
14528608 73 18413106156151076413
14739800 52 18269818892157986824
15196674 1 18408603630402998155
15788980 27 12540697032951911803
1601671 61 18113340808250686220
17349148 13 17603586369494213999
17834072 33 18343017770459235527
17844677 252 18131358500567573713
17980427 23 17822577221311017302
20511986 3 18115291316103139015
21033648 29 18130779109785279560
21452121 103 18337384955627137938
22393880 68 18342460330838410214
23402539 116 18410288146540813047
23402655 69 18409449155061003327
23559900 14 18055068761741993975
245318 6 17098637961168665924
2916195 48 18271238430468108000
300161 21 18334570218660225231
34797466 226 17704076213276966341
34934 24 18409162191232041843
351380 3 11600007635089169740
3545911 37 18409451367048041581
4073 2 18187651331715939882
4214541 1 18411699859789643461
4340502 62 16298109765500884115
441001 317 18341894091261533505
465052 167 9511453450914665216
474 4 17821737125760588503
4990 188 18131358488157347814
5104073 3 18188493471691380579
542803 24 17203610367754202785
543368 44 18412543211141813021
59682541 52 17489321746098611692
633830 44 18341608235423261108
67856867 119 18263636282161196458
960060 61 13110957648040030784

>  <PUBCHEM_SHAPE_MULTIPOLES>  (1) 
411.45
13.18
2.18
0.93
1.09
0.44
0.24
-6.14
1.21
-1.09
-0.38
1.1
-0.05
-0.02

>  <PUBCHEM_SHAPE_SELFOVERLAP>  (1) 
900.862

>  <PUBCHEM_SHAPE_VOLUME>  (1) 
224.5

>  <PUBCHEM_COORDINATE_TYPE>  (1) 
2
5
10

$$$$
