39964
     RDKit          3D

 23 25  0  0  1  0  0  0  0  0999 V2000
   -0.2522   -1.3986    0.1434 O   0  0  0  0  0  0  0  0  0  0  0  0
    6.8865    1.2936    0.5530 O   0  0  0  0  0  0  0  0  0  0  0  0
    4.8470    1.4022    1.5353 O   0  0  0  0  0  0  0  0  0  0  0  0
   -7.0411   -0.6311    0.3137 O   0  0  0  0  0  0  0  0  0  0  0  0
   -6.8536    1.5141   -0.1344 O   0  0  0  0  0  0  0  0  0  0  0  0
    0.1925    0.7742   -0.3236 N   0  0  0  0  0  0  0  0  0  0  0  0
   -6.3473    0.3853    0.0717 N   0  0  0  0  0  0  0  0  0  0  0  0
    5.1399   -0.0869   -0.3786 C   0  0  0  0  0  0  0  0  0  0  0  0
    3.7090   -0.4879   -0.2290 C   0  0  0  0  0  0  0  0  0  0  0  0
    1.3711    0.0737   -0.2348 C   0  0  0  0  0  0  0  0  0  0  0  0
    2.7053    0.4798   -0.3808 C   0  0  0  0  0  0  0  0  0  0  0  0
    1.1029   -1.2567    0.0513 C   0  0  0  0  0  0  0  0  0  0  0  0
    3.3944   -1.8215    0.0599 C   0  0  0  0  0  0  0  0  0  0  0  0
    2.0687   -2.2431    0.2088 C   0  0  0  0  0  0  0  0  0  0  0  0
   -0.7223   -0.1417   -0.0925 C   0  0  0  0  0  0  0  0  0  0  0  0
    5.4883    0.4708   -1.7727 C   0  0  0  0  0  0  0  0  0  0  0  0
   -2.1522   -0.0076   -0.0515 C   0  0  0  0  0  0  0  0  0  0  0  0
    5.5805    0.9362    0.6730 C   0  0  0  0  0  0  0  0  0  0  0  0
   -2.9549   -1.1201    0.2158 C   0  0  0  0  0  0  0  0  0  0  0  0
   -2.7486    1.2359   -0.2778 C   0  0  0  0  0  0  0  0  0  0  0  0
   -4.3430   -0.9899    0.2565 C   0  0  0  0  0  0  0  0  0  0  0  0
   -4.1368    1.3661   -0.2369 C   0  0  0  0  0  0  0  0  0  0  0  0
   -4.9342    0.2531    0.0303 C   0  0  0  0  0  0  0  0  0  0  0  0
  1 12  1  0
  1 15  1  0
  2 18  1  0
  3 18  2  0
  4  7  1  0
  5  7  2  0
  6 10  1  0
  6 15  2  0
  7 23  1  0
  8  9  1  0
  8 16  1  0
  8 18  1  0
  9 11  2  0
  9 13  1  0
 10 11  1  0
 10 12  2  0
 12 14  1  0
 13 14  2  0
 15 17  1  0
 17 19  2  0
 17 20  1  0
 19 21  1  0
 20 22  2  0
 21 23  2  0
 22 23  1  0
M  CHG  2   4  -1   7   1
M  END
>  <PUBCHEM_COMPOUND_CID>  (1) 
39964

>  <PUBCHEM_CONFORMER_RMSD>  (1) 
0.6

>  <PUBCHEM_CONFORMER_DIVERSEORDER>  (1) 
1
2
3
4

>  <PUBCHEM_MMFF94_PARTIAL_CHARGES>  (1) 
30
1 -0.28
10 0.23
11 -0.15
12 0.14
13 -0.15
14 -0.15
15 0.43
17 0.05
18 0.66
19 -0.15
2 -0.65
20 -0.15
21 -0.15
22 -0.15
23 0.13
25 0.15
26 0.15
27 0.15
3 -0.57
31 0.15
32 0.15
33 0.15
34 0.15
35 0.5
4 -0.52
5 -0.52
6 -0.57
7 0.91
8 0.2
9 -0.14

>  <PUBCHEM_EFFECTIVE_ROTOR_COUNT>  (1) 
4

>  <PUBCHEM_PHARMACOPHORE_FEATURES>  (1) 
10
1 16 hydrophobe
1 2 acceptor
1 3 acceptor
1 4 acceptor
1 4 anion
1 5 acceptor
3 2 3 18 anion
5 1 6 10 12 15 rings
6 17 19 20 21 22 23 rings
6 9 10 11 12 13 14 rings

>  <PUBCHEM_HEAVY_ATOM_COUNT>  (1) 
23

>  <PUBCHEM_ATOM_DEF_STEREO_COUNT>  (1) 
0

>  <PUBCHEM_ATOM_UDEF_STEREO_COUNT>  (1) 
1

>  <PUBCHEM_BOND_DEF_STEREO_COUNT>  (1) 
0

>  <PUBCHEM_BOND_UDEF_STEREO_COUNT>  (1) 
0

>  <PUBCHEM_ISOTOPIC_ATOM_COUNT>  (1) 
0

>  <PUBCHEM_COMPONENT_COUNT>  (1) 
1

>  <PUBCHEM_CACTVS_TAUTO_COUNT>  (1) 
1

>  <PUBCHEM_CONFORMER_ID>  (1) 
00009C1C00000001

>  <PUBCHEM_MMFF94_ENERGY>  (1) 
56.1875

>  <PUBCHEM_FEATURE_SELFOVERLAP>  (1) 
51.004

>  <PUBCHEM_SHAPE_FINGERPRINT>  (1) 
10 15 18187081793298231256
10366900 7 14189576334248224711
10835480 77 18336257943429585485
10906281 52 17895494569038337983
10968037 39 18408325484758898687
11796584 16 10087631602965266956
12107183 9 17472136177002249787
12236239 1 18131350783022883303
12516196 113 18342458140753066641
12616971 3 15936695946933979071
12730499 353 18272938211088913182
12916748 109 18131072615065534464
13073987 5 18335422305870055049
13533116 47 18339361851215773906
14251732 16 18412262848503401971
14251764 18 17603587456062807125
14461889 52 18187088381467119763
14528608 73 18344145895291032334
15048467 5 18342174470599434569
15196674 1 18263363603609355791
17844677 252 17560530512279469952
200 152 18343582915794962299
20281389 69 18334011670558048549
20397935 70 14201392760342588864
20645477 70 18267306439016133046
21033648 29 18128805512652580936
21130935 74 18336829698023908755
21150785 3 16630521856262566797
21267235 1 18336554802398816999
21792934 111 18263913358964451017
220451 1 15051731976315471527
22079108 93 18411976979490239382
221357 26 17275388694724321576
22224240 67 18260263079450340074
23035841 295 10664103350469052165
23402539 116 17676487276392915207
23559900 14 18411414051228224905
29717793 49 16271934791980230948
300161 21 18410007728484908991
34797466 226 17489873747579014564
34934 24 18411976970600072630
3545911 37 18409450275725460823
4072396 5 18040991848216391570
4073 2 17894921749229524154
4325135 7 18186806876261678702
4340502 62 16370444449607361362
4463277 17 18412826872129964973
5104073 3 18262239902435599643
542803 24 16702302338952521427
5486654 2 18408328799835568598
59682541 35 18261956357105401488
59682541 52 17059792061457291948
59755656 215 18410294704918859526
67856867 119 18114749355518126941

>  <PUBCHEM_SHAPE_MULTIPOLES>  (1) 
434.02
17.64
1.71
0.89
9.63
0.48
-0.07
-6.49
1
-0.5
0.18
-1.46
-0.25
0.7

>  <PUBCHEM_SHAPE_SELFOVERLAP>  (1) 
960.093

>  <PUBCHEM_SHAPE_VOLUME>  (1) 
234.3

>  <PUBCHEM_COORDINATE_TYPE>  (1) 
2
5
10

$$$$
