39977
     RDKit          3D

 31 32  0  0  1  0  0  0  0  0999 V2000
    0.1982   -1.2591   -1.6866 F   0  0  0  0  0  0  0  0  0  0  0  0
    0.1333    1.3477   -1.9373 F   0  0  0  0  0  0  0  0  0  0  0  0
   -2.0392    0.0222   -1.7131 F   0  0  0  0  0  0  0  0  0  0  0  0
    0.1223   -2.6091    0.6352 F   0  0  0  0  0  0  0  0  0  0  0  0
    0.2981   -0.7936    1.8085 F   0  0  0  0  0  0  0  0  0  0  0  0
    0.5367    3.1014    0.0550 F   0  0  0  0  0  0  0  0  0  0  0  0
    0.4468    1.5526    1.5698 F   0  0  0  0  0  0  0  0  0  0  0  0
    2.6281    2.0034   -0.8787 F   0  0  0  0  0  0  0  0  0  0  0  0
    2.3961    0.1428   -1.9756 F   0  0  0  0  0  0  0  0  0  0  0  0
   -1.8638    0.1708    1.8014 F   0  0  0  0  0  0  0  0  0  0  0  0
   -3.4701    0.7281    0.4540 F   0  0  0  0  0  0  0  0  0  0  0  0
   -1.8949    2.8145    1.2775 F   0  0  0  0  0  0  0  0  0  0  0  0
   -1.9014    2.4570   -0.8667 F   0  0  0  0  0  0  0  0  0  0  0  0
    2.4005   -2.1170   -0.6649 F   0  0  0  0  0  0  0  0  0  0  0  0
    2.6451   -2.0527    1.4945 F   0  0  0  0  0  0  0  0  0  0  0  0
    2.5930    0.6468    1.4949 F   0  0  0  0  0  0  0  0  0  0  0  0
    4.0503   -0.1384    0.0947 F   0  0  0  0  0  0  0  0  0  0  0  0
   -1.9483   -2.3474    0.8629 F   0  0  0  0  0  0  0  0  0  0  0  0
   -3.6736   -1.5959   -0.2439 F   0  0  0  0  0  0  0  0  0  0  0  0
   -2.0528   -2.6055   -1.3023 F   0  0  0  0  0  0  0  0  0  0  0  0
   -0.0895   -0.5477   -0.5422 C   0  0  0  0  0  0  0  0  0  0  0  0
    0.5504    0.8616   -0.7197 C   0  0  0  0  0  0  0  0  0  0  0  0
   -1.6374   -0.4404   -0.4801 C   0  0  0  0  0  0  0  0  0  0  0  0
    0.5879   -1.3340    0.6026 C   0  0  0  0  0  0  0  0  0  0  0  0
    0.0335    1.8687    0.3215 C   0  0  0  0  0  0  0  0  0  0  0  0
    2.0784    0.7679   -0.8043 C   0  0  0  0  0  0  0  0  0  0  0  0
   -2.1213    0.5948    0.5404 C   0  0  0  0  0  0  0  0  0  0  0  0
   -1.4802    1.9498    0.3207 C   0  0  0  0  0  0  0  0  0  0  0  0
    2.0987   -1.3933    0.4449 C   0  0  0  0  0  0  0  0  0  0  0  0
    2.7193   -0.0180    0.3232 C   0  0  0  0  0  0  0  0  0  0  0  0
   -2.3442   -1.7778   -0.2864 C   0  0  0  0  0  0  0  0  0  0  0  0
  1 21  1  0
  2 22  1  0
  3 23  1  0
  4 24  1  0
  5 24  1  0
  6 25  1  0
  7 25  1  0
  8 26  1  0
  9 26  1  0
 10 27  1  0
 11 27  1  0
 12 28  1  0
 13 28  1  0
 14 29  1  0
 15 29  1  0
 16 30  1  0
 17 30  1  0
 18 31  1  0
 19 31  1  0
 20 31  1  0
 21 22  1  0
 21 23  1  0
 21 24  1  0
 22 25  1  0
 22 26  1  0
 23 27  1  0
 23 31  1  0
 24 29  1  0
 25 28  1  0
 26 30  1  0
 27 28  1  0
 29 30  1  0
M  END
>  <PUBCHEM_COMPOUND_CID>  (1) 
39977

>  <PUBCHEM_CONFORMER_RMSD>  (1) 
0.8

>  <PUBCHEM_CONFORMER_DIVERSEORDER>  (1) 
1
11
8
10
6
12
2
7
9
5
3
4

>  <PUBCHEM_MMFF94_PARTIAL_CHARGES>  (1) 
31
1 -0.34
10 -0.34
11 -0.34
12 -0.34
13 -0.34
14 -0.34
15 -0.34
16 -0.34
17 -0.34
18 -0.34
19 -0.34
2 -0.34
20 -0.34
21 0.34
22 0.34
23 0.34
24 0.68
25 0.68
26 0.68
27 0.68
28 0.68
29 0.68
3 -0.34
30 0.68
31 1.02
4 -0.34
5 -0.34
6 -0.34
7 -0.34
8 -0.34
9 -0.34

>  <PUBCHEM_EFFECTIVE_ROTOR_COUNT>  (1) 
2.6

>  <PUBCHEM_PHARMACOPHORE_FEATURES>  (1) 
2
6 21 22 23 25 27 28 rings
6 21 22 24 26 29 30 rings

>  <PUBCHEM_HEAVY_ATOM_COUNT>  (1) 
31

>  <PUBCHEM_ATOM_DEF_STEREO_COUNT>  (1) 
0

>  <PUBCHEM_ATOM_UDEF_STEREO_COUNT>  (1) 
3

>  <PUBCHEM_BOND_DEF_STEREO_COUNT>  (1) 
0

>  <PUBCHEM_BOND_UDEF_STEREO_COUNT>  (1) 
0

>  <PUBCHEM_ISOTOPIC_ATOM_COUNT>  (1) 
0

>  <PUBCHEM_COMPONENT_COUNT>  (1) 
1

>  <PUBCHEM_CACTVS_TAUTO_COUNT>  (1) 
1

>  <PUBCHEM_CONFORMER_ID>  (1) 
00009C2900000001

>  <PUBCHEM_MMFF94_ENERGY>  (1) 
52.9097

>  <PUBCHEM_FEATURE_SELFOVERLAP>  (1) 
10.192

>  <PUBCHEM_SHAPE_FINGERPRINT>  (1) 
104564 63 18411990177660943887
10863032 1 18129097823267295864
10948715 1 17910675367185432937
10967382 1 18337954467688953689
11578080 2 18044346483224757237
12011746 2 17472137271907660556
13027679 85 18410005580763884125
13132413 78 18411418435941246061
13140716 1 18268718392608721313
13172582 1 18264774259394164605
14223421 5 18343011186437790624
144361 1 17170385475308996227
14787075 74 17905312280620371096
15001771 113 18335416829417578430
15881359 60 17681254573715895021
16945 1 18409172112200307324
18981168 100 15913326883862879064
20691752 17 18046613771138001299
20905425 154 18412828009811060407
22112679 90 18271815673940593867
2334 1 18409446955694667898
23419403 2 16100980576151086325
23559900 14 18129669599594717182
238 59 16899880485350012607
2748010 2 16102202842355382293
427121 178 17056700083818964889
90525 40 18121788226968584717

>  <PUBCHEM_SHAPE_MULTIPOLES>  (1) 
492.49
4.49
2.98
1.56
0.65
0.34
-0.11
-0.89
0.12
-0.9
0.21
0.18
0.03
-0.7

>  <PUBCHEM_SHAPE_SELFOVERLAP>  (1) 
1139.98

>  <PUBCHEM_SHAPE_VOLUME>  (1) 
244.9

>  <PUBCHEM_COORDINATE_TYPE>  (1) 
2
5
10

$$$$
