39985
     RDKit          3D

 22 23  0  0  1  0  0  0  0  0999 V2000
   -4.0296   -1.0837   -2.3832 Cl  0  0  0  0  0  0  0  0  0  0  0  0
   -5.5099    3.1065    0.6610 Cl  0  0  0  0  0  0  0  0  0  0  0  0
    3.2389   -1.1054    0.1478 O   0  0  0  0  0  0  0  0  0  0  0  0
   -2.2351   -1.7166   -0.0570 O   0  0  0  0  0  0  0  0  0  0  0  0
    4.9459    2.0391    0.0424 O   0  0  0  0  0  0  0  0  0  0  0  0
    4.7391    0.3617   -1.5267 O   0  0  0  0  0  0  0  0  0  0  0  0
    3.7289    0.1204    0.6684 C   0  0  0  0  0  0  0  0  0  0  0  0
    1.8767   -1.2576    0.0972 C   0  0  0  0  0  0  0  0  0  0  0  0
   -0.8835   -1.5647   -0.0055 C   0  0  0  0  0  0  0  0  0  0  0  0
    4.5890   -0.1915    1.8804 C   0  0  0  0  0  0  0  0  0  0  0  0
    1.1141   -0.3702   -0.6526 C   0  0  0  0  0  0  0  0  0  0  0  0
    1.2749   -2.2971    0.7961 C   0  0  0  0  0  0  0  0  0  0  0  0
   -0.2712   -0.5244   -0.7039 C   0  0  0  0  0  0  0  0  0  0  0  0
   -0.1106   -2.4512    0.7445 C   0  0  0  0  0  0  0  0  0  0  0  0
    4.5285    0.8208   -0.4116 C   0  0  0  0  0  0  0  0  0  0  0  0
   -3.0163   -0.5828    0.0912 C   0  0  0  0  0  0  0  0  0  0  0  0
   -3.8823   -0.1909   -0.9147 C   0  0  0  0  0  0  0  0  0  0  0  0
   -2.9016    0.1359    1.2691 C   0  0  0  0  0  0  0  0  0  0  0  0
   -4.6576    0.9552   -0.7380 C   0  0  0  0  0  0  0  0  0  0  0  0
   -3.6768    1.2818    1.4458 C   0  0  0  0  0  0  0  0  0  0  0  0
   -4.5549    1.6915    0.4423 C   0  0  0  0  0  0  0  0  0  0  0  0
    5.6932    2.8233   -0.8930 C   0  0  0  0  0  0  0  0  0  0  0  0
  1 17  1  0
  2 21  1  0
  3  7  1  0
  3  8  1  0
  4  9  1  0
  4 16  1  0
  5 15  1  0
  5 22  1  0
  6 15  2  0
  7 10  1  0
  7 15  1  0
  8 11  2  0
  8 12  1  0
  9 13  2  0
  9 14  1  0
 11 13  1  0
 12 14  2  0
 16 17  2  0
 16 18  1  0
 17 19  1  0
 18 20  2  0
 19 21  2  0
 20 21  1  0
M  END
>  <PUBCHEM_COMPOUND_CID>  (1) 
39985

>  <PUBCHEM_CONFORMER_RMSD>  (1) 
0.8

>  <PUBCHEM_CONFORMER_DIVERSEORDER>  (1) 
1
115
167
168
103
109
143
7
185
148
169
188
63
152
154
111
119
190
35
165
144
53
69
120
156
48
140
56
46
193
71
192
17
180
99
182
122
184
44
10
74
76
38
189
164
96
82
125
23
158
135
146
40
49
116
159
39
157
177
187
57
127
21
153
172
50
166
129
149
155
170
59
60
162
110
94
181
163
108
173
147
70
43
22
66
175
54
134
174
100
20
28
62
145
83
98
15
118
72
178
161
73
112
160
130
13
102
61
183
2
45
136
101
41
75
138
133
106
9
18
47
12
142
64
114
117
25
31
11
30
19
34
97
126
65
171
88
139
4
124
131
24
77
37
176
95
90
137
32
150
86
42
87
81
29
26
151
14
179
27
3
107
84
8
128
105
52
191
58
121
104
186
16
123
33
113
132
5
68
85
51
36
6
93
91
141
78
89
92
80
55
79
67

>  <PUBCHEM_MMFF94_PARTIAL_CHARGES>  (1) 
28
1 -0.18
11 -0.15
12 -0.15
13 -0.15
14 -0.15
15 0.66
16 0.08
17 0.18
18 -0.15
19 -0.15
2 -0.18
20 -0.15
21 0.18
22 0.28
27 0.15
28 0.15
29 0.15
3 -0.36
30 0.15
31 0.15
32 0.15
33 0.15
4 -0.17
5 -0.43
6 -0.57
7 0.34
8 0.08
9 0.08

>  <PUBCHEM_EFFECTIVE_ROTOR_COUNT>  (1) 
6

>  <PUBCHEM_PHARMACOPHORE_FEATURES>  (1) 
5
1 3 acceptor
1 4 acceptor
1 6 acceptor
6 16 17 18 19 20 21 rings
6 8 9 11 12 13 14 rings

>  <PUBCHEM_HEAVY_ATOM_COUNT>  (1) 
22

>  <PUBCHEM_ATOM_DEF_STEREO_COUNT>  (1) 
0

>  <PUBCHEM_ATOM_UDEF_STEREO_COUNT>  (1) 
1

>  <PUBCHEM_BOND_DEF_STEREO_COUNT>  (1) 
0

>  <PUBCHEM_BOND_UDEF_STEREO_COUNT>  (1) 
0

>  <PUBCHEM_ISOTOPIC_ATOM_COUNT>  (1) 
0

>  <PUBCHEM_COMPONENT_COUNT>  (1) 
1

>  <PUBCHEM_CACTVS_TAUTO_COUNT>  (1) 
1

>  <PUBCHEM_CONFORMER_ID>  (1) 
00009C3100000001

>  <PUBCHEM_MMFF94_ENERGY>  (1) 
68.6432

>  <PUBCHEM_FEATURE_SELFOVERLAP>  (1) 
25.379

>  <PUBCHEM_SHAPE_FINGERPRINT>  (1) 
10319926 262 14418127370790365343
10498660 4 17489301949955858675
10670039 82 18341341019912474884
10928967 22 10159704607319673692
11089746 13 18341606036695365234
11543360 7 16845287267498062462
12390115 104 18189066433224266942
12422481 6 16805321063405043476
12596602 18 17603587434931155041
12892183 10 14562529561376339955
13103583 49 11242244113431944967
13383661 66 12172472848485748829
13583140 156 15574707019249611039
13675066 3 15430031032993927426
1420 369 8934999261305159800
14251764 38 17986376991802883496
14251764 75 18055647118407855425
14420673 8 12541800830820159793
14576447 43 9871455535412277322
14739800 52 17915714562425498578
14790565 3 18335426806832939604
14848178 5 9223232897358265136
14848178 96 18411136931163450200
15163728 17 17845950553716219983
15238133 3 18341606028311413000
15342168 16 18336830784486532119
15342816 4 9079114488442079170
16994733 274 17241584171632552853
17780758 139 12179834018122903895
17959699 21 18271524200148071649
1813 80 9223227485446570419
193927 3 10664098952169203551
19784866 240 9367052355988267881
19784866 34 18335704927170724891
20281475 54 9079119968503902106
204376 136 18260266347694021195
20739085 24 17676494908750091630
22950370 63 9583519840902989082
23503958 8 11891341924313463293
235170 7 15626224628100498440
23559900 14 17058931031113240999
255183 451 16696360776555481255
268830 7 18188481389653028899
270888 7 18339646646571443441
2748736 6 18265044907513534020
283562 15 18044375161090976035
2838139 119 18201152247962439184
312425 83 17774735164015282966
341906 21 18201994443524690554
3472631 163 18129380402610063245
34797466 226 16056585603936148825
4259306 186 11743838066600977658
44062 13 11167675247831887531
474 4 18408884018668561091
5104073 3 17821727256252927082
57724786 102 18114185211742709720
5924683 9 15791739645843324379
6034566 193 17969514873152554836
633830 44 18410575046103955710
636775 72 18051414265277321944
76465 3 9655581794622742890
7808743 9 18336549429742441280
7970288 3 9511169733949623801

>  <PUBCHEM_SHAPE_MULTIPOLES>  (1) 
433.01
13.84
2.89
1.59
6.63
1.37
-0.31
12.78
-1.34
-0.17
0.23
-0.43
-0.11
-2.68

>  <PUBCHEM_SHAPE_SELFOVERLAP>  (1) 
901.443

>  <PUBCHEM_SHAPE_VOLUME>  (1) 
248.3

>  <PUBCHEM_COORDINATE_TYPE>  (1) 
2
5
10

$$$$
