4000
     RDKit          3D

 25 27  0  0  0  0  0  0  0  0999 V2000
    1.0219    3.7804   -0.2734 O   0  0  0  0  0  0  0  0  0  0  0  0
   -0.8938   -0.6010   -1.3006 N   0  0  0  0  0  0  0  0  0  0  0  0
   -0.7780    0.6416   -0.7236 C   0  0  0  0  0  0  0  0  0  0  0  0
   -1.8844    0.8154    0.1082 C   0  0  0  0  0  0  0  0  0  0  0  0
    0.2045    1.6175   -0.8665 C   0  0  0  0  0  0  0  0  0  0  0  0
   -2.6795   -0.3709    0.0151 C   0  0  0  0  0  0  0  0  0  0  0  0
   -2.0356   -1.2352   -0.8706 C   0  0  0  0  0  0  0  0  0  0  0  0
    1.3946    1.4111   -1.7699 C   0  0  0  0  0  0  0  0  0  0  0  0
    0.0739    2.8038   -0.1535 C   0  0  0  0  0  0  0  0  0  0  0  0
   -2.0054    2.0240    0.8258 C   0  0  0  0  0  0  0  0  0  0  0  0
   -1.0196    3.0072    0.6849 C   0  0  0  0  0  0  0  0  0  0  0  0
    2.5523    0.7758   -1.0520 C   0  0  0  0  0  0  0  0  0  0  0  0
   -3.8907   -0.7893    0.6051 C   0  0  0  0  0  0  0  0  0  0  0  0
    3.1468   -0.4031   -1.3221 C   0  0  0  0  0  0  0  0  0  0  0  0
   -2.5410   -2.4987   -1.1975 C   0  0  0  0  0  0  0  0  0  0  0  0
    4.3401   -0.9603   -0.5745 C   0  0  0  0  0  0  0  0  0  0  0  0
   -1.1630    4.2818    1.4524 C   0  0  0  0  0  0  0  0  0  0  0  0
    3.9654   -1.9210    0.5619 C   0  0  0  0  0  0  0  0  0  0  0  0
   -4.4087   -2.0501    0.2880 C   0  0  0  0  0  0  0  0  0  0  0  0
   -3.7420   -2.8906   -0.6000 C   0  0  0  0  0  0  0  0  0  0  0  0
    2.6529   -1.2509   -2.4663 C   0  0  0  0  0  0  0  0  0  0  0  0
    3.2180   -1.2373    1.6731 C   0  0  0  0  0  0  0  0  0  0  0  0
    1.9872   -1.5157    2.1425 C   0  0  0  0  0  0  0  0  0  0  0  0
    1.2977   -0.7882    3.2612 C   0  0  0  0  0  0  0  0  0  0  0  0
    1.1867   -2.6462    1.5523 C   0  0  0  0  0  0  0  0  0  0  0  0
  1  9  1  0
  2  3  1  0
  2  7  1  0
  3  4  2  0
  3  5  1  0
  4  6  1  0
  4 10  1  0
  5  8  1  0
  5  9  2  0
  6  7  2  0
  6 13  1  0
  7 15  1  0
  8 12  1  0
  9 11  1  0
 10 11  2  0
 11 17  1  0
 12 14  2  0
 13 19  2  0
 14 16  1  0
 14 21  1  0
 15 20  2  0
 16 18  1  0
 18 22  1  0
 19 20  1  0
 22 23  2  3
 23 24  1  0
 23 25  1  0
M  END
>  <PUBCHEM_COMPOUND_CID>  (1) 
4000

>  <PUBCHEM_CONFORMER_RMSD>  (1) 
0.8

>  <PUBCHEM_CONFORMER_DIVERSEORDER>  (1) 
1
15
69
171
93
59
47
85
176
107
42
49
152
101
75
167
140
164
23
51
180
144
74
109
4
88
119
111
32
105
27
170
80
156
70
108
153
172
166
77
135
35
76
174
14
19
54
30
132
40
151
44
155
110
31
126
52
154
56
91
141
124
173
55
96
104
146
133
25
86
177
159
129
116
163
142
73
67
61
181
57
160
103
98
39
90
157
72
106
65
127
117
136
134
95
148
11
114
3
45
147
179
29
118
21
34
125
68
64
120
165
48
10
175
16
79
8
145
150
13
58
84
33
112
63
78
115
102
66
143
158
137
81
6
43
22
60
82
169
46
18
38
28
161
178
97
2
138
94
53
162
37
41
36
87
62
17
149
139
128
168
121
71
89
9
5
20
131
24
100
122
7
50
130
12
113
92
26
83
99
123

>  <PUBCHEM_MMFF94_PARTIAL_CHARGES>  (1) 
32
1 -0.53
10 -0.15
11 -0.14
12 -0.29
13 -0.15
14 -0.28
15 -0.15
16 0.14
17 0.14
18 0.14
19 -0.15
2 0.03
20 -0.15
21 0.14
22 -0.29
23 -0.28
24 0.14
25 0.14
28 0.27
29 0.15
3 -0.15
30 0.15
31 0.15
32 0.15
40 0.15
41 0.15
45 0.45
46 0.15
5 -0.14
7 -0.15
8 0.28
9 0.08

>  <PUBCHEM_EFFECTIVE_ROTOR_COUNT>  (1) 
5

>  <PUBCHEM_PHARMACOPHORE_FEATURES>  (1) 
9
1 1 donor
1 2 cation
1 2 donor
1 21 hydrophobe
3 23 24 25 hydrophobe
4 14 16 18 22 hydrophobe
5 2 3 4 6 7 rings
6 3 4 5 9 10 11 rings
6 6 7 13 15 19 20 rings

>  <PUBCHEM_HEAVY_ATOM_COUNT>  (1) 
25

>  <PUBCHEM_ATOM_DEF_STEREO_COUNT>  (1) 
0

>  <PUBCHEM_ATOM_UDEF_STEREO_COUNT>  (1) 
0

>  <PUBCHEM_BOND_DEF_STEREO_COUNT>  (1) 
0

>  <PUBCHEM_BOND_UDEF_STEREO_COUNT>  (1) 
1

>  <PUBCHEM_ISOTOPIC_ATOM_COUNT>  (1) 
0

>  <PUBCHEM_COMPONENT_COUNT>  (1) 
1

>  <PUBCHEM_CACTVS_TAUTO_COUNT>  (1) 
9

>  <PUBCHEM_CONFORMER_ID>  (1) 
00000FA000000001

>  <PUBCHEM_MMFF94_ENERGY>  (1) 
47.6117

>  <PUBCHEM_FEATURE_SELFOVERLAP>  (1) 
45.855

>  <PUBCHEM_SHAPE_FINGERPRINT>  (1) 
10369192 42 16914227837135543136
11578080 2 17969199248659480268
12156800 1 14434561771328272794
12539773 59 17897724266939742827
12553582 1 18341051899487873767
12597179 24 17326334827631812832
12633257 1 16200422589953997502
12788726 201 18267326311792251684
13009979 54 17825929469551786490
13140716 1 18129681763021954353
13911987 19 16011319844635375062
14178342 30 18196376922860351710
14787075 74 18191310592444276172
15475509 35 17682135596843728355
20567600 347 17184457162708082423
20600515 1 18050247506517592481
21421861 104 18266459999956946025
21452121 199 18271239555311734997
23366157 5 17835244824283311829
23419403 2 15806561066300319808
23559900 14 18059585740397544709
238 59 15936413351218580882
35225 105 17625510438073127952
392239 28 18337379544047369256
5283178 26 16609116224480435154

>  <PUBCHEM_SHAPE_MULTIPOLES>  (1) 
503.64
6.97
4.49
2.33
0.45
4.26
1.09
-6.63
-0.39
-2.58
1.11
2.16
-0.82
-1.86

>  <PUBCHEM_SHAPE_SELFOVERLAP>  (1) 
1078.518

>  <PUBCHEM_SHAPE_VOLUME>  (1) 
282.3

>  <PUBCHEM_COORDINATE_TYPE>  (1) 
2
5
10

$$$$
