40029
     RDKit          3D

 21 24  0  0  1  0  0  0  0  0999 V2000
    4.5561   -2.0639   -0.6276 N   0  0  0  0  0  0  0  0  0  0  0  0
   -2.1917    0.8695   -1.4483 C   0  0  0  0  0  0  0  0  0  0  0  0
   -1.0461    1.8554   -1.3673 C   0  0  0  0  0  0  0  0  0  0  0  0
   -2.4468    2.2930   -1.0235 C   0  0  0  0  0  0  0  0  0  0  0  0
   -2.4374   -0.2487   -0.4580 C   0  0  0  0  0  0  0  0  0  0  0  0
    0.0120    1.8593   -0.2847 C   0  0  0  0  0  0  0  0  0  0  0  0
   -1.4024   -1.0027    0.1364 C   0  0  0  0  0  0  0  0  0  0  0  0
    0.5563    0.6831    0.2752 C   0  0  0  0  0  0  0  0  0  0  0  0
    0.0119   -0.6399   -0.1005 C   0  0  0  0  0  0  0  0  0  0  0  0
   -3.7640   -0.6098   -0.1469 C   0  0  0  0  0  0  0  0  0  0  0  0
    0.5361    3.0909    0.1574 C   0  0  0  0  0  0  0  0  0  0  0  0
   -1.7030   -2.0632    1.0106 C   0  0  0  0  0  0  0  0  0  0  0  0
    1.5748    0.7578    1.2428 C   0  0  0  0  0  0  0  0  0  0  0  0
    0.8195   -1.5286   -0.7062 C   0  0  0  0  0  0  0  0  0  0  0  0
   -4.0572   -1.6643    0.7193 C   0  0  0  0  0  0  0  0  0  0  0  0
    1.5482    3.1598    1.1160 C   0  0  0  0  0  0  0  0  0  0  0  0
   -3.0253   -2.3923    1.2973 C   0  0  0  0  0  0  0  0  0  0  0  0
    2.0686    1.9919    1.6580 C   0  0  0  0  0  0  0  0  0  0  0  0
    2.2653   -1.2747   -0.9986 C   0  0  0  0  0  0  0  0  0  0  0  0
    3.1533   -2.3144   -0.3160 C   0  0  0  0  0  0  0  0  0  0  0  0
    4.9716   -0.7583   -0.1355 C   0  0  0  0  0  0  0  0  0  0  0  0
  1 20  1  0
  1 21  1  0
  2  3  1  0
  2  4  1  0
  2  5  1  0
  3  4  1  0
  3  6  1  0
  5  7  2  0
  5 10  1  0
  6  8  2  0
  6 11  1  0
  7  9  1  0
  7 12  1  0
  8  9  1  0
  8 13  1  0
  9 14  2  3
 10 15  2  0
 11 16  2  0
 12 17  2  0
 13 18  2  0
 14 19  1  0
 15 17  1  0
 16 18  1  0
 19 20  1  0
M  END
>  <PUBCHEM_COMPOUND_CID>  (1) 
40029

>  <PUBCHEM_CONFORMER_RMSD>  (1) 
0.6

>  <PUBCHEM_CONFORMER_DIVERSEORDER>  (1) 
8
32
19
16
24
2
6
18
31
26
33
21
1
23
27
10
14
4
34
20
13
7
22
17
25
30
5
28
29
3
9
15
11
12

>  <PUBCHEM_MMFF94_PARTIAL_CHARGES>  (1) 
35
1 -0.9
10 -0.15
11 -0.15
12 -0.15
13 -0.15
14 -0.29
15 -0.15
16 -0.15
17 -0.15
18 -0.15
19 0.14
2 -0.07
20 0.27
21 0.27
22 0.1
23 0.1
24 0.1
25 0.1
26 0.15
27 0.15
28 0.15
29 0.15
3 -0.07
30 0.15
31 0.15
32 0.15
33 0.15
34 0.15
39 0.36
4 -0.2
5 -0.03
6 -0.03
7 0.03
8 0.03
9 -0.06

>  <PUBCHEM_EFFECTIVE_ROTOR_COUNT>  (1) 
3.2

>  <PUBCHEM_PHARMACOPHORE_FEATURES>  (1) 
5
1 1 cation
1 1 donor
6 5 7 10 12 15 17 rings
6 6 8 11 13 16 18 rings
7 2 3 5 6 7 8 9 rings

>  <PUBCHEM_HEAVY_ATOM_COUNT>  (1) 
21

>  <PUBCHEM_ATOM_DEF_STEREO_COUNT>  (1) 
0

>  <PUBCHEM_ATOM_UDEF_STEREO_COUNT>  (1) 
2

>  <PUBCHEM_BOND_DEF_STEREO_COUNT>  (1) 
0

>  <PUBCHEM_BOND_UDEF_STEREO_COUNT>  (1) 
0

>  <PUBCHEM_ISOTOPIC_ATOM_COUNT>  (1) 
0

>  <PUBCHEM_COMPONENT_COUNT>  (1) 
1

>  <PUBCHEM_CACTVS_TAUTO_COUNT>  (1) 
1

>  <PUBCHEM_CONFORMER_ID>  (1) 
00009C5D00000008

>  <PUBCHEM_MMFF94_ENERGY>  (1) 
68.9657

>  <PUBCHEM_FEATURE_SELFOVERLAP>  (1) 
25.385

>  <PUBCHEM_SHAPE_FINGERPRINT>  (1) 
10764073 3 14611564266750177010
1100329 8 16681752165723500307
11112241 14 16054046944116938848
11680986 33 18411408540531976381
12035758 1 18411978035820034227
12293681 160 17548679795424690612
12716301 132 18114731625924445993
12788726 201 17694495949679109376
13027679 85 18341050696817766349
13140716 1 18269276768316282288
14363568 33 18196376046776927784
14787075 74 17979066090245454021
14790565 3 17619633475504219088
15309172 13 17766271364202530025
16945 1 18194107745445371685
17357779 13 18409156723564620663
18785283 64 18196090173679554072
19049666 15 18337380578638445833
20510252 161 18191310364288854102
21041028 32 18131078116655046297
22182313 1 18340750620717530880
23175994 123 18272376325807138582
23419403 2 18272082799326145144
23557571 272 18267597810082491854
23559900 14 18187080693285313774
2748010 2 18266155327682508565
458136 41 17982174727149370192
70251023 43 18270385183770602423
81228 2 17554056433243606016
84936 31 17631462317826348271

>  <PUBCHEM_SHAPE_MULTIPOLES>  (1) 
427.19
6.8
3.75
1.39
3.16
1.68
0.15
-5.46
0.02
1.2
0.49
-0.12
0.38
2.65

>  <PUBCHEM_SHAPE_SELFOVERLAP>  (1) 
929.831

>  <PUBCHEM_SHAPE_VOLUME>  (1) 
230

>  <PUBCHEM_COORDINATE_TYPE>  (1) 
2
5
10

$$$$
