40026
     RDKit          3D

 24 25  0  0  0  0  0  0  0  0999 V2000
   -2.1310   -0.5415    0.2694 N   0  0  0  0  0  0  0  0  0  0  0  0
    0.6521    0.0289    0.4478 N   0  0  0  0  0  0  0  0  0  0  0  0
    2.5127    1.4425    0.0745 N   0  0  0  0  0  0  0  0  0  0  0  0
   -1.1343   -1.5888    0.0020 C   0  0  0  0  0  0  0  0  0  0  0  0
   -1.6101    0.7736   -0.1311 C   0  0  0  0  0  0  0  0  0  0  0  0
    0.1651   -1.3119    0.7600 C   0  0  0  0  0  0  0  0  0  0  0  0
   -0.3212    1.1034    0.6237 C   0  0  0  0  0  0  0  0  0  0  0  0
   -3.3822   -0.8329   -0.4290 C   0  0  0  0  0  0  0  0  0  0  0  0
   -4.5416   -0.0924    0.2368 C   0  0  0  0  0  0  0  0  0  0  0  0
   -5.8907   -0.3429   -0.4443 C   0  0  0  0  0  0  0  0  0  0  0  0
    1.9568    0.2772    0.1919 C   0  0  0  0  0  0  0  0  0  0  0  0
   -7.0499    0.4178    0.2038 C   0  0  0  0  0  0  0  0  0  0  0  0
    2.8641   -0.9068    0.0300 C   0  0  0  0  0  0  0  0  0  0  0  0
   -8.3805    0.0755   -0.4681 C   0  0  0  0  0  0  0  0  0  0  0  0
    3.9428    1.4844   -0.1989 C   0  0  0  0  0  0  0  0  0  0  0  0
    4.4453    2.9310   -0.2697 C   0  0  0  0  0  0  0  0  0  0  0  0
    3.5123   -1.4458    1.1414 C   0  0  0  0  0  0  0  0  0  0  0  0
    3.0589   -1.4691   -1.2316 C   0  0  0  0  0  0  0  0  0  0  0  0
   -9.5325    0.8517    0.1500 C   0  0  0  0  0  0  0  0  0  0  0  0
    4.3120    3.6469    1.0750 C   0  0  0  0  0  0  0  0  0  0  0  0
    3.7436    3.7244   -1.3729 C   0  0  0  0  0  0  0  0  0  0  0  0
    4.3556   -2.5466    0.9912 C   0  0  0  0  0  0  0  0  0  0  0  0
    3.9022   -2.5700   -1.3817 C   0  0  0  0  0  0  0  0  0  0  0  0
    4.5505   -3.1088   -0.2702 C   0  0  0  0  0  0  0  0  0  0  0  0
  1  4  1  0
  1  5  1  0
  1  8  1  0
  2  6  1  0
  2  7  1  0
  2 11  1  0
  3 11  2  0
  3 15  1  0
  4  6  1  0
  5  7  1  0
  8  9  1  0
  9 10  1  0
 10 12  1  0
 11 13  1  0
 12 14  1  0
 13 17  2  0
 13 18  1  0
 14 19  1  0
 15 16  1  0
 16 20  1  0
 16 21  1  0
 17 22  1  0
 18 23  2  0
 22 24  2  0
 23 24  1  0
M  END
>  <PUBCHEM_COMPOUND_CID>  (1) 
40026

>  <PUBCHEM_CONFORMER_RMSD>  (1) 
1

>  <PUBCHEM_CONFORMER_DIVERSEORDER>  (1) 
1
48
65
58
40
7
23
61
42
27
46
67
66
54
17
41
28
15
38
60
64
43
25
37
63
20
62
8
39
34
50
21
49
6
36
32
33
68
22
9
59
19
18
69
53
24
55
56
29
30
51
57
45
35
52
44
13
12
5
14
26
16
4
31
11
47
10
3
2

>  <PUBCHEM_MMFF94_PARTIAL_CHARGES>  (1) 
21
1 -0.81
11 0.41
13 0.09
15 0.25
17 -0.15
18 -0.15
2 -0.79
22 -0.15
23 -0.15
24 -0.15
3 -0.7
4 0.27
46 0.15
47 0.15
5 0.27
57 0.15
58 0.15
59 0.15
6 0.37
7 0.37
8 0.27

>  <PUBCHEM_EFFECTIVE_ROTOR_COUNT>  (1) 
10.2

>  <PUBCHEM_PHARMACOPHORE_FEATURES>  (1) 
7
1 1 cation
1 19 hydrophobe
3 16 20 21 hydrophobe
3 2 3 11 cation
4 9 10 12 14 hydrophobe
6 1 2 4 5 6 7 rings
6 13 17 18 22 23 24 rings

>  <PUBCHEM_HEAVY_ATOM_COUNT>  (1) 
24

>  <PUBCHEM_ATOM_DEF_STEREO_COUNT>  (1) 
0

>  <PUBCHEM_ATOM_UDEF_STEREO_COUNT>  (1) 
0

>  <PUBCHEM_BOND_DEF_STEREO_COUNT>  (1) 
0

>  <PUBCHEM_BOND_UDEF_STEREO_COUNT>  (1) 
0

>  <PUBCHEM_ISOTOPIC_ATOM_COUNT>  (1) 
0

>  <PUBCHEM_COMPONENT_COUNT>  (1) 
1

>  <PUBCHEM_CACTVS_TAUTO_COUNT>  (1) 
1

>  <PUBCHEM_CONFORMER_ID>  (1) 
00009C5A00000001

>  <PUBCHEM_MMFF94_ENERGY>  (1) 
54.8137

>  <PUBCHEM_FEATURE_SELFOVERLAP>  (1) 
35.522

>  <PUBCHEM_SHAPE_FINGERPRINT>  (1) 
10411042 1 18121497956616926354
10554248 39 18201147794334308197
11135609 127 18200584916689007144
11796584 16 14979946013257959215
12089408 11 18131349714704745557
12616971 3 18200864124460783135
12730499 353 18338807839299759498
12788726 201 17418107515543017297
13533116 47 18343863316581501697
13540713 4 18043267909805064434
13955234 65 18412263965289747450
14347424 109 18412823569352946457
14461889 52 17969786478510827467
15081414 286 18261109707752027413
15183329 4 17060625499781679353
15840311 113 18334016082565576477
17844677 252 18335140848073551253
20157964 124 18409729573449099497
20369508 70 18260825952432369426
20554085 129 17916295225420283712
20645477 70 18411136931079359278
20771845 65 18059008372866612794
21344244 78 18129368337893747328
23081809 10 17989486334415292047
23522609 53 17916609608478770129
23523787 8 16055210180016795476
23523788 1 12470561394595566240
23559900 14 18342175570786750298
249057 25 17775012241726158785
255183 451 18128545868984385190
29717793 49 18272932696456179239
3004659 81 18272373048699651382
3411729 13 18335416932887242168
4073 2 18115871965923093491
4340502 62 16370716063423634513
5104073 3 18334015029692018827
59755656 215 18335706070339076380
6025842 7 18341896311796490454
70251023 43 18264770965381076314
7364860 26 18412829101687399146
9658208 31 17167869690132222603
9841814 1 18260825961180280658
9962374 69 18341885286299567071

>  <PUBCHEM_SHAPE_MULTIPOLES>  (1) 
478.97
19.8
3.85
1.07
64.81
2.59
0.12
4.05
1.36
-11.17
0.45
-1.27
-0.03
-0.17

>  <PUBCHEM_SHAPE_SELFOVERLAP>  (1) 
957.665

>  <PUBCHEM_SHAPE_VOLUME>  (1) 
280

>  <PUBCHEM_COORDINATE_TYPE>  (1) 
2
5
10

$$$$
