40034
     RDKit          3D

 13 13  0  0  0  0  0  0  0  0999 V2000
   -1.7787    1.6388   -0.3570 O   0  0  0  0  0  0  0  0  0  0  0  0
   -2.6776   -0.9117    0.2860 O   0  0  0  0  0  0  0  0  0  0  0  0
    3.7598   -0.8833    0.1251 N   0  0  0  0  0  0  0  0  0  0  0  0
    3.2444    1.3351   -0.3986 N   0  0  0  0  0  0  0  0  0  0  0  0
    1.3926   -0.1434    0.0012 C   0  0  0  0  0  0  0  0  0  0  0  0
   -0.8928    0.6287   -0.1323 C   0  0  0  0  0  0  0  0  0  0  0  0
   -1.3440   -0.6512    0.1901 C   0  0  0  0  0  0  0  0  0  0  0  0
    0.4754    0.8826   -0.2267 C   0  0  0  0  0  0  0  0  0  0  0  0
    0.9414   -1.4233    0.3236 C   0  0  0  0  0  0  0  0  0  0  0  0
   -0.4269   -1.6772    0.4182 C   0  0  0  0  0  0  0  0  0  0  0  0
    2.8192    0.1209   -0.0972 C   0  0  0  0  0  0  0  0  0  0  0  0
   -2.1707    2.4199    0.7702 C   0  0  0  0  0  0  0  0  0  0  0  0
   -3.3422   -1.3359   -0.9026 C   0  0  0  0  0  0  0  0  0  0  0  0
  1  6  1  0
  1 12  1  0
  2  7  1  0
  2 13  1  0
  3 11  1  0
  4 11  2  0
  5  8  2  0
  5  9  1  0
  5 11  1  0
  6  7  2  0
  6  8  1  0
  7 10  1  0
  9 10  2  0
M  END
>  <PUBCHEM_COMPOUND_CID>  (1) 
40034

>  <PUBCHEM_CONFORMER_RMSD>  (1) 
0.6

>  <PUBCHEM_CONFORMER_DIVERSEORDER>  (1) 
1
2

>  <PUBCHEM_MMFF94_PARTIAL_CHARGES>  (1) 
19
1 -0.36
10 -0.15
11 0.41
12 0.28
13 0.28
14 0.15
15 0.15
16 0.15
2 -0.36
23 0.4
24 0.4
25 0.4
3 -0.85
4 -0.85
5 0.09
6 0.08
7 0.08
8 -0.15
9 -0.15

>  <PUBCHEM_EFFECTIVE_ROTOR_COUNT>  (1) 
3

>  <PUBCHEM_PHARMACOPHORE_FEATURES>  (1) 
6
1 1 acceptor
1 2 acceptor
1 3 donor
1 4 donor
3 3 4 11 cation
6 5 6 7 8 9 10 rings

>  <PUBCHEM_HEAVY_ATOM_COUNT>  (1) 
13

>  <PUBCHEM_ATOM_DEF_STEREO_COUNT>  (1) 
0

>  <PUBCHEM_ATOM_UDEF_STEREO_COUNT>  (1) 
0

>  <PUBCHEM_BOND_DEF_STEREO_COUNT>  (1) 
0

>  <PUBCHEM_BOND_UDEF_STEREO_COUNT>  (1) 
0

>  <PUBCHEM_ISOTOPIC_ATOM_COUNT>  (1) 
0

>  <PUBCHEM_COMPONENT_COUNT>  (1) 
1

>  <PUBCHEM_CACTVS_TAUTO_COUNT>  (1) 
1

>  <PUBCHEM_CONFORMER_ID>  (1) 
00009C6200000001

>  <PUBCHEM_MMFF94_ENERGY>  (1) 
59.8311

>  <PUBCHEM_FEATURE_SELFOVERLAP>  (1) 
30.493

>  <PUBCHEM_SHAPE_FINGERPRINT>  (1) 
11206711 2 18407758140336541549
12032990 46 18263368156074697235
12932764 1 17418368112789066478
13380535 21 18195257610947790571
13380535 76 18265894649011025139
14325111 11 18408887321893868484
14614273 12 18114455657106267541
14897335 6 18193553372472977613
16945 1 18337678623509521522
193761 8 18121216476611771939
20510252 161 18342177786488488112
20525323 117 18410577271012494163
21501502 16 18337390422709035826
21524375 3 18122910824130505593
2334 1 18335984177312080666
23402539 116 18340758329756429550
23402655 69 18263904611144555279
23552423 10 18189053105619130474
2748010 2 18264493888261199710
353137 74 18261104201460839979
5084963 1 18343584053328332154
53655031 270 18408604751679385467
6333449 129 18339359669371958605
68250623 7 18268429027523983959

>  <PUBCHEM_SHAPE_MULTIPOLES>  (1) 
245.83
5.25
2.14
0.76
2.43
0.83
-0.01
-0.28
-0.69
-1.41
0.28
-0.29
0
-0.68

>  <PUBCHEM_SHAPE_SELFOVERLAP>  (1) 
507.896

>  <PUBCHEM_SHAPE_VOLUME>  (1) 
142

>  <PUBCHEM_COORDINATE_TYPE>  (1) 
2
5
10

$$$$
