40030
     RDKit          3D

 11 12  0  0  0  0  0  0  0  0999 V2000
    2.3257   -0.0001   -0.2200 P   0  0  0  0  0  0  0  0  0  0  0  0
    1.6699   -1.2390    0.6012 O   0  0  0  0  0  0  0  0  0  0  0  0
    1.6699    1.2394    0.6005 O   0  0  0  0  0  0  0  0  0  0  0  0
    1.3545   -0.0003   -1.5222 O   0  0  0  0  0  0  0  0  0  0  0  0
   -0.4187    0.0000    0.1879 C   0  0  0  0  0  0  0  0  0  0  0  0
   -1.9260    0.0001    0.4120 C   0  0  0  0  0  0  0  0  0  0  0  0
    0.2537   -1.2363    0.8097 C   0  0  0  0  0  0  0  0  0  0  0  0
    0.2537    1.2365    0.8095 C   0  0  0  0  0  0  0  0  0  0  0  0
   -0.0611   -0.0002   -1.3085 C   0  0  0  0  0  0  0  0  0  0  0  0
   -2.5607    1.2553   -0.1851 C   0  0  0  0  0  0  0  0  0  0  0  0
   -2.5608   -1.2553   -0.1850 C   0  0  0  0  0  0  0  0  0  0  0  0
  1  2  1  0
  1  3  1  0
  1  4  1  0
  2  7  1  0
  3  8  1  0
  4  9  1  0
  5  6  1  0
  5  7  1  0
  5  8  1  0
  5  9  1  0
  6 10  1  0
  6 11  1  0
M  END
>  <PUBCHEM_COMPOUND_CID>  (1) 
40030

>  <PUBCHEM_CONFORMER_RMSD>  (1) 
0.6

>  <PUBCHEM_CONFORMER_DIVERSEORDER>  (1) 
1

>  <PUBCHEM_MMFF94_PARTIAL_CHARGES>  (1) 
7
1 0.3
2 -0.38
3 -0.38
4 -0.38
7 0.28
8 0.28
9 0.28

>  <PUBCHEM_EFFECTIVE_ROTOR_COUNT>  (1) 
2.2

>  <PUBCHEM_PHARMACOPHORE_FEATURES>  (1) 
2
3 6 10 11 hydrophobe
8 1 2 3 4 5 7 8 9 rings

>  <PUBCHEM_HEAVY_ATOM_COUNT>  (1) 
11

>  <PUBCHEM_ATOM_DEF_STEREO_COUNT>  (1) 
0

>  <PUBCHEM_ATOM_UDEF_STEREO_COUNT>  (1) 
0

>  <PUBCHEM_BOND_DEF_STEREO_COUNT>  (1) 
0

>  <PUBCHEM_BOND_UDEF_STEREO_COUNT>  (1) 
0

>  <PUBCHEM_ISOTOPIC_ATOM_COUNT>  (1) 
0

>  <PUBCHEM_COMPONENT_COUNT>  (1) 
1

>  <PUBCHEM_CACTVS_TAUTO_COUNT>  (1) 
1

>  <PUBCHEM_CONFORMER_ID>  (1) 
00009C5E00000001

>  <PUBCHEM_MMFF94_ENERGY>  (1) 
43.621

>  <PUBCHEM_FEATURE_SELFOVERLAP>  (1) 
10.148

>  <PUBCHEM_SHAPE_FINGERPRINT>  (1) 
12423570 1 8395271002036437880
12716758 59 18270695151174582903
12932764 1 18410581686402320329
14128692 85 18187930521448106866
15775835 57 18335709308184994809
16945 1 18410855460138711409
21040471 1 18113907094971573162
23552423 10 18040998410367380619
29004967 10 17203338805166339790
369184 2 18412262839449107275
5084963 1 18200315562114903761
528886 8 17240493467748245303
68250623 7 17627221596136134022

>  <PUBCHEM_SHAPE_MULTIPOLES>  (1) 
212.62
3.38
1.41
1.13
1.02
0
0.33
0
0.19
0.3
-0.31
-0.31
0
0

>  <PUBCHEM_SHAPE_SELFOVERLAP>  (1) 
426.653

>  <PUBCHEM_SHAPE_VOLUME>  (1) 
128.9

>  <PUBCHEM_COORDINATE_TYPE>  (1) 
2
5
10

$$$$
