40040
     RDKit          3D

 24 26  0  0  1  0  0  0  0  0999 V2000
    1.7817   -1.2349    0.1541 O   0  0  0  0  0  0  0  0  0  0  0  0
    0.2810   -4.5860    0.2362 N   0  0  0  0  0  0  0  0  0  0  0  0
   -3.6824    0.7944    1.9969 C   0  0  0  0  0  0  0  0  0  0  0  0
   -2.5210    1.6864    1.5597 C   0  0  0  0  0  0  0  0  0  0  0  0
   -4.9763    1.0399    1.2229 C   0  0  0  0  0  0  0  0  0  0  0  0
   -1.8385    1.1983    0.3058 C   0  0  0  0  0  0  0  0  0  0  0  0
   -4.9139    0.6829   -0.2611 C   0  0  0  0  0  0  0  0  0  0  0  0
   -3.9543    1.5568   -1.0681 C   0  0  0  0  0  0  0  0  0  0  0  0
   -2.5117    1.1376   -0.9285 C   0  0  0  0  0  0  0  0  0  0  0  0
    0.1799    0.3509   -0.7633 C   0  0  0  0  0  0  0  0  0  0  0  0
   -0.4912    0.8027    0.3722 C   0  0  0  0  0  0  0  0  0  0  0  0
    1.6086   -0.0667   -0.6693 C   0  0  0  0  0  0  0  0  0  0  0  0
   -1.8204    0.6828   -2.0648 C   0  0  0  0  0  0  0  0  0  0  0  0
   -0.4849    0.2910   -1.9823 C   0  0  0  0  0  0  0  0  0  0  0  0
    2.5412    1.0355   -0.1796 C   0  0  0  0  0  0  0  0  0  0  0  0
    0.9304   -2.2812   -0.2716 C   0  0  0  0  0  0  0  0  0  0  0  0
    1.1513   -3.4872    0.6274 C   0  0  0  0  0  0  0  0  0  0  0  0
    3.0221    1.9522   -1.0901 C   0  0  0  0  0  0  0  0  0  0  0  0
    2.8727    1.0797    1.1580 C   0  0  0  0  0  0  0  0  0  0  0  0
    3.8751    2.9608   -0.6421 C   0  0  0  0  0  0  0  0  0  0  0  0
    3.7257    2.0885    1.6059 C   0  0  0  0  0  0  0  0  0  0  0  0
    4.2268    3.0290    0.7059 C   0  0  0  0  0  0  0  0  0  0  0  0
    0.5348   -4.9794   -1.1520 C   0  0  0  0  0  0  0  0  0  0  0  0
    0.4631   -5.7341    1.1279 C   0  0  0  0  0  0  0  0  0  0  0  0
  1 12  1  0
  1 16  1  0
  2 17  1  0
  2 23  1  0
  2 24  1  0
  3  4  1  0
  3  5  1  0
  4  6  1  0
  5  7  1  0
  6  9  2  0
  6 11  1  0
  7  8  1  0
  8  9  1  0
  9 13  1  0
 10 11  2  0
 10 12  1  0
 10 14  1  0
 12 15  1  0
 13 14  2  0
 15 18  2  0
 15 19  1  0
 16 17  1  0
 18 20  1  0
 19 21  2  0
 20 22  2  0
 21 22  1  0
M  END
>  <PUBCHEM_COMPOUND_CID>  (1) 
40040

>  <PUBCHEM_CONFORMER_RMSD>  (1) 
0.8

>  <PUBCHEM_CONFORMER_DIVERSEORDER>  (1) 
3
160
97
71
39
185
100
11
147
149
192
107
180
103
48
162
28
175
190
79
80
12
166
178
27
114
201
51
32
172
99
55
200
23
29
64
161
128
35
187
177
2
138
89
84
186
112
110
44
59
113
153
136
165
173
65
132
142
78
120
106
49
13
121
181
69
139
36
182
169
199
72
88
45
176
73
105
98
134
183
31
179
191
167
163
52
42
46
91
171
77
168
70
38
86
159
124
37
164
137
205
127
102
24
170
101
204
58
152
66
30
40
184
155
25
81
17
5
195
92
189
194
196
118
15
83
123
82
6
20
174
96
94
126
57
117
104
156
188
111
62
148
198
193
131
33
146
157
74
10
43
18
133
87
140
56
116
119
197
108
109
8
22
135
122
202
143
158
50
76
203
47
54
151
129
68
9
93
34
90
75
61
67
115
63
125
130
26
150
1
154
4
145
41
85
19
141
53
7
21
14
144
16
60
95

>  <PUBCHEM_MMFF94_PARTIAL_CHARGES>  (1) 
29
1 -0.56
10 -0.14
11 -0.15
12 0.57
13 -0.15
14 -0.15
15 -0.14
16 0.28
17 0.27
18 -0.15
19 -0.15
2 -0.81
20 -0.15
21 -0.15
22 -0.15
23 0.27
24 0.27
35 0.15
37 0.15
38 0.15
4 0.14
43 0.15
44 0.15
45 0.15
46 0.15
47 0.15
6 -0.14
8 0.14
9 -0.14

>  <PUBCHEM_EFFECTIVE_ROTOR_COUNT>  (1) 
7

>  <PUBCHEM_PHARMACOPHORE_FEATURES>  (1) 
5
1 1 acceptor
1 2 cation
6 15 18 19 20 21 22 rings
6 6 9 10 11 13 14 rings
7 3 4 5 6 7 8 9 rings

>  <PUBCHEM_HEAVY_ATOM_COUNT>  (1) 
24

>  <PUBCHEM_ATOM_DEF_STEREO_COUNT>  (1) 
0

>  <PUBCHEM_ATOM_UDEF_STEREO_COUNT>  (1) 
1

>  <PUBCHEM_BOND_DEF_STEREO_COUNT>  (1) 
0

>  <PUBCHEM_BOND_UDEF_STEREO_COUNT>  (1) 
0

>  <PUBCHEM_ISOTOPIC_ATOM_COUNT>  (1) 
0

>  <PUBCHEM_COMPONENT_COUNT>  (1) 
1

>  <PUBCHEM_CACTVS_TAUTO_COUNT>  (1) 
1

>  <PUBCHEM_CONFORMER_ID>  (1) 
00009C6800000003

>  <PUBCHEM_MMFF94_ENERGY>  (1) 
66.189

>  <PUBCHEM_FEATURE_SELFOVERLAP>  (1) 
25.38

>  <PUBCHEM_SHAPE_FINGERPRINT>  (1) 
10074138 170 17906431570382745834
10090160 65 18341044190222108541
10498660 4 16774081752312560889
121448 382 18126830810510766644
12160290 23 17909532193320734414
12788726 201 17837471313453950910
13140716 1 18411134727703029770
13533116 47 18122077416524438425
13583140 156 18124888858782040105
13955234 65 18266460914937551715
14289901 80 18409167676042890197
14787075 74 17770489043778160661
14863182 85 18045253589524239395
14955137 171 17772200704315306630
15142526 21 18201438150697368361
17138139 8 17626069269659854711
17349148 13 13478850914437328617
17868525 174 17763754186902567849
1813 80 17627235550701358526
204376 136 18337954587948577109
20600515 1 16823631570583447038
21120745 212 17182230647377665404
21796203 349 17763492542048462219
2255824 54 18268993094384842422
23559900 14 17750526082904567917
23845131 108 18339359785457258795
2637199 183 16988576705146018492
266924 78 18194378057501127631
283562 15 17397534790284366304
394222 165 17988359274123578423
4340502 62 18410857685601950017
458136 41 18410018710325771461
474 4 18200592617639579008
59755656 520 18340769351143800732
621550 34 18334017164333079157
633830 44 18059866068386365612
6442390 28 18338811124685944610
7097593 13 17838343973535457857
81228 2 17757552237352709038
84936 31 18335694984178834477

>  <PUBCHEM_SHAPE_MULTIPOLES>  (1) 
483.06
8.12
6.22
1.83
4.5
16.37
-0.04
-10.56
2.34
-4.7
1.19
0.89
-0.48
0.04

>  <PUBCHEM_SHAPE_SELFOVERLAP>  (1) 
1015.193

>  <PUBCHEM_SHAPE_VOLUME>  (1) 
271.1

>  <PUBCHEM_COORDINATE_TYPE>  (1) 
2
5
10

$$$$
