40051
     RDKit          3D

 19 20  0  0  0  0  0  0  0  0999 V2000
   -0.7772    0.1504   -0.1803 O   0  0  0  0  0  0  0  0  0  0  0  0
   -1.4938    2.3329   -0.3295 O   0  0  0  0  0  0  0  0  0  0  0  0
   -4.6346   -2.5952    0.3348 O   0  0  0  0  0  0  0  0  0  0  0  0
    2.8760   -0.2753   -0.4100 N   0  0  0  0  0  0  0  0  0  0  0  0
    5.6287   -0.1859    0.4693 N   0  0  0  0  0  0  0  0  0  0  0  0
   -4.4863   -1.3362    0.2113 N   0  0  0  0  0  0  0  0  0  0  0  0
    3.2968    0.6025    0.6889 C   0  0  0  0  0  0  0  0  0  0  0  0
    3.7356   -1.4635   -0.4741 C   0  0  0  0  0  0  0  0  0  0  0  0
    4.7685    1.0018    0.5353 C   0  0  0  0  0  0  0  0  0  0  0  0
    5.2071   -1.0640   -0.6289 C   0  0  0  0  0  0  0  0  0  0  0  0
    1.4731   -0.6569   -0.2613 C   0  0  0  0  0  0  0  0  0  0  0  0
    7.0313    0.1967    0.3189 C   0  0  0  0  0  0  0  0  0  0  0  0
    0.5751    0.5690   -0.3111 C   0  0  0  0  0  0  0  0  0  0  0  0
   -1.7141    1.1381   -0.2058 C   0  0  0  0  0  0  0  0  0  0  0  0
   -3.0791    0.5727   -0.0594 C   0  0  0  0  0  0  0  0  0  0  0  0
   -3.2254   -0.7885    0.0739 C   0  0  0  0  0  0  0  0  0  0  0  0
   -4.1620    1.4198   -0.0606 C   0  0  0  0  0  0  0  0  0  0  0  0
   -5.4358    0.8791    0.0769 C   0  0  0  0  0  0  0  0  0  0  0  0
   -5.5841   -0.4973    0.2118 C   0  0  0  0  0  0  0  0  0  0  0  0
  1 13  1  0
  1 14  1  0
  2 14  2  0
  3  6  1  0
  4  7  1  0
  4  8  1  0
  4 11  1  0
  5  9  1  0
  5 10  1  0
  5 12  1  0
  6 16  2  0
  6 19  1  0
  7  9  1  0
  8 10  1  0
 11 13  1  0
 14 15  1  0
 15 16  1  0
 15 17  2  0
 17 18  1  0
 18 19  2  0
M  CHG  2   3  -1   6   1
M  END
>  <PUBCHEM_COMPOUND_CID>  (1) 
40051

>  <PUBCHEM_CONFORMER_RMSD>  (1) 
0.8

>  <PUBCHEM_CONFORMER_DIVERSEORDER>  (1) 
1
74
5
140
43
51
107
131
174
65
125
26
6
134
81
20
132
55
48
120
71
164
169
31
75
39
60
16
116
53
150
41
35
24
162
42
167
23
106
2
154
146
45
82
155
101
59
158
137
143
10
103
19
8
67
142
102
95
85
46
7
57
147
173
79
96
21
124
36
112
73
151
144
87
62
127
63
34
69
22
49
25
139
126
9
115
83
78
100
66
161
98
104
109
145
91
114
70
11
64
99
172
171
40
47
89
86
18
54
28
80
105
157
128
156
61
29
93
33
110
133
170
56
138
77
38
149
92
50
3
135
111
94
58
118
12
123
119
32
166
136
108
175
14
72
27
122
117
90
15
168
121
76
165
113
148
160
97
30
152
37
52
13
141
4
130
163
88
159
84
17
129
44
153
68

>  <PUBCHEM_MMFF94_PARTIAL_CHARGES>  (1) 
23
1 -0.43
10 0.27
11 0.27
12 0.27
13 0.28
14 0.63
15 0.09
16 -0.06
17 -0.15
18 -0.15
19 -0.06
2 -0.57
3 -0.75
35 0.15
36 0.15
37 0.15
38 0.15
4 -0.81
5 -0.81
6 0.57
7 0.27
8 0.27
9 0.27

>  <PUBCHEM_EFFECTIVE_ROTOR_COUNT>  (1) 
6.2

>  <PUBCHEM_PHARMACOPHORE_FEATURES>  (1) 
6
1 2 acceptor
1 3 anion
1 4 cation
1 5 cation
6 4 5 7 8 9 10 rings
6 6 15 16 17 18 19 rings

>  <PUBCHEM_HEAVY_ATOM_COUNT>  (1) 
19

>  <PUBCHEM_ATOM_DEF_STEREO_COUNT>  (1) 
0

>  <PUBCHEM_ATOM_UDEF_STEREO_COUNT>  (1) 
0

>  <PUBCHEM_BOND_DEF_STEREO_COUNT>  (1) 
0

>  <PUBCHEM_BOND_UDEF_STEREO_COUNT>  (1) 
0

>  <PUBCHEM_ISOTOPIC_ATOM_COUNT>  (1) 
0

>  <PUBCHEM_COMPONENT_COUNT>  (1) 
1

>  <PUBCHEM_CACTVS_TAUTO_COUNT>  (1) 
1

>  <PUBCHEM_CONFORMER_ID>  (1) 
00009C7300000001

>  <PUBCHEM_MMFF94_ENERGY>  (1) 
42.9769

>  <PUBCHEM_FEATURE_SELFOVERLAP>  (1) 
30.448

>  <PUBCHEM_SHAPE_FINGERPRINT>  (1) 
10 15 18342446081154728720
10968037 39 18408323281087234949
11045977 3 18272085024045377585
11287383 113 18413389839226319296
11315181 36 18410294722610737097
11524674 6 17203607094773287967
12091667 2 16588023498286818733
12107183 9 17546164104245540920
12236239 1 17240202114441744812
12616971 3 17095252418567939525
12730499 353 17989489620092004774
13288520 33 18407760344087365149
13533116 47 14261077533074824022
13668630 136 14707213197190369552
13911882 115 18131080315831529678
1420 363 18413673504325114550
14251718 22 18334013887304232376
14251732 16 18411699924398899216
14251764 18 18059861662714679857
14341114 176 18272092669277068252
17834072 33 18186526518388005972
17844677 252 18341337729492934880
18222031 100 17530969068730629316
19489759 90 17822008696780208257
21054139 6 17749105625619365218
21267235 1 18334301994042855019
21315759 40 14692565511759287380
21623969 137 17704076187802704822
220451 1 18040720229693759626
2297311 6 18340494386857398012
23035841 295 18333449833079940625
23198884 109 11743838070901245837
23402539 116 18187362129696872351
23557571 272 18270122305448226452
23559900 14 18411411822034800649
239999 70 18272656719211830550
26918003 58 18272369767602957121
29717793 49 14779546747747123074
300161 21 18113894923287418279
3545911 37 18130785651494997004
4073 2 18334300881129731234
4214541 1 18410857633819755805
4325135 7 18334860532669237708
474229 33 18412544323090060342
5104073 3 18129376000199636786
542803 24 16660650630668251372
67856867 119 18115313396293203148
7495541 125 18273212023838420392

>  <PUBCHEM_SHAPE_MULTIPOLES>  (1) 
358.46
17.26
1.78
0.72
10.2
0.36
-0.01
2.38
-2.06
-1.89
0.01
0.35
0
1.03

>  <PUBCHEM_SHAPE_SELFOVERLAP>  (1) 
737.109

>  <PUBCHEM_SHAPE_VOLUME>  (1) 
207

>  <PUBCHEM_COORDINATE_TYPE>  (1) 
2
5
10

$$$$
