40062
     RDKit          3D

 15 15  0  0  1  0  0  0  0  0999 V2000
    1.0931    0.5684    0.3215 O   0  0  0  0  0  0  0  0  0  0  0  0
    0.5672    2.4584   -0.8872 O   0  0  0  0  0  0  0  0  0  0  0  0
   -1.9082    2.6045    0.2281 N   0  0  0  0  0  0  0  0  0  0  0  0
    3.1834   -0.5994    0.3400 C   0  0  0  0  0  0  0  0  0  0  0  0
   -1.0901    1.4440    0.5912 C   0  0  0  0  0  0  0  0  0  0  0  0
    2.4038    0.5785   -0.2270 C   0  0  0  0  0  0  0  0  0  0  0  0
    4.6113   -0.6410   -0.1967 C   0  0  0  0  0  0  0  0  0  0  0  0
   -1.7864    0.1467    0.2397 C   0  0  0  0  0  0  0  0  0  0  0  0
    0.2597    1.5766   -0.0952 C   0  0  0  0  0  0  0  0  0  0  0  0
    5.3992   -1.7935    0.4050 C   0  0  0  0  0  0  0  0  0  0  0  0
   -2.6386   -0.4339    1.1627 C   0  0  0  0  0  0  0  0  0  0  0  0
   -1.5559   -0.4299   -0.9972 C   0  0  0  0  0  0  0  0  0  0  0  0
   -3.2804   -1.6292    0.8389 C   0  0  0  0  0  0  0  0  0  0  0  0
   -2.1979   -1.6252   -1.3210 C   0  0  0  0  0  0  0  0  0  0  0  0
   -3.0601   -2.2248   -0.4030 C   0  0  0  0  0  0  0  0  0  0  0  0
  1  6  1  0
  1  9  1  0
  2  9  2  0
  3  5  1  0
  4  6  1  0
  4  7  1  0
  5  8  1  0
  5  9  1  0
  7 10  1  0
  8 11  2  0
  8 12  1  0
 11 13  1  0
 12 14  2  0
 13 15  2  0
 14 15  1  0
M  END
>  <PUBCHEM_COMPOUND_CID>  (1) 
40062

>  <PUBCHEM_CONFORMER_RMSD>  (1) 
0.6

>  <PUBCHEM_CONFORMER_DIVERSEORDER>  (1) 
6
90
317
306
26
118
409
277
146
167
282
58
116
363
329
365
173
375
183
406
331
408
97
318
113
91
5
215
85
218
255
16
68
364
151
229
233
358
332
135
261
244
336
309
245
103
352
127
239
194
52
140
351
3
136
143
395
298
139
397
256
219
13
176
96
191
402
109
197
260
165
259
320
190
357
254
42
55
341
300
88
128
54
100
338
241
334
45
170
382
220
199
266
262
214
301
60
273
93
368
248
228
299
56
29
290
51
132
370
172
102
366
286
205
268
202
179
238
50
107
71
133
9
393
30
130
327
11
350
188
235
283
264
201
166
272
148
394
319
403
293
230
69
383
270
400
381
124
154
153
24
25
159
247
347
114
250
155
315
98
224
2
78
175
236
362
348
200
157
292
122
1
117
22
323
373
198
304
28
278
339
21
342
242
138
265
234
333
161
371
195
380
222
407
53
44
33
31
271
99
379
203
171
123
178
158
196
227
7
79
325
38
399
209
185
144
269
37
378
182
376
156
27
288
314
359
384
104
147
59
303
307
251
287
65
294
276
36
160
252
208
346
369
216
86
225
243
396
313
372
207
101
57
89
377
4
62
386
193
297
70
95
39
291
335
356
126
150
87
330
141
82
311
17
105
169
284
61
63
75
119
206
310
14
312
308
142
81
361
392
340
192
258
398
72
162
34
94
168
226
15
174
337
47
137
405
115
49
177
77
305
32
23
73
74
134
353
385
360
106
35
240
186
80
275
217
40
213
48
223
164
391
111
12
184
321
267
145
20
110
237
232
328
302
152
84
112
125
274
316
10
189
390
76
404
67
401
343
108
181
66
349
92
187
121
83
296
354
120
374
253
149
204
129
231
19
322
180
18
279
295
367
221
388
281
8
210
163
285
43
263
326
324
345
64
46
131
257
211
387
280
212
289
355
41
246
344
249
389

>  <PUBCHEM_MMFF94_PARTIAL_CHARGES>  (1) 
19
1 -0.43
11 -0.15
12 -0.15
13 -0.15
14 -0.15
15 -0.15
2 -0.57
26 0.15
27 0.15
28 0.36
29 0.36
3 -0.99
30 0.15
31 0.15
32 0.15
5 0.47
6 0.28
8 -0.14
9 0.66

>  <PUBCHEM_EFFECTIVE_ROTOR_COUNT>  (1) 
6

>  <PUBCHEM_PHARMACOPHORE_FEATURES>  (1) 
5
1 10 hydrophobe
1 2 acceptor
1 3 cation
1 3 donor
6 8 11 12 13 14 15 rings

>  <PUBCHEM_HEAVY_ATOM_COUNT>  (1) 
15

>  <PUBCHEM_ATOM_DEF_STEREO_COUNT>  (1) 
0

>  <PUBCHEM_ATOM_UDEF_STEREO_COUNT>  (1) 
1

>  <PUBCHEM_BOND_DEF_STEREO_COUNT>  (1) 
0

>  <PUBCHEM_BOND_UDEF_STEREO_COUNT>  (1) 
0

>  <PUBCHEM_ISOTOPIC_ATOM_COUNT>  (1) 
0

>  <PUBCHEM_COMPONENT_COUNT>  (1) 
1

>  <PUBCHEM_CACTVS_TAUTO_COUNT>  (1) 
1

>  <PUBCHEM_CONFORMER_ID>  (1) 
00009C7E00000006

>  <PUBCHEM_MMFF94_ENERGY>  (1) 
25.0843

>  <PUBCHEM_FEATURE_SELFOVERLAP>  (1) 
25.371

>  <PUBCHEM_SHAPE_FINGERPRINT>  (1) 
11046707 91 18412543189608733418
11357001 24 18341055129329439521
12553582 1 18341057427115778934
12633257 1 16415485998957444074
14123260 362 9007053591426613546
15375462 189 17984994935814472856
16945 1 16915125016911522241
1813 80 18336842960544555150
20281475 54 18410013217806326712
20291156 8 18410293640104762098
20361792 2 18335978778416805461
204376 136 10087648108413425486
20645477 70 17973430298694902231
20671657 53 18187648058660339524
20871998 184 18271530797001807205
21713013 43 16878504660550620531
23402539 116 17822574902946451098
23559900 14 18342163476027021728
23728640 28 18269272370274903083
27216 239 11167936991459827623
341906 21 8357961218854400526
559249 180 18118397346183459554
7970288 3 18336265738342151362
85463 6 18202272624267052054

>  <PUBCHEM_SHAPE_MULTIPOLES>  (1) 
291.97
8.28
2.65
1.05
13.51
0.92
-0.08
-6.97
1.21
-1.17
-0.27
-0.71
-0.23
-0.64

>  <PUBCHEM_SHAPE_SELFOVERLAP>  (1) 
587.474

>  <PUBCHEM_SHAPE_VOLUME>  (1) 
171.4

>  <PUBCHEM_COORDINATE_TYPE>  (1) 
2
5
10

$$$$
