40060
     RDKit          3D

 15 15  0  0  0  0  0  0  0  0999 V2000
    2.4372   -1.3644   -0.2384 O   0  0  0  0  0  0  0  0  0  0  0  0
    0.2730   -3.5450    1.3438 N   0  0  0  0  0  0  0  0  0  0  0  0
    0.9975    0.5227   -0.5111 C   0  0  0  0  0  0  0  0  0  0  0  0
   -1.3973    0.2047   -0.5339 C   0  0  0  0  0  0  0  0  0  0  0  0
    2.1701    1.4433   -0.5966 C   0  0  0  0  0  0  0  0  0  0  0  0
   -2.7743    0.7675   -0.6398 C   0  0  0  0  0  0  0  0  0  0  0  0
   -0.2902    1.0496   -0.6107 C   0  0  0  0  0  0  0  0  0  0  0  0
    0.0710   -1.6940   -0.2573 C   0  0  0  0  0  0  0  0  0  0  0  0
    1.1780   -0.8491   -0.3343 C   0  0  0  0  0  0  0  0  0  0  0  0
   -1.2168   -1.1672   -0.3571 C   0  0  0  0  0  0  0  0  0  0  0  0
    2.5887    1.9780    0.7793 C   0  0  0  0  0  0  0  0  0  0  0  0
   -3.3474    1.1636    0.7281 C   0  0  0  0  0  0  0  0  0  0  0  0
    0.2441   -3.1653   -0.0690 C   0  0  0  0  0  0  0  0  0  0  0  0
    3.8037    2.8876    0.6885 C   0  0  0  0  0  0  0  0  0  0  0  0
   -4.7374    1.7681    0.6088 C   0  0  0  0  0  0  0  0  0  0  0  0
  1  9  1  0
  2 13  1  0
  3  5  1  0
  3  7  2  0
  3  9  1  0
  4  6  1  0
  4  7  1  0
  4 10  2  0
  5 11  1  0
  6 12  1  0
  8  9  2  0
  8 10  1  0
  8 13  1  0
 11 14  1  0
 12 15  1  0
M  END
>  <PUBCHEM_COMPOUND_CID>  (1) 
40060

>  <PUBCHEM_CONFORMER_RMSD>  (1) 
0.6

>  <PUBCHEM_CONFORMER_DIVERSEORDER>  (1) 
3
85
67
75
64
87
74
30
84
82
25
70
83
66
78
49
24
81
62
59
22
80
86
50
40
46
79
21
60
58
35
76
47
23
32
55
54
56
73
43
51
48
33
77
72
17
63
18
53
20
31
71
13
16
57
61
68
38
15
26
29
4
39
34
45
19
69
7
65
42
37
36
52
6
28
44
5
41
12
14
2
11
9
8
1
10
27

>  <PUBCHEM_MMFF94_PARTIAL_CHARGES>  (1) 
16
1 -0.53
10 -0.15
13 0.41
2 -0.99
20 0.15
21 0.15
3 -0.14
34 0.45
35 0.36
36 0.36
4 -0.14
5 0.14
6 0.14
7 -0.15
8 -0.14
9 0.08

>  <PUBCHEM_EFFECTIVE_ROTOR_COUNT>  (1) 
5

>  <PUBCHEM_PHARMACOPHORE_FEATURES>  (1) 
6
1 1 donor
1 14 hydrophobe
1 15 hydrophobe
1 2 cation
1 2 donor
6 3 4 7 8 9 10 rings

>  <PUBCHEM_HEAVY_ATOM_COUNT>  (1) 
15

>  <PUBCHEM_ATOM_DEF_STEREO_COUNT>  (1) 
0

>  <PUBCHEM_ATOM_UDEF_STEREO_COUNT>  (1) 
0

>  <PUBCHEM_BOND_DEF_STEREO_COUNT>  (1) 
0

>  <PUBCHEM_BOND_UDEF_STEREO_COUNT>  (1) 
0

>  <PUBCHEM_ISOTOPIC_ATOM_COUNT>  (1) 
0

>  <PUBCHEM_COMPONENT_COUNT>  (1) 
1

>  <PUBCHEM_CACTVS_TAUTO_COUNT>  (1) 
3

>  <PUBCHEM_CONFORMER_ID>  (1) 
00009C7C00000003

>  <PUBCHEM_MMFF94_ENERGY>  (1) 
25.5726

>  <PUBCHEM_FEATURE_SELFOVERLAP>  (1) 
30.446

>  <PUBCHEM_SHAPE_FINGERPRINT>  (1) 
11357001 24 17758954118593308810
12390115 104 18126865994851746009
12532896 13 18340208603949108388
13140716 1 18408884027295340891
13275264 69 17252303609947363586
13380535 76 18267573800961677126
136203 1 17833830856007364859
14178342 30 18261682549325750145
15502708 68 18336542733508683533
16945 1 18192983829628712751
1741750 31 18270116967051595640
19021347 4 18265331883593491507
19765921 60 18131067160346467929
201361 129 18270970033535113529
20510252 161 17982450704499084377
20671657 1 18269278971724110943
21041028 32 17546166298958108123
21524375 3 18271516585023609645
21650355 55 17185866741184106818
21731228 192 18336542815002292408
2334 1 18336827610067915775
23402539 116 17836912770057627023
23558518 356 18265334086933300870
23559900 14 18270411615648188748
2748010 2 18334864947415752015
305870 269 18410851066471901337
3071541 236 17974835465527051614
3091708 16 9334272619343607807
31174 14 18120096074668886429
394222 165 18272373019024978585
474 4 18342451526345331393
57003041 12 18340771541518631673
57672749 33 18120929508266239058
58807428 26 18335969926763463320
633830 44 18202284697378228701
7364860 26 18197782106888259295
81228 2 17831299767339673711
84936 182 18202281381557961601
9999458 23 18337961077791406629

>  <PUBCHEM_SHAPE_MULTIPOLES>  (1) 
297.84
5.96
3.82
0.97
3.41
3
0.15
-7.71
1.69
-1.7
1.45
0.03
0.07
0.11

>  <PUBCHEM_SHAPE_SELFOVERLAP>  (1) 
597.867

>  <PUBCHEM_SHAPE_VOLUME>  (1) 
177.3

>  <PUBCHEM_COORDINATE_TYPE>  (1) 
2
5
10

$$$$
