40068
     RDKit          3D

 20 21  0  0  0  0  0  0  0  0999 V2000
   -1.8420    0.1581    0.0116 O   0  0  0  0  0  0  0  0  0  0  0  0
   -0.3255    1.8698   -0.0090 O   0  0  0  0  0  0  0  0  0  0  0  0
    6.6042   -1.1856    0.0020 O   0  0  0  0  0  0  0  0  0  0  0  0
    6.5013    1.0071   -0.0200 O   0  0  0  0  0  0  0  0  0  0  0  0
    0.3466   -0.3771    0.0113 N   0  0  0  0  0  0  0  0  0  0  0  0
    5.9454   -0.1177   -0.0067 N   0  0  0  0  0  0  0  0  0  0  0  0
   -6.0201   -0.6121   -1.2257 N   0  0  0  0  0  0  0  0  0  0  0  0
    1.7403   -0.3126    0.0068 C   0  0  0  0  0  0  0  0  0  0  0  0
   -2.9063    1.1167    0.0056 C   0  0  0  0  0  0  0  0  0  0  0  0
   -4.2194    0.3907    0.0163 C   0  0  0  0  0  0  0  0  0  0  0  0
    2.4926   -1.4871    0.0168 C   0  0  0  0  0  0  0  0  0  0  0  0
    2.3813    0.9261   -0.0075 C   0  0  0  0  0  0  0  0  0  0  0  0
    4.5271   -0.1842   -0.0018 C   0  0  0  0  0  0  0  0  0  0  0  0
    3.8859   -1.4229    0.0124 C   0  0  0  0  0  0  0  0  0  0  0  0
    3.7747    0.9903   -0.0119 C   0  0  0  0  0  0  0  0  0  0  0  0
   -4.8315    0.0616    1.2129 C   0  0  0  0  0  0  0  0  0  0  0  0
   -0.5718    0.6700    0.0031 C   0  0  0  0  0  0  0  0  0  0  0  0
   -4.8378    0.0407   -1.1653 C   0  0  0  0  0  0  0  0  0  0  0  0
   -6.0487   -0.6103    1.1917 C   0  0  0  0  0  0  0  0  0  0  0  0
   -6.5963   -0.9215   -0.0424 C   0  0  0  0  0  0  0  0  0  0  0  0
  1  9  1  0
  1 17  1  0
  2 17  2  0
  3  6  1  0
  4  6  2  0
  5  8  1  0
  5 17  1  0
  6 13  1  0
  7 18  2  0
  7 20  1  0
  8 11  2  0
  8 12  1  0
  9 10  1  0
 10 16  2  0
 10 18  1  0
 11 14  1  0
 12 15  2  0
 13 14  2  0
 13 15  1  0
 16 19  1  0
 19 20  2  0
M  CHG  2   3  -1   6   1
M  END
>  <PUBCHEM_COMPOUND_CID>  (1) 
40068

>  <PUBCHEM_CONFORMER_RMSD>  (1) 
0.8

>  <PUBCHEM_CONFORMER_DIVERSEORDER>  (1) 
2
25
17
7
14
6
28
1
11
5
27
16
26
24
10
13
9
15
4
12
3
8
19
21
23
20
18
22

>  <PUBCHEM_MMFF94_PARTIAL_CHARGES>  (1) 
29
1 -0.43
10 -0.14
11 -0.15
12 -0.15
13 0.13
14 -0.15
15 -0.15
16 -0.15
17 0.78
18 0.16
19 -0.15
2 -0.57
20 0.16
23 0.15
24 0.15
25 0.37
26 0.15
27 0.15
28 0.15
29 0.15
3 -0.52
30 0.15
31 0.15
4 -0.52
5 -0.55
6 0.91
7 -0.62
8 0.12
9 0.42

>  <PUBCHEM_EFFECTIVE_ROTOR_COUNT>  (1) 
6

>  <PUBCHEM_PHARMACOPHORE_FEATURES>  (1) 
8
1 2 acceptor
1 3 acceptor
1 3 anion
1 4 acceptor
1 5 donor
1 7 acceptor
6 7 10 16 18 19 20 rings
6 8 11 12 13 14 15 rings

>  <PUBCHEM_HEAVY_ATOM_COUNT>  (1) 
20

>  <PUBCHEM_ATOM_DEF_STEREO_COUNT>  (1) 
0

>  <PUBCHEM_ATOM_UDEF_STEREO_COUNT>  (1) 
0

>  <PUBCHEM_BOND_DEF_STEREO_COUNT>  (1) 
0

>  <PUBCHEM_BOND_UDEF_STEREO_COUNT>  (1) 
0

>  <PUBCHEM_ISOTOPIC_ATOM_COUNT>  (1) 
0

>  <PUBCHEM_COMPONENT_COUNT>  (1) 
1

>  <PUBCHEM_CACTVS_TAUTO_COUNT>  (1) 
2

>  <PUBCHEM_CONFORMER_ID>  (1) 
00009C8400000002

>  <PUBCHEM_MMFF94_ENERGY>  (1) 
57.2389

>  <PUBCHEM_FEATURE_SELFOVERLAP>  (1) 
40.679

>  <PUBCHEM_SHAPE_FINGERPRINT>  (1) 
10 15 18114176484897101008
10087517 78 12973874893486523807
10299344 5 17775568645421692911
10968037 39 18409448098715137911
11315181 36 17313107462748086949
12091667 2 18413671301502874201
12166972 35 18411984671914550792
12236239 1 17775005678319940472
12516196 113 18272932725982886825
12596602 18 16702300174252315339
13288520 33 18343863325730579381
13533116 47 17846781767902358242
13668630 136 18259987080689021347
13862211 1 18411417306285537542
14123256 10 18335420175007119911
1420 363 18333736814283923795
14251718 22 17967532367603621061
14251764 18 17703790340512090447
14251764 46 17821728338642518794
14848160 23 17749390369076224035
14849402 71 17345747629038757928
15142383 8 13039193576209149938
15348495 7 13326558696760372303
15716309 27 18202284697541219339
17492 89 18124033421640157042
17844677 252 18409453579020113309
19489759 90 15791730798236911741
200 152 18341331119585362465
21150785 3 15936697029138773150
21267235 1 18341337712940157038
21521721 280 18059574737171165904
21623969 137 18410300207041530283
220451 1 17132114636700215591
22224240 67 18410288143079269546
22896161 15 18411419535384159138
23035841 295 17704071793729257943
23218964 4 9943806681626830688
23402539 116 18413388714119233769
23522609 53 17844555329164116736
23559900 14 17894912983675883297
300161 21 7997967959854821445
314194 84 18342457045636568035
34797466 226 16988848306936940244
351380 3 18131347514515763463
3545911 37 18409449193699728690
4325135 7 18413106165025860783
474229 33 18409730659997158771
5104073 3 18268145353776985752
542803 24 16056879126116815393
59755656 215 17894912902066366530

>  <PUBCHEM_SHAPE_MULTIPOLES>  (1) 
373.17
19.11
1.35
0.88
1.6
0.04
0
-4.46
-0.07
-0.95
-0.01
1.61
-0.08
0.04

>  <PUBCHEM_SHAPE_SELFOVERLAP>  (1) 
796.409

>  <PUBCHEM_SHAPE_VOLUME>  (1) 
205.4

>  <PUBCHEM_COORDINATE_TYPE>  (1) 
2
5
10

$$$$
