40077
     RDKit          3D

 19 20  0  0  0  0  0  0  0  0999 V2000
   -3.1299   -2.2258   -0.2884 O   0  0  0  0  0  0  0  0  0  0  0  0
    1.3271    2.3326   -0.2040 O   0  0  0  0  0  0  0  0  0  0  0  0
   -1.1092   -2.0184    0.7944 O   0  0  0  0  0  0  0  0  0  0  0  0
    0.0724    0.3577    0.0207 N   0  0  0  0  0  0  0  0  0  0  0  0
    4.8451    0.2614    0.4288 N   0  0  0  0  0  0  0  0  0  0  0  0
   -1.2489    0.8137    0.0081 C   0  0  0  0  0  0  0  0  0  0  0  0
   -2.3171   -0.0760    0.1216 C   0  0  0  0  0  0  0  0  0  0  0  0
   -1.4910    2.1813   -0.1205 C   0  0  0  0  0  0  0  0  0  0  0  0
   -3.6275    0.4020    0.1066 C   0  0  0  0  0  0  0  0  0  0  0  0
    1.2447    1.1152   -0.0824 C   0  0  0  0  0  0  0  0  0  0  0  0
    2.5093    0.3341   -0.0657 C   0  0  0  0  0  0  0  0  0  0  0  0
   -2.8013    2.6594   -0.1354 C   0  0  0  0  0  0  0  0  0  0  0  0
   -3.8695    1.7697   -0.0219 C   0  0  0  0  0  0  0  0  0  0  0  0
   -2.0995   -1.5110    0.2558 C   0  0  0  0  0  0  0  0  0  0  0  0
    2.5141   -0.9672   -0.5047 C   0  0  0  0  0  0  0  0  0  0  0  0
    3.6625    0.9152    0.3871 C   0  0  0  0  0  0  0  0  0  0  0  0
    3.7120   -1.6726   -0.4771 C   0  0  0  0  0  0  0  0  0  0  0  0
    4.8391   -1.0188   -0.0056 C   0  0  0  0  0  0  0  0  0  0  0  0
   -3.0323   -3.6524   -0.2173 C   0  0  0  0  0  0  0  0  0  0  0  0
  1 14  1  0
  1 19  1  0
  2 10  2  0
  3 14  2  0
  4  6  1  0
  4 10  1  0
  5 16  2  0
  5 18  1  0
  6  7  2  0
  6  8  1  0
  7  9  1  0
  7 14  1  0
  8 12  2  0
  9 13  2  0
 10 11  1  0
 11 15  2  0
 11 16  1  0
 12 13  1  0
 15 17  1  0
 17 18  2  0
M  END
>  <PUBCHEM_COMPOUND_CID>  (1) 
40077

>  <PUBCHEM_CONFORMER_RMSD>  (1) 
0.6

>  <PUBCHEM_CONFORMER_DIVERSEORDER>  (1) 
2
27
33
15
44
13
24
12
37
25
20
35
29
8
21
10
41
38
26
14
16
43
23
17
18
1
39
30
36
32
11
22
34
3
7
31
19
40
4
42
6
28
9
5

>  <PUBCHEM_MMFF94_PARTIAL_CHARGES>  (1) 
28
1 -0.43
10 0.54
11 0.09
12 -0.15
13 -0.15
14 0.63
15 -0.15
16 0.16
17 -0.15
18 0.16
19 0.28
2 -0.57
20 0.37
21 0.15
22 0.15
23 0.15
24 0.15
25 0.15
26 0.15
27 0.15
28 0.15
3 -0.57
4 -0.55
5 -0.62
6 0.12
7 0.09
8 -0.15
9 -0.15

>  <PUBCHEM_EFFECTIVE_ROTOR_COUNT>  (1) 
5

>  <PUBCHEM_PHARMACOPHORE_FEATURES>  (1) 
6
1 2 acceptor
1 3 acceptor
1 4 donor
1 5 acceptor
6 5 11 15 16 17 18 rings
6 6 7 8 9 12 13 rings

>  <PUBCHEM_HEAVY_ATOM_COUNT>  (1) 
19

>  <PUBCHEM_ATOM_DEF_STEREO_COUNT>  (1) 
0

>  <PUBCHEM_ATOM_UDEF_STEREO_COUNT>  (1) 
0

>  <PUBCHEM_BOND_DEF_STEREO_COUNT>  (1) 
0

>  <PUBCHEM_BOND_UDEF_STEREO_COUNT>  (1) 
0

>  <PUBCHEM_ISOTOPIC_ATOM_COUNT>  (1) 
0

>  <PUBCHEM_COMPONENT_COUNT>  (1) 
1

>  <PUBCHEM_CACTVS_TAUTO_COUNT>  (1) 
3

>  <PUBCHEM_CONFORMER_ID>  (1) 
00009C8D00000002

>  <PUBCHEM_MMFF94_ENERGY>  (1) 
66.2267

>  <PUBCHEM_FEATURE_SELFOVERLAP>  (1) 
30.446

>  <PUBCHEM_SHAPE_FINGERPRINT>  (1) 
10366900 7 17560794399412608984
10616163 171 18411984676077214006
11578080 2 17345459569665419123
12346177 29 18410567388261071751
12500047 106 18338793412362414540
12553582 1 17832721427516795731
12555020 224 18337944585364851415
13140716 1 18338806731372374481
13544592 145 18126292943551281126
13583140 156 17703216421207056872
138480 1 16825589186221964775
14178342 30 18337095835429006530
14790565 3 18051419474354948033
14965852 173 18410856581157077437
15042514 8 18336552698581805643
15196674 1 18411138048076557962
15352361 1 18267302212783936455
15375358 24 18271524191711085276
17492 89 18338236080458701746
17804303 29 18411142411193904412
19141452 34 18411140216708014325
19591789 44 18048880697747570051
200 152 17489297556062259893
20510252 161 18198905816547105505
20645477 56 18408886200559705849
20645477 70 17345754067325862366
21065198 57 18412262805490470888
21267235 1 18337401460574273120
21478907 32 18266740375949659759
21501502 16 18263933296250300060
221490 88 18339366374311682440
23184049 29 18338240478198614781
23402539 116 18342167844187999413
23557571 272 18272938240625754246
23558518 356 18188493613119566305
23559900 14 18342736270308729080
23622692 118 18268707388585854894
26918003 58 18201996587077426416
3421961 26 17619069868895146011
4214541 1 18411138004831596352
5104073 3 18341891909549808840
5309563 4 17832714843195378827
532947 4 17837212571881478479
559249 180 18043526106274775530
5924683 9 18342450478178060695
69090 78 18339359665187767557
81228 2 18189333649020344385
8809292 202 18409733945604578488
9709674 26 18343304738741400470

>  <PUBCHEM_SHAPE_MULTIPOLES>  (1) 
363.44
9.12
3.35
0.68
8.01
2.09
-0.01
1.21
-0.12
-4.05
0.23
0.09
0.08
0.32

>  <PUBCHEM_SHAPE_SELFOVERLAP>  (1) 
783.146

>  <PUBCHEM_SHAPE_VOLUME>  (1) 
198.7

>  <PUBCHEM_COORDINATE_TYPE>  (1) 
2
5
10

$$$$
