40083
     RDKit          3D

 21 23  0  0  0  0  0  0  0  0999 V2000
    2.8499    1.1666   -0.0054 O   0  0  0  0  0  0  0  0  0  0  0  0
    1.9269    3.2523    0.0389 O   0  0  0  0  0  0  0  0  0  0  0  0
   -1.7954    1.7588    0.0466 O   0  0  0  0  0  0  0  0  0  0  0  0
   -0.4354    3.4911    0.0556 O   0  0  0  0  0  0  0  0  0  0  0  0
   -1.0352   -0.5100    0.0129 N   0  0  0  0  0  0  0  0  0  0  0  0
   -3.8375   -0.6029    0.0896 N   0  0  0  0  0  0  0  0  0  0  0  0
   -0.6741    2.2786    0.0440 N   0  0  0  0  0  0  0  0  0  0  0  0
   -1.7110   -0.8505    1.2673 C   0  0  0  0  0  0  0  0  0  0  0  0
   -1.6995   -0.9213   -1.2199 C   0  0  0  0  0  0  0  0  0  0  0  0
   -3.0991   -1.4488    1.0246 C   0  0  0  0  0  0  0  0  0  0  0  0
   -3.1726   -0.4932   -1.2162 C   0  0  0  0  0  0  0  0  0  0  0  0
    0.1977    0.0768    0.0115 C   0  0  0  0  0  0  0  0  0  0  0  0
    1.3926   -0.8064   -0.0073 C   0  0  0  0  0  0  0  0  0  0  0  0
   -5.2270   -1.0240   -0.0471 C   0  0  0  0  0  0  0  0  0  0  0  0
    0.4494    1.3966    0.0249 C   0  0  0  0  0  0  0  0  0  0  0  0
    2.6684   -0.2310   -0.0166 C   0  0  0  0  0  0  0  0  0  0  0  0
    1.3345   -2.2104   -0.0146 C   0  0  0  0  0  0  0  0  0  0  0  0
    1.7732    2.0367    0.0214 C   0  0  0  0  0  0  0  0  0  0  0  0
    3.8408   -0.9929   -0.0351 C   0  0  0  0  0  0  0  0  0  0  0  0
    2.5008   -2.9871   -0.0322 C   0  0  0  0  0  0  0  0  0  0  0  0
    3.7525   -2.3791   -0.0429 C   0  0  0  0  0  0  0  0  0  0  0  0
  1 16  1  0
  1 18  1  0
  2 18  2  0
  3  7  1  0
  4  7  2  0
  5  8  1  0
  5  9  1  0
  5 12  1  0
  6 10  1  0
  6 11  1  0
  6 14  1  0
  7 15  1  0
  8 10  1  0
  9 11  1  0
 12 13  1  0
 12 15  2  0
 13 16  2  0
 13 17  1  0
 15 18  1  0
 16 19  1  0
 17 20  2  0
 19 21  2  0
 20 21  1  0
M  CHG  2   3  -1   7   1
M  END
>  <PUBCHEM_COMPOUND_CID>  (1) 
40083

>  <PUBCHEM_CONFORMER_RMSD>  (1) 
0.6

>  <PUBCHEM_CONFORMER_DIVERSEORDER>  (1) 
1
2

>  <PUBCHEM_MMFF94_PARTIAL_CHARGES>  (1) 
25
1 -0.23
10 0.27
11 0.27
12 0.07
13 0.03
14 0.27
15 0.22
16 0.08
17 -0.15
18 0.71
19 -0.15
2 -0.57
20 -0.15
21 -0.15
3 -0.52
33 0.15
34 0.15
35 0.15
36 0.15
4 -0.52
5 -0.84
6 -0.81
7 0.84
8 0.37
9 0.37

>  <PUBCHEM_EFFECTIVE_ROTOR_COUNT>  (1) 
3.2

>  <PUBCHEM_PHARMACOPHORE_FEATURES>  (1) 
9
1 2 acceptor
1 3 acceptor
1 3 anion
1 4 acceptor
1 5 cation
1 6 cation
6 1 12 13 15 16 18 rings
6 13 16 17 19 20 21 rings
6 5 6 8 9 10 11 rings

>  <PUBCHEM_HEAVY_ATOM_COUNT>  (1) 
21

>  <PUBCHEM_ATOM_DEF_STEREO_COUNT>  (1) 
0

>  <PUBCHEM_ATOM_UDEF_STEREO_COUNT>  (1) 
0

>  <PUBCHEM_BOND_DEF_STEREO_COUNT>  (1) 
0

>  <PUBCHEM_BOND_UDEF_STEREO_COUNT>  (1) 
0

>  <PUBCHEM_ISOTOPIC_ATOM_COUNT>  (1) 
0

>  <PUBCHEM_COMPONENT_COUNT>  (1) 
1

>  <PUBCHEM_CACTVS_TAUTO_COUNT>  (1) 
1

>  <PUBCHEM_CONFORMER_ID>  (1) 
00009C9300000001

>  <PUBCHEM_MMFF94_ENERGY>  (1) 
95.6214

>  <PUBCHEM_FEATURE_SELFOVERLAP>  (1) 
45.815

>  <PUBCHEM_SHAPE_FINGERPRINT>  (1) 
10411042 1 18338798901383749618
10967382 1 18338799030358706438
10989021 7 18413109450380462290
1100329 8 18123184864993041242
11471102 20 18337670914000981711
11578080 2 17344596345679646489
11680986 33 18340194185881467800
116883 192 18339080359011142957
12236239 1 17632300107354072655
12553582 1 18341324531243057326
13140716 1 18050842514491688930
138480 1 18410856581310266096
14178342 30 17976525127822307346
14790565 3 18049736405531376228
15042514 8 17762619490912602474
15442244 35 18340773641599637289
16087824 20 17978511928217821109
16945 1 18411418453495596662
17357779 13 18336538331066959086
1813 80 18058465235112317070
19591789 44 17472147648791331508
200 152 18272647931212863851
20645477 70 18335414729279057195
21041028 32 18411702041142438869
21267235 1 18340214007113431806
21279426 13 18262228916669015317
21296965 67 18340202994706190155
21501502 16 18338806593722476088
221357 26 18335687322901424525
221490 88 18408324375771093356
2255824 54 18341614888296116222
23175994 123 18335987489048597919
23184049 29 18121500159433696818
2334 1 18339080376697570190
23419403 2 18042944567576095654
23526113 38 18186516635652511707
23557571 272 17984143665376592022
23558518 356 18117847590142705288
23559900 14 18335136522450367738
238 59 17687990491427954983
2748010 2 18268701732746759612
3091708 16 8995901236143004392
5104073 3 18053936269809159746
54173680 148 17906454329504071794
6443956 14 18408606958896858791
7364860 26 18338797926235606762
77492 1 17560245846178916527
81228 2 18192426368717413696
8272917 22 18340211898605885575
84936 182 17771342260205979273
9709674 26 18334858346415183539

>  <PUBCHEM_SHAPE_MULTIPOLES>  (1) 
393.75
7.14
3.49
0.88
4.77
2.54
0.03
-4.77
0.19
-2.41
-0.14
0.68
-0.28
0.18

>  <PUBCHEM_SHAPE_SELFOVERLAP>  (1) 
856.683

>  <PUBCHEM_SHAPE_VOLUME>  (1) 
210.8

>  <PUBCHEM_COORDINATE_TYPE>  (1) 
2
5
10

$$$$
