40080
     RDKit          3D

 13 14  0  0  0  0  0  0  0  0999 V2000
   -1.2087    1.7119    0.0003 S   0  0  0  0  0  0  0  0  0  0  0  0
    3.6944   -0.0476    0.0001 O   0  0  0  0  0  0  0  0  0  0  0  0
   -1.8053   -0.7973   -0.0004 N   0  0  0  0  0  0  0  0  0  0  0  0
   -3.6525    0.6742    0.0008 N   0  0  0  0  0  0  0  0  0  0  0  0
    0.0967    0.5854   -0.0002 C   0  0  0  0  0  0  0  0  0  0  0  0
   -0.4205   -0.7136   -0.0001 C   0  0  0  0  0  0  0  0  0  0  0  0
    1.4789    0.8333   -0.0003 C   0  0  0  0  0  0  0  0  0  0  0  0
    0.4798   -1.8013    0.0004 C   0  0  0  0  0  0  0  0  0  0  0  0
    2.3479   -0.2608   -0.0001 C   0  0  0  0  0  0  0  0  0  0  0  0
   -2.3187    0.4107    0.0005 C   0  0  0  0  0  0  0  0  0  0  0  0
    1.8571   -1.5618    0.0003 C   0  0  0  0  0  0  0  0  0  0  0  0
   -4.6840   -0.3412   -0.0010 C   0  0  0  0  0  0  0  0  0  0  0  0
    4.1350    1.3084   -0.0003 C   0  0  0  0  0  0  0  0  0  0  0  0
  1  5  1  0
  1 10  1  0
  2  9  1  0
  2 13  1  0
  3  6  1  0
  3 10  2  0
  4 10  1  0
  4 12  1  0
  5  6  2  0
  5  7  1  0
  6  8  1  0
  7  9  2  0
  8 11  2  0
  9 11  1  0
M  END
>  <PUBCHEM_COMPOUND_CID>  (1) 
40080

>  <PUBCHEM_CONFORMER_RMSD>  (1) 
0.6

>  <PUBCHEM_CONFORMER_DIVERSEORDER>  (1) 
1
2

>  <PUBCHEM_MMFF94_PARTIAL_CHARGES>  (1) 
17
1 -0.08
10 0.46
11 -0.15
12 0.37
13 0.28
14 0.15
15 0.15
16 0.15
17 0.4
2 -0.36
3 -0.57
4 -0.85
5 0.04
6 0.23
7 -0.15
8 -0.15
9 0.08

>  <PUBCHEM_EFFECTIVE_ROTOR_COUNT>  (1) 
2

>  <PUBCHEM_PHARMACOPHORE_FEATURES>  (1) 
5
1 2 acceptor
1 4 donor
3 3 4 10 cation
5 1 3 5 6 10 rings
6 5 6 7 8 9 11 rings

>  <PUBCHEM_HEAVY_ATOM_COUNT>  (1) 
13

>  <PUBCHEM_ATOM_DEF_STEREO_COUNT>  (1) 
0

>  <PUBCHEM_ATOM_UDEF_STEREO_COUNT>  (1) 
0

>  <PUBCHEM_BOND_DEF_STEREO_COUNT>  (1) 
0

>  <PUBCHEM_BOND_UDEF_STEREO_COUNT>  (1) 
0

>  <PUBCHEM_ISOTOPIC_ATOM_COUNT>  (1) 
0

>  <PUBCHEM_COMPONENT_COUNT>  (1) 
1

>  <PUBCHEM_CACTVS_TAUTO_COUNT>  (1) 
2

>  <PUBCHEM_CONFORMER_ID>  (1) 
00009C9000000001

>  <PUBCHEM_MMFF94_ENERGY>  (1) 
35.5966

>  <PUBCHEM_FEATURE_SELFOVERLAP>  (1) 
25.443

>  <PUBCHEM_SHAPE_FINGERPRINT>  (1) 
10219947 1 18333453131504157885
10608611 8 18264203617149470205
10967382 1 18410856564056082660
11132069 177 18411978087512654528
11471102 20 18410570669616079317
11543360 7 15697711618711597480
11806522 49 18410854399909640695
12032990 46 18410299086249867971
12346645 44 18342178842897351416
12932764 1 13901615269577693229
13380535 76 18408887343031374258
14325111 11 18338517439122648577
14576447 43 18128801101637109591
14897335 6 18411135844315288478
15196674 1 18411137996194059045
15536298 74 18271246023811927574
15775835 57 18272089404779955590
16945 1 18410575063241054918
17846911 113 18411132558918462816
200 152 18272644658953744909
20201158 50 18334860498103757771
20645477 70 18268142064117126495
21501502 16 18194966231839838009
23235685 24 18408879646502415428
23402539 116 18340759420640959111
23402655 69 18341886356347180533
23463225 33 18334853862548031978
25610 137 18411702058697075305
2748010 2 18051130590321326320
366044 4 18410292540651163170
449060 62 18413390921125509210
4990 188 17846508010633154180
5104073 3 18337110060255313361
528886 8 18411414029267831802
537710 114 18410016558547565309
53812653 166 18342734148125451608
69090 78 18273210919499029782
7364860 26 18270118990329423222

>  <PUBCHEM_SHAPE_MULTIPOLES>  (1) 
255.55
7.05
1.7
0.6
2.43
0.15
0
-1.34
0
-0.56
0
0
-0.01
0

>  <PUBCHEM_SHAPE_SELFOVERLAP>  (1) 
533.442

>  <PUBCHEM_SHAPE_VOLUME>  (1) 
148.4

>  <PUBCHEM_COORDINATE_TYPE>  (1) 
2
5
10

$$$$
