40095
     RDKit          3D

 13 14  0  0  1  0  0  0  0  0999 V2000
   -2.3363    1.4751    0.4929 S   0  0  0  0  0  0  0  0  0  0  0  0
   -2.1285   -1.4445   -0.0535 S   0  0  0  0  0  0  0  0  0  0  0  0
    0.8971   -1.7124    1.3527 O   0  0  0  0  0  0  0  0  0  0  0  0
    0.0627    0.1948    0.1249 C   0  0  0  0  0  0  0  0  0  0  0  0
    0.7367    1.4451    0.6914 C   0  0  0  0  0  0  0  0  0  0  0  0
   -1.3175   -0.0126    0.7345 C   0  0  0  0  0  0  0  0  0  0  0  0
    2.2427    1.5920    0.4481 C   0  0  0  0  0  0  0  0  0  0  0  0
    2.7727    1.0419   -0.8773 C   0  0  0  0  0  0  0  0  0  0  0  0
    0.9291   -1.0385    0.3244 C   0  0  0  0  0  0  0  0  0  0  0  0
    3.0951   -0.4554   -0.8204 C   0  0  0  0  0  0  0  0  0  0  0  0
    1.8793   -1.3687   -0.8053 C   0  0  0  0  0  0  0  0  0  0  0  0
   -3.2297    0.8606   -0.9538 C   0  0  0  0  0  0  0  0  0  0  0  0
   -3.6034   -0.5775   -0.6585 C   0  0  0  0  0  0  0  0  0  0  0  0
  1  6  1  0
  1 12  1  0
  2  6  1  0
  2 13  1  0
  3  9  2  0
  4  5  1  0
  4  6  1  0
  4  9  1  0
  5  7  1  0
  7  8  1  0
  8 10  1  0
  9 11  1  0
 10 11  1  0
 12 13  1  0
M  END
>  <PUBCHEM_COMPOUND_CID>  (1) 
40095

>  <PUBCHEM_CONFORMER_RMSD>  (1) 
0.6

>  <PUBCHEM_CONFORMER_DIVERSEORDER>  (1) 
1
20
13
17
18
3
19
14
2
4
9
8
10
12
5
6
16
11
15
7

>  <PUBCHEM_MMFF94_PARTIAL_CHARGES>  (1) 
9
1 -0.46
11 0.06
12 0.23
13 0.23
2 -0.46
3 -0.57
4 0.06
6 0.46
9 0.45

>  <PUBCHEM_EFFECTIVE_ROTOR_COUNT>  (1) 
3.2

>  <PUBCHEM_PHARMACOPHORE_FEATURES>  (1) 
3
1 3 acceptor
5 1 2 6 12 13 rings
7 4 5 7 8 9 10 11 rings

>  <PUBCHEM_HEAVY_ATOM_COUNT>  (1) 
13

>  <PUBCHEM_ATOM_DEF_STEREO_COUNT>  (1) 
0

>  <PUBCHEM_ATOM_UDEF_STEREO_COUNT>  (1) 
1

>  <PUBCHEM_BOND_DEF_STEREO_COUNT>  (1) 
0

>  <PUBCHEM_BOND_UDEF_STEREO_COUNT>  (1) 
0

>  <PUBCHEM_ISOTOPIC_ATOM_COUNT>  (1) 
0

>  <PUBCHEM_COMPONENT_COUNT>  (1) 
1

>  <PUBCHEM_CACTVS_TAUTO_COUNT>  (1) 
3

>  <PUBCHEM_CONFORMER_ID>  (1) 
00009C9F00000001

>  <PUBCHEM_MMFF94_ENERGY>  (1) 
25.7015

>  <PUBCHEM_FEATURE_SELFOVERLAP>  (1) 
15.223

>  <PUBCHEM_SHAPE_FINGERPRINT>  (1) 
12138202 97 18044103577417795754
12897270 3 18342458192055037525
12932764 1 18188208706774904097
13380535 21 18410020944130674043
13705890 14 17704356576052157276
14251745 187 18336547204622665460
15775835 57 18187929417920742541
15852999 172 16877937265442983899
16945 1 18200321033897788640
18186145 218 18260843582887516918
20201158 50 18342742909653026518
20361792 2 14979955878412728689
20671657 53 17632308847564742284
21501502 16 18341334409525010241
21947302 44 18339363071302509668
22802520 49 18341338872069812417
230 275 18113894970257836456
23402539 116 18261949747794538236
23402655 69 18341613672831226357
23552423 10 18409164385828299051
23559900 14 18340217341115212516
25 1 18260839150212215978
2748010 2 17260471894725419680
353137 74 18410856585699821809
549884 4 18410855434490363277
63268167 104 18412273826023053240
7364860 26 17917421064263582176
74978 22 18341328890718673865
7832392 63 17986967249158236024
8030462 33 18334853896828558121
93112 12 18343021069041513853

>  <PUBCHEM_SHAPE_MULTIPOLES>  (1) 
269.36
5.57
1.94
1.1
1.76
0.06
-0.03
0.37
2.1
-0.25
-0.26
-0.08
-0.1
0.04

>  <PUBCHEM_SHAPE_SELFOVERLAP>  (1) 
515.789

>  <PUBCHEM_SHAPE_VOLUME>  (1) 
164.3

>  <PUBCHEM_COORDINATE_TYPE>  (1) 
2
5
10

$$$$
