40105
     RDKit          3D

 25 28  0  0  1  0  0  0  0  0999 V2000
   -0.6930   -1.0025   -1.8430 S   0  0  0  0  0  0  0  0  0  0  0  0
   -1.0984    1.2987    0.2840 N   0  0  0  0  0  0  0  0  0  0  0  0
   -2.5672    3.7757    0.0271 N   0  0  0  0  0  0  0  0  0  0  0  0
   -1.9718   -3.1932   -1.2479 N   0  0  0  0  0  0  0  0  0  0  0  0
   -0.1371    0.4182    0.9448 C   0  0  0  0  0  0  0  0  0  0  0  0
   -2.2144    1.6198    1.1820 C   0  0  0  0  0  0  0  0  0  0  0  0
   -0.4449    2.5281   -0.1817 C   0  0  0  0  0  0  0  0  0  0  0  0
   -3.2214    2.5466    0.4920 C   0  0  0  0  0  0  0  0  0  0  0  0
   -1.4524    3.4537   -0.8722 C   0  0  0  0  0  0  0  0  0  0  0  0
   -0.8048   -0.8199    1.5660 C   0  0  0  0  0  0  0  0  0  0  0  0
    1.0465    0.0421    0.0772 C   0  0  0  0  0  0  0  0  0  0  0  0
   -1.4034   -1.9398    0.7414 C   0  0  0  0  0  0  0  0  0  0  0  0
    0.9024   -0.6240   -1.1514 C   0  0  0  0  0  0  0  0  0  0  0  0
    2.3431    0.3398    0.5356 C   0  0  0  0  0  0  0  0  0  0  0  0
   -3.5282    4.6576   -0.6323 C   0  0  0  0  0  0  0  0  0  0  0  0
    3.4683   -0.0070   -0.2119 C   0  0  0  0  0  0  0  0  0  0  0  0
   -1.3903   -2.1165   -0.6455 C   0  0  0  0  0  0  0  0  0  0  0  0
    4.8330    0.3221    0.2929 C   0  0  0  0  0  0  0  0  0  0  0  0
    2.0398   -0.9626   -1.9003 C   0  0  0  0  0  0  0  0  0  0  0  0
    3.3163   -0.6582   -1.4302 C   0  0  0  0  0  0  0  0  0  0  0  0
   -2.0391   -2.9506    1.4945 C   0  0  0  0  0  0  0  0  0  0  0  0
    5.1569   -0.3869    1.6218 C   0  0  0  0  0  0  0  0  0  0  0  0
    5.0546    1.8393    0.4435 C   0  0  0  0  0  0  0  0  0  0  0  0
   -2.6276   -4.0535    0.8921 C   0  0  0  0  0  0  0  0  0  0  0  0
   -2.5669   -4.1268   -0.4785 C   0  0  0  0  0  0  0  0  0  0  0  0
  1 13  1  0
  1 17  1  0
  2  5  1  0
  2  6  1  0
  2  7  1  0
  3  8  1  0
  3  9  1  0
  3 15  1  0
  4 17  1  0
  4 25  2  0
  5 10  1  0
  5 11  1  0
  6  8  1  0
  7  9  1  0
 10 12  1  0
 11 13  2  0
 11 14  1  0
 12 17  2  0
 12 21  1  0
 13 19  1  0
 14 16  2  0
 16 18  1  0
 16 20  1  0
 18 22  1  0
 18 23  1  0
 19 20  2  0
 21 24  2  0
 24 25  1  0
M  END
>  <PUBCHEM_COMPOUND_CID>  (1) 
40105

>  <PUBCHEM_CONFORMER_RMSD>  (1) 
0.8

>  <PUBCHEM_CONFORMER_DIVERSEORDER>  (1) 
3
12
17
11
7
5
13
16
15
6
9
10
14
1
8
2
4

>  <PUBCHEM_MMFF94_PARTIAL_CHARGES>  (1) 
29
1 -0.2
10 0.14
11 -0.14
12 -0.14
13 0.1
14 -0.15
15 0.27
16 -0.14
17 0.41
18 0.14
19 -0.15
2 -0.81
20 -0.15
21 -0.15
24 -0.15
25 0.16
3 -0.81
37 0.15
4 -0.62
42 0.15
43 0.15
44 0.15
5 0.41
51 0.15
52 0.15
6 0.27
7 0.27
8 0.27
9 0.27

>  <PUBCHEM_EFFECTIVE_ROTOR_COUNT>  (1) 
3.8

>  <PUBCHEM_PHARMACOPHORE_FEATURES>  (1) 
8
1 2 cation
1 3 cation
1 4 acceptor
3 18 22 23 hydrophobe
6 11 13 14 16 19 20 rings
6 2 3 6 7 8 9 rings
6 4 12 17 21 24 25 rings
7 1 5 10 11 12 13 17 rings

>  <PUBCHEM_HEAVY_ATOM_COUNT>  (1) 
25

>  <PUBCHEM_ATOM_DEF_STEREO_COUNT>  (1) 
0

>  <PUBCHEM_ATOM_UDEF_STEREO_COUNT>  (1) 
1

>  <PUBCHEM_BOND_DEF_STEREO_COUNT>  (1) 
0

>  <PUBCHEM_BOND_UDEF_STEREO_COUNT>  (1) 
0

>  <PUBCHEM_ISOTOPIC_ATOM_COUNT>  (1) 
0

>  <PUBCHEM_COMPONENT_COUNT>  (1) 
1

>  <PUBCHEM_CACTVS_TAUTO_COUNT>  (1) 
1

>  <PUBCHEM_CONFORMER_ID>  (1) 
00009CA900000003

>  <PUBCHEM_MMFF94_ENERGY>  (1) 
79.2662

>  <PUBCHEM_FEATURE_SELFOVERLAP>  (1) 
40.611

>  <PUBCHEM_SHAPE_FINGERPRINT>  (1) 
10074138 170 18337370695813255296
11578080 2 17772783578637818532
11833330 49 18337115686725676459
12035758 1 18270138914846240403
121448 382 18268416963266661949
12160290 23 18194713455860895443
12293681 4 18337943597601637519
12532896 13 18267582399238355220
12553582 1 17907603641083135342
12730499 353 17762352314378555081
12788726 201 18188789351540014675
13004483 165 18195238038982666306
13083527 12 17909555295796740944
13134695 92 17760644072165378247
13540713 4 17917720089452448166
13583140 156 18131339822667459474
13681431 1 17691415521666933023
13911987 19 16888932622582206628
13955234 65 17402054392649210601
14178000 22 18265050236834043368
14178342 30 18334860515632156710
14840074 17 17408525495362168568
14955137 171 17041755964019000344
17539 30 18339635745711752915
17980427 26 17691393119064893724
1813 80 17910692173582418262
20101258 96 18194687192331344752
20197701 30 18121214273229836379
20567600 347 17902801764856564321
20600515 1 17982189007989625211
20739085 24 17552364692780732974
21033648 29 18195252109670288480
21049683 118 18051663612858630249
21285901 2 18059864978044622831
21304303 282 18121189070483134487
22149856 69 17468506737082462089
22182313 1 17489320685188675396
23227448 37 18411420622486320884
23419403 2 17771046487425064617
23559900 14 18129109918681392926
23598288 3 17824010928828861856
238 59 17624141503210450285
24941158 1 16962928127190941365
3187 122 18196926888900666656
376196 1 17629182828707100156
513202 73 18341625849406700718
57527293 21 18127711498382632850
59755656 520 18192423083257226028
6086070 43 17975672194821165095
633830 44 17342388380065151145
6442390 28 18194413190719132641
6669772 16 17982443798534752182
81228 2 18339940301890471059
90316 7 18267603470411524739
9981440 41 17845067629137414726

>  <PUBCHEM_SHAPE_MULTIPOLES>  (1) 
503.39
7.63
5.8
1.67
12.26
2.22
-0.26
1.94
1.94
-11.1
-0.46
0.32
-0.84
0.78

>  <PUBCHEM_SHAPE_SELFOVERLAP>  (1) 
1062.74

>  <PUBCHEM_SHAPE_VOLUME>  (1) 
283.5

>  <PUBCHEM_COORDINATE_TYPE>  (1) 
2
5
10

$$$$
