40109
     RDKit          3D

 28 31  0  0  1  0  0  0  0  0999 V2000
   -1.6119    0.9643    1.7961 S   0  0  0  0  0  0  0  0  0  0  0  0
    6.0403   -0.4004   -0.6725 O   0  0  0  0  0  0  0  0  0  0  0  0
    5.2599    0.6293    1.2145 O   0  0  0  0  0  0  0  0  0  0  0  0
   -2.0163   -1.3553   -0.3054 N   0  0  0  0  0  0  0  0  0  0  0  0
   -3.4342   -3.8555    0.0064 N   0  0  0  0  0  0  0  0  0  0  0  0
    3.8083   -0.2333   -0.4133 N   0  0  0  0  0  0  0  0  0  0  0  0
   -1.0834   -0.4651   -0.9935 C   0  0  0  0  0  0  0  0  0  0  0  0
   -3.1421   -1.7073   -1.1794 C   0  0  0  0  0  0  0  0  0  0  0  0
   -1.3320   -2.5669    0.1625 C   0  0  0  0  0  0  0  0  0  0  0  0
   -4.1193   -2.6441   -0.4609 C   0  0  0  0  0  0  0  0  0  0  0  0
   -2.3098   -3.5025    0.8816 C   0  0  0  0  0  0  0  0  0  0  0  0
   -1.7842    0.7524   -1.6185 C   0  0  0  0  0  0  0  0  0  0  0  0
    0.1089   -0.0559   -0.1535 C   0  0  0  0  0  0  0  0  0  0  0  0
   -2.4043    1.8695   -0.7995 C   0  0  0  0  0  0  0  0  0  0  0  0
   -0.0239    0.6175    1.0722 C   0  0  0  0  0  0  0  0  0  0  0  0
   -4.3667   -4.7471    0.6930 C   0  0  0  0  0  0  0  0  0  0  0  0
    1.4020   -0.3283   -0.6369 C   0  0  0  0  0  0  0  0  0  0  0  0
   -2.3658    2.0505    0.5952 C   0  0  0  0  0  0  0  0  0  0  0  0
   -3.0773    2.8457   -1.5745 C   0  0  0  0  0  0  0  0  0  0  0  0
    1.1213    0.9887    1.7934 C   0  0  0  0  0  0  0  0  0  0  0  0
    2.5348    0.0503    0.0831 C   0  0  0  0  0  0  0  0  0  0  0  0
    2.3942    0.7090    1.2986 C   0  0  0  0  0  0  0  0  0  0  0  0
   -3.0077    3.1734    1.1617 C   0  0  0  0  0  0  0  0  0  0  0  0
   -3.6997    3.9524   -1.0003 C   0  0  0  0  0  0  0  0  0  0  0  0
   -3.6654    4.1158    0.3737 C   0  0  0  0  0  0  0  0  0  0  0  0
    5.0476    0.0572    0.1524 C   0  0  0  0  0  0  0  0  0  0  0  0
    7.3825   -0.1747   -0.2263 C   0  0  0  0  0  0  0  0  0  0  0  0
    8.3440   -0.7397   -1.2500 C   0  0  0  0  0  0  0  0  0  0  0  0
  1 15  1  0
  1 18  1  0
  2 26  1  0
  2 27  1  0
  3 26  2  0
  4  7  1  0
  4  8  1  0
  4  9  1  0
  5 10  1  0
  5 11  1  0
  5 16  1  0
  6 21  1  0
  6 26  1  0
  7 12  1  0
  7 13  1  0
  8 10  1  0
  9 11  1  0
 12 14  1  0
 13 15  2  0
 13 17  1  0
 14 18  2  0
 14 19  1  0
 15 20  1  0
 17 21  2  0
 18 23  1  0
 19 24  2  0
 20 22  2  0
 21 22  1  0
 23 25  2  0
 24 25  1  0
 27 28  1  0
M  END
>  <PUBCHEM_COMPOUND_CID>  (1) 
40109

>  <PUBCHEM_CONFORMER_RMSD>  (1) 
0.8

>  <PUBCHEM_CONFORMER_DIVERSEORDER>  (1) 
1
25
31
10
26
18
27
8
17
29
3
22
15
16
36
39
14
24
5
11
19
35
28
38
33
30
9
6
37
2
21
32
34
4
23
20
7
13
12

>  <PUBCHEM_MMFF94_PARTIAL_CHARGES>  (1) 
35
1 -0.2
10 0.27
11 0.27
12 0.14
13 -0.14
14 -0.14
15 0.1
16 0.27
17 -0.15
18 0.1
19 -0.15
2 -0.43
20 -0.15
21 0.12
22 -0.15
23 -0.15
24 -0.15
25 -0.15
26 0.78
27 0.28
3 -0.57
4 -0.81
43 0.15
44 0.15
45 0.15
46 0.15
47 0.15
48 0.15
49 0.15
5 -0.81
50 0.37
6 -0.55
7 0.41
8 0.27
9 0.27

>  <PUBCHEM_EFFECTIVE_ROTOR_COUNT>  (1) 
6.8

>  <PUBCHEM_PHARMACOPHORE_FEATURES>  (1) 
8
1 3 acceptor
1 4 cation
1 5 cation
1 6 donor
6 13 15 17 20 21 22 rings
6 14 18 19 23 24 25 rings
6 4 5 8 9 10 11 rings
7 1 7 12 13 14 15 18 rings

>  <PUBCHEM_HEAVY_ATOM_COUNT>  (1) 
28

>  <PUBCHEM_ATOM_DEF_STEREO_COUNT>  (1) 
0

>  <PUBCHEM_ATOM_UDEF_STEREO_COUNT>  (1) 
1

>  <PUBCHEM_BOND_DEF_STEREO_COUNT>  (1) 
0

>  <PUBCHEM_BOND_UDEF_STEREO_COUNT>  (1) 
0

>  <PUBCHEM_ISOTOPIC_ATOM_COUNT>  (1) 
0

>  <PUBCHEM_COMPONENT_COUNT>  (1) 
1

>  <PUBCHEM_CACTVS_TAUTO_COUNT>  (1) 
2

>  <PUBCHEM_CONFORMER_ID>  (1) 
00009CAD00000001

>  <PUBCHEM_MMFF94_ENERGY>  (1) 
85.6517

>  <PUBCHEM_FEATURE_SELFOVERLAP>  (1) 
40.61

>  <PUBCHEM_SHAPE_FINGERPRINT>  (1) 
10119406 146 17629497289380492518
10165383 225 18269560434159480225
10411042 1 18121784087027053423
105312 117 18267869393485769068
10764073 3 17702686439796906027
107951 10 18198618844180495989
11056379 131 18408882966559867958
11101153 10 18117567447192049388
11297750 10 18200027494231558032
11445158 3 13913480164220562398
11809386 21 18409160018137242330
11991303 11 18336827485708971333
12160290 23 18050810482599156685
12293681 160 17558258830772593641
12342043 65 17986957538875379482
12760667 363 18201158870401583022
12788726 201 18262784251286990963
12954195 1 18410851062081871671
13009979 54 18117003375861266751
131258 43 17832725825589278374
13540713 4 17917133001403353328
13631057 29 18336545023249050306
13673619 4 18128543845696137474
13690498 29 18342177825559944518
13757389 114 18335424508767006316
14040221 275 18053417373161025819
14068700 675 18115583910391834022
14400156 188 17827923150368851395
14713325 29 18412826884561309775
14955137 171 17257653851140760449
15230672 131 18192152586782134006
15439362 3 17836931101183508108
15463212 79 18190730951926098033
15927050 60 18267866077824172983
19301676 85 17336764322740423174
19427546 20 18410014338529163996
20101258 96 18337394945209618921
20505436 4 17750232495845776089
20600515 1 17911535490680103899
21120745 212 18191322665338914821
21716022 299 17391083894917763471
22182313 1 17346049900278029700
23081809 10 12031784774287283150
23559900 14 18192701461372533910
249057 25 17749393715562688524
283562 15 18262231230823353635
3418910 222 18117840126308242436
3759504 43 18340764819599823569
394222 165 17266656154449249681
4015057 19 16701723991832001912
4058900 60 17838055901595287689
4073 2 18412546484328879374
4409770 3 18410290307684770655
497634 4 18187079590064158086
563151 40 18261118422092718098
57527295 17 17559093407484302487
57634706 229 18057340387135222088
58260988 587 17689438179513494465
59755656 520 18268430139883486313
70251023 43 18118686757953655130
77188 2 17977949313170465741

>  <PUBCHEM_SHAPE_MULTIPOLES>  (1) 
553.39
13.66
5.33
1.57
42.5
2.65
-0.18
2.3
3.89
-14.49
-0.43
-0.32
-0.68
1.3

>  <PUBCHEM_SHAPE_SELFOVERLAP>  (1) 
1166.052

>  <PUBCHEM_SHAPE_VOLUME>  (1) 
311

>  <PUBCHEM_COORDINATE_TYPE>  (1) 
2
5
10

$$$$
