40112
     RDKit          3D

 22 25  0  0  1  0  0  0  0  0999 V2000
    4.2623    1.6708   -0.9701 O   0  0  0  0  0  0  0  0  0  0  0  0
   -5.0915    1.1652    0.8768 O   0  0  0  0  0  0  0  0  0  0  0  0
    4.4243   -0.5884    1.9325 N   0  0  0  0  0  0  0  0  0  0  0  0
    0.0266    0.3394    0.2492 C   0  0  0  0  0  0  0  0  0  0  0  0
    1.5164    0.3049   -0.2646 C   0  0  0  0  0  0  0  0  0  0  0  0
   -0.8428   -0.7950   -0.3921 C   0  0  0  0  0  0  0  0  0  0  0  0
   -2.2465   -0.7148    0.2147 C   0  0  0  0  0  0  0  0  0  0  0  0
    2.0718   -1.1225    0.0380 C   0  0  0  0  0  0  0  0  0  0  0  0
   -2.9240    0.6367   -0.0937 C   0  0  0  0  0  0  0  0  0  0  0  0
   -0.6572    1.7298    0.1439 C   0  0  0  0  0  0  0  0  0  0  0  0
   -0.2071   -2.1759   -0.1836 C   0  0  0  0  0  0  0  0  0  0  0  0
    1.2499   -2.2234   -0.6424 C   0  0  0  0  0  0  0  0  0  0  0  0
   -2.1264    1.7318    0.6076 C   0  0  0  0  0  0  0  0  0  0  0  0
    2.3858    1.3336    0.5236 C   0  0  0  0  0  0  0  0  0  0  0  0
   -3.2983   -1.7537   -0.1577 C   0  0  0  0  0  0  0  0  0  0  0  0
    3.5714   -1.2578   -0.2750 C   0  0  0  0  0  0  0  0  0  0  0  0
    1.5693    0.6449   -1.7763 C   0  0  0  0  0  0  0  0  0  0  0  0
    3.9051    1.1932    0.3260 C   0  0  0  0  0  0  0  0  0  0  0  0
   -4.2974    0.3260    0.4733 C   0  0  0  0  0  0  0  0  0  0  0  0
    4.4201   -0.2423    0.5078 C   0  0  0  0  0  0  0  0  0  0  0  0
   -4.5824   -1.1664    0.4467 C   0  0  0  0  0  0  0  0  0  0  0  0
   -3.1294    0.9638   -1.5845 C   0  0  0  0  0  0  0  0  0  0  0  0
  1 18  1  0
  2 19  2  0
  3 20  1  0
  4  5  1  0
  4  6  1  0
  4 10  1  0
  5  8  1  0
  5 14  1  0
  5 17  1  0
  6  7  1  0
  6 11  1  0
  7  9  1  0
  7 15  1  0
  8 12  1  0
  8 16  1  0
  9 13  1  0
  9 19  1  0
  9 22  1  0
 10 13  1  0
 11 12  1  0
 14 18  1  0
 15 21  1  0
 16 20  1  0
 18 20  1  0
 19 21  1  0
M  END
>  <PUBCHEM_COMPOUND_CID>  (1) 
40112

>  <PUBCHEM_CONFORMER_RMSD>  (1) 
0.6

>  <PUBCHEM_CONFORMER_DIVERSEORDER>  (1) 
1
2

>  <PUBCHEM_MMFF94_PARTIAL_CHARGES>  (1) 
11
1 -0.68
18 0.28
19 0.45
2 -0.57
20 0.27
21 0.06
3 -0.99
51 0.36
52 0.36
53 0.4
9 0.06

>  <PUBCHEM_EFFECTIVE_ROTOR_COUNT>  (1) 
2

>  <PUBCHEM_PHARMACOPHORE_FEATURES>  (1) 
9
1 1 acceptor
1 1 donor
1 2 acceptor
1 3 cation
1 3 donor
5 7 9 15 19 21 rings
6 4 5 6 8 11 12 rings
6 4 6 7 9 10 13 rings
6 5 8 14 16 18 20 rings

>  <PUBCHEM_HEAVY_ATOM_COUNT>  (1) 
22

>  <PUBCHEM_ATOM_DEF_STEREO_COUNT>  (1) 
8

>  <PUBCHEM_ATOM_UDEF_STEREO_COUNT>  (1) 
0

>  <PUBCHEM_BOND_DEF_STEREO_COUNT>  (1) 
0

>  <PUBCHEM_BOND_UDEF_STEREO_COUNT>  (1) 
0

>  <PUBCHEM_ISOTOPIC_ATOM_COUNT>  (1) 
0

>  <PUBCHEM_COMPONENT_COUNT>  (1) 
1

>  <PUBCHEM_CACTVS_TAUTO_COUNT>  (1) 
2

>  <PUBCHEM_CONFORMER_ID>  (1) 
00009CB000000001

>  <PUBCHEM_MMFF94_ENERGY>  (1) 
67.986

>  <PUBCHEM_FEATURE_SELFOVERLAP>  (1) 
45.762

>  <PUBCHEM_SHAPE_FINGERPRINT>  (1) 
10062212 137 18409442622410510219
10646746 165 18343303630713489444
10759866 29 18187368787481736964
10967382 1 18341333314202783262
11132069 177 18411703171135718555
11578080 2 17025427777911625471
12236239 1 18186241749297914492
12403259 226 18410851032312804908
12403259 415 18408881824177818572
12403814 3 18040154033277806101
12592029 89 18335702711009993514
12633257 1 18342449348870544672
12670546 56 17385713712296808866
12788726 201 17274273733840868865
12839892 36 18340756083668271538
13140716 1 18340482373754457594
13224815 77 18408605867948765783
13583140 156 17168688774285425510
13675066 3 18259989270947931171
14178342 30 18052253999516630176
14223421 5 18268994197906516383
14341114 328 18342462555646910297
14787075 74 18337389460620595779
14790565 3 18196664105448210816
15163728 17 14547354012686889257
15196674 1 18412547617366626667
15375358 24 18412826854881562979
15536298 74 18201162061503813526
15788980 27 17240479200062079765
15848702 151 13551469215980346226
16945 1 18194681471133979127
17349148 13 18260266347651309838
17492 89 18409449154729447531
1813 80 17385730179143406502
18186145 218 18412265008460436942
18222031 100 12396301469247423361
19050596 39 18412261735515944177
19784866 9 18412827962661424299
200 152 18202555199219367415
20715895 44 17972588897585576133
21267235 1 18411429396756035086
21421861 104 18116996585212192482
22854114 111 18410296912558507983
23402539 116 18131344232722938413
23557571 272 17917160501672559327
23559900 14 18272092648092590238
2838139 119 14979090614913311234
296302 2 18259987101783809340
335352 9 18341616949490138878
34797466 226 15123503748595699225
34934 24 18343019965730686711
350125 39 18411985737287336476
3680242 22 18338519625234603267
4409770 3 16385641581457060334
5104073 3 18409448111061899003
59755656 215 18268716012922415822
633830 44 17846216691481105268
7364860 26 18129386999110189206
9709674 26 18412833468804670967

>  <PUBCHEM_SHAPE_MULTIPOLES>  (1) 
436.03
9.55
2.14
1.17
0.81
0.47
-0.19
-1.04
2.27
0.06
-0.12
-0.47
-0.21
-0.25

>  <PUBCHEM_SHAPE_SELFOVERLAP>  (1) 
928.863

>  <PUBCHEM_SHAPE_VOLUME>  (1) 
241

>  <PUBCHEM_COORDINATE_TYPE>  (1) 
2
5
10

$$$$
