40117
     RDKit          3D

 25 27  0  0  1  0  0  0  0  0999 V2000
   -1.0752   -2.1803   -1.3441 S   0  0  0  0  0  0  0  0  0  0  0  0
   -0.0783    0.6156    2.2449 O   0  0  0  0  0  0  0  0  0  0  0  0
   -4.3048    0.2435   -1.3608 O   0  0  0  0  0  0  0  0  0  0  0  0
    2.8221   -0.6534    1.7808 O   0  0  0  0  0  0  0  0  0  0  0  0
   -2.6019    1.4199    2.0883 O   0  0  0  0  0  0  0  0  0  0  0  0
   -3.3879    2.3060    0.1320 O   0  0  0  0  0  0  0  0  0  0  0  0
   -1.4515   -0.5616    0.7338 N   0  0  0  0  0  0  0  0  0  0  0  0
    1.3510   -1.5963    0.2569 N   0  0  0  0  0  0  0  0  0  0  0  0
    4.9358   -1.2327    0.1031 N   0  0  0  0  0  0  0  0  0  0  0  0
   -1.1409   -1.9518    0.4494 C   0  0  0  0  0  0  0  0  0  0  0  0
    0.2064   -1.6949    1.1593 C   0  0  0  0  0  0  0  0  0  0  0  0
   -0.4077   -0.3216    1.5565 C   0  0  0  0  0  0  0  0  0  0  0  0
   -2.5181    0.0952    0.2092 C   0  0  0  0  0  0  0  0  0  0  0  0
   -2.8146   -1.6792   -1.5839 C   0  0  0  0  0  0  0  0  0  0  0  0
   -3.2014   -0.4135   -0.8423 C   0  0  0  0  0  0  0  0  0  0  0  0
    3.6071   -1.0656   -0.4796 C   0  0  0  0  0  0  0  0  0  0  0  0
    2.5858   -1.0743    0.6500 C   0  0  0  0  0  0  0  0  0  0  0  0
    3.5305    0.2467   -1.2496 C   0  0  0  0  0  0  0  0  0  0  0  0
   -2.8925    1.3976    0.7715 C   0  0  0  0  0  0  0  0  0  0  0  0
    2.1563    0.4131   -1.8515 C   0  0  0  0  0  0  0  0  0  0  0  0
    3.9291    1.3949   -0.3547 C   0  0  0  0  0  0  0  0  0  0  0  0
    1.7496    2.5791   -0.6702 C   0  0  0  0  0  0  0  0  0  0  0  0
    1.3591    1.4589   -1.5888 C   0  0  0  0  0  0  0  0  0  0  0  0
    3.1281    2.4384   -0.0948 C   0  0  0  0  0  0  0  0  0  0  0  0
   -5.4862   -0.1839   -0.7153 C   0  0  0  0  0  0  0  0  0  0  0  0
  1 10  1  0
  1 14  1  0
  2 12  2  0
  3 15  1  0
  3 25  1  0
  4 17  2  0
  5 19  1  0
  6 19  2  0
  7 10  1  0
  7 12  1  0
  7 13  1  0
  8 11  1  0
  8 17  1  0
  9 16  1  0
 10 11  1  0
 11 12  1  0
 13 15  2  0
 13 19  1  0
 14 15  1  0
 16 17  1  0
 16 18  1  0
 18 20  1  0
 18 21  1  0
 20 23  2  0
 21 24  2  0
 22 23  1  0
 22 24  1  0
M  END
>  <PUBCHEM_COMPOUND_CID>  (1) 
40117

>  <PUBCHEM_CONFORMER_RMSD>  (1) 
0.8

>  <PUBCHEM_CONFORMER_DIVERSEORDER>  (1) 
1
27
30
25
6
44
40
23
3
32
28
12
17
36
22
19
45
35
43
15
21
29
18
41
16
46
4
37
14
34
26
33
42
8
39
13
20
10
9
11
31
5
2
38
7
24

>  <PUBCHEM_MMFF94_PARTIAL_CHARGES>  (1) 
33
1 -0.45
10 0.44
11 0.28
12 0.58
13 0.12
14 0.37
15 -0.06
16 0.33
17 0.57
18 0.28
19 0.71
2 -0.57
20 -0.29
21 -0.29
22 0.28
23 -0.29
24 -0.29
25 0.28
28 0.37
3 -0.36
33 0.15
34 0.15
35 0.36
36 0.36
39 0.15
4 -0.57
40 0.15
44 0.5
5 -0.65
6 -0.57
7 -0.39
8 -0.65
9 -0.99

>  <PUBCHEM_EFFECTIVE_ROTOR_COUNT>  (1) 
7

>  <PUBCHEM_PHARMACOPHORE_FEATURES>  (1) 
12
1 2 acceptor
1 3 acceptor
1 4 acceptor
1 5 acceptor
1 6 acceptor
1 8 donor
1 9 cation
1 9 donor
3 5 6 19 anion
4 7 10 11 12 rings
6 1 7 10 13 14 15 rings
6 18 20 21 22 23 24 rings

>  <PUBCHEM_HEAVY_ATOM_COUNT>  (1) 
25

>  <PUBCHEM_ATOM_DEF_STEREO_COUNT>  (1) 
2

>  <PUBCHEM_ATOM_UDEF_STEREO_COUNT>  (1) 
1

>  <PUBCHEM_BOND_DEF_STEREO_COUNT>  (1) 
0

>  <PUBCHEM_BOND_UDEF_STEREO_COUNT>  (1) 
0

>  <PUBCHEM_ISOTOPIC_ATOM_COUNT>  (1) 
0

>  <PUBCHEM_COMPONENT_COUNT>  (1) 
1

>  <PUBCHEM_CACTVS_TAUTO_COUNT>  (1) 
2

>  <PUBCHEM_CONFORMER_ID>  (1) 
00009CB500000001

>  <PUBCHEM_MMFF94_ENERGY>  (1) 
60.355

>  <PUBCHEM_FEATURE_SELFOVERLAP>  (1) 
61.226

>  <PUBCHEM_SHAPE_FINGERPRINT>  (1) 
10165383 225 15213304084319374586
10366900 7 14634867569718666255
104564 63 17679021500545085588
11370993 70 18266455602042128212
11640471 11 18335985358454408958
12035759 4 18411695496182005085
12173636 292 18261967339463747819
12363563 72 15051739681181124218
12467345 10 18341888619072096669
12670545 47 15430040958974298999
12788726 201 17561093531189771145
128993 33 16954254466400756452
13583140 156 17095248007758118963
15238133 3 14418395681761003140
18219364 16 17313115149890136402
18981168 100 17386008441547909008
192875 21 18342740715014467468
19930381 70 17326622899545934109
20715895 44 18201721700575364381
21033648 29 16153702107553559743
21475661 188 16732974289651442917
22749437 52 18116434945450577836
23227448 37 18189333627324156575
23557571 272 17060617776428317539
23559900 14 17775003526958121718
474 4 17822009843330553333
5895379 119 18131076991684902816
7832392 63 18335994124904575154
9981440 41 17616528897349250056

>  <PUBCHEM_SHAPE_MULTIPOLES>  (1) 
474.05
8.69
2.57
1.89
2.17
0.7
-0.35
1.41
2.38
-0.6
0.13
0.35
-0.01
-1.39

>  <PUBCHEM_SHAPE_SELFOVERLAP>  (1) 
997.579

>  <PUBCHEM_SHAPE_VOLUME>  (1) 
267.4

>  <PUBCHEM_COORDINATE_TYPE>  (1) 
2
5
10

$$$$
