40129
     RDKit          3D

 21 24  0  0  0  0  0  0  0  0999 V2000
   -0.8989    1.7132   -0.0001 N   0  0  0  0  0  0  0  0  0  0  0  0
    0.8203    0.0041   -0.0002 C   0  0  0  0  0  0  0  0  0  0  0  0
   -0.2162   -0.9536   -0.0001 C   0  0  0  0  0  0  0  0  0  0  0  0
   -1.5682   -0.5852    0.0000 C   0  0  0  0  0  0  0  0  0  0  0  0
   -1.8677    0.7822    0.0000 C   0  0  0  0  0  0  0  0  0  0  0  0
    0.3970    1.3480   -0.0002 C   0  0  0  0  0  0  0  0  0  0  0  0
    2.2256   -0.3151   -0.0001 C   0  0  0  0  0  0  0  0  0  0  0  0
   -3.2074    1.1631    0.0002 C   0  0  0  0  0  0  0  0  0  0  0  0
    3.1673    0.7421   -0.0002 C   0  0  0  0  0  0  0  0  0  0  0  0
   -2.6017   -1.5394    0.0000 C   0  0  0  0  0  0  0  0  0  0  0  0
   -3.9337   -1.1360    0.0003 C   0  0  0  0  0  0  0  0  0  0  0  0
    0.0210   -2.4352    0.0006 C   0  0  0  0  0  0  0  0  0  0  0  0
    1.3541    2.3492   -0.0003 C   0  0  0  0  0  0  0  0  0  0  0  0
   -4.2369    0.2192    0.0003 C   0  0  0  0  0  0  0  0  0  0  0  0
    2.7170    2.0623   -0.0004 C   0  0  0  0  0  0  0  0  0  0  0  0
    2.7468   -1.6334    0.0002 C   0  0  0  0  0  0  0  0  0  0  0  0
    4.5471    0.4737   -0.0001 C   0  0  0  0  0  0  0  0  0  0  0  0
   -3.5807    2.6132    0.0008 C   0  0  0  0  0  0  0  0  0  0  0  0
   -5.0270   -2.1493   -0.0012 C   0  0  0  0  0  0  0  0  0  0  0  0
    4.1208   -1.8887    0.0003 C   0  0  0  0  0  0  0  0  0  0  0  0
    5.0214   -0.8344    0.0002 C   0  0  0  0  0  0  0  0  0  0  0  0
  1  5  2  0
  1  6  1  0
  2  3  1  0
  2  6  2  0
  2  7  1  0
  3  4  2  0
  3 12  1  0
  4  5  1  0
  4 10  1  0
  5  8  1  0
  6 13  1  0
  7  9  2  0
  7 16  1  0
  8 14  2  0
  8 18  1  0
  9 15  1  0
  9 17  1  0
 10 11  2  0
 11 14  1  0
 11 19  1  0
 13 15  2  0
 16 20  2  0
 17 21  2  0
 20 21  1  0
M  END
>  <PUBCHEM_COMPOUND_CID>  (1) 
40129

>  <PUBCHEM_CONFORMER_RMSD>  (1) 
0.6

>  <PUBCHEM_CONFORMER_DIVERSEORDER>  (1) 
1

>  <PUBCHEM_MMFF94_PARTIAL_CHARGES>  (1) 
25
1 -0.62
10 -0.15
11 -0.14
12 0.14
13 -0.15
14 -0.15
15 -0.15
16 -0.15
17 -0.15
18 0.14
19 0.14
20 -0.15
21 -0.15
22 0.15
26 0.15
27 0.15
28 0.15
29 0.15
3 -0.14
33 0.15
37 0.15
38 0.15
5 0.31
6 0.31
8 -0.14

>  <PUBCHEM_EFFECTIVE_ROTOR_COUNT>  (1) 
0

>  <PUBCHEM_PHARMACOPHORE_FEATURES>  (1) 
5
1 1 acceptor
6 1 2 3 4 5 6 rings
6 2 6 7 9 13 15 rings
6 4 5 8 10 11 14 rings
6 7 9 16 17 20 21 rings

>  <PUBCHEM_HEAVY_ATOM_COUNT>  (1) 
21

>  <PUBCHEM_ATOM_DEF_STEREO_COUNT>  (1) 
0

>  <PUBCHEM_ATOM_UDEF_STEREO_COUNT>  (1) 
0

>  <PUBCHEM_BOND_DEF_STEREO_COUNT>  (1) 
0

>  <PUBCHEM_BOND_UDEF_STEREO_COUNT>  (1) 
0

>  <PUBCHEM_ISOTOPIC_ATOM_COUNT>  (1) 
0

>  <PUBCHEM_COMPONENT_COUNT>  (1) 
1

>  <PUBCHEM_CACTVS_TAUTO_COUNT>  (1) 
1

>  <PUBCHEM_CONFORMER_ID>  (1) 
00009CC100000001

>  <PUBCHEM_MMFF94_ENERGY>  (1) 
97.594

>  <PUBCHEM_FEATURE_SELFOVERLAP>  (1) 
25.454

>  <PUBCHEM_SHAPE_FINGERPRINT>  (1) 
10062212 137 18341608200915965703
10616163 171 18412263909007052071
10967382 1 18338517572282290116
1100329 8 16681191406282261344
11578080 2 16699197498415171074
11806522 49 18408603686100124094
12107183 9 17832420895522020186
12403259 226 18339919411333417681
12403260 363 18410289241920938607
13140716 1 18340486673001188936
13167823 11 18410854360695954158
13675066 3 18131625682114461496
13862211 1 18410288129482769538
14341114 176 18410300207172892441
14790565 3 18337398253046729548
14866123 147 17119459004893979370
15196674 1 18410573972604276292
15209289 33 18335140903586307899
15256400 18 18411699876473646929
15442244 35 18410856538265355320
15536298 74 18341893017435228952
16945 1 18122626316642775908
17492 89 18411700989066186935
17804303 29 18411703183656682069
1813 80 17385722500259014828
19591789 44 18410291415016407595
200 152 18202281428875941259
20028762 73 18129941299137315399
20645477 70 18335980973424713902
20691752 17 17458063750747780672
21267235 1 18410864277764988534
21279426 13 18194119616460463678
221357 26 18411698811717500431
221490 88 18336270140423977826
2334 1 18411138073313657261
23366157 5 18041560355720694556
23402539 116 18341043030633257590
23559900 14 18412256250932761280
2748010 2 18410007749579956869
2871803 45 18261666069346402703
3286 77 18408321115896262293
335352 9 18266740169136894381
34934 24 18193271897443480491
350125 39 18410859871587342377
4214541 1 18410856529802099173
474 4 17241896578373144660
5104073 3 18412543197839953264
59755656 215 18335699400096200983
633830 44 17022912224156227048
7364860 26 18269272525221130488
77779 3 18410575076247237132
9709674 26 18336269045228728123
9981440 41 17327175953932447744

>  <PUBCHEM_SHAPE_MULTIPOLES>  (1) 
427.19
9.8
2.82
0.61
0.02
0.42
0
-2.75
0
0.92
0
0
-0.01
0

>  <PUBCHEM_SHAPE_SELFOVERLAP>  (1) 
974.397

>  <PUBCHEM_SHAPE_VOLUME>  (1) 
222.4

>  <PUBCHEM_COORDINATE_TYPE>  (1) 
2
5
10

$$$$
