40139
     RDKit          3D

 22 21  0  0  1  0  0  0  0  0999 V2000
    2.1794    1.6097   -2.5762 O   0  0  0  0  0  0  0  0  0  0  0  0
   -0.7447    0.4354   -1.5824 O   0  0  0  0  0  0  0  0  0  0  0  0
   -2.7733    2.0627   -0.9375 O   0  0  0  0  0  0  0  0  0  0  0  0
   -2.2321   -2.0524   -1.5790 O   0  0  0  0  0  0  0  0  0  0  0  0
   -5.1645    1.2216    0.0231 O   0  0  0  0  0  0  0  0  0  0  0  0
    0.2378   -2.8926   -1.1451 O   0  0  0  0  0  0  0  0  0  0  0  0
   -4.5358    0.6634    2.7020 O   0  0  0  0  0  0  0  0  0  0  0  0
    3.8770    0.8674    0.6772 N   0  0  0  0  0  0  0  0  0  0  0  0
    0.4477   -1.7792    0.8784 N   0  0  0  0  0  0  0  0  0  0  0  0
    2.7953    0.0422    1.2682 C   0  0  0  0  0  0  0  0  0  0  0  0
    3.7153    0.9702   -0.8458 C   0  0  0  0  0  0  0  0  0  0  0  0
    2.8767   -1.3674    0.6964 C   0  0  0  0  0  0  0  0  0  0  0  0
    3.8566    2.2895    1.2554 C   0  0  0  0  0  0  0  0  0  0  0  0
    5.2534    0.2537    0.9700 C   0  0  0  0  0  0  0  0  0  0  0  0
    1.7630   -2.2673    1.2216 C   0  0  0  0  0  0  0  0  0  0  0  0
    2.3498    1.5454   -1.1665 C   0  0  0  0  0  0  0  0  0  0  0  0
   -1.5994    0.0107   -0.5124 C   0  0  0  0  0  0  0  0  0  0  0  0
   -2.9756    0.6537   -0.7553 C   0  0  0  0  0  0  0  0  0  0  0  0
   -1.6001   -1.5217   -0.4219 C   0  0  0  0  0  0  0  0  0  0  0  0
   -4.0007    0.4611    0.3721 C   0  0  0  0  0  0  0  0  0  0  0  0
   -0.2100   -2.1354   -0.2852 C   0  0  0  0  0  0  0  0  0  0  0  0
   -3.5160    0.9291    1.7429 C   0  0  0  0  0  0  0  0  0  0  0  0
  1 16  1  0
  2 17  1  0
  3 18  1  0
  4 19  1  0
  5 20  1  0
  6 21  2  0
  7 22  1  0
  8 10  1  0
  8 11  1  0
  8 13  1  0
  8 14  1  0
  9 15  1  0
  9 21  1  0
 10 12  1  0
 11 16  1  0
 12 15  1  0
 17 18  1  0
 17 19  1  0
 18 20  1  0
 19 21  1  0
 20 22  1  0
M  CHG  1   8   1
M  END
>  <PUBCHEM_COMPOUND_CID>  (1) 
40139

>  <PUBCHEM_CONFORMER_RMSD>  (1) 
1.2

>  <PUBCHEM_CONFORMER_DIVERSEORDER>  (1) 
1
69
146
101
200
232
175
82
241
98
196
178
171
270
92
21
122
31
7
63
167
229
278
289
221
81
85
222
44
254
94
150
130
238
96
233
87
236
19
59
280
194
75
37
164
34
273
28
140
252
43
10
195
262
40
286
76
51
66
207
199
230
259
65
77
166
58
239
118
126
242
154
128
210
57
265
168
283
240
120
183
62
135
27
266
246
264
255
102
275
131
170
109
261
225
271
160
218
33
97
123
80
64
104
13
83
250
215
235
224
153
185
203
60
217
8
115
74
219
137
188
256
53
155
132
187
251
204
4
20
15
134
147
151
9
244
111
201
142
99
107
25
148
138
49
216
149
45
117
202
227
139
11
245
3
220
105
55
18
162
106
14
206
198
89
267
208
192
180
17
279
125
281
158
285
258
186
61
176
212
184
100
47
253
68
16
48
29
103
243
26
226
177
136
288
22
209
56
88
116
84
6
257
24
213
161
12
38
165
133
152
73
23
114
108
110
72
71
277
248
141
52
190
41
159
231
291
93
237
144
121
91
46
276
191
90
269
211
197
274
42
287
50
39
228
205
129
272
169
290
5
193
247
145
260
36
223
173
124
112
157
181
67
95
70
284
163
113
86
35
179
32
2
156
263
127
54
119
143
79
189
30
268
174
214
172
182
78
282
249
234

>  <PUBCHEM_MMFF94_PARTIAL_CHARGES>  (1) 
28
1 -0.68
10 0.5
11 0.5
13 0.5
14 0.5
15 0.3
16 0.28
17 0.28
18 0.28
19 0.34
2 -0.68
20 0.28
21 0.57
22 0.28
3 -0.68
4 -0.68
42 0.37
46 0.4
47 0.4
48 0.4
49 0.4
5 -0.68
50 0.4
51 0.4
6 -0.57
7 -0.68
8 -1.01
9 -0.73

>  <PUBCHEM_EFFECTIVE_ROTOR_COUNT>  (1) 
12

>  <PUBCHEM_PHARMACOPHORE_FEATURES>  (1) 
15
1 1 acceptor
1 1 donor
1 2 acceptor
1 2 donor
1 3 acceptor
1 3 donor
1 4 acceptor
1 4 donor
1 5 acceptor
1 5 donor
1 6 acceptor
1 7 acceptor
1 7 donor
1 8 cation
1 9 donor

>  <PUBCHEM_HEAVY_ATOM_COUNT>  (1) 
22

>  <PUBCHEM_ATOM_DEF_STEREO_COUNT>  (1) 
4

>  <PUBCHEM_ATOM_UDEF_STEREO_COUNT>  (1) 
0

>  <PUBCHEM_BOND_DEF_STEREO_COUNT>  (1) 
0

>  <PUBCHEM_BOND_UDEF_STEREO_COUNT>  (1) 
0

>  <PUBCHEM_ISOTOPIC_ATOM_COUNT>  (1) 
0

>  <PUBCHEM_COMPONENT_COUNT>  (1) 
1

>  <PUBCHEM_CACTVS_TAUTO_COUNT>  (1) 
2

>  <PUBCHEM_CONFORMER_ID>  (1) 
00009CCB00000001

>  <PUBCHEM_MMFF94_ENERGY>  (1) 
54.7048

>  <PUBCHEM_FEATURE_SELFOVERLAP>  (1) 
76.179

>  <PUBCHEM_SHAPE_FINGERPRINT>  (1) 
10382601 240 17968922125249017826
11045977 3 16877665630283535083
12422481 6 17973690660076402290
12553582 1 17603857940804147244
12633257 1 18272077323549207224
12788726 201 17690008150883571478
128238 76 18191880135299337587
13583140 156 15430578637123924994
13828863 39 16373000934411561508
14026960 21 18113622257283285559
14251757 17 13110683792155857993
14251764 30 14924213865011593370
14955137 171 17749394737432672980
15342168 16 18058446513729161849
1813 80 11386370399998439261
20261772 1 18114174246723046428
22182937 141 18269550709799160170
23557571 272 17702938287472517238
23559900 14 16444489879116949415
2637199 183 17988649566562802458
3472631 163 17917423263376735577
4098825 35 16988296377341547070
474 4 18040707087030776982
49207404 50 17821733805766621731
59682541 52 11886831629059536489
633830 44 17560807597715117025
6438754 60 11023828340650918887
7064713 232 18337099138000627884

>  <PUBCHEM_SHAPE_MULTIPOLES>  (1) 
401.7
9.86
2.75
2.03
1.29
1.32
0.12
-5.98
4.32
-0.69
-0.46
0.67
-0.62
-1.14

>  <PUBCHEM_SHAPE_SELFOVERLAP>  (1) 
767.443

>  <PUBCHEM_SHAPE_VOLUME>  (1) 
246.5

>  <PUBCHEM_COORDINATE_TYPE>  (1) 
2
5
10

$$$$
