40133
     RDKit          3D

 17 20  0  0  1  0  0  0  0  0999 V2000
    0.0537    2.1301    0.6626 O   0  0  0  0  0  0  0  0  0  0  0  0
   -2.2784    0.5405    0.6621 N   0  0  0  0  0  0  0  0  0  0  0  0
   -0.4851    0.3821   -1.0114 C   0  0  0  0  0  0  0  0  0  0  0  0
   -1.9929    0.6389   -0.7804 C   0  0  0  0  0  0  0  0  0  0  0  0
    0.0036   -0.9467   -0.3534 C   0  0  0  0  0  0  0  0  0  0  0  0
   -2.2261   -0.9097    0.9122 C   0  0  0  0  0  0  0  0  0  0  0  0
   -0.7330   -1.2878    0.9533 C   0  0  0  0  0  0  0  0  0  0  0  0
   -2.8280   -0.4927   -1.3968 C   0  0  0  0  0  0  0  0  0  0  0  0
   -2.9480   -1.5356   -0.2846 C   0  0  0  0  0  0  0  0  0  0  0  0
    0.4875    1.4932   -0.5254 C   0  0  0  0  0  0  0  0  0  0  0  0
    1.4623   -0.6627   -0.1462 C   0  0  0  0  0  0  0  0  0  0  0  0
    1.7351    0.7058   -0.2566 C   0  0  0  0  0  0  0  0  0  0  0  0
   -3.5608    1.1338    1.0312 C   0  0  0  0  0  0  0  0  0  0  0  0
    2.4712   -1.5713    0.1334 C   0  0  0  0  0  0  0  0  0  0  0  0
    3.0225    1.1910   -0.0877 C   0  0  0  0  0  0  0  0  0  0  0  0
    3.7714   -1.0903    0.2990 C   0  0  0  0  0  0  0  0  0  0  0  0
    4.0452    0.2814    0.1887 C   0  0  0  0  0  0  0  0  0  0  0  0
  1 10  1  0
  2  4  1  0
  2  6  1  0
  2 13  1  0
  3  4  1  0
  3  5  1  0
  3 10  1  0
  4  8  1  0
  5  7  1  0
  5 11  1  0
  6  7  1  0
  6  9  1  0
  8  9  1  0
 10 12  1  0
 11 12  2  0
 11 14  1  0
 12 15  1  0
 14 16  2  0
 15 17  2  0
 16 17  1  0
M  END
>  <PUBCHEM_COMPOUND_CID>  (1) 
40133

>  <PUBCHEM_CONFORMER_RMSD>  (1) 
0.6

>  <PUBCHEM_CONFORMER_DIVERSEORDER>  (1) 
1
2
3

>  <PUBCHEM_MMFF94_PARTIAL_CHARGES>  (1) 
18
1 -0.68
10 0.42
11 -0.14
12 -0.14
13 0.27
14 -0.15
15 -0.15
16 -0.15
17 -0.15
2 -0.81
32 0.15
33 0.15
34 0.4
35 0.15
36 0.15
4 0.27
5 0.14
6 0.27

>  <PUBCHEM_EFFECTIVE_ROTOR_COUNT>  (1) 
1

>  <PUBCHEM_PHARMACOPHORE_FEATURES>  (1) 
6
1 1 acceptor
1 1 donor
1 2 cation
5 3 5 10 11 12 rings
6 11 12 14 15 16 17 rings
8 2 3 4 5 6 7 8 9 rings

>  <PUBCHEM_HEAVY_ATOM_COUNT>  (1) 
17

>  <PUBCHEM_ATOM_DEF_STEREO_COUNT>  (1) 
3

>  <PUBCHEM_ATOM_UDEF_STEREO_COUNT>  (1) 
2

>  <PUBCHEM_BOND_DEF_STEREO_COUNT>  (1) 
0

>  <PUBCHEM_BOND_UDEF_STEREO_COUNT>  (1) 
0

>  <PUBCHEM_ISOTOPIC_ATOM_COUNT>  (1) 
0

>  <PUBCHEM_COMPONENT_COUNT>  (1) 
1

>  <PUBCHEM_CACTVS_TAUTO_COUNT>  (1) 
1

>  <PUBCHEM_CONFORMER_ID>  (1) 
00009CC500000001

>  <PUBCHEM_MMFF94_ENERGY>  (1) 
53.3917

>  <PUBCHEM_FEATURE_SELFOVERLAP>  (1) 
30.554

>  <PUBCHEM_SHAPE_FINGERPRINT>  (1) 
10062212 137 18343013393850734967
10608611 8 18187638124554062148
10863032 1 18272370871230048307
11132069 177 18410004416938302336
11578080 2 17057486406220812161
12251169 10 18410864239231283945
12382932 28 18413113839879230442
12491281 212 18201443562202588905
13024252 1 16515400764236655975
13132413 78 18341620308207668809
13140716 1 18408324376082667906
13296908 3 16805323301272589484
13571099 22 18261384546850615582
13581323 91 16298110886434645682
13583140 156 15123212305010664910
14144814 61 18409165528231687802
14289901 80 16128655279801645174
15219456 202 18186798097638571710
15309172 13 18413388739419669286
15375462 189 18113900416519084722
15375462 478 18131636711653742085
15653759 3 16950286204091670257
15775835 57 17917997165417211809
16945 1 17967536787130217670
17844478 74 17676211247028430692
18186145 218 18187646882018693782
19422 9 18342739632735333014
200 152 18271796982338114487
20201158 50 18260261958448155282
20279233 1 17676199182628930366
20525323 117 18202566180949654599
21267235 1 18410301328006843502
21501502 16 18335708294282406765
22721475 48 18187368744131176398
2334 1 18336266829146812190
23402539 116 18201711851587561326
23463225 33 18407761443419553988
23493267 7 15068893106230130581
23557571 272 15338846395320017985
23559900 14 18115013122924742658
2748010 2 18261110781377280350
296302 2 18186523224095186204
3286 77 18268988859531179733
5104073 3 18409445895370522650
63268167 104 18409161142901137191
69090 78 18411980231054769551
77492 1 17775283897648111302
8809292 202 18041002825825973554

>  <PUBCHEM_SHAPE_MULTIPOLES>  (1) 
339
6.33
1.8
1.08
2.46
0.16
-0.05
-0.52
0.67
0.09
0.23
-0.87
0.04
-0.35

>  <PUBCHEM_SHAPE_SELFOVERLAP>  (1) 
752.821

>  <PUBCHEM_SHAPE_VOLUME>  (1) 
182.6

>  <PUBCHEM_COORDINATE_TYPE>  (1) 
2
5
10

$$$$
