4014
     RDKit          3D

 20 21  0  0  0  0  0  0  0  0999 V2000
    2.8428    2.6866   -0.0292 O   0  0  0  0  0  0  0  0  0  0  0  0
   -5.5837   -0.0174    0.0336 O   0  0  0  0  0  0  0  0  0  0  0  0
   -6.1322   -2.6686   -0.0223 O   0  0  0  0  0  0  0  0  0  0  0  0
   -1.3266    2.7339    0.0003 N   0  0  0  0  0  0  0  0  0  0  0  0
   -4.8126   -2.1956   -0.0266 N   0  0  0  0  0  0  0  0  0  0  0  0
    0.6490    1.8128   -0.0025 C   0  0  0  0  0  0  0  0  0  0  0  0
    2.7512    0.3677   -0.0032 C   0  0  0  0  0  0  0  0  0  0  0  0
   -1.5173    1.3769    0.0093 C   0  0  0  0  0  0  0  0  0  0  0  0
    2.1205    1.6783   -0.0081 C   0  0  0  0  0  0  0  0  0  0  0  0
   -0.2776    0.7765    0.0076 C   0  0  0  0  0  0  0  0  0  0  0  0
    0.0161    3.0087   -0.0069 C   0  0  0  0  0  0  0  0  0  0  0  0
    3.0482   -0.2677   -1.2088 C   0  0  0  0  0  0  0  0  0  0  0  0
    3.0602   -0.2532    1.2070 C   0  0  0  0  0  0  0  0  0  0  0  0
    3.9630   -2.1450    0.0059 C   0  0  0  0  0  0  0  0  0  0  0  0
    3.6541   -1.5241   -1.2042 C   0  0  0  0  0  0  0  0  0  0  0  0
    3.6661   -1.5096    1.2116 C   0  0  0  0  0  0  0  0  0  0  0  0
   -2.8341    0.8915    0.0173 C   0  0  0  0  0  0  0  0  0  0  0  0
    4.6126   -3.4877    0.0118 C   0  0  0  0  0  0  0  0  0  0  0  0
   -3.2326   -0.4319    0.0035 C   0  0  0  0  0  0  0  0  0  0  0  0
   -4.6672   -0.8321    0.0038 C   0  0  0  0  0  0  0  0  0  0  0  0
  1  9  2  0
  2 20  2  0
  3  5  1  0
  4  8  1  0
  4 11  1  0
  5 20  1  0
  6  9  1  0
  6 10  1  0
  6 11  2  0
  7  9  1  0
  7 12  2  0
  7 13  1  0
  8 10  2  0
  8 17  1  0
 12 15  1  0
 13 16  2  0
 14 15  2  0
 14 16  1  0
 14 18  1  0
 17 19  2  0
 19 20  1  0
M  END
>  <PUBCHEM_COMPOUND_CID>  (1) 
4014

>  <PUBCHEM_CONFORMER_RMSD>  (1) 
0.8

>  <PUBCHEM_CONFORMER_DIVERSEORDER>  (1) 
1
11
15
7
5
12
4
9
16
8
14
6
17
18
2
3
10
13

>  <PUBCHEM_MMFF94_PARTIAL_CHARGES>  (1) 
31
1 -0.57
10 -0.15
11 -0.3
12 -0.15
13 -0.15
14 -0.14
15 -0.15
16 -0.15
17 -0.11
18 0.14
19 -0.14
2 -0.57
20 0.62
21 0.15
22 0.15
23 0.27
24 0.15
25 0.15
26 0.15
27 0.15
28 0.15
3 -0.44
32 0.15
33 0.37
34 0.4
4 0.03
5 -0.39
6 -0.09
7 0.09
8 -0.2
9 0.57

>  <PUBCHEM_EFFECTIVE_ROTOR_COUNT>  (1) 
5

>  <PUBCHEM_PHARMACOPHORE_FEATURES>  (1) 
7
1 1 acceptor
1 2 acceptor
1 4 cation
1 4 donor
1 5 donor
5 4 6 8 10 11 rings
6 7 12 13 14 15 16 rings

>  <PUBCHEM_HEAVY_ATOM_COUNT>  (1) 
20

>  <PUBCHEM_ATOM_DEF_STEREO_COUNT>  (1) 
0

>  <PUBCHEM_ATOM_UDEF_STEREO_COUNT>  (1) 
0

>  <PUBCHEM_BOND_DEF_STEREO_COUNT>  (1) 
0

>  <PUBCHEM_BOND_UDEF_STEREO_COUNT>  (1) 
1

>  <PUBCHEM_ISOTOPIC_ATOM_COUNT>  (1) 
0

>  <PUBCHEM_COMPONENT_COUNT>  (1) 
1

>  <PUBCHEM_CACTVS_TAUTO_COUNT>  (1) 
9

>  <PUBCHEM_CONFORMER_ID>  (1) 
00000FAE00000001

>  <PUBCHEM_MMFF94_ENERGY>  (1) 
48.8672

>  <PUBCHEM_FEATURE_SELFOVERLAP>  (1) 
35.52

>  <PUBCHEM_SHAPE_FINGERPRINT>  (1) 
10042902 136 18266466408348916534
108634 29 17968945326098114938
11088757 655 18117541965304141226
11578080 2 17315340450795479212
11796584 16 18114729448428689769
12107183 9 18270412577388183345
12363563 72 18410297973420737196
13255334 9 18410014372799387267
13533116 47 18271528718986469107
13583140 156 14835571219825526385
13911852 28 18412259545758226799
13955234 65 17982172520090211345
14178342 30 17700139802741116888
1420 369 18412262831001818331
14251740 57 18272372009344069367
14347424 109 18272656731928057537
14576447 43 18408329886815631516
14848178 5 18341041965481465419
14863182 85 18192713569207744404
14866123 147 18124599678776152625
15003188 105 18041267846656639450
15042514 8 18195247720118773001
15342816 4 18408891741083049940
15352361 1 18410573950813130099
15885798 251 18411138022074827501
17492 89 18411134714675573086
17859628 70 18340486784881224560
1798214 55 9295280651499328994
193927 3 18271812293611330605
1979834 28 17418103113354928911
20281475 54 18339085882540091304
20403669 9 18341334392419143727
20645477 70 18336263552150068797
20843269 155 18117549631567725674
21279426 13 18261382327075340061
21478907 32 18410576146116665193
22620623 9 17023733516846022013
22950370 63 18410018723632679313
23379529 103 18340209587634308198
23424784 1240 18117570737021109627
23559900 14 18338224973330382944
25222932 49 17982735469748012951
3004659 81 18186238424481609039
314194 84 18197497531551900059
316301 35 18267579101321248106
325973 47 18408608075758434259
33824 294 18267584800278470056
3421961 26 18413106194821898640
44062 13 18189330187313503717
465052 167 18342745117345520047
5104073 3 18131074831474518217
556388 4 18408322189691015402
56633871 153 18125450713402405859
7062679 13 18410012096060759446
76465 3 18410012091775815404
7808743 9 9438529411818018734
7970288 3 18338234847497405526
88748 71 18335987484558386755
8988823 20 17203029868606959025
960060 61 17894635876432544767
9709674 26 18262240040185671977

>  <PUBCHEM_SHAPE_MULTIPOLES>  (1) 
384.02
11.9
3.81
0.91
14.16
0.28
0
13.92
0.02
-0.52
-0.02
-1.07
0.22
-0.05

>  <PUBCHEM_SHAPE_SELFOVERLAP>  (1) 
824.413

>  <PUBCHEM_SHAPE_VOLUME>  (1) 
213.3

>  <PUBCHEM_COORDINATE_TYPE>  (1) 
2
5
10

$$$$
