40140
     RDKit          3D

 17 17  0  0  0  0  0  0  0  0999 V2000
   -0.4075    1.7288    0.7729 O   0  0  0  0  0  0  0  0  0  0  0  0
    3.6610   -0.2909   -0.0761 N   0  0  0  0  0  0  0  0  0  0  0  0
    0.4194    1.0730   -1.2958 N   0  0  0  0  0  0  0  0  0  0  0  0
    2.2369   -0.2970   -0.4094 C   0  0  0  0  0  0  0  0  0  0  0  0
    1.8111    1.0658   -0.9355 C   0  0  0  0  0  0  0  0  0  0  0  0
    3.9449    0.7265    0.9353 C   0  0  0  0  0  0  0  0  0  0  0  0
    4.0813   -1.6103    0.3940 C   0  0  0  0  0  0  0  0  0  0  0  0
    5.4301    0.7888    1.2495 C   0  0  0  0  0  0  0  0  0  0  0  0
    3.7936   -2.6808   -0.6451 C   0  0  0  0  0  0  0  0  0  0  0  0
   -0.5898    1.4088   -0.3990 C   0  0  0  0  0  0  0  0  0  0  0  0
   -1.9606    1.3386   -1.0441 C   0  0  0  0  0  0  0  0  0  0  0  0
   -2.8863    0.3584   -0.3734 C   0  0  0  0  0  0  0  0  0  0  0  0
   -2.9152   -0.9599   -0.8062 C   0  0  0  0  0  0  0  0  0  0  0  0
   -3.6977    0.7872    0.6675 C   0  0  0  0  0  0  0  0  0  0  0  0
   -3.7730   -1.8679   -0.1852 C   0  0  0  0  0  0  0  0  0  0  0  0
   -4.5553   -0.1207    1.2886 C   0  0  0  0  0  0  0  0  0  0  0  0
   -4.5930   -1.4483    0.8620 C   0  0  0  0  0  0  0  0  0  0  0  0
  1 10  2  0
  2  4  1  0
  2  6  1  0
  2  7  1  0
  3  5  1  0
  3 10  1  0
  4  5  1  0
  6  8  1  0
  7  9  1  0
 10 11  1  0
 11 12  1  0
 12 13  2  0
 12 14  1  0
 13 15  1  0
 14 16  2  0
 15 17  2  0
 16 17  1  0
M  END
>  <PUBCHEM_COMPOUND_CID>  (1) 
40140

>  <PUBCHEM_CONFORMER_RMSD>  (1) 
0.8

>  <PUBCHEM_CONFORMER_DIVERSEORDER>  (1) 
1
15
95
2
21
30
36
25
57
8
46
45
93
88
90
41
67
38
18
91
33
60
56
78
92
85
81
10
39
72
82
79
83
22
77
69
16
94
28
35
84
65
63
70
14
12
6
11
61
9
80
40
74
48
52
31
13
44
7
34
89
86
19
5
42
58
51
62
49
76
23
75
17
37
3
53
20
59
43
73
24
27
4
71
32
68
29
87
47
66
54
50
55
64
26

>  <PUBCHEM_MMFF94_PARTIAL_CHARGES>  (1) 
21
1 -0.57
10 0.57
11 0.2
12 -0.14
13 -0.15
14 -0.15
15 -0.15
16 -0.15
17 -0.15
2 -0.81
26 0.37
3 -0.73
35 0.15
36 0.15
37 0.15
38 0.15
39 0.15
4 0.27
5 0.3
6 0.27
7 0.27

>  <PUBCHEM_EFFECTIVE_ROTOR_COUNT>  (1) 
8

>  <PUBCHEM_PHARMACOPHORE_FEATURES>  (1) 
4
1 1 acceptor
1 2 cation
1 3 donor
6 12 13 14 15 16 17 rings

>  <PUBCHEM_HEAVY_ATOM_COUNT>  (1) 
17

>  <PUBCHEM_ATOM_DEF_STEREO_COUNT>  (1) 
0

>  <PUBCHEM_ATOM_UDEF_STEREO_COUNT>  (1) 
0

>  <PUBCHEM_BOND_DEF_STEREO_COUNT>  (1) 
0

>  <PUBCHEM_BOND_UDEF_STEREO_COUNT>  (1) 
0

>  <PUBCHEM_ISOTOPIC_ATOM_COUNT>  (1) 
0

>  <PUBCHEM_COMPONENT_COUNT>  (1) 
1

>  <PUBCHEM_CACTVS_TAUTO_COUNT>  (1) 
2

>  <PUBCHEM_CONFORMER_ID>  (1) 
00009CCC00000001

>  <PUBCHEM_MMFF94_ENERGY>  (1) 
27.8513

>  <PUBCHEM_FEATURE_SELFOVERLAP>  (1) 
20.297

>  <PUBCHEM_SHAPE_FINGERPRINT>  (1) 
11089746 13 10447927231350211100
11370993 144 18058732394619774489
11543360 7 12035741923954433249
11552529 35 17273963817184561255
12596602 18 17275108365913165027
12633257 1 16415474943664079643
12670546 177 12396308062085532737
12892183 10 18202847655710061313
13255334 9 18335704884427105030
13544653 18 18410570690916972532
13551218 46 18410582769066985923
13583140 156 18130209519633440276
13675066 3 18410575063362510837
13911882 115 18410298025620065730
14123255 52 10447921754871386940
14123260 362 11671787087208395873
1420 369 18259989275016298507
14251710 61 18260835860320203270
14252887 29 18408322173038419948
14341114 328 17418373614547259850
146900 427 18129378371016926352
14848178 96 11023818479432868266
15342816 4 17022901229609271916
15375462 189 18341900735375519381
15880784 105 18201721751619372386
16126227 98 17838328946237278168
17349148 13 16081084845059948144
17780758 139 18271524174251686970
1813 80 17675931997024101869
193927 3 17821739337790013315
19784866 170 16200441272776644800
20281475 54 18408328791087417645
20291156 8 18261114045367737471
20432913 95 18408044021849457897
20621476 91 18118383250058603104
20671657 53 16370444474965818917
20693207 138 15286220508903085905
21065199 12 18343299232619680896
21315759 227 17531250611968537075
21673915 165 18410852179053235706
23402539 116 15430308105850589180
235170 7 14129065780980938818
23559900 14 18339635634443789724
2838139 119 11023557818073266347
316301 35 18188769427957583290
5104073 3 18341045203944602240
5486654 36 17767692659486624146
59027123 10 11530482237572542827
5924683 9 17988637541224248383

>  <PUBCHEM_SHAPE_MULTIPOLES>  (1) 
334.02
12.03
2.22
1.26
4.63
1.16
-0.1
4.47
-4.84
0.84
0.31
-0.04
-0.23
0.87

>  <PUBCHEM_SHAPE_SELFOVERLAP>  (1) 
663.31

>  <PUBCHEM_SHAPE_VOLUME>  (1) 
199

>  <PUBCHEM_COORDINATE_TYPE>  (1) 
2
5
10

$$$$
