40143
     RDKit          3D

 17 20  0  0  1  0  0  0  0  0999 V2000
    0.6613   -2.7382    0.5209 O   0  0  0  0  0  0  0  0  0  0  0  0
   -2.2763   -0.3262   -0.8921 N   0  0  0  0  0  0  0  0  0  0  0  0
   -0.5008   -0.6038    0.7670 C   0  0  0  0  0  0  0  0  0  0  0  0
   -2.0018   -0.8236    0.4682 C   0  0  0  0  0  0  0  0  0  0  0  0
   -0.0466    0.8679    0.5353 C   0  0  0  0  0  0  0  0  0  0  0  0
   -2.2728    1.1368   -0.7126 C   0  0  0  0  0  0  0  0  0  0  0  0
   -0.7946    1.5601   -0.6185 C   0  0  0  0  0  0  0  0  0  0  0  0
   -2.8684    0.0612    1.3739 C   0  0  0  0  0  0  0  0  0  0  0  0
   -3.0217    1.3717    0.6023 C   0  0  0  0  0  0  0  0  0  0  0  0
    0.4460   -1.4804   -0.0923 C   0  0  0  0  0  0  0  0  0  0  0  0
    1.4142    0.6795    0.2415 C   0  0  0  0  0  0  0  0  0  0  0  0
    1.6950   -0.6500   -0.1000 C   0  0  0  0  0  0  0  0  0  0  0  0
   -3.5373   -0.8254   -1.4344 C   0  0  0  0  0  0  0  0  0  0  0  0
    2.4137    1.6393    0.2614 C   0  0  0  0  0  0  0  0  0  0  0  0
    2.9812   -1.0396   -0.4391 C   0  0  0  0  0  0  0  0  0  0  0  0
    3.7137    1.2503   -0.0667 C   0  0  0  0  0  0  0  0  0  0  0  0
    3.9952   -0.0797   -0.4151 C   0  0  0  0  0  0  0  0  0  0  0  0
  1 10  1  0
  2  4  1  0
  2  6  1  0
  2 13  1  0
  3  4  1  0
  3  5  1  0
  3 10  1  0
  4  8  1  0
  5  7  1  0
  5 11  1  0
  6  7  1  0
  6  9  1  0
  8  9  1  0
 10 12  1  0
 11 12  2  0
 11 14  1  0
 12 15  1  0
 14 16  2  0
 15 17  2  0
 16 17  1  0
M  END
>  <PUBCHEM_COMPOUND_CID>  (1) 
40143

>  <PUBCHEM_CONFORMER_RMSD>  (1) 
0.6

>  <PUBCHEM_CONFORMER_DIVERSEORDER>  (1) 
2
1

>  <PUBCHEM_MMFF94_PARTIAL_CHARGES>  (1) 
18
1 -0.68
10 0.42
11 -0.14
12 -0.14
13 0.27
14 -0.15
15 -0.15
16 -0.15
17 -0.15
2 -0.81
32 0.15
33 0.15
34 0.4
35 0.15
36 0.15
4 0.27
5 0.14
6 0.27

>  <PUBCHEM_EFFECTIVE_ROTOR_COUNT>  (1) 
1

>  <PUBCHEM_PHARMACOPHORE_FEATURES>  (1) 
6
1 1 acceptor
1 1 donor
1 2 cation
5 3 5 10 11 12 rings
6 11 12 14 15 16 17 rings
8 2 3 4 5 6 7 8 9 rings

>  <PUBCHEM_HEAVY_ATOM_COUNT>  (1) 
17

>  <PUBCHEM_ATOM_DEF_STEREO_COUNT>  (1) 
3

>  <PUBCHEM_ATOM_UDEF_STEREO_COUNT>  (1) 
2

>  <PUBCHEM_BOND_DEF_STEREO_COUNT>  (1) 
0

>  <PUBCHEM_BOND_UDEF_STEREO_COUNT>  (1) 
0

>  <PUBCHEM_ISOTOPIC_ATOM_COUNT>  (1) 
0

>  <PUBCHEM_COMPONENT_COUNT>  (1) 
1

>  <PUBCHEM_CACTVS_TAUTO_COUNT>  (1) 
1

>  <PUBCHEM_CONFORMER_ID>  (1) 
00009CCF00000002

>  <PUBCHEM_MMFF94_ENERGY>  (1) 
52.0315

>  <PUBCHEM_FEATURE_SELFOVERLAP>  (1) 
30.557

>  <PUBCHEM_SHAPE_FINGERPRINT>  (1) 
10062212 137 18339351951458341050
10608611 8 18408604760137853880
10967382 1 18409733928519557424
11132069 177 18342453738363966192
11471102 20 18338800009300202008
11543360 7 16200151040762303920
11578080 2 17415529100367324393
12491281 212 17703522037809732129
13024252 1 13045943521358315665
13140716 1 18410294687976458616
13214271 11 18259994755879786993
13221675 6 18339930298753188025
13581323 91 16805331006438715352
13583140 156 16661196078872853016
13897977 150 18408605846600581800
14250199 8 18339921622819361301
15219456 202 18335146366621054632
15309172 13 18335987535934171848
15775835 57 18342742900931171068
16945 1 18335978658152394410
17357779 13 17832416880129180591
17844478 74 18114196223775301129
18186145 218 18413112745063541988
19422 9 17775287166039069860
200 152 17988918993976789189
21501502 16 18265043648433137587
22802520 49 18043252331794514237
2334 1 18410293657152730096
23402539 116 18342453725758684660
23402655 69 18342737377661601549
23493267 7 17240199915365897968
23557571 272 16588314847704455927
23559900 14 18342183259326355726
25 1 18336550404399245976
2748010 2 18263934413084026914
2871803 45 18339911701840332279
3286 77 17703498995547708568
5104073 3 18411983563891324408
528886 8 18410575076094308616
633830 44 18340215115478225284
69090 78 18341047514468344622
7364860 26 18121218684393864674
77492 1 17561368361340131320
81228 2 17758959616215121698
90525 40 17632857512414726359

>  <PUBCHEM_SHAPE_MULTIPOLES>  (1) 
339
6.29
1.94
1.07
2.03
0.49
0.05
-0.87
1
0.37
-0.09
-0.96
0.07
-0.13

>  <PUBCHEM_SHAPE_SELFOVERLAP>  (1) 
752.278

>  <PUBCHEM_SHAPE_VOLUME>  (1) 
184

>  <PUBCHEM_COORDINATE_TYPE>  (1) 
2
5
10

$$$$
