40144
     RDKit          3D

 18 19  0  0  0  0  0  0  0  0999 V2000
   -0.0633   -1.2295   -1.6942 O   0  0  0  0  0  0  0  0  0  0  0  0
   -0.6035    0.8731   -0.8792 N   0  0  0  0  0  0  0  0  0  0  0  0
   -3.2131   -0.9249   -0.4540 N   0  0  0  0  0  0  0  0  0  0  0  0
    1.5826   -0.1089   -0.4557 C   0  0  0  0  0  0  0  0  0  0  0  0
    3.4194    1.2398    0.3469 C   0  0  0  0  0  0  0  0  0  0  0  0
    3.5375   -1.1691    0.4884 C   0  0  0  0  0  0  0  0  0  0  0  0
    2.2736   -1.2652   -0.0939 C   0  0  0  0  0  0  0  0  0  0  0  0
    2.1556    1.1437   -0.2354 C   0  0  0  0  0  0  0  0  0  0  0  0
    4.1104    0.0835    0.7088 C   0  0  0  0  0  0  0  0  0  0  0  0
   -1.9513    0.9133   -1.3992 C   0  0  0  0  0  0  0  0  0  0  0  0
    0.2645   -0.2094   -1.0627 C   0  0  0  0  0  0  0  0  0  0  0  0
   -2.9522    0.3966   -0.4064 C   0  0  0  0  0  0  0  0  0  0  0  0
    4.0322    2.5790    0.5826 C   0  0  0  0  0  0  0  0  0  0  0  0
    4.2766   -2.4055    0.8750 C   0  0  0  0  0  0  0  0  0  0  0  0
   -3.5361    1.2820    0.4786 C   0  0  0  0  0  0  0  0  0  0  0  0
   -4.4587    0.7718    1.3851 C   0  0  0  0  0  0  0  0  0  0  0  0
   -4.1150   -1.3845    0.4421 C   0  0  0  0  0  0  0  0  0  0  0  0
   -4.7592   -0.5858    1.3731 C   0  0  0  0  0  0  0  0  0  0  0  0
  1 11  2  0
  2 10  1  0
  2 11  1  0
  3 12  2  0
  3 17  1  0
  4  7  2  0
  4  8  1  0
  4 11  1  0
  5  8  2  0
  5  9  1  0
  5 13  1  0
  6  7  1  0
  6  9  2  0
  6 14  1  0
 10 12  1  0
 12 15  1  0
 15 16  2  0
 16 18  1  0
 17 18  2  0
M  END
>  <PUBCHEM_COMPOUND_CID>  (1) 
40144

>  <PUBCHEM_CONFORMER_RMSD>  (1) 
0.6

>  <PUBCHEM_CONFORMER_DIVERSEORDER>  (1) 
1
15
43
36
40
26
38
23
2
18
31
41
30
10
47
46
20
24
45
27
44
37
28
19
5
29
9
42
25
12
35
3
17
32
6
16
8
11
14
4
34
22
13
39
33
21
7

>  <PUBCHEM_MMFF94_PARTIAL_CHARGES>  (1) 
26
1 -0.57
10 0.44
11 0.54
12 0.17
13 0.14
14 0.14
15 -0.15
16 -0.15
17 0.16
18 -0.15
19 0.15
2 -0.73
20 0.15
21 0.15
24 0.37
3 -0.62
31 0.15
32 0.15
33 0.15
34 0.15
4 0.09
5 -0.14
6 -0.14
7 -0.15
8 -0.15
9 -0.15

>  <PUBCHEM_EFFECTIVE_ROTOR_COUNT>  (1) 
4

>  <PUBCHEM_PHARMACOPHORE_FEATURES>  (1) 
5
1 1 acceptor
1 2 donor
1 3 acceptor
6 3 12 15 16 17 18 rings
6 4 5 6 7 8 9 rings

>  <PUBCHEM_HEAVY_ATOM_COUNT>  (1) 
18

>  <PUBCHEM_ATOM_DEF_STEREO_COUNT>  (1) 
0

>  <PUBCHEM_ATOM_UDEF_STEREO_COUNT>  (1) 
0

>  <PUBCHEM_BOND_DEF_STEREO_COUNT>  (1) 
0

>  <PUBCHEM_BOND_UDEF_STEREO_COUNT>  (1) 
0

>  <PUBCHEM_ISOTOPIC_ATOM_COUNT>  (1) 
0

>  <PUBCHEM_COMPONENT_COUNT>  (1) 
1

>  <PUBCHEM_CACTVS_TAUTO_COUNT>  (1) 
2

>  <PUBCHEM_CONFORMER_ID>  (1) 
00009CD000000001

>  <PUBCHEM_MMFF94_ENERGY>  (1) 
45.2415

>  <PUBCHEM_FEATURE_SELFOVERLAP>  (1) 
25.371

>  <PUBCHEM_SHAPE_FINGERPRINT>  (1) 
10498660 4 13326575108173165339
10670039 82 15841012004083466344
11045977 3 18334013865365159363
11370993 144 18335701581549385329
11405975 8 18189330186844329801
11543360 7 8934991569008124593
11552529 35 18198901603199985971
11796584 16 16374082583608184258
12107183 9 17980202985078293825
12363563 72 16009036094211872517
12390115 104 17907016536914194600
12403259 118 17846494790787458281
12507560 40 18261105257827837229
12633257 1 18341898441973785675
12644460 14 18410288117209310328
12707595 3 14634876365821965365
12892183 10 18409171047248864993
12916748 109 12679457595432565911
13103583 49 18192998118974207874
13583140 156 18261940878127545676
13675066 3 18040434373918920349
1420 369 17168151147939307643
14251764 30 18194128404734554894
14252887 29 17894346696421849704
14341114 176 18410580556520141920
14341114 328 17989214763121612851
14576447 43 12107798410149307248
14849402 71 18268707389631061616
14950920 106 18412266116662382547
15238133 3 17060063596856091793
15342816 4 14490193812677044996
15842332 3 17773010133878096550
15880784 105 18408606972172372115
16126227 98 17759529163872078668
1798214 20 12540692643337294113
1813 80 16370729235771677119
18222031 100 16081089289807780278
18785283 64 18187641449513000112
18915474 69 11602537628318680080
19050596 39 18342459227136926601
193927 3 16298680420847205987
19862831 5 9223235151973301293
20645477 56 12463276055611401527
20671657 53 13984664784685529495
20739085 24 18410581673654971500
21065198 48 18342177782377850953
21065198 57 18262513693631693853
21065199 12 18334293158488193889
21065201 7 16733533919283985460
21503847 285 18060710476610933684
21673915 165 18188208822417787755
21756936 100 17488176187783848892
21864079 5 16845001420170746264
22646028 28 16588312687230332859
22849341 161 17917150482194196674
231179 274 14548735075688364651
23402655 69 9367348145489777602
23503953 91 18059571360799557963
23559900 14 17603862256850237702
251288 83 17168143485612286188
2838139 119 13684350608800121619
316301 35 17530961354895987314
38570 142 18124892389503906204
49207404 50 18408604794428598354
5104073 3 18409446972948423369
53917941 68 10811073975159831818
5924683 9 18341891931362767743
59682541 52 10809614991711548747
633830 44 17632581543380497348
960060 61 11097855202626347642
9882013 296 18339361967364000421

>  <PUBCHEM_SHAPE_MULTIPOLES>  (1) 
354.6
11.08
2.12
1.32
4.36
0.03
0.15
-0.91
-5.54
-2.58
-0.46
0.89
-0.04
0.05

>  <PUBCHEM_SHAPE_SELFOVERLAP>  (1) 
752.822

>  <PUBCHEM_SHAPE_VOLUME>  (1) 
198.7

>  <PUBCHEM_COORDINATE_TYPE>  (1) 
2
5
10

$$$$
