40157
     RDKit          3D

 17 20  0  0  1  0  0  0  0  0999 V2000
    0.3733    2.6210   -0.1325 O   0  0  0  0  0  0  0  0  0  0  0  0
   -2.1473    0.3694    0.8872 N   0  0  0  0  0  0  0  0  0  0  0  0
   -1.9929    0.7849   -0.5178 C   0  0  0  0  0  0  0  0  0  0  0  0
   -0.5469    0.4967   -0.9494 C   0  0  0  0  0  0  0  0  0  0  0  0
   -2.2029   -1.0994    0.7870 C   0  0  0  0  0  0  0  0  0  0  0  0
   -0.0309   -0.9298   -0.5937 C   0  0  0  0  0  0  0  0  0  0  0  0
   -0.7507   -1.5716    0.6116 C   0  0  0  0  0  0  0  0  0  0  0  0
   -2.9636   -0.1158   -1.2898 C   0  0  0  0  0  0  0  0  0  0  0  0
   -3.0550   -1.3882   -0.4515 C   0  0  0  0  0  0  0  0  0  0  0  0
    1.4210   -0.6851   -0.2817 C   0  0  0  0  0  0  0  0  0  0  0  0
    0.4874    1.4268   -0.3355 C   0  0  0  0  0  0  0  0  0  0  0  0
    1.7017    0.6640   -0.0796 C   0  0  0  0  0  0  0  0  0  0  0  0
   -3.3398    0.9330    1.5154 C   0  0  0  0  0  0  0  0  0  0  0  0
    2.4258   -1.6268   -0.1241 C   0  0  0  0  0  0  0  0  0  0  0  0
    2.9524    1.1273    0.2820 C   0  0  0  0  0  0  0  0  0  0  0  0
    3.7042   -1.1864    0.2344 C   0  0  0  0  0  0  0  0  0  0  0  0
    3.9642    0.1799    0.4381 C   0  0  0  0  0  0  0  0  0  0  0  0
  1 11  2  0
  2  3  1  0
  2  5  1  0
  2 13  1  0
  3  4  1  0
  3  8  1  0
  4  6  1  0
  4 11  1  0
  5  7  1  0
  5  9  1  0
  6  7  1  0
  6 10  1  0
  8  9  1  0
 10 12  2  0
 10 14  1  0
 11 12  1  0
 12 15  1  0
 14 16  2  0
 15 17  2  0
 16 17  1  0
M  END
>  <PUBCHEM_COMPOUND_CID>  (1) 
40157

>  <PUBCHEM_CONFORMER_RMSD>  (1) 
0.6

>  <PUBCHEM_CONFORMER_DIVERSEORDER>  (1) 
2
1

>  <PUBCHEM_MMFF94_PARTIAL_CHARGES>  (1) 
18
1 -0.57
10 -0.14
11 0.42
12 0.09
13 0.27
14 -0.15
15 -0.15
16 -0.15
17 -0.15
2 -0.81
3 0.27
31 0.15
32 0.15
33 0.15
34 0.15
4 0.06
5 0.27
6 0.14

>  <PUBCHEM_EFFECTIVE_ROTOR_COUNT>  (1) 
0.8

>  <PUBCHEM_PHARMACOPHORE_FEATURES>  (1) 
5
1 1 acceptor
1 2 cation
5 4 6 10 11 12 rings
6 10 12 14 15 16 17 rings
8 2 3 4 5 6 7 8 9 rings

>  <PUBCHEM_HEAVY_ATOM_COUNT>  (1) 
17

>  <PUBCHEM_ATOM_DEF_STEREO_COUNT>  (1) 
2

>  <PUBCHEM_ATOM_UDEF_STEREO_COUNT>  (1) 
2

>  <PUBCHEM_BOND_DEF_STEREO_COUNT>  (1) 
0

>  <PUBCHEM_BOND_UDEF_STEREO_COUNT>  (1) 
0

>  <PUBCHEM_ISOTOPIC_ATOM_COUNT>  (1) 
0

>  <PUBCHEM_COMPONENT_COUNT>  (1) 
1

>  <PUBCHEM_CACTVS_TAUTO_COUNT>  (1) 
1

>  <PUBCHEM_CONFORMER_ID>  (1) 
00009CDD00000002

>  <PUBCHEM_MMFF94_ENERGY>  (1) 
50.3903

>  <PUBCHEM_FEATURE_SELFOVERLAP>  (1) 
25.481

>  <PUBCHEM_SHAPE_FINGERPRINT>  (1) 
10863032 1 18060419101365178411
10967382 1 18192991741127081934
1100329 8 14950416815358380786
11132069 177 18409440376100098090
11471102 22 18410296934328704618
11578080 2 17056919041019963449
12032990 46 18409165511183791534
12251169 10 18340779190607479057
12382932 28 18409730660007247242
124424 183 17968085430705987210
12491281 212 18060706078078892203
12696612 119 18338810008005088220
13024252 1 16225761909405345383
13140716 1 18410014312543283922
13172582 1 18336273378808232819
13296908 3 17385443228241609442
13583140 156 14476662067340138598
14144814 61 18411417327997906810
14289901 80 16415474969613127622
15219456 202 18334571352347072438
15309172 13 18342457045235829934
15375462 189 17968098586296355914
15375462 478 17917713530288170485
15653759 3 17167867460669193969
15775835 57 17346604062290552105
16945 1 18335709402352372652
17844478 74 17894917299758975364
18186145 218 18412266099545822638
200 152 18130495440264909687
20201158 50 18334007298476442094
20279233 1 18040427793928938870
20525323 117 17846782918641915559
21267235 1 18410860979446487062
21501502 16 18264215870727647213
22721475 48 18260552233754560454
23184049 59 18411707551580321931
2334 1 18409450318822995766
23388829 49 18129093609798792663
23402539 116 17988915687622156767
23419403 2 15392511504518876606
23463225 33 18408884053428920644
23493267 7 16226608459827207117
23557571 272 14907910404967682321
23559900 14 18189042128405304434
2748010 2 18408881802639269446
296302 2 18259702324130170452
3286 77 17345735465463969154
5104073 3 18411978062070029122
568465 68 17532681012239653929
63268167 104 18410288142303796317
6992083 37 18272369780313694935
7364860 26 18120936363324382028
77492 1 17704349991556049598
81228 2 18118408341210430324
8809292 202 18187647968703610874

>  <PUBCHEM_SHAPE_MULTIPOLES>  (1) 
339
6.18
1.91
1.08
2.21
0.39
0.1
-0.78
1.08
0.26
0.06
-0.97
0.08
-0.2

>  <PUBCHEM_SHAPE_SELFOVERLAP>  (1) 
758.816

>  <PUBCHEM_SHAPE_VOLUME>  (1) 
181.9

>  <PUBCHEM_COORDINATE_TYPE>  (1) 
2
5
10

$$$$
