40151
     RDKit          3D

 12 12  0  0  0  0  0  0  0  0999 V2000
   -3.4531    0.2285   -0.6509 N   0  0  0  0  0  0  0  0  0  0  0  0
   -4.8430    0.2750   -0.3382 N   0  0  0  0  0  0  0  0  0  0  0  0
    2.9893   -0.2491   -0.2388 C   0  0  0  0  0  0  0  0  0  0  0  0
    1.5141   -0.2020   -0.0266 C   0  0  0  0  0  0  0  0  0  0  0  0
   -1.2459   -0.1135    0.3696 C   0  0  0  0  0  0  0  0  0  0  0  0
    3.7791    0.1216    1.0308 C   0  0  0  0  0  0  0  0  0  0  0  0
    3.4443    0.6370   -1.4140 C   0  0  0  0  0  0  0  0  0  0  0  0
    0.8963    1.0019    0.3119 C   0  0  0  0  0  0  0  0  0  0  0  0
    0.7519   -1.3616   -0.1671 C   0  0  0  0  0  0  0  0  0  0  0  0
   -0.4837    1.0461    0.5102 C   0  0  0  0  0  0  0  0  0  0  0  0
   -0.6282   -1.3175    0.0310 C   0  0  0  0  0  0  0  0  0  0  0  0
   -2.7211   -0.0665    0.5821 C   0  0  0  0  0  0  0  0  0  0  0  0
  1  2  1  0
  1 12  1  0
  3  4  1  0
  3  6  1  0
  3  7  1  0
  4  8  2  0
  4  9  1  0
  5 10  2  0
  5 11  1  0
  5 12  1  0
  8 10  1  0
  9 11  2  0
M  END
>  <PUBCHEM_COMPOUND_CID>  (1) 
40151

>  <PUBCHEM_CONFORMER_RMSD>  (1) 
0.6

>  <PUBCHEM_CONFORMER_DIVERSEORDER>  (1) 
1
6
4
5
3
2

>  <PUBCHEM_MMFF94_PARTIAL_CHARGES>  (1) 
17
1 -0.63
10 -0.15
11 -0.15
12 0.41
2 -0.72
20 0.15
21 0.15
22 0.15
23 0.15
26 0.36
27 0.36
28 0.36
3 0.14
4 -0.14
5 -0.14
8 -0.15
9 -0.15

>  <PUBCHEM_EFFECTIVE_ROTOR_COUNT>  (1) 
3

>  <PUBCHEM_PHARMACOPHORE_FEATURES>  (1) 
4
1 1 donor
1 2 donor
3 3 6 7 hydrophobe
6 4 5 8 9 10 11 rings

>  <PUBCHEM_HEAVY_ATOM_COUNT>  (1) 
12

>  <PUBCHEM_ATOM_DEF_STEREO_COUNT>  (1) 
0

>  <PUBCHEM_ATOM_UDEF_STEREO_COUNT>  (1) 
0

>  <PUBCHEM_BOND_DEF_STEREO_COUNT>  (1) 
0

>  <PUBCHEM_BOND_UDEF_STEREO_COUNT>  (1) 
0

>  <PUBCHEM_ISOTOPIC_ATOM_COUNT>  (1) 
0

>  <PUBCHEM_COMPONENT_COUNT>  (1) 
1

>  <PUBCHEM_CACTVS_TAUTO_COUNT>  (1) 
1

>  <PUBCHEM_CONFORMER_ID>  (1) 
00009CD700000001

>  <PUBCHEM_MMFF94_ENERGY>  (1) 
25.7694

>  <PUBCHEM_FEATURE_SELFOVERLAP>  (1) 
21.627

>  <PUBCHEM_SHAPE_FINGERPRINT>  (1) 
10219947 1 18408608049823800664
11062470 55 17603587426056045265
11206711 2 18342747268997696837
11401426 45 18272360979983656049
11769659 78 14476967744145981716
124424 183 17821444655751931377
13380535 76 18411418405861073059
13705890 14 15123793968078143756
13760787 19 17313109682602698458
14911166 2 18343308080104435924
14943859 89 16805322206256493065
14993402 34 18342746225299122764
16945 1 18343030994668697802
17846911 113 18343858922755988082
18186145 218 17775291551227130776
19026448 4 16226056599394928769
19026448 5 16660646296940787162
19422 9 13254808922986207454
20279233 1 17775009007325835118
20645476 183 17896332478936020918
20645477 70 18337110047307672191
21293036 1 18342740719272303565
22485316 2 13542458761488541269
23402539 116 18059562586033490900
23402655 69 18341604864380615125
23559900 14 18201165438265668316
265663 24 16950278512069110835
2748010 2 17983298415184536938
369184 2 16443068335114693986
4047638 21 16660368073270072300
4072396 5 18265316357260453587
69090 78 17131827681329326422

>  <PUBCHEM_SHAPE_MULTIPOLES>  (1) 
236.99
7.1
1.15
0.98
4.33
0.2
-0.12
-1.15
-1.18
-0.11
0.02
-0.71
-0.14
-0.08

>  <PUBCHEM_SHAPE_SELFOVERLAP>  (1) 
476.487

>  <PUBCHEM_SHAPE_VOLUME>  (1) 
139.2

>  <PUBCHEM_COORDINATE_TYPE>  (1) 
2
5
10

$$$$
