40156
     RDKit          3D

  9  8  0  0  0  0  0  0  0  0999 V2000
   -1.6147    0.0251   -0.0060 S   0  0  0  0  0  0  0  0  0  0  0  0
   -0.1150   -0.6226   -0.0005 O   0  0  0  0  0  0  0  0  0  0  0  0
   -2.5887   -1.2733    0.1576 O   0  0  0  0  0  0  0  0  0  0  0  0
    1.1189    1.3160   -0.0164 O   0  0  0  0  0  0  0  0  0  0  0  0
   -1.7620    0.8490    1.1793 O   0  0  0  0  0  0  0  0  0  0  0  0
   -1.8455    0.5858   -1.3239 O   0  0  0  0  0  0  0  0  0  0  0  0
    2.2168   -0.8548    0.0012 C   0  0  0  0  0  0  0  0  0  0  0  0
    1.0443    0.0957   -0.0069 C   0  0  0  0  0  0  0  0  0  0  0  0
    3.5460   -0.1207    0.0157 C   0  0  0  0  0  0  0  0  0  0  0  0
  1  2  1  0
  1  3  1  0
  1  5  2  0
  1  6  2  0
  2  8  1  0
  4  8  2  0
  7  8  1  0
  7  9  1  0
M  END
>  <PUBCHEM_COMPOUND_CID>  (1) 
40156

>  <PUBCHEM_CONFORMER_RMSD>  (1) 
0.6

>  <PUBCHEM_CONFORMER_DIVERSEORDER>  (1) 
1
7
9
6
5
4
2
8
3

>  <PUBCHEM_MMFF94_PARTIAL_CHARGES>  (1) 
9
1 1.67
15 0.5
2 -0.33
3 -0.68
4 -0.57
5 -0.65
6 -0.65
7 0.06
8 0.66

>  <PUBCHEM_EFFECTIVE_ROTOR_COUNT>  (1) 
3

>  <PUBCHEM_PHARMACOPHORE_FEATURES>  (1) 
6
1 3 acceptor
1 4 acceptor
1 5 acceptor
1 6 acceptor
1 9 hydrophobe
4 1 3 5 6 anion

>  <PUBCHEM_HEAVY_ATOM_COUNT>  (1) 
9

>  <PUBCHEM_ATOM_DEF_STEREO_COUNT>  (1) 
0

>  <PUBCHEM_ATOM_UDEF_STEREO_COUNT>  (1) 
0

>  <PUBCHEM_BOND_DEF_STEREO_COUNT>  (1) 
0

>  <PUBCHEM_BOND_UDEF_STEREO_COUNT>  (1) 
0

>  <PUBCHEM_ISOTOPIC_ATOM_COUNT>  (1) 
0

>  <PUBCHEM_COMPONENT_COUNT>  (1) 
1

>  <PUBCHEM_CACTVS_TAUTO_COUNT>  (1) 
1

>  <PUBCHEM_CONFORMER_ID>  (1) 
00009CDC00000001

>  <PUBCHEM_MMFF94_ENERGY>  (1) 
2.7565

>  <PUBCHEM_FEATURE_SELFOVERLAP>  (1) 
30.505

>  <PUBCHEM_SHAPE_FINGERPRINT>  (1) 
12932764 1 17894634721260467154
24536 1 18273492368848133913
29004967 10 18335141960306245362
3248919 1 18201715116174208198
5084963 1 18260548969320972027
5460574 1 9223230745669203594

>  <PUBCHEM_SHAPE_MULTIPOLES>  (1) 
159.72
4.68
1.11
0.86
2.42
0.01
0.06
0.72
-0.04
-0.24
-0.06
-0.53
-0.19
0.01

>  <PUBCHEM_SHAPE_SELFOVERLAP>  (1) 
289.225

>  <PUBCHEM_SHAPE_VOLUME>  (1) 
102.9

>  <PUBCHEM_COORDINATE_TYPE>  (1) 
2
5
10

$$$$
