40166
     RDKit          3D

 27 29  0  0  0  0  0  0  0  0999 V2000
   -1.6789    1.8409   -2.3295 O   0  0  0  0  0  0  0  0  0  0  0  0
   -2.9378   -0.2575   -0.8474 O   0  0  0  0  0  0  0  0  0  0  0  0
   -2.0637    2.4470   -0.1163 N   0  0  0  0  0  0  0  0  0  0  0  0
   -0.6488   -0.4405   -0.4724 N   0  0  0  0  0  0  0  0  0  0  0  0
   -4.1291    3.0494    1.8296 C   0  0  0  0  0  0  0  0  0  0  0  0
   -4.4188    3.0493    0.3311 C   0  0  0  0  0  0  0  0  0  0  0  0
   -2.9818    2.0976    2.1561 C   0  0  0  0  0  0  0  0  0  0  0  0
   -3.1574    3.3575   -0.4687 C   0  0  0  0  0  0  0  0  0  0  0  0
   -1.7400    2.4012    1.3181 C   0  0  0  0  0  0  0  0  0  0  0  0
   -1.4087    1.7519   -1.1305 C   0  0  0  0  0  0  0  0  0  0  0  0
   -0.3079    0.8464   -0.7454 C   0  0  0  0  0  0  0  0  0  0  0  0
    0.9224    1.3693   -0.6992 C   0  0  0  0  0  0  0  0  0  0  0  0
   -1.9518   -0.9225   -0.5392 C   0  0  0  0  0  0  0  0  0  0  0  0
    2.1362    0.6566   -0.3470 C   0  0  0  0  0  0  0  0  0  0  0  0
   -2.1260   -2.3650   -0.2276 C   0  0  0  0  0  0  0  0  0  0  0  0
    3.3412    1.2493   -0.3219 C   0  0  0  0  0  0  0  0  0  0  0  0
    4.6062    0.5753    0.0189 C   0  0  0  0  0  0  0  0  0  0  0  0
   -3.3360   -2.7961    0.2749 C   0  0  0  0  0  0  0  0  0  0  0  0
   -1.0720   -3.2260   -0.4507 C   0  0  0  0  0  0  0  0  0  0  0  0
   -3.4993   -4.1502    0.5676 C   0  0  0  0  0  0  0  0  0  0  0  0
   -1.2354   -4.5800   -0.1581 C   0  0  0  0  0  0  0  0  0  0  0  0
    4.5717   -0.6126    0.7314 C   0  0  0  0  0  0  0  0  0  0  0  0
    5.8061    1.1417   -0.3800 C   0  0  0  0  0  0  0  0  0  0  0  0
   -2.4490   -5.0420    0.3513 C   0  0  0  0  0  0  0  0  0  0  0  0
    5.7694   -1.2512    1.0537 C   0  0  0  0  0  0  0  0  0  0  0  0
    7.0037    0.5032   -0.0578 C   0  0  0  0  0  0  0  0  0  0  0  0
    6.9853   -0.6931    0.6591 C   0  0  0  0  0  0  0  0  0  0  0  0
  1 10  2  0
  2 13  2  0
  3  8  1  0
  3  9  1  0
  3 10  1  0
  4 11  1  0
  4 13  1  0
  5  6  1  0
  5  7  1  0
  6  8  1  0
  7  9  1  0
 10 11  1  0
 11 12  2  0
 12 14  1  0
 13 15  1  0
 14 16  2  0
 15 18  2  0
 15 19  1  0
 16 17  1  0
 17 22  2  0
 17 23  1  0
 18 20  1  0
 19 21  2  0
 20 24  2  0
 21 24  1  0
 22 25  1  0
 23 26  2  0
 25 27  2  0
 26 27  1  0
M  END
>  <PUBCHEM_COMPOUND_CID>  (1) 
40166

>  <PUBCHEM_CONFORMER_RMSD>  (1) 
1

>  <PUBCHEM_CONFORMER_DIVERSEORDER>  (1) 
1
4
7
9
6
8
5
3
2

>  <PUBCHEM_MMFF94_PARTIAL_CHARGES>  (1) 
38
1 -0.57
10 0.62
11 0.12
12 -0.15
13 0.54
14 -0.15
15 0.09
16 -0.18
17 0.03
18 -0.15
19 -0.15
2 -0.57
20 -0.15
21 -0.15
22 -0.15
23 -0.15
24 -0.15
25 -0.15
26 -0.15
27 -0.15
3 -0.66
38 0.37
39 0.15
4 -0.54
40 0.15
41 0.15
42 0.15
43 0.15
44 0.15
45 0.15
46 0.15
47 0.15
48 0.15
49 0.15
50 0.15
51 0.15
8 0.3
9 0.3

>  <PUBCHEM_EFFECTIVE_ROTOR_COUNT>  (1) 
8.2

>  <PUBCHEM_PHARMACOPHORE_FEATURES>  (1) 
6
1 1 acceptor
1 2 acceptor
1 4 donor
6 15 18 19 20 21 24 rings
6 17 22 23 25 26 27 rings
6 3 5 6 7 8 9 rings

>  <PUBCHEM_HEAVY_ATOM_COUNT>  (1) 
27

>  <PUBCHEM_ATOM_DEF_STEREO_COUNT>  (1) 
0

>  <PUBCHEM_ATOM_UDEF_STEREO_COUNT>  (1) 
0

>  <PUBCHEM_BOND_DEF_STEREO_COUNT>  (1) 
0

>  <PUBCHEM_BOND_UDEF_STEREO_COUNT>  (1) 
2

>  <PUBCHEM_ISOTOPIC_ATOM_COUNT>  (1) 
0

>  <PUBCHEM_COMPONENT_COUNT>  (1) 
1

>  <PUBCHEM_CACTVS_TAUTO_COUNT>  (1) 
3

>  <PUBCHEM_CONFORMER_ID>  (1) 
00009CE600000001

>  <PUBCHEM_MMFF94_ENERGY>  (1) 
75.3747

>  <PUBCHEM_FEATURE_SELFOVERLAP>  (1) 
30.45

>  <PUBCHEM_SHAPE_FINGERPRINT>  (1) 
10074138 170 18412536617802355761
11036077 4 18411980222106268944
11036077 51 18412261709994196523
11445158 3 14491062431416795158
11552529 35 18339641243644587648
12107183 9 18122077661153633507
12549972 3 17057278517071238716
12760667 363 18267859656499652863
12788726 201 18121800570720632350
12969540 37 16967728053433248215
12988421 55 18126294038731882465
13004483 165 18125444369498280427
13631057 29 18263640848444128534
14844126 61 18337674216973465459
14866123 147 18410573994121596819
15042514 8 18263924504731813647
15230672 131 18192716644974242046
15250474 111 18187350035966272514
15799311 1 18335712598741769558
15927050 60 18269272353206421023
16728300 4 17969802928573571259
17868525 174 17547863310068936315
17980427 26 17693373339892003917
19301679 30 18265910218205170066
21033648 29 18051427179225726900
21120745 212 18050024468670862549
229767 44 18410022035094929355
23559900 14 18192978529961232044
244849 19 17344936073445180684
4058900 60 17982737363702411953
4073 2 18343302553510167542
4409770 3 18335978753496249863
463206 1 17684650218396101794
484985 159 18335415794415025039
497634 4 18261671571321030300
5104073 3 18339912784889658712
563151 248 18261684679186431010
5912855 24 18191036783931415012
59755656 520 18339919307837432436
6679774 75 17680741166295318058
6697151 62 17621302964153170423
7288768 16 17844259431934768761
7970288 3 17829887986311181450
79837 15 18340773641362072075
9981440 41 18194695761107975737

>  <PUBCHEM_SHAPE_MULTIPOLES>  (1) 
533.95
13.56
6.28
1.39
33.62
7.56
-0.21
-1.94
-4.04
-13
-1.09
-1.12
-1.16
-1.5

>  <PUBCHEM_SHAPE_SELFOVERLAP>  (1) 
1139.531

>  <PUBCHEM_SHAPE_VOLUME>  (1) 
292

>  <PUBCHEM_COORDINATE_TYPE>  (1) 
2
5
10

$$$$
