40161
     RDKit          3D

 16 15  0  0  0  0  0  0  0  0999 V2000
    1.7937   -0.4021    0.2836 S   0  0  0  0  0  0  0  0  0  0  0  0
    0.7083    0.1610   -1.9643 O   0  0  0  0  0  0  0  0  0  0  0  0
    1.5002    0.2467    1.5452 O   0  0  0  0  0  0  0  0  0  0  0  0
    2.0001   -1.8310    0.1630 O   0  0  0  0  0  0  0  0  0  0  0  0
   -0.8041    0.0556   -0.1731 N   0  0  0  0  0  0  0  0  0  0  0  0
   -1.7982    0.9524   -0.7490 C   0  0  0  0  0  0  0  0  0  0  0  0
   -1.2787   -0.7350    0.9623 C   0  0  0  0  0  0  0  0  0  0  0  0
   -1.7355    2.3589   -0.1429 C   0  0  0  0  0  0  0  0  0  0  0  0
   -1.9522   -2.0400    0.5233 C   0  0  0  0  0  0  0  0  0  0  0  0
    0.4498   -0.0109   -0.7802 C   0  0  0  0  0  0  0  0  0  0  0  0
   -0.3656    2.9838   -0.4094 C   0  0  0  0  0  0  0  0  0  0  0  0
   -2.0161    2.3385    1.3613 C   0  0  0  0  0  0  0  0  0  0  0  0
   -0.9558   -2.9129   -0.2406 C   0  0  0  0  0  0  0  0  0  0  0  0
   -3.1855   -1.7752   -0.3431 C   0  0  0  0  0  0  0  0  0  0  0  0
    3.1966    0.4100   -0.4332 C   0  0  0  0  0  0  0  0  0  0  0  0
    4.4431    0.2001    0.3971 C   0  0  0  0  0  0  0  0  0  0  0  0
  1  3  2  0
  1  4  2  0
  1 10  1  0
  1 15  1  0
  2 10  2  0
  5  6  1  0
  5  7  1  0
  5 10  1  0
  6  8  1  0
  7  9  1  0
  8 11  1  0
  8 12  1  0
  9 13  1  0
  9 14  1  0
 15 16  1  0
M  END
>  <PUBCHEM_COMPOUND_CID>  (1) 
40161

>  <PUBCHEM_CONFORMER_RMSD>  (1) 
0.8

>  <PUBCHEM_CONFORMER_DIVERSEORDER>  (1) 
1
5
7
8
3
2
4
6

>  <PUBCHEM_MMFF94_PARTIAL_CHARGES>  (1) 
9
1 1.17
10 0.65
15 0.11
2 -0.57
3 -0.65
4 -0.65
5 -0.66
6 0.3
7 0.3

>  <PUBCHEM_EFFECTIVE_ROTOR_COUNT>  (1) 
7

>  <PUBCHEM_PHARMACOPHORE_FEATURES>  (1) 
4
1 3 acceptor
1 4 acceptor
3 8 11 12 hydrophobe
3 9 13 14 hydrophobe

>  <PUBCHEM_HEAVY_ATOM_COUNT>  (1) 
16

>  <PUBCHEM_ATOM_DEF_STEREO_COUNT>  (1) 
0

>  <PUBCHEM_ATOM_UDEF_STEREO_COUNT>  (1) 
0

>  <PUBCHEM_BOND_DEF_STEREO_COUNT>  (1) 
0

>  <PUBCHEM_BOND_UDEF_STEREO_COUNT>  (1) 
0

>  <PUBCHEM_ISOTOPIC_ATOM_COUNT>  (1) 
0

>  <PUBCHEM_COMPONENT_COUNT>  (1) 
1

>  <PUBCHEM_CACTVS_TAUTO_COUNT>  (1) 
1

>  <PUBCHEM_CONFORMER_ID>  (1) 
00009CE100000001

>  <PUBCHEM_MMFF94_ENERGY>  (1) 
30.499

>  <PUBCHEM_FEATURE_SELFOVERLAP>  (1) 
20.313

>  <PUBCHEM_SHAPE_FINGERPRINT>  (1) 
1 1 17544200380894566883
13296909 8 18335138696031016484
13380537 58 18267880401280811006
14617773 55 17969237783316438700
14648413 74 16677817009576700625
14817 1 12920637253159555857
15490181 7 17831585279828131583
15490181 8 17977373937476016303
15775835 57 17983011150545016641
16945 1 18117255150975653423
19868273 325 18336545031199992768
20510252 161 18412260636036081915
20600515 1 18198354037919022189
20871998 184 18335997363098939361
21501502 16 18335978658580045642
21524375 3 17840577107221152261
22112679 90 18119274936740378837
23236772 104 17748828531250378584
23388829 49 18117284863606659316
23402539 116 18342449361792272311
23419403 2 16819335640586616045
23526113 38 17702376244015404658
23526114 1 17544194243317794207
23557571 272 18272101525663208692
23559900 14 18411408497961780186
23598291 2 17751070324339267394
23598294 1 18408324375797532506
2748010 2 18192446172753482719
305870 269 17546166298963584229
68419 9 17680183829884387829
6992083 37 17968941855948817796
7364860 26 17474392855841091699
81228 2 18410022047726324603

>  <PUBCHEM_SHAPE_MULTIPOLES>  (1) 
310.53
4.99
3.25
1.23
5.33
0.77
-0.03
-0.93
0.56
-2.92
0.13
-0.01
0.3
-0.3

>  <PUBCHEM_SHAPE_SELFOVERLAP>  (1) 
578.806

>  <PUBCHEM_SHAPE_VOLUME>  (1) 
196.8

>  <PUBCHEM_COORDINATE_TYPE>  (1) 
2
5
10

$$$$
