40168
     RDKit          3D

 26 28  0  0  0  0  0  0  0  0999 V2000
   -2.6075    3.0837   -1.4872 Cl  0  0  0  0  0  0  0  0  0  0  0  0
   -0.5747   -4.2554    0.3852 O   0  0  0  0  0  0  0  0  0  0  0  0
   -0.8410    0.0693   -1.9486 O   0  0  0  0  0  0  0  0  0  0  0  0
    1.8072   -0.6823   -1.1547 O   0  0  0  0  0  0  0  0  0  0  0  0
   -0.8631   -1.5229   -0.2569 N   0  0  0  0  0  0  0  0  0  0  0  0
    1.1053    0.9732    0.3221 N   0  0  0  0  0  0  0  0  0  0  0  0
   -0.6758   -1.9518    1.1356 C   0  0  0  0  0  0  0  0  0  0  0  0
   -1.4410   -2.5595   -1.1143 C   0  0  0  0  0  0  0  0  0  0  0  0
    0.0901   -3.2681    1.1785 C   0  0  0  0  0  0  0  0  0  0  0  0
   -0.6473   -3.8527   -0.9851 C   0  0  0  0  0  0  0  0  0  0  0  0
   -0.6707   -0.2440   -0.7689 C   0  0  0  0  0  0  0  0  0  0  0  0
   -0.2345    0.8161    0.1612 C   0  0  0  0  0  0  0  0  0  0  0  0
   -1.1930    1.5166    0.7763 C   0  0  0  0  0  0  0  0  0  0  0  0
   -2.6389    1.3169    0.6017 C   0  0  0  0  0  0  0  0  0  0  0  0
    2.0562    0.2109   -0.3487 C   0  0  0  0  0  0  0  0  0  0  0  0
    3.4755    0.5438   -0.0599 C   0  0  0  0  0  0  0  0  0  0  0  0
   -3.3551    1.9785   -0.3873 C   0  0  0  0  0  0  0  0  0  0  0  0
   -3.2712    0.4347    1.4693 C   0  0  0  0  0  0  0  0  0  0  0  0
   -4.7263    1.7543   -0.5115 C   0  0  0  0  0  0  0  0  0  0  0  0
   -4.6424    0.2108    1.3450 C   0  0  0  0  0  0  0  0  0  0  0  0
    4.4312   -0.4412   -0.1970 C   0  0  0  0  0  0  0  0  0  0  0  0
    3.7910    1.8269    0.3354 C   0  0  0  0  0  0  0  0  0  0  0  0
   -5.3700    0.8706    0.3548 C   0  0  0  0  0  0  0  0  0  0  0  0
    5.7633   -0.1288    0.0738 C   0  0  0  0  0  0  0  0  0  0  0  0
    5.1233    2.1392    0.6060 C   0  0  0  0  0  0  0  0  0  0  0  0
    6.1094    1.1613    0.4751 C   0  0  0  0  0  0  0  0  0  0  0  0
  1 17  1  0
  2  9  1  0
  2 10  1  0
  3 11  2  0
  4 15  2  0
  5  7  1  0
  5  8  1  0
  5 11  1  0
  6 12  1  0
  6 15  1  0
  7  9  1  0
  8 10  1  0
 11 12  1  0
 12 13  2  0
 13 14  1  0
 14 17  2  0
 14 18  1  0
 15 16  1  0
 16 21  2  0
 16 22  1  0
 17 19  1  0
 18 20  2  0
 19 23  2  0
 20 23  1  0
 21 24  1  0
 22 25  2  0
 24 26  2  0
 25 26  1  0
M  END
>  <PUBCHEM_COMPOUND_CID>  (1) 
40168

>  <PUBCHEM_CONFORMER_RMSD>  (1) 
0.8

>  <PUBCHEM_CONFORMER_DIVERSEORDER>  (1) 
1
4
10
9
11
2
8
12
15
16
14
5
13
6
7
3

>  <PUBCHEM_MMFF94_PARTIAL_CHARGES>  (1) 
37
1 -0.18
10 0.28
11 0.62
12 0.12
13 -0.18
14 0.03
15 0.54
16 0.09
17 0.18
18 -0.15
19 -0.15
2 -0.56
20 -0.15
21 -0.15
22 -0.15
23 -0.15
24 -0.15
25 -0.15
26 -0.15
3 -0.57
35 0.15
36 0.37
37 0.15
38 0.15
39 0.15
4 -0.57
40 0.15
41 0.15
42 0.15
43 0.15
44 0.15
45 0.15
5 -0.66
6 -0.54
7 0.3
8 0.3
9 0.28

>  <PUBCHEM_EFFECTIVE_ROTOR_COUNT>  (1) 
7.2

>  <PUBCHEM_PHARMACOPHORE_FEATURES>  (1) 
7
1 2 acceptor
1 3 acceptor
1 4 acceptor
1 6 donor
6 14 17 18 19 20 23 rings
6 16 21 22 24 25 26 rings
6 2 5 7 8 9 10 rings

>  <PUBCHEM_HEAVY_ATOM_COUNT>  (1) 
26

>  <PUBCHEM_ATOM_DEF_STEREO_COUNT>  (1) 
0

>  <PUBCHEM_ATOM_UDEF_STEREO_COUNT>  (1) 
0

>  <PUBCHEM_BOND_DEF_STEREO_COUNT>  (1) 
0

>  <PUBCHEM_BOND_UDEF_STEREO_COUNT>  (1) 
1

>  <PUBCHEM_ISOTOPIC_ATOM_COUNT>  (1) 
0

>  <PUBCHEM_COMPONENT_COUNT>  (1) 
1

>  <PUBCHEM_CACTVS_TAUTO_COUNT>  (1) 
2

>  <PUBCHEM_CONFORMER_ID>  (1) 
00009CE800000001

>  <PUBCHEM_MMFF94_ENERGY>  (1) 
82.301

>  <PUBCHEM_FEATURE_SELFOVERLAP>  (1) 
35.525

>  <PUBCHEM_SHAPE_FINGERPRINT>  (1) 
10 15 18334008428807735088
10074138 170 18192135204284096554
10906281 52 17845952804527424880
12166972 35 11531066087602003221
12516196 113 8934990465064795313
12788726 201 18124014978459945810
12969540 114 18338223904089046885
13004483 165 17765431337240132022
13052359 8 18339083795264996347
13544653 18 10953747702531518880
13583140 156 18113618980033854712
13911987 19 18340761572721047229
140371 6 17254268445832009760
14787075 74 18202281411875595641
14866123 147 18339077193594703762
15131766 46 15504649562023191796
15927050 60 18412262822391655342
17980427 23 17313115133306834533
1813 80 11098145405134807609
19489759 90 17458064841780821857
20197701 30 18408323259259145963
21033648 29 18340189826669601896
21033650 10 16414106043657208016
21049683 118 18196624432976820506
21236236 1 18129941294809783271
21521721 280 18272657857209294169
22224240 67 18343309167475122977
23227448 37 18340206422327839644
23558518 356 17827920955755587120
23559900 14 17752781134097816149
249057 3 18411140226178728652
255183 313 18269848652129019475
3178227 256 18339938090631173585
3298306 158 18263925449402754194
3383291 50 18128541462322201814
3545911 37 18272091604610845840
3759504 43 18409448098145360665
4015057 19 17489581294993261680
4258327 124 18043825379654619884
4340502 62 18409456864300186603
474229 33 18410577284198044001
5104073 3 18269825588708307416
5265222 85 18262816163262869102
550186 7 16589129542617764741
59755656 520 18409724062995691470
633830 44 17773608108936726005
6669772 16 18200879474389393894
81228 2 17979339087030146299
9981440 41 18334864866365073241

>  <PUBCHEM_SHAPE_MULTIPOLES>  (1) 
509.37
11.33
4.01
1.33
11.34
4.91
0.16
-9.06
-2.26
-1.72
0.54
-1.04
0.15
0.81

>  <PUBCHEM_SHAPE_SELFOVERLAP>  (1) 
1089.716

>  <PUBCHEM_SHAPE_VOLUME>  (1) 
280.1

>  <PUBCHEM_COORDINATE_TYPE>  (1) 
2
5
10

$$$$
