40173
     RDKit          3D

  5  4  0  0  0  0  0  0  0  0999 V2000
   -1.8219    1.0473   -0.1691 Cl  0  0  0  0  0  0  0  0  0  0  0  0
   -0.0246   -1.0141   -0.3050 C   0  0  0  0  0  0  0  0  0  0  0  0
   -1.2941   -0.5563    0.4018 C   0  0  0  0  0  0  0  0  0  0  0  0
    1.1072   -0.1075   -0.0620 C   0  0  0  0  0  0  0  0  0  0  0  0
    2.0335    0.6305    0.1343 C   0  0  0  0  0  0  0  0  0  0  0  0
  1  3  1  0
  2  3  1  0
  2  4  1  0
  4  5  3  0
M  END
>  <PUBCHEM_COMPOUND_CID>  (1) 
40173

>  <PUBCHEM_CONFORMER_RMSD>  (1) 
0.4

>  <PUBCHEM_CONFORMER_DIVERSEORDER>  (1) 
1
2
3

>  <PUBCHEM_MMFF94_PARTIAL_CHARGES>  (1) 
6
1 -0.29
10 0.18
2 0.2
3 0.29
4 -0.2
5 -0.18

>  <PUBCHEM_EFFECTIVE_ROTOR_COUNT>  (1) 
1

>  <PUBCHEM_PHARMACOPHORE_FEATURES>  (1) 
1
1 5 hydrophobe

>  <PUBCHEM_HEAVY_ATOM_COUNT>  (1) 
5

>  <PUBCHEM_ATOM_DEF_STEREO_COUNT>  (1) 
0

>  <PUBCHEM_ATOM_UDEF_STEREO_COUNT>  (1) 
0

>  <PUBCHEM_BOND_DEF_STEREO_COUNT>  (1) 
0

>  <PUBCHEM_BOND_UDEF_STEREO_COUNT>  (1) 
0

>  <PUBCHEM_ISOTOPIC_ATOM_COUNT>  (1) 
0

>  <PUBCHEM_COMPONENT_COUNT>  (1) 
1

>  <PUBCHEM_CACTVS_TAUTO_COUNT>  (1) 
1

>  <PUBCHEM_CONFORMER_ID>  (1) 
00009CED00000001

>  <PUBCHEM_MMFF94_ENERGY>  (1) 
0.7479

>  <PUBCHEM_FEATURE_SELFOVERLAP>  (1) 
5.074

>  <PUBCHEM_SHAPE_FINGERPRINT>  (1) 
16714656 1 18269282433161711830
20096714 4 18411418384322335336
21040471 1 18410575058919648940
23552449 1 18196085770947412463
24536 1 17894630395911940942
29004967 10 11097860696021290492
5460574 1 8934734283213372018
5943 1 12007203313808633611

>  <PUBCHEM_SHAPE_MULTIPOLES>  (1) 
104.77
2.72
1.2
0.68
0.29
0.03
0
1.04
0.11
-0.3
-0.06
-0.05
-0.02
0.16

>  <PUBCHEM_SHAPE_SELFOVERLAP>  (1) 
174.038

>  <PUBCHEM_SHAPE_VOLUME>  (1) 
70.9

>  <PUBCHEM_COORDINATE_TYPE>  (1) 
2
5
10

$$$$
