40183
     RDKit          3D

 23 24  0  0  0  0  0  0  0  0999 V2000
    3.0099    0.5933   -2.8681 Cl  0  0  0  0  0  0  0  0  0  0  0  0
    5.4075   -2.0104    1.1922 Cl  0  0  0  0  0  0  0  0  0  0  0  0
    1.5464    1.1750    1.9738 F   0  0  0  0  0  0  0  0  0  0  0  0
    1.3044    1.7512   -0.6823 O   0  0  0  0  0  0  0  0  0  0  0  0
   -2.0830   -2.3202    0.4914 O   0  0  0  0  0  0  0  0  0  0  0  0
   -2.7273   -1.9199   -1.6820 O   0  0  0  0  0  0  0  0  0  0  0  0
   -4.7510    1.4256    0.8761 O   0  0  0  0  0  0  0  0  0  0  0  0
   -4.4385   -0.6473    0.2242 O   0  0  0  0  0  0  0  0  0  0  0  0
   -4.0157    0.5150    0.4275 N   0  0  0  0  0  0  0  0  0  0  0  0
    0.0065    1.4428   -0.4122 C   0  0  0  0  0  0  0  0  0  0  0  0
   -1.7947   -0.1665   -0.3625 C   0  0  0  0  0  0  0  0  0  0  0  0
   -2.6543    0.8112    0.1385 C   0  0  0  0  0  0  0  0  0  0  0  0
   -0.4643    0.1494   -0.6377 C   0  0  0  0  0  0  0  0  0  0  0  0
   -0.8531    2.4204    0.0888 C   0  0  0  0  0  0  0  0  0  0  0  0
   -2.1835    2.1046    0.3642 C   0  0  0  0  0  0  0  0  0  0  0  0
    2.2785    0.8616   -0.2614 C   0  0  0  0  0  0  0  0  0  0  0  0
    3.1260    0.2652   -1.1783 C   0  0  0  0  0  0  0  0  0  0  0  0
    2.3739    0.5944    1.0939 C   0  0  0  0  0  0  0  0  0  0  0  0
   -2.2506   -1.5290   -0.6105 C   0  0  0  0  0  0  0  0  0  0  0  0
    4.0994   -0.6261   -0.7271 C   0  0  0  0  0  0  0  0  0  0  0  0
    3.3472   -0.2969    1.5452 C   0  0  0  0  0  0  0  0  0  0  0  0
    4.2100   -0.9072    0.6347 C   0  0  0  0  0  0  0  0  0  0  0  0
   -2.4939   -3.6864    0.3716 C   0  0  0  0  0  0  0  0  0  0  0  0
  1 17  1  0
  2 22  1  0
  3 18  1  0
  4 10  1  0
  4 16  1  0
  5 19  1  0
  5 23  1  0
  6 19  2  0
  7  9  1  0
  8  9  2  0
  9 12  1  0
 10 13  2  0
 10 14  1  0
 11 12  2  0
 11 13  1  0
 11 19  1  0
 12 15  1  0
 14 15  2  0
 16 17  2  0
 16 18  1  0
 17 20  1  0
 18 21  2  0
 20 22  2  0
 21 22  1  0
M  CHG  2   7  -1   9   1
M  END
>  <PUBCHEM_COMPOUND_CID>  (1) 
40183

>  <PUBCHEM_CONFORMER_RMSD>  (1) 
0.8

>  <PUBCHEM_CONFORMER_DIVERSEORDER>  (1) 
1
15
21
25
10
12
11
13
24
9
5
20
3
14
7
16
2
22
26
6
17
4
8
23
18
19

>  <PUBCHEM_MMFF94_PARTIAL_CHARGES>  (1) 
28
1 -0.18
10 0.08
11 0.09
12 0.13
13 -0.15
14 -0.15
15 -0.15
16 0.08
17 0.18
18 0.19
19 0.63
2 -0.18
20 -0.15
21 -0.15
22 0.18
23 0.28
24 0.15
25 0.15
26 0.15
27 0.15
28 0.15
3 -0.19
4 -0.17
5 -0.43
6 -0.57
7 -0.52
8 -0.52
9 0.91

>  <PUBCHEM_EFFECTIVE_ROTOR_COUNT>  (1) 
5

>  <PUBCHEM_PHARMACOPHORE_FEATURES>  (1) 
7
1 4 acceptor
1 6 acceptor
1 7 acceptor
1 7 anion
1 8 acceptor
6 10 11 12 13 14 15 rings
6 16 17 18 20 21 22 rings

>  <PUBCHEM_HEAVY_ATOM_COUNT>  (1) 
23

>  <PUBCHEM_ATOM_DEF_STEREO_COUNT>  (1) 
0

>  <PUBCHEM_ATOM_UDEF_STEREO_COUNT>  (1) 
0

>  <PUBCHEM_BOND_DEF_STEREO_COUNT>  (1) 
0

>  <PUBCHEM_BOND_UDEF_STEREO_COUNT>  (1) 
0

>  <PUBCHEM_ISOTOPIC_ATOM_COUNT>  (1) 
0

>  <PUBCHEM_COMPONENT_COUNT>  (1) 
1

>  <PUBCHEM_CACTVS_TAUTO_COUNT>  (1) 
1

>  <PUBCHEM_CONFORMER_ID>  (1) 
00009CF700000001

>  <PUBCHEM_MMFF94_ENERGY>  (1) 
81.7639

>  <PUBCHEM_FEATURE_SELFOVERLAP>  (1) 
35.607

>  <PUBCHEM_SHAPE_FINGERPRINT>  (1) 
12236239 1 17895202060401868412
12346177 29 18272358789750828005
12363563 72 18198052779953999686
12403259 327 17988351594827477088
12553582 1 18261103071937182204
12633257 1 17846771897639692424
12788726 201 18340503174556002200
13004483 165 16698611424526386607
13140716 1 18341611567943498545
13583140 156 14045445778662884407
13726171 33 17982206523019401756
13911987 19 14708363231378596130
14022347 108 18270702894811096981
16752209 62 18262222332014937685
17349148 13 18343021129603533903
17804303 29 18272370862566611385
1813 80 17387417840120908814
19049666 15 17058660547279288404
19784866 135 18337103463095979320
20600515 1 18272654536524827832
21713013 43 15647059269534549482
23366157 5 18119812670793859485
23503958 8 18409160035100690626
23559900 14 17988937664669571932
23728640 28 18412825781161175995
238 59 15068886616545277826
2838139 119 13900247434801456059
338550 245 18189340065305936398
4340502 62 14764627525861836629
465052 167 17968675868893280009
5104073 3 18343026618281912977
5385378 56 17908430152469508569
58807428 26 18125734383207690025
602551 16 18342175531946928200

>  <PUBCHEM_SHAPE_MULTIPOLES>  (1) 
435.47
9.47
2.85
1.7
2.54
2.21
0.79
3.83
-1.85
-2.34
-0.22
1.85
-0.23
-1.72

>  <PUBCHEM_SHAPE_SELFOVERLAP>  (1) 
928.357

>  <PUBCHEM_SHAPE_VOLUME>  (1) 
244.8

>  <PUBCHEM_COORDINATE_TYPE>  (1) 
2
5
10

$$$$
