40187
     RDKit          3D

  9  8  0  0  1  0  0  0  0  0999 V2000
    0.1511   -2.1728   -0.6387 O   0  0  0  0  0  0  0  0  0  0  0  0
   -1.3847   -0.8761    1.3905 O   0  0  0  0  0  0  0  0  0  0  0  0
    0.0499   -0.7476   -0.5798 C   0  0  0  0  0  0  0  0  0  0  0  0
   -1.3131   -0.3977    0.0464 C   0  0  0  0  0  0  0  0  0  0  0  0
    1.2332   -0.2178    0.1862 C   0  0  0  0  0  0  0  0  0  0  0  0
   -1.5902    1.0779    0.0614 C   0  0  0  0  0  0  0  0  0  0  0  0
    2.1665    0.5825   -0.3495 C   0  0  0  0  0  0  0  0  0  0  0  0
    3.3417    1.1099    0.4049 C   0  0  0  0  0  0  0  0  0  0  0  0
   -2.6543    1.6418   -0.5214 C   0  0  0  0  0  0  0  0  0  0  0  0
  1  3  1  0
  2  4  1  0
  3  4  1  0
  3  5  1  0
  4  6  1  0
  5  7  2  0
  6  9  2  0
  7  8  1  0
M  END
>  <PUBCHEM_COMPOUND_CID>  (1) 
40187

>  <PUBCHEM_CONFORMER_RMSD>  (1) 
0.6

>  <PUBCHEM_CONFORMER_DIVERSEORDER>  (1) 
2
7
9
6
5
3
1
8
4

>  <PUBCHEM_MMFF94_PARTIAL_CHARGES>  (1) 
16
1 -0.68
12 0.15
13 0.15
14 0.15
15 0.4
16 0.4
2 -0.68
20 0.15
21 0.15
3 0.42
4 0.42
5 -0.29
6 -0.29
7 -0.29
8 0.14
9 -0.3

>  <PUBCHEM_EFFECTIVE_ROTOR_COUNT>  (1) 
3

>  <PUBCHEM_PHARMACOPHORE_FEATURES>  (1) 
6
1 1 acceptor
1 1 donor
1 2 acceptor
1 2 donor
1 8 hydrophobe
1 9 hydrophobe

>  <PUBCHEM_HEAVY_ATOM_COUNT>  (1) 
9

>  <PUBCHEM_ATOM_DEF_STEREO_COUNT>  (1) 
0

>  <PUBCHEM_ATOM_UDEF_STEREO_COUNT>  (1) 
0

>  <PUBCHEM_BOND_DEF_STEREO_COUNT>  (1) 
0

>  <PUBCHEM_BOND_UDEF_STEREO_COUNT>  (1) 
1

>  <PUBCHEM_ISOTOPIC_ATOM_COUNT>  (1) 
0

>  <PUBCHEM_COMPONENT_COUNT>  (1) 
1

>  <PUBCHEM_CACTVS_TAUTO_COUNT>  (1) 
1

>  <PUBCHEM_CONFORMER_ID>  (1) 
00009CFB00000002

>  <PUBCHEM_MMFF94_ENERGY>  (1) 
8.1185

>  <PUBCHEM_FEATURE_SELFOVERLAP>  (1) 
30.451

>  <PUBCHEM_SHAPE_FINGERPRINT>  (1) 
100427 49 17115510099881333068
10149128 76 18337668590397599677
12932764 1 18199191866138129112
14390081 3 18413106134666086572
20653085 51 18130229254886384805
20711983 138 10881667018928801252
21028194 46 18336548222350436621
21040471 1 18413388748114728598
23211744 41 18042964268612382205
29004967 10 10809634730811573798
5084963 1 17917714651158655198

>  <PUBCHEM_SHAPE_MULTIPOLES>  (1) 
173.48
4.16
1.78
0.9
2.15
0.41
-0.18
-2.96
-0.21
-0.48
0.27
-0.2
0.19
0.48

>  <PUBCHEM_SHAPE_SELFOVERLAP>  (1) 
319.691

>  <PUBCHEM_SHAPE_VOLUME>  (1) 
109.9

>  <PUBCHEM_COORDINATE_TYPE>  (1) 
2
5
10

$$$$
