40180
     RDKit          3D

 15 15  0  0  1  0  0  0  0  0999 V2000
    1.2158    2.5243    0.2136 Cl  0  0  0  0  0  0  0  0  0  0  0  0
   -0.6707   -1.0153   -0.0365 O   0  0  0  0  0  0  0  0  0  0  0  0
   -2.7974   -0.0816   -1.6330 O   0  0  0  0  0  0  0  0  0  0  0  0
   -5.0682    0.9149   -0.3392 O   0  0  0  0  0  0  0  0  0  0  0  0
   -0.2457    0.2298    1.8524 O   0  0  0  0  0  0  0  0  0  0  0  0
   -2.8728   -0.0426   -0.2061 C   0  0  0  0  0  0  0  0  0  0  0  0
   -2.0285   -1.1790    0.3594 C   0  0  0  0  0  0  0  0  0  0  0  0
   -4.3361   -0.1849    0.1915 C   0  0  0  0  0  0  0  0  0  0  0  0
    1.4973   -0.1892    0.2804 C   0  0  0  0  0  0  0  0  0  0  0  0
    0.1117   -0.2865    0.8050 C   0  0  0  0  0  0  0  0  0  0  0  0
    2.0642    1.0365   -0.0083 C   0  0  0  0  0  0  0  0  0  0  0  0
    2.1859   -1.3742    0.0985 C   0  0  0  0  0  0  0  0  0  0  0  0
    3.3697    1.0806   -0.4977 C   0  0  0  0  0  0  0  0  0  0  0  0
    3.4914   -1.3300   -0.3911 C   0  0  0  0  0  0  0  0  0  0  0  0
    4.0833   -0.1026   -0.6892 C   0  0  0  0  0  0  0  0  0  0  0  0
  1 11  1  0
  2  7  1  0
  2 10  1  0
  3  6  1  0
  4  8  1  0
  5 10  2  0
  6  7  1  0
  6  8  1  0
  9 10  1  0
  9 11  2  0
  9 12  1  0
 11 13  1  0
 12 14  2  0
 13 15  2  0
 14 15  1  0
M  END
>  <PUBCHEM_COMPOUND_CID>  (1) 
40180

>  <PUBCHEM_CONFORMER_RMSD>  (1) 
0.6

>  <PUBCHEM_CONFORMER_DIVERSEORDER>  (1) 
1
235
110
217
72
231
156
88
191
42
15
229
223
113
5
222
195
153
151
121
125
205
157
11
187
193
19
130
213
132
237
65
228
142
35
184
134
81
34
126
204
196
139
176
45
149
143
90
220
117
207
133
199
172
128
70
57
74
2
226
234
119
218
82
101
131
64
106
225
29
118
160
178
108
36
210
216
208
238
182
175
52
158
165
3
186
61
31
148
91
145
56
141
203
17
224
209
161
48
123
41
179
233
129
99
12
4
164
166
227
150
87
33
14
67
83
212
22
170
7
63
219
39
192
102
144
201
84
38
198
6
68
136
111
159
232
44
50
100
94
95
221
169
8
75
62
79
28
122
77
104
80
135
155
18
112
152
183
25
30
230
168
180
120
26
147
60
140
13
236
58
124
137
211
92
200
85
69
167
206
73
78
21
9
76
105
115
37
215
32
24
171
51
49
189
66
86
114
43
146
46
174
109
54
181
116
107
20
16
93
10
163
53
214
190
127
89
40
47
177
173
27
138
97
103
23
202
194
154
55
71
188
59
197
98
185
162
96

>  <PUBCHEM_MMFF94_PARTIAL_CHARGES>  (1) 
21
1 -0.18
10 0.63
11 0.18
12 -0.15
13 -0.15
14 -0.15
15 -0.15
2 -0.43
21 0.15
22 0.4
23 0.15
24 0.15
25 0.15
26 0.4
3 -0.68
4 -0.68
5 -0.57
6 0.28
7 0.28
8 0.28
9 0.09

>  <PUBCHEM_EFFECTIVE_ROTOR_COUNT>  (1) 
5

>  <PUBCHEM_PHARMACOPHORE_FEATURES>  (1) 
6
1 3 acceptor
1 3 donor
1 4 acceptor
1 4 donor
1 5 acceptor
6 9 11 12 13 14 15 rings

>  <PUBCHEM_HEAVY_ATOM_COUNT>  (1) 
15

>  <PUBCHEM_ATOM_DEF_STEREO_COUNT>  (1) 
0

>  <PUBCHEM_ATOM_UDEF_STEREO_COUNT>  (1) 
1

>  <PUBCHEM_BOND_DEF_STEREO_COUNT>  (1) 
0

>  <PUBCHEM_BOND_UDEF_STEREO_COUNT>  (1) 
0

>  <PUBCHEM_ISOTOPIC_ATOM_COUNT>  (1) 
0

>  <PUBCHEM_COMPONENT_COUNT>  (1) 
1

>  <PUBCHEM_CACTVS_TAUTO_COUNT>  (1) 
1

>  <PUBCHEM_CONFORMER_ID>  (1) 
00009CF400000001

>  <PUBCHEM_MMFF94_ENERGY>  (1) 
37.7891

>  <PUBCHEM_FEATURE_SELFOVERLAP>  (1) 
30.455

>  <PUBCHEM_SHAPE_FINGERPRINT>  (1) 
10498660 4 16733530638261320389
11471102 20 18410857667984042534
116883 192 18127137364175889724
12654215 9 18408604799082352588
12932764 1 17531514456267592163
13549 16 18342177752070467249
13571099 22 18201725054543966818
14115302 16 17346880078522162879
14993402 34 18130517387579304102
16752209 62 16988288568890777099
18186145 218 17967527982426330555
200 152 17989210330641542466
204376 136 8862645903066196118
20606313 2 18410577301282909110
20645476 183 17988640856485417951
20645477 70 18412269406671069358
20671657 53 18272097071686917100
21119208 17 18131071532512028461
212847 35 18040150691086400285
21501925 9 11815897859620145019
21637258 2 15625678098608734868
221357 26 18409442558249940157
22289505 5 18336259055219245925
23402539 116 18272646835732063238
23402655 69 18412266133551996764
23559900 14 16917065594884262650
25 1 18259703406435815154
251288 83 8358260362545688817
2748010 2 17763481903745947432
276578 36 15213013856251757272
3060560 45 18273498974787780822
4047638 21 17821450162089980090
4072396 5 18335973225999849634
522135 26 18410573967977116582
58051976 100 18341332313850404783
93112 12 18340206387878014615
9882013 296 11963389643968408857

>  <PUBCHEM_SHAPE_MULTIPOLES>  (1) 
287.09
8.35
1.72
1.04
7.57
0.86
-0.09
0.22
2.42
-1.18
-0.07
0.34
0.03
0.21

>  <PUBCHEM_SHAPE_SELFOVERLAP>  (1) 
581.379

>  <PUBCHEM_SHAPE_VOLUME>  (1) 
167.2

>  <PUBCHEM_COORDINATE_TYPE>  (1) 
2
5
10

$$$$
