40196
     RDKit          3D

 22 24  0  0  1  0  0  0  0  0999 V2000
   -5.4997    0.4101    0.1160 O   0  0  0  0  0  0  0  0  0  0  0  0
    0.7209    1.8822   -0.4487 N   0  0  0  0  0  0  0  0  0  0  0  0
    0.4247   -3.7981    1.0342 N   0  0  0  0  0  0  0  0  0  0  0  0
    1.0377   -0.0653    0.5681 C   0  0  0  0  0  0  0  0  0  0  0  0
    0.7927   -1.3640    1.2320 C   0  0  0  0  0  0  0  0  0  0  0  0
    0.7265   -2.5822    0.2704 C   0  0  0  0  0  0  0  0  0  0  0  0
    2.3115    0.5142    0.3102 C   0  0  0  0  0  0  0  0  0  0  0  0
    0.0799    0.7989    0.0901 C   0  0  0  0  0  0  0  0  0  0  0  0
    2.0844    1.7354   -0.3283 C   0  0  0  0  0  0  0  0  0  0  0  0
    2.0402   -2.7697   -0.5124 C   0  0  0  0  0  0  0  0  0  0  0  0
   -1.3609    0.6981    0.0968 C   0  0  0  0  0  0  0  0  0  0  0  0
    3.6399    0.1161    0.5595 C   0  0  0  0  0  0  0  0  0  0  0  0
    3.1235    2.5815   -0.7316 C   0  0  0  0  0  0  0  0  0  0  0  0
    2.0128   -3.9649   -1.4584 C   0  0  0  0  0  0  0  0  0  0  0  0
    4.6893    0.9523    0.1618 C   0  0  0  0  0  0  0  0  0  0  0  0
    4.4328    2.1656   -0.4737 C   0  0  0  0  0  0  0  0  0  0  0  0
   -2.0884    1.2049    1.1722 C   0  0  0  0  0  0  0  0  0  0  0  0
   -2.0210    0.0944   -0.9722 C   0  0  0  0  0  0  0  0  0  0  0  0
   -3.4799    1.1078    1.1788 C   0  0  0  0  0  0  0  0  0  0  0  0
   -3.4125   -0.0026   -0.9659 C   0  0  0  0  0  0  0  0  0  0  0  0
   -4.1420    0.5042    0.1097 C   0  0  0  0  0  0  0  0  0  0  0  0
   -6.1123   -0.2190   -1.0087 C   0  0  0  0  0  0  0  0  0  0  0  0
  1 21  1  0
  1 22  1  0
  2  8  1  0
  2  9  1  0
  3  6  1  0
  4  5  1  0
  4  7  1  0
  4  8  2  0
  5  6  1  0
  6 10  1  0
  7  9  2  0
  7 12  1  0
  8 11  1  0
  9 13  1  0
 10 14  1  0
 11 17  2  0
 11 18  1  0
 12 15  2  0
 13 16  2  0
 15 16  1  0
 17 19  1  0
 18 20  2  0
 19 21  2  0
 20 21  1  0
M  END
>  <PUBCHEM_COMPOUND_CID>  (1) 
40196

>  <PUBCHEM_CONFORMER_RMSD>  (1) 
0.8

>  <PUBCHEM_CONFORMER_DIVERSEORDER>  (1) 
1
11
13
16
15
10
4
5
12
7
6
3
14
9
8
2

>  <PUBCHEM_MMFF94_PARTIAL_CHARGES>  (1) 
30
1 -0.36
11 0.05
12 -0.15
13 -0.15
15 -0.15
16 -0.15
17 -0.15
18 -0.15
19 -0.15
2 0.03
20 -0.15
21 0.08
22 0.28
28 0.27
29 0.15
3 -0.99
30 0.36
31 0.36
32 0.15
36 0.15
37 0.15
38 0.15
39 0.15
4 -0.18
40 0.15
41 0.15
5 0.18
6 0.27
8 -0.2
9 -0.15

>  <PUBCHEM_EFFECTIVE_ROTOR_COUNT>  (1) 
5

>  <PUBCHEM_PHARMACOPHORE_FEATURES>  (1) 
9
1 1 acceptor
1 14 hydrophobe
1 2 cation
1 2 donor
1 3 cation
1 3 donor
5 2 4 7 8 9 rings
6 11 17 18 19 20 21 rings
6 7 9 12 13 15 16 rings

>  <PUBCHEM_HEAVY_ATOM_COUNT>  (1) 
22

>  <PUBCHEM_ATOM_DEF_STEREO_COUNT>  (1) 
0

>  <PUBCHEM_ATOM_UDEF_STEREO_COUNT>  (1) 
1

>  <PUBCHEM_BOND_DEF_STEREO_COUNT>  (1) 
0

>  <PUBCHEM_BOND_UDEF_STEREO_COUNT>  (1) 
0

>  <PUBCHEM_ISOTOPIC_ATOM_COUNT>  (1) 
0

>  <PUBCHEM_COMPONENT_COUNT>  (1) 
1

>  <PUBCHEM_CACTVS_TAUTO_COUNT>  (1) 
1

>  <PUBCHEM_CONFORMER_ID>  (1) 
00009D0400000001

>  <PUBCHEM_MMFF94_ENERGY>  (1) 
50.799

>  <PUBCHEM_FEATURE_SELFOVERLAP>  (1) 
45.762

>  <PUBCHEM_SHAPE_FINGERPRINT>  (1) 
10090160 65 18408599271195627177
10693767 8 18200595787683951982
11421498 54 18130792235305589057
12107183 9 17480875125716985481
12236239 1 18272932739089620361
12592029 89 18407757027792273154
12788726 201 17617368928670145850
13009979 54 17415283823511828651
13083527 12 17971453123284779794
13140716 1 18189612929527379240
13533116 47 18272929385352710315
13692114 37 18127112294304901635
13836976 161 18334011717876373180
15502722 9 18337955584401692538
16752209 62 18051690246520485618
17138139 8 17841687889381437183
17818456 19 17413031981160128849
1813 80 17767411184051211710
200 152 18409443709380348393
20028762 73 18343014480804904982
204376 136 18261677068293469752
20567600 347 18273219707292339574
20602899 9 17987533652966645266
20645477 70 18261668194975386693
20771845 140 17703496744800735998
21033648 29 13046483437249200437
21033650 10 17414754014033114952
21054139 6 18269826666164894999
21197605 99 18191876836643369003
21344244 246 18342464695211251830
21521239 73 18059862761788490726
22182313 1 18044122165894094995
2255824 54 18339082562335147315
23419403 2 17612644069275446458
23557571 272 15502928624187874079
23559900 14 18055906603140440579
23566358 27 18270410368951949399
23569917 315 18411136961334749090
23598291 2 17984992496552389865
266924 1 18059300851127737441
283562 15 16676971017300166008
3060560 45 18334575759089143244
335352 9 18334295401405426724
352729 6 18265629847361140944
42630746 31 18410854343505379590
4280585 95 17834955274441485062
4340502 62 18334581265485058411
465052 167 17822008701185829032
474 4 18409168822302863848
59554788 248 17901698121084959274
59755656 215 18261392221883340028
633830 44 18342471334618482004
6669772 16 18186521004151528162
7364860 26 18269839726806845010
81228 2 17251454778649785168
8272917 22 18409731720917098709
9709674 26 18335144133765458155
9999458 23 15719390659712372832

>  <PUBCHEM_SHAPE_MULTIPOLES>  (1) 
436.92
9.81
3.68
1.18
11.48
5.06
0.02
-4.65
-1.94
-4.59
-0.7
0.37
0.39
-0.51

>  <PUBCHEM_SHAPE_SELFOVERLAP>  (1) 
944.297

>  <PUBCHEM_SHAPE_VOLUME>  (1) 
242.5

>  <PUBCHEM_COORDINATE_TYPE>  (1) 
2
5
10

$$$$
