40192
     RDKit          3D

 20 22  0  0  1  0  0  0  0  0999 V2000
   -6.0271    0.5109   -0.0918 Cl  0  0  0  0  0  0  0  0  0  0  0  0
    0.6349    1.7065   -0.3201 N   0  0  0  0  0  0  0  0  0  0  0  0
    0.0262   -4.1118    0.3262 N   0  0  0  0  0  0  0  0  0  0  0  0
    0.8227   -0.3782    0.4186 C   0  0  0  0  0  0  0  0  0  0  0  0
    0.4934   -1.7410    0.8895 C   0  0  0  0  0  0  0  0  0  0  0  0
    2.1314    0.1596    0.2669 C   0  0  0  0  0  0  0  0  0  0  0  0
   -0.0757    0.5965    0.0500 C   0  0  0  0  0  0  0  0  0  0  0  0
    0.3876   -2.8065   -0.2343 C   0  0  0  0  0  0  0  0  0  0  0  0
    1.9854    1.4685   -0.1977 C   0  0  0  0  0  0  0  0  0  0  0  0
   -1.5193    0.5758    0.0157 C   0  0  0  0  0  0  0  0  0  0  0  0
    3.4303   -0.3431    0.4808 C   0  0  0  0  0  0  0  0  0  0  0  0
    1.6983   -2.9607   -1.0062 C   0  0  0  0  0  0  0  0  0  0  0  0
    3.0776    2.3031   -0.4602 C   0  0  0  0  0  0  0  0  0  0  0  0
    4.5322    0.4804    0.2227 C   0  0  0  0  0  0  0  0  0  0  0  0
    4.3562    1.7828   -0.2405 C   0  0  0  0  0  0  0  0  0  0  0  0
   -2.2477    0.9663    1.1384 C   0  0  0  0  0  0  0  0  0  0  0  0
   -2.1819    0.1652   -1.1400 C   0  0  0  0  0  0  0  0  0  0  0  0
   -3.6421    0.9458    1.1054 C   0  0  0  0  0  0  0  0  0  0  0  0
   -3.5762    0.1450   -1.1731 C   0  0  0  0  0  0  0  0  0  0  0  0
   -4.3063    0.5351   -0.0503 C   0  0  0  0  0  0  0  0  0  0  0  0
  1 20  1  0
  2  7  1  0
  2  9  1  0
  3  8  1  0
  4  5  1  0
  4  6  1  0
  4  7  2  0
  5  8  1  0
  6  9  2  0
  6 11  1  0
  7 10  1  0
  8 12  1  0
  9 13  1  0
 10 16  2  0
 10 17  1  0
 11 14  2  0
 13 15  2  0
 14 15  1  0
 16 18  1  0
 17 19  2  0
 18 20  2  0
 19 20  1  0
M  END
>  <PUBCHEM_COMPOUND_CID>  (1) 
40192

>  <PUBCHEM_CONFORMER_RMSD>  (1) 
0.6

>  <PUBCHEM_CONFORMER_DIVERSEORDER>  (1) 
1
12
11
8
4
10
5
6
3
13
14
9
2
7

>  <PUBCHEM_MMFF94_PARTIAL_CHARGES>  (1) 
29
1 -0.18
10 0.05
11 -0.15
13 -0.15
14 -0.15
15 -0.15
16 -0.15
17 -0.15
18 -0.15
19 -0.15
2 0.03
20 0.18
24 0.27
25 0.15
29 0.15
3 -0.99
30 0.36
31 0.36
32 0.15
33 0.15
34 0.15
35 0.15
36 0.15
37 0.15
4 -0.18
5 0.18
7 -0.2
8 0.27
9 -0.15

>  <PUBCHEM_EFFECTIVE_ROTOR_COUNT>  (1) 
3

>  <PUBCHEM_PHARMACOPHORE_FEATURES>  (1) 
7
1 2 cation
1 2 donor
1 3 cation
1 3 donor
5 2 4 6 7 9 rings
6 10 16 17 18 19 20 rings
6 6 9 11 13 14 15 rings

>  <PUBCHEM_HEAVY_ATOM_COUNT>  (1) 
20

>  <PUBCHEM_ATOM_DEF_STEREO_COUNT>  (1) 
0

>  <PUBCHEM_ATOM_UDEF_STEREO_COUNT>  (1) 
1

>  <PUBCHEM_BOND_DEF_STEREO_COUNT>  (1) 
0

>  <PUBCHEM_BOND_UDEF_STEREO_COUNT>  (1) 
0

>  <PUBCHEM_ISOTOPIC_ATOM_COUNT>  (1) 
0

>  <PUBCHEM_COMPONENT_COUNT>  (1) 
1

>  <PUBCHEM_CACTVS_TAUTO_COUNT>  (1) 
1

>  <PUBCHEM_CONFORMER_ID>  (1) 
00009D0000000001

>  <PUBCHEM_MMFF94_ENERGY>  (1) 
36.3287

>  <PUBCHEM_FEATURE_SELFOVERLAP>  (1) 
35.614

>  <PUBCHEM_SHAPE_FINGERPRINT>  (1) 
10090160 65 18410569578937031145
10411042 1 17689433789302712738
11421498 54 18060144193826039209
12107183 9 17406561308254837785
12236239 1 18131069333752971657
12592029 89 18409164385564723867
12788726 201 17687736556029927018
13052359 8 18265895946075707778
13140716 1 18263920107112239336
13533116 47 18201434719840781563
13540713 5 17826786247324500688
13583140 156 16299204935075335944
13836976 161 18335139803800172260
15279307 12 18201994417955665071
15309172 13 18335421287451362696
16752209 62 18124869325049134158
16945 1 18409168771084951080
17138139 8 17698690891788345415
1813 80 17554337920905395662
18186145 218 18410856577231544332
18915476 22 18189883233077446535
200 152 18411132542071208185
20157964 124 18265610993072344597
204376 136 18335985349743096529
20645477 70 18334571296443873773
20739085 24 18189630370962637700
21033650 10 17272605843653435712
21054139 6 18271231824972008647
21197605 99 18192159398399779907
21421861 104 18122630448612318345
21524375 3 18334012830420511392
22182313 1 18193302821145247514
2255824 54 18269276755342112255
23184049 59 18260267464707160964
23402539 116 18201715197552058468
23419403 2 13635447732319550092
23557571 272 15864347983373860455
23598291 2 17843693153497133219
25147074 1 17825379950430291984
266924 1 17916874495800744161
3060560 45 18408602548303004094
335352 9 18408886248684716820
33824 294 18336828602305633171
34934 24 18115301310972377216
352729 6 18268159819289946602
42630746 31 18341332206106580199
4340502 62 18409174316262283187
465052 167 17967251975180228642
474 4 18411420604831061425
474229 33 18336829805165546971
59755656 215 18338238167458789021
6138700 20 18267590096753991478
633830 44 18272943703850814636
6669772 16 18334296457825339738
69090 78 18334853974169819360
7364860 26 18269839709437104215
81228 2 17468468669815203688
81539 233 18335700516091579911
8272917 22 18339362955433312373
9981440 41 16121585608882199960
9999458 23 16008751325121885216

>  <PUBCHEM_SHAPE_MULTIPOLES>  (1) 
403.5
9.27
3.11
1.02
7.81
4.2
-0.02
-5.31
-0.32
-2.59
-0.26
0.54
0.07
-0.36

>  <PUBCHEM_SHAPE_SELFOVERLAP>  (1) 
872.635

>  <PUBCHEM_SHAPE_VOLUME>  (1) 
223.7

>  <PUBCHEM_COORDINATE_TYPE>  (1) 
2
5
10

$$$$
