40194
     RDKit          3D

 20 22  0  0  1  0  0  0  0  0999 V2000
   -6.1874    0.5043   -0.0936 Br  0  0  0  0  0  0  0  0  0  0  0  0
    0.6422    1.7070   -0.3200 N   0  0  0  0  0  0  0  0  0  0  0  0
    0.0374   -4.1117    0.3262 N   0  0  0  0  0  0  0  0  0  0  0  0
    0.8315   -0.3776    0.4185 C   0  0  0  0  0  0  0  0  0  0  0  0
    0.5032   -1.7406    0.8895 C   0  0  0  0  0  0  0  0  0  0  0  0
    2.1398    0.1610    0.2666 C   0  0  0  0  0  0  0  0  0  0  0  0
   -0.0677    0.5965    0.0503 C   0  0  0  0  0  0  0  0  0  0  0  0
    0.3979   -2.8061   -0.2344 C   0  0  0  0  0  0  0  0  0  0  0  0
    1.9928    1.4698   -0.1979 C   0  0  0  0  0  0  0  0  0  0  0  0
   -1.5112    0.5748    0.0163 C   0  0  0  0  0  0  0  0  0  0  0  0
    3.4391   -0.3408    0.4802 C   0  0  0  0  0  0  0  0  0  0  0  0
    1.7084   -2.9595   -1.0065 C   0  0  0  0  0  0  0  0  0  0  0  0
    3.0844    2.3052   -0.4606 C   0  0  0  0  0  0  0  0  0  0  0  0
    4.5404    0.4834    0.2219 C   0  0  0  0  0  0  0  0  0  0  0  0
    4.3634    1.7857   -0.2413 C   0  0  0  0  0  0  0  0  0  0  0  0
   -2.2396    0.9649    1.1391 C   0  0  0  0  0  0  0  0  0  0  0  0
   -2.1739    0.1641   -1.1394 C   0  0  0  0  0  0  0  0  0  0  0  0
   -3.6340    0.9437    1.1065 C   0  0  0  0  0  0  0  0  0  0  0  0
   -3.5683    0.1432   -1.1721 C   0  0  0  0  0  0  0  0  0  0  0  0
   -4.2983    0.5329   -0.0491 C   0  0  0  0  0  0  0  0  0  0  0  0
  1 20  1  0
  2  7  1  0
  2  9  1  0
  3  8  1  0
  4  5  1  0
  4  6  1  0
  4  7  2  0
  5  8  1  0
  6  9  2  0
  6 11  1  0
  7 10  1  0
  8 12  1  0
  9 13  1  0
 10 16  2  0
 10 17  1  0
 11 14  2  0
 13 15  2  0
 14 15  1  0
 16 18  1  0
 17 19  2  0
 18 20  2  0
 19 20  1  0
M  END
>  <PUBCHEM_COMPOUND_CID>  (1) 
40194

>  <PUBCHEM_CONFORMER_RMSD>  (1) 
0.6

>  <PUBCHEM_CONFORMER_DIVERSEORDER>  (1) 
1
12
11
8
4
10
5
9
13
6
3
14
2
7

>  <PUBCHEM_MMFF94_PARTIAL_CHARGES>  (1) 
29
1 -0.11
10 0.05
11 -0.15
13 -0.15
14 -0.15
15 -0.15
16 -0.15
17 -0.15
18 -0.15
19 -0.15
2 0.03
20 0.11
24 0.27
25 0.15
29 0.15
3 -0.99
30 0.36
31 0.36
32 0.15
33 0.15
34 0.15
35 0.15
36 0.15
37 0.15
4 -0.18
5 0.18
7 -0.2
8 0.27
9 -0.15

>  <PUBCHEM_EFFECTIVE_ROTOR_COUNT>  (1) 
3

>  <PUBCHEM_PHARMACOPHORE_FEATURES>  (1) 
8
1 1 hydrophobe
1 2 cation
1 2 donor
1 3 cation
1 3 donor
5 2 4 6 7 9 rings
6 10 16 17 18 19 20 rings
6 6 9 11 13 14 15 rings

>  <PUBCHEM_HEAVY_ATOM_COUNT>  (1) 
20

>  <PUBCHEM_ATOM_DEF_STEREO_COUNT>  (1) 
0

>  <PUBCHEM_ATOM_UDEF_STEREO_COUNT>  (1) 
1

>  <PUBCHEM_BOND_DEF_STEREO_COUNT>  (1) 
0

>  <PUBCHEM_BOND_UDEF_STEREO_COUNT>  (1) 
0

>  <PUBCHEM_ISOTOPIC_ATOM_COUNT>  (1) 
0

>  <PUBCHEM_COMPONENT_COUNT>  (1) 
1

>  <PUBCHEM_CACTVS_TAUTO_COUNT>  (1) 
1

>  <PUBCHEM_CONFORMER_ID>  (1) 
00009D0200000001

>  <PUBCHEM_MMFF94_ENERGY>  (1) 
36.5118

>  <PUBCHEM_FEATURE_SELFOVERLAP>  (1) 
40.688

>  <PUBCHEM_SHAPE_FINGERPRINT>  (1) 
10090160 65 18410569578968673145
10411042 1 17761772862643980098
11421498 54 18060144193826045697
12107183 9 17478337427337147569
12236239 1 18131069333768789417
12592029 89 18409445860551971019
12730499 353 18335146379970128267
12788726 201 17688016931500265154
13009979 54 17271447894262429635
13052359 8 18265895946075707778
13140716 1 18263920107117527080
13533116 47 18201434719835519795
13540713 5 17826786247313957680
13583140 156 16299206034592238464
13836976 161 18335139803794903996
15279307 12 18201995517462011599
15309172 13 18335421287451362704
16752209 62 18124869325064958410
16945 1 18409168771090225832
17138139 8 17698972366775599071
1813 80 17554619391571314782
18186145 218 18411138052208254980
18915476 22 18189883233082721295
200 152 18411132542087032441
20028762 73 18272645710683591414
20157964 124 18265610997367298893
204376 136 18336266824714532425
20645477 70 18334571296449155013
20739085 24 18189348895991201796
21033650 10 17272605843658710456
21054139 6 18271232924504735415
21197605 99 18191877923428337507
21421861 104 18122348973630326449
21524375 3 18334011730914151864
22182313 1 18193302821139972770
2255824 54 18269276755336837503
23184049 59 18260267460438554412
23402539 116 18201996672518219620
23419403 2 13635447732324824844
23557571 272 15864349082896037727
25147074 1 17825379954730534024
266924 1 17916874500106260953
3060560 45 18408603652099056172
335352 9 18409167719345302692
33824 294 18336547127365845787
34934 24 18115301310977658456
352729 6 18268159819295221354
42630746 31 18341332210406822255
4340502 62 18409174316257027891
465052 167 17967532350634768498
474 4 18411703179340550865
474229 33 18336829805149696739
59755656 215 18338239271291751341
6138700 20 18267872671252879446
621550 34 18114458968779325325
633830 44 18272943703861364124
69090 78 18334853974175094112
7364860 26 18269839709431822967
81228 2 17468468674115445744
81539 233 18335700516086298663
8272917 22 18339362959733547941
9981440 41 16193362827476150520
9999458 23 15936412256091422376

>  <PUBCHEM_SHAPE_MULTIPOLES>  (1) 
407.57
9.68
3.09
1.02
9.35
4.15
-0.02
-5.36
-0.35
-2.76
-0.27
0.54
0.07
-0.36

>  <PUBCHEM_SHAPE_SELFOVERLAP>  (1) 
875.216

>  <PUBCHEM_SHAPE_VOLUME>  (1) 
232.1

>  <PUBCHEM_COORDINATE_TYPE>  (1) 
2
5
10

$$$$
