40203
     RDKit          3D

 13 12  0  0  1  0  0  0  0  0999 V2000
    3.0597   -0.7750    1.2824 O   0  0  0  0  0  0  0  0  0  0  0  0
    1.7897    0.1121   -0.4544 N   0  0  0  0  0  0  0  0  0  0  0  0
   -0.6653   -0.0225   -0.7393 C   0  0  0  0  0  0  0  0  0  0  0  0
    0.6408   -0.7621   -0.3228 C   0  0  0  0  0  0  0  0  0  0  0  0
   -1.9304   -0.9099   -0.6430 C   0  0  0  0  0  0  0  0  0  0  0  0
   -0.8016    1.3054    0.0536 C   0  0  0  0  0  0  0  0  0  0  0  0
   -2.2622   -1.4084    0.7662 C   0  0  0  0  0  0  0  0  0  0  0  0
   -2.0090    2.1562   -0.3512 C   0  0  0  0  0  0  0  0  0  0  0  0
    0.9132   -2.0325   -1.1269 C   0  0  0  0  0  0  0  0  0  0  0  0
   -3.5605   -2.2025    0.7782 C   0  0  0  0  0  0  0  0  0  0  0  0
   -2.0291    3.4813    0.3971 C   0  0  0  0  0  0  0  0  0  0  0  0
    2.8994    0.0252    0.3644 C   0  0  0  0  0  0  0  0  0  0  0  0
    3.9552    1.0327   -0.0043 C   0  0  0  0  0  0  0  0  0  0  0  0
  1 12  2  0
  2  4  1  0
  2 12  1  0
  3  4  1  0
  3  5  1  0
  3  6  1  0
  4  9  1  0
  5  7  1  0
  6  8  1  0
  7 10  1  0
  8 11  1  0
 12 13  1  0
M  END
>  <PUBCHEM_COMPOUND_CID>  (1) 
40203

>  <PUBCHEM_CONFORMER_RMSD>  (1) 
0.8

>  <PUBCHEM_CONFORMER_DIVERSEORDER>  (1) 
1
33
30
26
17
32
13
28
18
2
11
24
16
29
23
15
22
12
25
3
10
4
27
7
20
31
14
5
6
19
21
8
9

>  <PUBCHEM_MMFF94_PARTIAL_CHARGES>  (1) 
6
1 -0.57
12 0.57
13 0.06
2 -0.73
27 0.37
4 0.3

>  <PUBCHEM_EFFECTIVE_ROTOR_COUNT>  (1) 
7

>  <PUBCHEM_PHARMACOPHORE_FEATURES>  (1) 
5
1 1 acceptor
1 10 hydrophobe
1 11 hydrophobe
1 2 donor
5 3 5 6 7 8 hydrophobe

>  <PUBCHEM_HEAVY_ATOM_COUNT>  (1) 
13

>  <PUBCHEM_ATOM_DEF_STEREO_COUNT>  (1) 
0

>  <PUBCHEM_ATOM_UDEF_STEREO_COUNT>  (1) 
1

>  <PUBCHEM_BOND_DEF_STEREO_COUNT>  (1) 
0

>  <PUBCHEM_BOND_UDEF_STEREO_COUNT>  (1) 
0

>  <PUBCHEM_ISOTOPIC_ATOM_COUNT>  (1) 
0

>  <PUBCHEM_COMPONENT_COUNT>  (1) 
1

>  <PUBCHEM_CACTVS_TAUTO_COUNT>  (1) 
2

>  <PUBCHEM_CONFORMER_ID>  (1) 
00009D0B00000001

>  <PUBCHEM_MMFF94_ENERGY>  (1) 
12.568

>  <PUBCHEM_FEATURE_SELFOVERLAP>  (1) 
25.373

>  <PUBCHEM_SHAPE_FINGERPRINT>  (1) 
108231 29 17972319783028546187
11357001 24 18408318874239955193
122479 349 18198338451198219073
12932764 1 17560791156902074422
13275264 69 18334017215719297017
13380535 21 18198074577055055252
13380535 76 18125146152533198453
13764800 53 18201156555245009304
14648413 74 17983299227065549622
14787075 74 17464255302808737922
18380122 1 18272943725278217279
20388701 513 18410304596698125059
20510252 161 18411138064760405818
20511035 2 17983861085938983542
20871998 184 18342458157668860749
21061003 4 18196655309697300399
21524375 3 17910095920405182341
21947302 44 17840583691374303700
23598294 1 18409726261828945488
25610 137 18189617326945915052
2748010 2 18129949953289739926
3060560 45 9438301727170102459
3071541 236 18190734250587438761
3250762 1 18125736594646543791
57672749 33 17835526294764244313
58734985 188 18050012387301865747
58734987 124 18410569617328181161
58734987 43 17977672227297020631
6049 1 17986972785660847718
81228 2 18189917356582037193

>  <PUBCHEM_SHAPE_MULTIPOLES>  (1) 
256.68
5.82
3.2
1.02
3.89
2.7
0.05
-0.7
1.83
-3.61
0.23
0.07
-0.42
0.5

>  <PUBCHEM_SHAPE_SELFOVERLAP>  (1) 
469.164

>  <PUBCHEM_SHAPE_VOLUME>  (1) 
164.1

>  <PUBCHEM_COORDINATE_TYPE>  (1) 
2
5
10

$$$$
