40216
     RDKit          3D

 23 24  0  0  0  0  0  0  0  0999 V2000
   -5.8802   -0.6078   -0.4511 O   0  0  0  0  0  0  0  0  0  0  0  0
    0.3509   -0.3963    0.9887 O   0  0  0  0  0  0  0  0  0  0  0  0
    0.5471    2.5499   -0.5969 O   0  0  0  0  0  0  0  0  0  0  0  0
    1.4891    2.7524    1.4938 O   0  0  0  0  0  0  0  0  0  0  0  0
   -3.1759    0.1218    0.0548 N   0  0  0  0  0  0  0  0  0  0  0  0
   -3.5505   -1.2607   -0.2735 C   0  0  0  0  0  0  0  0  0  0  0  0
   -4.2933    0.8004    0.7259 C   0  0  0  0  0  0  0  0  0  0  0  0
   -1.9756    0.1502    0.8880 C   0  0  0  0  0  0  0  0  0  0  0  0
   -4.8114   -1.2651   -1.1330 C   0  0  0  0  0  0  0  0  0  0  0  0
   -5.5372    0.7468   -0.1565 C   0  0  0  0  0  0  0  0  0  0  0  0
   -0.7951   -0.4605    0.1499 C   0  0  0  0  0  0  0  0  0  0  0  0
    1.6960   -2.8137    0.3491 C   0  0  0  0  0  0  0  0  0  0  0  0
    2.2597   -1.4670    0.0356 C   0  0  0  0  0  0  0  0  0  0  0  0
    1.5682   -0.3049    0.3657 C   0  0  0  0  0  0  0  0  0  0  0  0
    2.1059    0.9440    0.0677 C   0  0  0  0  0  0  0  0  0  0  0  0
    3.4993   -1.3793   -0.5979 C   0  0  0  0  0  0  0  0  0  0  0  0
    3.3455    1.0315   -0.5661 C   0  0  0  0  0  0  0  0  0  0  0  0
    1.4357   -3.6504   -0.9169 C   0  0  0  0  0  0  0  0  0  0  0  0
    2.5806   -3.6067    1.3286 C   0  0  0  0  0  0  0  0  0  0  0  0
    4.0421   -0.1301   -0.8989 C   0  0  0  0  0  0  0  0  0  0  0  0
    3.9521    2.3552   -0.9013 C   0  0  0  0  0  0  0  0  0  0  0  0
    1.3741    2.1567    0.4175 C   0  0  0  0  0  0  0  0  0  0  0  0
   -0.2269    3.7334   -0.3731 C   0  0  0  0  0  0  0  0  0  0  0  0
  1  9  1  0
  1 10  1  0
  2 11  1  0
  2 14  1  0
  3 22  1  0
  3 23  1  0
  4 22  2  0
  5  6  1  0
  5  7  1  0
  5  8  1  0
  6  9  1  0
  7 10  1  0
  8 11  1  0
 12 13  1  0
 12 18  1  0
 12 19  1  0
 13 14  2  0
 13 16  1  0
 14 15  1  0
 15 17  2  0
 15 22  1  0
 16 20  2  0
 17 20  1  0
 17 21  1  0
M  END
>  <PUBCHEM_COMPOUND_CID>  (1) 
40216

>  <PUBCHEM_CONFORMER_RMSD>  (1) 
0.8

>  <PUBCHEM_CONFORMER_DIVERSEORDER>  (1) 
4
83
54
23
69
43
21
58
64
56
37
55
76
61
47
75
80
84
87
65
52
38
42
81
77
59
1
63
53
72
48
40
49
62
25
73
78
66
70
57
36
24
67
34
88
79
35
45
82
50
74
60
27
86
12
89
46
71
51
44
68
85
30
3
22
41
6
9
26
8
39
16
2
28
13
32
20
7
15
5
29
19
14
33
17
31
18
11
10

>  <PUBCHEM_MMFF94_PARTIAL_CHARGES>  (1) 
23
1 -0.56
10 0.28
11 0.28
12 0.14
13 -0.14
14 0.08
15 0.09
16 -0.15
17 -0.14
2 -0.36
20 -0.15
21 0.14
22 0.63
23 0.28
3 -0.43
37 0.15
4 -0.57
44 0.15
5 -0.81
6 0.27
7 0.27
8 0.27
9 0.28

>  <PUBCHEM_EFFECTIVE_ROTOR_COUNT>  (1) 
8.2

>  <PUBCHEM_PHARMACOPHORE_FEATURES>  (1) 
7
1 1 acceptor
1 2 acceptor
1 4 acceptor
1 5 cation
3 12 18 19 hydrophobe
6 1 5 6 7 9 10 rings
6 13 14 15 16 17 20 rings

>  <PUBCHEM_HEAVY_ATOM_COUNT>  (1) 
23

>  <PUBCHEM_ATOM_DEF_STEREO_COUNT>  (1) 
0

>  <PUBCHEM_ATOM_UDEF_STEREO_COUNT>  (1) 
0

>  <PUBCHEM_BOND_DEF_STEREO_COUNT>  (1) 
0

>  <PUBCHEM_BOND_UDEF_STEREO_COUNT>  (1) 
0

>  <PUBCHEM_ISOTOPIC_ATOM_COUNT>  (1) 
0

>  <PUBCHEM_COMPONENT_COUNT>  (1) 
1

>  <PUBCHEM_CACTVS_TAUTO_COUNT>  (1) 
1

>  <PUBCHEM_CONFORMER_ID>  (1) 
00009D1800000004

>  <PUBCHEM_MMFF94_ENERGY>  (1) 
69.3775

>  <PUBCHEM_FEATURE_SELFOVERLAP>  (1) 
35.522

>  <PUBCHEM_SHAPE_FINGERPRINT>  (1) 
10693767 8 18201165343466055102
116883 192 17979074881721495230
12107183 9 17764594218602531553
12553582 1 18339920403222735283
12730499 353 18261964036939664083
13083527 12 18190449468786863898
13140716 1 18336265738816040962
13167823 11 18272932730847592255
13533116 47 18412259546042952823
14117953 113 17912076158422413055
14790565 3 18192720153155511764
15210252 30 17822299010647335700
15250474 111 18272355491691588375
17818456 19 17557435279958019881
18681886 176 17989481935636214006
20645477 70 18411422782517059295
21285901 2 17967812708930713685
21421861 104 18116717309632900370
221357 26 18335415751919279829
22289505 5 18261948566435730869
22393880 68 18271526497955802479
2255824 54 18339923817563083843
23559900 14 18340198696224317571
23598291 2 18130238072781141827
238 59 18267592479516419850
2748010 2 18049755037615568146
3004659 81 18271241612986386307
3060560 45 18340206396684123230
4280585 95 17624995832636724942
46194498 28 17749669714008087189
474 4 18262236758720063205
543358 83 18339929220885338251
59682541 52 18192683736860065007
6443956 14 18410295838838302853
70251023 43 18126864702488446774
7164475 11 18046909281972987048
7471813 234 18045774598895538882
8272917 22 18411424981619332271

>  <PUBCHEM_SHAPE_MULTIPOLES>  (1) 
444.87
10.06
4.27
1.1
16.93
0.26
0.12
1.12
-2.6
-4.25
0.12
-0.24
0.17
-1.05

>  <PUBCHEM_SHAPE_SELFOVERLAP>  (1) 
915.042

>  <PUBCHEM_SHAPE_VOLUME>  (1) 
257.8

>  <PUBCHEM_COORDINATE_TYPE>  (1) 
2
5
10

$$$$
