40228
     RDKit          3D

 20 22  0  0  0  0  0  0  0  0999 V2000
   -1.5405   -2.3190   -1.2922 O   0  0  0  0  0  0  0  0  0  0  0  0
   -2.2997   -4.0857    0.5137 O   0  0  0  0  0  0  0  0  0  0  0  0
    0.4880   -0.2434   -0.6705 N   0  0  0  0  0  0  0  0  0  0  0  0
    1.7112    0.2962   -0.3420 C   0  0  0  0  0  0  0  0  0  0  0  0
   -0.5278    0.4244   -1.4581 C   0  0  0  0  0  0  0  0  0  0  0  0
    0.3703   -1.5020   -0.1443 C   0  0  0  0  0  0  0  0  0  0  0  0
    2.3898   -0.6576    0.4198 C   0  0  0  0  0  0  0  0  0  0  0  0
    1.5316   -1.7866    0.5362 C   0  0  0  0  0  0  0  0  0  0  0  0
   -1.4649    1.2168   -0.5873 C   0  0  0  0  0  0  0  0  0  0  0  0
    2.2631    1.5427   -0.6576 C   0  0  0  0  0  0  0  0  0  0  0  0
    3.6827   -0.3543    0.8907 C   0  0  0  0  0  0  0  0  0  0  0  0
   -0.7775   -2.3432   -0.2960 C   0  0  0  0  0  0  0  0  0  0  0  0
    3.5467    1.8211   -0.1795 C   0  0  0  0  0  0  0  0  0  0  0  0
    4.2473    0.8887    0.5829 C   0  0  0  0  0  0  0  0  0  0  0  0
   -1.1734    2.5430   -0.2979 C   0  0  0  0  0  0  0  0  0  0  0  0
   -2.6085    0.6113   -0.0844 C   0  0  0  0  0  0  0  0  0  0  0  0
   -1.1261   -3.3545    0.8140 C   0  0  0  0  0  0  0  0  0  0  0  0
   -2.0418    3.2775    0.5096 C   0  0  0  0  0  0  0  0  0  0  0  0
   -3.4769    1.3457    0.7230 C   0  0  0  0  0  0  0  0  0  0  0  0
   -3.1936    2.6788    1.0200 C   0  0  0  0  0  0  0  0  0  0  0  0
  1 12  2  0
  2 17  1  0
  3  4  1  0
  3  5  1  0
  3  6  1  0
  4  7  2  0
  4 10  1  0
  5  9  1  0
  6  8  2  0
  6 12  1  0
  7  8  1  0
  7 11  1  0
  9 15  2  0
  9 16  1  0
 10 13  2  0
 11 14  2  0
 12 17  1  0
 13 14  1  0
 15 18  1  0
 16 19  2  0
 18 20  2  0
 19 20  1  0
M  END
>  <PUBCHEM_COMPOUND_CID>  (1) 
40228

>  <PUBCHEM_CONFORMER_RMSD>  (1) 
0.6

>  <PUBCHEM_CONFORMER_DIVERSEORDER>  (1) 
1
19
32
6
16
27
38
28
9
24
37
29
23
21
17
20
30
13
40
22
3
31
26
18
15
25
4
39
33
35
41
14
8
7
12
11
10
5
34
36
2

>  <PUBCHEM_MMFF94_PARTIAL_CHARGES>  (1) 
30
1 -0.57
10 -0.15
11 -0.15
12 0.59
13 -0.15
14 -0.15
15 -0.15
16 -0.15
17 0.34
18 -0.15
19 -0.15
2 -0.68
20 -0.15
23 0.15
24 0.15
25 0.15
26 0.15
27 0.15
28 0.15
29 0.15
3 0.05
32 0.15
33 0.15
34 0.15
35 0.4
4 -0.15
5 0.4
6 -0.24
8 -0.15
9 -0.14

>  <PUBCHEM_EFFECTIVE_ROTOR_COUNT>  (1) 
4

>  <PUBCHEM_PHARMACOPHORE_FEATURES>  (1) 
7
1 1 acceptor
1 2 acceptor
1 2 donor
1 3 cation
5 3 4 6 7 8 rings
6 4 7 10 11 13 14 rings
6 9 15 16 18 19 20 rings

>  <PUBCHEM_HEAVY_ATOM_COUNT>  (1) 
20

>  <PUBCHEM_ATOM_DEF_STEREO_COUNT>  (1) 
0

>  <PUBCHEM_ATOM_UDEF_STEREO_COUNT>  (1) 
0

>  <PUBCHEM_BOND_DEF_STEREO_COUNT>  (1) 
0

>  <PUBCHEM_BOND_UDEF_STEREO_COUNT>  (1) 
0

>  <PUBCHEM_ISOTOPIC_ATOM_COUNT>  (1) 
0

>  <PUBCHEM_COMPONENT_COUNT>  (1) 
1

>  <PUBCHEM_CACTVS_TAUTO_COUNT>  (1) 
3

>  <PUBCHEM_CONFORMER_ID>  (1) 
00009D2400000001

>  <PUBCHEM_MMFF94_ENERGY>  (1) 
45.5102

>  <PUBCHEM_FEATURE_SELFOVERLAP>  (1) 
35.621

>  <PUBCHEM_SHAPE_FINGERPRINT>  (1) 
10064457 181 18338520746616933192
10090160 65 18266731399388935589
104564 63 18194691598835759054
1100329 8 18194405730534811377
11370993 70 18264487278617969105
11640471 11 17414134825307953425
12035758 1 18124037823929057242
12633257 1 17539974970515188225
12788726 201 17903653117568828044
12954195 1 18193295189705281036
13140716 1 18194680603698629160
13583140 156 16733250262791163156
14178342 30 18336811083766938434
14223421 5 17760092817640336961
14787075 74 18202275923107974793
14790565 3 16390439416731049301
15295992 7 17846204588605721768
15309172 13 18263921038402912324
15420108 30 17119981294012246687
15475509 84 17538585583440435291
15906896 17 18343295989650431991
16945 1 18335692811357957958
17138139 8 17840262832296225149
19591789 44 17832704574381734822
20157964 124 17906728099795802757
20510252 161 17974842075961722514
20739085 24 17758685447415312720
21041028 32 17761782058268531479
21524375 3 18200584792065935501
21731228 192 18268430144162486553
21756936 100 18272926116587614588
23419403 2 17253962751592518855
23558518 356 18341044134070977543
23559900 14 17617376182880477777
25147074 1 17968094296320404476
2748010 2 17542484056455577948
3091708 16 9270652681837546491
31174 14 17400369945140668877
352729 6 18410287047150699454
392239 28 17906169912385560928
474 4 18123467185604114313
58807428 26 18194958539527076264
6438718 38 17988082308767687391
7097593 13 17258505435781348913
7364860 26 17693942886545406461
7471813 234 17336180937279384991
81228 2 18337664338384939694

>  <PUBCHEM_SHAPE_MULTIPOLES>  (1) 
394.87
6.1
4.39
1.07
2.23
4.06
0.12
-4.79
-2.11
-3.16
-0.76
-0.2
0.03
-0.66

>  <PUBCHEM_SHAPE_SELFOVERLAP>  (1) 
867.391

>  <PUBCHEM_SHAPE_VOLUME>  (1) 
214.1

>  <PUBCHEM_COORDINATE_TYPE>  (1) 
2
5
10

$$$$
