40224
     RDKit          3D

 18 21  0  0  1  0  0  0  0  0999 V2000
    1.7060    1.7428   -0.2302 C   0  0  0  0  0  0  0  0  0  0  0  0
    0.2142    1.4670   -0.1742 C   0  0  0  0  0  0  0  0  0  0  0  0
   -0.0576    0.0758   -0.0650 C   0  0  0  0  0  0  0  0  0  0  0  0
    2.2740    0.3424   -0.1362 C   0  0  0  0  0  0  0  0  0  0  0  0
    1.2362   -0.6176   -0.0452 C   0  0  0  0  0  0  0  0  0  0  0  0
   -1.4005   -0.3713   -0.0015 C   0  0  0  0  0  0  0  0  0  0  0  0
    2.1814    2.6473    0.9011 C   0  0  0  0  0  0  0  0  0  0  0  0
   -0.7894    2.4168   -0.2398 C   0  0  0  0  0  0  0  0  0  0  0  0
   -2.4268    0.6176   -0.0631 C   0  0  0  0  0  0  0  0  0  0  0  0
    3.6174   -0.0115   -0.1544 C   0  0  0  0  0  0  0  0  0  0  0  0
    1.5832   -1.9590    0.0366 C   0  0  0  0  0  0  0  0  0  0  0  0
   -2.1076    1.9835   -0.1823 C   0  0  0  0  0  0  0  0  0  0  0  0
   -1.8176   -1.7179    0.1193 C   0  0  0  0  0  0  0  0  0  0  0  0
    3.9456   -1.3605   -0.0694 C   0  0  0  0  0  0  0  0  0  0  0  0
    2.9365   -2.3253    0.0258 C   0  0  0  0  0  0  0  0  0  0  0  0
   -3.7784    0.2399   -0.0070 C   0  0  0  0  0  0  0  0  0  0  0  0
   -3.1684   -2.0738    0.1745 C   0  0  0  0  0  0  0  0  0  0  0  0
   -4.1483   -1.0961    0.1110 C   0  0  0  0  0  0  0  0  0  0  0  0
  1  2  1  0
  1  4  1  0
  1  7  1  0
  2  3  2  0
  2  8  1  0
  3  5  1  0
  3  6  1  0
  4  5  2  0
  4 10  1  0
  5 11  1  0
  6  9  2  0
  6 13  1  0
  8 12  2  0
  9 12  1  0
  9 16  1  0
 10 14  2  0
 11 15  2  0
 13 17  2  0
 14 15  1  0
 16 18  2  0
 17 18  1  0
M  END
>  <PUBCHEM_COMPOUND_CID>  (1) 
40224

>  <PUBCHEM_CONFORMER_RMSD>  (1) 
0.4

>  <PUBCHEM_CONFORMER_DIVERSEORDER>  (1) 
1
2

>  <PUBCHEM_MMFF94_PARTIAL_CHARGES>  (1) 
23
1 0.29
10 -0.15
11 -0.15
12 -0.15
13 -0.15
14 -0.15
15 -0.15
16 -0.15
17 -0.15
18 -0.15
2 -0.14
23 0.15
24 0.15
25 0.15
26 0.15
27 0.15
28 0.15
29 0.15
30 0.15
31 0.15
32 0.15
4 -0.14
8 -0.15

>  <PUBCHEM_EFFECTIVE_ROTOR_COUNT>  (1) 
0.2

>  <PUBCHEM_PHARMACOPHORE_FEATURES>  (1) 
4
5 1 2 3 4 5 rings
6 2 3 6 8 9 12 rings
6 4 5 10 11 14 15 rings
6 6 9 13 16 17 18 rings

>  <PUBCHEM_HEAVY_ATOM_COUNT>  (1) 
18

>  <PUBCHEM_ATOM_DEF_STEREO_COUNT>  (1) 
0

>  <PUBCHEM_ATOM_UDEF_STEREO_COUNT>  (1) 
1

>  <PUBCHEM_BOND_DEF_STEREO_COUNT>  (1) 
0

>  <PUBCHEM_BOND_UDEF_STEREO_COUNT>  (1) 
0

>  <PUBCHEM_ISOTOPIC_ATOM_COUNT>  (1) 
0

>  <PUBCHEM_COMPONENT_COUNT>  (1) 
1

>  <PUBCHEM_CACTVS_TAUTO_COUNT>  (1) 
1

>  <PUBCHEM_CONFORMER_ID>  (1) 
00009D2000000001

>  <PUBCHEM_MMFF94_ENERGY>  (1) 
67.7051

>  <PUBCHEM_FEATURE_SELFOVERLAP>  (1) 
20.477

>  <PUBCHEM_SHAPE_FINGERPRINT>  (1) 
10608611 8 18410288125203314685
10616163 171 18338802216998178102
10618630 7 18408324380161149239
10967382 1 18193839464275631503
1100329 8 16895109116097037163
11578080 2 17344600799808645657
11680986 33 18410848889087012561
11806522 49 18408323293787565934
12506688 2 18341334413962220584
12553582 1 18410292484405326511
13140716 1 18338799017188974795
13221675 6 18410292497305929255
138480 1 18338237175332470916
14115302 16 17968388882888005087
14178342 30 18265602200772811728
14223421 5 18410568513379187177
14790565 3 17688600776148256565
14866123 147 16973933113023997754
15042514 8 17905044746912824714
15196674 1 18409731746370274367
15375462 189 18187368666574124946
15375462 6 18338517550802257004
15442244 35 18339082583851668611
15475509 84 18058470745866744233
15536298 74 18342458200433995113
16945 1 18410570656620680348
17804303 29 18411987922829539325
1813 80 17385728001711174797
19591789 44 16966623039894103108
200 152 18131343125227985599
20510252 161 18126564518243499425
20645477 70 18337383959020716775
21029758 11 18269546148644222069
21267235 1 18409740542511237023
21501502 16 18410018714636770716
221490 88 18336272339616395674
22721475 48 18410017606524379548
23184049 29 18410010996548611942
2334 1 18122063370973623021
23366157 5 18113617923957079236
23402539 116 18341885248145274479
23463225 33 18410295821715988079
23557571 272 18056766429902755246
23559900 14 18410567401257126520
2748010 2 18265331900773458220
2871803 45 18334572442968312655
3084891 72 17474941030790510132
335352 9 18266178336149127253
34934 24 18410004442513083215
350125 39 18410016532877988213
46194498 28 17319270384420348239
5104073 3 18410856546765503096
5493415 88 18411696556791156712
7364860 26 18341893043162860744
8809292 202 18333454243990579347
9709674 26 18410859841085137231

>  <PUBCHEM_SHAPE_MULTIPOLES>  (1) 
370.43
6.84
2.98
0.68
1.28
0.61
-0.04
-3.14
-0.15
-0.71
-0.25
-0.1
0.13
0.43

>  <PUBCHEM_SHAPE_SELFOVERLAP>  (1) 
844.676

>  <PUBCHEM_SHAPE_VOLUME>  (1) 
180

>  <PUBCHEM_COORDINATE_TYPE>  (1) 
2
5
10

$$$$
