40225
     RDKit          3D

 13 14  0  0  0  0  0  0  0  0999 V2000
    2.9275    1.4206    0.0049 O   0  0  0  0  0  0  0  0  0  0  0  0
    4.6476   -0.5793   -0.0166 O   0  0  0  0  0  0  0  0  0  0  0  0
    0.0431    1.1563    0.0007 N   0  0  0  0  0  0  0  0  0  0  0  0
   -1.2442    0.6684   -0.0006 C   0  0  0  0  0  0  0  0  0  0  0  0
   -1.1555   -0.7254    0.0018 C   0  0  0  0  0  0  0  0  0  0  0  0
    0.9402    0.1221    0.0039 C   0  0  0  0  0  0  0  0  0  0  0  0
    0.2286   -1.0556    0.0047 C   0  0  0  0  0  0  0  0  0  0  0  0
   -2.4680    1.3472   -0.0037 C   0  0  0  0  0  0  0  0  0  0  0  0
   -2.3449   -1.4806    0.0007 C   0  0  0  0  0  0  0  0  0  0  0  0
    2.3576    0.3010    0.0043 C   0  0  0  0  0  0  0  0  0  0  0  0
   -3.6344    0.5771   -0.0042 C   0  0  0  0  0  0  0  0  0  0  0  0
   -3.5763   -0.8152   -0.0020 C   0  0  0  0  0  0  0  0  0  0  0  0
    3.2788   -0.9367    0.0060 C   0  0  0  0  0  0  0  0  0  0  0  0
  1 10  2  0
  2 13  1  0
  3  4  1  0
  3  6  1  0
  4  5  2  0
  4  8  1  0
  5  7  1  0
  5  9  1  0
  6  7  2  0
  6 10  1  0
  8 11  2  0
  9 12  2  0
 10 13  1  0
 11 12  1  0
M  END
>  <PUBCHEM_COMPOUND_CID>  (1) 
40225

>  <PUBCHEM_CONFORMER_RMSD>  (1) 
0.6

>  <PUBCHEM_CONFORMER_DIVERSEORDER>  (1) 
1
3
5
8
6
4
7
2

>  <PUBCHEM_MMFF94_PARTIAL_CHARGES>  (1) 
19
1 -0.57
10 0.59
11 -0.15
12 -0.15
13 0.34
14 0.27
15 0.15
16 0.15
17 0.15
18 0.15
19 0.15
2 -0.68
22 0.4
3 0.03
4 -0.15
6 -0.24
7 -0.15
8 -0.15
9 -0.15

>  <PUBCHEM_EFFECTIVE_ROTOR_COUNT>  (1) 
2

>  <PUBCHEM_PHARMACOPHORE_FEATURES>  (1) 
7
1 1 acceptor
1 2 acceptor
1 2 donor
1 3 cation
1 3 donor
5 3 4 5 6 7 rings
6 4 5 8 9 11 12 rings

>  <PUBCHEM_HEAVY_ATOM_COUNT>  (1) 
13

>  <PUBCHEM_ATOM_DEF_STEREO_COUNT>  (1) 
0

>  <PUBCHEM_ATOM_UDEF_STEREO_COUNT>  (1) 
0

>  <PUBCHEM_BOND_DEF_STEREO_COUNT>  (1) 
0

>  <PUBCHEM_BOND_UDEF_STEREO_COUNT>  (1) 
0

>  <PUBCHEM_ISOTOPIC_ATOM_COUNT>  (1) 
0

>  <PUBCHEM_COMPONENT_COUNT>  (1) 
1

>  <PUBCHEM_CACTVS_TAUTO_COUNT>  (1) 
12

>  <PUBCHEM_CONFORMER_ID>  (1) 
00009D2100000001

>  <PUBCHEM_MMFF94_ENERGY>  (1) 
18.5116

>  <PUBCHEM_FEATURE_SELFOVERLAP>  (1) 
35.621

>  <PUBCHEM_SHAPE_FINGERPRINT>  (1) 
10608611 8 18411978070095759209
11132069 177 18410848871711776353
11769659 78 18411695525724757503
12032990 46 18410298025007882507
12932764 1 17313373518032445644
13024252 1 15936411135310439457
13288520 33 18412266099762093998
13296908 3 18409449223437432714
13380535 76 18412826850497288791
14144814 61 18408602560813437419
14325111 11 18410574002347300481
15536298 74 18341049705123296096
16945 1 18410855473530021865
17804303 29 18413110562856191148
18186145 218 17676762145361537590
19422 9 18335424598791818734
200 152 17846771906419504863
20645477 70 18413670205854002710
20871998 184 18129104588205160935
21267235 1 18410020935177210147
23402539 116 18130498661606341677
23463225 33 18408885114038072246
23559900 14 18342453721616503274
2748010 2 17978505661648344317
5104073 3 18411138060391651200
6333449 129 18413106147993671389
69090 78 18273208707717563839
7364860 26 18269274732897779936
8809292 202 18261679267549054899
9709674 26 18412550915944247342

>  <PUBCHEM_SHAPE_MULTIPOLES>  (1) 
250.81
7.07
1.48
0.6
4.43
0.05
0
-0.64
-0.02
-0.38
0
-0.06
-0.01
0

>  <PUBCHEM_SHAPE_SELFOVERLAP>  (1) 
545.218

>  <PUBCHEM_SHAPE_VOLUME>  (1) 
138.1

>  <PUBCHEM_COORDINATE_TYPE>  (1) 
2
5
10

$$$$
