40227
     RDKit          3D

 14 15  0  0  0  0  0  0  0  0999 V2000
    3.0221   -1.1485   -0.0044 O   0  0  0  0  0  0  0  0  0  0  0  0
    4.5289    1.0166    0.0151 O   0  0  0  0  0  0  0  0  0  0  0  0
    0.1869    1.1015   -0.0035 N   0  0  0  0  0  0  0  0  0  0  0  0
   -1.2894   -0.5712    0.0006 C   0  0  0  0  0  0  0  0  0  0  0  0
    0.0267   -1.1124   -0.0002 C   0  0  0  0  0  0  0  0  0  0  0  0
   -1.1606    0.8194   -0.0013 C   0  0  0  0  0  0  0  0  0  0  0  0
    0.9125   -0.0595   -0.0028 C   0  0  0  0  0  0  0  0  0  0  0  0
   -2.5817   -1.1326    0.0027 C   0  0  0  0  0  0  0  0  0  0  0  0
    0.3765   -2.5493    0.0011 C   0  0  0  0  0  0  0  0  0  0  0  0
   -2.2641    1.6800   -0.0011 C   0  0  0  0  0  0  0  0  0  0  0  0
    2.3421   -0.0929   -0.0041 C   0  0  0  0  0  0  0  0  0  0  0  0
   -3.6947   -0.2840    0.0034 C   0  0  0  0  0  0  0  0  0  0  0  0
   -3.5360    1.1005    0.0014 C   0  0  0  0  0  0  0  0  0  0  0  0
    3.1307    1.2323   -0.0070 C   0  0  0  0  0  0  0  0  0  0  0  0
  1 11  2  0
  2 14  1  0
  3  6  1  0
  3  7  1  0
  4  5  1  0
  4  6  2  0
  4  8  1  0
  5  7  2  0
  5  9  1  0
  6 10  1  0
  7 11  1  0
  8 12  2  0
 10 13  2  0
 11 14  1  0
 12 13  1  0
M  END
>  <PUBCHEM_COMPOUND_CID>  (1) 
40227

>  <PUBCHEM_CONFORMER_RMSD>  (1) 
0.6

>  <PUBCHEM_CONFORMER_DIVERSEORDER>  (1) 
1
6
5
2
7
4
3

>  <PUBCHEM_MMFF94_PARTIAL_CHARGES>  (1) 
19
1 -0.57
10 -0.15
11 0.59
12 -0.15
13 -0.15
14 0.34
15 0.27
16 0.15
2 -0.68
20 0.15
21 0.15
22 0.15
25 0.4
3 0.03
5 -0.18
6 -0.15
7 -0.24
8 -0.15
9 0.18

>  <PUBCHEM_EFFECTIVE_ROTOR_COUNT>  (1) 
2

>  <PUBCHEM_PHARMACOPHORE_FEATURES>  (1) 
7
1 1 acceptor
1 2 acceptor
1 2 donor
1 3 cation
1 3 donor
5 3 4 5 6 7 rings
6 4 6 8 10 12 13 rings

>  <PUBCHEM_HEAVY_ATOM_COUNT>  (1) 
14

>  <PUBCHEM_ATOM_DEF_STEREO_COUNT>  (1) 
0

>  <PUBCHEM_ATOM_UDEF_STEREO_COUNT>  (1) 
0

>  <PUBCHEM_BOND_DEF_STEREO_COUNT>  (1) 
0

>  <PUBCHEM_BOND_UDEF_STEREO_COUNT>  (1) 
0

>  <PUBCHEM_ISOTOPIC_ATOM_COUNT>  (1) 
0

>  <PUBCHEM_COMPONENT_COUNT>  (1) 
1

>  <PUBCHEM_CACTVS_TAUTO_COUNT>  (1) 
16

>  <PUBCHEM_CONFORMER_ID>  (1) 
00009D2300000001

>  <PUBCHEM_MMFF94_ENERGY>  (1) 
21.0056

>  <PUBCHEM_FEATURE_SELFOVERLAP>  (1) 
35.621

>  <PUBCHEM_SHAPE_FINGERPRINT>  (1) 
10608611 8 18337670802416377477
10967382 1 18410856568256097927
11132069 177 18335417963178324065
11543360 7 15697707207458424620
12346645 44 18410292497369005475
13380535 76 18408885101332732835
14144814 61 18408886221928573153
14325111 11 18410575071831041476
14614273 12 18260260811828992245
15196674 1 18410856542713205927
15219456 202 18341618079087545495
15309172 13 18411145757068016435
15536298 74 18341895160803309686
15775835 57 18413110562808679440
16945 1 18338517443849976647
18186145 218 18343028752743410876
193761 8 17762056540895721637
20510252 161 18343587343204884745
20645477 56 18340205310416327240
20645477 70 18272087137100936527
21501502 16 18267580209190194947
21524375 3 18409728469621554794
23402539 116 18341603871435807980
23402655 69 18270104722790801805
23463225 33 18335136436709459194
23559900 14 18272371962990498454
2748010 2 18410296903936892439
366044 4 18410011065447631682
43471831 8 18334855004545680898
474 4 17097217358065077308
5104073 3 18410294683465181475
528886 8 18410851066571855435
53812653 166 18342735225851091001
54173680 148 17976541937686142994
69090 78 18342172297536088254
7364860 26 18197216936463580750
9709674 26 18411987983202226774

>  <PUBCHEM_SHAPE_MULTIPOLES>  (1) 
271.39
6.52
1.98
0.6
3
0.74
0
-2.36
-0.02
0.07
0
-0.05
0.01
0

>  <PUBCHEM_SHAPE_SELFOVERLAP>  (1) 
588.481

>  <PUBCHEM_SHAPE_VOLUME>  (1) 
150.2

>  <PUBCHEM_COORDINATE_TYPE>  (1) 
2
5
10

$$$$
