40238
     RDKit          3D

 22 23  0  0  1  0  0  0  0  0999 V2000
   -0.9916    0.6540   -1.8604 O   0  0  0  0  0  0  0  0  0  0  0  0
   -1.3374   -0.3347    2.7170 O   0  0  0  0  0  0  0  0  0  0  0  0
   -1.7531   -3.6414   -0.4373 O   0  0  0  0  0  0  0  0  0  0  0  0
    1.1293    0.9307   -0.3585 N   0  0  0  0  0  0  0  0  0  0  0  0
   -1.4699   -1.4744   -1.1509 N   0  0  0  0  0  0  0  0  0  0  0  0
   -1.6433   -1.9682    1.1356 N   0  0  0  0  0  0  0  0  0  0  0  0
    2.5722    0.7328   -0.2356 C   0  0  0  0  0  0  0  0  0  0  0  0
    2.8669   -0.2667    0.8884 C   0  0  0  0  0  0  0  0  0  0  0  0
    3.1472    0.2482   -1.5710 C   0  0  0  0  0  0  0  0  0  0  0  0
    0.5707    1.4394    0.8848 C   0  0  0  0  0  0  0  0  0  0  0  0
   -0.9460    1.6587    0.7687 C   0  0  0  0  0  0  0  0  0  0  0  0
   -1.7289    0.3809    0.4335 C   0  0  0  0  0  0  0  0  0  0  0  0
    4.3628   -0.5578    0.9964 C   0  0  0  0  0  0  0  0  0  0  0  0
    4.6428   -0.0428   -1.4599 C   0  0  0  0  0  0  0  0  0  0  0  0
    4.9419   -1.0293   -0.3345 C   0  0  0  0  0  0  0  0  0  0  0  0
   -3.2333    0.7030    0.3892 C   0  0  0  0  0  0  0  0  0  0  0  0
    1.2734    2.7488    1.2409 C   0  0  0  0  0  0  0  0  0  0  0  0
   -1.3357   -0.1077   -0.9570 C   0  0  0  0  0  0  0  0  0  0  0  0
   -1.5248   -0.6474    1.5415 C   0  0  0  0  0  0  0  0  0  0  0  0
   -3.5390    1.6527   -0.7210 C   0  0  0  0  0  0  0  0  0  0  0  0
   -1.6471   -2.4432   -0.1703 C   0  0  0  0  0  0  0  0  0  0  0  0
   -4.3571    1.3646   -1.7394 C   0  0  0  0  0  0  0  0  0  0  0  0
  1 18  2  0
  2 19  2  0
  3 21  2  0
  4  7  1  0
  4 10  1  0
  5 18  1  0
  5 21  1  0
  6 19  1  0
  6 21  1  0
  7  8  1  0
  7  9  1  0
  8 13  1  0
  9 14  1  0
 10 11  1  0
 10 17  1  0
 11 12  1  0
 12 16  1  0
 12 18  1  0
 12 19  1  0
 13 15  1  0
 14 15  1  0
 16 20  1  0
 20 22  2  0
M  END
>  <PUBCHEM_COMPOUND_CID>  (1) 
40238

>  <PUBCHEM_CONFORMER_RMSD>  (1) 
0.8

>  <PUBCHEM_CONFORMER_DIVERSEORDER>  (1) 
1
27
25
21
3
11
14
31
28
9
22
26
16
17
5
8
19
12
4
15
18
30
23
7
13
2
10
24
32
20
6
29

>  <PUBCHEM_MMFF94_PARTIAL_CHARGES>  (1) 
21
1 -0.57
10 0.27
12 0.12
16 0.14
18 0.57
19 0.57
2 -0.57
20 -0.29
21 0.69
22 -0.3
3 -0.57
31 0.36
4 -0.9
43 0.37
44 0.37
45 0.15
46 0.15
47 0.15
5 -0.49
6 -0.49
7 0.27

>  <PUBCHEM_EFFECTIVE_ROTOR_COUNT>  (1) 
7.8

>  <PUBCHEM_PHARMACOPHORE_FEATURES>  (1) 
10
1 1 acceptor
1 2 acceptor
1 22 hydrophobe
1 3 acceptor
1 4 cation
1 4 donor
1 5 donor
1 6 donor
6 5 6 12 18 19 21 rings
6 7 8 9 13 14 15 rings

>  <PUBCHEM_HEAVY_ATOM_COUNT>  (1) 
22

>  <PUBCHEM_ATOM_DEF_STEREO_COUNT>  (1) 
0

>  <PUBCHEM_ATOM_UDEF_STEREO_COUNT>  (1) 
1

>  <PUBCHEM_BOND_DEF_STEREO_COUNT>  (1) 
0

>  <PUBCHEM_BOND_UDEF_STEREO_COUNT>  (1) 
0

>  <PUBCHEM_ISOTOPIC_ATOM_COUNT>  (1) 
0

>  <PUBCHEM_COMPONENT_COUNT>  (1) 
1

>  <PUBCHEM_CACTVS_TAUTO_COUNT>  (1) 
5

>  <PUBCHEM_CONFORMER_ID>  (1) 
00009D2E00000001

>  <PUBCHEM_MMFF94_ENERGY>  (1) 
46.5779

>  <PUBCHEM_FEATURE_SELFOVERLAP>  (1) 
50.787

>  <PUBCHEM_SHAPE_FINGERPRINT>  (1) 
10366900 7 17418096477951676670
107951 10 17241056409196498891
11315181 36 16774077350471254512
11578080 2 18263925612691438372
12173636 292 16805327720593574553
12553582 1 18130523958947942512
12592029 89 18339082584326656331
12596599 1 18059308646704246186
12596602 18 12823004289058488686
12633257 1 17771656647559264003
12714826 92 18263658396852357482
14115302 16 18408040702140723780
14223421 5 17841150275022934248
15163728 17 17243867749144876469
15375358 24 18131345294049410740
15664445 248 17182780407749822991
16752209 62 18268144249886279856
16945 1 17917988361272552357
17349148 13 16917068866900483324
18981168 100 8285661821861493400
192875 21 17203888565317913041
19784866 170 7925632254174219701
19930381 70 17908422454986209071
200 152 14620501312008910484
20600515 1 18130521759809129736
20602899 9 18272653433261096907
20645476 183 17240486883727021753
20775530 9 17545325636747381974
21069387 34 17346593092933989653
21731516 1 18268157633172724466
2306618 200 12535354454202204035
23227448 37 17023194802907585634
23419403 2 16915081070795931715
23559900 14 18343582950255180888
23728640 28 18411702045559037642
74978 22 18341611563822766880
81228 2 17701834202074005280
9709674 26 18056746839844716013

>  <PUBCHEM_SHAPE_MULTIPOLES>  (1) 
420.2
8.09
2.6
1.9
7.52
1.61
-0.22
-0.15
3.08
-1.84
-0.32
-0.42
-0.17
0.69

>  <PUBCHEM_SHAPE_SELFOVERLAP>  (1) 
865.43

>  <PUBCHEM_SHAPE_VOLUME>  (1) 
236.4

>  <PUBCHEM_COORDINATE_TYPE>  (1) 
2
5
10

$$$$
