40231
     RDKit          3D

 24 26  0  0  0  0  0  0  0  0999 V2000
    0.8815   -2.1241   -0.0001 O   0  0  0  0  0  0  0  0  0  0  0  0
    3.4618   -2.1792    0.0009 O   0  0  0  0  0  0  0  0  0  0  0  0
    3.6507    0.1149   -0.0008 O   0  0  0  0  0  0  0  0  0  0  0  0
   -2.5234   -2.8969   -0.0011 O   0  0  0  0  0  0  0  0  0  0  0  0
   -0.7330   -4.1670   -0.0008 O   0  0  0  0  0  0  0  0  0  0  0  0
   -1.2639   -3.0185   -0.0006 N   0  0  0  0  0  0  0  0  0  0  0  0
    0.5726    0.1008   -0.0002 C   0  0  0  0  0  0  0  0  0  0  0  0
   -0.6964   -0.5237   -0.0003 C   0  0  0  0  0  0  0  0  0  0  0  0
    0.9207    1.4943   -0.0002 C   0  0  0  0  0  0  0  0  0  0  0  0
   -2.0128    0.0472    0.0001 C   0  0  0  0  0  0  0  0  0  0  0  0
    1.4998   -0.9139   -0.0002 C   0  0  0  0  0  0  0  0  0  0  0  0
   -0.4548   -1.8779   -0.0002 C   0  0  0  0  0  0  0  0  0  0  0  0
    1.0895    2.1710    1.2077 C   0  0  0  0  0  0  0  0  0  0  0  0
    1.0901    2.1708   -1.2081 C   0  0  0  0  0  0  0  0  0  0  0  0
   -2.6540    0.3259   -1.2077 C   0  0  0  0  0  0  0  0  0  0  0  0
   -2.6539    0.3246    1.2082 C   0  0  0  0  0  0  0  0  0  0  0  0
    2.9251   -0.9088   -0.0005 C   0  0  0  0  0  0  0  0  0  0  0  0
    1.4278    3.5243    1.2079 C   0  0  0  0  0  0  0  0  0  0  0  0
    1.4285    3.5240   -1.2081 C   0  0  0  0  0  0  0  0  0  0  0  0
   -3.9338    0.8808   -1.2074 C   0  0  0  0  0  0  0  0  0  0  0  0
   -3.9337    0.8794    1.2086 C   0  0  0  0  0  0  0  0  0  0  0  0
    1.5973    4.2007   -0.0001 C   0  0  0  0  0  0  0  0  0  0  0  0
   -4.5736    1.1576    0.0008 C   0  0  0  0  0  0  0  0  0  0  0  0
    4.8879   -2.3062    0.0020 C   0  0  0  0  0  0  0  0  0  0  0  0
  1 11  1  0
  1 12  1  0
  2 17  1  0
  2 24  1  0
  3 17  2  0
  4  6  1  0
  5  6  2  0
  6 12  1  0
  7  8  1  0
  7  9  1  0
  7 11  2  0
  8 10  1  0
  8 12  2  0
  9 13  2  0
  9 14  1  0
 10 15  2  0
 10 16  1  0
 11 17  1  0
 13 18  1  0
 14 19  2  0
 15 20  1  0
 16 21  2  0
 18 22  2  0
 19 22  1  0
 20 23  2  0
 21 23  1  0
M  CHG  2   4  -1   6   1
M  END
>  <PUBCHEM_COMPOUND_CID>  (1) 
40231

>  <PUBCHEM_CONFORMER_RMSD>  (1) 
0.8

>  <PUBCHEM_CONFORMER_DIVERSEORDER>  (1) 
1
3
4
2

>  <PUBCHEM_MMFF94_PARTIAL_CHARGES>  (1) 
34
1 -0.28
10 0.05
11 0.05
12 0.22
13 -0.15
14 -0.15
15 -0.15
16 -0.15
17 0.81
18 -0.15
19 -0.15
2 -0.43
20 -0.15
21 -0.15
22 -0.15
23 -0.15
24 0.28
25 0.15
26 0.15
27 0.15
28 0.15
29 0.15
3 -0.57
30 0.15
31 0.15
32 0.15
33 0.15
34 0.15
4 -0.52
5 -0.52
6 0.96
7 -0.05
8 -0.05
9 0.05

>  <PUBCHEM_EFFECTIVE_ROTOR_COUNT>  (1) 
5

>  <PUBCHEM_PHARMACOPHORE_FEATURES>  (1) 
8
1 1 acceptor
1 3 acceptor
1 4 acceptor
1 4 anion
1 5 acceptor
5 1 7 8 11 12 rings
6 10 15 16 20 21 23 rings
6 9 13 14 18 19 22 rings

>  <PUBCHEM_HEAVY_ATOM_COUNT>  (1) 
24

>  <PUBCHEM_ATOM_DEF_STEREO_COUNT>  (1) 
0

>  <PUBCHEM_ATOM_UDEF_STEREO_COUNT>  (1) 
0

>  <PUBCHEM_BOND_DEF_STEREO_COUNT>  (1) 
0

>  <PUBCHEM_BOND_UDEF_STEREO_COUNT>  (1) 
0

>  <PUBCHEM_ISOTOPIC_ATOM_COUNT>  (1) 
0

>  <PUBCHEM_COMPONENT_COUNT>  (1) 
1

>  <PUBCHEM_CACTVS_TAUTO_COUNT>  (1) 
1

>  <PUBCHEM_CONFORMER_ID>  (1) 
00009D2700000001

>  <PUBCHEM_MMFF94_ENERGY>  (1) 
64.6411

>  <PUBCHEM_FEATURE_SELFOVERLAP>  (1) 
40.691

>  <PUBCHEM_SHAPE_FINGERPRINT>  (1) 
10162869 55 18199475373357759761
10165383 225 17903951033670538597
104564 63 17978228253526095768
10930396 42 18048559735427175090
1100329 8 18411704287421053362
11582403 64 16521818648273756493
11680986 33 18340758359931833802
12035758 1 18336252492593555376
12788726 201 18046344133392287410
13132413 78 18198628726536805377
13134695 92 18341326712875518412
13140716 1 18337953522938729561
13149001 5 18338528515869757070
13583140 156 17314208099361817881
13911987 19 18263092019678915694
14022347 108 18264778666584959562
14178342 30 18123176060062307936
14223421 5 17977947109324930139
14713325 29 16306019893144643724
14790565 3 18266752281177238556
14955137 171 18266760016249483763
15439362 3 18339070587998552629
16945 1 18410575093348192896
17357779 13 18194951951063399684
17980427 23 17703785916326757133
1813 80 18128267687704024548
18981168 100 18194119852905548413
19591789 44 18266176123908543094
20510252 161 17981037523521288994
20600515 1 18271255915226936356
20671657 1 18337678615062213133
20739085 24 18122367703898619912
229495 10 17029147644997126712
23175994 123 18189905222893562445
23366157 5 18043526333955293906
23402539 116 18128247887868035238
23419403 2 17245031199708136184
23558518 356 17973996546718892506
23559900 14 18196922495011992162
266924 87 17691117558152517807
283562 15 17906170655546505106
3027735 51 17763463915900880154
3178227 256 18337124380166836315
350125 39 18121788484603345017
4409770 3 17899680276983016188
5252454 2 18049183329834050645
589210 1 18194960979031596266
59554788 170 17766004899999804383
59755656 215 18051131694201943516
81228 2 17181657273643968625
9981440 41 17622702624620663561

>  <PUBCHEM_SHAPE_MULTIPOLES>  (1) 
459.58
6.88
5.04
1.12
1.39
0.95
0
-1.95
0
-3.35
0
0.55
0.85
0

>  <PUBCHEM_SHAPE_SELFOVERLAP>  (1) 
1014.934

>  <PUBCHEM_SHAPE_VOLUME>  (1) 
247.2

>  <PUBCHEM_COORDINATE_TYPE>  (1) 
2
5
10

$$$$
