40264
     RDKit          3D

 20 23  0  0  0  0  0  0  0  0999 V2000
   -0.6088    0.3221    0.0003 C   0  0  0  0  0  0  0  0  0  0  0  0
    0.1847   -0.8624    0.0002 C   0  0  0  0  0  0  0  0  0  0  0  0
    1.6275   -0.7829    0.0002 C   0  0  0  0  0  0  0  0  0  0  0  0
    2.2506    0.4879    0.0000 C   0  0  0  0  0  0  0  0  0  0  0  0
    0.0768    1.5538    0.0004 C   0  0  0  0  0  0  0  0  0  0  0  0
   -2.0516    0.2426    0.0002 C   0  0  0  0  0  0  0  0  0  0  0  0
    1.4674    1.6373    0.0001 C   0  0  0  0  0  0  0  0  0  0  0  0
   -2.6750   -1.0282   -0.0004 C   0  0  0  0  0  0  0  0  0  0  0  0
   -0.5010   -2.0942   -0.0001 C   0  0  0  0  0  0  0  0  0  0  0  0
    3.6516    0.6083    0.0001 C   0  0  0  0  0  0  0  0  0  0  0  0
   -1.8916   -2.1777   -0.0006 C   0  0  0  0  0  0  0  0  0  0  0  0
    2.4972   -1.9056    0.0005 C   0  0  0  0  0  0  0  0  0  0  0  0
   -0.5265    2.9245   -0.0001 C   0  0  0  0  0  0  0  0  0  0  0  0
   -2.9215    1.3654    0.0008 C   0  0  0  0  0  0  0  0  0  0  0  0
    4.4674   -0.5177    0.0002 C   0  0  0  0  0  0  0  0  0  0  0  0
    3.8896   -1.7766    0.0004 C   0  0  0  0  0  0  0  0  0  0  0  0
   -4.0759   -1.1485   -0.0007 C   0  0  0  0  0  0  0  0  0  0  0  0
    4.3446    1.9378   -0.0015 C   0  0  0  0  0  0  0  0  0  0  0  0
   -4.3138    1.2364    0.0004 C   0  0  0  0  0  0  0  0  0  0  0  0
   -4.8917   -0.0225   -0.0003 C   0  0  0  0  0  0  0  0  0  0  0  0
  1  2  1  0
  1  5  2  0
  1  6  1  0
  2  3  2  0
  2  9  1  0
  3  4  1  0
  3 12  1  0
  4  7  2  0
  4 10  1  0
  5  7  1  0
  5 13  1  0
  6  8  2  0
  6 14  1  0
  8 11  1  0
  8 17  1  0
  9 11  2  0
 10 15  2  0
 10 18  1  0
 12 16  2  0
 14 19  2  0
 15 16  1  0
 17 20  2  0
 19 20  1  0
M  END
>  <PUBCHEM_COMPOUND_CID>  (1) 
40264

>  <PUBCHEM_CONFORMER_RMSD>  (1) 
0.6

>  <PUBCHEM_CONFORMER_DIVERSEORDER>  (1) 
1

>  <PUBCHEM_MMFF94_PARTIAL_CHARGES>  (1) 
24
10 -0.14
11 -0.15
12 -0.15
13 0.14
14 -0.15
15 -0.15
16 -0.15
17 -0.15
18 0.14
19 -0.15
20 -0.15
21 0.15
22 0.15
23 0.15
24 0.15
28 0.15
29 0.15
30 0.15
31 0.15
35 0.15
36 0.15
5 -0.14
7 -0.15
9 -0.15

>  <PUBCHEM_EFFECTIVE_ROTOR_COUNT>  (1) 
0

>  <PUBCHEM_PHARMACOPHORE_FEATURES>  (1) 
4
6 1 2 3 4 5 7 rings
6 1 2 6 8 9 11 rings
6 3 4 10 12 15 16 rings
6 6 8 14 17 19 20 rings

>  <PUBCHEM_HEAVY_ATOM_COUNT>  (1) 
20

>  <PUBCHEM_ATOM_DEF_STEREO_COUNT>  (1) 
0

>  <PUBCHEM_ATOM_UDEF_STEREO_COUNT>  (1) 
0

>  <PUBCHEM_BOND_DEF_STEREO_COUNT>  (1) 
0

>  <PUBCHEM_BOND_UDEF_STEREO_COUNT>  (1) 
0

>  <PUBCHEM_ISOTOPIC_ATOM_COUNT>  (1) 
0

>  <PUBCHEM_COMPONENT_COUNT>  (1) 
1

>  <PUBCHEM_CACTVS_TAUTO_COUNT>  (1) 
1

>  <PUBCHEM_CONFORMER_ID>  (1) 
00009D4800000001

>  <PUBCHEM_MMFF94_ENERGY>  (1) 
92.219

>  <PUBCHEM_FEATURE_SELFOVERLAP>  (1) 
20.367

>  <PUBCHEM_SHAPE_FINGERPRINT>  (1) 
10411042 1 17041761985922111431
10616163 171 18267306615214877838
10967382 1 18410573998083838790
11132069 177 18412539903420564994
11471102 20 18410571794908092814
11578080 2 16914805110177596907
116883 192 18270124492002791734
12011746 2 18411982446703948175
12403814 3 17603579746828775677
12788726 201 17774735172648104016
13132413 78 18340207487342182837
13140716 1 18337958895937620083
13583140 156 14404613243292859639
13675066 3 18114186349576714323
13862211 1 18410568461971649767
14178342 30 17909247419751280402
14790565 3 18267873783153679673
15196674 1 18410855464586743847
15442244 35 18411138013141670258
15536298 74 18413670214469894962
16945 1 18122344846098234567
17804303 29 18412266142416198805
1813 80 17240483610872297524
18186145 218 17821442448028244022
19591789 44 18338234847475410075
200 152 18060414733900357439
20028762 73 18201718518169115791
20510252 161 18270962332310462497
20645477 70 18342459222953041214
21029758 11 18341608231197079561
21267235 1 18410583868093200034
21279426 13 18266458694080796149
21421861 104 18041831806222430218
21452121 103 18270952540586640680
221490 88 18263650739215929587
2334 1 18410856589820800067
23402539 116 18271517633090529967
23463225 33 18409730659759346790
23559900 14 18341892974933825394
2748010 2 18411136943763489383
3004659 81 18260830380527339998
335352 9 18338516318304963838
34934 24 18339637944882837838
350125 39 18410011006024964672
3545911 37 18410014355265778438
4214541 1 18410573963892957441
474 4 17604154847550606324
495365 180 17417798574419149498
5104073 3 18409730664059635171
69090 78 18412542111165961599
7364860 26 18196933485833445552
77779 3 18410575084763474603
7832392 63 18340764956859311958
9709674 26 18411987961526975686
9981440 41 17255960598675696697

>  <PUBCHEM_SHAPE_MULTIPOLES>  (1) 
411.59
8.96
2.69
0.62
0.59
0.47
0
0.04
0
-0.49
0
0
0
0

>  <PUBCHEM_SHAPE_SELFOVERLAP>  (1) 
939.22

>  <PUBCHEM_SHAPE_VOLUME>  (1) 
198.2

>  <PUBCHEM_COORDINATE_TYPE>  (1) 
2
5
10

$$$$
