40278
     RDKit          3D

 28 29  0  0  1  0  0  0  0  0999 V2000
    2.4180   -1.8279   -0.3738 O   0  0  0  0  0  0  0  0  0  0  0  0
   -3.8536   -0.7937    0.9357 O   0  0  0  0  0  0  0  0  0  0  0  0
    0.4863   -0.6450   -0.5565 O   0  0  0  0  0  0  0  0  0  0  0  0
    4.2148    1.3741    0.1999 N   0  0  0  0  0  0  0  0  0  0  0  0
    0.3684   -2.9254    0.0510 N   0  0  0  0  0  0  0  0  0  0  0  0
    4.8988    1.8801    1.3982 C   0  0  0  0  0  0  0  0  0  0  0  0
    3.3012    2.3822   -0.3558 C   0  0  0  0  0  0  0  0  0  0  0  0
    5.7020    3.1432    1.0833 C   0  0  0  0  0  0  0  0  0  0  0  0
    4.0519    3.6617   -0.7279 C   0  0  0  0  0  0  0  0  0  0  0  0
    4.8196    4.2212    0.4644 C   0  0  0  0  0  0  0  0  0  0  0  0
    3.4903    0.1410    0.5068 C   0  0  0  0  0  0  0  0  0  0  0  0
    3.1447   -0.6534   -0.7552 C   0  0  0  0  0  0  0  0  0  0  0  0
    4.3743   -1.1047   -1.5332 C   0  0  0  0  0  0  0  0  0  0  0  0
    1.0516   -1.7064   -0.3042 C   0  0  0  0  0  0  0  0  0  0  0  0
   -3.8961    2.8356   -0.0353 C   0  0  0  0  0  0  0  0  0  0  0  0
   -4.4283    1.4611    0.3667 C   0  0  0  0  0  0  0  0  0  0  0  0
   -4.9970    3.8820   -0.2293 C   0  0  0  0  0  0  0  0  0  0  0  0
   -1.0230   -2.9845    0.1350 C   0  0  0  0  0  0  0  0  0  0  0  0
    1.2200   -4.1232    0.3253 C   0  0  0  0  0  0  0  0  0  0  0  0
   -3.2968    0.4641    0.5799 C   0  0  0  0  0  0  0  0  0  0  0  0
   -4.4660    5.2512   -0.6556 C   0  0  0  0  0  0  0  0  0  0  0  0
   -1.7488   -1.8496    0.4967 C   0  0  0  0  0  0  0  0  0  0  0  0
   -3.1399   -1.9088    0.5806 C   0  0  0  0  0  0  0  0  0  0  0  0
   -1.6882   -4.1786   -0.1427 C   0  0  0  0  0  0  0  0  0  0  0  0
    1.4691   -4.9270   -0.9342 C   0  0  0  0  0  0  0  0  0  0  0  0
   -5.5889    6.2718   -0.7642 C   0  0  0  0  0  0  0  0  0  0  0  0
   -3.8051   -3.1030    0.3029 C   0  0  0  0  0  0  0  0  0  0  0  0
   -3.0793   -4.2380   -0.0587 C   0  0  0  0  0  0  0  0  0  0  0  0
  1 12  1  0
  1 14  1  0
  2 20  1  0
  2 23  1  0
  3 14  2  0
  4  6  1  0
  4  7  1  0
  4 11  1  0
  5 14  1  0
  5 18  1  0
  5 19  1  0
  6  8  1  0
  7  9  1  0
  8 10  1  0
  9 10  1  0
 11 12  1  0
 12 13  1  0
 15 16  1  0
 15 17  1  0
 16 20  1  0
 17 21  1  0
 18 22  2  0
 18 24  1  0
 19 25  1  0
 21 26  1  0
 22 23  1  0
 23 27  2  0
 24 28  2  0
 27 28  1  0
M  END
>  <PUBCHEM_COMPOUND_CID>  (1) 
40278

>  <PUBCHEM_CONFORMER_RMSD>  (1) 
1.6

>  <PUBCHEM_CONFORMER_DIVERSEORDER>  (1) 
1
47
77
83
91
37
76
22
73
32
65
2
61
10
48
31
39
24
55
5
42
74
33
59
92
41
43
82
78
27
54
63
51
19
69
9
88
25
50
89
7
29
40
95
12
20
46
8
66
36
26
81
93
60
85
3
13
45
6
34
71
72
68
79
70
87
38
75
17
64
14
35
86
4
90
28
49
62
58
67
56
52
84
30
11
80
21
53
18
44
57
16
15
23
94

>  <PUBCHEM_MMFF94_PARTIAL_CHARGES>  (1) 
22
1 -0.43
11 0.27
12 0.28
14 0.78
18 0.12
19 0.3
2 -0.36
20 0.28
22 -0.15
23 0.08
24 -0.15
27 -0.15
28 -0.15
3 -0.57
4 -0.81
5 -0.48
57 0.15
58 0.15
6 0.27
65 0.15
66 0.15
7 0.27

>  <PUBCHEM_EFFECTIVE_ROTOR_COUNT>  (1) 
14.2

>  <PUBCHEM_PHARMACOPHORE_FEATURES>  (1) 
7
1 2 acceptor
1 26 hydrophobe
1 3 acceptor
1 4 cation
4 15 16 17 21 hydrophobe
6 18 22 23 24 27 28 rings
6 4 6 7 8 9 10 rings

>  <PUBCHEM_HEAVY_ATOM_COUNT>  (1) 
28

>  <PUBCHEM_ATOM_DEF_STEREO_COUNT>  (1) 
0

>  <PUBCHEM_ATOM_UDEF_STEREO_COUNT>  (1) 
1

>  <PUBCHEM_BOND_DEF_STEREO_COUNT>  (1) 
0

>  <PUBCHEM_BOND_UDEF_STEREO_COUNT>  (1) 
0

>  <PUBCHEM_ISOTOPIC_ATOM_COUNT>  (1) 
0

>  <PUBCHEM_COMPONENT_COUNT>  (1) 
1

>  <PUBCHEM_CACTVS_TAUTO_COUNT>  (1) 
1

>  <PUBCHEM_CONFORMER_ID>  (1) 
00009D5600000001

>  <PUBCHEM_MMFF94_ENERGY>  (1) 
59.5629

>  <PUBCHEM_FEATURE_SELFOVERLAP>  (1) 
35.52

>  <PUBCHEM_SHAPE_FINGERPRINT>  (1) 
10439779 11 18193835938439986050
10670039 82 17979935018354412708
10675989 125 17907856198287940889
10864689 126 18194409879468120524
10951579 204 18120673576484249796
11059845 2 18194372607931928032
117089 54 10411063389520915357
12107183 9 18335405843482203138
12596602 18 17027671112714100298
13617811 41 17979346796649845723
13944108 23 16965493266338086717
14223995 32 18338514124004241960
14394314 77 17761500592309023489
15320467 1 18338237188455035405
15322535 138 18410291423648858561
15326921 28 18268973432162368024
15419008 145 18049989293880914360
155225 5 18194120948085779344
15961568 22 17836091443371733982
16067690 210 17899408972177919104
16988056 13 17618781358218120237
19246450 95 18266999740661130338
21049683 118 16953389976064049793
21133410 90 17618204553349173095
23559900 14 17988379126048840718
376196 1 18119530943109780595
4487111 67 18339080522284022553
5047190 47 17545028313631850653
550186 72 17905888428819064549
653340 110 18337954618145178252
6608658 132 17623009410119055422
7808743 9 17837774791985858562
9777508 108 18409728460778757172

>  <PUBCHEM_SHAPE_MULTIPOLES>  (1) 
548.66
13.51
10.37
1.03
1.06
6.42
-0.04
23.53
0.86
-10.53
-1.93
0.87
0.23
3.62

>  <PUBCHEM_SHAPE_SELFOVERLAP>  (1) 
1094.561

>  <PUBCHEM_SHAPE_VOLUME>  (1) 
322.9

>  <PUBCHEM_COORDINATE_TYPE>  (1) 
2
5
10

$$$$
