40276
     RDKit          3D

 27 28  0  0  1  0  0  0  0  0999 V2000
   -1.8658    1.1360    0.5098 O   0  0  0  0  0  0  0  0  0  0  0  0
   -1.4348   -0.7089   -0.7449 O   0  0  0  0  0  0  0  0  0  0  0  0
    4.7605   -1.4534    0.4769 O   0  0  0  0  0  0  0  0  0  0  0  0
   -5.4914    0.5376   -0.0090 N   0  0  0  0  0  0  0  0  0  0  0  0
    0.1626    0.0500    0.8109 N   0  0  0  0  0  0  0  0  0  0  0  0
   -6.5398    0.1545    0.9470 C   0  0  0  0  0  0  0  0  0  0  0  0
   -5.5285   -0.3127   -1.2071 C   0  0  0  0  0  0  0  0  0  0  0  0
   -7.9288    0.2637    0.3159 C   0  0  0  0  0  0  0  0  0  0  0  0
   -6.8843   -0.2189   -1.9085 C   0  0  0  0  0  0  0  0  0  0  0  0
   -8.0253   -0.5663   -0.9590 C   0  0  0  0  0  0  0  0  0  0  0  0
   -4.1741    0.4733    0.6232 C   0  0  0  0  0  0  0  0  0  0  0  0
   -3.1224    1.2686   -0.1541 C   0  0  0  0  0  0  0  0  0  0  0  0
   -3.4420    2.7554   -0.2429 C   0  0  0  0  0  0  0  0  0  0  0  0
   -1.0732    0.0786    0.1262 C   0  0  0  0  0  0  0  0  0  0  0  0
    1.1327   -0.9787    0.5004 C   0  0  0  0  0  0  0  0  0  0  0  0
    0.4700    1.0577    1.8366 C   0  0  0  0  0  0  0  0  0  0  0  0
    6.6178   -0.1165   -0.2437 C   0  0  0  0  0  0  0  0  0  0  0  0
    7.1356    1.2977   -0.4961 C   0  0  0  0  0  0  0  0  0  0  0  0
    5.1874   -0.1070    0.2765 C   0  0  0  0  0  0  0  0  0  0  0  0
    2.4957   -0.7170    0.6399 C   0  0  0  0  0  0  0  0  0  0  0  0
    8.5569    1.2775   -1.0580 C   0  0  0  0  0  0  0  0  0  0  0  0
    3.4303   -1.7083    0.3406 C   0  0  0  0  0  0  0  0  0  0  0  0
    0.7045   -2.2315    0.0614 C   0  0  0  0  0  0  0  0  0  0  0  0
    1.1520    2.2698    1.2366 C   0  0  0  0  0  0  0  0  0  0  0  0
    3.0019   -2.9611   -0.0983 C   0  0  0  0  0  0  0  0  0  0  0  0
    1.6390   -3.2227   -0.2379 C   0  0  0  0  0  0  0  0  0  0  0  0
    9.0635    2.6826   -1.3424 C   0  0  0  0  0  0  0  0  0  0  0  0
  1 12  1  0
  1 14  1  0
  2 14  2  0
  3 19  1  0
  3 22  1  0
  4  6  1  0
  4  7  1  0
  4 11  1  0
  5 14  1  0
  5 15  1  0
  5 16  1  0
  6  8  1  0
  7  9  1  0
  8 10  1  0
  9 10  1  0
 11 12  1  0
 12 13  1  0
 15 20  2  0
 15 23  1  0
 16 24  1  0
 17 18  1  0
 17 19  1  0
 18 21  1  0
 20 22  1  0
 21 27  1  0
 22 25  2  0
 23 26  2  0
 25 26  1  0
M  END
>  <PUBCHEM_COMPOUND_CID>  (1) 
40276

>  <PUBCHEM_CONFORMER_RMSD>  (1) 
1.4

>  <PUBCHEM_CONFORMER_DIVERSEORDER>  (1) 
1
56
35
113
31
93
83
114
6
82
72
70
59
94
95
41
74
124
24
20
21
32
39
87
120
107
48
67
4
38
77
53
5
80
85
84
117
19
97
61
103
109
3
37
110
40
65
106
45
123
25
10
112
58
57
102
26
60
7
55
16
86
115
34
68
47
52
15
125
23
43
46
96
50
92
75
101
116
98
28
14
111
78
22
27
54
8
11
79
100
33
91
36
104
30
90
64
105
89
81
99
108
12
9
44
2
121
66
49
69
42
119
122
76
13
18
63
88
29
62
71
51
118
73
17

>  <PUBCHEM_MMFF94_PARTIAL_CHARGES>  (1) 
22
1 -0.43
11 0.27
12 0.28
14 0.78
15 0.12
16 0.3
19 0.28
2 -0.57
20 -0.15
22 0.08
23 -0.15
25 -0.15
26 -0.15
3 -0.36
4 -0.81
5 -0.48
52 0.15
55 0.15
59 0.15
6 0.27
60 0.15
7 0.27

>  <PUBCHEM_EFFECTIVE_ROTOR_COUNT>  (1) 
13.2

>  <PUBCHEM_PHARMACOPHORE_FEATURES>  (1) 
6
1 2 acceptor
1 27 hydrophobe
1 3 acceptor
1 4 cation
6 15 20 22 23 25 26 rings
6 4 6 7 8 9 10 rings

>  <PUBCHEM_HEAVY_ATOM_COUNT>  (1) 
27

>  <PUBCHEM_ATOM_DEF_STEREO_COUNT>  (1) 
0

>  <PUBCHEM_ATOM_UDEF_STEREO_COUNT>  (1) 
1

>  <PUBCHEM_BOND_DEF_STEREO_COUNT>  (1) 
0

>  <PUBCHEM_BOND_UDEF_STEREO_COUNT>  (1) 
0

>  <PUBCHEM_ISOTOPIC_ATOM_COUNT>  (1) 
0

>  <PUBCHEM_COMPONENT_COUNT>  (1) 
1

>  <PUBCHEM_CACTVS_TAUTO_COUNT>  (1) 
1

>  <PUBCHEM_CONFORMER_ID>  (1) 
00009D5400000001

>  <PUBCHEM_MMFF94_ENERGY>  (1) 
58.2462

>  <PUBCHEM_FEATURE_SELFOVERLAP>  (1) 
30.446

>  <PUBCHEM_SHAPE_FINGERPRINT>  (1) 
10 15 17676488358903846570
10299344 5 17917990556027194899
10429389 143 17168139040015225757
10595046 47 18339078172978355929
10674148 151 15195567888427802910
12838862 33 18337102467581821368
13150687 139 18340217345226116006
13617811 41 18411415134035367632
14117953 113 18261966219648454580
14216079 64 9727641592538264108
1454969 45 18411980260549770039
14767858 380 18343580742119510908
15685185 35 18263365966226750820
16992787 43 18412548725505482736
17492 89 17839178502677245786
1754911 235 18412547617588335708
19319366 153 18335975377046469295
20105231 36 16272209704141561863
21049683 271 18412825802319949785
21150785 3 18272932721539992372
21521721 280 18335143072318082362
21585482 57 18262236741767210276
23389318 12 18411129252120725375
23522609 53 17916324774093582249
23559900 14 18333728044609623657
350125 39 18201149971893438417
4073 2 18334018255444806755
4325135 7 18411698768430314911
437795 160 14418142858922820849
45377200 153 16271636906108076511
5028188 123 17346596396143505661
6058803 2 17768540387140774794

>  <PUBCHEM_SHAPE_MULTIPOLES>  (1) 
528.08
25.59
2.87
1.29
8.01
0.84
0.12
-12.51
12.25
4.67
0.21
-0.66
-0.43
-2.21

>  <PUBCHEM_SHAPE_SELFOVERLAP>  (1) 
1057.131

>  <PUBCHEM_SHAPE_VOLUME>  (1) 
311.7

>  <PUBCHEM_COORDINATE_TYPE>  (1) 
2
5
10

$$$$
