40274
     RDKit          3D

  9  8  0  0  0  0  0  0  0  0999 V2000
   -0.6281    0.7146    0.0024 N   0  0  0  0  0  0  0  0  0  0  0  0
    4.2720    0.2253    0.0089 N   0  0  0  0  0  0  0  0  0  0  0  0
   -1.9140    0.0093    0.0016 C   0  0  0  0  0  0  0  0  0  0  0  0
    0.4739   -0.2325    0.0016 C   0  0  0  0  0  0  0  0  0  0  0  0
   -3.0408    1.0478   -0.0082 C   0  0  0  0  0  0  0  0  0  0  0  0
   -1.9916   -0.8626   -1.2560 C   0  0  0  0  0  0  0  0  0  0  0  0
   -2.0150   -0.8658    1.2566 C   0  0  0  0  0  0  0  0  0  0  0  0
    1.8331    0.4704    0.0064 C   0  0  0  0  0  0  0  0  0  0  0  0
    3.0103   -0.5064   -0.0133 C   0  0  0  0  0  0  0  0  0  0  0  0
  1  3  1  0
  1  4  1  0
  2  9  1  0
  3  5  1  0
  3  6  1  0
  3  7  1  0
  4  8  1  0
  8  9  1  0
M  END
>  <PUBCHEM_COMPOUND_CID>  (1) 
40274

>  <PUBCHEM_CONFORMER_RMSD>  (1) 
0.6

>  <PUBCHEM_CONFORMER_DIVERSEORDER>  (1) 
1
7
3
6
4
5
2
8

>  <PUBCHEM_MMFF94_PARTIAL_CHARGES>  (1) 
8
1 -0.9
10 0.36
2 -0.99
26 0.36
27 0.36
3 0.27
4 0.27
9 0.27

>  <PUBCHEM_EFFECTIVE_ROTOR_COUNT>  (1) 
4

>  <PUBCHEM_PHARMACOPHORE_FEATURES>  (1) 
5
1 1 cation
1 1 donor
1 2 cation
1 2 donor
4 3 5 6 7 hydrophobe

>  <PUBCHEM_HEAVY_ATOM_COUNT>  (1) 
9

>  <PUBCHEM_ATOM_DEF_STEREO_COUNT>  (1) 
0

>  <PUBCHEM_ATOM_UDEF_STEREO_COUNT>  (1) 
0

>  <PUBCHEM_BOND_DEF_STEREO_COUNT>  (1) 
0

>  <PUBCHEM_BOND_UDEF_STEREO_COUNT>  (1) 
0

>  <PUBCHEM_ISOTOPIC_ATOM_COUNT>  (1) 
0

>  <PUBCHEM_COMPONENT_COUNT>  (1) 
1

>  <PUBCHEM_CACTVS_TAUTO_COUNT>  (1) 
1

>  <PUBCHEM_CONFORMER_ID>  (1) 
00009D5200000001

>  <PUBCHEM_MMFF94_ENERGY>  (1) 
3.1079

>  <PUBCHEM_FEATURE_SELFOVERLAP>  (1) 
25.371

>  <PUBCHEM_SHAPE_FINGERPRINT>  (1) 
11062470 55 18413107243025877876
12932764 1 18131349726297248810
13024252 1 15430035461663904535
14325111 11 18410575085090385794
14577589 140 18342177752044191087
20645464 45 18040439867150488763
23235685 24 17894908503697458691
3248919 1 18040995159245689094
369184 2 17918273168848167363

>  <PUBCHEM_SHAPE_MULTIPOLES>  (1) 
175.25
6.19
1.01
0.97
6.47
0.01
0
0.52
0.01
-0.6
0
-0.74
-0.32
0.01

>  <PUBCHEM_SHAPE_SELFOVERLAP>  (1) 
313.842

>  <PUBCHEM_SHAPE_VOLUME>  (1) 
114.5

>  <PUBCHEM_COORDINATE_TYPE>  (1) 
2
5
10

$$$$
