40288
     RDKit          3D

 25 26  0  0  1  0  0  0  0  0999 V2000
   -0.9584    1.9987   -0.1930 O   0  0  0  0  0  0  0  0  0  0  0  0
    0.1097    0.0385   -0.6181 O   0  0  0  0  0  0  0  0  0  0  0  0
    3.9404   -2.1830    0.5731 O   0  0  0  0  0  0  0  0  0  0  0  0
   -4.1216    0.0950    0.1842 N   0  0  0  0  0  0  0  0  0  0  0  0
    1.3261    1.8835    0.1969 N   0  0  0  0  0  0  0  0  0  0  0  0
   -4.9583   -0.1363    1.3700 C   0  0  0  0  0  0  0  0  0  0  0  0
   -3.8501   -1.1618   -0.5277 C   0  0  0  0  0  0  0  0  0  0  0  0
   -6.2936   -0.7766    0.9870 C   0  0  0  0  0  0  0  0  0  0  0  0
   -5.1489   -1.8355   -0.9727 C   0  0  0  0  0  0  0  0  0  0  0  0
   -6.0849   -2.0699    0.2077 C   0  0  0  0  0  0  0  0  0  0  0  0
   -2.8695    0.7501    0.5613 C   0  0  0  0  0  0  0  0  0  0  0  0
   -2.1787    1.4060   -0.6368 C   0  0  0  0  0  0  0  0  0  0  0  0
   -3.0155    2.5030   -1.2827 C   0  0  0  0  0  0  0  0  0  0  0  0
    0.1628    1.2016   -0.2257 C   0  0  0  0  0  0  0  0  0  0  0  0
    1.2492    3.2819    0.6449 C   0  0  0  0  0  0  0  0  0  0  0  0
    2.6026    1.2006    0.1886 C   0  0  0  0  0  0  0  0  0  0  0  0
    2.6570   -0.1789    0.3874 C   0  0  0  0  0  0  0  0  0  0  0  0
    1.4447    4.2452   -0.5076 C   0  0  0  0  0  0  0  0  0  0  0  0
    3.7782    1.9224   -0.0180 C   0  0  0  0  0  0  0  0  0  0  0  0
    3.8870   -0.8367    0.3794 C   0  0  0  0  0  0  0  0  0  0  0  0
    5.0082    1.2647   -0.0258 C   0  0  0  0  0  0  0  0  0  0  0  0
    5.0626   -0.1149    0.1728 C   0  0  0  0  0  0  0  0  0  0  0  0
    2.8170   -2.9468    0.1370 C   0  0  0  0  0  0  0  0  0  0  0  0
    3.2892   -4.3410   -0.2459 C   0  0  0  0  0  0  0  0  0  0  0  0
    2.1449   -5.2099   -0.7361 C   0  0  0  0  0  0  0  0  0  0  0  0
  1 12  1  0
  1 14  1  0
  2 14  2  0
  3 20  1  0
  3 23  1  0
  4  6  1  0
  4  7  1  0
  4 11  1  0
  5 14  1  0
  5 15  1  0
  5 16  1  0
  6  8  1  0
  7  9  1  0
  8 10  1  0
  9 10  1  0
 11 12  1  0
 12 13  1  0
 15 18  1  0
 16 17  2  0
 16 19  1  0
 17 20  1  0
 19 21  2  0
 20 22  2  0
 21 22  1  0
 23 24  1  0
 24 25  1  0
M  END
>  <PUBCHEM_COMPOUND_CID>  (1) 
40288

>  <PUBCHEM_CONFORMER_RMSD>  (1) 
1.2

>  <PUBCHEM_CONFORMER_DIVERSEORDER>  (1) 
1
9
69
99
33
35
7
61
22
100
59
113
41
20
60
55
102
19
71
89
3
66
23
91
14
25
74
43
42
109
36
27
13
45
49
116
16
103
47
112
32
83
6
82
106
48
64
40
105
56
34
28
63
51
8
54
96
29
65
114
11
2
38
31
78
94
4
52
92
73
115
70
81
53
58
90
79
68
120
108
88
72
67
80
26
30
101
57
39
77
44
18
107
117
86
12
84
119
15
87
50
76
93
62
95
24
46
85
75
17
104
5
110
97
118
111
98
10
37
21

>  <PUBCHEM_MMFF94_PARTIAL_CHARGES>  (1) 
22
1 -0.43
11 0.27
12 0.28
14 0.78
15 0.3
16 0.12
17 -0.15
19 -0.15
2 -0.57
20 0.08
21 -0.15
22 -0.15
23 0.28
3 -0.36
4 -0.81
44 0.15
45 0.15
49 0.15
5 -0.48
50 0.15
6 0.27
7 0.27

>  <PUBCHEM_EFFECTIVE_ROTOR_COUNT>  (1) 
11.2

>  <PUBCHEM_PHARMACOPHORE_FEATURES>  (1) 
6
1 2 acceptor
1 25 hydrophobe
1 3 acceptor
1 4 cation
6 16 17 19 20 21 22 rings
6 4 6 7 8 9 10 rings

>  <PUBCHEM_HEAVY_ATOM_COUNT>  (1) 
25

>  <PUBCHEM_ATOM_DEF_STEREO_COUNT>  (1) 
0

>  <PUBCHEM_ATOM_UDEF_STEREO_COUNT>  (1) 
1

>  <PUBCHEM_BOND_DEF_STEREO_COUNT>  (1) 
0

>  <PUBCHEM_BOND_UDEF_STEREO_COUNT>  (1) 
0

>  <PUBCHEM_ISOTOPIC_ATOM_COUNT>  (1) 
0

>  <PUBCHEM_COMPONENT_COUNT>  (1) 
1

>  <PUBCHEM_CACTVS_TAUTO_COUNT>  (1) 
1

>  <PUBCHEM_CONFORMER_ID>  (1) 
00009D6000000001

>  <PUBCHEM_MMFF94_ENERGY>  (1) 
58.5164

>  <PUBCHEM_FEATURE_SELFOVERLAP>  (1) 
30.446

>  <PUBCHEM_SHAPE_FINGERPRINT>  (1) 
108634 29 17894922819077190810
11963148 33 18191298283348386090
12107183 9 18054803793078528417
12596602 18 17274825800030072530
12623949 98 18336840740041603815
13150687 139 17898313803986140340
13402501 40 18186804724678482683
13533116 47 18197217164761271505
1361 2 18411702118563341378
13785724 45 18055367837599795591
13911852 28 18338796706649796947
14863182 85 18408890655152363908
15250474 111 18199743812253865711
15927050 60 17618227647367671884
17492 89 18266176119993793234
17857418 61 18411134775269170017
19301676 85 17473254380676650063
20028762 73 18199748214009924703
21197605 99 18337394953852736298
21267235 1 18411705387734716044
23379529 103 17909267984086744614
23522609 53 18121533312392672097
23559900 14 17971189468143567769
23845131 108 17405416084562662657
25222932 49 18341891900770372742
3117164 225 17911530796206769593
314194 84 18410857689443093929
3246872 21 18125993000005240607
3737641 26 18341618053581661150
46194498 28 17531524398921977132
50080093 196 18340752832515990671
5104073 3 18340197505991551552
5309563 4 18339644426062522414
6433294 58 18410291406548195090
86090 222 17531826709196653651

>  <PUBCHEM_SHAPE_MULTIPOLES>  (1) 
486.92
13.77
5.66
0.97
16.14
5.07
0
7.41
2.3
-6.52
-1.46
1.01
-0.05
0.47

>  <PUBCHEM_SHAPE_SELFOVERLAP>  (1) 
981.328

>  <PUBCHEM_SHAPE_VOLUME>  (1) 
285.5

>  <PUBCHEM_COORDINATE_TYPE>  (1) 
2
5
10

$$$$
