40290
     RDKit          3D

 26 27  0  0  1  0  0  0  0  0999 V2000
   -1.2721    2.2517   -0.8677 O   0  0  0  0  0  0  0  0  0  0  0  0
    0.0007    0.3817   -1.0847 O   0  0  0  0  0  0  0  0  0  0  0  0
    3.6072   -1.5812    0.8385 O   0  0  0  0  0  0  0  0  0  0  0  0
   -3.8719   -0.0737    0.3995 N   0  0  0  0  0  0  0  0  0  0  0  0
    0.8848    2.2836   -0.0126 N   0  0  0  0  0  0  0  0  0  0  0  0
   -3.8531   -1.0368   -0.7104 C   0  0  0  0  0  0  0  0  0  0  0  0
   -4.0221   -0.7561    1.6925 C   0  0  0  0  0  0  0  0  0  0  0  0
   -5.1385   -1.8651   -0.7438 C   0  0  0  0  0  0  0  0  0  0  0  0
   -5.3131   -1.5751    1.7376 C   0  0  0  0  0  0  0  0  0  0  0  0
   -5.3779   -2.5715    0.5858 C   0  0  0  0  0  0  0  0  0  0  0  0
   -2.6579    0.7420    0.3895 C   0  0  0  0  0  0  0  0  0  0  0  0
   -2.4860    1.5032   -0.9272 C   0  0  0  0  0  0  0  0  0  0  0  0
   -3.6188    2.4836   -1.2034 C   0  0  0  0  0  0  0  0  0  0  0  0
   -0.1133    1.5348   -0.6759 C   0  0  0  0  0  0  0  0  0  0  0  0
    0.6153    3.6608    0.4263 C   0  0  0  0  0  0  0  0  0  0  0  0
    2.1817    1.6905    0.2367 C   0  0  0  0  0  0  0  0  0  0  0  0
    2.2474    0.3345    0.4158 C   0  0  0  0  0  0  0  0  0  0  0  0
    3.2719    2.5183    0.2787 C   0  0  0  0  0  0  0  0  0  0  0  0
    0.9739    4.6659   -0.6487 C   0  0  0  0  0  0  0  0  0  0  0  0
    3.4972   -0.2368    0.6550 C   0  0  0  0  0  0  0  0  0  0  0  0
    3.2980   -3.7559   -0.1260 C   0  0  0  0  0  0  0  0  0  0  0  0
    2.6563   -2.4077    0.1691 C   0  0  0  0  0  0  0  0  0  0  0  0
    4.5217    1.9470    0.5179 C   0  0  0  0  0  0  0  0  0  0  0  0
    2.3378   -4.6886   -0.8587 C   0  0  0  0  0  0  0  0  0  0  0  0
    4.6343    0.5694    0.7060 C   0  0  0  0  0  0  0  0  0  0  0  0
    2.9964   -6.0184   -1.1896 C   0  0  0  0  0  0  0  0  0  0  0  0
  1 12  1  0
  1 14  1  0
  2 14  2  0
  3 20  1  0
  3 22  1  0
  4  6  1  0
  4  7  1  0
  4 11  1  0
  5 14  1  0
  5 15  1  0
  5 16  1  0
  6  8  1  0
  7  9  1  0
  8 10  1  0
  9 10  1  0
 11 12  1  0
 12 13  1  0
 15 19  1  0
 16 17  2  0
 16 18  1  0
 17 20  1  0
 18 23  2  0
 20 25  2  0
 21 22  1  0
 21 24  1  0
 23 25  1  0
 24 26  1  0
M  END
>  <PUBCHEM_COMPOUND_CID>  (1) 
40290

>  <PUBCHEM_CONFORMER_RMSD>  (1) 
1.2

>  <PUBCHEM_CONFORMER_DIVERSEORDER>  (1) 
1
57
14
46
13
73
86
64
97
96
147
135
101
28
56
6
162
82
137
71
30
22
34
87
173
90
134
136
160
100
144
106
174
148
40
121
169
85
119
115
54
172
141
29
167
171
94
91
112
7
25
105
175
74
26
36
12
8
159
41
150
27
83
67
16
132
70
131
126
153
20
128
130
79
75
114
66
158
154
138
122
15
61
52
163
92
170
32
78
124
21
39
168
42
31
123
37
88
117
50
143
4
125
33
19
11
116
53
35
152
157
164
72
80
145
140
24
10
95
17
93
60
81
161
68
9
98
38
47
151
43
18
156
149
58
44
89
155
113
49
102
2
63
127
107
120
84
146
111
69
55
109
177
59
139
23
65
3
176
48
5
129
166
104
51
77
165
178
110
99
76
142
133
62
103
45
118
108

>  <PUBCHEM_MMFF94_PARTIAL_CHARGES>  (1) 
22
1 -0.43
11 0.27
12 0.28
14 0.78
15 0.3
16 0.12
17 -0.15
18 -0.15
2 -0.57
20 0.08
22 0.28
23 -0.15
25 -0.15
3 -0.36
4 -0.81
45 0.15
46 0.15
5 -0.48
56 0.15
57 0.15
6 0.27
7 0.27

>  <PUBCHEM_EFFECTIVE_ROTOR_COUNT>  (1) 
12.2

>  <PUBCHEM_PHARMACOPHORE_FEATURES>  (1) 
6
1 2 acceptor
1 26 hydrophobe
1 3 acceptor
1 4 cation
6 16 17 18 20 23 25 rings
6 4 6 7 8 9 10 rings

>  <PUBCHEM_HEAVY_ATOM_COUNT>  (1) 
26

>  <PUBCHEM_ATOM_DEF_STEREO_COUNT>  (1) 
0

>  <PUBCHEM_ATOM_UDEF_STEREO_COUNT>  (1) 
1

>  <PUBCHEM_BOND_DEF_STEREO_COUNT>  (1) 
0

>  <PUBCHEM_BOND_UDEF_STEREO_COUNT>  (1) 
0

>  <PUBCHEM_ISOTOPIC_ATOM_COUNT>  (1) 
0

>  <PUBCHEM_COMPONENT_COUNT>  (1) 
1

>  <PUBCHEM_CACTVS_TAUTO_COUNT>  (1) 
1

>  <PUBCHEM_CONFORMER_ID>  (1) 
00009D6200000001

>  <PUBCHEM_MMFF94_ENERGY>  (1) 
66.3526

>  <PUBCHEM_FEATURE_SELFOVERLAP>  (1) 
30.446

>  <PUBCHEM_SHAPE_FINGERPRINT>  (1) 
108634 29 17749113330705986834
11285246 1 17110119782939714780
12107183 9 17912377424581556337
12596602 18 17274266182992540857
13402501 40 17968656150271019947
14863182 85 18337116769315930492
17909252 39 18338808801668287682
20028762 73 18127410283156357839
20775530 9 18336270028860830019
21197605 99 17830461935369640043
21365058 27 18197229242240755046
221490 88 18337106740503990594
23379529 103 18051976909643811354
23466295 7 17619360809715714586
23559900 14 18122051019053952572
3117164 225 18126579916244691801
3737641 26 18342184319371095766
5104073 3 18336253604943249120
5309563 4 18410290294261870098
54324442 115 17116637640788488839
57307002 29 17109331394774375870
9709674 26 18050837824197718300

>  <PUBCHEM_SHAPE_MULTIPOLES>  (1) 
507.5
11.62
7.16
1.27
11.43
8
0.16
7.52
3.26
-8.28
-3.04
1.2
0.37
2.58

>  <PUBCHEM_SHAPE_SELFOVERLAP>  (1) 
1023.637

>  <PUBCHEM_SHAPE_VOLUME>  (1) 
297.3

>  <PUBCHEM_COORDINATE_TYPE>  (1) 
2
5
10

$$$$
