40303
     RDKit          3D

 19 19  0  0  1  0  0  0  0  0999 V2000
   -3.4099    1.6290   -1.5790 O   0  0  0  0  0  0  0  0  0  0  0  0
   -1.9605   -0.5722   -1.4210 O   0  0  0  0  0  0  0  0  0  0  0  0
    2.8552   -1.6264   -1.1691 O   0  0  0  0  0  0  0  0  0  0  0  0
    5.5901    1.3708   -0.1738 O   0  0  0  0  0  0  0  0  0  0  0  0
   -0.9172   -1.9142    0.9360 C   0  0  0  0  0  0  0  0  0  0  0  0
   -1.7127   -0.5981    0.9883 C   0  0  0  0  0  0  0  0  0  0  0  0
    0.3801   -1.8565    0.0992 C   0  0  0  0  0  0  0  0  0  0  0  0
   -3.0802    1.2153   -0.2617 C   0  0  0  0  0  0  0  0  0  0  0  0
   -4.3642    1.0111    0.5647 C   0  0  0  0  0  0  0  0  0  0  0  0
   -2.2358   -0.0567   -0.3385 C   0  0  0  0  0  0  0  0  0  0  0  0
   -1.7880   -3.0918    0.4835 C   0  0  0  0  0  0  0  0  0  0  0  0
    1.3703   -0.7587    0.4973 C   0  0  0  0  0  0  0  0  0  0  0  0
   -5.1524    2.3216    0.6591 C   0  0  0  0  0  0  0  0  0  0  0  0
   -5.2707   -0.0816   -0.0129 C   0  0  0  0  0  0  0  0  0  0  0  0
    2.6653   -0.7666   -0.3082 C   0  0  0  0  0  0  0  0  0  0  0  0
    3.6921    0.2499   -0.0214 C   0  0  0  0  0  0  0  0  0  0  0  0
    3.6353    1.2621    0.9300 C   0  0  0  0  0  0  0  0  0  0  0  0
    4.8735    0.3307   -0.6750 C   0  0  0  0  0  0  0  0  0  0  0  0
    4.8296    1.9323    0.8024 C   0  0  0  0  0  0  0  0  0  0  0  0
  1  8  1  0
  2 10  2  0
  3 15  2  0
  4 18  1  0
  4 19  1  0
  5  6  1  0
  5  7  1  0
  5 11  1  0
  6 10  1  0
  7 12  1  0
  8  9  1  0
  8 10  1  0
  9 13  1  0
  9 14  1  0
 12 15  1  0
 15 16  1  0
 16 17  1  0
 16 18  2  0
 17 19  2  0
M  END
>  <PUBCHEM_COMPOUND_CID>  (1) 
40303

>  <PUBCHEM_CONFORMER_RMSD>  (1) 
1.2

>  <PUBCHEM_CONFORMER_DIVERSEORDER>  (1) 
1
142
18
167
27
67
124
168
139
14
136
29
16
44
160
86
90
87
149
180
171
156
32
97
8
57
146
127
10
94
42
120
128
11
51
145
46
176
55
43
60
110
35
138
31
121
143
21
188
182
131
72
154
135
148
153
58
105
155
150
172
20
166
73
19
50
119
104
133
33
24
36
144
17
178
184
183
158
22
30
34
179
5
169
56
9
4
12
48
117
163
147
49
106
130
93
141
76
2
54
91
161
69
99
114
28
107
68
151
129
165
122
187
137
41
100
115
13
177
164
23
92
134
175
123
85
185
113
132
170
88
84
65
25
181
74
75
45
112
125
89
70
3
81
63
61
80
38
98
103
152
95
47
40
186
174
78
159
77
52
111
79
102
108
26
96
59
7
82
162
64
101
116
66
62
157
15
109
140
37
83
173
39
126
6
71
53
118

>  <PUBCHEM_MMFF94_PARTIAL_CHARGES>  (1) 
17
1 -0.68
10 0.45
12 0.06
15 0.6
16 -0.09
17 -0.15
18 -0.01
19 -0.01
2 -0.57
3 -0.57
38 0.4
39 0.15
4 -0.28
40 0.15
41 0.15
6 0.06
8 0.34

>  <PUBCHEM_EFFECTIVE_ROTOR_COUNT>  (1) 
8

>  <PUBCHEM_PHARMACOPHORE_FEATURES>  (1) 
9
1 1 acceptor
1 1 donor
1 11 hydrophobe
1 2 acceptor
1 3 acceptor
1 4 acceptor
3 9 13 14 hydrophobe
4 5 6 7 12 hydrophobe
5 4 16 17 18 19 rings

>  <PUBCHEM_HEAVY_ATOM_COUNT>  (1) 
19

>  <PUBCHEM_ATOM_DEF_STEREO_COUNT>  (1) 
0

>  <PUBCHEM_ATOM_UDEF_STEREO_COUNT>  (1) 
2

>  <PUBCHEM_BOND_DEF_STEREO_COUNT>  (1) 
0

>  <PUBCHEM_BOND_UDEF_STEREO_COUNT>  (1) 
0

>  <PUBCHEM_ISOTOPIC_ATOM_COUNT>  (1) 
0

>  <PUBCHEM_COMPONENT_COUNT>  (1) 
1

>  <PUBCHEM_CACTVS_TAUTO_COUNT>  (1) 
10

>  <PUBCHEM_CONFORMER_ID>  (1) 
00009D6F00000001

>  <PUBCHEM_MMFF94_ENERGY>  (1) 
21.8245

>  <PUBCHEM_FEATURE_SELFOVERLAP>  (1) 
45.713

>  <PUBCHEM_SHAPE_FINGERPRINT>  (1) 
10493431 412 18335424560611931705
11405975 8 18333446548074070274
12363563 72 10519697929656253219
12390115 104 18340219522293934635
12403259 118 16370725898829930285
12403259 415 17969223339330658469
12633257 1 17968641822613827216
12730499 353 18343029886467447706
12760667 363 10159702395389891021
12788726 201 16056327115592745393
12892183 10 16009023930574307393
13402501 40 18411135848768972624
13955234 65 17973730169201450899
1420 369 8718824297221512600
14251764 30 12895063068296263965
14251764 38 18124025995404449056
1741750 31 18408319990710185482
17834072 32 18409450327671471144
17959699 21 18201439155592692576
1798214 55 18333730200039562628
20374829 77 10592044643897353393
20621476 91 17095825290676647257
20645477 56 18335707156090050386
20645477 70 17632588119582199350
20871999 31 17417518220328981743
21401589 2 18334574659282045193
22079108 93 18409451380128167875
22182937 141 18410577326825931315
22224240 67 18334585621024813979
23227448 37 18338799026010978781
23402655 69 17989205949853989324
23500284 214 18334296474118446626
23557571 272 18266470969356271222
23559900 14 18271806766601168850
2838139 119 18272365373856837416
2916195 48 18411980265024390745
3014063 24 11530774733926478665
314173 85 10087640420358850607
4028521 119 18343584044785915808
5104073 3 18187367601548972995
59682541 35 18188782755509303627
5969126 39 18053377983910990679
59755656 520 18260546723222511394
633830 44 18199748034174627391
7808743 9 18261674865334040408

>  <PUBCHEM_SHAPE_MULTIPOLES>  (1) 
367.53
12.75
2.67
1.13
3.93
0.92
0.19
-9.96
0
-1.28
-0.5
-0.2
-0.07
0.87

>  <PUBCHEM_SHAPE_SELFOVERLAP>  (1) 
737.177

>  <PUBCHEM_SHAPE_VOLUME>  (1) 
217.8

>  <PUBCHEM_COORDINATE_TYPE>  (1) 
2
5
10

$$$$
