4031
     RDKit          3D

 31 32  0  0  1  0  0  0  0  0999 V2000
    3.0817   -1.9867   -0.4038 O   0  0  0  0  0  0  0  0  0  0  0  0
   -9.1641    1.0329   -0.5507 O   0  0  0  0  0  0  0  0  0  0  0  0
    4.9465   -3.2435    0.0879 O   0  0  0  0  0  0  0  0  0  0  0  0
    4.5192    2.6600    0.4814 O   0  0  0  0  0  0  0  0  0  0  0  0
    7.1912    2.7246   -0.2810 O   0  0  0  0  0  0  0  0  0  0  0  0
   -1.6987   -0.5118    1.0126 N   0  0  0  0  0  0  0  0  0  0  0  0
   -3.1585   -0.5856    1.0943 C   0  0  0  0  0  0  0  0  0  0  0  0
   -1.1906   -1.4633    0.0312 C   0  0  0  0  0  0  0  0  0  0  0  0
   -3.7525   -0.6127   -0.3258 C   0  0  0  0  0  0  0  0  0  0  0  0
    0.2720   -1.7951    0.3214 C   0  0  0  0  0  0  0  0  0  0  0  0
   -1.2772    0.8493    0.6769 C   0  0  0  0  0  0  0  0  0  0  0  0
   -3.5326   -1.8237    1.9093 C   0  0  0  0  0  0  0  0  0  0  0  0
    0.8272   -2.7847   -0.7016 C   0  0  0  0  0  0  0  0  0  0  0  0
   -5.1959   -0.1737   -0.3860 C   0  0  0  0  0  0  0  0  0  0  0  0
   -1.7998    1.8519    1.6918 C   0  0  0  0  0  0  0  0  0  0  0  0
    2.2729   -3.1554   -0.3977 C   0  0  0  0  0  0  0  0  0  0  0  0
   -6.2172   -1.1131   -0.2435 C   0  0  0  0  0  0  0  0  0  0  0  0
   -5.5082    1.1713   -0.5838 C   0  0  0  0  0  0  0  0  0  0  0  0
   -7.5506   -0.7074   -0.2987 C   0  0  0  0  0  0  0  0  0  0  0  0
   -6.8416    1.5770   -0.6393 C   0  0  0  0  0  0  0  0  0  0  0  0
   -7.8629    0.6376   -0.4968 C   0  0  0  0  0  0  0  0  0  0  0  0
    4.4055   -2.1738   -0.1450 C   0  0  0  0  0  0  0  0  0  0  0  0
    5.1364   -0.8819   -0.1792 C   0  0  0  0  0  0  0  0  0  0  0  0
    4.4823    0.2994    0.1707 C   0  0  0  0  0  0  0  0  0  0  0  0
    6.4772   -0.8493   -0.5624 C   0  0  0  0  0  0  0  0  0  0  0  0
   -9.4125    2.4229   -0.7557 C   0  0  0  0  0  0  0  0  0  0  0  0
    5.1689    1.5131    0.1377 C   0  0  0  0  0  0  0  0  0  0  0  0
    7.1638    0.3645   -0.5959 C   0  0  0  0  0  0  0  0  0  0  0  0
    6.5097    1.5456   -0.2457 C   0  0  0  0  0  0  0  0  0  0  0  0
    3.1497    2.5402    0.8612 C   0  0  0  0  0  0  0  0  0  0  0  0
    8.5584    2.6713   -0.6838 C   0  0  0  0  0  0  0  0  0  0  0  0
  1 16  1  0
  1 22  1  0
  2 21  1  0
  2 26  1  0
  3 22  2  0
  4 27  1  0
  4 30  1  0
  5 29  1  0
  5 31  1  0
  6  7  1  0
  6  8  1  0
  6 11  1  0
  7  9  1  0
  7 12  1  0
  8 10  1  0
  9 14  1  0
 10 13  1  0
 11 15  1  0
 13 16  1  0
 14 17  2  0
 14 18  1  0
 17 19  1  0
 18 20  2  0
 19 21  2  0
 20 21  1  0
 22 23  1  0
 23 24  2  0
 23 25  1  0
 24 27  1  0
 25 28  2  0
 27 29  2  0
 28 29  1  0
M  END
>  <PUBCHEM_COMPOUND_CID>  (1) 
4031

>  <PUBCHEM_CONFORMER_RMSD>  (1) 
1.2

>  <PUBCHEM_CONFORMER_DIVERSEORDER>  (1) 
2
218
153
62
211
101
214
172
93
3
185
131
133
202
144
31
124
96
221
87
130
146
191
58
148
42
59
105
182
36
137
129
164
141
203
132
28
24
156
72
190
108
195
73
167
17
34
68
21
171
114
66
65
205
206
201
55
103
80
142
23
163
64
60
155
79
160
165
94
145
151
63
150
74
69
135
219
26
89
208
121
179
147
152
99
40
27
106
199
86
175
149
220
134
166
127
81
118
115
25
70
212
178
54
11
100
186
169
183
41
180
90
200
18
210
217
193
102
192
61
30
197
110
97
138
75
120
51
176
184
92
44
187
122
116
196
76
177
22
13
85
91
216
170
45
143
95
12
48
46
37
71
111
119
53
140
47
98
82
88
35
20
83
50
29
215
158
112
181
109
139
128
162
52
77
174
159
157
209
168
207
39
33
78
117
154
38
188
198
104
161
6
67
123
8
5
56
107
126
194
173
15
84
136
16
189
32
57
113
4
7
125
14
1
19
49
43
10
9
204
213

>  <PUBCHEM_MMFF94_PARTIAL_CHARGES>  (1) 
34
1 -0.43
11 0.27
14 -0.14
16 0.28
17 -0.15
18 -0.15
19 -0.15
2 -0.36
20 -0.15
21 0.08
22 0.63
23 0.09
24 -0.15
25 -0.15
26 0.28
27 0.08
28 -0.15
29 0.08
3 -0.57
30 0.28
31 0.28
4 -0.36
5 -0.36
51 0.15
52 0.15
53 0.15
54 0.15
55 0.15
56 0.15
6 -0.81
60 0.15
7 0.27
8 0.27
9 0.14

>  <PUBCHEM_EFFECTIVE_ROTOR_COUNT>  (1) 
14

>  <PUBCHEM_PHARMACOPHORE_FEATURES>  (1) 
7
1 2 acceptor
1 3 acceptor
1 4 acceptor
1 5 acceptor
1 6 cation
6 14 17 18 19 20 21 rings
6 23 24 25 27 28 29 rings

>  <PUBCHEM_HEAVY_ATOM_COUNT>  (1) 
31

>  <PUBCHEM_ATOM_DEF_STEREO_COUNT>  (1) 
0

>  <PUBCHEM_ATOM_UDEF_STEREO_COUNT>  (1) 
1

>  <PUBCHEM_BOND_DEF_STEREO_COUNT>  (1) 
0

>  <PUBCHEM_BOND_UDEF_STEREO_COUNT>  (1) 
0

>  <PUBCHEM_ISOTOPIC_ATOM_COUNT>  (1) 
0

>  <PUBCHEM_COMPONENT_COUNT>  (1) 
1

>  <PUBCHEM_CACTVS_TAUTO_COUNT>  (1) 
1

>  <PUBCHEM_CONFORMER_ID>  (1) 
00000FBF00000002

>  <PUBCHEM_MMFF94_ENERGY>  (1) 
103.363

>  <PUBCHEM_FEATURE_SELFOVERLAP>  (1) 
35.527

>  <PUBCHEM_SHAPE_FINGERPRINT>  (1) 
10835480 77 18408605855581172931
11135609 187 18412542145420075360
11211813 74 18336823092595932517
11828532 37 12175328262285301340
11991303 11 17489296525687231279
12522641 126 15841000948842791966
12838862 33 18272644697788266704
13617811 41 18272081712905661584
13947947 74 18201724007105145464
14142895 15 18412260654097159831
14556957 393 17203615852744062201
14931854 50 18131362925264856656
150020 25 18409172091095132359
15082195 135 18201154334799710571
15183329 4 18342175561890796065
15276724 80 18267303132661117053
15320295 198 18336552697806611860
15350500 55 18260548965690604190
15890870 6 18411139165247921118
16087824 20 18410012161788405684
16994733 274 17603584076651844293
17899979 19 18411706512346423001
20157964 124 18411983533779703350
2026 5 10807946945956182156
20554085 129 16877661245195961115
21033648 29 17603870022346910962
23522609 53 17416985932442499179
23528521 120 18261101973659860189
23845131 108 18261677073444012578
3633792 109 18411984650043562233
3918712 181 18199743808412702968
4073 2 18186804720204628411
4098825 35 18410289178229782077
4169191 19 18342183254519646801
4561138 5 18116425947541787090
99344 41 18409447015808587437

>  <PUBCHEM_SHAPE_MULTIPOLES>  (1) 
603.64
29.52
3.65
1.09
20.88
0.39
0.42
-20.85
-9.85
-5.39
-0.11
0.88
-0.07
1.3

>  <PUBCHEM_SHAPE_SELFOVERLAP>  (1) 
1240.581

>  <PUBCHEM_SHAPE_VOLUME>  (1) 
349.6

>  <PUBCHEM_COORDINATE_TYPE>  (1) 
2
5
10

$$$$
