40318
     RDKit          3D

 20 20  0  0  1  0  0  0  0  0999 V2000
   -5.2271   -2.1204   -1.6916 Cl  0  0  0  0  0  0  0  0  0  0  0  0
   -0.2638    3.4922    0.3619 O   0  0  0  0  0  0  0  0  0  0  0  0
    1.7076    3.6763   -0.7292 O   0  0  0  0  0  0  0  0  0  0  0  0
   -1.4084    0.8245   -1.5675 O   0  0  0  0  0  0  0  0  0  0  0  0
   -3.3785   -0.7078    2.2983 O   0  0  0  0  0  0  0  0  0  0  0  0
   -0.2511    0.8793    0.4183 N   0  0  0  0  0  0  0  0  0  0  0  0
   -2.4594    0.0394    0.3430 N   0  0  0  0  0  0  0  0  0  0  0  0
   -2.3565   -0.2151    1.8088 N   0  0  0  0  0  0  0  0  0  0  0  0
    0.9453    1.4540   -0.1535 C   0  0  0  0  0  0  0  0  0  0  0  0
    2.1963    1.0352    0.6298 C   0  0  0  0  0  0  0  0  0  0  0  0
    2.6531   -0.3665    0.3044 C   0  0  0  0  0  0  0  0  0  0  0  0
    0.8498    2.9717   -0.2072 C   0  0  0  0  0  0  0  0  0  0  0  0
    2.1592   -1.4302    1.0427 C   0  0  0  0  0  0  0  0  0  0  0  0
    3.5577   -0.5640   -0.7267 C   0  0  0  0  0  0  0  0  0  0  0  0
   -1.3760    0.5974   -0.3537 C   0  0  0  0  0  0  0  0  0  0  0  0
   -3.7009   -0.3081   -0.3369 C   0  0  0  0  0  0  0  0  0  0  0  0
    2.5811   -2.7254    0.7422 C   0  0  0  0  0  0  0  0  0  0  0  0
    3.9795   -1.8592   -1.0273 C   0  0  0  0  0  0  0  0  0  0  0  0
    3.4910   -2.9398   -0.2928 C   0  0  0  0  0  0  0  0  0  0  0  0
   -3.6988   -1.7335   -0.8631 C   0  0  0  0  0  0  0  0  0  0  0  0
  1 20  1  0
  2 12  1  0
  3 12  2  0
  4 15  2  0
  5  8  2  0
  6  9  1  0
  6 15  1  0
  7  8  1  0
  7 15  1  0
  7 16  1  0
  9 10  1  0
  9 12  1  0
 10 11  1  0
 11 13  2  0
 11 14  1  0
 13 17  1  0
 14 18  2  0
 16 20  1  0
 17 19  2  0
 18 19  1  0
M  END
>  <PUBCHEM_COMPOUND_CID>  (1) 
40318

>  <PUBCHEM_CONFORMER_RMSD>  (1) 
0.8

>  <PUBCHEM_CONFORMER_DIVERSEORDER>  (1) 
1
203
83
141
29
133
46
28
211
38
116
113
154
30
155
180
14
172
88
103
114
212
15
229
119
181
53
225
199
159
221
194
5
67
75
189
110
169
196
174
175
37
58
61
242
11
179
129
124
215
99
134
39
126
198
230
239
244
112
237
191
235
223
78
143
160
243
79
32
16
168
56
219
42
6
170
120
51
102
24
217
165
85
22
167
18
98
27
178
241
204
4
33
166
64
68
17
162
140
182
13
238
234
148
31
171
81
245
213
222
137
128
26
89
60
176
80
76
145
35
55
34
90
173
240
224
115
208
71
93
123
195
158
86
185
125
23
45
150
177
44
105
40
152
187
130
8
153
108
109
3
132
207
107
82
236
70
101
214
147
142
25
117
92
228
183
48
186
121
54
188
57
144
62
227
69
66
200
193
9
231
7
157
73
161
163
2
72
202
21
197
84
106
111
95
201
206
74
131
87
36
100
10
94
156
63
97
47
192
164
209
122
19
151
59
210
146
91
49
104
205
233
149
218
190
50
216
135
118
12
52
138
65
77
96
184
41
20
226
43
136
127
220
232
139

>  <PUBCHEM_MMFF94_PARTIAL_CHARGES>  (1) 
27
1 -0.29
10 0.14
11 -0.14
12 0.66
13 -0.15
14 -0.15
15 0.69
16 0.3
17 -0.15
18 -0.15
19 -0.15
2 -0.65
20 0.29
24 0.37
25 0.15
26 0.15
29 0.15
3 -0.57
30 0.15
31 0.15
34 0.5
4 -0.57
5 -0.16
6 -0.73
7 -0.18
8 -0.02
9 0.36

>  <PUBCHEM_EFFECTIVE_ROTOR_COUNT>  (1) 
9

>  <PUBCHEM_PHARMACOPHORE_FEATURES>  (1) 
6
1 2 acceptor
1 3 acceptor
1 4 acceptor
1 6 donor
3 2 3 12 anion
6 11 13 14 17 18 19 rings

>  <PUBCHEM_HEAVY_ATOM_COUNT>  (1) 
20

>  <PUBCHEM_ATOM_DEF_STEREO_COUNT>  (1) 
0

>  <PUBCHEM_ATOM_UDEF_STEREO_COUNT>  (1) 
1

>  <PUBCHEM_BOND_DEF_STEREO_COUNT>  (1) 
0

>  <PUBCHEM_BOND_UDEF_STEREO_COUNT>  (1) 
0

>  <PUBCHEM_ISOTOPIC_ATOM_COUNT>  (1) 
0

>  <PUBCHEM_COMPONENT_COUNT>  (1) 
1

>  <PUBCHEM_CACTVS_TAUTO_COUNT>  (1) 
2

>  <PUBCHEM_CONFORMER_ID>  (1) 
00009D7E00000001

>  <PUBCHEM_MMFF94_ENERGY>  (1) 
41.4343

>  <PUBCHEM_FEATURE_SELFOVERLAP>  (1) 
30.508

>  <PUBCHEM_SHAPE_FINGERPRINT>  (1) 
11578080 2 17773855563277467696
12363563 72 18336819784743120614
12553582 1 18336554828189609642
12596599 1 17917717846535812675
12788726 201 17829607253946321928
13533116 47 18197494237591812519
15422964 175 18339907256422476108
15842332 3 17915761936157235889
17818456 19 17988370265435935161
19784866 34 8070026670737279567
20291156 8 18341610374037639718
20388580 30 18342170107165947527
20645477 70 18190170385858575191
2255824 54 18266175226376689244
23379529 103 17984991397284395014
23503958 8 17275108292967487331
23526113 38 18040988540368887353
23598288 3 17903086538114768822
23598291 2 18129114457791872593
238 59 18116708723666493883
314173 41 18410011030956167591
59682541 52 18193531559120332263
6025842 7 18049430732771269053
81228 2 17976241453527299128
960060 61 18187362125502535007

>  <PUBCHEM_SHAPE_MULTIPOLES>  (1) 
375.04
8.55
3.99
1.49
7.6
2.66
-0.53
-9.03
2.39
-2.5
0.86
1.38
-0.5
-0.94

>  <PUBCHEM_SHAPE_SELFOVERLAP>  (1) 
749.474

>  <PUBCHEM_SHAPE_VOLUME>  (1) 
220

>  <PUBCHEM_COORDINATE_TYPE>  (1) 
2
5
10

$$$$
