40313
     RDKit          3D

 15 14  0  0  0  0  0  0  0  0999 V2000
    5.1737   -1.1766   -0.4595 Cl  0  0  0  0  0  0  0  0  0  0  0  0
   -2.8391    1.7342   -0.3574 O   0  0  0  0  0  0  0  0  0  0  0  0
   -4.4059    0.0991   -0.3261 O   0  0  0  0  0  0  0  0  0  0  0  0
    0.4615   -1.6621    0.4511 O   0  0  0  0  0  0  0  0  0  0  0  0
    2.4276    2.4871    0.1482 O   0  0  0  0  0  0  0  0  0  0  0  0
   -0.8263    0.2033    0.0688 N   0  0  0  0  0  0  0  0  0  0  0  0
    1.5142    0.3978    0.3115 N   0  0  0  0  0  0  0  0  0  0  0  0
    1.3599    1.8665    0.1047 N   0  0  0  0  0  0  0  0  0  0  0  0
   -2.0780   -0.5231    0.0160 C   0  0  0  0  0  0  0  0  0  0  0  0
   -2.3127   -1.2290    1.3533 C   0  0  0  0  0  0  0  0  0  0  0  0
   -2.0276   -1.5404   -1.1262 C   0  0  0  0  0  0  0  0  0  0  0  0
   -3.2328    0.4430   -0.2381 C   0  0  0  0  0  0  0  0  0  0  0  0
    0.3878   -0.4397    0.2891 C   0  0  0  0  0  0  0  0  0  0  0  0
    2.8526   -0.1362    0.5301 C   0  0  0  0  0  0  0  0  0  0  0  0
    3.5452   -0.5238   -0.7655 C   0  0  0  0  0  0  0  0  0  0  0  0
  1 15  1  0
  2 12  1  0
  3 12  2  0
  4 13  2  0
  5  8  2  0
  6  9  1  0
  6 13  1  0
  7  8  1  0
  7 13  1  0
  7 14  1  0
  9 10  1  0
  9 11  1  0
  9 12  1  0
 14 15  1  0
M  END
>  <PUBCHEM_COMPOUND_CID>  (1) 
40313

>  <PUBCHEM_CONFORMER_RMSD>  (1) 
0.8

>  <PUBCHEM_CONFORMER_DIVERSEORDER>  (1) 
1
60
55
58
16
26
56
50
2
11
24
29
48
37
9
25
54
51
6
52
15
17
18
38
40
30
57
53
34
21
45
31
44
3
10
22
7
47
39
14
28
49
8
59
46
35
36
13
41
42
19
12
32
20
4
23
43
5
27
33

>  <PUBCHEM_MMFF94_PARTIAL_CHARGES>  (1) 
15
1 -0.29
12 0.66
13 0.69
14 0.3
15 0.29
16 0.37
2 -0.65
27 0.5
3 -0.57
4 -0.57
5 -0.16
6 -0.73
7 -0.18
8 -0.02
9 0.36

>  <PUBCHEM_EFFECTIVE_ROTOR_COUNT>  (1) 
7

>  <PUBCHEM_PHARMACOPHORE_FEATURES>  (1) 
6
1 2 acceptor
1 3 acceptor
1 4 acceptor
1 6 donor
3 2 3 12 anion
3 9 10 11 hydrophobe

>  <PUBCHEM_HEAVY_ATOM_COUNT>  (1) 
15

>  <PUBCHEM_ATOM_DEF_STEREO_COUNT>  (1) 
0

>  <PUBCHEM_ATOM_UDEF_STEREO_COUNT>  (1) 
0

>  <PUBCHEM_BOND_DEF_STEREO_COUNT>  (1) 
0

>  <PUBCHEM_BOND_UDEF_STEREO_COUNT>  (1) 
0

>  <PUBCHEM_ISOTOPIC_ATOM_COUNT>  (1) 
0

>  <PUBCHEM_COMPONENT_COUNT>  (1) 
1

>  <PUBCHEM_CACTVS_TAUTO_COUNT>  (1) 
2

>  <PUBCHEM_CONFORMER_ID>  (1) 
00009D7900000001

>  <PUBCHEM_MMFF94_ENERGY>  (1) 
32.3615

>  <PUBCHEM_FEATURE_SELFOVERLAP>  (1) 
30.506

>  <PUBCHEM_SHAPE_FINGERPRINT>  (1) 
10922523 26 18272651263922479606
11401426 45 18342172255045370594
124424 183 18408606941880649682
12916754 54 18271526515388956819
12932764 1 17915185834417783464
13571099 22 18131070446048845848
14115302 16 17275101760353423951
14911166 2 18408887313092969830
15207287 21 12607396702400897004
15536298 74 18342172314884866384
15775835 57 18199467847450949317
17041 50 18411136931221576160
18186145 218 18187354467396094918
18511873 20 18272933816914882390
20233049 118 18259987046450303540
20325693 3 17531258244114573055
20645477 70 18059858342357041078
20653085 51 18411980299521084291
21119208 17 18201717340571680687
22485316 2 18272367560443610038
23402539 116 13829842479232090633
23557571 272 12751251297678703170
25 1 18187925019600158579
2748010 2 18262796409838011769
58051976 100 18413103987393578423
6049 1 18115880761298333528
7364860 26 18201155580915239056
74978 22 18410854408040788770
81228 2 15807163255054365770
93112 12 18341328971964453910

>  <PUBCHEM_SHAPE_MULTIPOLES>  (1) 
272.14
8.28
1.9
0.93
5.08
1.01
0.06
-1.25
-1.62
0.52
-0.03
-0.3
-0.35
0.47

>  <PUBCHEM_SHAPE_SELFOVERLAP>  (1) 
517.071

>  <PUBCHEM_SHAPE_VOLUME>  (1) 
168.2

>  <PUBCHEM_COORDINATE_TYPE>  (1) 
2
5
10

$$$$
