40314
     RDKit          3D

 20 22  0  0  1  0  0  0  0  0999 V2000
    1.2658    2.0918    0.7647 S   0  0  0  0  0  0  0  0  0  0  0  0
   -5.7523   -1.7609   -0.0268 O   0  0  0  0  0  0  0  0  0  0  0  0
   -3.7204   -1.8109    0.9881 O   0  0  0  0  0  0  0  0  0  0  0  0
    0.7106    0.3181   -1.1744 N   0  0  0  0  0  0  0  0  0  0  0  0
    1.8566    1.0618   -0.6358 C   0  0  0  0  0  0  0  0  0  0  0  0
   -0.4912    0.6418   -0.5551 C   0  0  0  0  0  0  0  0  0  0  0  0
   -0.4010    1.5536    0.5074 C   0  0  0  0  0  0  0  0  0  0  0  0
    2.9109    0.1241   -0.1520 C   0  0  0  0  0  0  0  0  0  0  0  0
   -1.7474    0.1374   -0.8896 C   0  0  0  0  0  0  0  0  0  0  0  0
    0.7850   -0.4038   -2.4265 C   0  0  0  0  0  0  0  0  0  0  0  0
   -2.8775    0.5417   -0.1708 C   0  0  0  0  0  0  0  0  0  0  0  0
   -1.5136    1.9644    1.2312 C   0  0  0  0  0  0  0  0  0  0  0  0
   -2.7607    1.4501    0.8851 C   0  0  0  0  0  0  0  0  0  0  0  0
    4.2525    0.5034   -0.1908 C   0  0  0  0  0  0  0  0  0  0  0  0
    2.5549   -1.1320    0.3394 C   0  0  0  0  0  0  0  0  0  0  0  0
   -4.2187   -0.0029   -0.5337 C   0  0  0  0  0  0  0  0  0  0  0  0
    5.2386   -0.3733    0.2617 C   0  0  0  0  0  0  0  0  0  0  0  0
    3.5410   -2.0086    0.7920 C   0  0  0  0  0  0  0  0  0  0  0  0
    4.8828   -1.6292    0.7531 C   0  0  0  0  0  0  0  0  0  0  0  0
   -4.5158   -1.2667    0.2327 C   0  0  0  0  0  0  0  0  0  0  0  0
  1  5  1  0
  1  7  1  0
  2 20  1  0
  3 20  2  0
  4  5  1  0
  4  6  1  0
  4 10  1  0
  5  8  1  0
  6  7  2  0
  6  9  1  0
  7 12  1  0
  8 14  2  0
  8 15  1  0
  9 11  2  0
 11 13  1  0
 11 16  1  0
 12 13  2  0
 14 17  1  0
 15 18  2  0
 16 20  1  0
 17 19  2  0
 18 19  1  0
M  END
>  <PUBCHEM_COMPOUND_CID>  (1) 
40314

>  <PUBCHEM_CONFORMER_RMSD>  (1) 
0.6

>  <PUBCHEM_CONFORMER_DIVERSEORDER>  (1) 
1
11
14
7
4
13
9
2
3
5
16
8
15
6
12
10

>  <PUBCHEM_MMFF94_PARTIAL_CHARGES>  (1) 
29
1 -0.33
10 0.37
11 -0.14
12 -0.15
13 -0.15
14 -0.15
15 -0.15
16 0.2
17 -0.15
18 -0.15
19 -0.15
2 -0.65
20 0.66
22 0.15
26 0.15
27 0.15
28 0.15
29 0.15
3 -0.57
32 0.15
33 0.15
34 0.15
35 0.5
4 -0.84
5 0.74
6 0.1
7 0.1
8 -0.14
9 -0.15

>  <PUBCHEM_EFFECTIVE_ROTOR_COUNT>  (1) 
3.6

>  <PUBCHEM_PHARMACOPHORE_FEATURES>  (1) 
7
1 2 acceptor
1 3 acceptor
1 4 cation
3 2 3 20 anion
5 1 4 5 6 7 rings
6 6 7 9 11 12 13 rings
6 8 14 15 17 18 19 rings

>  <PUBCHEM_HEAVY_ATOM_COUNT>  (1) 
20

>  <PUBCHEM_ATOM_DEF_STEREO_COUNT>  (1) 
0

>  <PUBCHEM_ATOM_UDEF_STEREO_COUNT>  (1) 
1

>  <PUBCHEM_BOND_DEF_STEREO_COUNT>  (1) 
0

>  <PUBCHEM_BOND_UDEF_STEREO_COUNT>  (1) 
0

>  <PUBCHEM_ISOTOPIC_ATOM_COUNT>  (1) 
0

>  <PUBCHEM_COMPONENT_COUNT>  (1) 
1

>  <PUBCHEM_CACTVS_TAUTO_COUNT>  (1) 
1

>  <PUBCHEM_CONFORMER_ID>  (1) 
00009D7A00000001

>  <PUBCHEM_MMFF94_ENERGY>  (1) 
57.6611

>  <PUBCHEM_FEATURE_SELFOVERLAP>  (1) 
35.641

>  <PUBCHEM_SHAPE_FINGERPRINT>  (1) 
10498660 4 11458430128218479334
11132069 177 16630519626826627581
11796584 16 18259979354053372779
11806522 49 18260829289315425064
12236239 1 18341051835717290380
12596602 18 18343017779471059768
12633257 1 17917160510658275379
12824470 246 18334856086961328889
12839892 36 17775564230174344095
12892183 10 18130780110770829528
13103583 49 18059309746263450947
13140716 1 17273408594156301917
13149001 5 13985245330830058748
13544653 18 17749675091106278228
13583140 156 18339627975937060340
14178342 30 17488197997290090089
14251751 18 18041283270137322035
14252887 29 17703798002865511564
14341114 328 18341899533027185424
14420673 8 17267795261370465718
14787075 74 18408044018087305640
14911166 2 13695585563897948861
15099037 37 18060421270471680541
15209294 21 14620799292818862877
15375462 189 18342449366065984508
17492 89 18269838614569110150
18186145 218 12973901307033766116
193927 3 18336275582179586475
19784866 240 18040439888799470039
19862831 5 13912325685295116845
200 152 18335419066937277513
20028762 73 17559951181421607223
20261772 1 17561078124814811854
20645477 70 17313103068632338580
20681677 274 18340766060945417193
20871999 31 14129338442837284446
21033648 29 15769487617349914946
21065198 48 18340769235205817168
21069387 34 17821738233951912557
21267235 1 18343306955398023750
21475661 188 13110968617133752251
21503847 285 12103850055425328818
21637258 2 17968364706622499674
21673915 165 18333731303968009978
231179 274 9727640513747053368
23402539 116 17989197145134200685
23402655 69 9439395840076409834
23559900 14 18261947557171390873
26918003 58 18411133619680354845
2838139 119 10591771943829421147
3060560 45 15357971308646666904
3286 77 18408884052965060764
33382 64 18187088390383750843
427121 178 15482676788177432910
4340502 62 18262795306680393088
439807 62 18189054373600366555
46194498 28 16443346541542555063
465052 167 18201440315154689159
474 4 12750942347949076474
4921388 177 16226057720977427579
5104073 3 18131068221003015064
57724786 102 13398330414171286050
76465 3 18409728469658406737
7808743 9 9511464407718881643

>  <PUBCHEM_SHAPE_MULTIPOLES>  (1) 
398.72
10.74
2.16
1.34
1.57
0.03
0.62
-7.16
-2.41
0.66
-0.91
-0.11
-0.1
-0.55

>  <PUBCHEM_SHAPE_SELFOVERLAP>  (1) 
853.674

>  <PUBCHEM_SHAPE_VOLUME>  (1) 
222.4

>  <PUBCHEM_COORDINATE_TYPE>  (1) 
2
5
10

$$$$
