40321
     RDKit          3D

 17 19  0  0  0  0  0  0  0  0999 V2000
   -0.7449   -1.2135   -0.3311 O   0  0  0  0  0  0  0  0  0  0  0  0
   -0.6572    0.8925    0.5036 N   0  0  0  0  0  0  0  0  0  0  0  0
   -3.1294   -1.4580   -0.5323 N   0  0  0  0  0  0  0  0  0  0  0  0
    1.5433    3.0957   -0.4108 N   0  0  0  0  0  0  0  0  0  0  0  0
    1.4299   -0.3947    0.0876 C   0  0  0  0  0  0  0  0  0  0  0  0
    0.0106   -0.1707    0.1131 C   0  0  0  0  0  0  0  0  0  0  0  0
   -1.9654    0.5315    0.3038 C   0  0  0  0  0  0  0  0  0  0  0  0
   -2.0282   -0.7591   -0.2081 C   0  0  0  0  0  0  0  0  0  0  0  0
    2.3424    0.6513   -0.0965 C   0  0  0  0  0  0  0  0  0  0  0  0
    1.9083   -1.6996    0.2537 C   0  0  0  0  0  0  0  0  0  0  0  0
   -3.1695    1.2116    0.5191 C   0  0  0  0  0  0  0  0  0  0  0  0
    3.7134    0.3953   -0.1142 C   0  0  0  0  0  0  0  0  0  0  0  0
    3.2794   -1.9554    0.2361 C   0  0  0  0  0  0  0  0  0  0  0  0
   -4.3474    0.5357    0.2006 C   0  0  0  0  0  0  0  0  0  0  0  0
    4.1819   -0.9080    0.0521 C   0  0  0  0  0  0  0  0  0  0  0  0
   -4.2675   -0.7580   -0.3062 C   0  0  0  0  0  0  0  0  0  0  0  0
    1.9003    2.0034   -0.2704 C   0  0  0  0  0  0  0  0  0  0  0  0
  1  6  1  0
  1  8  1  0
  2  6  2  0
  2  7  1  0
  3  8  2  0
  3 16  1  0
  4 17  3  0
  5  6  1  0
  5  9  2  0
  5 10  1  0
  7  8  1  0
  7 11  2  0
  9 12  1  0
  9 17  1  0
 10 13  2  0
 11 14  1  0
 12 15  2  0
 13 15  1  0
 14 16  2  0
M  END
>  <PUBCHEM_COMPOUND_CID>  (1) 
40321

>  <PUBCHEM_CONFORMER_RMSD>  (1) 
0.6

>  <PUBCHEM_CONFORMER_DIVERSEORDER>  (1) 
2
5
4
6
1
3

>  <PUBCHEM_MMFF94_PARTIAL_CHARGES>  (1) 
24
1 -0.28
10 -0.15
11 -0.15
12 -0.15
13 -0.15
14 -0.15
15 -0.15
16 0.16
17 0.48
18 0.15
19 0.15
2 -0.57
20 0.15
21 0.15
22 0.15
23 0.15
24 0.15
3 -0.57
4 -0.56
5 0.05
6 0.43
7 0.23
8 0.4
9 0.07

>  <PUBCHEM_EFFECTIVE_ROTOR_COUNT>  (1) 
1

>  <PUBCHEM_PHARMACOPHORE_FEATURES>  (1) 
5
1 3 acceptor
1 4 acceptor
5 1 2 6 7 8 rings
6 3 7 8 11 14 16 rings
6 5 9 10 12 13 15 rings

>  <PUBCHEM_HEAVY_ATOM_COUNT>  (1) 
17

>  <PUBCHEM_ATOM_DEF_STEREO_COUNT>  (1) 
0

>  <PUBCHEM_ATOM_UDEF_STEREO_COUNT>  (1) 
0

>  <PUBCHEM_BOND_DEF_STEREO_COUNT>  (1) 
0

>  <PUBCHEM_BOND_UDEF_STEREO_COUNT>  (1) 
0

>  <PUBCHEM_ISOTOPIC_ATOM_COUNT>  (1) 
0

>  <PUBCHEM_COMPONENT_COUNT>  (1) 
1

>  <PUBCHEM_CACTVS_TAUTO_COUNT>  (1) 
1

>  <PUBCHEM_CONFORMER_ID>  (1) 
00009D8100000002

>  <PUBCHEM_MMFF94_ENERGY>  (1) 
37.0122

>  <PUBCHEM_FEATURE_SELFOVERLAP>  (1) 
25.508

>  <PUBCHEM_SHAPE_FINGERPRINT>  (1) 
10062212 137 18202841059125662991
10616163 171 18271526515194285087
10967382 1 18410012130752404394
11471102 20 18408038520186249190
12236239 1 18273215283533909986
12251169 10 18411983537831421303
138480 1 18410012177813253364
14144814 61 18412262813547584146
14251717 144 18335419080075510398
15196674 1 18412544305704007960
15442244 35 18339644434219817008
15536298 74 18343301491830442488
16945 1 18336553818951039338
17492 89 18413108389756603887
17802600 8 18408036312525885157
18186145 218 17676480666395931715
19422 9 18341895220853762959
200 152 18272646853233854487
20559304 39 18411982477095935432
20645477 70 18411418405876800055
20671657 1 18338803432579313964
21267235 1 18340778065189351982
21501502 16 18341896337571458285
221490 88 18263370346233516850
2255824 54 18335986466872436908
22854114 111 18337392737517001780
22959321 4 18410294748311676635
23402539 116 18341605967627962846
23402655 69 18410012100381691316
23463225 33 18413108342368648663
23557571 272 16486987145722663633
23558518 356 17537438796964693642
23559900 14 18340762719165286330
312423 11 18341064007306200579
335352 9 18267304236003215813
4214541 1 18411981330466092553
474 4 18116713113297331956
5104073 3 18412825785060316779
58051976 100 18410857689654279031
6992083 37 18125735499345402936
7364860 26 18341611572623711088
74978 22 18409451422471341675
77779 3 18411702075692308683
7832392 63 18339643343361544208
84936 182 18055917846948980360
9709674 26 18411143558135139519
9971528 1 18411979148759947164
9981440 41 17545313537692231840

>  <PUBCHEM_SHAPE_MULTIPOLES>  (1) 
329.04
8.22
2.22
0.68
3.38
1.16
-0.01
-1.62
0.03
-1.45
0.22
0.11
0.01
-0.73

>  <PUBCHEM_SHAPE_SELFOVERLAP>  (1) 
740.318

>  <PUBCHEM_SHAPE_VOLUME>  (1) 
171.2

>  <PUBCHEM_COORDINATE_TYPE>  (1) 
2
5
10

$$$$
