40325
     RDKit          3D

 25 27  0  0  1  0  0  0  0  0999 V2000
    0.0111   -1.8946    1.7034 Cl  0  0  0  0  0  0  0  0  0  0  0  0
    0.4934   -2.4551   -1.1543 Cl  0  0  0  0  0  0  0  0  0  0  0  0
    1.9493    1.1682   -0.3669 O   0  0  0  0  0  0  0  0  0  0  0  0
    4.0055    2.0060    0.2802 O   0  0  0  0  0  0  0  0  0  0  0  0
   -2.2420    2.5071   -0.7441 O   0  0  0  0  0  0  0  0  0  0  0  0
    4.7904   -0.9452   -0.1388 C   0  0  0  0  0  0  0  0  0  0  0  0
    3.4021   -1.3827   -0.5033 C   0  0  0  0  0  0  0  0  0  0  0  0
    3.8965   -0.0333   -0.9165 C   0  0  0  0  0  0  0  0  0  0  0  0
    5.9268   -1.6240   -0.8269 C   0  0  0  0  0  0  0  0  0  0  0  0
    5.1009   -0.5567    1.2685 C   0  0  0  0  0  0  0  0  0  0  0  0
    2.3612   -1.4568    0.5109 C   0  0  0  0  0  0  0  0  0  0  0  0
    3.3064    1.1638   -0.2648 C   0  0  0  0  0  0  0  0  0  0  0  0
    1.1001   -1.8891    0.3602 C   0  0  0  0  0  0  0  0  0  0  0  0
    1.2921    2.2882    0.2354 C   0  0  0  0  0  0  0  0  0  0  0  0
   -0.1728    2.2299    0.0884 C   0  0  0  0  0  0  0  0  0  0  0  0
   -1.0951    1.6283    0.9775 C   0  0  0  0  0  0  0  0  0  0  0  0
   -0.9199    2.7503   -0.9427 C   0  0  0  0  0  0  0  0  0  0  0  0
   -2.2973    1.8359    0.4132 C   0  0  0  0  0  0  0  0  0  0  0  0
   -3.6969    1.4484    0.8486 C   0  0  0  0  0  0  0  0  0  0  0  0
   -4.1302    0.1153    0.3389 C   0  0  0  0  0  0  0  0  0  0  0  0
   -3.8797   -1.0335    1.0894 C   0  0  0  0  0  0  0  0  0  0  0  0
   -4.7856    0.0172   -0.8886 C   0  0  0  0  0  0  0  0  0  0  0  0
   -4.2848   -2.2801    0.6125 C   0  0  0  0  0  0  0  0  0  0  0  0
   -5.1908   -1.2294   -1.3654 C   0  0  0  0  0  0  0  0  0  0  0  0
   -4.9405   -2.3781   -0.6148 C   0  0  0  0  0  0  0  0  0  0  0  0
  1 13  1  0
  2 13  1  0
  3 12  1  0
  3 14  1  0
  4 12  2  0
  5 17  1  0
  5 18  1  0
  6  7  1  0
  6  8  1  0
  6  9  1  0
  6 10  1  0
  7  8  1  0
  7 11  1  0
  8 12  1  0
 11 13  2  3
 14 15  1  0
 15 16  1  0
 15 17  2  0
 16 18  2  0
 18 19  1  0
 19 20  1  0
 20 21  2  0
 20 22  1  0
 21 23  1  0
 22 24  2  0
 23 25  2  0
 24 25  1  0
M  END
>  <PUBCHEM_COMPOUND_CID>  (1) 
40325

>  <PUBCHEM_CONFORMER_RMSD>  (1) 
1

>  <PUBCHEM_CONFORMER_DIVERSEORDER>  (1) 
8
170
251
374
366
117
49
180
328
177
252
426
46
181
268
109
302
385
186
242
104
337
120
146
18
329
164
356
196
387
140
71
31
249
27
122
29
283
256
193
134
32
142
250
200
395
436
354
317
418
294
352
149
447
172
364
54
263
304
41
5
128
82
325
208
85
218
370
66
403
267
211
324
345
169
209
63
167
315
58
183
96
308
276
362
115
203
119
291
410
112
154
229
22
402
73
342
123
435
219
103
371
417
68
101
90
269
439
275
378
279
137
438
79
13
60
62
391
264
178
277
365
259
44
3
350
262
20
355
188
367
248
133
339
245
205
393
42
369
397
184
261
429
195
179
351
382
126
174
124
394
15
77
40
257
191
301
442
83
422
2
376
150
182
247
14
59
284
110
105
400
198
69
412
236
141
43
331
443
419
24
33
116
424
384
95
189
425
305
344
389
28
6
190
334
64
153
159
300
130
223
298
285
80
106
310
375
258
1
185
431
357
312
53
358
47
404
335
91
295
346
26
148
349
411
173
381
270
243
265
434
303
322
99
299
220
373
102
306
266
323
57
273
34
297
311
9
25
445
127
330
253
78
332
216
333
37
125
288
390
307
235
197
214
10
12
132
353
238
309
213
113
401
75
446
45
313
151
87
343
204
81
199
321
255
192
121
326
239
336
111
157
440
74
48
39
138
97
52
30
224
16
163
293
11
201
19
147
292
76
158
396
98
361
405
129
278
448
234
131
194
372
428
423
359
100
72
156
316
114
86
210
386
36
232
160
272
166
233
420
407
289
231
145
92
17
363
215
23
347
246
240
296
348
281
377
230
221
437
139
260
65
379
314
107
89
244
241
161
171
21
118
398
108
4
136
70
222
380
61
143
388
340
187
56
319
176
7
175
50
237
286
383
165
274
327
338
341
320
202
415
162
135
35
93
227
212
414
84
226
38
144
421
168
392
360
225
441
433
430
399
413
444
254
207
51
282
228
217
406
408
287
290
280
427
152
409
67
368
271
88
155
206
432
94
318
416
55

>  <PUBCHEM_MMFF94_PARTIAL_CHARGES>  (1) 
35
1 -0.14
10 0.09
11 -0.19
12 0.72
13 0.28
14 0.46
15 -0.18
16 -0.15
17 -0.01
18 -0.04
19 0.32
2 -0.14
20 -0.14
21 -0.15
22 -0.15
23 -0.15
24 -0.15
25 -0.15
26 0.1
27 0.1
3 -0.43
34 0.15
37 0.15
38 0.15
4 -0.57
41 0.15
42 0.15
43 0.15
44 0.15
45 0.15
5 -0.28
6 -0.19
7 -0.06
8 -0.1
9 0.09

>  <PUBCHEM_EFFECTIVE_ROTOR_COUNT>  (1) 
7.6

>  <PUBCHEM_PHARMACOPHORE_FEATURES>  (1) 
5
1 4 acceptor
1 5 acceptor
3 6 9 10 hydrophobe
5 5 15 16 17 18 rings
6 20 21 22 23 24 25 rings

>  <PUBCHEM_HEAVY_ATOM_COUNT>  (1) 
25

>  <PUBCHEM_ATOM_DEF_STEREO_COUNT>  (1) 
2

>  <PUBCHEM_ATOM_UDEF_STEREO_COUNT>  (1) 
0

>  <PUBCHEM_BOND_DEF_STEREO_COUNT>  (1) 
0

>  <PUBCHEM_BOND_UDEF_STEREO_COUNT>  (1) 
0

>  <PUBCHEM_ISOTOPIC_ATOM_COUNT>  (1) 
0

>  <PUBCHEM_COMPONENT_COUNT>  (1) 
1

>  <PUBCHEM_CACTVS_TAUTO_COUNT>  (1) 
1

>  <PUBCHEM_CONFORMER_ID>  (1) 
00009D8500000008

>  <PUBCHEM_MMFF94_ENERGY>  (1) 
49.4886

>  <PUBCHEM_FEATURE_SELFOVERLAP>  (1) 
25.372

>  <PUBCHEM_SHAPE_FINGERPRINT>  (1) 
108634 29 18335150803728836570
11488393 25 17343520911776299190
12166972 35 17386013926543412567
12422481 6 17703793591633827862
12596599 1 17915482530890460049
12596602 18 15770050640344244395
13402501 40 18409171029889595859
13782708 43 17703230599348308150
14787075 74 18409172095458307420
14848178 5 18340763831862704029
14931854 50 18187638077620957175
15196674 1 18411141354642239297
15352361 1 18410856581494551173
17349148 13 17676497128789228002
17857418 61 18408601444201295528
20028762 73 18201998824545002110
21033648 29 11963689840765956020
21673915 165 18341050808434070981
21857420 4 15616883387854548319
22393880 68 18261384508132866109
23559900 14 18411129251752206977
2871803 45 18334292063245166141
329604 57 18335703883678483027
339767 52 18342166765945154887
4280585 95 18261661636718425561
437795 51 17346028013542077144
463206 1 18335708264750665041
508706 21 18188498977438572187
6431902 208 18411702105693886759

>  <PUBCHEM_SHAPE_MULTIPOLES>  (1) 
500.62
12.69
3.52
1.29
1.75
0.92
0.12
-6.48
-1.87
-1.38
-0.28
-0.36
-0.42
-0.07

>  <PUBCHEM_SHAPE_SELFOVERLAP>  (1) 
1048.667

>  <PUBCHEM_SHAPE_VOLUME>  (1) 
285.6

>  <PUBCHEM_COORDINATE_TYPE>  (1) 
2
5
10

$$$$
