40323
     RDKit          3D

 13 15  0  0  1  0  0  0  0  0999 V2000
    1.7002    2.4049   -0.0489 O   0  0  0  0  0  0  0  0  0  0  0  0
    4.1421   -1.8190    0.2562 O   0  0  0  0  0  0  0  0  0  0  0  0
   -4.9811   -0.6550   -0.1701 O   0  0  0  0  0  0  0  0  0  0  0  0
    1.8611    1.0255   -0.4043 C   0  0  0  0  0  0  0  0  0  0  0  0
    0.7759    1.4767    0.5162 C   0  0  0  0  0  0  0  0  0  0  0  0
    3.0852    0.3916    0.1367 C   0  0  0  0  0  0  0  0  0  0  0  0
   -0.6268    1.6342    0.0158 C   0  0  0  0  0  0  0  0  0  0  0  0
    2.9323   -1.0812    0.3982 C   0  0  0  0  0  0  0  0  0  0  0  0
   -1.3814    0.3053    0.0154 C   0  0  0  0  0  0  0  0  0  0  0  0
    3.1080   -2.0665   -0.7051 C   0  0  0  0  0  0  0  0  0  0  0  0
   -2.8255    0.4812   -0.4531 C   0  0  0  0  0  0  0  0  0  0  0  0
   -3.5839   -0.8097   -0.4133 C   0  0  0  0  0  0  0  0  0  0  0  0
   -4.2062   -1.2880    0.8563 C   0  0  0  0  0  0  0  0  0  0  0  0
  1  4  1  0
  1  5  1  0
  2  8  1  0
  2 10  1  0
  3 12  1  0
  3 13  1  0
  4  5  1  0
  4  6  1  0
  5  7  1  0
  6  8  1  0
  7  9  1  0
  8 10  1  0
  9 11  1  0
 11 12  1  0
 12 13  1  0
M  END
>  <PUBCHEM_COMPOUND_CID>  (1) 
40323

>  <PUBCHEM_CONFORMER_RMSD>  (1) 
1

>  <PUBCHEM_CONFORMER_DIVERSEORDER>  (1) 
1
9
269
181
94
89
4
521
450
14
61
139
329
62
243
3
325
78
237
121
479
605
5
381
393
130
159
518
6
34
416
551
528
184
167
376
464
7
28
310
320
8
17
498
217
204
163
236
586
397
157
11
119
123
25
194
133
612
335
27
318
151
252
29
471
55
401
268
43
120
242
110
466
16
375
59
601
174
79
214

>  <PUBCHEM_MMFF94_PARTIAL_CHARGES>  (1) 
20
1 -0.3
10 -0.05
11 0.09
12 -0.05
13 -0.05
14 0.1
15 0.1
2 -0.3
20 0.1
23 0.1
24 0.1
27 0.1
28 0.1
29 0.1
3 -0.3
4 -0.05
5 -0.05
6 0.19
7 0.09
8 -0.05

>  <PUBCHEM_EFFECTIVE_ROTOR_COUNT>  (1) 
7.8

>  <PUBCHEM_PHARMACOPHORE_FEATURES>  (1) 
3
1 1 acceptor
1 2 acceptor
1 3 acceptor

>  <PUBCHEM_HEAVY_ATOM_COUNT>  (1) 
13

>  <PUBCHEM_ATOM_DEF_STEREO_COUNT>  (1) 
0

>  <PUBCHEM_ATOM_UDEF_STEREO_COUNT>  (1) 
4

>  <PUBCHEM_BOND_DEF_STEREO_COUNT>  (1) 
0

>  <PUBCHEM_BOND_UDEF_STEREO_COUNT>  (1) 
0

>  <PUBCHEM_ISOTOPIC_ATOM_COUNT>  (1) 
0

>  <PUBCHEM_COMPONENT_COUNT>  (1) 
1

>  <PUBCHEM_CACTVS_TAUTO_COUNT>  (1) 
1

>  <PUBCHEM_CONFORMER_ID>  (1) 
00009D8300000001

>  <PUBCHEM_MMFF94_ENERGY>  (1) 
15.5443

>  <PUBCHEM_FEATURE_SELFOVERLAP>  (1) 
15.224

>  <PUBCHEM_SHAPE_FINGERPRINT>  (1) 
11806522 49 18408322164575228848
11987891 38 18335702771344828201
12006461 19 18410293601260048505
12616999 72 18115033016796533012
13255334 9 18189341328290397123
13533116 47 18271246148940998819
14251705 54 18341333279948838990
14251710 61 18410294679165107383
14251717 144 18410572907209975699
14251731 5 18125725591262351094
14252887 29 18411414038105783952
14350558 41 18408887355916133276
15352361 1 18338516331216628814
15375462 189 18060415862938984840
15477762 27 18408040732216037676
17834074 16 18261111911127830419
18186145 218 17530675524816760057
193927 3 18341340998036666294
20281475 54 18410299077291032076
20291156 8 18340204085859913974
20432913 95 18341051904009271963
20645477 70 18336538421677938527
20671657 53 18333732386072512224
20767249 462 9871459920130709602
20871998 22 18411415094667887760
212916 134 15338851850229352663
21354914 74 18334573512842157898
21354914 76 18339924913185978167
221490 88 18261960742288076811
22485316 2 18342173423139234133
2255824 54 18196655322313722708
23500284 5 18200032815907033824
33824 294 18339078310786723904
4416823 128 18410856529786021644
59345606 38 9006763289843638675
94968 8 18408042905527316842

>  <PUBCHEM_SHAPE_MULTIPOLES>  (1) 
249.93
9.22
2.32
0.78
6.79
0.12
-0.02
-6.45
-0.28
-2.05
0.02
0.14
-0.14
0.39

>  <PUBCHEM_SHAPE_SELFOVERLAP>  (1) 
492.408

>  <PUBCHEM_SHAPE_VOLUME>  (1) 
151.4

>  <PUBCHEM_COORDINATE_TYPE>  (1) 
2
5
10

$$$$
