40331
     RDKit          3D

 23 25  0  0  1  0  0  0  0  0999 V2000
   -1.3813    2.2968   -0.4928 S   0  0  0  0  0  0  0  0  0  0  0  0
   -0.7525    3.4157   -1.4965 O   0  0  0  0  0  0  0  0  0  0  0  0
   -1.4339    2.8630    0.8388 O   0  0  0  0  0  0  0  0  0  0  0  0
   -2.5619    1.7387   -1.1180 O   0  0  0  0  0  0  0  0  0  0  0  0
    2.6207    1.2703    1.0895 N   0  0  0  0  0  0  0  0  0  0  0  0
    2.4079    0.8583   -0.3025 C   0  0  0  0  0  0  0  0  0  0  0  0
    1.2589    1.6488   -0.9446 C   0  0  0  0  0  0  0  0  0  0  0  0
    2.1424   -0.6270   -0.3864 C   0  0  0  0  0  0  0  0  0  0  0  0
   -0.1010    1.1273   -0.5603 C   0  0  0  0  0  0  0  0  0  0  0  0
    0.8187   -1.1152   -0.3545 C   0  0  0  0  0  0  0  0  0  0  0  0
   -0.3419   -0.1717   -0.2608 C   0  0  0  0  0  0  0  0  0  0  0  0
    3.2228   -1.5219   -0.4535 C   0  0  0  0  0  0  0  0  0  0  0  0
   -1.7014   -0.6192    0.1304 C   0  0  0  0  0  0  0  0  0  0  0  0
    0.6186   -2.5058   -0.3970 C   0  0  0  0  0  0  0  0  0  0  0  0
    2.8765    2.7069    1.1596 C   0  0  0  0  0  0  0  0  0  0  0  0
    3.7295    0.5210    1.6758 C   0  0  0  0  0  0  0  0  0  0  0  0
    3.0010   -2.8954   -0.4994 C   0  0  0  0  0  0  0  0  0  0  0  0
    1.7004   -3.3864   -0.4715 C   0  0  0  0  0  0  0  0  0  0  0  0
   -2.0655   -0.6159    1.4711 C   0  0  0  0  0  0  0  0  0  0  0  0
   -2.5945   -1.0367   -0.8484 C   0  0  0  0  0  0  0  0  0  0  0  0
   -3.3436   -1.0367    1.8389 C   0  0  0  0  0  0  0  0  0  0  0  0
   -3.8726   -1.4574   -0.4807 C   0  0  0  0  0  0  0  0  0  0  0  0
   -4.2472   -1.4574    0.8629 C   0  0  0  0  0  0  0  0  0  0  0  0
  1  2  1  0
  1  3  2  0
  1  4  2  0
  1  9  1  0
  5  6  1  0
  5 15  1  0
  5 16  1  0
  6  7  1  0
  6  8  1  0
  7  9  1  0
  8 10  2  0
  8 12  1  0
  9 11  2  0
 10 11  1  0
 10 14  1  0
 11 13  1  0
 12 17  2  0
 13 19  2  0
 13 20  1  0
 14 18  2  0
 17 18  1  0
 19 21  1  0
 20 22  2  0
 21 23  2  0
 22 23  1  0
M  END
>  <PUBCHEM_COMPOUND_CID>  (1) 
40331

>  <PUBCHEM_CONFORMER_RMSD>  (1) 
0.6

>  <PUBCHEM_CONFORMER_DIVERSEORDER>  (1) 
3
4
1
5
2

>  <PUBCHEM_MMFF94_PARTIAL_CHARGES>  (1) 
33
1 1.5
10 0.03
11 -0.06
12 -0.15
13 0.03
14 -0.15
15 0.27
16 0.27
17 -0.15
18 -0.15
19 -0.15
2 -0.68
20 -0.15
21 -0.15
22 -0.15
23 -0.15
27 0.15
28 0.15
3 -0.65
35 0.15
36 0.15
37 0.15
38 0.15
39 0.5
4 -0.65
40 0.15
41 0.15
42 0.15
5 -0.81
6 0.41
7 0.14
8 -0.14
9 -0.16

>  <PUBCHEM_EFFECTIVE_ROTOR_COUNT>  (1) 
3.4

>  <PUBCHEM_PHARMACOPHORE_FEATURES>  (1) 
8
1 2 acceptor
1 3 acceptor
1 4 acceptor
1 5 cation
4 1 2 3 4 anion
6 13 19 20 21 22 23 rings
6 6 7 8 9 10 11 rings
6 8 10 12 14 17 18 rings

>  <PUBCHEM_HEAVY_ATOM_COUNT>  (1) 
23

>  <PUBCHEM_ATOM_DEF_STEREO_COUNT>  (1) 
0

>  <PUBCHEM_ATOM_UDEF_STEREO_COUNT>  (1) 
1

>  <PUBCHEM_BOND_DEF_STEREO_COUNT>  (1) 
0

>  <PUBCHEM_BOND_UDEF_STEREO_COUNT>  (1) 
0

>  <PUBCHEM_ISOTOPIC_ATOM_COUNT>  (1) 
0

>  <PUBCHEM_COMPONENT_COUNT>  (1) 
1

>  <PUBCHEM_CACTVS_TAUTO_COUNT>  (1) 
1

>  <PUBCHEM_CONFORMER_ID>  (1) 
00009D8B00000003

>  <PUBCHEM_MMFF94_ENERGY>  (1) 
80.1408

>  <PUBCHEM_FEATURE_SELFOVERLAP>  (1) 
40.675

>  <PUBCHEM_SHAPE_FINGERPRINT>  (1) 
10165383 225 18056485186743768880
10366900 7 18335996323664651978
10906281 52 18114467863540816933
10967382 1 18266181806055661750
11578080 2 17630862985679709993
11680986 33 18338792295628667837
12403259 226 18411419471213331558
12553582 1 18263657297578424951
12714826 92 17978255780066552166
13140716 1 18051130290175158962
13149001 5 17905602199017554468
13911987 19 18048588510790400437
14178342 30 18337950074254271872
14223421 5 18410853222492405098
14790565 3 17976561707494908053
14955137 171 17832165070206090784
15422964 175 18261970633946153019
16945 1 18264775526478140862
17357779 13 18335138665871443175
19049666 15 18265330595250989290
19591789 44 17109905859060357023
20600515 1 17241042214313435953
20739085 24 18263374748633173177
21285901 2 17968364741515183663
22182313 1 18337381665186083286
23184049 59 18193835079214366153
2334 1 18337956684256250926
23558518 356 18118674431572140789
23559900 14 18334013852475002532
2748010 2 18408881802533735508
2838139 119 14044308961740740138
31174 14 18343590633223718602
3380486 145 18339918307784772245
350125 39 18412550899059211996
352729 6 17043452510186495054
474 4 17986673873000890234
6049 1 18341052900267663022
70251023 43 18340765936560839575
7288768 16 16410100733039017344
81228 2 18114750321985864933
9709674 26 18266446629586356797
9981440 41 17767920417001643200

>  <PUBCHEM_SHAPE_MULTIPOLES>  (1) 
454.59
6.48
3.92
1.42
2.44
0.63
-0.5
-2.21
-2.19
-1.73
0.89
0.27
0.49
1.54

>  <PUBCHEM_SHAPE_SELFOVERLAP>  (1) 
978.48

>  <PUBCHEM_SHAPE_VOLUME>  (1) 
252.2

>  <PUBCHEM_COORDINATE_TYPE>  (1) 
2
5
10

$$$$
