40337
     RDKit          3D

 24 26  0  0  1  0  0  0  0  0999 V2000
    2.4634   -1.9683   -0.2503 O   0  0  0  0  0  0  0  0  0  0  0  0
   -2.8976    1.9224   -0.8774 N   0  0  0  0  0  0  0  0  0  0  0  0
    0.4094   -2.8667   -0.8642 N   0  0  0  0  0  0  0  0  0  0  0  0
    0.6385   -0.4411   -0.3751 C   0  0  0  0  0  0  0  0  0  0  0  0
    0.1361   -0.0962   -1.8028 C   0  0  0  0  0  0  0  0  0  0  0  0
   -2.1071    0.6930   -1.0122 C   0  0  0  0  0  0  0  0  0  0  0  0
   -0.8406    1.0708   -1.7869 C   0  0  0  0  0  0  0  0  0  0  0  0
   -0.5431   -0.5430    0.6058 C   0  0  0  0  0  0  0  0  0  0  0  0
   -1.8170   -0.0044    0.3078 C   0  0  0  0  0  0  0  0  0  0  0  0
    1.7104    0.5877    0.0466 C   0  0  0  0  0  0  0  0  0  0  0  0
    1.2610   -1.8270   -0.4890 C   0  0  0  0  0  0  0  0  0  0  0  0
   -0.3470   -1.1711    1.8565 C   0  0  0  0  0  0  0  0  0  0  0  0
   -2.8626   -0.1855    1.2363 C   0  0  0  0  0  0  0  0  0  0  0  0
    1.5413    1.3107    1.2200 C   0  0  0  0  0  0  0  0  0  0  0  0
    2.8302    0.7766   -0.7525 C   0  0  0  0  0  0  0  0  0  0  0  0
   -1.3882   -1.3087    2.7718 C   0  0  0  0  0  0  0  0  0  0  0  0
   -3.1275    2.5229   -2.1891 C   0  0  0  0  0  0  0  0  0  0  0  0
   -2.2200    2.8652    0.0092 C   0  0  0  0  0  0  0  0  0  0  0  0
   -2.6494   -0.8248    2.4569 C   0  0  0  0  0  0  0  0  0  0  0  0
    2.5094    2.2397    1.6012 C   0  0  0  0  0  0  0  0  0  0  0  0
    3.7983    1.7057   -0.3712 C   0  0  0  0  0  0  0  0  0  0  0  0
    0.8780   -4.0270   -1.6113 C   0  0  0  0  0  0  0  0  0  0  0  0
   -1.0138   -2.8680   -0.5358 C   0  0  0  0  0  0  0  0  0  0  0  0
    3.6379    2.4371    0.8057 C   0  0  0  0  0  0  0  0  0  0  0  0
  1 11  2  0
  2  6  1  0
  2 17  1  0
  2 18  1  0
  3 11  1  0
  3 22  1  0
  3 23  1  0
  4  5  1  0
  4  8  1  0
  4 10  1  0
  4 11  1  0
  5  7  1  0
  6  7  1  0
  6  9  1  0
  8  9  2  0
  8 12  1  0
  9 13  1  0
 10 14  2  0
 10 15  1  0
 12 16  2  0
 13 19  2  0
 14 20  1  0
 15 21  2  0
 16 19  1  0
 20 24  2  0
 21 24  1  0
M  END
>  <PUBCHEM_COMPOUND_CID>  (1) 
40337

>  <PUBCHEM_CONFORMER_RMSD>  (1) 
0.8

>  <PUBCHEM_CONFORMER_DIVERSEORDER>  (1) 
2
4
5
1
3

>  <PUBCHEM_MMFF94_PARTIAL_CHARGES>  (1) 
31
1 -0.57
10 -0.14
11 0.57
12 -0.15
13 -0.15
14 -0.15
15 -0.15
16 -0.15
17 0.27
18 0.27
19 -0.15
2 -0.81
20 -0.15
21 -0.15
22 0.3
23 0.3
24 -0.15
3 -0.66
30 0.15
31 0.15
32 0.15
33 0.15
34 0.15
4 0.35
41 0.15
42 0.15
43 0.15
50 0.15
6 0.41
8 -0.14
9 -0.14

>  <PUBCHEM_EFFECTIVE_ROTOR_COUNT>  (1) 
4.8

>  <PUBCHEM_PHARMACOPHORE_FEATURES>  (1) 
5
1 1 acceptor
1 2 cation
6 10 14 15 20 21 24 rings
6 4 5 6 7 8 9 rings
6 8 9 12 13 16 19 rings

>  <PUBCHEM_HEAVY_ATOM_COUNT>  (1) 
24

>  <PUBCHEM_ATOM_DEF_STEREO_COUNT>  (1) 
0

>  <PUBCHEM_ATOM_UDEF_STEREO_COUNT>  (1) 
1

>  <PUBCHEM_BOND_DEF_STEREO_COUNT>  (1) 
0

>  <PUBCHEM_BOND_UDEF_STEREO_COUNT>  (1) 
0

>  <PUBCHEM_ISOTOPIC_ATOM_COUNT>  (1) 
0

>  <PUBCHEM_COMPONENT_COUNT>  (1) 
1

>  <PUBCHEM_CACTVS_TAUTO_COUNT>  (1) 
1

>  <PUBCHEM_CONFORMER_ID>  (1) 
00009D9100000002

>  <PUBCHEM_MMFF94_ENERGY>  (1) 
117.3331

>  <PUBCHEM_FEATURE_SELFOVERLAP>  (1) 
25.391

>  <PUBCHEM_SHAPE_FINGERPRINT>  (1) 
10165383 225 18125752164119184888
11221954 11 18261104128267509097
11578080 2 17686104596863191524
11582403 64 17537108741238241301
12716301 132 17168720608757161961
13009979 54 15625662670236829606
13149001 5 17828777135689246691
13294875 104 17173195505186671473
13681431 1 17838613358126684086
13911987 19 17980781345813100390
14022347 108 16446769274269117795
14142880 1 17556860548344828833
14787075 74 15509439141752962612
14817 1 10061998104149832283
16945 1 17823426074352255320
17876694 64 17116364412011141347
1813 80 17112963626936368726
18219364 16 18200318839317583416
18981168 100 18271232915571779320
19049666 15 18261966145525746880
20600515 1 17097227240647103481
21330990 113 18052810639936343983
21524375 3 18044346431763945660
229495 10 18130797702988684707
23419403 2 17903951900783881771
23493267 7 17822010913178791296
23526113 38 17830743058047722739
23557571 272 17896342335896248739
238 59 18271230630359027757
2748010 2 18261967253468975725
350125 39 18341046406388102382
35225 105 17825076411336299993
427121 178 17895757262587878105
4340502 62 17629510689568004635
469060 322 17688021333503892962
495365 180 18268129994625976412
497634 4 17122273162167297328
5845 1 9870908085658145692
70251023 43 17692230960396035093
81228 2 17476923927450421362
9925002 15 17188147119520282015
9981440 41 18268687502977406624

>  <PUBCHEM_SHAPE_MULTIPOLES>  (1) 
478.08
5.04
3.89
2.38
3.36
2.12
-0.82
-4.23
-0.95
-0.57
2.11
-1.6
0.14
2.24

>  <PUBCHEM_SHAPE_SELFOVERLAP>  (1) 
1033.379

>  <PUBCHEM_SHAPE_VOLUME>  (1) 
261.7

>  <PUBCHEM_COORDINATE_TYPE>  (1) 
2
5
10

$$$$
