40341
     RDKit          3D

 14 14  0  0  0  0  0  0  0  0999 V2000
    4.4636   -2.0369    0.3630 I   0  0  0  0  0  0  0  0  0  0  0  0
   -0.7883   -1.0891   -1.4146 O   0  0  0  0  0  0  0  0  0  0  0  0
   -2.8749   -0.6105    1.4607 O   0  0  0  0  0  0  0  0  0  0  0  0
   -4.8605   -0.4804    0.3707 O   0  0  0  0  0  0  0  0  0  0  0  0
   -1.5448    0.7950   -0.2945 N   0  0  0  0  0  0  0  0  0  0  0  0
    0.8204    0.2228   -0.3241 C   0  0  0  0  0  0  0  0  0  0  0  0
   -0.5430   -0.0804   -0.7294 C   0  0  0  0  0  0  0  0  0  0  0  0
   -2.9473    0.6164   -0.5943 C   0  0  0  0  0  0  0  0  0  0  0  0
    1.7587   -0.8024   -0.2047 C   0  0  0  0  0  0  0  0  0  0  0  0
    1.1891    1.5406   -0.0533 C   0  0  0  0  0  0  0  0  0  0  0  0
    3.0655   -0.5100    0.1853 C   0  0  0  0  0  0  0  0  0  0  0  0
    2.4960    1.8330    0.3369 C   0  0  0  0  0  0  0  0  0  0  0  0
    3.4342    0.8077    0.4560 C   0  0  0  0  0  0  0  0  0  0  0  0
   -3.6689   -0.2058    0.4423 C   0  0  0  0  0  0  0  0  0  0  0  0
  1 11  1  0
  2  7  2  0
  3 14  1  0
  4 14  2  0
  5  7  1  0
  5  8  1  0
  6  7  1  0
  6  9  2  0
  6 10  1  0
  8 14  1  0
  9 11  1  0
 10 12  2  0
 11 13  2  0
 12 13  1  0
M  END
>  <PUBCHEM_COMPOUND_CID>  (1) 
40341

>  <PUBCHEM_CONFORMER_RMSD>  (1) 
0.6

>  <PUBCHEM_CONFORMER_DIVERSEORDER>  (1) 
1
20
7
24
3
22
17
13
14
15
25
23
5
9
4
19
18
10
12
6
21
16
2
8
11

>  <PUBCHEM_MMFF94_PARTIAL_CHARGES>  (1) 
20
1 -0.08
10 -0.15
11 0.08
12 -0.15
13 -0.15
14 0.66
17 0.37
18 0.15
19 0.15
2 -0.57
20 0.15
21 0.15
22 0.5
3 -0.65
4 -0.57
5 -0.73
6 0.09
7 0.54
8 0.36
9 -0.15

>  <PUBCHEM_EFFECTIVE_ROTOR_COUNT>  (1) 
4

>  <PUBCHEM_PHARMACOPHORE_FEATURES>  (1) 
7
1 1 hydrophobe
1 2 acceptor
1 3 acceptor
1 4 acceptor
1 5 donor
3 3 4 14 anion
6 6 9 10 11 12 13 rings

>  <PUBCHEM_HEAVY_ATOM_COUNT>  (1) 
14

>  <PUBCHEM_ATOM_DEF_STEREO_COUNT>  (1) 
0

>  <PUBCHEM_ATOM_UDEF_STEREO_COUNT>  (1) 
0

>  <PUBCHEM_BOND_DEF_STEREO_COUNT>  (1) 
0

>  <PUBCHEM_BOND_UDEF_STEREO_COUNT>  (1) 
0

>  <PUBCHEM_ISOTOPIC_ATOM_COUNT>  (1) 
0

>  <PUBCHEM_COMPONENT_COUNT>  (1) 
1

>  <PUBCHEM_CACTVS_TAUTO_COUNT>  (1) 
2

>  <PUBCHEM_CONFORMER_ID>  (1) 
00009D9500000001

>  <PUBCHEM_MMFF94_ENERGY>  (1) 
30.3061

>  <PUBCHEM_FEATURE_SELFOVERLAP>  (1) 
35.58

>  <PUBCHEM_SHAPE_FINGERPRINT>  (1) 
10498660 4 13326033036172146219
11471102 22 18409452500592503112
12032990 46 18335983056700058878
12251169 10 18343581862668118847
124424 183 18263636286482154085
12507560 40 18408035199944797669
12644460 14 18411983585587836256
13296908 3 18260543407491415060
13675066 3 18339911646116448896
13740256 8 18335422323140108138
14252887 29 18130221537658705646
15375462 189 18337097974565838962
15653759 3 18113898251797564365
15775835 57 17988644163414893929
17834074 16 17967253087508530650
17844478 74 18187358826846351660
19026448 4 17967524662363934909
19107657 47 18342735213235175281
200 152 18201146716197276485
20339313 130 18342738477811032400
20645477 70 18338502071909122478
20871998 22 18057607551966152350
21041028 32 18270680866324736336
23402539 116 13973667404754502901
23557571 272 16515677849719938860
23559900 14 17749108898067439549
2748010 2 17483114843639623124
3286 77 18334576823929607668
42 15 18410012113245383631

>  <PUBCHEM_SHAPE_MULTIPOLES>  (1) 
277.46
8.76
1.78
0.98
4.26
0.21
-0.01
-4.09
-2.22
-2.15
-0.17
0.47
-0.23
0.38

>  <PUBCHEM_SHAPE_SELFOVERLAP>  (1) 
553.201

>  <PUBCHEM_SHAPE_VOLUME>  (1) 
167.1

>  <PUBCHEM_COORDINATE_TYPE>  (1) 
2
5
10

$$$$
