40350
     RDKit          3D

 21 22  0  0  0  0  0  0  0  0999 V2000
   -2.5312    0.5522    1.2684 O   0  0  0  0  0  0  0  0  0  0  0  0
   -2.6300    0.7804   -1.1294 O   0  0  0  0  0  0  0  0  0  0  0  0
    1.4286    1.2842   -0.0577 N   0  0  0  0  0  0  0  0  0  0  0  0
    4.7591   -0.3542   -0.3962 N   0  0  0  0  0  0  0  0  0  0  0  0
   -2.3633    1.4380    0.1340 C   0  0  0  0  0  0  0  0  0  0  0  0
   -0.9192    1.9379    0.1222 C   0  0  0  0  0  0  0  0  0  0  0  0
   -3.3380    2.6052    0.2854 C   0  0  0  0  0  0  0  0  0  0  0  0
    0.0588    0.7850   -0.0687 C   0  0  0  0  0  0  0  0  0  0  0  0
    2.3798    0.1951   -0.2288 C   0  0  0  0  0  0  0  0  0  0  0  0
   -2.8918   -0.6079    0.6528 C   0  0  0  0  0  0  0  0  0  0  0  0
   -2.9482   -0.4776   -0.7160 C   0  0  0  0  0  0  0  0  0  0  0  0
    3.8054    0.7389   -0.2426 C   0  0  0  0  0  0  0  0  0  0  0  0
   -4.7761    2.1253    0.2989 C   0  0  0  0  0  0  0  0  0  0  0  0
    4.9519   -1.0516    0.8762 C   0  0  0  0  0  0  0  0  0  0  0  0
    6.0389    0.1462   -0.9004 C   0  0  0  0  0  0  0  0  0  0  0  0
   -3.1780   -1.8022    1.2809 C   0  0  0  0  0  0  0  0  0  0  0  0
   -3.2941   -1.5344   -1.5324 C   0  0  0  0  0  0  0  0  0  0  0  0
   -3.5308   -2.8888    0.4771 C   0  0  0  0  0  0  0  0  0  0  0  0
   -3.5885   -2.7556   -0.9215 C   0  0  0  0  0  0  0  0  0  0  0  0
    5.8931   -2.2336    0.7172 C   0  0  0  0  0  0  0  0  0  0  0  0
    6.6735    1.1173    0.0807 C   0  0  0  0  0  0  0  0  0  0  0  0
  1  5  1  0
  1 10  1  0
  2  5  1  0
  2 11  1  0
  3  8  1  0
  3  9  1  0
  4 12  1  0
  4 14  1  0
  4 15  1  0
  5  6  1  0
  5  7  1  0
  6  8  1  0
  7 13  1  0
  9 12  1  0
 10 11  2  0
 10 16  1  0
 11 17  1  0
 14 20  1  0
 15 21  1  0
 16 18  2  0
 17 19  2  0
 18 19  1  0
M  END
>  <PUBCHEM_COMPOUND_CID>  (1) 
40350

>  <PUBCHEM_CONFORMER_RMSD>  (1) 
1

>  <PUBCHEM_CONFORMER_DIVERSEORDER>  (1) 
1
29
42
92
67
81
48
23
31
40
51
7
66
91
83
34
65
61
57
41
72
28
32
50
58
2
21
64
73
90
46
45
97
27
18
37
71
24
60
47
4
17
8
85
62
13
33
95
79
38
54
88
43
53
26
44
74
9
36
19
89
49
52
6
68
82
87
96
55
10
56
5
3
11
63
77
15
76
94
30
39
69
80
20
16
59
22
70
84
25
12
14
86
35
93
75
78

>  <PUBCHEM_MMFF94_PARTIAL_CHARGES>  (1) 
21
1 -0.36
10 0.08
11 0.08
12 0.27
14 0.27
15 0.27
16 -0.15
17 -0.15
18 -0.15
19 -0.15
2 -0.36
28 0.36
3 -0.9
4 -0.81
40 0.15
41 0.15
42 0.15
43 0.15
5 0.56
8 0.27
9 0.27

>  <PUBCHEM_EFFECTIVE_ROTOR_COUNT>  (1) 
9.6

>  <PUBCHEM_PHARMACOPHORE_FEATURES>  (1) 
8
1 1 acceptor
1 13 hydrophobe
1 2 acceptor
1 3 cation
1 3 donor
1 4 cation
5 1 2 5 10 11 rings
6 10 11 16 17 18 19 rings

>  <PUBCHEM_HEAVY_ATOM_COUNT>  (1) 
21

>  <PUBCHEM_ATOM_DEF_STEREO_COUNT>  (1) 
0

>  <PUBCHEM_ATOM_UDEF_STEREO_COUNT>  (1) 
0

>  <PUBCHEM_BOND_DEF_STEREO_COUNT>  (1) 
0

>  <PUBCHEM_BOND_UDEF_STEREO_COUNT>  (1) 
0

>  <PUBCHEM_ISOTOPIC_ATOM_COUNT>  (1) 
0

>  <PUBCHEM_COMPONENT_COUNT>  (1) 
1

>  <PUBCHEM_CACTVS_TAUTO_COUNT>  (1) 
1

>  <PUBCHEM_CONFORMER_ID>  (1) 
00009D9E00000001

>  <PUBCHEM_MMFF94_ENERGY>  (1) 
34.8846

>  <PUBCHEM_FEATURE_SELFOVERLAP>  (1) 
40.748

>  <PUBCHEM_SHAPE_FINGERPRINT>  (1) 
10483366 6 18129922561011901431
11315181 36 18261109716383769948
11405975 8 18342175566080437152
11796584 16 18342178813644866062
11809386 21 18334851740507471667
12596602 18 18272369789784662584
12616971 3 17168153334193913756
12760667 363 18340488988748281479
13167823 11 18335139778742433762
14844126 61 18342173388732153099
14866123 147 18411140251838243659
15250474 111 18335129874495706034
15849732 13 17749676203909522861
17093844 174 18201717345436431672
17780758 139 17489317403032002714
17844677 252 18272655688261572976
17857418 61 18334570248925586250
18927931 339 18341902921392502046
20681677 155 18410012091897654689
21054139 6 18187081798136510778
220451 1 18260836960644168788
2303208 19 17489319590130484892
23402539 116 18187086157064209484
23559900 14 18340758338341563545
23728640 28 18412546483996206275
27216 239 10807945889952818055
4015057 19 17631148884310029961
4073 2 18333735745512359104
44062 13 18411982438198480784
484985 159 18411132572194144887
5104073 3 18272367581770682648
5364581 5 18129082580856391192
559249 180 18337668612183243649
5924683 9 18341610438477817359
6431902 208 18335139843046208714
7970288 3 18050006889628702379
90127 26 14836123226581864984
9981440 41 17059496206281058349

>  <PUBCHEM_SHAPE_MULTIPOLES>  (1) 
410.47
15.26
3.1
1.13
30.27
1.02
0.07
2.86
-0.19
-4.14
-0.3
-0.65
0.49
-1.24

>  <PUBCHEM_SHAPE_SELFOVERLAP>  (1) 
837.93

>  <PUBCHEM_SHAPE_VOLUME>  (1) 
240

>  <PUBCHEM_COORDINATE_TYPE>  (1) 
2
5
10

$$$$
