4036
     RDKit          3D

 19 20  0  0  0  0  0  0  0  0999 V2000
    1.3828   -0.1219   -2.4871 Cl  0  0  0  0  0  0  0  0  0  0  0  0
    0.8921    0.8195    2.8550 Cl  0  0  0  0  0  0  0  0  0  0  0  0
   -1.7738    2.3657   -0.4582 O   0  0  0  0  0  0  0  0  0  0  0  0
   -3.9877    1.9439   -0.5948 O   0  0  0  0  0  0  0  0  0  0  0  0
   -0.1156    0.5328    0.0242 N   0  0  0  0  0  0  0  0  0  0  0  0
    1.2662    0.3283    0.1931 C   0  0  0  0  0  0  0  0  0  0  0  0
   -1.2240   -0.3414    0.0735 C   0  0  0  0  0  0  0  0  0  0  0  0
    3.4470   -0.1862   -0.7324 C   0  0  0  0  0  0  0  0  0  0  0  0
    2.0774    0.0156   -0.9039 C   0  0  0  0  0  0  0  0  0  0  0  0
    1.8432    0.4360    1.4637 C   0  0  0  0  0  0  0  0  0  0  0  0
   -2.5195    0.1324   -0.1340 C   0  0  0  0  0  0  0  0  0  0  0  0
    4.0146   -0.0772    0.5370 C   0  0  0  0  0  0  0  0  0  0  0  0
    3.2128    0.2340    1.6351 C   0  0  0  0  0  0  0  0  0  0  0  0
   -1.0098   -1.6950    0.3338 C   0  0  0  0  0  0  0  0  0  0  0  0
    4.3462   -0.5217   -1.8789 C   0  0  0  0  0  0  0  0  0  0  0  0
   -3.6006   -0.7475   -0.0811 C   0  0  0  0  0  0  0  0  0  0  0  0
   -2.0909   -2.5748    0.3867 C   0  0  0  0  0  0  0  0  0  0  0  0
   -3.3862   -2.1011    0.1792 C   0  0  0  0  0  0  0  0  0  0  0  0
   -2.7743    1.5585   -0.4109 C   0  0  0  0  0  0  0  0  0  0  0  0
  1  9  1  0
  2 10  1  0
  3 19  1  0
  4 19  2  0
  5  6  1  0
  5  7  1  0
  6  9  1  0
  6 10  2  0
  7 11  2  0
  7 14  1  0
  8  9  2  0
  8 12  1  0
  8 15  1  0
 10 13  1  0
 11 16  1  0
 11 19  1  0
 12 13  2  0
 14 17  2  0
 16 18  2  0
 17 18  1  0
M  CHG  1   3  -1
M  END
>  <PUBCHEM_COMPOUND_CID>  (1) 
4036

>  <PUBCHEM_CONFORMER_RMSD>  (1) 
0.6

>  <PUBCHEM_CONFORMER_DIVERSEORDER>  (1) 
1
10
9
6
5
12
11
7
8
4
3
2

>  <PUBCHEM_MMFF94_PARTIAL_CHARGES>  (1) 
26
1 -0.18
10 0.18
11 -0.18
12 -0.15
13 -0.15
14 -0.15
15 0.14
16 -0.15
17 -0.15
18 -0.15
19 0.98
2 -0.18
20 0.4
21 0.15
22 0.15
23 0.15
27 0.15
28 0.15
29 0.15
3 -0.9
4 -0.9
5 -0.6
6 0.1
7 0.1
8 -0.14
9 0.18

>  <PUBCHEM_EFFECTIVE_ROTOR_COUNT>  (1) 
3

>  <PUBCHEM_PHARMACOPHORE_FEATURES>  (1) 
7
1 3 acceptor
1 4 acceptor
1 5 cation
1 5 donor
3 3 4 19 anion
6 6 8 9 10 12 13 rings
6 7 11 14 16 17 18 rings

>  <PUBCHEM_HEAVY_ATOM_COUNT>  (1) 
19

>  <PUBCHEM_ATOM_DEF_STEREO_COUNT>  (1) 
0

>  <PUBCHEM_ATOM_UDEF_STEREO_COUNT>  (1) 
0

>  <PUBCHEM_BOND_DEF_STEREO_COUNT>  (1) 
0

>  <PUBCHEM_BOND_UDEF_STEREO_COUNT>  (1) 
0

>  <PUBCHEM_ISOTOPIC_ATOM_COUNT>  (1) 
0

>  <PUBCHEM_COMPONENT_COUNT>  (1) 
1

>  <PUBCHEM_CACTVS_TAUTO_COUNT>  (1) 
2

>  <PUBCHEM_CONFORMER_ID>  (1) 
00000FC400000001

>  <PUBCHEM_MMFF94_ENERGY>  (1) 
75.4464

>  <PUBCHEM_FEATURE_SELFOVERLAP>  (1) 
35.582

>  <PUBCHEM_SHAPE_FINGERPRINT>  (1) 
11543360 7 18262817258199831324
11582403 64 16403018520667314673
11615757 297 15864069896704476219
11725454 13 17412697870799899697
11796584 16 18340210670657221966
12236239 1 17313099756737812370
12500047 106 18410285883108950006
12553582 1 18116717524471643699
12596599 1 16660362584544929338
12714826 92 18342469174086213346
13009979 54 17604414233225521626
13134695 92 16774078466820055472
13296908 3 17775570853214146526
13538477 17 17967525779187183505
13583140 156 18130772465576392982
14294032 229 18115583726826871605
15653759 3 18201720677808645026
16752209 62 18187630436826391651
16945 1 18335416889457553707
18186145 218 18131354076729880673
18219364 16 17060331963560946430
19049666 15 18060140886157927538
19422 9 17385719192796560586
19862831 5 16877937286717333722
20600515 1 18265038292962867121
20645476 183 17167864179778604779
20645477 70 16917067746272384086
21618674 53 17458073650510215496
21639500 275 16128081364722649970
22112679 90 17603856810694711980
23175994 123 17418104212512680136
23402539 116 18339909507460262087
23526113 38 17703224001486561594
23557571 272 18340484573073476048
23559900 14 18341897347210637038
23598291 2 17095516258340347526
23598294 1 18186517713710167929
474 4 16444766058472682060
6049 1 18131351959311120760
6992083 37 17530956947715650375
77492 1 17313097557809502448
81228 2 18337949112540014507

>  <PUBCHEM_SHAPE_MULTIPOLES>  (1) 
378.03
7.6
2.08
1.95
1.09
0.71
-0.09
-1.76
-0.12
2.24
0.07
-2.88
-0.2
1.55

>  <PUBCHEM_SHAPE_SELFOVERLAP>  (1) 
797.488

>  <PUBCHEM_SHAPE_VOLUME>  (1) 
213.3

>  <PUBCHEM_COORDINATE_TYPE>  (1) 
2
5
10

$$$$
