40367
     RDKit          3D

 22 23  0  0  0  0  0  0  0  0999 V2000
   -4.3914    3.2909    1.3919 Br  0  0  0  0  0  0  0  0  0  0  0  0
   -4.4536    2.9186   -2.0469 Br  0  0  0  0  0  0  0  0  0  0  0  0
   -2.1238   -1.4579    1.3375 O   0  0  0  0  0  0  0  0  0  0  0  0
   -2.1675   -1.7176   -1.0586 O   0  0  0  0  0  0  0  0  0  0  0  0
    1.9106   -1.4834    0.0754 N   0  0  0  0  0  0  0  0  0  0  0  0
    4.9023    0.7255   -0.1728 N   0  0  0  0  0  0  0  0  0  0  0  0
   -1.7962   -2.3087    0.2112 C   0  0  0  0  0  0  0  0  0  0  0  0
   -0.2864   -2.5452    0.2094 C   0  0  0  0  0  0  0  0  0  0  0  0
    0.4749   -1.2300    0.0940 C   0  0  0  0  0  0  0  0  0  0  0  0
    2.6561   -0.2384   -0.0447 C   0  0  0  0  0  0  0  0  0  0  0  0
    4.1556   -0.5201   -0.0347 C   0  0  0  0  0  0  0  0  0  0  0  0
   -2.5506   -3.6284    0.3678 C   0  0  0  0  0  0  0  0  0  0  0  0
   -2.6810   -0.3846    0.7110 C   0  0  0  0  0  0  0  0  0  0  0  0
   -2.7060   -0.5329   -0.6568 C   0  0  0  0  0  0  0  0  0  0  0  0
    6.3418    0.4623   -0.2011 C   0  0  0  0  0  0  0  0  0  0  0  0
    4.5752    1.6456    0.9175 C   0  0  0  0  0  0  0  0  0  0  0  0
   -3.1777    0.7446    1.3282 C   0  0  0  0  0  0  0  0  0  0  0  0
   -3.2293    0.4397   -1.4833 C   0  0  0  0  0  0  0  0  0  0  0  0
    6.7036   -0.4915   -1.3269 C   0  0  0  0  0  0  0  0  0  0  0  0
    5.2962    2.9726    0.7512 C   0  0  0  0  0  0  0  0  0  0  0  0
   -3.7136    1.7452    0.5141 C   0  0  0  0  0  0  0  0  0  0  0  0
   -3.7393    1.5937   -0.8836 C   0  0  0  0  0  0  0  0  0  0  0  0
  1 21  1  0
  2 22  1  0
  3  7  1  0
  3 13  1  0
  4  7  1  0
  4 14  1  0
  5  9  1  0
  5 10  1  0
  6 11  1  0
  6 15  1  0
  6 16  1  0
  7  8  1  0
  7 12  1  0
  8  9  1  0
 10 11  1  0
 13 14  2  0
 13 17  1  0
 14 18  1  0
 15 19  1  0
 16 20  1  0
 17 21  2  0
 18 22  2  0
 21 22  1  0
M  END
>  <PUBCHEM_COMPOUND_CID>  (1) 
40367

>  <PUBCHEM_CONFORMER_RMSD>  (1) 
0.8

>  <PUBCHEM_CONFORMER_DIVERSEORDER>  (1) 
2
126
28
10
67
18
86
129
71
106
148
56
8
76
77
27
51
3
69
66
90
149
49
125
21
152
14
127
1
32
59
109
110
70
43
135
41
17
46
79
20
84
101
58
11
68
112
15
62
57
87
6
150
24
120
138
25
23
31
139
61
137
60
96
104
37
91
114
33
105
38
88
72
136
50
4
98
100
130
115
82
92
103
39
113
22
52
151
42
111
29
54
118
48
63
7
97
89
131
34
45
142
147
94
19
140
65
81
12
26
53
133
83
123
116
9
141
128
64
5
119
80
30
146
73
93
145
143
154
44
75
117
40
121
35
47
36
132
134
108
107
85
74
13
144
124
122
78
16
102
153
95
99
55

>  <PUBCHEM_MMFF94_PARTIAL_CHARGES>  (1) 
21
1 -0.11
10 0.27
11 0.27
13 0.08
14 0.08
15 0.27
16 0.27
17 -0.15
18 -0.15
2 -0.11
21 0.11
22 0.11
3 -0.36
34 0.36
39 0.15
4 -0.36
40 0.15
5 -0.9
6 -0.81
7 0.56
9 0.27

>  <PUBCHEM_EFFECTIVE_ROTOR_COUNT>  (1) 
8.6

>  <PUBCHEM_PHARMACOPHORE_FEATURES>  (1) 
9
1 1 hydrophobe
1 2 hydrophobe
1 3 acceptor
1 4 acceptor
1 5 cation
1 5 donor
1 6 cation
5 3 4 7 13 14 rings
6 13 14 17 18 21 22 rings

>  <PUBCHEM_HEAVY_ATOM_COUNT>  (1) 
22

>  <PUBCHEM_ATOM_DEF_STEREO_COUNT>  (1) 
0

>  <PUBCHEM_ATOM_UDEF_STEREO_COUNT>  (1) 
0

>  <PUBCHEM_BOND_DEF_STEREO_COUNT>  (1) 
0

>  <PUBCHEM_BOND_UDEF_STEREO_COUNT>  (1) 
0

>  <PUBCHEM_ISOTOPIC_ATOM_COUNT>  (1) 
0

>  <PUBCHEM_COMPONENT_COUNT>  (1) 
1

>  <PUBCHEM_CACTVS_TAUTO_COUNT>  (1) 
1

>  <PUBCHEM_CONFORMER_ID>  (1) 
00009DAF00000002

>  <PUBCHEM_MMFF94_ENERGY>  (1) 
38.0164

>  <PUBCHEM_FEATURE_SELFOVERLAP>  (1) 
45.822

>  <PUBCHEM_SHAPE_FINGERPRINT>  (1) 
10928967 22 8358258202383400264
11370993 144 18412267203552637630
12107183 9 18263918831549780866
12390115 104 18337117778211466047
12596602 18 14201405971620189292
12616971 3 14332861443033045186
13103583 49 13623823669789580013
14142880 1 17967807250438938311
14251764 38 18270682107697112696
14251764 75 17985840220218697329
14848178 96 18340760468993021248
14950920 106 14707223114127866412
15183329 4 18341334410342785350
16120349 189 17677042430964728085
16994733 274 16880162604769936535
17834072 32 18411982429613912048
17844677 252 18266746955886731194
18927931 339 9295290555809893354
20645477 56 18410301306405439091
21279426 13 18341901766974817990
21315764 268 18269274732802431792
21401589 2 18188495675131019721
22956985 138 15881524978888175378
2303208 19 12107778589698052410
27216 239 18259989284012454227
283562 15 18263639727110576827
2838139 119 18201436922146511672
314194 84 8862068689204572943
474 4 18050844413046620683
497634 4 16557632030517262871
508706 21 18335972172978988100
5104073 3 18187077369724724434
531348 171 17846499206051028638
57724786 102 18193280684893872850
58260988 647 10014134723312989041
6327066 14 18115018602807108277
633830 44 17841154351426822647
7288768 16 18188784838014560603
90127 26 18264212573010617058

>  <PUBCHEM_SHAPE_MULTIPOLES>  (1) 
442.93
14.98
4.12
1.52
28.34
0.33
0.38
-12.56
2.46
-3.98
-0.77
-1.82
-1.06
1.46

>  <PUBCHEM_SHAPE_SELFOVERLAP>  (1) 
879.965

>  <PUBCHEM_SHAPE_VOLUME>  (1) 
271.8

>  <PUBCHEM_COORDINATE_TYPE>  (1) 
2
5
10

$$$$
