40363
     RDKit          3D

 21 22  0  0  1  0  0  0  0  0999 V2000
   -4.3795    3.6980    0.5557 Cl  0  0  0  0  0  0  0  0  0  0  0  0
   -2.4534   -1.0120    1.3070 O   0  0  0  0  0  0  0  0  0  0  0  0
   -2.4398   -1.5600   -1.0402 O   0  0  0  0  0  0  0  0  0  0  0  0
    1.6089   -1.4276    0.2115 N   0  0  0  0  0  0  0  0  0  0  0  0
    4.7395    0.5553   -0.1869 N   0  0  0  0  0  0  0  0  0  0  0  0
   -2.1446   -2.0116    0.3045 C   0  0  0  0  0  0  0  0  0  0  0  0
   -0.6534   -2.3346    0.3887 C   0  0  0  0  0  0  0  0  0  0  0  0
    0.1921   -1.0904    0.1447 C   0  0  0  0  0  0  0  0  0  0  0  0
    2.4345   -0.2525   -0.0293 C   0  0  0  0  0  0  0  0  0  0  0  0
    3.9123   -0.6182    0.0719 C   0  0  0  0  0  0  0  0  0  0  0  0
   -2.9842   -3.2562    0.5902 C   0  0  0  0  0  0  0  0  0  0  0  0
   -2.9221    0.0075    0.5353 C   0  0  0  0  0  0  0  0  0  0  0  0
   -2.9142   -0.3052   -0.8048 C   0  0  0  0  0  0  0  0  0  0  0  0
    6.1599    0.2069   -0.1284 C   0  0  0  0  0  0  0  0  0  0  0  0
    4.4375    1.6196    0.7714 C   0  0  0  0  0  0  0  0  0  0  0  0
   -3.3664    1.2307    0.9929 C   0  0  0  0  0  0  0  0  0  0  0  0
   -3.3497    0.5879   -1.7616 C   0  0  0  0  0  0  0  0  0  0  0  0
    6.4955   -0.8974   -1.1164 C   0  0  0  0  0  0  0  0  0  0  0  0
    5.2450    2.8716    0.4741 C   0  0  0  0  0  0  0  0  0  0  0  0
   -3.8131    2.1538    0.0445 C   0  0  0  0  0  0  0  0  0  0  0  0
   -3.8048    1.8344   -1.3249 C   0  0  0  0  0  0  0  0  0  0  0  0
  1 20  1  0
  2  6  1  0
  2 12  1  0
  3  6  1  0
  3 13  1  0
  4  8  1  0
  4  9  1  0
  5 10  1  0
  5 14  1  0
  5 15  1  0
  6  7  1  0
  6 11  1  0
  7  8  1  0
  9 10  1  0
 12 13  2  0
 12 16  1  0
 13 17  1  0
 14 18  1  0
 15 19  1  0
 16 20  2  0
 17 21  2  0
 20 21  1  0
M  END
>  <PUBCHEM_COMPOUND_CID>  (1) 
40363

>  <PUBCHEM_CONFORMER_RMSD>  (1) 
0.8

>  <PUBCHEM_CONFORMER_DIVERSEORDER>  (1) 
2
188
55
123
75
168
165
45
22
68
91
132
220
69
114
12
216
108
156
104
121
102
71
5
83
94
129
195
77
88
107
152
115
211
8
54
65
207
125
92
178
136
127
6
73
96
110
81
138
173
28
150
170
57
119
191
124
9
164
10
189
19
13
181
117
221
141
49
30
7
171
196
85
174
137
61
41
72
135
26
179
93
29
148
103
144
193
89
183
62
35
101
118
158
3
27
64
161
111
162
143
184
14
149
44
217
202
84
31
32
180
203
112
1
56
58
218
139
206
153
182
51
66
215
98
223
185
186
52
213
82
219
192
34
113
90
63
194
226
76
39
120
21
97
11
140
134
222
40
142
99
210
48
151
38
175
53
145
187
131
199
130
74
109
201
159
20
24
224
160
208
4
172
204
200
59
157
177
212
106
67
214
70
87
155
50
154
79
225
60
167
42
18
116
36
128
100
169
95
15
190
209
25
227
33
147
163
17
133
105
80
146
43
47
23
78
166
37
126
198
122
16
86
46
176
197
205

>  <PUBCHEM_MMFF94_PARTIAL_CHARGES>  (1) 
21
1 -0.18
10 0.27
12 0.08
13 0.08
14 0.27
15 0.27
16 -0.15
17 -0.15
2 -0.36
20 0.18
21 -0.15
3 -0.36
33 0.36
38 0.15
39 0.15
4 -0.9
46 0.15
5 -0.81
6 0.56
8 0.27
9 0.27

>  <PUBCHEM_EFFECTIVE_ROTOR_COUNT>  (1) 
8.6

>  <PUBCHEM_PHARMACOPHORE_FEATURES>  (1) 
7
1 2 acceptor
1 3 acceptor
1 4 cation
1 4 donor
1 5 cation
5 2 3 6 12 13 rings
6 12 13 16 17 20 21 rings

>  <PUBCHEM_HEAVY_ATOM_COUNT>  (1) 
21

>  <PUBCHEM_ATOM_DEF_STEREO_COUNT>  (1) 
0

>  <PUBCHEM_ATOM_UDEF_STEREO_COUNT>  (1) 
1

>  <PUBCHEM_BOND_DEF_STEREO_COUNT>  (1) 
0

>  <PUBCHEM_BOND_UDEF_STEREO_COUNT>  (1) 
0

>  <PUBCHEM_ISOTOPIC_ATOM_COUNT>  (1) 
0

>  <PUBCHEM_COMPONENT_COUNT>  (1) 
1

>  <PUBCHEM_CACTVS_TAUTO_COUNT>  (1) 
1

>  <PUBCHEM_CONFORMER_ID>  (1) 
00009DAB00000002

>  <PUBCHEM_MMFF94_ENERGY>  (1) 
34.6255

>  <PUBCHEM_FEATURE_SELFOVERLAP>  (1) 
35.674

>  <PUBCHEM_SHAPE_FINGERPRINT>  (1) 
11370993 144 18337673018919890558
11405975 8 18335697235417197346
12107183 9 18118111482098800434
12390115 104 18334301924585062335
12596602 18 13695876896236275092
12616971 3 14907911517533335538
14142880 1 18260267426452985871
14251764 38 18340205314490144700
14251764 75 17984145851399466753
14848178 96 18410847751147474152
14950920 106 13984957207191467108
15183329 4 18410292472480475062
17834072 32 18410291372029805016
17844677 252 18337115682810640482
18927931 339 10159699118308602312
20645477 56 18408328769781567867
21054139 6 12103844536956888724
21279426 13 18341337717467486342
21315759 148 13840551701375925792
21709351 56 18272934947193122478
22182937 141 18408887334778686009
22956985 138 15951898112374638443
270888 7 18194120716352496817
27216 239 18259989271222341987
283562 15 18261669393799627835
2838139 119 18342172215789349796
474 4 17977659806757879547
497634 4 16987165035463850667
508706 21 18339913892068353472
5104073 3 18040990744320288850
5283173 99 18412825811468475376
531348 171 18060135406138867790
57724786 102 18117559518112136714
59124914 9 18337392622074877762
6328613 192 18260275174859221108
7288768 16 18042133059512833361
90127 26 18262805180873309090

>  <PUBCHEM_SHAPE_MULTIPOLES>  (1) 
412.34
14.56
3.72
1.19
26.28
1.2
-0.33
8.61
-1.82
-3.98
0.99
-0.93
0.14
1.11

>  <PUBCHEM_SHAPE_SELFOVERLAP>  (1) 
835.594

>  <PUBCHEM_SHAPE_VOLUME>  (1) 
242.8

>  <PUBCHEM_COORDINATE_TYPE>  (1) 
2
5
10

$$$$
