40371
     RDKit          3D

 20 21  0  0  0  0  0  0  0  0999 V2000
   -2.7146   -0.7082    1.3157 O   0  0  0  0  0  0  0  0  0  0  0  0
   -2.7649   -1.0977   -1.0625 O   0  0  0  0  0  0  0  0  0  0  0  0
    1.2932   -1.3579    0.1369 N   0  0  0  0  0  0  0  0  0  0  0  0
    4.5632    0.4031   -0.1751 N   0  0  0  0  0  0  0  0  0  0  0  0
   -2.4932   -1.6593    0.2453 C   0  0  0  0  0  0  0  0  0  0  0  0
   -1.0304   -2.0999    0.2865 C   0  0  0  0  0  0  0  0  0  0  0  0
   -0.0941   -0.9101    0.1129 C   0  0  0  0  0  0  0  0  0  0  0  0
    2.2044   -0.2357   -0.0379 C   0  0  0  0  0  0  0  0  0  0  0  0
    3.6506   -0.7187    0.0177 C   0  0  0  0  0  0  0  0  0  0  0  0
   -3.4233   -2.8525    0.4605 C   0  0  0  0  0  0  0  0  0  0  0  0
   -3.1126    0.3927    0.6197 C   0  0  0  0  0  0  0  0  0  0  0  0
   -3.1412    0.1704   -0.7380 C   0  0  0  0  0  0  0  0  0  0  0  0
    5.9530   -0.0556   -0.1601 C   0  0  0  0  0  0  0  0  0  0  0  0
    4.3528    1.4209    0.8555 C   0  0  0  0  0  0  0  0  0  0  0  0
   -3.4577    1.6126    1.1632 C   0  0  0  0  0  0  0  0  0  0  0  0
   -3.5165    1.1558   -1.6275 C   0  0  0  0  0  0  0  0  0  0  0  0
    6.1934   -1.1138   -1.2234 C   0  0  0  0  0  0  0  0  0  0  0  0
    5.2515    2.6249    0.6295 C   0  0  0  0  0  0  0  0  0  0  0  0
   -3.8421    2.6280    0.2842 C   0  0  0  0  0  0  0  0  0  0  0  0
   -3.8714    2.4009   -1.1031 C   0  0  0  0  0  0  0  0  0  0  0  0
  1  5  1  0
  1 11  1  0
  2  5  1  0
  2 12  1  0
  3  7  1  0
  3  8  1  0
  4  9  1  0
  4 13  1  0
  4 14  1  0
  5  6  1  0
  5 10  1  0
  6  7  1  0
  8  9  1  0
 11 12  2  0
 11 15  1  0
 12 16  1  0
 13 17  1  0
 14 18  1  0
 15 19  2  0
 16 20  2  0
 19 20  1  0
M  END
>  <PUBCHEM_COMPOUND_CID>  (1) 
40371

>  <PUBCHEM_CONFORMER_RMSD>  (1) 
0.8

>  <PUBCHEM_CONFORMER_DIVERSEORDER>  (1) 
1
125
91
38
118
124
77
137
80
95
107
4
56
65
16
149
7
104
103
50
96
98
41
30
26
57
86
9
115
2
81
128
119
112
63
51
42
145
102
28
58
6
85
24
21
139
100
31
17
146
40
43
76
130
60
5
133
92
15
147
52
116
8
122
84
32
33
69
62
151
99
74
105
88
19
46
72
27
108
142
79
55
148
3
29
48
97
53
127
37
117
121
134
82
110
22
101
12
135
68
106
20
120
111
143
131
141
18
89
34
54
66
71
113
35
44
94
75
49
61
138
45
87
136
25
64
67
47
78
39
23
14
114
83
10
70
129
36
13
90
123
93
59
144
11
73
132
109
126
140
150

>  <PUBCHEM_MMFF94_PARTIAL_CHARGES>  (1) 
21
1 -0.36
11 0.08
12 0.08
13 0.27
14 0.27
15 -0.15
16 -0.15
19 -0.15
2 -0.36
20 -0.15
3 -0.9
32 0.36
37 0.15
38 0.15
4 -0.81
45 0.15
46 0.15
5 0.56
7 0.27
8 0.27
9 0.27

>  <PUBCHEM_EFFECTIVE_ROTOR_COUNT>  (1) 
8.6

>  <PUBCHEM_PHARMACOPHORE_FEATURES>  (1) 
7
1 1 acceptor
1 2 acceptor
1 3 cation
1 3 donor
1 4 cation
5 1 2 5 11 12 rings
6 11 12 15 16 19 20 rings

>  <PUBCHEM_HEAVY_ATOM_COUNT>  (1) 
20

>  <PUBCHEM_ATOM_DEF_STEREO_COUNT>  (1) 
0

>  <PUBCHEM_ATOM_UDEF_STEREO_COUNT>  (1) 
0

>  <PUBCHEM_BOND_DEF_STEREO_COUNT>  (1) 
0

>  <PUBCHEM_BOND_UDEF_STEREO_COUNT>  (1) 
0

>  <PUBCHEM_ISOTOPIC_ATOM_COUNT>  (1) 
0

>  <PUBCHEM_COMPONENT_COUNT>  (1) 
1

>  <PUBCHEM_CACTVS_TAUTO_COUNT>  (1) 
1

>  <PUBCHEM_CONFORMER_ID>  (1) 
00009DB300000001

>  <PUBCHEM_MMFF94_ENERGY>  (1) 
33.9281

>  <PUBCHEM_FEATURE_SELFOVERLAP>  (1) 
35.674

>  <PUBCHEM_SHAPE_FINGERPRINT>  (1) 
10680689 15 18261116300352460730
11089746 13 18411691072576764582
11405975 8 18408881811614585714
11545043 162 18410578409653841314
12107183 9 18045208346328434770
12616971 3 14692578749312717194
14142880 1 18040995121097457399
14251764 38 18337670944472564760
14251764 75 17624138196445342385
14848178 96 18412256221268858440
15183329 4 18339925910088155686
16994733 274 16662584625400224285
17093844 174 18408319982795185154
17834072 32 18410572842801303593
17844677 252 18338241565458473170
18927931 339 9799688220675158144
19433438 28 18337113470644202378
20645477 56 18409174277185746811
21054139 6 12607398876493229340
21279426 13 18341338786861855486
21315764 268 18340204202008666880
21709351 56 18201721760820996342
22956985 138 16168914207217157867
23402539 116 13039192494136178722
23559900 14 18200594697057429778
27216 239 18187651284623702073
283562 15 18262232330968289563
2838139 119 18192700168793496165
341906 21 18335968857559407736
497634 4 17130997631982177867
5104073 3 18187359926848440946
531348 171 18131067095901217182
633830 44 18412537726547658526
90127 26 18335144232623598018

>  <PUBCHEM_SHAPE_MULTIPOLES>  (1) 
389.89
14.27
3.04
1.2
23.96
0.55
-0.22
5.31
-1.76
-2.52
0.38
-0.72
0.32
1.82

>  <PUBCHEM_SHAPE_SELFOVERLAP>  (1) 
796.637

>  <PUBCHEM_SHAPE_VOLUME>  (1) 
228.3

>  <PUBCHEM_COORDINATE_TYPE>  (1) 
2
5
10

$$$$
