4037
     RDKit          3D

 19 20  0  0  0  0  0  0  0  0999 V2000
    1.3615   -0.4334   -2.4629 Cl  0  0  0  0  0  0  0  0  0  0  0  0
    0.9436    1.1817    2.7219 Cl  0  0  0  0  0  0  0  0  0  0  0  0
   -3.8813    1.5631   -1.3395 O   0  0  0  0  0  0  0  0  0  0  0  0
   -2.0978    2.4822   -0.2914 O   0  0  0  0  0  0  0  0  0  0  0  0
   -0.1023    0.5398   -0.0358 N   0  0  0  0  0  0  0  0  0  0  0  0
    1.2812    0.3546    0.1396 C   0  0  0  0  0  0  0  0  0  0  0  0
   -1.2109   -0.3184    0.1391 C   0  0  0  0  0  0  0  0  0  0  0  0
    3.4491   -0.2795   -0.7416 C   0  0  0  0  0  0  0  0  0  0  0  0
    2.0775   -0.0974   -0.9194 C   0  0  0  0  0  0  0  0  0  0  0  0
   -2.5087    0.1282   -0.1102 C   0  0  0  0  0  0  0  0  0  0  0  0
    1.8756    0.6217    1.3784 C   0  0  0  0  0  0  0  0  0  0  0  0
    4.0337   -0.0113    0.4960 C   0  0  0  0  0  0  0  0  0  0  0  0
   -0.9943   -1.6284    0.5669 C   0  0  0  0  0  0  0  0  0  0  0  0
    3.2471    0.4393    1.5560 C   0  0  0  0  0  0  0  0  0  0  0  0
   -3.5896   -0.7353    0.0681 C   0  0  0  0  0  0  0  0  0  0  0  0
    4.3324   -0.7606   -1.8478 C   0  0  0  0  0  0  0  0  0  0  0  0
   -2.0752   -2.4917    0.7451 C   0  0  0  0  0  0  0  0  0  0  0  0
   -3.3728   -2.0452    0.4958 C   0  0  0  0  0  0  0  0  0  0  0  0
   -2.7688    1.4905   -0.5581 C   0  0  0  0  0  0  0  0  0  0  0  0
  1  9  1  0
  2 11  1  0
  3 19  1  0
  4 19  2  0
  5  6  1  0
  5  7  1  0
  6  9  1  0
  6 11  2  0
  7 10  2  0
  7 13  1  0
  8  9  2  0
  8 12  1  0
  8 16  1  0
 10 15  1  0
 10 19  1  0
 11 14  1  0
 12 14  2  0
 13 17  2  0
 15 18  2  0
 17 18  1  0
M  END
>  <PUBCHEM_COMPOUND_CID>  (1) 
4037

>  <PUBCHEM_CONFORMER_RMSD>  (1) 
0.6

>  <PUBCHEM_CONFORMER_DIVERSEORDER>  (1) 
1
8
18
17
16
15
6
13
14
3
7
20
19
11
5
9
4
10
12
2

>  <PUBCHEM_MMFF94_PARTIAL_CHARGES>  (1) 
27
1 -0.18
10 0.09
11 0.18
12 -0.15
13 -0.15
14 -0.15
15 -0.15
16 0.14
17 -0.15
18 -0.15
19 0.63
2 -0.18
20 0.4
21 0.15
22 0.15
23 0.15
24 0.15
28 0.15
29 0.15
3 -0.65
30 0.5
4 -0.57
5 -0.6
6 0.1
7 0.1
8 -0.14
9 0.18

>  <PUBCHEM_EFFECTIVE_ROTOR_COUNT>  (1) 
3

>  <PUBCHEM_PHARMACOPHORE_FEATURES>  (1) 
7
1 3 acceptor
1 4 acceptor
1 5 cation
1 5 donor
3 3 4 19 anion
6 6 8 9 11 12 14 rings
6 7 10 13 15 17 18 rings

>  <PUBCHEM_HEAVY_ATOM_COUNT>  (1) 
19

>  <PUBCHEM_ATOM_DEF_STEREO_COUNT>  (1) 
0

>  <PUBCHEM_ATOM_UDEF_STEREO_COUNT>  (1) 
0

>  <PUBCHEM_BOND_DEF_STEREO_COUNT>  (1) 
0

>  <PUBCHEM_BOND_UDEF_STEREO_COUNT>  (1) 
0

>  <PUBCHEM_ISOTOPIC_ATOM_COUNT>  (1) 
0

>  <PUBCHEM_COMPONENT_COUNT>  (1) 
1

>  <PUBCHEM_CACTVS_TAUTO_COUNT>  (1) 
2

>  <PUBCHEM_CONFORMER_ID>  (1) 
00000FC500000001

>  <PUBCHEM_MMFF94_ENERGY>  (1) 
75.9659

>  <PUBCHEM_FEATURE_SELFOVERLAP>  (1) 
35.58

>  <PUBCHEM_SHAPE_FINGERPRINT>  (1) 
11543360 7 18188508963849263934
11582403 64 16617502470111311625
11640471 11 17167864127790656461
11725454 13 17626338490525117865
11796584 16 18337393717587729598
12236239 1 17022897956316626096
12500047 106 18335130964847245030
12596599 1 16370444458060347290
12714826 92 18340218469510261650
12788726 201 17604158133184932827
13009979 54 17458611303369858704
13134695 92 17203890760562789392
13296908 3 17989211460054443434
13538477 17 17821721741256357969
13583140 156 18200859743356731402
14294032 229 17968933073532424301
15653759 3 18343586269367939530
16752209 62 18040983082056434075
16945 1 18334575758756755867
17357779 13 17346607326903767616
18186145 218 18272935990031197352
18219364 16 17346875688880911518
19049666 15 18201721699942289762
19422 9 17022897952095622586
200 152 15841548557230662973
20600515 1 18263069076243253161
20645476 183 17022906757153151467
20645477 70 17275103916685339726
21618674 53 17167874040464366768
21639500 275 16486681584584804456
22112679 90 17313375738593867380
23175994 123 17704083884114839864
23402539 116 18337941368682370439
23526113 38 17917703561653252544
23557571 272 18337670931307691944
23559900 14 18411420566957116702
23598291 2 16732975397399544110
3286 77 17417541331605971379
474 4 14691421010829101714
57527295 17 17701539502538977743
6049 1 18272934967839679888
6992083 37 17313096415269054685
7615 1 17022892484554697260
77492 1 17022616481387394760
81228 2 18335984280955584115

>  <PUBCHEM_SHAPE_MULTIPOLES>  (1) 
378.03
7.62
2.11
1.94
1.27
0.7
0.02
-1.95
-0.02
2.46
-0.14
-3.15
-0.2
0.94

>  <PUBCHEM_SHAPE_SELFOVERLAP>  (1) 
797.174

>  <PUBCHEM_SHAPE_VOLUME>  (1) 
213.7

>  <PUBCHEM_COORDINATE_TYPE>  (1) 
2
5
10

$$$$
