40375
     RDKit          3D

 21 22  0  0  1  0  0  0  0  0999 V2000
   -2.4607   -0.9989    1.3063 O   0  0  0  0  0  0  0  0  0  0  0  0
   -2.4515   -1.5296   -1.0452 O   0  0  0  0  0  0  0  0  0  0  0  0
    1.5985   -1.4275    0.2023 N   0  0  0  0  0  0  0  0  0  0  0  0
    4.7387    0.5421   -0.1854 N   0  0  0  0  0  0  0  0  0  0  0  0
   -2.1580   -1.9928    0.2961 C   0  0  0  0  0  0  0  0  0  0  0  0
   -0.6683   -2.3240    0.3758 C   0  0  0  0  0  0  0  0  0  0  0  0
    0.1833   -1.0824    0.1401 C   0  0  0  0  0  0  0  0  0  0  0  0
   -3.0039   -3.2351    0.5736 C   0  0  0  0  0  0  0  0  0  0  0  0
    2.4298   -0.2550   -0.0306 C   0  0  0  0  0  0  0  0  0  0  0  0
    3.9058   -0.6290    0.0656 C   0  0  0  0  0  0  0  0  0  0  0  0
   -2.9257    0.0282    0.5423 C   0  0  0  0  0  0  0  0  0  0  0  0
   -2.9204   -0.2746   -0.7999 C   0  0  0  0  0  0  0  0  0  0  0  0
    4.4436    1.6007    0.7815 C   0  0  0  0  0  0  0  0  0  0  0  0
    6.1574    0.1859   -0.1315 C   0  0  0  0  0  0  0  0  0  0  0  0
   -3.3630    1.2504    1.0092 C   0  0  0  0  0  0  0  0  0  0  0  0
   -3.3522    0.6277   -1.7498 C   0  0  0  0  0  0  0  0  0  0  0  0
   -3.8058    2.1827    0.0680 C   0  0  0  0  0  0  0  0  0  0  0  0
   -3.8004    1.8732   -1.3036 C   0  0  0  0  0  0  0  0  0  0  0  0
    5.2572    2.8507    0.4924 C   0  0  0  0  0  0  0  0  0  0  0  0
    6.4859   -0.9125   -1.1284 C   0  0  0  0  0  0  0  0  0  0  0  0
   -4.2903    3.5197    0.5212 C   0  0  0  0  0  0  0  0  0  0  0  0
  1  5  1  0
  1 11  1  0
  2  5  1  0
  2 12  1  0
  3  7  1  0
  3  9  1  0
  4 10  1  0
  4 13  1  0
  4 14  1  0
  5  6  1  0
  5  8  1  0
  6  7  1  0
  9 10  1  0
 11 12  2  0
 11 15  1  0
 12 16  1  0
 13 19  1  0
 14 20  1  0
 15 17  2  0
 16 18  2  0
 17 18  1  0
 17 21  1  0
M  END
>  <PUBCHEM_COMPOUND_CID>  (1) 
40375

>  <PUBCHEM_CONFORMER_RMSD>  (1) 
0.8

>  <PUBCHEM_CONFORMER_DIVERSEORDER>  (1) 
1
212
109
6
182
187
241
139
76
244
52
199
59
180
66
175
105
150
9
194
97
159
119
108
4
85
135
217
74
116
242
157
71
130
10
209
140
121
193
141
31
154
57
166
237
8
177
93
14
133
98
203
95
89
84
125
207
245
178
113
163
16
195
126
243
69
2
127
13
106
200
168
7
100
110
136
38
22
73
216
173
12
214
238
26
160
78
115
152
234
65
29
28
117
197
15
96
170
224
192
64
30
91
92
226
134
50
67
40
172
37
58
204
176
231
205
158
35
233
165
239
227
3
222
171
138
251
213
55
208
104
36
21
161
128
99
155
49
124
191
56
228
149
250
88
86
246
145
118
94
25
46
131
103
249
32
210
101
42
164
11
114
23
220
80
236
54
47
120
167
230
83
5
41
146
153
174
61
183
143
229
123
122
81
181
201
156
179
202
51
162
68
112
70
252
77
129
43
232
72
53
132
18
75
185
169
63
111
20
219
240
148
82
196
34
90
87
62
218
189
60
44
19
39
247
151
190
33
248
24
198
17
184
107
144
137
215
188
186
221
225
142
27
206
79
147
235
211
48
102
45
254
223
253

>  <PUBCHEM_MMFF94_PARTIAL_CHARGES>  (1) 
21
1 -0.36
10 0.27
11 0.08
12 0.08
13 0.27
14 0.27
15 -0.15
16 -0.15
17 -0.14
18 -0.15
2 -0.36
21 0.14
3 -0.9
33 0.36
38 0.15
39 0.15
4 -0.81
40 0.15
5 0.56
7 0.27
9 0.27

>  <PUBCHEM_EFFECTIVE_ROTOR_COUNT>  (1) 
8.6

>  <PUBCHEM_PHARMACOPHORE_FEATURES>  (1) 
7
1 1 acceptor
1 2 acceptor
1 3 cation
1 3 donor
1 4 cation
5 1 2 5 11 12 rings
6 11 12 15 16 17 18 rings

>  <PUBCHEM_HEAVY_ATOM_COUNT>  (1) 
21

>  <PUBCHEM_ATOM_DEF_STEREO_COUNT>  (1) 
0

>  <PUBCHEM_ATOM_UDEF_STEREO_COUNT>  (1) 
1

>  <PUBCHEM_BOND_DEF_STEREO_COUNT>  (1) 
0

>  <PUBCHEM_BOND_UDEF_STEREO_COUNT>  (1) 
0

>  <PUBCHEM_ISOTOPIC_ATOM_COUNT>  (1) 
0

>  <PUBCHEM_COMPONENT_COUNT>  (1) 
1

>  <PUBCHEM_CACTVS_TAUTO_COUNT>  (1) 
1

>  <PUBCHEM_CONFORMER_ID>  (1) 
00009DB700000001

>  <PUBCHEM_MMFF94_ENERGY>  (1) 
36.4663

>  <PUBCHEM_FEATURE_SELFOVERLAP>  (1) 
35.674

>  <PUBCHEM_SHAPE_FINGERPRINT>  (1) 
11370993 144 18337673018925178302
11405975 8 18335698334918269122
12107183 9 18118394056592413602
12390115 104 18334301924563976303
12596602 18 13767935589780569020
12616971 3 14907911517533335522
14142880 1 18259984856249091231
14251764 38 18339923839518695796
14251764 75 17912088253056028521
14713325 29 18409172138360969179
14848178 96 18411129221818674512
15183329 4 18410575046963532246
17834072 32 18410573946539229472
17844677 252 18337115678505117186
20645477 56 18408328769792104387
21054139 6 12103561962468543820
21279426 13 18341619188133353462
21709351 56 18273497892846295246
22182937 141 18409168809750128417
22956985 138 15952179583077474315
270888 7 18193839241375786153
27216 239 18260271845721210443
283562 15 18261669389509935283
2838139 119 18342172215805174052
497634 4 17058941150230094243
508706 21 18411971486116830880
5104073 3 18113329813334933938
5283173 99 18412825811479005400
531348 171 18059853935472968158
59124914 9 18337392622080159002
6328613 192 18260556649841206508
7288768 16 18042133059507552089
90127 26 18335144249882653442

>  <PUBCHEM_SHAPE_MULTIPOLES>  (1) 
410.47
14.5
3.6
1.19
26.32
0.94
-0.32
8
-1.82
-3.65
0.89
-0.88
0.16
1.23

>  <PUBCHEM_SHAPE_SELFOVERLAP>  (1) 
838.631

>  <PUBCHEM_SHAPE_VOLUME>  (1) 
241.1

>  <PUBCHEM_COORDINATE_TYPE>  (1) 
2
5
10

$$$$
