40379
     RDKit          3D

  8  8  0  0  0  0  0  0  0  0999 V2000
    1.2432   -1.4527   -0.1128 S   0  0  0  0  0  0  0  0  0  0  0  0
    2.2085    0.9450   -0.0752 N   0  0  0  0  0  0  0  0  0  0  0  0
   -1.2489   -0.4253    0.5433 C   0  0  0  0  0  0  0  0  0  0  0  0
   -2.1631    0.3355   -0.4192 C   0  0  0  0  0  0  0  0  0  0  0  0
    0.2062   -0.1575    0.2522 C   0  0  0  0  0  0  0  0  0  0  0  0
   -3.6292    0.0407   -0.1433 C   0  0  0  0  0  0  0  0  0  0  0  0
    0.8643    1.0310    0.2302 C   0  0  0  0  0  0  0  0  0  0  0  0
    2.5189   -0.3166   -0.2752 C   0  0  0  0  0  0  0  0  0  0  0  0
  1  5  1  0
  1  8  1  0
  2  7  1  0
  2  8  2  0
  3  4  1  0
  3  5  1  0
  4  6  1  0
  5  7  2  0
M  END
>  <PUBCHEM_COMPOUND_CID>  (1) 
40379

>  <PUBCHEM_CONFORMER_RMSD>  (1) 
0.4

>  <PUBCHEM_CONFORMER_DIVERSEORDER>  (1) 
1
5
9
8
3
6
7
2
4

>  <PUBCHEM_MMFF94_PARTIAL_CHARGES>  (1) 
8
1 -0.08
16 0.15
17 0.15
2 -0.57
3 0.18
5 -0.14
7 0.08
8 0.23

>  <PUBCHEM_EFFECTIVE_ROTOR_COUNT>  (1) 
2

>  <PUBCHEM_PHARMACOPHORE_FEATURES>  (1) 
3
1 2 acceptor
1 6 hydrophobe
5 1 2 5 7 8 rings

>  <PUBCHEM_HEAVY_ATOM_COUNT>  (1) 
8

>  <PUBCHEM_ATOM_DEF_STEREO_COUNT>  (1) 
0

>  <PUBCHEM_ATOM_UDEF_STEREO_COUNT>  (1) 
0

>  <PUBCHEM_BOND_DEF_STEREO_COUNT>  (1) 
0

>  <PUBCHEM_BOND_UDEF_STEREO_COUNT>  (1) 
0

>  <PUBCHEM_ISOTOPIC_ATOM_COUNT>  (1) 
0

>  <PUBCHEM_COMPONENT_COUNT>  (1) 
1

>  <PUBCHEM_CACTVS_TAUTO_COUNT>  (1) 
1

>  <PUBCHEM_CONFORMER_ID>  (1) 
00009DBB00000001

>  <PUBCHEM_MMFF94_ENERGY>  (1) 
2.2439

>  <PUBCHEM_FEATURE_SELFOVERLAP>  (1) 
15.223

>  <PUBCHEM_SHAPE_FINGERPRINT>  (1) 
11062470 55 14692568823294746483
12897270 3 18411135844483853229
12932764 1 17346308302627187049
14325111 11 18409448102862314603
14390081 3 18187079555519906557
20201158 50 18408324358733921851
21040471 1 18266742578913948106
21293036 1 18412554218889421574
23235685 24 18334009523084768173
23402655 69 18340480089475596813
23552333 60 18131069294781495338
29004967 10 18411143519506080202

>  <PUBCHEM_SHAPE_MULTIPOLES>  (1) 
163.5
4.66
1.2
0.71
3.72
0.15
0.01
-0.18
-0.64
-0.69
0
0.07
0.03
0.12

>  <PUBCHEM_SHAPE_SELFOVERLAP>  (1) 
309.947

>  <PUBCHEM_SHAPE_VOLUME>  (1) 
103.4

>  <PUBCHEM_COORDINATE_TYPE>  (1) 
2
5
10

$$$$
