40398
     RDKit          3D

 13 13  0  0  0  0  0  0  0  0999 V2000
   -0.6036   -2.7467   -0.2173 Cl  0  0  0  0  0  0  0  0  0  0  0  0
   -0.5540    2.7329   -0.2519 Cl  0  0  0  0  0  0  0  0  0  0  0  0
    4.3261    0.0372    1.3119 Cl  0  0  0  0  0  0  0  0  0  0  0  0
    3.4812   -0.0445   -1.1895 O   0  0  0  0  0  0  0  0  0  0  0  0
   -0.6843   -0.0057   -0.2121 C   0  0  0  0  0  0  0  0  0  0  0  0
   -1.3776   -1.2066   -0.0604 C   0  0  0  0  0  0  0  0  0  0  0  0
   -1.3558    1.2092   -0.0756 C   0  0  0  0  0  0  0  0  0  0  0  0
    0.7470   -0.0207   -0.5145 C   0  0  0  0  0  0  0  0  0  0  0  0
   -2.7423   -1.1924    0.2279 C   0  0  0  0  0  0  0  0  0  0  0  0
   -2.7204    1.2233    0.2127 C   0  0  0  0  0  0  0  0  0  0  0  0
   -3.4137    0.0225    0.3646 C   0  0  0  0  0  0  0  0  0  0  0  0
    1.7296   -0.0004    0.4063 C   0  0  0  0  0  0  0  0  0  0  0  0
    3.1677   -0.0081   -0.0021 C   0  0  0  0  0  0  0  0  0  0  0  0
  1  6  1  0
  2  7  1  0
  3 13  1  0
  4 13  2  0
  5  6  2  0
  5  7  1  0
  5  8  1  0
  6  9  1  0
  7 10  2  0
  8 12  2  0
  9 11  2  0
 10 11  1  0
 12 13  1  0
M  END
>  <PUBCHEM_COMPOUND_CID>  (1) 
40398

>  <PUBCHEM_CONFORMER_RMSD>  (1) 
0.6

>  <PUBCHEM_CONFORMER_DIVERSEORDER>  (1) 
1
2

>  <PUBCHEM_MMFF94_PARTIAL_CHARGES>  (1) 
18
1 -0.18
10 -0.15
11 -0.15
12 -0.14
13 0.76
14 0.15
15 0.15
16 0.15
17 0.15
18 0.15
2 -0.18
3 -0.21
4 -0.57
5 0.03
6 0.18
7 0.18
8 -0.18
9 -0.15

>  <PUBCHEM_EFFECTIVE_ROTOR_COUNT>  (1) 
2

>  <PUBCHEM_PHARMACOPHORE_FEATURES>  (1) 
1
6 5 6 7 9 10 11 rings

>  <PUBCHEM_HEAVY_ATOM_COUNT>  (1) 
13

>  <PUBCHEM_ATOM_DEF_STEREO_COUNT>  (1) 
0

>  <PUBCHEM_ATOM_UDEF_STEREO_COUNT>  (1) 
0

>  <PUBCHEM_BOND_DEF_STEREO_COUNT>  (1) 
0

>  <PUBCHEM_BOND_UDEF_STEREO_COUNT>  (1) 
1

>  <PUBCHEM_ISOTOPIC_ATOM_COUNT>  (1) 
0

>  <PUBCHEM_COMPONENT_COUNT>  (1) 
1

>  <PUBCHEM_CACTVS_TAUTO_COUNT>  (1) 
1

>  <PUBCHEM_CONFORMER_ID>  (1) 
00009DCE00000001

>  <PUBCHEM_MMFF94_ENERGY>  (1) 
32.7941

>  <PUBCHEM_FEATURE_SELFOVERLAP>  (1) 
5.074

>  <PUBCHEM_SHAPE_FINGERPRINT>  (1) 
11132069 177 18342457032266278529
13024252 1 15357695280189465221
14144814 61 18408040706356277386
14614273 12 18189613831048485605
14993402 34 18408323311051740351
15375462 189 17967249818858739136
15669948 3 18336830904608570486
16945 1 18410580587038398607
17846911 113 18412259510854903001
18186145 218 17917718950594920410
193761 8 17762624292933770839
19422 9 17748829626625392034
200 152 15647046071289991672
20279233 1 17846498140946182542
20510252 161 18272370832470237592
20645464 45 17988637510536757426
20871998 184 18342745160395536575
21486144 27 17203604904645427536
21650355 55 18337662113544362136
2297311 6 18340780281988199148
23402539 116 18271230699395002479
23463225 33 18261110716905414906
23552423 10 17542513077344115405
23557571 272 18201167649873489676
23559900 14 18272094860190197150
23598294 1 18407760339338678586
2748010 2 18122078507124215519
43471831 8 18335702685251024699
5706482 22 18338790135439543891
7364860 26 17909556390771308445
77492 1 17675930906176150838
81228 2 18198049490025024183
90316 7 18260823765766598816

>  <PUBCHEM_SHAPE_MULTIPOLES>  (1) 
267.27
6.33
2.33
0.9
6.36
0.01
-0.04
-0.01
-1.61
-1.58
0.27
0.78
0
0.03

>  <PUBCHEM_SHAPE_SELFOVERLAP>  (1) 
527.944

>  <PUBCHEM_SHAPE_VOLUME>  (1) 
160.5

>  <PUBCHEM_COORDINATE_TYPE>  (1) 
2
5
10

$$$$
