40413
     RDKit          3D

 22 24  0  0  1  0  0  0  0  0999 V2000
   -0.5476    1.8483   -0.5671 O   0  0  0  0  0  0  0  0  0  0  0  0
    1.6186    0.6504   -1.5112 O   0  0  0  0  0  0  0  0  0  0  0  0
    2.6248    0.5039    0.6050 N   0  0  0  0  0  0  0  0  0  0  0  0
    0.4764    1.5798    0.3896 C   0  0  0  0  0  0  0  0  0  0  0  0
   -3.1101   -0.7391   -0.0890 C   0  0  0  0  0  0  0  0  0  0  0  0
   -4.2620    0.0664    0.0762 C   0  0  0  0  0  0  0  0  0  0  0  0
   -1.7599    1.2669   -0.3567 C   0  0  0  0  0  0  0  0  0  0  0  0
   -1.8665   -0.1231   -0.3042 C   0  0  0  0  0  0  0  0  0  0  0  0
   -4.1363    1.4639    0.0207 C   0  0  0  0  0  0  0  0  0  0  0  0
   -2.8928    2.0588   -0.1945 C   0  0  0  0  0  0  0  0  0  0  0  0
    1.6335    0.8635   -0.3022 C   0  0  0  0  0  0  0  0  0  0  0  0
    0.9253    2.8868    1.0262 C   0  0  0  0  0  0  0  0  0  0  0  0
   -3.2356   -2.1368   -0.0332 C   0  0  0  0  0  0  0  0  0  0  0  0
   -5.5057   -0.5497    0.2914 C   0  0  0  0  0  0  0  0  0  0  0  0
   -4.4792   -2.7318    0.1815 C   0  0  0  0  0  0  0  0  0  0  0  0
   -5.6119   -1.9399    0.3433 C   0  0  0  0  0  0  0  0  0  0  0  0
    3.8392   -0.1707    0.3342 C   0  0  0  0  0  0  0  0  0  0  0  0
    4.7052   -0.4517    1.3778 C   0  0  0  0  0  0  0  0  0  0  0  0
    4.1354   -0.5361   -0.9686 C   0  0  0  0  0  0  0  0  0  0  0  0
    5.9020   -1.1168    1.1111 C   0  0  0  0  0  0  0  0  0  0  0  0
    5.3320   -1.2013   -1.2351 C   0  0  0  0  0  0  0  0  0  0  0  0
    6.2153   -1.4917   -0.1953 C   0  0  0  0  0  0  0  0  0  0  0  0
  1  4  1  0
  1  7  1  0
  2 11  2  0
  3 11  1  0
  3 17  1  0
  4 11  1  0
  4 12  1  0
  5  6  1  0
  5  8  2  0
  5 13  1  0
  6  9  2  0
  6 14  1  0
  7  8  1  0
  7 10  2  0
  9 10  1  0
 13 15  2  0
 14 16  2  0
 15 16  1  0
 17 18  2  0
 17 19  1  0
 18 20  1  0
 19 21  2  0
 20 22  2  0
 21 22  1  0
M  END
>  <PUBCHEM_COMPOUND_CID>  (1) 
40413

>  <PUBCHEM_CONFORMER_RMSD>  (1) 
0.8

>  <PUBCHEM_CONFORMER_DIVERSEORDER>  (1) 
1
73
59
63
27
34
33
24
66
45
13
3
61
50
70
42
67
46
22
43
18
6
49
68
41
52
38
35
79
26
9
80
57
7
29
36
64
62
19
56
12
76
30
77
31
40
14
32
5
2
23
58
65
69
21
78
15
47
17
28
4
37
75
53
71
20
16
72
8
60
55
54
48
51
39
25
10
44
74
11

>  <PUBCHEM_MMFF94_PARTIAL_CHARGES>  (1) 
32
1 -0.36
10 -0.15
11 0.57
13 -0.15
14 -0.15
15 -0.15
16 -0.15
17 0.12
18 -0.15
19 -0.15
2 -0.57
20 -0.15
21 -0.15
22 -0.15
24 0.15
25 0.15
26 0.15
3 -0.55
30 0.15
31 0.15
32 0.37
33 0.15
34 0.15
35 0.15
36 0.15
37 0.15
38 0.15
39 0.15
4 0.34
7 0.08
8 -0.15
9 -0.15

>  <PUBCHEM_EFFECTIVE_ROTOR_COUNT>  (1) 
5

>  <PUBCHEM_PHARMACOPHORE_FEATURES>  (1) 
6
1 1 acceptor
1 2 acceptor
1 3 donor
6 17 18 19 20 21 22 rings
6 5 6 13 14 15 16 rings
6 5 6 7 8 9 10 rings

>  <PUBCHEM_HEAVY_ATOM_COUNT>  (1) 
22

>  <PUBCHEM_ATOM_DEF_STEREO_COUNT>  (1) 
0

>  <PUBCHEM_ATOM_UDEF_STEREO_COUNT>  (1) 
1

>  <PUBCHEM_BOND_DEF_STEREO_COUNT>  (1) 
0

>  <PUBCHEM_BOND_UDEF_STEREO_COUNT>  (1) 
0

>  <PUBCHEM_ISOTOPIC_ATOM_COUNT>  (1) 
0

>  <PUBCHEM_COMPONENT_COUNT>  (1) 
1

>  <PUBCHEM_CACTVS_TAUTO_COUNT>  (1) 
2

>  <PUBCHEM_CONFORMER_ID>  (1) 
00009DDD00000001

>  <PUBCHEM_MMFF94_ENERGY>  (1) 
73.9437

>  <PUBCHEM_FEATURE_SELFOVERLAP>  (1) 
30.481

>  <PUBCHEM_SHAPE_FINGERPRINT>  (1) 
11524674 6 17632573838678907239
11545043 162 18272646835637260816
11796584 16 18336261232973159068
11809386 21 18040992917235863691
12236239 1 17822014177353559572
12516196 113 18344145904102539040
12633257 1 18129680685142814769
12760667 363 18413103983588870455
13288520 33 18408886226629787229
13402501 40 18343304755911181222
13740256 8 18411982464132068208
14123256 34 18409175423583481098
14216079 64 18410855499643340623
14251751 18 18410011052515127130
14251752 14 17603578604683804117
14420673 8 18411705361606248707
15348495 7 17917987308520073834
15352361 1 18411138047543808015
15537594 2 17968097478083900483
17138139 8 17895188931003278594
17492 89 18049161361387262771
17780758 139 18060139821380610921
17804303 29 18411419523006049277
17844677 252 18410859849991485544
17857418 61 18260265252408463978
1813 80 17459178733053790869
193927 3 18335709363739916898
1979834 28 17131846373280317118
20374829 77 18334856121431719805
20403669 9 18411984680071539823
21033648 29 17060041615081628027
21054139 6 17967532342720456786
21267235 1 18334018324311618843
21403212 168 18271817762149398673
21623969 137 17489587840612928958
22061861 79 13984660322367632482
22950370 63 18408889533649226988
23198884 109 14345791626607798303
23522609 53 18044690587456944949
23559900 14 18337946913501447649
2916195 48 7997675485899291718
3004659 81 18260271850074083054
312425 54 17987806206626369562
316301 35 18265612259037638083
335352 9 18409165507516545957
3421961 26 18271242845436213808
351380 3 18040151812210216162
397830 11 18270665559435684360
44062 13 18408602548260877301
4409770 3 17971181539861072485
465052 167 18202005426241369526
5104073 3 18200881776660474849
5486654 36 18410301315433003129
559249 180 18260544494671872863
5718773 13 18269832189867890767
59682541 52 14273999035909417682
59755656 215 18410008793542171375
636775 8 18200605684079892742
7970288 3 18334572438890084578
86090 222 17274002201840270214
8863177 126 18341048618079806538

>  <PUBCHEM_SHAPE_MULTIPOLES>  (1) 
436.03
15.67
2.71
1.06
9.98
0.34
-0.02
-11.56
1.52
-2.57
0.34
1.47
0
0.64

>  <PUBCHEM_SHAPE_SELFOVERLAP>  (1) 
949.682

>  <PUBCHEM_SHAPE_VOLUME>  (1) 
237.4

>  <PUBCHEM_COORDINATE_TYPE>  (1) 
2
5
10

$$$$
