40417
     RDKit          3D

 18 21  0  0  0  0  0  0  0  0999 V2000
   -2.6737   -0.2381   -0.3001 N   0  0  0  0  0  0  0  0  0  0  0  0
    1.0953    0.2782   -0.2726 C   0  0  0  0  0  0  0  0  0  0  0  0
    2.8041   -0.0858    1.5636 C   0  0  0  0  0  0  0  0  0  0  0  0
    3.0077   -1.3514   -0.6061 C   0  0  0  0  0  0  0  0  0  0  0  0
    3.4687    1.1254   -0.5441 C   0  0  0  0  0  0  0  0  0  0  0  0
    1.3234    0.1976    1.2554 C   0  0  0  0  0  0  0  0  0  0  0  0
    1.5265   -1.0647   -0.9082 C   0  0  0  0  0  0  0  0  0  0  0  0
    1.9861    1.4052   -0.8467 C   0  0  0  0  0  0  0  0  0  0  0  0
    3.2094   -1.4206    0.9168 C   0  0  0  0  0  0  0  0  0  0  0  0
    3.6679    1.0439    0.9784 C   0  0  0  0  0  0  0  0  0  0  0  0
    3.8706   -0.2156   -1.1805 C   0  0  0  0  0  0  0  0  0  0  0  0
   -0.3789    0.5600   -0.5754 C   0  0  0  0  0  0  0  0  0  0  0  0
   -1.2741   -0.5198    0.0178 C   0  0  0  0  0  0  0  0  0  0  0  0
   -3.0843    1.0476    0.2813 C   0  0  0  0  0  0  0  0  0  0  0  0
   -3.5370   -1.3321    0.1666 C   0  0  0  0  0  0  0  0  0  0  0  0
   -4.5318    1.3812   -0.0832 C   0  0  0  0  0  0  0  0  0  0  0  0
   -4.9992   -1.0764   -0.2015 C   0  0  0  0  0  0  0  0  0  0  0  0
   -5.4808    0.2654    0.3387 C   0  0  0  0  0  0  0  0  0  0  0  0
  1 13  1  0
  1 14  1  0
  1 15  1  0
  2  6  1  0
  2  7  1  0
  2  8  1  0
  2 12  1  0
  3  6  1  0
  3  9  1  0
  3 10  1  0
  4  7  1  0
  4  9  1  0
  4 11  1  0
  5  8  1  0
  5 10  1  0
  5 11  1  0
 12 13  1  0
 14 16  1  0
 15 17  1  0
 16 18  1  0
 17 18  1  0
M  END
>  <PUBCHEM_COMPOUND_CID>  (1) 
40417

>  <PUBCHEM_CONFORMER_RMSD>  (1) 
0.8

>  <PUBCHEM_CONFORMER_DIVERSEORDER>  (1) 
1
2

>  <PUBCHEM_MMFF94_PARTIAL_CHARGES>  (1) 
4
1 -0.81
13 0.27
14 0.27
15 0.27

>  <PUBCHEM_EFFECTIVE_ROTOR_COUNT>  (1) 
5.4

>  <PUBCHEM_PHARMACOPHORE_FEATURES>  (1) 
6
1 1 cation
6 1 14 15 16 17 18 rings
6 2 3 4 6 7 9 rings
6 2 3 5 6 8 10 rings
6 2 4 5 7 8 11 rings
6 3 4 5 9 10 11 rings

>  <PUBCHEM_HEAVY_ATOM_COUNT>  (1) 
18

>  <PUBCHEM_ATOM_DEF_STEREO_COUNT>  (1) 
0

>  <PUBCHEM_ATOM_UDEF_STEREO_COUNT>  (1) 
0

>  <PUBCHEM_BOND_DEF_STEREO_COUNT>  (1) 
0

>  <PUBCHEM_BOND_UDEF_STEREO_COUNT>  (1) 
0

>  <PUBCHEM_ISOTOPIC_ATOM_COUNT>  (1) 
0

>  <PUBCHEM_COMPONENT_COUNT>  (1) 
1

>  <PUBCHEM_CACTVS_TAUTO_COUNT>  (1) 
1

>  <PUBCHEM_CONFORMER_ID>  (1) 
00009DE100000001

>  <PUBCHEM_MMFF94_ENERGY>  (1) 
35.2053

>  <PUBCHEM_FEATURE_SELFOVERLAP>  (1) 
42.963

>  <PUBCHEM_SHAPE_FINGERPRINT>  (1) 
10366900 7 17846499257627123643
10646746 165 17917713448662965889
11552529 35 15768925939219042623
11615757 297 16056881342784189835
12107183 9 17758110398301642313
12236239 1 17967251996380861893
12616999 72 18272658956335500862
12670546 56 18260260850546929661
13167823 11 18333450945914534371
13224815 77 18131349717696751645
13533116 47 17774445975894915247
13583140 156 17417800773442515167
13675066 3 18273211997973456407
14289901 80 18341051899598246923
15788980 27 16343983589940993349
16945 1 17967524714710436532
17349148 13 18412824681786237095
17834072 33 18333453166190885533
17844677 252 18273220798435701953
18186145 218 17894628149728408711
200 152 15554447379953180889
20281475 54 18113613486939201911
20645477 70 18340772554688373734
21033648 29 17203599364127183705
212847 35 17917994953683173201
21452121 103 18201432627880926912
21503847 285 18113345214713201444
2255824 54 17458633353700391804
22646028 1 17894347783185491751
22854114 59 17632857546842970955
23559900 14 18272376338591612446
239999 70 18342182176250948166
300161 21 18114175354766456685
3545911 37 18341618113858701525
42 15 18342455924465331523
4214541 1 18410578362387965541
474 4 17242182463822520996
495365 180 17418083308864834090
5104073 3 18412547600497916699
522135 26 17821729420610338954
5374978 207 18202281398932470257
542803 24 14189579641662672995
573450 72 18334569136502533539
633830 44 18113620075619546055
77779 3 18411141333620856109
9709674 26 18411144657915604359

>  <PUBCHEM_SHAPE_MULTIPOLES>  (1) 
365.45
10.84
1.52
1.18
13.84
0.06
0.22
-0.02
0.4
-0.05
-0.09
-1.34
0.01
-0.08

>  <PUBCHEM_SHAPE_SELFOVERLAP>  (1) 
775.473

>  <PUBCHEM_SHAPE_VOLUME>  (1) 
197.7

>  <PUBCHEM_COORDINATE_TYPE>  (1) 
2
5
10

$$$$
