40423
     RDKit          3D

 16 18  0  0  0  0  0  0  0  0999 V2000
    4.1504   -0.3316   -0.0002 N   0  0  0  0  0  0  0  0  0  0  0  0
   -0.7461    0.5300    0.0082 C   0  0  0  0  0  0  0  0  0  0  0  0
   -2.3356   -1.0206    1.2303 C   0  0  0  0  0  0  0  0  0  0  0  0
   -3.2338    1.0145    0.0459 C   0  0  0  0  0  0  0  0  0  0  0  0
   -2.3574   -0.9356   -1.2883 C   0  0  0  0  0  0  0  0  0  0  0  0
   -0.9307   -0.3931    1.2360 C   0  0  0  0  0  0  0  0  0  0  0  0
   -1.8264    1.6365    0.0548 C   0  0  0  0  0  0  0  0  0  0  0  0
   -0.9525   -0.3081   -1.2758 C   0  0  0  0  0  0  0  0  0  0  0  0
   -3.3899    0.0981    1.2708 C   0  0  0  0  0  0  0  0  0  0  0  0
   -2.5178   -1.8422   -0.0567 C   0  0  0  0  0  0  0  0  0  0  0  0
   -3.4115    0.1827   -1.2351 C   0  0  0  0  0  0  0  0  0  0  0  0
    0.6526    1.1525    0.0172 C   0  0  0  0  0  0  0  0  0  0  0  0
    1.7336    0.0764    0.0101 C   0  0  0  0  0  0  0  0  0  0  0  0
    3.1256    0.7055   -0.0143 C   0  0  0  0  0  0  0  0  0  0  0  0
    5.4831    0.2549   -0.0130 C   0  0  0  0  0  0  0  0  0  0  0  0
    6.5563   -0.8201    0.0101 C   0  0  0  0  0  0  0  0  0  0  0  0
  1 14  1  0
  1 15  1  0
  2  6  1  0
  2  7  1  0
  2  8  1  0
  2 12  1  0
  3  6  1  0
  3  9  1  0
  3 10  1  0
  4  7  1  0
  4  9  1  0
  4 11  1  0
  5  8  1  0
  5 10  1  0
  5 11  1  0
 12 13  1  0
 13 14  1  0
 15 16  1  0
M  END
>  <PUBCHEM_COMPOUND_CID>  (1) 
40423

>  <PUBCHEM_CONFORMER_RMSD>  (1) 
0.8

>  <PUBCHEM_CONFORMER_DIVERSEORDER>  (1) 
1
2
3

>  <PUBCHEM_MMFF94_PARTIAL_CHARGES>  (1) 
4
1 -0.9
14 0.27
15 0.27
38 0.36

>  <PUBCHEM_EFFECTIVE_ROTOR_COUNT>  (1) 
6.2

>  <PUBCHEM_PHARMACOPHORE_FEATURES>  (1) 
6
1 1 cation
1 1 donor
6 2 3 4 6 7 9 rings
6 2 3 5 6 8 10 rings
6 2 4 5 7 8 11 rings
6 3 4 5 9 10 11 rings

>  <PUBCHEM_HEAVY_ATOM_COUNT>  (1) 
16

>  <PUBCHEM_ATOM_DEF_STEREO_COUNT>  (1) 
0

>  <PUBCHEM_ATOM_UDEF_STEREO_COUNT>  (1) 
0

>  <PUBCHEM_BOND_DEF_STEREO_COUNT>  (1) 
0

>  <PUBCHEM_BOND_UDEF_STEREO_COUNT>  (1) 
0

>  <PUBCHEM_ISOTOPIC_ATOM_COUNT>  (1) 
0

>  <PUBCHEM_COMPONENT_COUNT>  (1) 
1

>  <PUBCHEM_CACTVS_TAUTO_COUNT>  (1) 
1

>  <PUBCHEM_CONFORMER_ID>  (1) 
00009DE700000001

>  <PUBCHEM_MMFF94_ENERGY>  (1) 
26.5056

>  <PUBCHEM_FEATURE_SELFOVERLAP>  (1) 
42.962

>  <PUBCHEM_SHAPE_FINGERPRINT>  (1) 
10680689 15 18342459240359516536
11315181 36 16845287255203491072
12091667 2 18342175558233683468
12507557 5 11743833664660692474
12596602 18 15913320291890445874
12916754 54 18129094696320127245
13024252 1 17458341966456009385
13288520 33 18411699910944285095
15061688 2 14116422463030095915
16945 1 18411139143440924481
17093844 174 17632572726513952968
17870717 6 17967819323444190550
18186145 218 16950278550935085652
18927931 339 18411144619429197198
19489759 90 15338836447991085738
200 152 17775280577844067732
20325693 3 16660360385299717919
2306618 200 17275107223646750769
23402539 116 18333729113824338988
23559900 14 18261668264333517776
4921388 177 16877950459577092946
5104073 3 17917427674872171034
559249 180 18341325583736397774

>  <PUBCHEM_SHAPE_MULTIPOLES>  (1) 
324.29
10.5
1.39
1.21
25.58
0.08
0.02
1.87
0
-0.87
-0.01
-1.32
0.24
-0.01

>  <PUBCHEM_SHAPE_SELFOVERLAP>  (1) 
672.6

>  <PUBCHEM_SHAPE_VOLUME>  (1) 
179.3

>  <PUBCHEM_COORDINATE_TYPE>  (1) 
2
5
10

$$$$
