40429
     RDKit          3D

 19 22  0  0  0  0  0  0  0  0999 V2000
    3.3006    0.4345    0.2082 N   0  0  0  0  0  0  0  0  0  0  0  0
   -1.6557    0.6010   -0.1945 C   0  0  0  0  0  0  0  0  0  0  0  0
   -3.1370   -0.4946    1.5463 C   0  0  0  0  0  0  0  0  0  0  0  0
   -4.1792    0.7403   -0.3874 C   0  0  0  0  0  0  0  0  0  0  0  0
   -3.0124   -1.4588   -0.7788 C   0  0  0  0  0  0  0  0  0  0  0  0
   -1.8128    0.2510    1.3043 C   0  0  0  0  0  0  0  0  0  0  0  0
   -2.8523    1.4826   -0.6241 C   0  0  0  0  0  0  0  0  0  0  0  0
   -1.6888   -0.7105   -1.0146 C   0  0  0  0  0  0  0  0  0  0  0  0
   -4.3086    0.3988    1.1062 C   0  0  0  0  0  0  0  0  0  0  0  0
   -3.1476   -1.7894    0.7169 C   0  0  0  0  0  0  0  0  0  0  0  0
   -4.1847   -0.5606   -1.2072 C   0  0  0  0  0  0  0  0  0  0  0  0
   -0.3375    1.3427   -0.4315 C   0  0  0  0  0  0  0  0  0  0  0  0
    0.8540    0.5049    0.0214 C   0  0  0  0  0  0  0  0  0  0  0  0
    2.1670    1.2379   -0.2486 C   0  0  0  0  0  0  0  0  0  0  0  0
    3.3522   -0.8417   -0.5188 C   0  0  0  0  0  0  0  0  0  0  0  0
    4.5559    1.1834    0.0563 C   0  0  0  0  0  0  0  0  0  0  0  0
    4.5035   -1.7154   -0.0186 C   0  0  0  0  0  0  0  0  0  0  0  0
    5.7467    0.3760    0.5755 C   0  0  0  0  0  0  0  0  0  0  0  0
    5.8369   -0.9822   -0.1109 C   0  0  0  0  0  0  0  0  0  0  0  0
  1 14  1  0
  1 15  1  0
  1 16  1  0
  2  6  1  0
  2  7  1  0
  2  8  1  0
  2 12  1  0
  3  6  1  0
  3  9  1  0
  3 10  1  0
  4  7  1  0
  4  9  1  0
  4 11  1  0
  5  8  1  0
  5 10  1  0
  5 11  1  0
 12 13  1  0
 13 14  1  0
 15 17  1  0
 16 18  1  0
 17 19  1  0
 18 19  1  0
M  END
>  <PUBCHEM_COMPOUND_CID>  (1) 
40429

>  <PUBCHEM_CONFORMER_RMSD>  (1) 
0.8

>  <PUBCHEM_CONFORMER_DIVERSEORDER>  (1) 
1
4
3
2

>  <PUBCHEM_MMFF94_PARTIAL_CHARGES>  (1) 
4
1 -0.81
14 0.27
15 0.27
16 0.27

>  <PUBCHEM_EFFECTIVE_ROTOR_COUNT>  (1) 
6.4

>  <PUBCHEM_PHARMACOPHORE_FEATURES>  (1) 
6
1 1 cation
6 1 15 16 17 18 19 rings
6 2 3 4 6 7 9 rings
6 2 3 5 6 8 10 rings
6 2 4 5 7 8 11 rings
6 3 4 5 9 10 11 rings

>  <PUBCHEM_HEAVY_ATOM_COUNT>  (1) 
19

>  <PUBCHEM_ATOM_DEF_STEREO_COUNT>  (1) 
0

>  <PUBCHEM_ATOM_UDEF_STEREO_COUNT>  (1) 
0

>  <PUBCHEM_BOND_DEF_STEREO_COUNT>  (1) 
0

>  <PUBCHEM_BOND_UDEF_STEREO_COUNT>  (1) 
0

>  <PUBCHEM_ISOTOPIC_ATOM_COUNT>  (1) 
0

>  <PUBCHEM_COMPONENT_COUNT>  (1) 
1

>  <PUBCHEM_CACTVS_TAUTO_COUNT>  (1) 
1

>  <PUBCHEM_CONFORMER_ID>  (1) 
00009DED00000001

>  <PUBCHEM_MMFF94_ENERGY>  (1) 
35.0163

>  <PUBCHEM_FEATURE_SELFOVERLAP>  (1) 
42.963

>  <PUBCHEM_SHAPE_FINGERPRINT>  (1) 
10366900 7 15985100821181163882
10670039 82 11095890423542075978
10680689 15 18186801374382341268
10803635 8 16298379158681986010
11128504 68 13262686945595753910
11315181 36 17704349991798850544
12107183 9 17411070439462273914
12236239 1 17846779611142460276
12507557 5 13110958729976248075
12596602 18 16845287268004263378
12633257 1 17203334420162940968
13024252 1 16443341018868330053
13167823 11 18413386540728398182
13288520 33 18341328968286574229
13544653 18 18409730668813829916
13675066 3 18408323298082721556
14142880 1 13613979789995296451
14251764 18 18131635595294580449
14386348 63 18113902654397317250
15196674 1 18412823599285985198
15788980 27 18260829298037306372
15880784 105 18060699511585787906
17844677 252 18411421700665498028
17857418 61 18341888585266343278
17870717 6 17458347420341970707
1813 80 17530971271869653764
18186145 218 16153427285291675940
18927931 339 18259990366016957198
19141452 34 18411703192446940343
200 152 18130783473271403197
20325693 3 15791729707193873191
20645477 70 18341608175557703398
21403212 168 18267032670159908417
22646028 1 18202282515650321260
2306618 200 17989490706312607281
23175994 123 17821732758101017885
23402539 116 14129053716728403942
23557571 272 17676478411781084932
23559900 14 18335974363349232832
239999 70 18342179947832925494
26918003 58 18413107256084859744
300161 21 18060697286639682736
314173 85 18260547818750168084
4214541 1 18411697651950067796
4921388 177 16588032333013357067
5104073 3 18272086119531018386
542803 24 16200152097355842320
559249 180 18336820875469323238
573450 72 17489588956639456019
5924683 9 18060133293062203183
9709674 26 18042410290724121634

>  <PUBCHEM_SHAPE_MULTIPOLES>  (1) 
386.03
13.01
1.66
1.17
17.33
0.3
-0.21
2.23
-0.81
0.15
0.14
-1.37
0.14
0.22

>  <PUBCHEM_SHAPE_SELFOVERLAP>  (1) 
813.372

>  <PUBCHEM_SHAPE_VOLUME>  (1) 
210.7

>  <PUBCHEM_COORDINATE_TYPE>  (1) 
2
5
10

$$$$
