40439
     RDKit          3D

 20 23  0  0  1  0  0  0  0  0999 V2000
   -1.9183   -3.3501    0.4817 N   0  0  0  0  0  0  0  0  0  0  0  0
    0.8215   -0.7179    0.4901 C   0  0  0  0  0  0  0  0  0  0  0  0
    1.3340    1.2333   -1.0654 C   0  0  0  0  0  0  0  0  0  0  0  0
    0.2231    0.2613   -0.5786 C   0  0  0  0  0  0  0  0  0  0  0  0
    2.6147    0.9771    1.0993 C   0  0  0  0  0  0  0  0  0  0  0  0
    3.0291   -0.6241   -0.7921 C   0  0  0  0  0  0  0  0  0  0  0  0
    1.5252    0.0386    1.6430 C   0  0  0  0  0  0  0  0  0  0  0  0
    1.9259   -1.5470   -0.2377 C   0  0  0  0  0  0  0  0  0  0  0  0
    2.0041    1.9767    0.1049 C   0  0  0  0  0  0  0  0  0  0  0  0
    2.4189    0.3919   -1.7749 C   0  0  0  0  0  0  0  0  0  0  0  0
    3.6781    0.1366    0.3741 C   0  0  0  0  0  0  0  0  0  0  0  0
   -0.2362   -1.6788    1.0491 C   0  0  0  0  0  0  0  0  0  0  0  0
   -1.1078    0.9483   -0.2884 C   0  0  0  0  0  0  0  0  0  0  0  0
   -0.9071   -2.4578   -0.0725 C   0  0  0  0  0  0  0  0  0  0  0  0
   -1.3665    1.4405    0.9868 C   0  0  0  0  0  0  0  0  0  0  0  0
   -2.0527    1.0779   -1.3012 C   0  0  0  0  0  0  0  0  0  0  0  0
   -2.5831    2.0689    1.2522 C   0  0  0  0  0  0  0  0  0  0  0  0
   -3.2693    1.7065   -1.0357 C   0  0  0  0  0  0  0  0  0  0  0  0
   -3.5345    2.2019    0.2410 C   0  0  0  0  0  0  0  0  0  0  0  0
   -2.5991   -4.0841   -0.5758 C   0  0  0  0  0  0  0  0  0  0  0  0
  1 14  1  0
  1 20  1  0
  2  4  1  0
  2  7  1  0
  2  8  1  0
  2 12  1  0
  3  4  1  0
  3  9  1  0
  3 10  1  0
  4 13  1  0
  5  7  1  0
  5  9  1  0
  5 11  1  0
  6  8  1  0
  6 10  1  0
  6 11  1  0
 12 14  1  0
 13 15  2  0
 13 16  1  0
 15 17  1  0
 16 18  2  0
 17 19  2  0
 18 19  1  0
M  END
>  <PUBCHEM_COMPOUND_CID>  (1) 
40439

>  <PUBCHEM_CONFORMER_RMSD>  (1) 
0.8

>  <PUBCHEM_CONFORMER_DIVERSEORDER>  (1) 
1
3
2
4

>  <PUBCHEM_MMFF94_PARTIAL_CHARGES>  (1) 
16
1 -0.9
13 -0.14
14 0.27
15 -0.15
16 -0.15
17 -0.15
18 -0.15
19 -0.15
20 0.27
39 0.15
4 0.14
40 0.15
41 0.36
42 0.15
43 0.15
44 0.15

>  <PUBCHEM_EFFECTIVE_ROTOR_COUNT>  (1) 
5.2

>  <PUBCHEM_PHARMACOPHORE_FEATURES>  (1) 
7
1 1 cation
1 1 donor
6 13 15 16 17 18 19 rings
6 2 3 4 5 7 9 rings
6 2 3 4 6 8 10 rings
6 2 5 6 7 8 11 rings
6 3 5 6 9 10 11 rings

>  <PUBCHEM_HEAVY_ATOM_COUNT>  (1) 
20

>  <PUBCHEM_ATOM_DEF_STEREO_COUNT>  (1) 
0

>  <PUBCHEM_ATOM_UDEF_STEREO_COUNT>  (1) 
3

>  <PUBCHEM_BOND_DEF_STEREO_COUNT>  (1) 
0

>  <PUBCHEM_BOND_UDEF_STEREO_COUNT>  (1) 
0

>  <PUBCHEM_ISOTOPIC_ATOM_COUNT>  (1) 
0

>  <PUBCHEM_COMPONENT_COUNT>  (1) 
1

>  <PUBCHEM_CACTVS_TAUTO_COUNT>  (1) 
1

>  <PUBCHEM_CONFORMER_ID>  (1) 
00009DF700000001

>  <PUBCHEM_MMFF94_ENERGY>  (1) 
64.4303

>  <PUBCHEM_FEATURE_SELFOVERLAP>  (1) 
47.924

>  <PUBCHEM_SHAPE_FINGERPRINT>  (1) 
10064457 181 18341061704860942681
104564 63 18119256305135383895
10863032 1 16199854069527894904
108634 29 18268695281532223911
10948715 1 17559935724065948816
11578080 2 17916597577567810208
11680611 10 17968639636248243666
116883 192 18267025144448920415
12035759 4 17536333761486593117
12293681 25 17560260024003442846
12293681 4 18131352977661728688
12715332 25 18191311472764969254
12788726 201 18047185534296112698
13681431 1 17109878942743120091
14617773 55 17897450712035732470
15209289 33 17982732965676421130
15210252 30 17536588865960179223
15309172 13 18190183395082711381
16752209 62 18334851749487672687
16945 1 18337395924968304428
17357779 13 17981873448495241223
18186145 218 18270680840227891349
18981168 100 18341902917166262360
20261772 1 18191887788872718795
20600515 1 17466489527410695122
21501502 16 18189623907263086980
21524375 3 18187654539823946483
22620623 9 18051168979003042262
23419403 2 17199935971550469147
23557571 272 18196085779632656506
23558518 356 18189333648677394400
23559900 14 18341903940460313558
238 59 18191302668134285809
25147074 1 17968096495100878636
2748010 2 18118422669052303795
3060560 45 18117556223851056797
4340502 62 18339081476636797161
474 4 18271795835561286512
495365 180 17901925471179919197
5845 1 16391532755904589643
7164475 11 18263645241489128534
7364860 26 17762336912276807873
81228 2 18117845618842510771
8272917 22 17760655767999855765
9981440 41 17127570441427059776

>  <PUBCHEM_SHAPE_MULTIPOLES>  (1) 
406.61
5.45
3.65
1.46
0.64
4.99
-0.05
-2.11
-0.46
4.27
0.05
-0.23
-0.4
-0.14

>  <PUBCHEM_SHAPE_SELFOVERLAP>  (1) 
878.6

>  <PUBCHEM_SHAPE_VOLUME>  (1) 
217.3

>  <PUBCHEM_COORDINATE_TYPE>  (1) 
2
5
10

$$$$
