40443
     RDKit          3D

 17 19  0  0  1  0  0  0  0  0999 V2000
    0.3286   -2.7516    0.5125 Br  0  0  0  0  0  0  0  0  0  0  0  0
   -4.3297    0.3755   -0.3552 N   0  0  0  0  0  0  0  0  0  0  0  0
    0.5596    0.1865    0.5264 C   0  0  0  0  0  0  0  0  0  0  0  0
    2.1734   -1.1029   -0.9555 C   0  0  0  0  0  0  0  0  0  0  0  0
    3.0526    0.1999    1.0225 C   0  0  0  0  0  0  0  0  0  0  0  0
    2.1879    1.4209   -0.9998 C   0  0  0  0  0  0  0  0  0  0  0  0
    0.7434   -1.0574   -0.3811 C   0  0  0  0  0  0  0  0  0  0  0  0
    1.6413    0.2149    1.6359 C   0  0  0  0  0  0  0  0  0  0  0  0
    0.7801    1.4350   -0.3778 C   0  0  0  0  0  0  0  0  0  0  0  0
    3.2295   -1.0647    0.1682 C   0  0  0  0  0  0  0  0  0  0  0  0
    2.3668    0.1445   -1.8408 C   0  0  0  0  0  0  0  0  0  0  0  0
    3.2314    1.4370    0.1280 C   0  0  0  0  0  0  0  0  0  0  0  0
   -0.8431    0.2756    1.1442 C   0  0  0  0  0  0  0  0  0  0  0  0
   -1.9161    0.2874    0.0626 C   0  0  0  0  0  0  0  0  0  0  0  0
   -3.3097    0.3439    0.6862 C   0  0  0  0  0  0  0  0  0  0  0  0
   -5.6665    0.4633    0.2351 C   0  0  0  0  0  0  0  0  0  0  0  0
   -4.2296   -0.8079   -1.2112 C   0  0  0  0  0  0  0  0  0  0  0  0
  1  7  1  0
  2 15  1  0
  2 16  1  0
  2 17  1  0
  3  7  1  0
  3  8  1  0
  3  9  1  0
  3 13  1  0
  4  7  1  0
  4 10  1  0
  4 11  1  0
  5  8  1  0
  5 10  1  0
  5 12  1  0
  6  9  1  0
  6 11  1  0
  6 12  1  0
 13 14  1  0
 14 15  1  0
M  END
>  <PUBCHEM_COMPOUND_CID>  (1) 
40443

>  <PUBCHEM_CONFORMER_RMSD>  (1) 
0.6

>  <PUBCHEM_CONFORMER_DIVERSEORDER>  (1) 
8
5
17
9
23
27
3
30
2
12
25
14
24
4
28
6
29
26
1
19
18
13
7
20
10
11
15
22
21
16

>  <PUBCHEM_MMFF94_PARTIAL_CHARGES>  (1) 
6
1 -0.23
15 0.27
16 0.27
17 0.27
2 -0.81
7 0.23

>  <PUBCHEM_EFFECTIVE_ROTOR_COUNT>  (1) 
5.2

>  <PUBCHEM_PHARMACOPHORE_FEATURES>  (1) 
6
1 1 hydrophobe
1 2 cation
6 3 4 5 7 8 10 rings
6 3 4 6 7 9 11 rings
6 3 5 6 8 9 12 rings
6 4 5 6 10 11 12 rings

>  <PUBCHEM_HEAVY_ATOM_COUNT>  (1) 
17

>  <PUBCHEM_ATOM_DEF_STEREO_COUNT>  (1) 
0

>  <PUBCHEM_ATOM_UDEF_STEREO_COUNT>  (1) 
3

>  <PUBCHEM_BOND_DEF_STEREO_COUNT>  (1) 
0

>  <PUBCHEM_BOND_UDEF_STEREO_COUNT>  (1) 
0

>  <PUBCHEM_ISOTOPIC_ATOM_COUNT>  (1) 
0

>  <PUBCHEM_COMPONENT_COUNT>  (1) 
1

>  <PUBCHEM_CACTVS_TAUTO_COUNT>  (1) 
1

>  <PUBCHEM_CONFORMER_ID>  (1) 
00009DFB00000008

>  <PUBCHEM_MMFF94_ENERGY>  (1) 
48.4594

>  <PUBCHEM_FEATURE_SELFOVERLAP>  (1) 
42.913

>  <PUBCHEM_SHAPE_FINGERPRINT>  (1) 
10366900 7 12391506503998388615
10646746 165 15140946336649877359
12423570 1 11130954085426879264
12654215 9 16950286208613698788
128620 24 18413670232071646887
13134695 92 17531237340682518092
13224815 77 18202008754609077587
13705890 14 15985110690889201700
14251717 144 18410573968261862223
15061688 2 18191872447139046388
15852999 172 18271814570171214546
16945 1 18198369336998582506
18186145 218 18410587179575931507
19862831 5 18060703879688639227
20233049 118 13623533437137130486
20645477 70 18040720246905342347
21452121 99 18193003831386719474
22892500 29 16008748026154296886
23402539 116 18341323465837628684
23402655 69 18130791148731544841
23557571 272 17346318142223598665
23559900 14 16917073260741555100
23622692 88 18114168758081740746
3060560 45 18333734615118373575
3286 77 17774718663125412586
4047638 21 17458349640982461689
5281201 14 18114464449131162773
54040823 5 16200432481120631522
581208 293 18342455937065299401
633830 44 18411989057159705031
7495541 125 16950574315373388009

>  <PUBCHEM_SHAPE_MULTIPOLES>  (1) 
350.81
8.19
1.84
1.4
14.79
1.18
-0.15
-1.59
-0.85
-1.04
-0.04
-0.56
-0.03
-0.34

>  <PUBCHEM_SHAPE_SELFOVERLAP>  (1) 
717.557

>  <PUBCHEM_SHAPE_VOLUME>  (1) 
209.5

>  <PUBCHEM_COORDINATE_TYPE>  (1) 
2
5
10

$$$$
