40449
     RDKit          3D

 19 21  0  0  1  0  0  0  0  0999 V2000
   -0.8388    2.3647    1.0003 Cl  0  0  0  0  0  0  0  0  0  0  0  0
   -3.0175    0.5259   -0.3937 N   0  0  0  0  0  0  0  0  0  0  0  0
   -0.3258   -0.3510    0.6420 C   0  0  0  0  0  0  0  0  0  0  0  0
    1.0474    1.2953   -0.7506 C   0  0  0  0  0  0  0  0  0  0  0  0
    1.3404   -1.2178   -1.0861 C   0  0  0  0  0  0  0  0  0  0  0  0
    2.1815   -0.1180    1.0433 C   0  0  0  0  0  0  0  0  0  0  0  0
   -0.3402    1.0232   -0.0940 C   0  0  0  0  0  0  0  0  0  0  0  0
   -0.0250   -1.4522   -0.4078 C   0  0  0  0  0  0  0  0  0  0  0  0
    0.8057   -0.3746    1.6989 C   0  0  0  0  0  0  0  0  0  0  0  0
    1.3220    0.1627   -1.7739 C   0  0  0  0  0  0  0  0  0  0  0  0
    2.1607    1.2500    0.3246 C   0  0  0  0  0  0  0  0  0  0  0  0
    2.4421   -1.2220   -0.0048 C   0  0  0  0  0  0  0  0  0  0  0  0
   -1.6741   -0.6697    1.3086 C   0  0  0  0  0  0  0  0  0  0  0  0
    1.0879    2.6414   -1.4925 C   0  0  0  0  0  0  0  0  0  0  0  0
    1.6119   -2.3176   -2.1184 C   0  0  0  0  0  0  0  0  0  0  0  0
    3.2829   -0.1355    2.1088 C   0  0  0  0  0  0  0  0  0  0  0  0
   -2.8355   -0.7418    0.3133 C   0  0  0  0  0  0  0  0  0  0  0  0
   -4.1308   -1.0864    1.0473 C   0  0  0  0  0  0  0  0  0  0  0  0
   -4.0946    0.4235   -1.3655 C   0  0  0  0  0  0  0  0  0  0  0  0
  1  7  1  0
  2 17  1  0
  2 19  1  0
  3  7  1  0
  3  8  1  0
  3  9  1  0
  3 13  1  0
  4  7  1  0
  4 10  1  0
  4 11  1  0
  4 14  1  0
  5  8  1  0
  5 10  1  0
  5 12  1  0
  5 15  1  0
  6  9  1  0
  6 11  1  0
  6 12  1  0
  6 16  1  0
 13 17  1  0
 17 18  1  0
M  END
>  <PUBCHEM_COMPOUND_CID>  (1) 
40449

>  <PUBCHEM_CONFORMER_RMSD>  (1) 
0.6

>  <PUBCHEM_CONFORMER_DIVERSEORDER>  (1) 
4
2
10
8
12
3
1
6
7
13
11
5
14
9

>  <PUBCHEM_MMFF94_PARTIAL_CHARGES>  (1) 
6
1 -0.29
17 0.27
19 0.27
2 -0.9
46 0.36
7 0.29

>  <PUBCHEM_EFFECTIVE_ROTOR_COUNT>  (1) 
4.2

>  <PUBCHEM_PHARMACOPHORE_FEATURES>  (1) 
6
1 2 cation
1 2 donor
6 3 4 5 7 8 10 rings
6 3 4 6 7 9 11 rings
6 3 5 6 8 9 12 rings
6 4 5 6 10 11 12 rings

>  <PUBCHEM_HEAVY_ATOM_COUNT>  (1) 
19

>  <PUBCHEM_ATOM_DEF_STEREO_COUNT>  (1) 
0

>  <PUBCHEM_ATOM_UDEF_STEREO_COUNT>  (1) 
4

>  <PUBCHEM_BOND_DEF_STEREO_COUNT>  (1) 
0

>  <PUBCHEM_BOND_UDEF_STEREO_COUNT>  (1) 
0

>  <PUBCHEM_ISOTOPIC_ATOM_COUNT>  (1) 
0

>  <PUBCHEM_COMPONENT_COUNT>  (1) 
1

>  <PUBCHEM_CACTVS_TAUTO_COUNT>  (1) 
1

>  <PUBCHEM_CONFORMER_ID>  (1) 
00009E0100000004

>  <PUBCHEM_MMFF94_ENERGY>  (1) 
72.7668

>  <PUBCHEM_FEATURE_SELFOVERLAP>  (1) 
42.772

>  <PUBCHEM_SHAPE_FINGERPRINT>  (1) 
10863032 1 17458337589346478992
10948715 1 17315647450118790060
11578080 2 17416424068709829432
12423570 1 13016121926849568398
12725867 57 18335707087729107518
13024252 1 16447805980679749266
13132413 78 17749373867458639668
13134695 92 18266155366432309025
13464514 151 17604446192014257196
14115302 16 16733262348828809323
14181834 199 18188203329059293804
14344429 50 17749113334726503746
144361 1 18191612854687886420
14817 1 10914268007218094398
14863182 85 17988924517558297215
15375462 478 18335966628144190496
15852999 172 18130777997178090411
15881359 60 18051937468874262068
16945 1 18131063836120616090
17357779 13 18199189481756053543
17980427 23 18339348708684666808
18186145 218 18113626672878872571
19010151 120 17821998775337287184
20233049 118 16951390045273470541
20511035 2 18048023357618729096
20559304 39 17095526231412742563
20600515 1 18188197711247449280
20905425 154 17827087508444975611
21524375 3 17469619854036827365
22112679 90 17679885724968496904
23419403 2 17628347178521364830
23557571 272 18413392025422760475
23559900 14 18040993982862896474
238 59 18048580806336236189
2748010 2 18126287441276103613
296302 2 17603583036652333296
298252 57 17619939552284949852
3286 77 17631441277230042130
394222 165 17900836155535478768
4175511 335 17704353272963954207
5262128 65 18264795214771736653
5845 1 12566552663080876392
5939293 188 18187078477293666325
81228 2 18122068598276370249

>  <PUBCHEM_SHAPE_MULTIPOLES>  (1) 
387.9
5.27
2.24
2.03
6.1
0.69
0.1
-1.05
-0.86
-0.74
1
-0.89
-0.19
0.57

>  <PUBCHEM_SHAPE_SELFOVERLAP>  (1) 
808.35

>  <PUBCHEM_SHAPE_VOLUME>  (1) 
223.8

>  <PUBCHEM_COORDINATE_TYPE>  (1) 
2
5
10

$$$$
