40462
     RDKit          3D

 11 11  0  0  1  0  0  0  0  0999 V2000
   -2.3727   -0.7926    0.3386 O   0  0  0  0  0  0  0  0  0  0  0  0
   -2.3471    1.3708   -0.4849 O   0  0  0  0  0  0  0  0  0  0  0  0
    2.4255   -0.2084    0.3463 N   0  0  0  0  0  0  0  0  0  0  0  0
    1.7542   -1.1230   -0.5863 C   0  0  0  0  0  0  0  0  0  0  0  0
    0.2473   -1.1779   -0.2899 C   0  0  0  0  0  0  0  0  0  0  0  0
    1.9252    1.1690    0.1863 C   0  0  0  0  0  0  0  0  0  0  0  0
   -0.3379    0.1837   -0.0715 C   0  0  0  0  0  0  0  0  0  0  0  0
    0.4243    1.2667    0.1319 C   0  0  0  0  0  0  0  0  0  0  0  0
    3.8761   -0.2534    0.1739 C   0  0  0  0  0  0  0  0  0  0  0  0
   -1.7909    0.3504   -0.1071 C   0  0  0  0  0  0  0  0  0  0  0  0
   -3.8038   -0.7853    0.3625 C   0  0  0  0  0  0  0  0  0  0  0  0
  1 10  1  0
  1 11  1  0
  2 10  2  0
  3  4  1  0
  3  6  1  0
  3  9  1  0
  4  5  1  0
  5  7  1  0
  6  8  1  0
  7  8  2  0
  7 10  1  0
M  END
>  <PUBCHEM_COMPOUND_CID>  (1) 
40462

>  <PUBCHEM_CONFORMER_RMSD>  (1) 
0.6

>  <PUBCHEM_CONFORMER_DIVERSEORDER>  (1) 
1
3
4
2

>  <PUBCHEM_MMFF94_PARTIAL_CHARGES>  (1) 
12
1 -0.43
10 0.71
11 0.28
18 0.15
2 -0.57
3 -0.81
4 0.27
5 0.14
6 0.41
7 -0.12
8 -0.29
9 0.27

>  <PUBCHEM_EFFECTIVE_ROTOR_COUNT>  (1) 
2.8

>  <PUBCHEM_PHARMACOPHORE_FEATURES>  (1) 
3
1 2 acceptor
1 3 cation
6 3 4 5 6 7 8 rings

>  <PUBCHEM_HEAVY_ATOM_COUNT>  (1) 
11

>  <PUBCHEM_ATOM_DEF_STEREO_COUNT>  (1) 
0

>  <PUBCHEM_ATOM_UDEF_STEREO_COUNT>  (1) 
0

>  <PUBCHEM_BOND_DEF_STEREO_COUNT>  (1) 
0

>  <PUBCHEM_BOND_UDEF_STEREO_COUNT>  (1) 
0

>  <PUBCHEM_ISOTOPIC_ATOM_COUNT>  (1) 
0

>  <PUBCHEM_COMPONENT_COUNT>  (1) 
1

>  <PUBCHEM_CACTVS_TAUTO_COUNT>  (1) 
1

>  <PUBCHEM_CONFORMER_ID>  (1) 
00009E0E00000001

>  <PUBCHEM_MMFF94_ENERGY>  (1) 
18.3303

>  <PUBCHEM_FEATURE_SELFOVERLAP>  (1) 
15.223

>  <PUBCHEM_SHAPE_FINGERPRINT>  (1) 
10219947 1 18272371992237669842
10857977 72 18410848863105887578
11062470 55 12251897105292270531
12032990 46 18341899554528551246
12932764 1 15769769117985672080
14325111 11 18410854365096357988
14993402 34 13840263710269182386
15219456 202 18342178804327028783
16945 1 17988918968497064204
17844478 74 18335707152090254705
19026448 5 16877943802662438356
200 152 17917700315132691413
20201158 50 18410294705103794243
20871998 22 18200887166596264078
23235685 24 18273208703691296856
23402539 116 18260537944709830503
23402655 69 18126830617939280941
23552423 10 18260271815091884708
2748010 2 18198624324294949926
29004967 10 18343584010315251576
5084963 1 18409731785046209073
8809292 202 18187932836467264691

>  <PUBCHEM_SHAPE_MULTIPOLES>  (1) 
209.66
5.72
1.4
0.69
0.92
0.16
0.02
-1.07
-0.8
0.04
0.11
0.01
-0.03
0.39

>  <PUBCHEM_SHAPE_SELFOVERLAP>  (1) 
416.489

>  <PUBCHEM_SHAPE_VOLUME>  (1) 
125.7

>  <PUBCHEM_COORDINATE_TYPE>  (1) 
2
5
10

$$$$
