40466
     RDKit          3D

 14 14  0  0  0  0  0  0  0  0999 V2000
    5.1646   -0.0174   -0.0002 Cl  0  0  0  0  0  0  0  0  0  0  0  0
   -4.8683    0.2380    0.0005 O   0  0  0  0  0  0  0  0  0  0  0  0
   -3.0107    1.4182    0.0004 O   0  0  0  0  0  0  0  0  0  0  0  0
   -0.7317    0.3735    0.0005 N   0  0  0  0  0  0  0  0  0  0  0  0
   -2.8496   -0.7671   -0.0006 N   0  0  0  0  0  0  0  0  0  0  0  0
   -0.9454   -2.0106   -0.0022 N   0  0  0  0  0  0  0  0  0  0  0  0
   -3.6390    0.3544    0.0007 N   0  0  0  0  0  0  0  0  0  0  0  0
    0.6639    0.2812    0.0004 C   0  0  0  0  0  0  0  0  0  0  0  0
    1.3596    0.2365   -1.2076 C   0  0  0  0  0  0  0  0  0  0  0  0
    1.3599    0.2336    1.2084 C   0  0  0  0  0  0  0  0  0  0  0  0
    2.7515    0.1441   -1.2078 C   0  0  0  0  0  0  0  0  0  0  0  0
    2.7517    0.1414    1.2081 C   0  0  0  0  0  0  0  0  0  0  0  0
    3.4475    0.0966    0.0000 C   0  0  0  0  0  0  0  0  0  0  0  0
   -1.4542   -0.7224   -0.0006 C   0  0  0  0  0  0  0  0  0  0  0  0
  1 13  1  0
  2  7  1  0
  3  7  2  0
  4  8  1  0
  4 14  2  0
  5  7  1  0
  5 14  1  0
  6 14  1  0
  8  9  2  0
  8 10  1  0
  9 11  1  0
 10 12  2  0
 11 13  2  0
 12 13  1  0
M  CHG  2   2  -1   7   1
M  END
>  <PUBCHEM_COMPOUND_CID>  (1) 
40466

>  <PUBCHEM_CONFORMER_RMSD>  (1) 
0.6

>  <PUBCHEM_CONFORMER_DIVERSEORDER>  (1) 
1
3
4
2
5

>  <PUBCHEM_MMFF94_PARTIAL_CHARGES>  (1) 
21
1 -0.18
10 -0.15
11 -0.15
12 -0.15
13 0.18
14 0.55
15 0.15
16 0.15
17 0.15
18 0.15
19 0.4
2 -0.52
20 0.4
21 0.4
3 -0.52
4 -0.63
5 -0.45
6 -0.85
7 1.04
8 0.18
9 -0.15

>  <PUBCHEM_EFFECTIVE_ROTOR_COUNT>  (1) 
3

>  <PUBCHEM_PHARMACOPHORE_FEATURES>  (1) 
6
1 2 acceptor
1 3 acceptor
1 5 donor
1 6 donor
4 4 5 6 14 cation
6 8 9 10 11 12 13 rings

>  <PUBCHEM_HEAVY_ATOM_COUNT>  (1) 
14

>  <PUBCHEM_ATOM_DEF_STEREO_COUNT>  (1) 
0

>  <PUBCHEM_ATOM_UDEF_STEREO_COUNT>  (1) 
0

>  <PUBCHEM_BOND_DEF_STEREO_COUNT>  (1) 
0

>  <PUBCHEM_BOND_UDEF_STEREO_COUNT>  (1) 
0

>  <PUBCHEM_ISOTOPIC_ATOM_COUNT>  (1) 
0

>  <PUBCHEM_COMPONENT_COUNT>  (1) 
1

>  <PUBCHEM_CACTVS_TAUTO_COUNT>  (1) 
3

>  <PUBCHEM_CONFORMER_ID>  (1) 
00009E1200000001

>  <PUBCHEM_MMFF94_ENERGY>  (1) 
43.0923

>  <PUBCHEM_FEATURE_SELFOVERLAP>  (1) 
30.583

>  <PUBCHEM_SHAPE_FINGERPRINT>  (1) 
11062470 55 17775005695573545676
11401426 45 14908177547364128576
11471102 20 16128657462045821664
12119455 92 16845850187729065036
12236239 1 17676488345433479492
124424 183 17775849025477018738
12500047 106 18343861143222860150
12932764 1 17241312681447112284
14115302 16 18410863187254427334
14943859 89 18260551134058387851
14993402 34 18113336418498489477
15048467 5 18409729595478194156
15375358 24 17632296791749784638
17834072 33 16660650699672590715
18175812 5 17703504493306229516
18186145 218 17704356546071775649
190213 19 17603586330807788265
19422 9 17458632271131451002
20201158 50 17203615886676453790
20233049 118 18409165506688481056
20279233 1 17632583768326439582
20645477 70 16702030729747753510
21119208 17 17967534575570252102
22485316 2 18130785677059280366
23048698 100 16950284005348197421
23402539 116 18272081695545995541
23402655 69 15482394162118000505
23559900 14 18272653463795022090
23598291 2 17604998194143507302
366044 4 18412262835407730739
474 4 16952262155768963132
69090 78 17275098449223685479
77492 1 17676486163568864216
8272917 22 16660916661343395075

>  <PUBCHEM_SHAPE_MULTIPOLES>  (1) 
258.32
8.65
1.05
1.05
2.44
0.35
0
-0.98
0.01
0.82
-0.01
-0.92
-0.08
-0.03

>  <PUBCHEM_SHAPE_SELFOVERLAP>  (1) 
527.635

>  <PUBCHEM_SHAPE_VOLUME>  (1) 
150.4

>  <PUBCHEM_COORDINATE_TYPE>  (1) 
2
5
10

$$$$
