40467
     RDKit          3D

 16 17  0  0  0  0  0  0  0  0999 V2000
    0.2798   -2.4056   -0.0842 Cl  0  0  0  0  0  0  0  0  0  0  0  0
   -1.3564    0.4320   -2.5125 Cl  0  0  0  0  0  0  0  0  0  0  0  0
    3.4197   -2.0220   -0.1421 Cl  0  0  0  0  0  0  0  0  0  0  0  0
    4.6187    0.9249    0.1009 Cl  0  0  0  0  0  0  0  0  0  0  0  0
    0.1439    0.2907    0.1789 C   0  0  0  0  0  0  0  0  0  0  0  0
   -1.3015    0.1711    0.2118 C   0  0  0  0  0  0  0  0  0  0  0  0
    0.9817   -0.8175    0.0472 C   0  0  0  0  0  0  0  0  0  0  0  0
    0.6923    1.5694    0.2843 C   0  0  0  0  0  0  0  0  0  0  0  0
   -2.0701    0.2217   -0.9512 C   0  0  0  0  0  0  0  0  0  0  0  0
   -1.9206   -0.0001    1.4500 C   0  0  0  0  0  0  0  0  0  0  0  0
    2.3660   -0.6470    0.0208 C   0  0  0  0  0  0  0  0  0  0  0  0
    2.0763    1.7400    0.2581 C   0  0  0  0  0  0  0  0  0  0  0  0
    2.9131    0.6319    0.1262 C   0  0  0  0  0  0  0  0  0  0  0  0
   -3.4578    0.1011   -0.8758 C   0  0  0  0  0  0  0  0  0  0  0  0
   -3.3083   -0.1207    1.5252 C   0  0  0  0  0  0  0  0  0  0  0  0
   -4.0769   -0.0700    0.3624 C   0  0  0  0  0  0  0  0  0  0  0  0
  1  7  1  0
  2  9  1  0
  3 11  1  0
  4 13  1  0
  5  6  1  0
  5  7  2  0
  5  8  1  0
  6  9  2  0
  6 10  1  0
  7 11  1  0
  8 12  2  0
  9 14  1  0
 10 15  2  0
 11 13  2  0
 12 13  1  0
 14 16  2  0
 15 16  1  0
M  END
>  <PUBCHEM_COMPOUND_CID>  (1) 
40467

>  <PUBCHEM_CONFORMER_RMSD>  (1) 
0.6

>  <PUBCHEM_CONFORMER_DIVERSEORDER>  (1) 
2
1

>  <PUBCHEM_MMFF94_PARTIAL_CHARGES>  (1) 
20
1 -0.18
10 -0.15
11 0.18
12 -0.15
13 0.18
14 -0.15
15 -0.15
16 -0.15
17 0.15
18 0.15
19 0.15
2 -0.18
20 0.15
21 0.15
22 0.15
3 -0.18
4 -0.18
7 0.18
8 -0.15
9 0.18

>  <PUBCHEM_EFFECTIVE_ROTOR_COUNT>  (1) 
1

>  <PUBCHEM_PHARMACOPHORE_FEATURES>  (1) 
2
6 5 7 8 11 12 13 rings
6 6 9 10 14 15 16 rings

>  <PUBCHEM_HEAVY_ATOM_COUNT>  (1) 
16

>  <PUBCHEM_ATOM_DEF_STEREO_COUNT>  (1) 
0

>  <PUBCHEM_ATOM_UDEF_STEREO_COUNT>  (1) 
0

>  <PUBCHEM_BOND_DEF_STEREO_COUNT>  (1) 
0

>  <PUBCHEM_BOND_UDEF_STEREO_COUNT>  (1) 
0

>  <PUBCHEM_ISOTOPIC_ATOM_COUNT>  (1) 
0

>  <PUBCHEM_COMPONENT_COUNT>  (1) 
1

>  <PUBCHEM_CACTVS_TAUTO_COUNT>  (1) 
1

>  <PUBCHEM_CONFORMER_ID>  (1) 
00009E1300000002

>  <PUBCHEM_MMFF94_ENERGY>  (1) 
48.0883

>  <PUBCHEM_FEATURE_SELFOVERLAP>  (1) 
10.149

>  <PUBCHEM_SHAPE_FINGERPRINT>  (1) 
11471102 20 18411134714612068176
12119455 92 18187920711573621010
12236239 1 17561084713379052649
12403814 3 17676764387403096588
13140716 1 18124309665409732368
13296908 3 18186802448224184242
13538477 17 17060046082232555431
13581323 91 15574705911142773712
14251717 144 18413387622538131714
15219456 202 18113335288837661961
15309172 13 18410295843079989795
15375462 189 17846498132134663168
15653759 3 17312821580280284361
15669948 3 16128366116712142493
15775835 57 18411697720426522798
16945 1 18412261770382292568
17844478 74 17967251992180931293
1813 80 17844261622832034238
18175812 5 17821730576135850685
18186145 218 18272654553888514268
19049666 15 17677882431730332545
19422 9 17632295666231080375
200 152 18273490178884324353
20279233 1 17894351089851419579
20344682 1 17894346700653403367
204376 136 18338237193034020968
20600515 1 16443071624964853509
20645476 183 17560796667260492223
20645477 70 18338791221792060718
21061003 4 18337397019688962795
21639500 275 18341884238290077776
22112679 90 17203313490634319944
22802520 49 17678725739926834925
23402539 116 14764348228159419913
23419403 2 15735354284220278416
23557571 272 17167860854893740861
23559900 14 16805600314137352650
23598291 2 17631737058315476518
2748010 2 18265606581718607028
3286 77 18408045095807669963
350125 39 17762342817941541408
474 4 17629747123001175120
77492 1 17561363984974191409
81228 2 17397251106987869642
8272917 22 18200320905623821535
90525 40 17060340712688955509

>  <PUBCHEM_SHAPE_MULTIPOLES>  (1) 
336.75
7.17
1.79
1.44
1.32
0.84
0.7
-0.43
-0.8
1.9
0
-1.59
-0.2
0.4

>  <PUBCHEM_SHAPE_SELFOVERLAP>  (1) 
695.672

>  <PUBCHEM_SHAPE_VOLUME>  (1) 
186.2

>  <PUBCHEM_COORDINATE_TYPE>  (1) 
2
5
10

$$$$
