40479
     RDKit          3D

 18 19  0  0  0  0  0  0  0  0999 V2000
   -0.6792   -0.0133   -2.8116 Cl  0  0  0  0  0  0  0  0  0  0  0  0
    3.4404    2.7456    0.1917 Cl  0  0  0  0  0  0  0  0  0  0  0  0
    3.4405   -2.7436    0.2152 Cl  0  0  0  0  0  0  0  0  0  0  0  0
   -3.8806    0.0095    2.5532 Cl  0  0  0  0  0  0  0  0  0  0  0  0
    5.0767    0.0015    0.3102 Cl  0  0  0  0  0  0  0  0  0  0  0  0
   -5.4018    0.0001   -0.3022 Cl  0  0  0  0  0  0  0  0  0  0  0  0
    0.5583    0.0000    0.0122 C   0  0  0  0  0  0  0  0  0  0  0  0
   -0.8856   -0.0004   -0.0824 C   0  0  0  0  0  0  0  0  0  0  0  0
    1.2542   -1.2077    0.0633 C   0  0  0  0  0  0  0  0  0  0  0  0
    1.2541    1.2083    0.0532 C   0  0  0  0  0  0  0  0  0  0  0  0
   -1.5451   -0.0058   -1.3139 C   0  0  0  0  0  0  0  0  0  0  0  0
   -1.6275    0.0049    1.1006 C   0  0  0  0  0  0  0  0  0  0  0  0
    2.6460    1.2088    0.1453 C   0  0  0  0  0  0  0  0  0  0  0  0
    2.6460   -1.2072    0.1554 C   0  0  0  0  0  0  0  0  0  0  0  0
   -3.0217    0.0047    1.0530 C   0  0  0  0  0  0  0  0  0  0  0  0
   -2.9392   -0.0058   -1.3616 C   0  0  0  0  0  0  0  0  0  0  0  0
    3.3420    0.0010    0.1964 C   0  0  0  0  0  0  0  0  0  0  0  0
   -3.6775   -0.0004   -0.1781 C   0  0  0  0  0  0  0  0  0  0  0  0
  1 11  1  0
  2 13  1  0
  3 14  1  0
  4 15  1  0
  5 17  1  0
  6 18  1  0
  7  8  1  0
  7  9  2  0
  7 10  1  0
  8 11  2  0
  8 12  1  0
  9 14  1  0
 10 13  2  0
 11 16  1  0
 12 15  2  0
 13 17  1  0
 14 17  2  0
 15 18  1  0
 16 18  2  0
M  END
>  <PUBCHEM_COMPOUND_CID>  (1) 
40479

>  <PUBCHEM_CONFORMER_RMSD>  (1) 
0.6

>  <PUBCHEM_CONFORMER_DIVERSEORDER>  (1) 
1
2
3

>  <PUBCHEM_MMFF94_PARTIAL_CHARGES>  (1) 
20
1 -0.18
10 -0.15
11 0.18
12 -0.15
13 0.18
14 0.18
15 0.18
16 -0.15
17 0.18
18 0.18
19 0.15
2 -0.18
20 0.15
21 0.15
22 0.15
3 -0.18
4 -0.18
5 -0.18
6 -0.18
9 -0.15

>  <PUBCHEM_EFFECTIVE_ROTOR_COUNT>  (1) 
1

>  <PUBCHEM_PHARMACOPHORE_FEATURES>  (1) 
2
6 7 9 10 13 14 17 rings
6 8 11 12 15 16 18 rings

>  <PUBCHEM_HEAVY_ATOM_COUNT>  (1) 
18

>  <PUBCHEM_ATOM_DEF_STEREO_COUNT>  (1) 
0

>  <PUBCHEM_ATOM_UDEF_STEREO_COUNT>  (1) 
0

>  <PUBCHEM_BOND_DEF_STEREO_COUNT>  (1) 
0

>  <PUBCHEM_BOND_UDEF_STEREO_COUNT>  (1) 
0

>  <PUBCHEM_ISOTOPIC_ATOM_COUNT>  (1) 
0

>  <PUBCHEM_COMPONENT_COUNT>  (1) 
1

>  <PUBCHEM_CACTVS_TAUTO_COUNT>  (1) 
1

>  <PUBCHEM_CONFORMER_ID>  (1) 
00009E1F00000001

>  <PUBCHEM_MMFF94_ENERGY>  (1) 
49.3552

>  <PUBCHEM_FEATURE_SELFOVERLAP>  (1) 
10.149

>  <PUBCHEM_SHAPE_FINGERPRINT>  (1) 
10366900 7 17822007601278542376
11471102 20 18409728469911568744
12236239 1 17703788123939641939
12670546 56 17846497010858074617
12916748 109 15913333523972028249
13140716 1 18266169725182641546
13538477 17 17202751717654990415
13544592 145 17677052343707295291
13583140 156 18271246144250197705
14289901 80 18410008858003103777
14386348 63 17530685394182134019
14739800 52 16055729080679536186
15219456 202 17967531298125239328
15342168 16 18118683463951869332
16752209 62 16056879139413089653
16945 1 18410566289313796744
1813 80 17986683558737919630
18175812 5 17748826345075023647
18186145 218 18341333400645656060
18785283 64 18042693969568142420
19049666 15 17532918420778034452
19422 9 17846778524531721239
19784866 34 18125996307483057344
200 152 18342450435607793139
20279233 1 17748828505480652811
20600515 1 16226042323393278717
20645476 183 17774995851603514375
20645477 70 18335694997190810958
21065201 7 16226043370916736723
21486144 27 18261387896940884964
2255824 54 18342738516418622694
2297311 6 16153708687385531998
23048698 100 18201719569928609217
23402539 116 15647052685302439091
23526113 38 17896024461050598850
23557571 272 16950275183173992772
23559900 14 16515677802364541282
23598291 2 17774717670830094996
2838139 119 18197212539419883129
31174 14 18334290946896300830
3268164 11 14908175323104267769
3286 77 18261109617193255758
4409770 3 15753494967205084183
474 4 18199743825022729720
602551 16 16153714262168738728
6049 1 17749391425374467340
621550 5 17678476172673674830
633830 44 18058463160843566252
7615 1 17704060798507348601
77492 1 17703787028696601205
8272917 22 18343023255116719887
9981440 41 16407003451896976920

>  <PUBCHEM_SHAPE_MULTIPOLES>  (1) 
381.65
9.71
1.83
1.82
2.28
0
0.47
0.01
-2.4
-3.65
-0.22
2.5
0
-0.02

>  <PUBCHEM_SHAPE_SELFOVERLAP>  (1) 
772.625

>  <PUBCHEM_SHAPE_VOLUME>  (1) 
215.2

>  <PUBCHEM_COORDINATE_TYPE>  (1) 
2
5
10

$$$$
