40473
     RDKit          3D

 18 19  0  0  0  0  0  0  0  0999 V2000
   -0.7426   -0.2325    2.3919 Cl  0  0  0  0  0  0  0  0  0  0  0  0
    0.7847    2.5962   -0.0707 Cl  0  0  0  0  0  0  0  0  0  0  0  0
   -3.8850   -0.1841    2.0266 Cl  0  0  0  0  0  0  0  0  0  0  0  0
    3.9710    2.3856    0.1635 Cl  0  0  0  0  0  0  0  0  0  0  0  0
    3.6431   -2.9618   -0.1297 Cl  0  0  0  0  0  0  0  0  0  0  0  0
   -5.0929   -0.0197   -0.9222 Cl  0  0  0  0  0  0  0  0  0  0  0  0
   -0.6154   -0.0969   -0.3142 C   0  0  0  0  0  0  0  0  0  0  0  0
    0.8320   -0.1170   -0.2033 C   0  0  0  0  0  0  0  0  0  0  0  0
   -1.4494   -0.1454    0.8029 C   0  0  0  0  0  0  0  0  0  0  0  0
   -1.1667   -0.0262   -1.5936 C   0  0  0  0  0  0  0  0  0  0  0  0
    1.5844    1.0518   -0.0867 C   0  0  0  0  0  0  0  0  0  0  0  0
    1.4683   -1.3580   -0.2163 C   0  0  0  0  0  0  0  0  0  0  0  0
   -2.8347   -0.1231    0.6405 C   0  0  0  0  0  0  0  0  0  0  0  0
   -2.5518   -0.0039   -1.7561 C   0  0  0  0  0  0  0  0  0  0  0  0
    2.9735    0.9793    0.0165 C   0  0  0  0  0  0  0  0  0  0  0  0
    2.8574   -1.4305   -0.1132 C   0  0  0  0  0  0  0  0  0  0  0  0
   -3.3858   -0.0523   -0.6390 C   0  0  0  0  0  0  0  0  0  0  0  0
    3.6101   -0.2618    0.0033 C   0  0  0  0  0  0  0  0  0  0  0  0
  1  9  1  0
  2 11  1  0
  3 13  1  0
  4 15  1  0
  5 16  1  0
  6 17  1  0
  7  8  1  0
  7  9  2  0
  7 10  1  0
  8 11  2  0
  8 12  1  0
  9 13  1  0
 10 14  2  0
 11 15  1  0
 12 16  2  0
 13 17  2  0
 14 17  1  0
 15 18  2  0
 16 18  1  0
M  END
>  <PUBCHEM_COMPOUND_CID>  (1) 
40473

>  <PUBCHEM_CONFORMER_RMSD>  (1) 
0.6

>  <PUBCHEM_CONFORMER_DIVERSEORDER>  (1) 
2
1

>  <PUBCHEM_MMFF94_PARTIAL_CHARGES>  (1) 
20
1 -0.18
10 -0.15
11 0.18
12 -0.15
13 0.18
14 -0.15
15 0.18
16 0.18
17 0.18
18 -0.15
19 0.15
2 -0.18
20 0.15
21 0.15
22 0.15
3 -0.18
4 -0.18
5 -0.18
6 -0.18
9 0.18

>  <PUBCHEM_EFFECTIVE_ROTOR_COUNT>  (1) 
1

>  <PUBCHEM_PHARMACOPHORE_FEATURES>  (1) 
2
6 7 9 10 13 14 17 rings
6 8 11 12 15 16 18 rings

>  <PUBCHEM_HEAVY_ATOM_COUNT>  (1) 
18

>  <PUBCHEM_ATOM_DEF_STEREO_COUNT>  (1) 
0

>  <PUBCHEM_ATOM_UDEF_STEREO_COUNT>  (1) 
0

>  <PUBCHEM_BOND_DEF_STEREO_COUNT>  (1) 
0

>  <PUBCHEM_BOND_UDEF_STEREO_COUNT>  (1) 
0

>  <PUBCHEM_ISOTOPIC_ATOM_COUNT>  (1) 
0

>  <PUBCHEM_COMPONENT_COUNT>  (1) 
1

>  <PUBCHEM_CACTVS_TAUTO_COUNT>  (1) 
1

>  <PUBCHEM_CONFORMER_ID>  (1) 
00009E1900000002

>  <PUBCHEM_MMFF94_ENERGY>  (1) 
51.5895

>  <PUBCHEM_FEATURE_SELFOVERLAP>  (1) 
10.149

>  <PUBCHEM_SHAPE_FINGERPRINT>  (1) 
11132069 177 16370441159799295765
11471102 20 18410570712766407316
11582403 64 16598932960005713692
11640471 11 17559976452660587768
12236239 1 17632574954879377390
12553582 1 18197503922453284942
13009979 54 17417536804694811994
13134695 92 18411132520052981548
13296908 3 17821452347885591843
13538477 17 17132114662438234127
13544592 145 17749109946187445083
13581323 91 15430029993701174856
13583140 156 18199752612583293681
14115302 16 17489013968383308343
14739800 52 16343120529411626058
15219456 202 18040715895834309508
15375358 24 17894625993523113172
16752209 62 15068623846488569779
16945 1 18410292557498742476
1813 80 17915191113692551414
18915476 22 18335145314718018442
19049666 15 17822284626706109520
19784866 34 18197773521818885700
200 152 18272363149116350319
20279233 1 17822007618421540183
204376 136 18194117650051516724
20600515 1 16443058430809509389
20645476 183 17774434022826364023
20645477 70 18336538344062929526
21065201 7 16515683316775404251
22112679 90 17275384291818112992
2255824 54 18272089383964970110
23048698 100 18131068246751270821
23175994 123 18188214199626658236
23526113 38 18040989622748157472
23557571 272 17023478528436440839
23559900 14 16877946005975795662
23598291 2 17846227617650617513
4409770 3 15464706030614699311
474 4 18056755649186975008
6049 1 17894635816186925628
633830 44 17603858988622764095
69090 78 18113892793226628815
7615 1 17632290159861233384
77492 1 17632577153844610598
8272917 22 18341895181803321463
90316 7 16629962110101703723
9981440 41 15761870527806991880

>  <PUBCHEM_SHAPE_MULTIPOLES>  (1) 
381.65
8.34
2.21
1.65
3.4
0.07
-0.71
-0.72
0.45
-4.24
0.07
2.2
-0.14
0.34

>  <PUBCHEM_SHAPE_SELFOVERLAP>  (1) 
774.111

>  <PUBCHEM_SHAPE_VOLUME>  (1) 
215.8

>  <PUBCHEM_COORDINATE_TYPE>  (1) 
2
5
10

$$$$
