40477
     RDKit          3D

 19 20  0  0  0  0  0  0  0  0999 V2000
    0.6331    2.7184    0.1986 Cl  0  0  0  0  0  0  0  0  0  0  0  0
    0.6323   -2.7179    0.1997 Cl  0  0  0  0  0  0  0  0  0  0  0  0
   -0.7795   -0.0017   -2.4107 Cl  0  0  0  0  0  0  0  0  0  0  0  0
    3.8173   -2.6657   -0.0496 Cl  0  0  0  0  0  0  0  0  0  0  0  0
    3.8180    2.6651   -0.0498 Cl  0  0  0  0  0  0  0  0  0  0  0  0
   -3.9218    0.0005   -2.0421 Cl  0  0  0  0  0  0  0  0  0  0  0  0
   -5.1287   -0.0004    0.9117 Cl  0  0  0  0  0  0  0  0  0  0  0  0
    0.7963    0.0000    0.1864 C   0  0  0  0  0  0  0  0  0  0  0  0
   -0.6512    0.0002    0.2988 C   0  0  0  0  0  0  0  0  0  0  0  0
    1.4967    1.2080    0.1313 C   0  0  0  0  0  0  0  0  0  0  0  0
    1.4968   -1.2080    0.1322 C   0  0  0  0  0  0  0  0  0  0  0  0
   -1.4856   -0.0001   -0.8190 C   0  0  0  0  0  0  0  0  0  0  0  0
   -1.2019    0.0007    1.5804 C   0  0  0  0  0  0  0  0  0  0  0  0
    2.8875   -1.2080    0.0239 C   0  0  0  0  0  0  0  0  0  0  0  0
    2.8874    1.2079    0.0232 C   0  0  0  0  0  0  0  0  0  0  0  0
   -2.8709   -0.0001   -0.6551 C   0  0  0  0  0  0  0  0  0  0  0  0
   -2.5871    0.0007    1.7443 C   0  0  0  0  0  0  0  0  0  0  0  0
    3.5828   -0.0001   -0.0307 C   0  0  0  0  0  0  0  0  0  0  0  0
   -3.4215    0.0003    0.6266 C   0  0  0  0  0  0  0  0  0  0  0  0
  1 10  1  0
  2 11  1  0
  3 12  1  0
  4 14  1  0
  5 15  1  0
  6 16  1  0
  7 19  1  0
  8  9  1  0
  8 10  2  0
  8 11  1  0
  9 12  2  0
  9 13  1  0
 10 15  1  0
 11 14  2  0
 12 16  1  0
 13 17  2  0
 14 18  1  0
 15 18  2  0
 16 19  2  0
 17 19  1  0
M  END
>  <PUBCHEM_COMPOUND_CID>  (1) 
40477

>  <PUBCHEM_CONFORMER_RMSD>  (1) 
0.6

>  <PUBCHEM_CONFORMER_DIVERSEORDER>  (1) 
1

>  <PUBCHEM_MMFF94_PARTIAL_CHARGES>  (1) 
20
1 -0.18
10 0.18
11 0.18
12 0.18
13 -0.15
14 0.18
15 0.18
16 0.18
17 -0.15
18 -0.15
19 0.18
2 -0.18
20 0.15
21 0.15
22 0.15
3 -0.18
4 -0.18
5 -0.18
6 -0.18
7 -0.18

>  <PUBCHEM_EFFECTIVE_ROTOR_COUNT>  (1) 
1

>  <PUBCHEM_PHARMACOPHORE_FEATURES>  (1) 
2
6 8 10 11 14 15 18 rings
6 9 12 13 16 17 19 rings

>  <PUBCHEM_HEAVY_ATOM_COUNT>  (1) 
19

>  <PUBCHEM_ATOM_DEF_STEREO_COUNT>  (1) 
0

>  <PUBCHEM_ATOM_UDEF_STEREO_COUNT>  (1) 
0

>  <PUBCHEM_BOND_DEF_STEREO_COUNT>  (1) 
0

>  <PUBCHEM_BOND_UDEF_STEREO_COUNT>  (1) 
0

>  <PUBCHEM_ISOTOPIC_ATOM_COUNT>  (1) 
0

>  <PUBCHEM_COMPONENT_COUNT>  (1) 
1

>  <PUBCHEM_CACTVS_TAUTO_COUNT>  (1) 
1

>  <PUBCHEM_CONFORMER_ID>  (1) 
00009E1D00000001

>  <PUBCHEM_MMFF94_ENERGY>  (1) 
56.0464

>  <PUBCHEM_FEATURE_SELFOVERLAP>  (1) 
10.149

>  <PUBCHEM_SHAPE_FINGERPRINT>  (1) 
10062212 137 17346593084855361943
11471102 20 18409450284484245960
11725454 13 17098859967663393109
12236239 1 17703793617171152177
12403259 415 17821447954371223549
12553582 1 18268712701935653638
13009979 54 17561366140969035978
13134695 92 18411698772889052684
13140716 1 18266457797334594440
13538477 17 17346875676233405887
13583140 156 18200040684761731105
15219456 202 17967530181465325869
15309172 13 18335702792540089888
15342168 16 18191595352575245252
16945 1 18410854360637633088
1813 80 17914349982960078854
18186145 218 18412826910431236398
18219364 16 18190176986923005488
19049666 15 17749661875075274361
19422 9 17846493729587625263
19784866 34 18197217173246107160
200 152 18270957947386061011
204376 136 18192716859147009048
20645476 183 17774160244415281653
20645477 70 18335421253170823706
21041028 32 18269559338457120248
21639500 275 18339637944629734312
22112679 90 17418365878989328152
2255824 54 18342462521804428838
23175994 123 18188779339997549992
23526113 38 17680974219810207019
23557571 272 16877947135066527925
23559900 14 16515959264567223722
23598291 2 17988640783375677093
25 1 18338797939458443616
2748010 2 18050861202200160210
3286 77 18261118421923724122
4340502 62 18339931527472771563
4409770 3 15608814613067835687
474 4 18057034938062339848
495365 180 18189591930804306805
6049 1 17821729394793114716
633830 44 18201172008574023197
77492 1 17775849012201648713
8272917 22 18341624689374425987

>  <PUBCHEM_SHAPE_MULTIPOLES>  (1) 
404.1
7.97
2.54
1.6
3.8
0
0.72
0
-0.3
-4.19
-0.15
2.13
0
0

>  <PUBCHEM_SHAPE_SELFOVERLAP>  (1) 
814.816

>  <PUBCHEM_SHAPE_VOLUME>  (1) 
229.8

>  <PUBCHEM_COORDINATE_TYPE>  (1) 
2
5
10

$$$$
