40486
     RDKit          3D

 38 42  0  0  1  0  0  0  0  0999 V2000
    2.3573   -0.0172    0.4711 O   0  0  0  0  0  0  0  0  0  0  0  0
    1.6748    2.0462   -0.4362 O   0  0  0  0  0  0  0  0  0  0  0  0
   -1.4193    2.5504   -0.1388 O   0  0  0  0  0  0  0  0  0  0  0  0
    3.4182   -2.9438   -0.8399 O   0  0  0  0  0  0  0  0  0  0  0  0
   -4.2113   -0.6352   -2.2974 O   0  0  0  0  0  0  0  0  0  0  0  0
   -5.1192   -1.8819   -0.6277 O   0  0  0  0  0  0  0  0  0  0  0  0
   -2.0810    0.8790   -1.5191 N   0  0  0  0  0  0  0  0  0  0  0  0
    0.8064   -3.6292   -1.7230 N   0  0  0  0  0  0  0  0  0  0  0  0
   -5.9187   -0.1841    1.4413 N   0  0  0  0  0  0  0  0  0  0  0  0
    2.7737    1.3297    0.1750 C   0  0  0  0  0  0  0  0  0  0  0  0
    3.0619    2.0703    1.5102 C   0  0  0  0  0  0  0  0  0  0  0  0
    3.5313   -0.1716    2.6126 C   0  0  0  0  0  0  0  0  0  0  0  0
    4.0135    1.2721    2.4116 C   0  0  0  0  0  0  0  0  0  0  0  0
    3.9614    1.3490   -0.8127 C   0  0  0  0  0  0  0  0  0  0  0  0
    3.2713   -0.8061    1.2359 C   0  0  0  0  0  0  0  0  0  0  0  0
    2.3167    1.4705   -2.7334 C   0  0  0  0  0  0  0  0  0  0  0  0
    3.5598    0.7666   -2.1686 C   0  0  0  0  0  0  0  0  0  0  0  0
    1.2093    1.4685   -1.6625 C   0  0  0  0  0  0  0  0  0  0  0  0
    2.6952   -2.2164    1.3177 C   0  0  0  0  0  0  0  0  0  0  0  0
    3.5707    3.5050    1.3359 C   0  0  0  0  0  0  0  0  0  0  0  0
    2.3079   -0.2103    3.5375 C   0  0  0  0  0  0  0  0  0  0  0  0
   -0.0428    2.2313   -2.0813 C   0  0  0  0  0  0  0  0  0  0  0  0
    2.6720    2.8783   -3.2291 C   0  0  0  0  0  0  0  0  0  0  0  0
    3.6437   -3.1334    2.0880 C   0  0  0  0  0  0  0  0  0  0  0  0
    2.4528   -2.7881   -0.0871 C   0  0  0  0  0  0  0  0  0  0  0  0
   -1.2386    1.8267   -1.2613 C   0  0  0  0  0  0  0  0  0  0  0  0
    1.0797   -3.1259   -0.5056 C   0  0  0  0  0  0  0  0  0  0  0  0
   -0.0463   -2.9896    0.2252 C   0  0  0  0  0  0  0  0  0  0  0  0
   -2.9412    0.9591   -0.4507 C   0  0  0  0  0  0  0  0  0  0  0  0
   -2.5391    1.9810    0.3966 C   0  0  0  0  0  0  0  0  0  0  0  0
   -0.5465   -3.8339   -1.8012 C   0  0  0  0  0  0  0  0  0  0  0  0
   -1.1023   -3.4441   -0.6028 C   0  0  0  0  0  0  0  0  0  0  0  0
   -4.0810    0.2127   -0.1188 C   0  0  0  0  0  0  0  0  0  0  0  0
   -3.1868    2.3346    1.5739 C   0  0  0  0  0  0  0  0  0  0  0  0
   -4.7621    0.5400    1.0626 C   0  0  0  0  0  0  0  0  0  0  0  0
   -4.3218    1.5802    1.8903 C   0  0  0  0  0  0  0  0  0  0  0  0
   -4.5237   -0.8630   -0.9923 C   0  0  0  0  0  0  0  0  0  0  0  0
   -6.2955   -0.3772    2.8040 C   0  0  0  0  0  0  0  0  0  0  0  0
  1 10  1  0
  1 15  1  0
  2 10  1  0
  2 18  1  0
  3 26  1  0
  3 30  1  0
  4 25  2  0
  5 37  1  0
  6 37  2  0
  7 26  2  0
  7 29  1  0
  8 27  1  0
  8 31  1  0
  9 35  1  0
  9 38  1  0
 10 11  1  0
 10 14  1  0
 11 13  1  0
 11 20  1  0
 12 13  1  0
 12 15  1  0
 12 21  1  0
 14 17  1  0
 15 19  1  0
 16 17  1  0
 16 18  1  0
 16 23  1  0
 18 22  1  0
 19 24  1  0
 19 25  1  0
 22 26  1  0
 25 27  1  0
 27 28  2  0
 28 32  1  0
 29 30  2  0
 29 33  1  0
 30 34  1  0
 31 32  2  0
 33 35  2  0
 33 37  1  0
 34 36  2  0
 35 36  1  0
M  END
>  <PUBCHEM_COMPOUND_CID>  (1) 
40486

>  <PUBCHEM_CONFORMER_RMSD>  (1) 
1

>  <PUBCHEM_CONFORMER_DIVERSEORDER>  (1) 
2
1
116
81
220
176
188
50
290
41
141
155
286
10
144
37
63
23
104
153
170
250
287
279
267
163
54
117
34
213
165
47
184
115
111
85
77
36
179
48
122
200
76
136
210
143
225
151
118
149
169
259
232
269
161
7
27
254
185
228
249
71
98
30
43
230
16
195
134
207
261
257
199
192
224
86
218
148
154
70
264
191
221
72
69
32
105
102
146
292
126
74
61
58
284
103
45
202
182
84
19
266
237
42
133
178
94
160
177
158
157
273
75
258
121
275
186
212
39
129
145
272
246
49
174
96
80
128
20
166
21
67
150
172
152
235
33
278
181
53
255
240
55
24
262
276
29
206
260
277
231
167
164
208
201
285
135
271
17
9
108
162
197
180
132
189
204
138
211
13
40
28
265
196
91
274
234
242
99
219
12
51
173
82
215
31
64
68
238
217
205
137
263
124
156
90
229
119
25
241
216
57
139
209
175
88
106
248
35
171
187
46
193
168
5
62
288
112
83
127
52
114
95
239
190
291
244
4
198
113
3
78
281
142
253
110
15
59
131
194
107
252
270
93
159
8
247
79
26
18
87
123
44
14
203
125
89
283
236
289
233
227
245
183
214
130
38
268
140
251
97
92
22
6
101
222
226
60
73
280
11
282
66
56
109
120
65
147
100
223
256
243

>  <PUBCHEM_MMFF94_PARTIAL_CHARGES>  (1) 
36
1 -0.56
10 0.56
15 0.28
18 0.28
19 0.06
2 -0.56
22 0.18
25 0.59
26 0.3
27 -0.24
28 -0.15
29 0.23
3 -0.28
30 0.14
31 -0.3
32 -0.15
33 0.09
34 -0.15
35 0.1
36 -0.15
37 0.63
38 0.37
4 -0.57
5 -0.65
6 -0.57
65 0.27
66 0.15
67 0.15
68 0.15
69 0.15
7 -0.57
70 0.15
71 0.4
75 0.5
8 0.03
9 -0.87

>  <PUBCHEM_EFFECTIVE_ROTOR_COUNT>  (1) 
9

>  <PUBCHEM_PHARMACOPHORE_FEATURES>  (1) 
16
1 1 acceptor
1 2 acceptor
1 24 hydrophobe
1 4 acceptor
1 5 acceptor
1 6 acceptor
1 8 cation
1 8 donor
1 9 cation
1 9 donor
3 5 6 37 anion
5 3 7 26 29 30 rings
5 8 27 28 31 32 rings
6 1 10 11 12 13 15 rings
6 2 10 14 16 17 18 rings
6 29 30 33 34 35 36 rings

>  <PUBCHEM_HEAVY_ATOM_COUNT>  (1) 
38

>  <PUBCHEM_ATOM_DEF_STEREO_COUNT>  (1) 
5

>  <PUBCHEM_ATOM_UDEF_STEREO_COUNT>  (1) 
2

>  <PUBCHEM_BOND_DEF_STEREO_COUNT>  (1) 
0

>  <PUBCHEM_BOND_UDEF_STEREO_COUNT>  (1) 
0

>  <PUBCHEM_ISOTOPIC_ATOM_COUNT>  (1) 
0

>  <PUBCHEM_COMPONENT_COUNT>  (1) 
1

>  <PUBCHEM_CACTVS_TAUTO_COUNT>  (1) 
35

>  <PUBCHEM_CONFORMER_ID>  (1) 
00009E2600000002

>  <PUBCHEM_MMFF94_ENERGY>  (1) 
102.885

>  <PUBCHEM_FEATURE_SELFOVERLAP>  (1) 
81.418

>  <PUBCHEM_SHAPE_FINGERPRINT>  (1) 
11421498 54 18264227854299372148
11456790 92 14403531328863585127
11513181 2 17917708015318866831
11578080 2 17914628395852005900
11991303 11 16085909699951923060
12156800 1 18053387883841230100
12422481 6 18265033791536311395
12655387 17 10476303951991225258
12786520 15 16195072129928557750
12788726 201 17329437649212820894
15001296 14 18263097659091937207
150020 26 17981890743980128963
15274700 34 18262511487147489109
15297060 5 18129682892154975223
15324884 4 17755551899410883812
15484559 13 16664340733356924405
161222 10 18126572459722659741
17974551 9 16907764546145617712
19301679 30 18041861536524460889
19319366 153 17315368174012692076
1979834 28 18410864243990410209
20764821 26 17550924311084046763
21315764 371 18200875187969470113
35225 105 17768208605101258284
392239 28 17987779848686464931
563151 248 18187643674406435592
6287921 2 18271248192849838783

>  <PUBCHEM_SHAPE_MULTIPOLES>  (1) 
731.86
10.95
4.9
3.39
15.69
3.72
0.62
-1.13
6.17
-3.46
-1.76
-1.67
-0.91
-1.86

>  <PUBCHEM_SHAPE_SELFOVERLAP>  (1) 
1583.909

>  <PUBCHEM_SHAPE_VOLUME>  (1) 
399.3

>  <PUBCHEM_COORDINATE_TYPE>  (1) 
2
5
10

$$$$
