40489
     RDKit          3D

 20 22  0  0  0  0  0  0  0  0999 V2000
   -3.9572    1.8492   -0.0046 N   0  0  0  0  0  0  0  0  0  0  0  0
    3.9571    1.8494    0.0047 N   0  0  0  0  0  0  0  0  0  0  0  0
   -1.2126   -0.7737    0.3901 C   0  0  0  0  0  0  0  0  0  0  0  0
    1.2125   -0.7736   -0.3903 C   0  0  0  0  0  0  0  0  0  0  0  0
   -0.3854   -2.5646   -1.1984 C   0  0  0  0  0  0  0  0  0  0  0  0
    0.3859   -2.5643    1.1986 C   0  0  0  0  0  0  0  0  0  0  0  0
    0.0000    0.1046   -0.0001 C   0  0  0  0  0  0  0  0  0  0  0  0
   -1.5784   -1.6747   -0.8121 C   0  0  0  0  0  0  0  0  0  0  0  0
   -0.8088   -1.6745    1.5800 C   0  0  0  0  0  0  0  0  0  0  0  0
    0.8087   -1.6746   -1.5801 C   0  0  0  0  0  0  0  0  0  0  0  0
    1.5786   -1.6743    0.8119 C   0  0  0  0  0  0  0  0  0  0  0  0
    0.0003   -3.4456    0.0003 C   0  0  0  0  0  0  0  0  0  0  0  0
   -2.4044    0.1080    0.7736 C   0  0  0  0  0  0  0  0  0  0  0  0
    2.4043    0.1082   -0.7738 C   0  0  0  0  0  0  0  0  0  0  0  0
   -2.8542    1.0040   -0.3695 C   0  0  0  0  0  0  0  0  0  0  0  0
    2.8542    1.0040    0.3695 C   0  0  0  0  0  0  0  0  0  0  0  0
   -4.3802    2.6961   -1.1314 C   0  0  0  0  0  0  0  0  0  0  0  0
   -3.6233    2.6999    1.1488 C   0  0  0  0  0  0  0  0  0  0  0  0
    4.3801    2.6961    1.1316 C   0  0  0  0  0  0  0  0  0  0  0  0
    3.6229    2.7003   -1.1486 C   0  0  0  0  0  0  0  0  0  0  0  0
  1 15  1  0
  1 17  1  0
  1 18  1  0
  2 16  1  0
  2 19  1  0
  2 20  1  0
  3  7  1  0
  3  8  1  0
  3  9  1  0
  3 13  1  0
  4  7  1  0
  4 10  1  0
  4 11  1  0
  4 14  1  0
  5  8  1  0
  5 10  1  0
  5 12  1  0
  6  9  1  0
  6 11  1  0
  6 12  1  0
 13 15  1  0
 14 16  1  0
M  END
>  <PUBCHEM_COMPOUND_CID>  (1) 
40489

>  <PUBCHEM_CONFORMER_RMSD>  (1) 
0.8

>  <PUBCHEM_CONFORMER_DIVERSEORDER>  (1) 
16
17
30
22
36
45
41
43
13
29
28
27
25
32
42
15
11
46
40
39
38
9
33
18
35
3
20
34
4
19
23
6
31
47
12
24
8
10
21
26
2
5
44
7
1
14
37
48

>  <PUBCHEM_MMFF94_PARTIAL_CHARGES>  (1) 
8
1 -0.81
15 0.27
16 0.27
17 0.27
18 0.27
19 0.27
2 -0.81
20 0.27

>  <PUBCHEM_EFFECTIVE_ROTOR_COUNT>  (1) 
7.2

>  <PUBCHEM_PHARMACOPHORE_FEATURES>  (1) 
6
1 1 cation
1 2 cation
6 3 4 5 7 8 10 rings
6 3 4 6 7 9 11 rings
6 3 5 6 8 9 12 rings
6 4 5 6 10 11 12 rings

>  <PUBCHEM_HEAVY_ATOM_COUNT>  (1) 
20

>  <PUBCHEM_ATOM_DEF_STEREO_COUNT>  (1) 
0

>  <PUBCHEM_ATOM_UDEF_STEREO_COUNT>  (1) 
0

>  <PUBCHEM_BOND_DEF_STEREO_COUNT>  (1) 
0

>  <PUBCHEM_BOND_UDEF_STEREO_COUNT>  (1) 
0

>  <PUBCHEM_ISOTOPIC_ATOM_COUNT>  (1) 
0

>  <PUBCHEM_COMPONENT_COUNT>  (1) 
1

>  <PUBCHEM_CACTVS_TAUTO_COUNT>  (1) 
1

>  <PUBCHEM_CONFORMER_ID>  (1) 
00009E2900000010

>  <PUBCHEM_MMFF94_ENERGY>  (1) 
64.257

>  <PUBCHEM_FEATURE_SELFOVERLAP>  (1) 
42.938

>  <PUBCHEM_SHAPE_FINGERPRINT>  (1) 
10042902 136 8321144651191483701
10291535 26 17982720080901374128
10670039 82 17185041004006164724
10937287 8 18411697690420183005
10948715 1 18410855460128577539
11221954 11 18410586079779629508
12107183 9 18335685145448347392
12173636 292 18193273229189446814
122479 349 18336267933138036496
12293681 160 17833238163780621303
12293681 4 16102177562288433941
12788726 201 18049708917423566866
13024252 1 17318718446156612590
13134695 92 17469032268525464527
13140716 1 18335702697945463954
13464514 151 18122359985736555739
13583140 156 17825395077130704299
13590594 115 17333105121818647072
14142880 1 18189604124031863685
14817 1 9710417080520457094
14848178 96 18338238167501779141
14955137 171 17975693892383664242
15422964 175 8718537268809792758
15534591 1 18337952406189281514
15848702 68 17901096422052858557
16120349 189 18188195581023506788
16945 1 18045770187626632307
17134986 127 18339925917891892494
1741750 31 18412265072869277848
17980427 23 17695611966560333585
19765921 60 18341892991517628491
20723712 36 18120920725496241794
21304303 282 17982135063205409302
21401589 2 18342178928786583649
21524375 3 18410572889934829633
21860390 5 17907292152842805453
22892500 29 17826513258627933391
2306618 200 17485099818605100706
23419403 2 17621937145473991935
23558518 356 18335700610908336686
2748010 2 18265641864252633335
394222 165 18337387128379410795
43658 37 18411978023273105693
474 4 18338514123655997953
5895379 119 17051326684394542081
5939293 188 17617093607948780685
7364860 26 18049725113776745395
7808743 9 18118979228548647692
84936 182 18199750254108704481
90316 7 17544491094203909522
9981440 41 18337383937113104354

>  <PUBCHEM_SHAPE_MULTIPOLES>  (1) 
401.63
7.05
4.39
1.44
0
0.26
0
11.67
0
0
0
0
-0.17
0.22

>  <PUBCHEM_SHAPE_SELFOVERLAP>  (1) 
830.847

>  <PUBCHEM_SHAPE_VOLUME>  (1) 
225.6

>  <PUBCHEM_COORDINATE_TYPE>  (1) 
2
5
10

$$$$
