40491
     RDKit          3D

 22 24  0  0  1  0  0  0  0  0999 V2000
   -3.5489    0.7017    0.6105 N   0  0  0  0  0  0  0  0  0  0  0  0
    3.5488    0.7018   -0.6106 N   0  0  0  0  0  0  0  0  0  0  0  0
   -1.0624   -0.3836   -0.7026 C   0  0  0  0  0  0  0  0  0  0  0  0
    1.0626   -0.3840    0.7024 C   0  0  0  0  0  0  0  0  0  0  0  0
    0.6942   -2.1747   -1.0503 C   0  0  0  0  0  0  0  0  0  0  0  0
   -0.6946   -2.1745    1.0502 C   0  0  0  0  0  0  0  0  0  0  0  0
    0.0001    0.4945    0.0001 C   0  0  0  0  0  0  0  0  0  0  0  0
   -0.3529   -1.2845   -1.7397 C   0  0  0  0  0  0  0  0  0  0  0  0
   -1.7390   -1.2845    0.3563 C   0  0  0  0  0  0  0  0  0  0  0  0
    1.7388   -1.2849   -0.3566 C   0  0  0  0  0  0  0  0  0  0  0  0
    0.3530   -1.2847    1.7396 C   0  0  0  0  0  0  0  0  0  0  0  0
   -0.0003   -3.0558    0.0000 C   0  0  0  0  0  0  0  0  0  0  0  0
   -2.1067    0.4983   -1.3930 C   0  0  0  0  0  0  0  0  0  0  0  0
    2.1070    0.4977    1.3931 C   0  0  0  0  0  0  0  0  0  0  0  0
   -2.8371    1.4431   -0.4305 C   0  0  0  0  0  0  0  0  0  0  0  0
    2.8371    1.4428    0.4308 C   0  0  0  0  0  0  0  0  0  0  0  0
   -3.8414    2.3027   -1.1968 C   0  0  0  0  0  0  0  0  0  0  0  0
    3.8417    2.3021    1.1973 C   0  0  0  0  0  0  0  0  0  0  0  0
   -4.5696   -0.1604    0.0161 C   0  0  0  0  0  0  0  0  0  0  0  0
   -4.1539    1.6232    1.5711 C   0  0  0  0  0  0  0  0  0  0  0  0
    4.5696   -0.1604   -0.0165 C   0  0  0  0  0  0  0  0  0  0  0  0
    4.1537    1.6239   -1.5708 C   0  0  0  0  0  0  0  0  0  0  0  0
  1 15  1  0
  1 19  1  0
  1 20  1  0
  2 16  1  0
  2 21  1  0
  2 22  1  0
  3  7  1  0
  3  8  1  0
  3  9  1  0
  3 13  1  0
  4  7  1  0
  4 10  1  0
  4 11  1  0
  4 14  1  0
  5  8  1  0
  5 10  1  0
  5 12  1  0
  6  9  1  0
  6 11  1  0
  6 12  1  0
 13 15  1  0
 14 16  1  0
 15 17  1  0
 16 18  1  0
M  END
>  <PUBCHEM_COMPOUND_CID>  (1) 
40491

>  <PUBCHEM_CONFORMER_RMSD>  (1) 
0.8

>  <PUBCHEM_CONFORMER_DIVERSEORDER>  (1) 
3
6
13
15
16
12
1
4
14
8
5
2
10
9
7
11

>  <PUBCHEM_MMFF94_PARTIAL_CHARGES>  (1) 
8
1 -0.81
15 0.27
16 0.27
19 0.27
2 -0.81
20 0.27
21 0.27
22 0.27

>  <PUBCHEM_EFFECTIVE_ROTOR_COUNT>  (1) 
7.2

>  <PUBCHEM_PHARMACOPHORE_FEATURES>  (1) 
6
1 1 cation
1 2 cation
6 3 4 5 7 8 10 rings
6 3 4 6 7 9 11 rings
6 3 5 6 8 9 12 rings
6 4 5 6 10 11 12 rings

>  <PUBCHEM_HEAVY_ATOM_COUNT>  (1) 
22

>  <PUBCHEM_ATOM_DEF_STEREO_COUNT>  (1) 
0

>  <PUBCHEM_ATOM_UDEF_STEREO_COUNT>  (1) 
2

>  <PUBCHEM_BOND_DEF_STEREO_COUNT>  (1) 
0

>  <PUBCHEM_BOND_UDEF_STEREO_COUNT>  (1) 
0

>  <PUBCHEM_ISOTOPIC_ATOM_COUNT>  (1) 
0

>  <PUBCHEM_COMPONENT_COUNT>  (1) 
1

>  <PUBCHEM_CACTVS_TAUTO_COUNT>  (1) 
1

>  <PUBCHEM_CONFORMER_ID>  (1) 
00009E2B00000003

>  <PUBCHEM_MMFF94_ENERGY>  (1) 
99.327

>  <PUBCHEM_FEATURE_SELFOVERLAP>  (1) 
42.938

>  <PUBCHEM_SHAPE_FINGERPRINT>  (1) 
10165383 225 18338531784281846701
10291535 26 17701813508852917392
10498660 4 18341600504461678645
10863032 1 18342460356539667859
10922049 32 18410573985156979234
10948715 1 18410573985151775942
11578080 2 17834161615655013351
12035759 4 15625396614082090371
12173636 292 18263635324499234958
12363563 72 9511461160133034956
12403259 118 17531514434471424813
12491281 212 18060131046635746095
12592029 89 18202287987270325558
12633257 1 16663155206651141145
12788726 201 17609495286985218346
13134695 92 17619334421294398743
13464514 151 18129112133950626715
13544653 18 7925913694485067744
13583140 156 16153416264284177661
14223421 5 17825664448536270213
14251751 93 18131346440589349191
14251757 17 16773801423737839172
14289901 80 17603300436473442401
14713325 29 18196936788747744130
14787075 74 18409167749135864345
15163728 17 18267611076708733836
15295992 7 18342176700162234744
15534591 1 18339350971989376638
16945 1 18125148338761612463
17834072 14 9295288339358971913
17921350 177 16541617235832245329
17980427 23 16298386851559114639
1813 80 16838827387629809311
18186145 218 18059851779256635232
18222031 100 11746940892968173680
18785283 64 18187649033887415170
19862831 5 15769776853163769285
200 152 11455896858039535696
20626108 58 11311759657887484244
20645477 56 18198900512399222728
21069387 34 14045477652032127340
21250096 35 9799690398128852517
21524375 3 18410852165888499106
21731228 192 18335135414406827651
21756936 100 17531814692131164660
22182937 141 18268989971701200560
22907989 373 18053107516512498988
23227448 37 18118401975794630093
23419403 2 17764359068468549795
23559900 14 17606960586402427319
25 1 18201158771590305338
2637199 183 18059862748407813473
3027735 51 10734786546266820173
347723 3 16056604231125103558
427121 178 17896053073985555419
439807 62 12831212285558417329
458136 41 18337402534516804171
463206 1 10735881642615793613
474 4 18342173324180965089
495365 180 17754155506790504341
5283173 99 11527681725564572379
633830 44 17775568628279091265
6442390 28 18411705421672643299
7226269 152 18059281111811499192
7399639 24 16265145552439063658
7808743 9 18115315612765281588
81228 2 17828469607277375322
9981440 41 16193916942755391712
9999458 23 17604145896564643106

>  <PUBCHEM_SHAPE_MULTIPOLES>  (1) 
442.79
8.02
2.81
1.64
0
0.74
0
-6.96
0
0
0
0
-0.2
0.26

>  <PUBCHEM_SHAPE_SELFOVERLAP>  (1) 
922.389

>  <PUBCHEM_SHAPE_VOLUME>  (1) 
246.7

>  <PUBCHEM_COORDINATE_TYPE>  (1) 
2
5
10

$$$$
