40508
     RDKit          3D

 22 24  0  0  0  0  0  0  0  0999 V2000
    3.2573   -1.6441    0.3479 O   0  0  0  0  0  0  0  0  0  0  0  0
    2.3040    1.5563   -0.3051 N   0  0  0  0  0  0  0  0  0  0  0  0
    1.8642    0.7418    0.8249 C   0  0  0  0  0  0  0  0  0  0  0  0
    1.1480   -0.4989    0.3806 C   0  0  0  0  0  0  0  0  0  0  0  0
   -0.2432   -0.5093    0.1866 C   0  0  0  0  0  0  0  0  0  0  0  0
   -0.8728   -1.7013   -0.2344 C   0  0  0  0  0  0  0  0  0  0  0  0
    3.2200    0.7986   -1.1577 C   0  0  0  0  0  0  0  0  0  0  0  0
    2.9447    2.7843    0.1665 C   0  0  0  0  0  0  0  0  0  0  0  0
    1.9070   -1.6488    0.1622 C   0  0  0  0  0  0  0  0  0  0  0  0
   -1.0213    0.6404    0.4021 C   0  0  0  0  0  0  0  0  0  0  0  0
   -2.4127    0.6292    0.2076 C   0  0  0  0  0  0  0  0  0  0  0  0
   -3.0423   -0.5628   -0.2132 C   0  0  0  0  0  0  0  0  0  0  0  0
   -2.2641   -1.7124   -0.4287 C   0  0  0  0  0  0  0  0  0  0  0  0
   -0.0939   -2.8503   -0.4500 C   0  0  0  0  0  0  0  0  0  0  0  0
    1.2868   -2.8231   -0.2526 C   0  0  0  0  0  0  0  0  0  0  0  0
    3.6872    1.6323   -2.3389 C   0  0  0  0  0  0  0  0  0  0  0  0
    1.9874    3.6166    1.0028 C   0  0  0  0  0  0  0  0  0  0  0  0
   -3.1914    1.7783    0.4227 C   0  0  0  0  0  0  0  0  0  0  0  0
   -4.4335   -0.5732   -0.4076 C   0  0  0  0  0  0  0  0  0  0  0  0
   -4.5721    1.7512    0.2250 C   0  0  0  0  0  0  0  0  0  0  0  0
   -5.1924    0.5769   -0.1896 C   0  0  0  0  0  0  0  0  0  0  0  0
    3.7331   -1.9816    1.6491 C   0  0  0  0  0  0  0  0  0  0  0  0
  1  9  1  0
  1 22  1  0
  2  3  1  0
  2  7  1  0
  2  8  1  0
  3  4  1  0
  4  5  2  0
  4  9  1  0
  5  6  1  0
  5 10  1  0
  6 13  1  0
  6 14  2  0
  7 16  1  0
  8 17  1  0
  9 15  2  0
 10 11  2  0
 11 12  1  0
 11 18  1  0
 12 13  2  0
 12 19  1  0
 14 15  1  0
 18 20  2  0
 19 21  2  0
 20 21  1  0
M  END
>  <PUBCHEM_COMPOUND_CID>  (1) 
40508

>  <PUBCHEM_CONFORMER_RMSD>  (1) 
0.8

>  <PUBCHEM_CONFORMER_DIVERSEORDER>  (1) 
2
3
1
4

>  <PUBCHEM_MMFF94_PARTIAL_CHARGES>  (1) 
24
1 -0.36
10 -0.15
13 -0.15
14 -0.15
15 -0.15
18 -0.15
19 -0.15
2 -0.81
20 -0.15
21 -0.15
22 0.28
29 0.15
3 0.41
30 0.15
31 0.15
32 0.15
39 0.15
4 -0.14
40 0.15
41 0.15
42 0.15
7 0.27
8 0.27
9 0.08

>  <PUBCHEM_EFFECTIVE_ROTOR_COUNT>  (1) 
5

>  <PUBCHEM_PHARMACOPHORE_FEATURES>  (1) 
5
1 1 acceptor
1 2 cation
6 11 12 18 19 20 21 rings
6 4 5 6 9 14 15 rings
6 5 6 10 11 12 13 rings

>  <PUBCHEM_HEAVY_ATOM_COUNT>  (1) 
22

>  <PUBCHEM_ATOM_DEF_STEREO_COUNT>  (1) 
0

>  <PUBCHEM_ATOM_UDEF_STEREO_COUNT>  (1) 
0

>  <PUBCHEM_BOND_DEF_STEREO_COUNT>  (1) 
0

>  <PUBCHEM_BOND_UDEF_STEREO_COUNT>  (1) 
0

>  <PUBCHEM_ISOTOPIC_ATOM_COUNT>  (1) 
0

>  <PUBCHEM_COMPONENT_COUNT>  (1) 
1

>  <PUBCHEM_CACTVS_TAUTO_COUNT>  (1) 
1

>  <PUBCHEM_CONFORMER_ID>  (1) 
00009E3C00000002

>  <PUBCHEM_MMFF94_ENERGY>  (1) 
80.9204

>  <PUBCHEM_FEATURE_SELFOVERLAP>  (1) 
25.423

>  <PUBCHEM_SHAPE_FINGERPRINT>  (1) 
10498660 4 18267865163074630197
10967382 1 18197496234033959395
12173636 292 18195806499436624701
12403260 363 18341035351368986163
13140716 1 18409441492665365139
13583140 156 17387124279074494179
138480 1 18196652899793262579
13965767 371 18043789074100764040
14178342 30 17902782291327034376
14955137 171 18338233752813196570
1601671 61 18268146457615397386
16945 1 18124307469979862739
17134986 127 18339364174940468660
17980427 23 17985517092648551522
1813 80 17752483162484706306
18186145 218 17987811815916902809
18681886 176 18271799099651775570
19591789 44 17474952503228354659
20510252 161 17910961571200289179
20671657 1 18410007749727409560
21267235 1 18342741759224646959
21304253 335 18341037576309615450
21524375 3 18334012826009505874
21709351 56 18268135488469078607
21864079 5 18342454902162777919
22393880 68 18342744064893740901
2255824 54 18188210901102811586
23366157 5 18189056400070283379
23558518 356 17832140894125084964
23559900 14 18269551633533996703
25147074 1 18335690685149212406
2637199 183 18339375139881023868
2748010 2 16973631322872972051
345986 75 17028507480296089530
350125 39 18410289207350171129
474 4 17821733878723095421
5104073 3 18408325480432218673
5895379 119 17773888492912603056
5939293 188 18341327799786463610
633830 44 18060139877384276397
67856867 119 18339630218078482057
7364860 26 18412259532435130656
7808743 9 17834110123572215872
81228 2 16970285509263625186
84936 182 18341893038683550184
9709674 26 17769663327477910012
9971528 1 18199179586478866482
9981440 41 17905031900649533120

>  <PUBCHEM_SHAPE_MULTIPOLES>  (1) 
441.9
8.61
3.66
1.2
7.22
0.71
0.39
3.51
0.84
-3.07
-0.46
-1.72
0.35
-1.36

>  <PUBCHEM_SHAPE_SELFOVERLAP>  (1) 
958.456

>  <PUBCHEM_SHAPE_VOLUME>  (1) 
244.6

>  <PUBCHEM_COORDINATE_TYPE>  (1) 
2
5
10

$$$$
