40502
     RDKit          3D

 22 24  0  0  0  0  0  0  0  0999 V2000
    3.7336   -1.0246   -0.1441 O   0  0  0  0  0  0  0  0  0  0  0  0
   -0.2629    2.1281   -0.4602 O   0  0  0  0  0  0  0  0  0  0  0  0
   -2.3441   -2.7164    0.4079 O   0  0  0  0  0  0  0  0  0  0  0  0
    3.3638    1.4923    0.4451 N   0  0  0  0  0  0  0  0  0  0  0  0
    0.1587   -0.1776   -0.1130 C   0  0  0  0  0  0  0  0  0  0  0  0
    1.5481   -0.0297   -0.2007 C   0  0  0  0  0  0  0  0  0  0  0  0
   -0.3946   -1.4396    0.1132 C   0  0  0  0  0  0  0  0  0  0  0  0
    2.2188    1.2883   -0.4396 C   0  0  0  0  0  0  0  0  0  0  0  0
   -0.7120    1.0065   -0.2613 C   0  0  0  0  0  0  0  0  0  0  0  0
   -2.1762    0.8365   -0.1655 C   0  0  0  0  0  0  0  0  0  0  0  0
    2.3777   -1.1428   -0.0621 C   0  0  0  0  0  0  0  0  0  0  0  0
   -2.7294   -0.4253    0.0613 C   0  0  0  0  0  0  0  0  0  0  0  0
   -1.8588   -1.6097    0.2084 C   0  0  0  0  0  0  0  0  0  0  0  0
    0.4416   -2.5539    0.2516 C   0  0  0  0  0  0  0  0  0  0  0  0
    1.8257   -2.4022    0.1634 C   0  0  0  0  0  0  0  0  0  0  0  0
   -3.0123    1.9510   -0.3035 C   0  0  0  0  0  0  0  0  0  0  0  0
   -4.1188   -0.5729    0.1501 C   0  0  0  0  0  0  0  0  0  0  0  0
    2.9415    1.4593    1.8453 C   0  0  0  0  0  0  0  0  0  0  0  0
    4.0260    2.7609    0.1418 C   0  0  0  0  0  0  0  0  0  0  0  0
   -4.3964    1.7996   -0.2140 C   0  0  0  0  0  0  0  0  0  0  0  0
   -4.9484    0.5404    0.0124 C   0  0  0  0  0  0  0  0  0  0  0  0
    4.3185   -1.1682   -1.4364 C   0  0  0  0  0  0  0  0  0  0  0  0
  1 11  1  0
  1 22  1  0
  2  9  2  0
  3 13  2  0
  4  8  1  0
  4 18  1  0
  4 19  1  0
  5  6  2  0
  5  7  1  0
  5  9  1  0
  6  8  1  0
  6 11  1  0
  7 13  1  0
  7 14  2  0
  9 10  1  0
 10 12  2  0
 10 16  1  0
 11 15  2  0
 12 13  1  0
 12 17  1  0
 14 15  1  0
 16 20  2  0
 17 21  2  0
 20 21  1  0
M  END
>  <PUBCHEM_COMPOUND_CID>  (1) 
40502

>  <PUBCHEM_CONFORMER_RMSD>  (1) 
0.6

>  <PUBCHEM_CONFORMER_DIVERSEORDER>  (1) 
1
3
4
2

>  <PUBCHEM_MMFF94_PARTIAL_CHARGES>  (1) 
28
1 -0.36
10 0.09
11 0.08
12 0.09
13 0.4
14 -0.15
15 -0.15
16 -0.15
17 -0.15
18 0.27
19 0.27
2 -0.57
20 -0.15
21 -0.15
22 0.28
25 0.15
26 0.15
27 0.15
28 0.15
3 -0.57
35 0.15
36 0.15
4 -0.81
5 0.09
6 -0.14
7 0.09
8 0.41
9 0.4

>  <PUBCHEM_EFFECTIVE_ROTOR_COUNT>  (1) 
3

>  <PUBCHEM_PHARMACOPHORE_FEATURES>  (1) 
7
1 1 acceptor
1 2 acceptor
1 3 acceptor
1 4 cation
6 10 12 16 17 20 21 rings
6 5 6 7 11 14 15 rings
6 5 7 9 10 12 13 rings

>  <PUBCHEM_HEAVY_ATOM_COUNT>  (1) 
22

>  <PUBCHEM_ATOM_DEF_STEREO_COUNT>  (1) 
0

>  <PUBCHEM_ATOM_UDEF_STEREO_COUNT>  (1) 
0

>  <PUBCHEM_BOND_DEF_STEREO_COUNT>  (1) 
0

>  <PUBCHEM_BOND_UDEF_STEREO_COUNT>  (1) 
0

>  <PUBCHEM_ISOTOPIC_ATOM_COUNT>  (1) 
0

>  <PUBCHEM_COMPONENT_COUNT>  (1) 
1

>  <PUBCHEM_CACTVS_TAUTO_COUNT>  (1) 
1

>  <PUBCHEM_CONFORMER_ID>  (1) 
00009E3600000001

>  <PUBCHEM_MMFF94_ENERGY>  (1) 
94.8219

>  <PUBCHEM_FEATURE_SELFOVERLAP>  (1) 
35.564

>  <PUBCHEM_SHAPE_FINGERPRINT>  (1) 
10411042 1 17545318584273769507
10608611 8 18410854364927338577
10616163 171 18192151709711162289
10967382 1 18336547123081291503
11132069 177 18334008432410968825
11370993 70 18410004455455955521
11578080 2 17273404187699620507
11595378 159 16588016875252323188
11680986 33 18410580620886479483
12011746 2 18265619792410301423
12390115 104 18196951078236086128
12403259 226 18046622300489461503
12403259 415 18334575699091781749
13140716 1 18408036321136918914
13224815 77 18408599279516419429
13544592 145 18341338812040438782
138480 1 18049720711493347786
14178342 30 18262510523929992299
14223421 5 18339644541583313475
14787075 74 18057316391579784537
14790565 3 18264221239384663020
15196674 1 18410012152385373023
15536298 74 18413670214195523421
16945 1 18265045843167018838
17804303 29 18337957779430719782
18186145 218 18339921519924632477
19591789 44 18409169879039047815
20510252 161 18196657512614635961
20691752 17 17749100110575083202
21267235 1 18337402552071323543
21452121 103 18342167882657776912
21756936 100 17983002651601478564
22149856 69 18264510498144601539
22182313 1 18266475367239245510
23227448 37 18413105091152479799
2334 1 18337955717693449758
23493267 7 17386021571294620434
23558518 356 18115871973901201946
23559900 14 18413390943101687596
2748010 2 18337677515481935662
335352 9 18265052440241995750
34934 24 18338510941316976343
350125 39 18409168784064973972
474 4 18409726278893049169
495365 180 17846491548055247714
5104073 3 18408325471604907235
5265222 85 17836933666213433100
59755656 215 18413392038671951388
633830 44 18342451517707644917
7364860 26 18341610357000208162
7808743 9 18049439537623556776
9709674 26 18339644541768085767
9981440 41 18263919015631533234

>  <PUBCHEM_SHAPE_MULTIPOLES>  (1) 
430.16
8.67
3.07
0.91
2.65
0.23
0.15
-3.24
-0.56
-1.27
0.27
-0.89
-0.16
1.13

>  <PUBCHEM_SHAPE_SELFOVERLAP>  (1) 
950.43

>  <PUBCHEM_SHAPE_VOLUME>  (1) 
231

>  <PUBCHEM_COORDINATE_TYPE>  (1) 
2
5
10

$$$$
