40506
     RDKit          3D

 20 22  0  0  0  0  0  0  0  0999 V2000
    3.6252   -0.9124   -0.1067 O   0  0  0  0  0  0  0  0  0  0  0  0
    3.1258    1.6487    0.3300 N   0  0  0  0  0  0  0  0  0  0  0  0
    0.0118   -0.1976   -0.1040 C   0  0  0  0  0  0  0  0  0  0  0  0
    1.4010   -0.0153   -0.2055 C   0  0  0  0  0  0  0  0  0  0  0  0
   -0.4959   -1.4795    0.2014 C   0  0  0  0  0  0  0  0  0  0  0  0
    1.9900    1.3255   -0.5297 C   0  0  0  0  0  0  0  0  0  0  0  0
   -0.8829    0.8678   -0.2999 C   0  0  0  0  0  0  0  0  0  0  0  0
   -2.2721    0.6846   -0.1985 C   0  0  0  0  0  0  0  0  0  0  0  0
    2.2765   -1.0833   -0.0084 C   0  0  0  0  0  0  0  0  0  0  0  0
   -2.7799   -0.5973    0.1071 C   0  0  0  0  0  0  0  0  0  0  0  0
   -1.8851   -1.6625    0.3030 C   0  0  0  0  0  0  0  0  0  0  0  0
    0.3993   -2.5442    0.3968 C   0  0  0  0  0  0  0  0  0  0  0  0
    1.7762   -2.3462    0.2924 C   0  0  0  0  0  0  0  0  0  0  0  0
   -3.1673    1.7492   -0.3944 C   0  0  0  0  0  0  0  0  0  0  0  0
   -4.1690   -0.7796    0.2083 C   0  0  0  0  0  0  0  0  0  0  0  0
    2.7153    1.6741    1.7340 C   0  0  0  0  0  0  0  0  0  0  0  0
    3.7099    2.9341   -0.0536 C   0  0  0  0  0  0  0  0  0  0  0  0
   -4.5443    1.5512   -0.2904 C   0  0  0  0  0  0  0  0  0  0  0  0
   -5.0445    0.2883    0.0107 C   0  0  0  0  0  0  0  0  0  0  0  0
    4.2102   -1.1054   -1.3927 C   0  0  0  0  0  0  0  0  0  0  0  0
  1  9  1  0
  1 20  1  0
  2  6  1  0
  2 16  1  0
  2 17  1  0
  3  4  2  0
  3  5  1  0
  3  7  1  0
  4  6  1  0
  4  9  1  0
  5 11  1  0
  5 12  2  0
  7  8  2  0
  8 10  1  0
  8 14  1  0
  9 13  2  0
 10 11  2  0
 10 15  1  0
 12 13  1  0
 14 18  2  0
 15 19  2  0
 18 19  1  0
M  END
>  <PUBCHEM_COMPOUND_CID>  (1) 
40506

>  <PUBCHEM_CONFORMER_RMSD>  (1) 
0.6

>  <PUBCHEM_CONFORMER_DIVERSEORDER>  (1) 
1
4
2
3

>  <PUBCHEM_MMFF94_PARTIAL_CHARGES>  (1) 
24
1 -0.36
11 -0.15
12 -0.15
13 -0.15
14 -0.15
15 -0.15
16 0.27
17 0.27
18 -0.15
19 -0.15
2 -0.81
20 0.28
23 0.15
24 0.15
25 0.15
26 0.15
27 0.15
28 0.15
35 0.15
36 0.15
4 -0.14
6 0.41
7 -0.15
9 0.08

>  <PUBCHEM_EFFECTIVE_ROTOR_COUNT>  (1) 
3

>  <PUBCHEM_PHARMACOPHORE_FEATURES>  (1) 
5
1 1 acceptor
1 2 cation
6 3 4 5 9 12 13 rings
6 3 5 7 8 10 11 rings
6 8 10 14 15 18 19 rings

>  <PUBCHEM_HEAVY_ATOM_COUNT>  (1) 
20

>  <PUBCHEM_ATOM_DEF_STEREO_COUNT>  (1) 
0

>  <PUBCHEM_ATOM_UDEF_STEREO_COUNT>  (1) 
0

>  <PUBCHEM_BOND_DEF_STEREO_COUNT>  (1) 
0

>  <PUBCHEM_BOND_UDEF_STEREO_COUNT>  (1) 
0

>  <PUBCHEM_ISOTOPIC_ATOM_COUNT>  (1) 
0

>  <PUBCHEM_COMPONENT_COUNT>  (1) 
1

>  <PUBCHEM_CACTVS_TAUTO_COUNT>  (1) 
1

>  <PUBCHEM_CONFORMER_ID>  (1) 
00009E3A00000001

>  <PUBCHEM_MMFF94_ENERGY>  (1) 
83.7061

>  <PUBCHEM_FEATURE_SELFOVERLAP>  (1) 
25.423

>  <PUBCHEM_SHAPE_FINGERPRINT>  (1) 
10411042 1 17689151214840715627
10608611 8 18336262366923614021
10646746 165 18408603660351406321
10967382 1 18408041788645850879
11132069 177 18187642535706904005
11595378 159 16009305410020416325
12390115 104 18195827377125645664
12403259 226 18117270350753923477
12403259 415 18261110743102629765
13134695 92 17346310454569326376
13140716 1 18334853935209243234
13224815 77 18408316701128720135
14178342 30 18115300227765048915
14787075 74 18127688451593305953
14848178 96 18411978078902212129
15196674 1 18409449206779660023
15536298 74 18412544322994679493
1601671 61 18265336110152709646
16945 1 18337665304742271906
18186145 218 18412261705688699293
200 152 18131348571167486343
20510252 161 18267590293646708281
20645477 70 18202002114151684447
20691752 17 17748816445080707518
21267235 1 18336839610802834287
21452121 103 18341323470554531064
221490 88 18336273370503635155
22149856 69 18263383507331902987
22854114 111 18408884018816007067
23227448 37 18341328993587256519
2334 1 18337391659495833398
23493267 7 17168721806905390098
23559900 14 18411980256418553796
2748010 2 18336271248689369230
3060560 45 18058729100712720606
335352 9 18336827468265501270
350125 39 18408325458240287876
474 4 18408600396245170993
495365 180 18201145603083308923
4990 188 18200602401453201782
5104073 3 18334860498541485001
56616090 163 18265625453926387580
5895379 119 16055490357021410160
6333272 397 18335699489705269801
633830 44 18413384332898891597
7364860 26 18341047419805127194
7808743 9 17976257160291226768
84936 182 18343579629396265401
9709674 26 18337956804341411047
9981440 41 18191579963786051922
9999458 23 18335140873563663574

>  <PUBCHEM_SHAPE_MULTIPOLES>  (1) 
400.74
8.87
2.81
0.92
4.83
0.29
-0.13
3.38
0.91
-2.2
-0.31
-0.83
0.16
0.98

>  <PUBCHEM_SHAPE_SELFOVERLAP>  (1) 
880.957

>  <PUBCHEM_SHAPE_VOLUME>  (1) 
219.1

>  <PUBCHEM_COORDINATE_TYPE>  (1) 
2
5
10

$$$$
