40511
     RDKit          3D

 23 26  0  0  0  0  0  0  0  0999 V2000
   -2.6465    1.9780   -0.2981 O   0  0  0  0  0  0  0  0  0  0  0  0
   -2.7461   -0.6646   -0.3491 N   0  0  0  0  0  0  0  0  0  0  0  0
   -2.5053   -1.0365    1.0522 C   0  0  0  0  0  0  0  0  0  0  0  0
   -3.5530   -1.6819   -1.0375 C   0  0  0  0  0  0  0  0  0  0  0  0
   -3.8217   -1.2086    1.8116 C   0  0  0  0  0  0  0  0  0  0  0  0
   -4.9035   -1.8753   -0.3465 C   0  0  0  0  0  0  0  0  0  0  0  0
   -4.7278   -2.2255    1.1269 C   0  0  0  0  0  0  0  0  0  0  0  0
   -1.4784   -0.4577   -1.0487 C   0  0  0  0  0  0  0  0  0  0  0  0
   -0.6620    0.6337   -0.4227 C   0  0  0  0  0  0  0  0  0  0  0  0
    0.7147    0.4754   -0.1922 C   0  0  0  0  0  0  0  0  0  0  0  0
   -1.3113    1.8186   -0.0758 C   0  0  0  0  0  0  0  0  0  0  0  0
    1.4420    1.5323    0.3980 C   0  0  0  0  0  0  0  0  0  0  0  0
    1.3832   -0.7114   -0.5362 C   0  0  0  0  0  0  0  0  0  0  0  0
    2.7600   -0.8690   -0.3054 C   0  0  0  0  0  0  0  0  0  0  0  0
   -0.5948    2.8599    0.5056 C   0  0  0  0  0  0  0  0  0  0  0  0
    0.7729    2.7188    0.7413 C   0  0  0  0  0  0  0  0  0  0  0  0
    2.8189    1.3748    0.6288 C   0  0  0  0  0  0  0  0  0  0  0  0
    3.4873    0.1879    0.2847 C   0  0  0  0  0  0  0  0  0  0  0  0
    3.4292   -2.0551   -0.6494 C   0  0  0  0  0  0  0  0  0  0  0  0
    4.8640    0.0298    0.5151 C   0  0  0  0  0  0  0  0  0  0  0  0
    4.7970   -2.1961   -0.4139 C   0  0  0  0  0  0  0  0  0  0  0  0
    5.5135   -1.1550    0.1676 C   0  0  0  0  0  0  0  0  0  0  0  0
   -3.0323    2.5274   -1.5561 C   0  0  0  0  0  0  0  0  0  0  0  0
  1 11  1  0
  1 23  1  0
  2  3  1  0
  2  4  1  0
  2  8  1  0
  3  5  1  0
  4  6  1  0
  5  7  1  0
  6  7  1  0
  8  9  1  0
  9 10  1  0
  9 11  2  0
 10 12  2  0
 10 13  1  0
 11 15  1  0
 12 16  1  0
 12 17  1  0
 13 14  2  0
 14 18  1  0
 14 19  1  0
 15 16  2  0
 17 18  2  0
 18 20  1  0
 19 21  2  0
 20 22  2  0
 21 22  1  0
M  END
>  <PUBCHEM_COMPOUND_CID>  (1) 
40511

>  <PUBCHEM_CONFORMER_RMSD>  (1) 
0.8

>  <PUBCHEM_CONFORMER_DIVERSEORDER>  (1) 
1
3
2
4
5
6

>  <PUBCHEM_MMFF94_PARTIAL_CHARGES>  (1) 
24
1 -0.36
11 0.08
13 -0.15
15 -0.15
16 -0.15
17 -0.15
19 -0.15
2 -0.81
20 -0.15
21 -0.15
22 -0.15
23 0.28
3 0.27
36 0.15
37 0.15
38 0.15
39 0.15
4 0.27
40 0.15
41 0.15
42 0.15
43 0.15
8 0.41
9 -0.14

>  <PUBCHEM_EFFECTIVE_ROTOR_COUNT>  (1) 
4.2

>  <PUBCHEM_PHARMACOPHORE_FEATURES>  (1) 
6
1 1 acceptor
1 2 cation
6 10 12 13 14 17 18 rings
6 14 18 19 20 21 22 rings
6 2 3 4 5 6 7 rings
6 9 10 11 12 15 16 rings

>  <PUBCHEM_HEAVY_ATOM_COUNT>  (1) 
23

>  <PUBCHEM_ATOM_DEF_STEREO_COUNT>  (1) 
0

>  <PUBCHEM_ATOM_UDEF_STEREO_COUNT>  (1) 
0

>  <PUBCHEM_BOND_DEF_STEREO_COUNT>  (1) 
0

>  <PUBCHEM_BOND_UDEF_STEREO_COUNT>  (1) 
0

>  <PUBCHEM_ISOTOPIC_ATOM_COUNT>  (1) 
0

>  <PUBCHEM_COMPONENT_COUNT>  (1) 
1

>  <PUBCHEM_CACTVS_TAUTO_COUNT>  (1) 
1

>  <PUBCHEM_CONFORMER_ID>  (1) 
00009E3F00000001

>  <PUBCHEM_MMFF94_ENERGY>  (1) 
76.4945

>  <PUBCHEM_FEATURE_SELFOVERLAP>  (1) 
30.499

>  <PUBCHEM_SHAPE_FINGERPRINT>  (1) 
1100329 8 16539613882416396090
11135609 12 18335423473516091017
11578080 2 17273671326370941697
11796584 16 17604139428296559355
12107183 9 18200609029405092507
12293681 160 17551491272527334345
12363563 72 18335991942528692355
12553582 1 18271531986918829558
12633257 1 16773523264750505907
12714826 92 18260547809906707501
12760667 363 18409167705622247771
13103583 49 18129119934049489251
13140716 1 18271528593836727648
13533116 47 18126571356575551523
13540713 4 18340187657636932752
13544653 18 18409732884531417606
14787075 74 18335987566584518258
14790565 3 17402893822184594168
15042514 8 18340773620030153977
15196674 1 18342170038915871612
15352361 1 18412261752748833594
15475509 84 17703524232833927097
17357779 13 18334848468037362413
17492 89 18340768123047196942
1813 80 18271823344430379660
193927 3 18259992586594378282
20642791 268 17488759976554340657
21267235 1 18343024389732033910
221490 88 18411698781848063992
22182313 1 18268969020988224744
23175994 123 18041278889533975823
23559900 14 18335972117001994949
2748010 2 18343008987177626068
2838139 119 10015592661885941890
3027735 51 18114747027730365731
314194 84 18269274723711694510
329604 57 18333736836186112726
3421961 26 18269274736633117105
3737641 26 18129394713251657230
3759504 43 17898004629989987381
4921388 177 17603590690215411481
5104073 3 18271518694590868434
57527295 17 18044343142620928607
59755656 520 18045775698792191277
70251023 43 18267851960561518031
9709674 26 18408599288053606508

>  <PUBCHEM_SHAPE_MULTIPOLES>  (1) 
462.48
10.67
3.23
1.21
3.44
1.51
0.11
-9.06
1.01
-1.52
-0.03
-1.31
-0.1
1.71

>  <PUBCHEM_SHAPE_SELFOVERLAP>  (1) 
1017.774

>  <PUBCHEM_SHAPE_VOLUME>  (1) 
250.5

>  <PUBCHEM_COORDINATE_TYPE>  (1) 
2
5
10

$$$$
