40515
     RDKit          3D

 12 12  0  0  0  0  0  0  0  0999 V2000
    3.4548    0.4053    1.3416 Cl  0  0  0  0  0  0  0  0  0  0  0  0
    3.8289    0.1776   -1.5193 Cl  0  0  0  0  0  0  0  0  0  0  0  0
    1.5236    1.6027   -0.4970 Cl  0  0  0  0  0  0  0  0  0  0  0  0
    0.3337   -1.2812    1.2947 S   0  0  0  0  0  0  0  0  0  0  0  0
    1.6725   -1.3802   -0.2696 S   0  0  0  0  0  0  0  0  0  0  0  0
   -1.1071   -0.5368    0.5550 C   0  0  0  0  0  0  0  0  0  0  0  0
   -1.7455   -1.1647   -0.5145 C   0  0  0  0  0  0  0  0  0  0  0  0
   -1.5963    0.6735    1.0461 C   0  0  0  0  0  0  0  0  0  0  0  0
   -2.8732   -0.5821   -1.0930 C   0  0  0  0  0  0  0  0  0  0  0  0
   -2.7241    1.2561    0.4678 C   0  0  0  0  0  0  0  0  0  0  0  0
   -3.3625    0.6282   -0.6018 C   0  0  0  0  0  0  0  0  0  0  0  0
    2.5953    0.2016   -0.2099 C   0  0  0  0  0  0  0  0  0  0  0  0
  1 12  1  0
  2 12  1  0
  3 12  1  0
  4  5  1  0
  4  6  1  0
  5 12  1  0
  6  7  2  0
  6  8  1  0
  7  9  1  0
  8 10  2  0
  9 11  2  0
 10 11  1  0
M  END
>  <PUBCHEM_COMPOUND_CID>  (1) 
40515

>  <PUBCHEM_CONFORMER_RMSD>  (1) 
0.6

>  <PUBCHEM_CONFORMER_DIVERSEORDER>  (1) 
1
5
9
8
2
6
4
7
3

>  <PUBCHEM_MMFF94_PARTIAL_CHARGES>  (1) 
17
1 -0.29
10 -0.15
11 -0.15
12 1.1
13 0.15
14 0.15
15 0.15
16 0.15
17 0.15
2 -0.29
3 -0.29
4 -0.1
5 -0.23
6 0.1
7 -0.15
8 -0.15
9 -0.15

>  <PUBCHEM_EFFECTIVE_ROTOR_COUNT>  (1) 
3

>  <PUBCHEM_PHARMACOPHORE_FEATURES>  (1) 
1
6 6 7 8 9 10 11 rings

>  <PUBCHEM_HEAVY_ATOM_COUNT>  (1) 
12

>  <PUBCHEM_ATOM_DEF_STEREO_COUNT>  (1) 
0

>  <PUBCHEM_ATOM_UDEF_STEREO_COUNT>  (1) 
0

>  <PUBCHEM_BOND_DEF_STEREO_COUNT>  (1) 
0

>  <PUBCHEM_BOND_UDEF_STEREO_COUNT>  (1) 
0

>  <PUBCHEM_ISOTOPIC_ATOM_COUNT>  (1) 
0

>  <PUBCHEM_COMPONENT_COUNT>  (1) 
1

>  <PUBCHEM_CACTVS_TAUTO_COUNT>  (1) 
1

>  <PUBCHEM_CONFORMER_ID>  (1) 
00009E4300000001

>  <PUBCHEM_MMFF94_ENERGY>  (1) 
9.9686

>  <PUBCHEM_FEATURE_SELFOVERLAP>  (1) 
5.074

>  <PUBCHEM_SHAPE_FINGERPRINT>  (1) 
10857977 72 14129638605617632587
10980938 120 18188207576818729667
12251169 10 12179851601661179359
124424 183 16732971016749134712
12897270 3 17846497045228466026
12932764 1 17917438605041829242
13296908 3 16558751221631850242
13618510 140 18113907047843074892
15653759 3 13695584421404798090
15775835 57 17385444344954296358
16945 1 18411141354642128891
18186145 218 17704359865933984282
19107657 47 16153694419203507154
20233049 118 17894919542280712292
20645464 45 15213296379369318923
20645476 183 18342168947873236247
20653085 51 18410865377334294363
20671657 53 16414931755424568220
20711985 344 14619686492293735371
21061003 4 12031789140976832394
21119208 17 18060423495000619301
22169311 14 14273729629806372698
23557571 272 17631721798375912067
23559900 14 16845007919152350090
23598291 2 17984991388224370111
25 1 18041570160724446614
449060 23 8430313558594998232
5262128 65 17631471088413706700
528716 315 18202283619399011039
57812782 119 17132115745176077156
63268167 104 18261676982404484816
74978 22 17968944218143842144
7832392 63 18200880556414930585
8030462 33 18272655623267026562
81228 2 12966311309537832538

>  <PUBCHEM_SHAPE_MULTIPOLES>  (1) 
260.26
6.6
1.57
1.45
1.66
0.04
-0.04
-1.86
1.36
0.09
-0.07
0.58
0.05
-0.48

>  <PUBCHEM_SHAPE_SELFOVERLAP>  (1) 
471.186

>  <PUBCHEM_SHAPE_VOLUME>  (1) 
167

>  <PUBCHEM_COORDINATE_TYPE>  (1) 
2
5
10

$$$$
