40528
     RDKit          3D

 22 24  0  0  1  0  0  0  0  0999 V2000
    0.7352   -1.2692   -0.6691 O   0  0  0  0  0  0  0  0  0  0  0  0
   -4.8089   -0.4060   -0.0620 N   0  0  0  0  0  0  0  0  0  0  0  0
    3.7354   -0.1149    0.7221 C   0  0  0  0  0  0  0  0  0  0  0  0
    3.1734   -0.9215   -0.4904 C   0  0  0  0  0  0  0  0  0  0  0  0
    3.0924    1.2206    0.2445 C   0  0  0  0  0  0  0  0  0  0  0  0
    3.6601   -0.1056   -1.7164 C   0  0  0  0  0  0  0  0  0  0  0  0
    3.6201    1.3589   -1.2039 C   0  0  0  0  0  0  0  0  0  0  0  0
    1.6307    0.8409    0.1177 C   0  0  0  0  0  0  0  0  0  0  0  0
    1.6890   -0.5703   -0.3825 C   0  0  0  0  0  0  0  0  0  0  0  0
    3.2306   -0.5859    2.1008 C   0  0  0  0  0  0  0  0  0  0  0  0
    5.2778   -0.0768    0.8139 C   0  0  0  0  0  0  0  0  0  0  0  0
    3.4645   -2.4014   -0.5496 C   0  0  0  0  0  0  0  0  0  0  0  0
    0.5242    1.5234    0.4030 C   0  0  0  0  0  0  0  0  0  0  0  0
   -0.8594    1.0224    0.2821 C   0  0  0  0  0  0  0  0  0  0  0  0
   -1.5462    1.2145   -0.9040 C   0  0  0  0  0  0  0  0  0  0  0  0
   -1.4388    0.3724    1.3578 C   0  0  0  0  0  0  0  0  0  0  0  0
   -3.4538    0.0846    0.0559 C   0  0  0  0  0  0  0  0  0  0  0  0
   -2.8537    0.7420   -1.0180 C   0  0  0  0  0  0  0  0  0  0  0  0
   -2.7463   -0.1003    1.2438 C   0  0  0  0  0  0  0  0  0  0  0  0
   -5.8164    0.7466   -0.3377 C   0  0  0  0  0  0  0  0  0  0  0  0
   -4.9473   -1.4429   -1.2128 C   0  0  0  0  0  0  0  0  0  0  0  0
   -5.3628   -1.1315    1.2047 C   0  0  0  0  0  0  0  0  0  0  0  0
  1  9  2  0
  2 17  1  0
  2 20  1  0
  2 21  1  0
  2 22  1  0
  3  4  1  0
  3  5  1  0
  3 10  1  0
  3 11  1  0
  4  6  1  0
  4  9  1  0
  4 12  1  0
  5  7  1  0
  5  8  1  0
  6  7  1  0
  8  9  1  0
  8 13  2  0
 13 14  1  0
 14 15  2  0
 14 16  1  0
 15 18  1  0
 16 19  2  0
 17 18  2  0
 17 19  1  0
M  CHG  1   2   1
M  END
>  <PUBCHEM_COMPOUND_CID>  (1) 
40528

>  <PUBCHEM_CONFORMER_RMSD>  (1) 
0.6

>  <PUBCHEM_CONFORMER_DIVERSEORDER>  (1) 
1
2

>  <PUBCHEM_MMFF94_PARTIAL_CHARGES>  (1) 
21
1 -0.57
13 -0.18
14 0.03
15 -0.15
16 -0.15
17 0.36
18 -0.15
19 -0.15
2 -0.87
20 0.5
21 0.5
22 0.5
37 0.15
38 0.15
39 0.15
4 0.06
40 0.15
41 0.15
5 0.14
8 -0.12
9 0.49

>  <PUBCHEM_EFFECTIVE_ROTOR_COUNT>  (1) 
2.6

>  <PUBCHEM_PHARMACOPHORE_FEATURES>  (1) 
5
1 1 acceptor
1 2 cation
3 3 10 11 hydrophobe
6 14 15 16 17 18 19 rings
7 3 4 5 6 7 8 9 rings

>  <PUBCHEM_HEAVY_ATOM_COUNT>  (1) 
22

>  <PUBCHEM_ATOM_DEF_STEREO_COUNT>  (1) 
0

>  <PUBCHEM_ATOM_UDEF_STEREO_COUNT>  (1) 
0

>  <PUBCHEM_BOND_DEF_STEREO_COUNT>  (1) 
0

>  <PUBCHEM_BOND_UDEF_STEREO_COUNT>  (1) 
1

>  <PUBCHEM_ISOTOPIC_ATOM_COUNT>  (1) 
0

>  <PUBCHEM_COMPONENT_COUNT>  (1) 
1

>  <PUBCHEM_CACTVS_TAUTO_COUNT>  (1) 
1

>  <PUBCHEM_CONFORMER_ID>  (1) 
00009E5000000001

>  <PUBCHEM_MMFF94_ENERGY>  (1) 
106.8359

>  <PUBCHEM_FEATURE_SELFOVERLAP>  (1) 
25.371

>  <PUBCHEM_SHAPE_FINGERPRINT>  (1) 
10366900 7 18187375332685030392
11089746 13 11314308369021911022
11370993 70 16588023524119803170
11796584 16 18040433283145193355
12236239 1 16917350333392624345
12516196 113 17418089932453335113
12553582 1 18131350825603512125
12596602 18 16200432502849071867
12616999 72 18409175415409777964
128620 24 18130784555497679764
13224815 77 17989487385817278752
13533116 47 16558753373495082983
13544653 18 18413112762296230065
13675066 3 16559032696967588345
14252887 29 17275108323195314556
14341114 176 14117525354317013944
14341114 328 15338827681751974570
14386348 63 18409731763692555523
14849402 71 15697134380114036354
14863182 85 18272936007992074438
15183329 4 17676199157513052913
15537594 2 18202010949284904375
15788980 27 18408039611287264383
16945 1 18341339916406352236
17349148 13 18411415111583733746
17844677 252 18202004339435938681
1813 80 17846225466125885469
18222031 100 17917996087618141573
19862831 5 15140681375558902657
200 152 18407758136094516433
20281475 54 18342463603608504361
20374829 77 18113052740667844505
20645477 70 18113623386865011250
21033648 29 12895075063918537843
212847 35 10592049050586527092
21503847 285 14405181794284334674
22224240 67 17988349460793129704
22646028 28 17988927755862988805
22854114 59 18060701688738366585
23402539 116 17530958073445715173
23557571 272 17894906295995234748
23559900 14 16805326625846672172
239999 70 18186805785862153066
25222932 49 17823700956813422659
26918003 58 17917706911970446753
3004659 81 17967533454362222306
3286 77 17489025946983903586
351380 180 17676203571921814128
465052 167 18334018314840677194
474 4 16486109855966416880
495365 180 16081091510949430880
5104073 3 17774443763321866826
5283173 99 17530955865964680069
542803 24 18113340808329755261
57724786 102 8646480851646268543
7495541 125 18114181977215968241
8988823 20 16702006574619870617
960060 61 18260270754366942117
9709674 26 18114186302173948579

>  <PUBCHEM_SHAPE_MULTIPOLES>  (1) 
441.9
12.43
1.64
1.52
11.15
0.35
0.17
2.95
-0.37
-0.55
-0.34
-0.52
0.26
0.08

>  <PUBCHEM_SHAPE_SELFOVERLAP>  (1) 
948.766

>  <PUBCHEM_SHAPE_VOLUME>  (1) 
255

>  <PUBCHEM_COORDINATE_TYPE>  (1) 
2
5
10

$$$$
