40525
     RDKit          3D

 22 23  0  0  1  0  0  0  0  0999 V2000
    0.0822    1.3010   -0.0745 O   0  0  0  0  0  0  0  0  0  0  0  0
   -4.6661    0.8990    0.1597 O   0  0  0  0  0  0  0  0  0  0  0  0
   -2.1707    1.0188    0.7377 O   0  0  0  0  0  0  0  0  0  0  0  0
   -4.3265   -1.0826   -0.9836 O   0  0  0  0  0  0  0  0  0  0  0  0
    1.7725   -1.7185    0.2373 N   0  0  0  0  0  0  0  0  0  0  0  0
    1.8139   -0.3115    0.1931 N   0  0  0  0  0  0  0  0  0  0  0  0
   -1.6779   -0.9785   -0.3815 N   0  0  0  0  0  0  0  0  0  0  0  0
    0.4579   -2.1047   -0.0275 C   0  0  0  0  0  0  0  0  0  0  0  0
   -0.3479   -1.0427   -0.1509 C   0  0  0  0  0  0  0  0  0  0  0  0
    0.5070    0.1610    0.0190 C   0  0  0  0  0  0  0  0  0  0  0  0
    3.0100    0.4275    0.0150 C   0  0  0  0  0  0  0  0  0  0  0  0
    2.5631   -2.4042    1.2549 C   0  0  0  0  0  0  0  0  0  0  0  0
    0.0739   -3.5445   -0.0952 C   0  0  0  0  0  0  0  0  0  0  0  0
    3.0272    1.8065    0.2471 C   0  0  0  0  0  0  0  0  0  0  0  0
    4.1823   -0.2167   -0.3935 C   0  0  0  0  0  0  0  0  0  0  0  0
    4.2044    2.5340    0.0722 C   0  0  0  0  0  0  0  0  0  0  0  0
    5.3594    0.5110   -0.5681 C   0  0  0  0  0  0  0  0  0  0  0  0
   -2.4953    0.0442    0.0763 C   0  0  0  0  0  0  0  0  0  0  0  0
    5.3705    1.8863   -0.3353 C   0  0  0  0  0  0  0  0  0  0  0  0
   -3.9462   -0.1327   -0.3260 C   0  0  0  0  0  0  0  0  0  0  0  0
   -6.0643    0.8658   -0.1427 C   0  0  0  0  0  0  0  0  0  0  0  0
   -6.7295    2.0815    0.4666 C   0  0  0  0  0  0  0  0  0  0  0  0
  1 10  2  0
  2 20  1  0
  2 21  1  0
  3 18  2  0
  4 20  2  0
  5  6  1  0
  5  8  1  0
  5 12  1  0
  6 10  1  0
  6 11  1  0
  7  9  1  0
  7 18  1  0
  8  9  2  0
  8 13  1  0
  9 10  1  0
 11 14  2  0
 11 15  1  0
 14 16  1  0
 15 17  2  0
 16 19  2  0
 17 19  1  0
 18 20  1  0
 21 22  1  0
M  END
>  <PUBCHEM_COMPOUND_CID>  (1) 
40525

>  <PUBCHEM_CONFORMER_RMSD>  (1) 
0.8

>  <PUBCHEM_CONFORMER_DIVERSEORDER>  (1) 
1
4
12
24
19
21
2
28
26
25
9
6
10
22
20
27
14
17
3
16
15
13
29
5
11
18
23
7
8

>  <PUBCHEM_MMFF94_PARTIAL_CHARGES>  (1) 
27
1 -0.57
10 0.62
11 0.12
12 0.37
13 0.14
14 -0.15
15 -0.15
16 -0.15
17 -0.15
18 0.63
19 -0.15
2 -0.43
20 0.72
21 0.28
29 0.37
3 -0.57
30 0.15
31 0.15
32 0.15
33 0.15
34 0.15
4 -0.57
5 -0.49
6 -0.16
7 -0.54
8 -0.04
9 0.12

>  <PUBCHEM_EFFECTIVE_ROTOR_COUNT>  (1) 
6

>  <PUBCHEM_PHARMACOPHORE_FEATURES>  (1) 
6
1 1 acceptor
1 3 acceptor
1 4 acceptor
1 7 donor
5 5 6 8 9 10 rings
6 11 14 15 16 17 19 rings

>  <PUBCHEM_HEAVY_ATOM_COUNT>  (1) 
22

>  <PUBCHEM_ATOM_DEF_STEREO_COUNT>  (1) 
0

>  <PUBCHEM_ATOM_UDEF_STEREO_COUNT>  (1) 
0

>  <PUBCHEM_BOND_DEF_STEREO_COUNT>  (1) 
0

>  <PUBCHEM_BOND_UDEF_STEREO_COUNT>  (1) 
0

>  <PUBCHEM_ISOTOPIC_ATOM_COUNT>  (1) 
0

>  <PUBCHEM_COMPONENT_COUNT>  (1) 
1

>  <PUBCHEM_CACTVS_TAUTO_COUNT>  (1) 
2

>  <PUBCHEM_CONFORMER_ID>  (1) 
00009E4D00000001

>  <PUBCHEM_MMFF94_ENERGY>  (1) 
75.1627

>  <PUBCHEM_FEATURE_SELFOVERLAP>  (1) 
30.477

>  <PUBCHEM_SHAPE_FINGERPRINT>  (1) 
10411042 1 17689435984321274746
11796584 16 13830128395110332749
12236239 1 18273214192733399821
12293681 160 17917715712089509129
12644460 14 18186798050510203818
12730499 353 18335147470617605923
12788726 201 17274545296486578473
12969540 114 18262220218537139446
13533116 47 17459184101461815131
13878862 14 18117815747682863469
13955234 65 18188770522409307554
14528608 73 18341609339119203093
14790565 3 18337957886631329037
15196674 1 18411699928007973255
18222031 100 9871753472534234468
21033648 29 18340482391008660832
23402539 116 18201998867098522740
23402655 69 18272647956945328831
23559900 14 18270402823854829732
23845131 108 18186803599350072195
25147074 1 18339342137321341750
293599 30 18410012164948632068
29717793 49 17561370556432722012
335352 9 18410858759633762358
34934 24 18411698781816188151
350125 39 18336261237574094444
4073 2 18113344132808652547
4340502 62 16877663452555826698
474 4 18410857646519827243
5104073 3 18187085036230674851
59682541 52 17632313246096752188
59755656 215 18340494374172716100
59755656 520 18335134336766104294
633830 44 18343015601490338463
77188 2 17617377277564849390
8272917 22 18339924805595842855
9999458 23 18186522112089027390

>  <PUBCHEM_SHAPE_MULTIPOLES>  (1) 
414.33
13.55
3.03
0.78
15.3
1.7
0.06
-11.66
-0.82
-1.46
0.37
-0.05
0.17
-1.04

>  <PUBCHEM_SHAPE_SELFOVERLAP>  (1) 
875.228

>  <PUBCHEM_SHAPE_VOLUME>  (1) 
231.7

>  <PUBCHEM_COORDINATE_TYPE>  (1) 
2
5
10

$$$$
