40532
     RDKit          3D

 13 14  0  0  0  0  0  0  0  0999 V2000
    1.3441   -0.9168   -0.0001 N   0  0  0  0  0  0  0  0  0  0  0  0
    0.6861    0.2479    0.0002 C   0  0  0  0  0  0  0  0  0  0  0  0
   -0.7597    0.1899    0.0002 C   0  0  0  0  0  0  0  0  0  0  0  0
    1.3806    1.4460    0.0009 C   0  0  0  0  0  0  0  0  0  0  0  0
    2.6825   -0.9801   -0.0002 C   0  0  0  0  0  0  0  0  0  0  0  0
    0.6218   -2.1945   -0.0013 C   0  0  0  0  0  0  0  0  0  0  0  0
   -1.4566    0.1627   -1.2078 C   0  0  0  0  0  0  0  0  0  0  0  0
   -1.4567    0.1606    1.2083 C   0  0  0  0  0  0  0  0  0  0  0  0
    2.7718    1.4102    0.0004 C   0  0  0  0  0  0  0  0  0  0  0  0
    3.4340    0.1864   -0.0002 C   0  0  0  0  0  0  0  0  0  0  0  0
   -2.8503    0.1064   -1.2080 C   0  0  0  0  0  0  0  0  0  0  0  0
   -2.8504    0.1043    1.2079 C   0  0  0  0  0  0  0  0  0  0  0  0
   -3.5472    0.0771   -0.0003 C   0  0  0  0  0  0  0  0  0  0  0  0
  1  2  2  0
  1  5  1  0
  1  6  1  0
  2  3  1  0
  2  4  1  0
  3  7  2  0
  3  8  1  0
  4  9  2  0
  5 10  2  0
  7 11  1  0
  8 12  2  0
  9 10  1  0
 11 13  2  0
 12 13  1  0
M  CHG  1   1   1
M  END
>  <PUBCHEM_COMPOUND_CID>  (1) 
40532

>  <PUBCHEM_CONFORMER_RMSD>  (1) 
0.4

>  <PUBCHEM_CONFORMER_DIVERSEORDER>  (1) 
1

>  <PUBCHEM_MMFF94_PARTIAL_CHARGES>  (1) 
21
1 -0.21
10 -0.15
11 -0.15
12 -0.15
13 -0.15
14 0.15
15 0.15
16 0.15
17 0.15
2 0.36
21 0.15
22 0.15
23 0.15
24 0.15
25 0.15
4 -0.15
5 0.21
6 0.49
7 -0.15
8 -0.15
9 -0.15

>  <PUBCHEM_EFFECTIVE_ROTOR_COUNT>  (1) 
1

>  <PUBCHEM_PHARMACOPHORE_FEATURES>  (1) 
2
6 1 2 4 5 9 10 rings
6 3 7 8 11 12 13 rings

>  <PUBCHEM_HEAVY_ATOM_COUNT>  (1) 
13

>  <PUBCHEM_ATOM_DEF_STEREO_COUNT>  (1) 
0

>  <PUBCHEM_ATOM_UDEF_STEREO_COUNT>  (1) 
0

>  <PUBCHEM_BOND_DEF_STEREO_COUNT>  (1) 
0

>  <PUBCHEM_BOND_UDEF_STEREO_COUNT>  (1) 
0

>  <PUBCHEM_ISOTOPIC_ATOM_COUNT>  (1) 
0

>  <PUBCHEM_COMPONENT_COUNT>  (1) 
1

>  <PUBCHEM_CACTVS_TAUTO_COUNT>  (1) 
1

>  <PUBCHEM_CONFORMER_ID>  (1) 
00009E5400000001

>  <PUBCHEM_MMFF94_ENERGY>  (1) 
48.529

>  <PUBCHEM_FEATURE_SELFOVERLAP>  (1) 
10.149

>  <PUBCHEM_SHAPE_FINGERPRINT>  (1) 
10219947 1 18407761438950617236
10608611 8 17895187805368444557
107287 299 18187654604185145734
11471102 20 18409444765245587772
11578080 2 12470309730010098607
12236239 1 17704071785038920973
124424 183 17386275532921829248
12932764 1 17748825219698724571
13538477 17 17417805162819821063
13581323 91 15140680289042816649
14144814 61 17846499231398357745
14251717 144 18411978057247592279
15219456 202 17967249788825655077
15279307 12 17846495933006276591
15309172 13 18408889559186772850
15775835 57 17846503638050777321
16945 1 18410856547034501510
17844478 74 17895199891469504389
18175812 5 17676490570247540543
18186145 218 18343585165751319980
19049666 15 17605266268726944525
19422 9 17704073988452206559
200 152 18343575248940650981
20201158 50 18113617854788923883
20279233 1 17748543744859027459
204376 136 18265331884189720456
20645464 45 17530682108933027153
20645477 70 18337944585270302087
20715346 28 17821731666783341168
21639500 275 18340477975829616300
21730867 7 18333733515659356638
23236772 104 17775566446545994051
23402539 116 16733253630134999367
23559900 14 16515960377090139650
23728640 28 15165726743117908547
2748010 2 18193848256522209202
474 4 17629465652324745448
528886 8 18412259558152134992
57812782 119 17675919906490670481
63268167 104 18343298175931034648
77492 1 17703790314462711617
81228 2 16608556573066977050
8272917 22 18199476459224166863

>  <PUBCHEM_SHAPE_MULTIPOLES>  (1) 
262.55
5.66
1.45
1.07
0.52
0.53
0
-0.74
0
-1.16
0
0.98
-0.06
0

>  <PUBCHEM_SHAPE_SELFOVERLAP>  (1) 
568.855

>  <PUBCHEM_SHAPE_VOLUME>  (1) 
143.7

>  <PUBCHEM_COORDINATE_TYPE>  (1) 
2
5
10

$$$$
