40534
     RDKit          3D

 20 22  0  0  1  0  0  0  0  0999 V2000
   -4.6388   -0.1081   -1.9450 Cl  0  0  0  0  0  0  0  0  0  0  0  0
   -5.2455    1.0773    1.0051 Cl  0  0  0  0  0  0  0  0  0  0  0  0
    3.0482    2.0759   -0.1952 N   0  0  0  0  0  0  0  0  0  0  0  0
    2.6126   -0.7397    0.5725 C   0  0  0  0  0  0  0  0  0  0  0  0
    0.5913   -2.1136   -0.3287 C   0  0  0  0  0  0  0  0  0  0  0  0
    1.4864    0.2275    0.1209 C   0  0  0  0  0  0  0  0  0  0  0  0
    0.3406   -0.5932   -0.5466 C   0  0  0  0  0  0  0  0  0  0  0  0
    3.0579   -1.6486   -0.5886 C   0  0  0  0  0  0  0  0  0  0  0  0
    2.0388   -1.6387    1.6849 C   0  0  0  0  0  0  0  0  0  0  0  0
    1.8755   -2.4833   -1.1005 C   0  0  0  0  0  0  0  0  0  0  0  0
    0.8407   -2.4379    1.1561 C   0  0  0  0  0  0  0  0  0  0  0  0
    2.0005    1.3255   -0.8154 C   0  0  0  0  0  0  0  0  0  0  0  0
   -1.0732   -0.1750   -0.1707 C   0  0  0  0  0  0  0  0  0  0  0  0
   -2.1032   -0.3070   -1.0979 C   0  0  0  0  0  0  0  0  0  0  0  0
   -1.3296    0.3354    1.0989 C   0  0  0  0  0  0  0  0  0  0  0  0
    2.5896    2.7263    1.0455 C   0  0  0  0  0  0  0  0  0  0  0  0
    3.5953    3.0990   -1.1044 C   0  0  0  0  0  0  0  0  0  0  0  0
   -3.3998    0.0746   -0.7528 C   0  0  0  0  0  0  0  0  0  0  0  0
   -2.6260    0.7170    1.4439 C   0  0  0  0  0  0  0  0  0  0  0  0
   -3.6612    0.5865    0.5182 C   0  0  0  0  0  0  0  0  0  0  0  0
  1 18  1  0
  2 20  1  0
  3 12  1  0
  3 16  1  0
  3 17  1  0
  4  6  1  0
  4  8  1  0
  4  9  1  0
  5  7  1  0
  5 10  1  0
  5 11  1  0
  6  7  1  0
  6 12  1  0
  7 13  1  0
  8 10  1  0
  9 11  1  0
 13 14  2  0
 13 15  1  0
 14 18  1  0
 15 19  2  0
 18 20  2  0
 19 20  1  0
M  END
>  <PUBCHEM_COMPOUND_CID>  (1) 
40534

>  <PUBCHEM_CONFORMER_RMSD>  (1) 
0.6

>  <PUBCHEM_CONFORMER_DIVERSEORDER>  (1) 
1
4
5
3
13
10
8
6
11
7
9
2
12

>  <PUBCHEM_MMFF94_PARTIAL_CHARGES>  (1) 
16
1 -0.18
12 0.27
13 -0.14
14 -0.15
15 -0.15
16 0.27
17 0.27
18 0.18
19 -0.15
2 -0.18
20 0.18
3 -0.81
35 0.15
36 0.15
43 0.15
7 0.14

>  <PUBCHEM_EFFECTIVE_ROTOR_COUNT>  (1) 
4.2

>  <PUBCHEM_PHARMACOPHORE_FEATURES>  (1) 
3
1 3 cation
6 13 14 15 18 19 20 rings
8 4 5 6 7 8 9 10 11 rings

>  <PUBCHEM_HEAVY_ATOM_COUNT>  (1) 
20

>  <PUBCHEM_ATOM_DEF_STEREO_COUNT>  (1) 
1

>  <PUBCHEM_ATOM_UDEF_STEREO_COUNT>  (1) 
1

>  <PUBCHEM_BOND_DEF_STEREO_COUNT>  (1) 
0

>  <PUBCHEM_BOND_UDEF_STEREO_COUNT>  (1) 
0

>  <PUBCHEM_ISOTOPIC_ATOM_COUNT>  (1) 
0

>  <PUBCHEM_COMPONENT_COUNT>  (1) 
1

>  <PUBCHEM_CACTVS_TAUTO_COUNT>  (1) 
1

>  <PUBCHEM_CONFORMER_ID>  (1) 
00009E5600000001

>  <PUBCHEM_MMFF94_ENERGY>  (1) 
63.7759

>  <PUBCHEM_FEATURE_SELFOVERLAP>  (1) 
15.223

>  <PUBCHEM_SHAPE_FINGERPRINT>  (1) 
10366900 7 17677058932144747187
11582403 64 15363543650914633735
11640471 11 18269547394020993452
11725454 13 16590798738892265725
12236239 1 17988924423147806011
12403259 327 15575255701311606029
12707595 3 18116435830039929579
13009979 54 17416978218159144602
13134695 92 17752185220170541130
13140716 1 18333735749021576730
13583140 156 17677039162610984267
13878862 14 18264756676674709901
14115302 16 17059776607294580511
14142880 1 17467898010707099348
14250199 8 18341056220219191687
14787075 74 17906728460182119655
15342168 16 18262810686562810349
16752209 62 17060326432360487943
16945 1 18262515884054575658
17980427 23 17915434191244663754
1813 80 17840604603976555486
18186145 218 18187083923638796603
19765921 60 18340483490540939041
20510252 161 17256529046524164944
20559304 39 18130510721246735369
20645477 70 18409166593547042679
21503847 285 18340776922748715137
21524375 3 18265890448838951796
21639500 275 18410288120834332093
2255824 54 18340208492375300334
22892500 29 17822560625552227190
22907989 373 17327467328876704436
23419403 2 17469662538065217802
23558518 356 17972888235099018850
23559900 14 17846216584286284063
23598291 2 18202282472806422821
238 59 18339641243053731016
25 1 18339652242876646916
2748010 2 18042985322320715946
31174 14 18042125375383810627
312423 11 17988925561593714575
3286 77 17604712140742078451
394222 165 18263914587604439056
4340502 62 18262248815099477987
474 4 18410293635498539104
495365 180 17676753298066608983
5895379 119 17200531618905896113
6034566 193 17682127908319382133
6049 1 17531812338209076533
633830 44 18411144602249288747
7364860 26 18342743987921867748
7615 1 18059569153524003857
77492 1 18060417989290382479
81228 2 17184462119411416104
81539 233 18260264200336635996
8272917 22 18339371781327471809
84936 182 18201718491760423664
9981440 41 17698430371935569920

>  <PUBCHEM_SHAPE_MULTIPOLES>  (1) 
410.35
8.16
2.99
1.62
9.86
1.03
-0.01
3.88
0.94
-4.91
0.12
0.8
-0.09
-1.11

>  <PUBCHEM_SHAPE_SELFOVERLAP>  (1) 
849.47

>  <PUBCHEM_SHAPE_VOLUME>  (1) 
238.4

>  <PUBCHEM_COORDINATE_TYPE>  (1) 
2
5
10

$$$$
