40541
     RDKit          3D

 14 15  0  0  0  0  0  0  0  0999 V2000
   -0.9822    0.8669    0.0013 O   0  0  0  0  0  0  0  0  0  0  0  0
    3.8302    0.4907   -0.0020 O   0  0  0  0  0  0  0  0  0  0  0  0
   -4.3034   -0.4260   -0.0034 O   0  0  0  0  0  0  0  0  0  0  0  0
    0.0116   -1.1620    0.0005 C   0  0  0  0  0  0  0  0  0  0  0  0
    0.2142    0.2142    0.0010 C   0  0  0  0  0  0  0  0  0  0  0  0
   -1.3964   -1.3448    0.0008 C   0  0  0  0  0  0  0  0  0  0  0  0
   -1.9510   -0.0858    0.0012 C   0  0  0  0  0  0  0  0  0  0  0  0
    1.4696    0.8193    0.0011 C   0  0  0  0  0  0  0  0  0  0  0  0
    1.1357   -2.0064   -0.0002 C   0  0  0  0  0  0  0  0  0  0  0  0
    2.5732   -0.0388    0.0007 C   0  0  0  0  0  0  0  0  0  0  0  0
    2.4119   -1.4268    0.0000 C   0  0  0  0  0  0  0  0  0  0  0  0
   -3.3075    0.3444   -0.0003 C   0  0  0  0  0  0  0  0  0  0  0  0
   -3.6386    1.8428    0.0006 C   0  0  0  0  0  0  0  0  0  0  0  0
    3.9327    1.9124   -0.0012 C   0  0  0  0  0  0  0  0  0  0  0  0
  1  5  1  0
  1  7  1  0
  2 10  1  0
  2 14  1  0
  3 12  2  0
  4  5  2  0
  4  6  1  0
  4  9  1  0
  5  8  1  0
  6  7  2  0
  7 12  1  0
  8 10  2  0
  9 11  2  0
 10 11  1  0
 12 13  1  0
M  END
>  <PUBCHEM_COMPOUND_CID>  (1) 
40541

>  <PUBCHEM_CONFORMER_RMSD>  (1) 
0.6

>  <PUBCHEM_CONFORMER_DIVERSEORDER>  (1) 
1
4
5
6
3
2

>  <PUBCHEM_MMFF94_PARTIAL_CHARGES>  (1) 
17
1 -0.28
10 0.08
11 -0.15
12 0.59
13 0.06
14 0.28
15 0.15
16 0.15
17 0.15
18 0.15
2 -0.36
3 -0.57
5 0.14
6 -0.15
7 0.05
8 -0.15
9 -0.15

>  <PUBCHEM_EFFECTIVE_ROTOR_COUNT>  (1) 
2

>  <PUBCHEM_PHARMACOPHORE_FEATURES>  (1) 
5
1 1 acceptor
1 2 acceptor
1 3 acceptor
5 1 4 5 6 7 rings
6 4 5 8 9 10 11 rings

>  <PUBCHEM_HEAVY_ATOM_COUNT>  (1) 
14

>  <PUBCHEM_ATOM_DEF_STEREO_COUNT>  (1) 
0

>  <PUBCHEM_ATOM_UDEF_STEREO_COUNT>  (1) 
0

>  <PUBCHEM_BOND_DEF_STEREO_COUNT>  (1) 
0

>  <PUBCHEM_BOND_UDEF_STEREO_COUNT>  (1) 
0

>  <PUBCHEM_ISOTOPIC_ATOM_COUNT>  (1) 
0

>  <PUBCHEM_COMPONENT_COUNT>  (1) 
1

>  <PUBCHEM_CACTVS_TAUTO_COUNT>  (1) 
2

>  <PUBCHEM_CONFORMER_ID>  (1) 
00009E5D00000001

>  <PUBCHEM_MMFF94_ENERGY>  (1) 
34.4094

>  <PUBCHEM_FEATURE_SELFOVERLAP>  (1) 
25.474

>  <PUBCHEM_SHAPE_FINGERPRINT>  (1) 
10465860 228 18339367344473306824
10608611 8 18336544919763198589
10967382 1 18410856572683044452
10980938 120 18411699859362473034
11471102 20 18410852118659481895
11543360 7 15554159380452012912
12346645 44 18410854377801690977
12932764 1 17346302800679063827
13380535 76 18408885161182758602
14123255 52 18411697733643974168
14144814 61 18410575046335427497
14325111 11 18410855426106053025
14415576 193 18410295791762025828
14897335 6 18411416228364985718
15196674 1 18410856529791380773
15219456 202 18335703797715482823
15442244 35 17979919306640850473
15536298 74 18342739576937837222
15775835 57 18342176691234670134
16945 1 18338798884071699810
170605 34 18335420157980458978
18186145 218 18270124496007634517
20645477 70 18269551646387075087
21501502 16 18411692175824482847
21524375 3 18409727400206314122
23402539 116 18272923925531554828
23402655 69 18343012264801701261
23559900 14 18198902518281104214
25 1 18411135835946685588
2748010 2 18337966665586452662
449060 50 18408888455475116813
449060 62 18413109454907518706
4990 188 17988935452745057502
5104073 3 18336266752053484689
528886 8 18411414037995000882
53812653 166 18342453789866566184
57096353 35 18271800250702420013
633830 44 18271808965080352229
7364860 26 18341895126554685430

>  <PUBCHEM_SHAPE_MULTIPOLES>  (1) 
270.51
7.12
1.96
0.6
1.89
0.04
0
3.55
0.01
-0.75
0
-0.01
-0.01
0

>  <PUBCHEM_SHAPE_SELFOVERLAP>  (1) 
586.88

>  <PUBCHEM_SHAPE_VOLUME>  (1) 
150.9

>  <PUBCHEM_COORDINATE_TYPE>  (1) 
2
5
10

$$$$
