40547
     RDKit          3D

 19 22  0  0  0  0  0  0  0  0999 V2000
    1.9415   -2.5037    0.5820 S   0  0  0  0  0  0  0  0  0  0  0  0
    5.4897    1.1226    0.0528 F   0  0  0  0  0  0  0  0  0  0  0  0
   -0.8563    0.9248    0.0569 N   0  0  0  0  0  0  0  0  0  0  0  0
   -0.4885   -1.4412   -0.2112 C   0  0  0  0  0  0  0  0  0  0  0  0
   -0.0155   -0.1350   -0.0835 C   0  0  0  0  0  0  0  0  0  0  0  0
    1.4302    0.1783   -0.0679 C   0  0  0  0  0  0  0  0  0  0  0  0
    0.4349   -2.6040   -0.4214 C   0  0  0  0  0  0  0  0  0  0  0  0
    2.3986   -0.8082    0.2222 C   0  0  0  0  0  0  0  0  0  0  0  0
   -1.8717   -1.6350   -0.2177 C   0  0  0  0  0  0  0  0  0  0  0  0
   -2.7465   -0.5529   -0.0737 C   0  0  0  0  0  0  0  0  0  0  0  0
   -2.1876    0.7286    0.0641 C   0  0  0  0  0  0  0  0  0  0  0  0
    1.8907    1.4852   -0.3266 C   0  0  0  0  0  0  0  0  0  0  0  0
    3.7629   -0.4811    0.2694 C   0  0  0  0  0  0  0  0  0  0  0  0
   -4.1417   -0.7247   -0.0677 C   0  0  0  0  0  0  0  0  0  0  0  0
   -3.0525    1.8100    0.2078 C   0  0  0  0  0  0  0  0  0  0  0  0
    3.2509    1.8019   -0.2899 C   0  0  0  0  0  0  0  0  0  0  0  0
    4.1859    0.8197    0.0110 C   0  0  0  0  0  0  0  0  0  0  0  0
   -4.9855    0.3726    0.0773 C   0  0  0  0  0  0  0  0  0  0  0  0
   -4.4394    1.6423    0.2159 C   0  0  0  0  0  0  0  0  0  0  0  0
  1  7  1  0
  1  8  1  0
  2 17  1  0
  3  5  2  0
  3 11  1  0
  4  5  1  0
  4  7  1  0
  4  9  2  0
  5  6  1  0
  6  8  2  0
  6 12  1  0
  8 13  1  0
  9 10  1  0
 10 11  2  0
 10 14  1  0
 11 15  1  0
 12 16  2  0
 13 17  2  0
 14 18  2  0
 15 19  2  0
 16 17  1  0
 18 19  1  0
M  END
>  <PUBCHEM_COMPOUND_CID>  (1) 
40547

>  <PUBCHEM_CONFORMER_RMSD>  (1) 
0.6

>  <PUBCHEM_CONFORMER_DIVERSEORDER>  (1) 
1

>  <PUBCHEM_MMFF94_PARTIAL_CHARGES>  (1) 
25
1 -0.33
11 0.31
12 -0.15
13 -0.15
14 -0.15
15 -0.15
16 -0.15
17 0.19
18 -0.15
19 -0.15
2 -0.19
22 0.15
23 0.15
24 0.15
25 0.15
26 0.15
27 0.15
28 0.15
29 0.15
3 -0.62
4 -0.14
5 0.31
7 0.37
8 0.1
9 -0.15

>  <PUBCHEM_EFFECTIVE_ROTOR_COUNT>  (1) 
0.4

>  <PUBCHEM_PHARMACOPHORE_FEATURES>  (1) 
5
1 3 acceptor
6 1 4 5 6 7 8 rings
6 10 11 14 15 18 19 rings
6 3 4 5 9 10 11 rings
6 6 8 12 13 16 17 rings

>  <PUBCHEM_HEAVY_ATOM_COUNT>  (1) 
19

>  <PUBCHEM_ATOM_DEF_STEREO_COUNT>  (1) 
0

>  <PUBCHEM_ATOM_UDEF_STEREO_COUNT>  (1) 
0

>  <PUBCHEM_BOND_DEF_STEREO_COUNT>  (1) 
0

>  <PUBCHEM_BOND_UDEF_STEREO_COUNT>  (1) 
0

>  <PUBCHEM_ISOTOPIC_ATOM_COUNT>  (1) 
0

>  <PUBCHEM_COMPONENT_COUNT>  (1) 
1

>  <PUBCHEM_CACTVS_TAUTO_COUNT>  (1) 
1

>  <PUBCHEM_CONFORMER_ID>  (1) 
00009E6300000001

>  <PUBCHEM_MMFF94_ENERGY>  (1) 
56.2001

>  <PUBCHEM_FEATURE_SELFOVERLAP>  (1) 
25.441

>  <PUBCHEM_SHAPE_FINGERPRINT>  (1) 
10382601 240 18041559140075878650
10411042 1 17329992396038163071
10493431 412 18409727404664727272
10608611 8 18336827464450419133
10616163 171 18411420652455977463
10967382 1 18410573959386928646
12107183 9 17689716359621899065
12236239 1 18187080685149085400
12251169 10 18335137587644435591
12390115 104 18271544051334270688
12592029 89 18408325471109398426
12644460 14 18188210892628662042
13140716 1 18336540616379879136
13583140 156 17023173955552938803
138480 1 17834113044023298426
14790565 3 18335991964436539316
15042514 8 18122629624095304087
15196674 1 18411136913630055458
15442244 35 18122343480161426091
15475509 35 16516819030809165387
15536298 74 18342177713321121406
17492 89 18338797819463779019
19784866 9 18410854339231394706
200 152 18272929436396445589
20157964 124 18265045843958154013
20510252 161 18201725037406334977
20645477 70 18340486660163805215
20715895 44 17833824968225237785
21267235 1 18410301314921247654
21421861 104 17824254904609570562
21524375 3 18411139159908637262
22854114 111 18335422348223693879
23366157 5 18043255647530950382
23402539 116 18201432618578641012
23463225 33 18337389340440418275
23558518 356 17756987079791242464
23559900 14 18127691517609598879
2916195 48 17988634264021867792
293599 30 18411983585418946436
3091708 16 9263902767175917914
335352 9 18410573951472545990
34934 24 18411976957730527287
350125 39 18338518650366911489
3545911 37 18410576188527930117
4214541 1 18410575089090265805
4340502 62 17530689797198904587
474 4 18113339742819130612
474229 33 18339644537879456151
5104073 3 18408885109579530091
58051976 378 18413671301096647109
59755656 215 18342465807528004030
6138700 20 18267029358666575094
633830 44 18343584005883310175
69090 78 18412260666079675903
7364860 26 18341334366691641798
8272917 22 18339646629037886463
9709674 26 18410299086197588187

>  <PUBCHEM_SHAPE_MULTIPOLES>  (1) 
382.61
9.51
2.49
0.67
1.04
0.92
0.01
-4.59
0.59
-0.8
-0.02
-0.04
0.08
-0.54

>  <PUBCHEM_SHAPE_SELFOVERLAP>  (1) 
854.794

>  <PUBCHEM_SHAPE_VOLUME>  (1) 
207

>  <PUBCHEM_COORDINATE_TYPE>  (1) 
2
5
10

$$$$
