40548
     RDKit          3D

 20 23  0  0  0  0  0  0  0  0999 V2000
    1.9446   -2.4384    0.6498 S   0  0  0  0  0  0  0  0  0  0  0  0
    5.6682    0.9910    0.0193 F   0  0  0  0  0  0  0  0  0  0  0  0
   -0.6797    1.1132    0.0517 N   0  0  0  0  0  0  0  0  0  0  0  0
   -0.4327   -1.2741   -0.1600 C   0  0  0  0  0  0  0  0  0  0  0  0
    0.1061    0.0092   -0.0659 C   0  0  0  0  0  0  0  0  0  0  0  0
   -1.8239   -1.3981   -0.1566 C   0  0  0  0  0  0  0  0  0  0  0  0
    0.4300   -2.4868   -0.3452 C   0  0  0  0  0  0  0  0  0  0  0  0
    1.5657    0.2495   -0.0635 C   0  0  0  0  0  0  0  0  0  0  0  0
   -2.6425   -0.2701   -0.0358 C   0  0  0  0  0  0  0  0  0  0  0  0
   -2.0190    0.9845    0.0686 C   0  0  0  0  0  0  0  0  0  0  0  0
    2.4847   -0.7773    0.2470 C   0  0  0  0  0  0  0  0  0  0  0  0
   -2.4463   -2.7604   -0.2687 C   0  0  0  0  0  0  0  0  0  0  0  0
    2.0902    1.5249   -0.3557 C   0  0  0  0  0  0  0  0  0  0  0  0
   -4.0444   -0.3711   -0.0203 C   0  0  0  0  0  0  0  0  0  0  0  0
   -2.8278    2.1113    0.1891 C   0  0  0  0  0  0  0  0  0  0  0  0
    3.8639   -0.5183    0.2811 C   0  0  0  0  0  0  0  0  0  0  0  0
    3.4647    1.7734   -0.3319 C   0  0  0  0  0  0  0  0  0  0  0  0
   -4.8312    0.7706    0.1010 C   0  0  0  0  0  0  0  0  0  0  0  0
    4.3506    0.7529   -0.0105 C   0  0  0  0  0  0  0  0  0  0  0  0
   -4.2212    2.0140    0.2065 C   0  0  0  0  0  0  0  0  0  0  0  0
  1  7  1  0
  1 11  1  0
  2 19  1  0
  3  5  2  0
  3 10  1  0
  4  5  1  0
  4  6  2  0
  4  7  1  0
  5  8  1  0
  6  9  1  0
  6 12  1  0
  8 11  2  0
  8 13  1  0
  9 10  2  0
  9 14  1  0
 10 15  1  0
 11 16  1  0
 13 17  2  0
 14 18  2  0
 15 20  2  0
 16 19  2  0
 17 19  1  0
 18 20  1  0
M  END
>  <PUBCHEM_COMPOUND_CID>  (1) 
40548

>  <PUBCHEM_CONFORMER_RMSD>  (1) 
0.6

>  <PUBCHEM_CONFORMER_DIVERSEORDER>  (1) 
1

>  <PUBCHEM_MMFF94_PARTIAL_CHARGES>  (1) 
25
1 -0.33
10 0.31
11 0.1
12 0.14
13 -0.15
14 -0.15
15 -0.15
16 -0.15
17 -0.15
18 -0.15
19 0.19
2 -0.19
20 -0.15
26 0.15
27 0.15
28 0.15
29 0.15
3 -0.62
30 0.15
31 0.15
32 0.15
4 -0.14
5 0.31
6 -0.14
7 0.37

>  <PUBCHEM_EFFECTIVE_ROTOR_COUNT>  (1) 
0.4

>  <PUBCHEM_PHARMACOPHORE_FEATURES>  (1) 
5
1 3 acceptor
6 1 4 5 7 8 11 rings
6 3 4 5 6 9 10 rings
6 8 11 13 16 17 19 rings
6 9 10 14 15 18 20 rings

>  <PUBCHEM_HEAVY_ATOM_COUNT>  (1) 
20

>  <PUBCHEM_ATOM_DEF_STEREO_COUNT>  (1) 
0

>  <PUBCHEM_ATOM_UDEF_STEREO_COUNT>  (1) 
0

>  <PUBCHEM_BOND_DEF_STEREO_COUNT>  (1) 
0

>  <PUBCHEM_BOND_UDEF_STEREO_COUNT>  (1) 
0

>  <PUBCHEM_ISOTOPIC_ATOM_COUNT>  (1) 
0

>  <PUBCHEM_COMPONENT_COUNT>  (1) 
1

>  <PUBCHEM_CACTVS_TAUTO_COUNT>  (1) 
1

>  <PUBCHEM_CONFORMER_ID>  (1) 
00009E6400000001

>  <PUBCHEM_MMFF94_ENERGY>  (1) 
67.13

>  <PUBCHEM_FEATURE_SELFOVERLAP>  (1) 
25.441

>  <PUBCHEM_SHAPE_FINGERPRINT>  (1) 
10411042 1 17402612342992160942
10493431 412 18410012139009906216
10616163 171 18411138077788219511
10967382 1 18410573942212334207
12107183 9 17760363292878255496
12173636 292 18340763853010246390
12236239 1 18113335336541407032
12251169 10 18335700524670750479
12390115 104 18270981097149166112
12403814 3 17967246490734013677
12592029 89 18335987484447520026
12644460 14 18115027390141332242
12788726 201 17466246527025711610
13140716 1 18409161134538010674
13583140 156 17167856465990896049
138480 1 17618222806359429743
14790565 3 18335427915076939812
15042514 8 18194688296338698407
15196674 1 18410855430079403379
15442244 35 18265893545194069074
15536298 74 18341895125990020606
16752209 62 18200020871434418806
16945 1 18410009901501107335
17492 89 18409729543359039651
1813 80 16733270058368952806
19591789 44 18050851323227097579
19784866 9 18409727335792237650
20510252 161 18198910403318242395
20715895 44 17760921849682272497
21267235 1 18409738373568290954
21421861 104 17823689764449753050
21501502 16 18411411787574763823
21524375 3 18410013238521533951
23227448 37 18411981377515684279
23366157 5 18042974168343655482
23402539 116 18272082833511914396
23463225 33 18336544906862251499
23557571 272 18130232677996555302
23558518 356 17973445700262684408
23559900 14 18057324989930452422
25147074 1 18338498794691228855
2748010 2 17837198647876618083
335352 9 18338516331554057478
34934 24 18409725153611409675
350125 39 18338519758505280233
3545911 37 18411703188046640300
4214541 1 18410856576899091876
474 4 17967536800215741820
5104073 3 18408603634576419698
58051976 378 18413388743513780340
59755656 215 18342746170155625318
633830 44 17914054201304601021
69090 78 18410291398100035657
7097593 13 18043797702521315714
7364860 26 18268712714667282438
7832392 63 18410571773654847830
8272917 22 18339646611799878079
9709674 26 18412549794867969391
9981440 41 18408884048844414283

>  <PUBCHEM_SHAPE_MULTIPOLES>  (1) 
403.19
9.32
2.81
0.67
2.21
1.22
-0.02
-4.86
-0.44
-0.54
0.04
0.06
0.08
-0.68

>  <PUBCHEM_SHAPE_SELFOVERLAP>  (1) 
899.306

>  <PUBCHEM_SHAPE_VOLUME>  (1) 
219.3

>  <PUBCHEM_COORDINATE_TYPE>  (1) 
2
5
10

$$$$
