40550
     RDKit          3D

 19 22  0  0  0  0  0  0  0  0999 V2000
    2.2098   -2.1775   -0.4869 S   0  0  0  0  0  0  0  0  0  0  0  0
    4.8354   -0.8272   -0.4469 F   0  0  0  0  0  0  0  0  0  0  0  0
   -0.9114    0.9743   -0.0607 N   0  0  0  0  0  0  0  0  0  0  0  0
   -0.3219   -1.3403    0.2558 C   0  0  0  0  0  0  0  0  0  0  0  0
    0.0253    0.0029    0.1097 C   0  0  0  0  0  0  0  0  0  0  0  0
    1.4343    0.4536    0.1068 C   0  0  0  0  0  0  0  0  0  0  0  0
    0.7059   -2.4048    0.4996 C   0  0  0  0  0  0  0  0  0  0  0  0
    2.4970   -0.4401   -0.1524 C   0  0  0  0  0  0  0  0  0  0  0  0
   -1.6801   -1.6663    0.2485 C   0  0  0  0  0  0  0  0  0  0  0  0
   -2.6526   -0.6760    0.0735 C   0  0  0  0  0  0  0  0  0  0  0  0
   -2.2173    0.6508   -0.0807 C   0  0  0  0  0  0  0  0  0  0  0  0
    1.7635    1.8029    0.3471 C   0  0  0  0  0  0  0  0  0  0  0  0
    3.8243    0.0159   -0.1875 C   0  0  0  0  0  0  0  0  0  0  0  0
   -4.0245   -0.9813    0.0533 C   0  0  0  0  0  0  0  0  0  0  0  0
   -3.1800    1.6413   -0.2548 C   0  0  0  0  0  0  0  0  0  0  0  0
    3.0874    2.2483    0.3226 C   0  0  0  0  0  0  0  0  0  0  0  0
    4.1168    1.3556    0.0525 C   0  0  0  0  0  0  0  0  0  0  0  0
   -4.9676    0.0271   -0.1223 C   0  0  0  0  0  0  0  0  0  0  0  0
   -4.5441    1.3409   -0.2771 C   0  0  0  0  0  0  0  0  0  0  0  0
  1  7  1  0
  1  8  1  0
  2 13  1  0
  3  5  2  0
  3 11  1  0
  4  5  1  0
  4  7  1  0
  4  9  2  0
  5  6  1  0
  6  8  2  0
  6 12  1  0
  8 13  1  0
  9 10  1  0
 10 11  2  0
 10 14  1  0
 11 15  1  0
 12 16  2  0
 13 17  2  0
 14 18  2  0
 15 19  2  0
 16 17  1  0
 18 19  1  0
M  END
>  <PUBCHEM_COMPOUND_CID>  (1) 
40550

>  <PUBCHEM_CONFORMER_RMSD>  (1) 
0.6

>  <PUBCHEM_CONFORMER_DIVERSEORDER>  (1) 
1

>  <PUBCHEM_MMFF94_PARTIAL_CHARGES>  (1) 
25
1 -0.33
11 0.31
12 -0.15
13 0.19
14 -0.15
15 -0.15
16 -0.15
17 -0.15
18 -0.15
19 -0.15
2 -0.19
22 0.15
23 0.15
24 0.15
25 0.15
26 0.15
27 0.15
28 0.15
29 0.15
3 -0.62
4 -0.14
5 0.31
7 0.37
8 0.1
9 -0.15

>  <PUBCHEM_EFFECTIVE_ROTOR_COUNT>  (1) 
0.4

>  <PUBCHEM_PHARMACOPHORE_FEATURES>  (1) 
5
1 3 acceptor
6 1 4 5 6 7 8 rings
6 10 11 14 15 18 19 rings
6 3 4 5 9 10 11 rings
6 6 8 12 13 16 17 rings

>  <PUBCHEM_HEAVY_ATOM_COUNT>  (1) 
19

>  <PUBCHEM_ATOM_DEF_STEREO_COUNT>  (1) 
0

>  <PUBCHEM_ATOM_UDEF_STEREO_COUNT>  (1) 
0

>  <PUBCHEM_BOND_DEF_STEREO_COUNT>  (1) 
0

>  <PUBCHEM_BOND_UDEF_STEREO_COUNT>  (1) 
0

>  <PUBCHEM_ISOTOPIC_ATOM_COUNT>  (1) 
0

>  <PUBCHEM_COMPONENT_COUNT>  (1) 
1

>  <PUBCHEM_CACTVS_TAUTO_COUNT>  (1) 
1

>  <PUBCHEM_CONFORMER_ID>  (1) 
00009E6600000001

>  <PUBCHEM_MMFF94_ENERGY>  (1) 
56.4629

>  <PUBCHEM_FEATURE_SELFOVERLAP>  (1) 
25.441

>  <PUBCHEM_SHAPE_FINGERPRINT>  (1) 
10411042 1 17329427247267162603
10498660 4 18260821579981497941
10608611 8 18410291427922291577
10616163 171 18339924930276631391
10646746 165 18334857216421578940
10967382 1 18410573985188400464
11370993 70 18410570725318759298
11471102 20 18413670218833414548
12236239 1 17632860824193129217
12403259 415 18333446534809334117
12592029 89 18335137579081200170
12644460 14 18187929404803829987
12730499 353 18409174307345476555
13140716 1 18337664317305664328
138480 1 17906169547012945650
14866123 147 17191518802287176778
15099037 51 18412266125384120246
15196674 1 18410574010921254912
15219456 202 18411420634901022715
15375358 24 18408322211218508443
15442244 35 18124597483293210792
15536298 74 18341331110984865175
16945 1 18412265008307572890
18186145 218 18408878533937288692
19591789 44 18410574032554743299
200 152 17775284971548138737
20510252 161 18341334482877123305
20645477 70 18202285779540785934
21267235 1 18411428301497072655
21279426 13 18266460893420679734
21524375 3 18335420179254932738
221357 26 18342737390868191845
221490 88 18410300189687561795
23227448 37 18342174530903362199
23366157 5 17968096352665792650
23402539 116 18341043094625120500
23402655 69 18272369780176661669
23558518 356 17684362141963940552
23559900 14 18342175583723970952
25 1 18410008832154217566
2748010 2 18194691577587684882
3004659 81 18188216404084734262
3323516 105 18411421687162891510
335352 9 18410573951298290750
350125 39 18337393721560540657
351380 180 18412542128218957404
3545911 37 18408324372061753533
4214541 1 18411419501351734741
4280585 95 17554340115939970758
474 4 17967818279286940381
495365 180 17703500104002627744
4990 188 18202287987174893062
5104073 3 18409730676965564617
543358 83 18268714900567863051
59755656 215 18335702706788586647
6138700 20 18338238138259720030
633830 44 18411694400432542957
69090 78 18343017839094400695
7364860 26 18340485560720716494
77779 3 18411701006250739709
8272917 22 18272375226353481167
9709674 26 18411423929257555055

>  <PUBCHEM_SHAPE_MULTIPOLES>  (1) 
382.61
9.27
2.44
0.68
2.98
0.34
0
-2.63
-0.96
-1.13
0.13
-0.07
0.06
0.6

>  <PUBCHEM_SHAPE_SELFOVERLAP>  (1) 
855.465

>  <PUBCHEM_SHAPE_VOLUME>  (1) 
206.3

>  <PUBCHEM_COORDINATE_TYPE>  (1) 
2
5
10

$$$$
