40555
     RDKit          3D

  5  4  0  0  0  0  0  0  0  0999 V2000
   -1.3554    1.3168    0.1159 Cl  0  0  0  0  0  0  0  0  0  0  0  0
    0.9228   -0.0095   -0.6492 C   0  0  0  0  0  0  0  0  0  0  0  0
    1.9471    0.1753    0.4622 C   0  0  0  0  0  0  0  0  0  0  0  0
   -0.4760   -0.1554   -0.1242 C   0  0  0  0  0  0  0  0  0  0  0  0
   -1.0385   -1.3271    0.1953 C   0  0  0  0  0  0  0  0  0  0  0  0
  1  4  1  0
  2  3  1  0
  2  4  1  0
  4  5  2  0
M  END
>  <PUBCHEM_COMPOUND_CID>  (1) 
40555

>  <PUBCHEM_CONFORMER_RMSD>  (1) 
0.4

>  <PUBCHEM_CONFORMER_DIVERSEORDER>  (1) 
2
4
1
3

>  <PUBCHEM_MMFF94_PARTIAL_CHARGES>  (1) 
5
1 -0.14
11 0.15
12 0.15
2 0.14
5 -0.3

>  <PUBCHEM_EFFECTIVE_ROTOR_COUNT>  (1) 
1

>  <PUBCHEM_PHARMACOPHORE_FEATURES>  (1) 
1
1 3 hydrophobe

>  <PUBCHEM_HEAVY_ATOM_COUNT>  (1) 
5

>  <PUBCHEM_ATOM_DEF_STEREO_COUNT>  (1) 
0

>  <PUBCHEM_ATOM_UDEF_STEREO_COUNT>  (1) 
0

>  <PUBCHEM_BOND_DEF_STEREO_COUNT>  (1) 
0

>  <PUBCHEM_BOND_UDEF_STEREO_COUNT>  (1) 
0

>  <PUBCHEM_ISOTOPIC_ATOM_COUNT>  (1) 
0

>  <PUBCHEM_COMPONENT_COUNT>  (1) 
1

>  <PUBCHEM_CACTVS_TAUTO_COUNT>  (1) 
1

>  <PUBCHEM_CONFORMER_ID>  (1) 
00009E6B00000002

>  <PUBCHEM_MMFF94_ENERGY>  (1) 
0.509

>  <PUBCHEM_FEATURE_SELFOVERLAP>  (1) 
5.074

>  <PUBCHEM_SHAPE_FINGERPRINT>  (1) 
139733 1 9942715965902361215
20096714 4 18126004862514124081
21015797 1 10159435166735266255
21040471 1 18265623073807389773
23552449 1 18270955855504963609
24536 1 18410009957430290108
5943 1 10174705493443582127

>  <PUBCHEM_SHAPE_MULTIPOLES>  (1) 
104.77
2.19
1.35
0.76
0.87
0.08
0.03
-0.43
-0.31
-0.81
-0.11
0.14
-0.01
0.05

>  <PUBCHEM_SHAPE_SELFOVERLAP>  (1) 
174.144

>  <PUBCHEM_SHAPE_VOLUME>  (1) 
72

>  <PUBCHEM_COORDINATE_TYPE>  (1) 
2
5
10

$$$$
