40569
     RDKit          3D

 19 20  0  0  0  0  0  0  0  0999 V2000
   -4.7355   -0.3634   -0.3329 O   0  0  0  0  0  0  0  0  0  0  0  0
    4.9768   -1.8160   -0.0953 O   0  0  0  0  0  0  0  0  0  0  0  0
    0.6565    2.7847    0.2618 O   0  0  0  0  0  0  0  0  0  0  0  0
   -0.8890    1.0497   -0.0064 C   0  0  0  0  0  0  0  0  0  0  0  0
    1.6685    0.6860    0.0577 C   0  0  0  0  0  0  0  0  0  0  0  0
    0.5093    1.5627    0.1121 C   0  0  0  0  0  0  0  0  0  0  0  0
   -1.5546    0.6835    1.1401 C   0  0  0  0  0  0  0  0  0  0  0  0
   -1.4542    0.9642   -1.2575 C   0  0  0  0  0  0  0  0  0  0  0  0
   -3.4625    0.1052   -0.2248 C   0  0  0  0  0  0  0  0  0  0  0  0
   -2.8599    0.2042    1.0293 C   0  0  0  0  0  0  0  0  0  0  0  0
   -2.7596    0.4851   -1.3683 C   0  0  0  0  0  0  0  0  0  0  0  0
    1.4967   -0.6879   -0.1105 C   0  0  0  0  0  0  0  0  0  0  0  0
    2.9522    1.2194    0.1740 C   0  0  0  0  0  0  0  0  0  0  0  0
    3.8922   -0.9954   -0.0461 C   0  0  0  0  0  0  0  0  0  0  0  0
    2.6084   -1.5286   -0.1622 C   0  0  0  0  0  0  0  0  0  0  0  0
    4.0641    0.3786    0.1221 C   0  0  0  0  0  0  0  0  0  0  0  0
   -5.1655   -1.3074    0.6469 C   0  0  0  0  0  0  0  0  0  0  0  0
   -6.2041   -2.2200    0.0302 C   0  0  0  0  0  0  0  0  0  0  0  0
    6.2600   -1.2046    0.0298 C   0  0  0  0  0  0  0  0  0  0  0  0
  1  9  1  0
  1 17  1  0
  2 14  1  0
  2 19  1  0
  3  6  2  0
  4  6  1  0
  4  7  2  0
  4  8  1  0
  5  6  1  0
  5 12  2  0
  5 13  1  0
  7 10  1  0
  8 11  2  0
  9 10  2  0
  9 11  1  0
 12 15  1  0
 13 16  2  0
 14 15  2  0
 14 16  1  0
 17 18  1  0
M  END
>  <PUBCHEM_COMPOUND_CID>  (1) 
40569

>  <PUBCHEM_CONFORMER_RMSD>  (1) 
0.6

>  <PUBCHEM_CONFORMER_DIVERSEORDER>  (1) 
2
31
36
7
10
37
30
32
13
24
23
34
8
29
11
9
21
16
6
33
35
19
27
22
18
15
26
4
14
28
12
5
25
3
20
1
17

>  <PUBCHEM_MMFF94_PARTIAL_CHARGES>  (1) 
26
1 -0.36
10 -0.15
11 -0.15
12 -0.15
13 -0.15
14 0.08
15 -0.15
16 -0.15
17 0.28
19 0.28
2 -0.36
20 0.15
21 0.15
22 0.15
23 0.15
24 0.15
25 0.15
26 0.15
27 0.15
3 -0.57
4 0.09
5 0.09
6 0.4
7 -0.15
8 -0.15
9 0.08

>  <PUBCHEM_EFFECTIVE_ROTOR_COUNT>  (1) 
5

>  <PUBCHEM_PHARMACOPHORE_FEATURES>  (1) 
5
1 1 acceptor
1 2 acceptor
1 3 acceptor
6 4 7 8 9 10 11 rings
6 5 12 13 14 15 16 rings

>  <PUBCHEM_HEAVY_ATOM_COUNT>  (1) 
19

>  <PUBCHEM_ATOM_DEF_STEREO_COUNT>  (1) 
0

>  <PUBCHEM_ATOM_UDEF_STEREO_COUNT>  (1) 
0

>  <PUBCHEM_BOND_DEF_STEREO_COUNT>  (1) 
0

>  <PUBCHEM_BOND_UDEF_STEREO_COUNT>  (1) 
0

>  <PUBCHEM_ISOTOPIC_ATOM_COUNT>  (1) 
0

>  <PUBCHEM_COMPONENT_COUNT>  (1) 
1

>  <PUBCHEM_CACTVS_TAUTO_COUNT>  (1) 
1

>  <PUBCHEM_CONFORMER_ID>  (1) 
00009E7900000002

>  <PUBCHEM_MMFF94_ENERGY>  (1) 
74.2535

>  <PUBCHEM_FEATURE_SELFOVERLAP>  (1) 
25.373

>  <PUBCHEM_SHAPE_FINGERPRINT>  (1) 
12236239 1 17704071797929325065
12293681 160 12685092583391684628
12596602 18 17346604109830981619
12892183 10 16415209905490001595
13103583 49 17917163757795697123
13288520 33 18409167697390470005
13402501 40 18334297591100646155
13533116 47 18271246152813953545
13740256 8 18409731763639872759
13862211 1 18336828602954609642
13955234 65 18126283283732736329
14123256 34 18411145726977371598
14341114 328 15339110273546711386
14350574 20 18407761430492531998
15375462 189 17775279482363864601
1813 80 18130239172499024396
193927 3 18130514058467979350
19784866 240 18410579487468761573
200 152 18340764854001525984
20028762 73 18202282536867767271
20112054 13 10447921776372616488
20281475 54 18408330985900283461
20374829 77 18040429984652150275
20645477 70 18261390100022075360
20871999 31 16370442237709636181
21267235 1 18342463634058384422
21637258 2 18271518775979169787
23379529 103 17172381128550019195
23402539 116 18337671893733514616
23557571 272 17313096471236187236
23559900 14 16371017350773192852
26918003 58 18272650126062081689
270888 7 9151169844269516162
2838139 119 8862676668191744419
2871803 45 17894909646232853011
3004659 81 18113335318892000546
3286 77 18410013269056134845
351380 3 18343864415713646087
465052 167 18271250525106524063
5104073 3 18201151049650616608
5718773 13 18261105249576071554
59682541 35 18271514374233628778
636775 8 18268721520231766518
7970288 3 18339923710479954686

>  <PUBCHEM_SHAPE_MULTIPOLES>  (1) 
373.4
12.95
2.1
0.96
1.67
0.02
0.09
-10.97
-0.36
-0.09
-0.08
0.8
0.18
0.48

>  <PUBCHEM_SHAPE_SELFOVERLAP>  (1) 
797.036

>  <PUBCHEM_SHAPE_VOLUME>  (1) 
208.7

>  <PUBCHEM_COORDINATE_TYPE>  (1) 
2
5
10

$$$$
