40566
     RDKit          3D

 20 19  0  0  1  0  0  0  0  0999 V2000
   -0.1977   -2.6606    1.4362 O   0  0  0  0  0  0  0  0  0  0  0  0
    0.1820   -2.7110   -1.3931 O   0  0  0  0  0  0  0  0  0  0  0  0
   -2.2459   -2.7287   -0.5413 O   0  0  0  0  0  0  0  0  0  0  0  0
    2.2874   -2.7230    0.5312 O   0  0  0  0  0  0  0  0  0  0  0  0
   -2.1743    0.9210    0.0800 N   0  0  0  0  0  0  0  0  0  0  0  0
    2.1759    0.9252   -0.0936 N   0  0  0  0  0  0  0  0  0  0  0  0
   -0.4791   -1.5381    0.6026 C   0  0  0  0  0  0  0  0  0  0  0  0
    0.4700   -1.5492   -0.6191 C   0  0  0  0  0  0  0  0  0  0  0  0
   -1.9763   -1.5495    0.2205 C   0  0  0  0  0  0  0  0  0  0  0  0
    1.9633   -1.5527   -0.2173 C   0  0  0  0  0  0  0  0  0  0  0  0
   -2.4183   -0.3375   -0.6114 C   0  0  0  0  0  0  0  0  0  0  0  0
    2.4120   -0.3346    0.6053 C   0  0  0  0  0  0  0  0  0  0  0  0
   -3.2429    1.1977    1.0425 C   0  0  0  0  0  0  0  0  0  0  0  0
   -2.0578    2.0229   -0.8776 C   0  0  0  0  0  0  0  0  0  0  0  0
    3.2608    1.2005   -1.0363 C   0  0  0  0  0  0  0  0  0  0  0  0
    2.0404    2.0252    0.8618 C   0  0  0  0  0  0  0  0  0  0  0  0
   -2.9656    2.4740    1.8188 C   0  0  0  0  0  0  0  0  0  0  0  0
   -3.3520    2.2198   -1.6485 C   0  0  0  0  0  0  0  0  0  0  0  0
    2.9982    2.4765   -1.8181 C   0  0  0  0  0  0  0  0  0  0  0  0
    3.3198    2.2223    1.6573 C   0  0  0  0  0  0  0  0  0  0  0  0
  1  7  1  0
  2  8  1  0
  3  9  1  0
  4 10  1  0
  5 11  1  0
  5 13  1  0
  5 14  1  0
  6 12  1  0
  6 15  1  0
  6 16  1  0
  7  8  1  0
  7  9  1  0
  8 10  1  0
  9 11  1  0
 10 12  1  0
 13 17  1  0
 14 18  1  0
 15 19  1  0
 16 20  1  0
M  END
>  <PUBCHEM_COMPOUND_CID>  (1) 
40566

>  <PUBCHEM_CONFORMER_RMSD>  (1) 
1.4

>  <PUBCHEM_CONFORMER_DIVERSEORDER>  (1) 
1
29
3
23
6
17
22
27
10
13
26
33
11
21
32
2
4
16
34
28
30
7
20
19
12
24
14
18
8
5
25
31
15
9

>  <PUBCHEM_MMFF94_PARTIAL_CHARGES>  (1) 
20
1 -0.68
10 0.28
11 0.27
12 0.27
13 0.27
14 0.27
15 0.27
16 0.27
2 -0.68
3 -0.68
37 0.4
38 0.4
39 0.4
4 -0.68
40 0.4
5 -0.81
6 -0.81
7 0.28
8 0.28
9 0.28

>  <PUBCHEM_EFFECTIVE_ROTOR_COUNT>  (1) 
11

>  <PUBCHEM_PHARMACOPHORE_FEATURES>  (1) 
10
1 1 acceptor
1 1 donor
1 2 acceptor
1 2 donor
1 3 acceptor
1 3 donor
1 4 acceptor
1 4 donor
1 5 cation
1 6 cation

>  <PUBCHEM_HEAVY_ATOM_COUNT>  (1) 
20

>  <PUBCHEM_ATOM_DEF_STEREO_COUNT>  (1) 
0

>  <PUBCHEM_ATOM_UDEF_STEREO_COUNT>  (1) 
4

>  <PUBCHEM_BOND_DEF_STEREO_COUNT>  (1) 
0

>  <PUBCHEM_BOND_UDEF_STEREO_COUNT>  (1) 
0

>  <PUBCHEM_ISOTOPIC_ATOM_COUNT>  (1) 
0

>  <PUBCHEM_COMPONENT_COUNT>  (1) 
1

>  <PUBCHEM_CACTVS_TAUTO_COUNT>  (1) 
1

>  <PUBCHEM_CONFORMER_ID>  (1) 
00009E7600000001

>  <PUBCHEM_MMFF94_ENERGY>  (1) 
39.862

>  <PUBCHEM_FEATURE_SELFOVERLAP>  (1) 
50.807

>  <PUBCHEM_SHAPE_FINGERPRINT>  (1) 
10498660 4 18047471406934063260
10871710 139 17829343723379865021
11221954 11 18410581681733040470
12156800 1 15377302973610352692
128993 33 18338531788571623649
13140716 1 18411417267636159067
13583140 156 17605845703250385403
14123250 116 18131070428937944945
14178342 30 18341608260813964912
14251757 17 17702964646303900088
14386348 128 18410864260516619009
14713325 29 17465135960515346268
18219364 16 18046350721608231921
18981168 100 18338784676245700328
192875 21 17841407277276031161
20304884 271 18272094872431689587
20600515 1 17837220281432229190
20671657 1 18342179912460161786
21041028 32 16322889137361162275
21524375 3 18410576188475273547
22749437 52 18338500997956437829
23419403 2 14788217311174588995
23557571 272 17839739601556868778
23558518 356 18188195585217811491
238 59 17974549330933214741
350125 39 18410298012054532299
3524813 1 17841430641808470592
44154327 71 18261123992707492253
474 4 18054227631610330177
5939293 188 17907561545960259544
81228 2 17977666737996565681

>  <PUBCHEM_SHAPE_MULTIPOLES>  (1) 
378.15
6.25
4.12
1.71
0.03
1.28
-0.01
-4.99
0.04
0.01
0.01
0
-1.18
-0.3

>  <PUBCHEM_SHAPE_SELFOVERLAP>  (1) 
714.529

>  <PUBCHEM_SHAPE_VOLUME>  (1) 
235.9

>  <PUBCHEM_COORDINATE_TYPE>  (1) 
2
5
10

$$$$
