40564
     RDKit          3D

 16 15  0  0  1  0  0  0  0  0999 V2000
    0.6220   -0.5192    1.6265 O   0  0  0  0  0  0  0  0  0  0  0  0
   -0.6583    0.4813   -1.6475 O   0  0  0  0  0  0  0  0  0  0  0  0
    1.2456   -2.1928   -0.6531 O   0  0  0  0  0  0  0  0  0  0  0  0
   -1.2312    2.2069    0.5522 O   0  0  0  0  0  0  0  0  0  0  0  0
    3.7294    0.4246    0.1790 N   0  0  0  0  0  0  0  0  0  0  0  0
   -3.7366   -0.4258   -0.1553 N   0  0  0  0  0  0  0  0  0  0  0  0
    0.7107   -0.0005    0.3016 C   0  0  0  0  0  0  0  0  0  0  0  0
   -0.7133    0.0077   -0.3033 C   0  0  0  0  0  0  0  0  0  0  0  0
    1.7076   -0.8497   -0.5205 C   0  0  0  0  0  0  0  0  0  0  0  0
   -1.7190    0.8642    0.4982 C   0  0  0  0  0  0  0  0  0  0  0  0
    3.1333   -0.9020    0.0506 C   0  0  0  0  0  0  0  0  0  0  0  0
   -3.1315    0.8979   -0.1020 C   0  0  0  0  0  0  0  0  0  0  0  0
    3.8588    1.0585   -1.1335 C   0  0  0  0  0  0  0  0  0  0  0  0
    5.0350    0.3398    0.8343 C   0  0  0  0  0  0  0  0  0  0  0  0
   -5.0934   -0.3525   -0.7020 C   0  0  0  0  0  0  0  0  0  0  0  0
   -3.7593   -1.0382    1.1748 C   0  0  0  0  0  0  0  0  0  0  0  0
  1  7  1  0
  2  8  1  0
  3  9  1  0
  4 10  1  0
  5 11  1  0
  5 13  1  0
  5 14  1  0
  6 12  1  0
  6 15  1  0
  6 16  1  0
  7  8  1  0
  7  9  1  0
  8 10  1  0
  9 11  1  0
 10 12  1  0
M  END
>  <PUBCHEM_COMPOUND_CID>  (1) 
40564

>  <PUBCHEM_CONFORMER_RMSD>  (1) 
0.8

>  <PUBCHEM_CONFORMER_DIVERSEORDER>  (1) 
22
18
175
11
28
12
208
2
162
105
202
35
186
217
164
140
99
41
149
221
137
103
132
84
195
98
34
43
94
9
122
136
214
177
170
210
129
179
77
1
71
118
87
155
130
144
211
159
134
123
107
192
187
57
161
101
56
133
81
185
124
166
181
188
97
184
37
121
26
131
196
125
180
42
199
47
169
213
67
100
86
151
115
93
8
127
160
219
172
25
3
70
85
142
68
152
33
64
220
194
59
146
55
74
89
168
207
90
212
209
19
111
52
104
156
116
183
182
206
114
21
54
117
73
200
69
49
139
174
102
176
167
216
62
15
120
165
203
53
171
205
126
193
5
88
83
204
46
91
157
6
95
135
32
218
17
198
215
16
31
61
113
163
197
145
108
20
14
173
10
30
82
58
96
143
39
7
128
51
23
80
50
36
4
119
158
201
191
150
66
106
44
45
92
178
147
60
138
148
189
72
190
24
154
29
27
79
48
65
109
112
13
76
63
153
38
40
78
141
75
110

>  <PUBCHEM_MMFF94_PARTIAL_CHARGES>  (1) 
20
1 -0.68
10 0.28
11 0.27
12 0.27
13 0.27
14 0.27
15 0.27
16 0.27
2 -0.68
25 0.4
26 0.4
27 0.4
28 0.4
3 -0.68
4 -0.68
5 -0.81
6 -0.81
7 0.28
8 0.28
9 0.28

>  <PUBCHEM_EFFECTIVE_ROTOR_COUNT>  (1) 
7

>  <PUBCHEM_PHARMACOPHORE_FEATURES>  (1) 
10
1 1 acceptor
1 1 donor
1 2 acceptor
1 2 donor
1 3 acceptor
1 3 donor
1 4 acceptor
1 4 donor
1 5 cation
1 6 cation

>  <PUBCHEM_HEAVY_ATOM_COUNT>  (1) 
16

>  <PUBCHEM_ATOM_DEF_STEREO_COUNT>  (1) 
0

>  <PUBCHEM_ATOM_UDEF_STEREO_COUNT>  (1) 
4

>  <PUBCHEM_BOND_DEF_STEREO_COUNT>  (1) 
0

>  <PUBCHEM_BOND_UDEF_STEREO_COUNT>  (1) 
0

>  <PUBCHEM_ISOTOPIC_ATOM_COUNT>  (1) 
0

>  <PUBCHEM_COMPONENT_COUNT>  (1) 
1

>  <PUBCHEM_CACTVS_TAUTO_COUNT>  (1) 
1

>  <PUBCHEM_CONFORMER_ID>  (1) 
00009E7400000016

>  <PUBCHEM_MMFF94_ENERGY>  (1) 
41.1319

>  <PUBCHEM_FEATURE_SELFOVERLAP>  (1) 
50.757

>  <PUBCHEM_SHAPE_FINGERPRINT>  (1) 
10366900 7 18131067147503621283
11132069 177 18260551129816193906
11401426 45 16153705431768621015
11615757 297 17418377999487329593
11806522 49 18114186384205445487
12346177 29 12108081027445180081
124424 183 10881404235570452987
12932764 1 16773216401905187982
13533116 47 14273718639307426648
14004511 7 10809344447036247957
14123238 8 16917065581461277456
14251731 8 10231763279573117496
14251764 38 16226047803318017837
14289901 80 18342179912365255283
15099037 51 8142088662636907120
15309172 13 15554160385663933341
15375358 24 18259706688107333771
15531645 54 11169902871058079915
17349148 13 13839985499551914961
17834072 14 16443350900617491397
17834072 33 18341327890165347999
17834072 8 9007062357043128795
17862501 102 16950274101264201104
18186145 218 18189906313999664038
18511873 20 8430310225483987948
192875 21 14129062499588657447
200 152 18334289868680115933
20279233 1 18187651288776562643
20645477 70 17986951856269676031
21079973 296 18260834829760167395
23402539 116 17676480674653667294
23557571 272 18041559126753185621
23559900 14 18195805163533405874
23590187 130 11527955564252363035
25610 137 18342460322253425265
265663 24 17967248702541801306
26918003 58 18186800292314066931
3286 77 18260265240114470884
351380 180 16950278516501357996
474229 33 18342736346985540422
5104073 3 18270684151605186994
58051976 378 18343023289497622166
6333272 397 18411141359511992084
74978 22 8069726486745584772
9882013 296 18334016090174003988
9971528 1 13334735747830605678

>  <PUBCHEM_SHAPE_MULTIPOLES>  (1) 
295.83
9.68
1.49
1.2
0.04
0.02
-0.01
0.02
-0.14
-0.01
0.02
-0.06
-0.02
0.03

>  <PUBCHEM_SHAPE_SELFOVERLAP>  (1) 
555.023

>  <PUBCHEM_SHAPE_VOLUME>  (1) 
186.8

>  <PUBCHEM_COORDINATE_TYPE>  (1) 
2
5
10

$$$$
