40560
     RDKit          3D

 22 23  0  0  1  0  0  0  0  0999 V2000
   -0.9363   -0.8964   -2.4155 O   0  0  0  0  0  0  0  0  0  0  0  0
    1.0090    1.0780   -2.3366 O   0  0  0  0  0  0  0  0  0  0  0  0
   -0.2112   -2.2303    0.0505 O   0  0  0  0  0  0  0  0  0  0  0  0
    0.2271    2.2657    0.1416 O   0  0  0  0  0  0  0  0  0  0  0  0
   -3.5088   -0.5407    0.0151 N   0  0  0  0  0  0  0  0  0  0  0  0
    3.5059    0.5348    0.0531 N   0  0  0  0  0  0  0  0  0  0  0  0
   -0.7299   -0.1861   -1.1970 C   0  0  0  0  0  0  0  0  0  0  0  0
    0.7385    0.3008   -1.1718 C   0  0  0  0  0  0  0  0  0  0  0  0
   -1.0802   -1.1002    0.0000 C   0  0  0  0  0  0  0  0  0  0  0  0
    1.0903    1.1276    0.0853 C   0  0  0  0  0  0  0  0  0  0  0  0
   -2.5252   -1.6231    0.0100 C   0  0  0  0  0  0  0  0  0  0  0  0
    2.5400    1.6313    0.1164 C   0  0  0  0  0  0  0  0  0  0  0  0
   -4.8728   -1.0855   -0.0358 C   0  0  0  0  0  0  0  0  0  0  0  0
   -3.3231    0.3173    1.1937 C   0  0  0  0  0  0  0  0  0  0  0  0
    3.2950   -0.4010    1.1665 C   0  0  0  0  0  0  0  0  0  0  0  0
    4.8790    1.0587    0.0523 C   0  0  0  0  0  0  0  0  0  0  0  0
   -5.9130    0.0349   -0.0807 C   0  0  0  0  0  0  0  0  0  0  0  0
   -4.3126    1.4837    1.1888 C   0  0  0  0  0  0  0  0  0  0  0  0
    4.2655   -1.5806    1.0873 C   0  0  0  0  0  0  0  0  0  0  0  0
    5.9012   -0.0729   -0.0631 C   0  0  0  0  0  0  0  0  0  0  0  0
   -5.7516    0.9893    1.0971 C   0  0  0  0  0  0  0  0  0  0  0  0
    5.7132   -1.1052    1.0427 C   0  0  0  0  0  0  0  0  0  0  0  0
  1  7  1  0
  2  8  1  0
  3  9  1  0
  4 10  1  0
  5 11  1  0
  5 13  1  0
  5 14  1  0
  6 12  1  0
  6 15  1  0
  6 16  1  0
  7  8  1  0
  7  9  1  0
  8 10  1  0
  9 11  1  0
 10 12  1  0
 13 17  1  0
 14 18  1  0
 15 19  1  0
 16 20  1  0
 17 21  1  0
 18 21  1  0
 19 22  1  0
 20 22  1  0
M  END
>  <PUBCHEM_COMPOUND_CID>  (1) 
40560

>  <PUBCHEM_CONFORMER_RMSD>  (1) 
1

>  <PUBCHEM_CONFORMER_DIVERSEORDER>  (1) 
1
88
28
2
29
103
92
35
75
11
93
8
95
60
131
125
46
132
129
10
121
99
90
27
86
74
117
108
47
62
64
56
15
69
37
123
76
116
82
24
77
133
72
45
59
68
14
6
134
110
87
40
58
33
19
26
89
94
127
126
102
61
17
48
107
130
16
91
84
20
4
42
114
81
96
128
22
66
115
9
3
118
43
38
78
109
53
70
71
100
50
34
79
31
18
80
73
104
57
32
23
51
119
83
65
124
25
122
7
101
55
44
21
106
41
120
98
13
63
67
105
39
49
36
111
52
12
85
30
113
112
97
54
5

>  <PUBCHEM_MMFF94_PARTIAL_CHARGES>  (1) 
20
1 -0.68
10 0.28
11 0.27
12 0.27
13 0.27
14 0.27
15 0.27
16 0.27
2 -0.68
3 -0.68
4 -0.68
5 -0.81
51 0.4
52 0.4
53 0.4
54 0.4
6 -0.81
7 0.28
8 0.28
9 0.28

>  <PUBCHEM_EFFECTIVE_ROTOR_COUNT>  (1) 
9.4

>  <PUBCHEM_PHARMACOPHORE_FEATURES>  (1) 
12
1 1 acceptor
1 1 donor
1 2 acceptor
1 2 donor
1 3 acceptor
1 3 donor
1 4 acceptor
1 4 donor
1 5 cation
1 6 cation
6 5 13 14 17 18 21 rings
6 6 15 16 19 20 22 rings

>  <PUBCHEM_HEAVY_ATOM_COUNT>  (1) 
22

>  <PUBCHEM_ATOM_DEF_STEREO_COUNT>  (1) 
0

>  <PUBCHEM_ATOM_UDEF_STEREO_COUNT>  (1) 
4

>  <PUBCHEM_BOND_DEF_STEREO_COUNT>  (1) 
0

>  <PUBCHEM_BOND_UDEF_STEREO_COUNT>  (1) 
0

>  <PUBCHEM_ISOTOPIC_ATOM_COUNT>  (1) 
0

>  <PUBCHEM_COMPONENT_COUNT>  (1) 
1

>  <PUBCHEM_CACTVS_TAUTO_COUNT>  (1) 
1

>  <PUBCHEM_CONFORMER_ID>  (1) 
00009E7000000001

>  <PUBCHEM_MMFF94_ENERGY>  (1) 
27.8657

>  <PUBCHEM_FEATURE_SELFOVERLAP>  (1) 
60.914

>  <PUBCHEM_SHAPE_FINGERPRINT>  (1) 
10042902 136 13191208845931156601
10764073 3 17907016179529050149
11128504 68 10519985963079718851
11646440 116 16487264291794086715
12107183 9 18123189008903292083
12166972 35 18188769574043947813
12236239 1 18411981385810096235
12403260 363 18200029685440149901
12467345 10 18411419483823420803
12596602 18 18339923821858038690
12633257 1 18411136948000336899
12670546 56 18341045306533485769
12788726 201 18201730539570983064
12892183 10 18123188162784165211
13103583 49 18410295817362940051
14123256 10 9223226347269147923
14251732 17 17989211425652494169
14251764 18 18411418435851393450
14251764 3 15626219100308569523
14251764 30 15864072065578474339
14386348 63 15791729710919096266
14466204 15 18272374139916912825
14617045 38 18040155111388905042
14951699 99 17488451048616530216
15183329 4 18411138026031853739
15527383 91 18113336414309127504
15537594 2 17240196643007228034
17349148 13 17846784039591599401
1813 80 17531253824856671286
19141452 34 18113615733112477138
19489759 90 17561365088991848219
200 152 9439409038073073370
20157964 124 12103845666195540640
20197701 30 15626223515566579093
20567600 75 17313378998764273335
212916 134 16988838384676049030
21403212 168 18338792325988811931
21521721 280 11025810772678915485
21774942 28 17630608917290969041
22849341 161 17603594036000593757
22950370 63 18187363246810466306
23035841 295 12468351353993368601
23402539 116 17704068521428337069
23557571 272 16773525455542262899
23559900 14 17345494642289243206
23622692 88 18410856563950587783
238078 22 12612753523357395973
2838139 119 17775563131232584041
314173 85 16081084883413784981
328317 168 12175621793482695586
345986 75 18116416077653939992
351380 180 17917714625705505585
3737641 26 16951118461569747322
4325135 7 9079117756315806395
5104073 3 18339361980000924755
513202 73 17459464442635737200
5207 217 10519977179971883760
5385378 56 17202782396954908879
54039377 194 17969499300593689658
6328613 192 18337962297926647860
7226269 152 17846503616771211153
8509985 295 18342459252812038401
9965369 4 18341894065354456483
9981440 41 17988652882963805291

>  <PUBCHEM_SHAPE_MULTIPOLES>  (1) 
419.31
14.24
1.89
1.5
0.32
0
0.79
-0.27
-5.59
-0.13
-0.2
0.08
0.03
-1.59

>  <PUBCHEM_SHAPE_SELFOVERLAP>  (1) 
828.562

>  <PUBCHEM_SHAPE_VOLUME>  (1) 
248.7

>  <PUBCHEM_COORDINATE_TYPE>  (1) 
2
5
10

$$$$
