40573
     RDKit          3D

 21 23  0  0  1  0  0  0  0  0999 V2000
   -1.7029    2.0890   -0.0365 O   0  0  0  0  0  0  0  0  0  0  0  0
    3.6381   -1.1880   -0.8552 O   0  0  0  0  0  0  0  0  0  0  0  0
    3.4825   -1.3886    1.4170 O   0  0  0  0  0  0  0  0  0  0  0  0
    1.7200   -0.4667    0.2063 N   0  0  0  0  0  0  0  0  0  0  0  0
   -0.8987    0.8989    0.0243 C   0  0  0  0  0  0  0  0  0  0  0  0
   -0.0222    0.9740    1.3087 C   0  0  0  0  0  0  0  0  0  0  0  0
    0.1151    0.9256   -1.1574 C   0  0  0  0  0  0  0  0  0  0  0  0
    0.7797    2.2963    1.3626 C   0  0  0  0  0  0  0  0  0  0  0  0
    0.9058    2.2567   -1.1757 C   0  0  0  0  0  0  0  0  0  0  0  0
    0.9045   -0.2511    1.4029 C   0  0  0  0  0  0  0  0  0  0  0  0
    1.0759   -0.2807   -1.1004 C   0  0  0  0  0  0  0  0  0  0  0  0
    1.6365    2.5625    0.1283 C   0  0  0  0  0  0  0  0  0  0  0  0
   -1.9189   -0.2481    0.0239 C   0  0  0  0  0  0  0  0  0  0  0  0
    2.9912   -1.0432    0.3438 C   0  0  0  0  0  0  0  0  0  0  0  0
   -2.8950   -0.3087    1.0162 C   0  0  0  0  0  0  0  0  0  0  0  0
   -1.8655   -1.2240   -0.9687 C   0  0  0  0  0  0  0  0  0  0  0  0
   -2.5035    2.1159   -1.2095 C   0  0  0  0  0  0  0  0  0  0  0  0
   -3.8222   -1.3507    1.0159 C   0  0  0  0  0  0  0  0  0  0  0  0
   -2.7929   -2.2661   -0.9689 C   0  0  0  0  0  0  0  0  0  0  0  0
   -3.7713   -2.3293    0.0234 C   0  0  0  0  0  0  0  0  0  0  0  0
    4.9438   -1.7738   -0.8009 C   0  0  0  0  0  0  0  0  0  0  0  0
  1  5  1  0
  1 17  1  0
  2 14  1  0
  2 21  1  0
  3 14  2  0
  4 10  1  0
  4 11  1  0
  4 14  1  0
  5  6  1  0
  5  7  1  0
  5 13  1  0
  6  8  1  0
  6 10  1  0
  7  9  1  0
  7 11  1  0
  8 12  1  0
  9 12  1  0
 13 15  2  0
 13 16  1  0
 15 18  1  0
 16 19  2  0
 18 20  2  0
 19 20  1  0
M  END
>  <PUBCHEM_COMPOUND_CID>  (1) 
40573

>  <PUBCHEM_CONFORMER_RMSD>  (1) 
0.8

>  <PUBCHEM_CONFORMER_DIVERSEORDER>  (1) 
1
4
2
3

>  <PUBCHEM_MMFF94_PARTIAL_CHARGES>  (1) 
21
1 -0.56
10 0.3
11 0.3
13 -0.14
14 0.78
15 -0.15
16 -0.15
17 0.28
18 -0.15
19 -0.15
2 -0.43
20 -0.15
21 0.28
3 -0.57
34 0.15
35 0.15
39 0.15
4 -0.66
40 0.15
41 0.15
5 0.42

>  <PUBCHEM_EFFECTIVE_ROTOR_COUNT>  (1) 
5.4

>  <PUBCHEM_PHARMACOPHORE_FEATURES>  (1) 
5
1 1 acceptor
1 3 acceptor
6 13 15 16 18 19 20 rings
6 4 5 6 7 10 11 rings
6 5 6 7 8 9 12 rings

>  <PUBCHEM_HEAVY_ATOM_COUNT>  (1) 
21

>  <PUBCHEM_ATOM_DEF_STEREO_COUNT>  (1) 
0

>  <PUBCHEM_ATOM_UDEF_STEREO_COUNT>  (1) 
2

>  <PUBCHEM_BOND_DEF_STEREO_COUNT>  (1) 
0

>  <PUBCHEM_BOND_UDEF_STEREO_COUNT>  (1) 
0

>  <PUBCHEM_ISOTOPIC_ATOM_COUNT>  (1) 
0

>  <PUBCHEM_COMPONENT_COUNT>  (1) 
1

>  <PUBCHEM_CACTVS_TAUTO_COUNT>  (1) 
1

>  <PUBCHEM_CONFORMER_ID>  (1) 
00009E7D00000001

>  <PUBCHEM_MMFF94_ENERGY>  (1) 
74.6533

>  <PUBCHEM_FEATURE_SELFOVERLAP>  (1) 
26.993

>  <PUBCHEM_SHAPE_FINGERPRINT>  (1) 
10863032 1 18408318878361225780
11578080 2 18410002260702118437
12035758 1 18341049593623068913
121448 382 12396595060305965609
12553582 1 18335136496707626459
12633257 1 17060074678320530443
12714826 92 18337391547784641559
13083527 12 18122882477229820200
13140716 1 18411131420583603745
13149001 5 18120907586885496893
13533116 47 18055353802369767859
13544653 18 18343298180363353314
14787075 74 18337394971649010648
14863182 85 17688022432888848502
15534591 1 8718539480749475266
16945 1 18195804068353714184
17357779 13 18269813411711177535
17804303 29 18412829075305886419
1813 80 18410300211431293878
18186145 218 12468929637312215970
200 152 17458352897105989002
20291156 8 18410578374903868502
20600515 1 18057618568225190940
20645477 70 18192981841491800079
20871999 31 18261111820527205430
21452121 199 18336538438472900073
21452121 71 18334586758405273822
21731516 1 18408600392045116803
23184049 29 18410003368908337777
23402539 116 17677055621273809118
23419403 2 18199166503681422208
23557571 272 18270126704196006782
23559900 14 18410000053014451572
23566358 27 18192162700548466053
2748010 2 18266999765423741156
70251023 43 18336822095736498643
7364860 26 18126849519546387976

>  <PUBCHEM_SHAPE_MULTIPOLES>  (1) 
409.58
6.69
3.01
1.49
2.41
0.95
0.15
-6.62
-0.14
0.2
-0.46
0.12
0.19
0.38

>  <PUBCHEM_SHAPE_SELFOVERLAP>  (1) 
870.725

>  <PUBCHEM_SHAPE_VOLUME>  (1) 
223.6

>  <PUBCHEM_COORDINATE_TYPE>  (1) 
2
5
10

$$$$
