40585
     RDKit          3D

 28 30  0  0  1  0  0  0  0  0999 V2000
    6.1352   -0.6721    1.8299 Br  0  0  0  0  0  0  0  0  0  0  0  0
    5.9278    0.2451   -1.1971 Br  0  0  0  0  0  0  0  0  0  0  0  0
    0.7681   -0.5408   -0.3465 O   0  0  0  0  0  0  0  0  0  0  0  0
    2.9768   -1.0257   -0.8309 O   0  0  0  0  0  0  0  0  0  0  0  0
   -4.2065   -0.5816   -0.1953 O   0  0  0  0  0  0  0  0  0  0  0  0
    1.0034   -3.2095   -2.4349 N   0  0  0  0  0  0  0  0  0  0  0  0
    1.8821    2.1458    0.3023 C   0  0  0  0  0  0  0  0  0  0  0  0
    3.3243    1.8853   -0.0201 C   0  0  0  0  0  0  0  0  0  0  0  0
    2.2457    1.2255   -0.8186 C   0  0  0  0  0  0  0  0  0  0  0  0
    1.3518    1.5775    1.5756 C   0  0  0  0  0  0  0  0  0  0  0  0
    1.2662    3.4542   -0.0675 C   0  0  0  0  0  0  0  0  0  0  0  0
    4.1389    1.0581    0.8573 C   0  0  0  0  0  0  0  0  0  0  0  0
    2.0541   -0.2397   -0.6697 C   0  0  0  0  0  0  0  0  0  0  0  0
    5.2235    0.3324    0.5352 C   0  0  0  0  0  0  0  0  0  0  0  0
    0.4884   -1.9376   -0.1823 C   0  0  0  0  0  0  0  0  0  0  0  0
   -0.9215   -2.1249    0.2658 C   0  0  0  0  0  0  0  0  0  0  0  0
    0.7824   -2.6472   -1.4440 C   0  0  0  0  0  0  0  0  0  0  0  0
   -1.9166   -1.2548   -0.1797 C   0  0  0  0  0  0  0  0  0  0  0  0
   -1.2453   -3.1707    1.1302 C   0  0  0  0  0  0  0  0  0  0  0  0
   -3.2354   -1.4305    0.2391 C   0  0  0  0  0  0  0  0  0  0  0  0
   -2.5641   -3.3462    1.5491 C   0  0  0  0  0  0  0  0  0  0  0  0
   -3.5591   -2.4762    1.1036 C   0  0  0  0  0  0  0  0  0  0  0  0
   -3.9289    0.7751   -0.1811 C   0  0  0  0  0  0  0  0  0  0  0  0
   -3.3235    1.3274    0.9333 C   0  0  0  0  0  0  0  0  0  0  0  0
   -4.2644    1.5429   -1.2815 C   0  0  0  0  0  0  0  0  0  0  0  0
   -3.0439    2.6938    0.9475 C   0  0  0  0  0  0  0  0  0  0  0  0
   -3.9849    2.9095   -1.2672 C   0  0  0  0  0  0  0  0  0  0  0  0
   -3.3745    3.4849   -0.1527 C   0  0  0  0  0  0  0  0  0  0  0  0
  1 14  1  0
  2 14  1  0
  3 13  1  0
  3 15  1  0
  4 13  2  0
  5 20  1  0
  5 23  1  0
  6 17  3  0
  7  8  1  0
  7  9  1  0
  7 10  1  0
  7 11  1  0
  8  9  1  0
  8 12  1  0
  9 13  1  0
 12 14  2  3
 15 16  1  0
 15 17  1  0
 16 18  2  0
 16 19  1  0
 18 20  1  0
 19 21  2  0
 20 22  2  0
 21 22  1  0
 23 24  2  0
 23 25  1  0
 24 26  1  0
 25 27  2  0
 26 28  2  0
 27 28  1  0
M  END
>  <PUBCHEM_COMPOUND_CID>  (1) 
40585

>  <PUBCHEM_CONFORMER_RMSD>  (1) 
1.2

>  <PUBCHEM_CONFORMER_DIVERSEORDER>  (1) 
1
307
210
230
196
2
428
167
477
441
400
11
16
79
406
100
181
213
165
207
348
334
40
225
510
389
494
493
133
427
41
424
15
124
373
56
496
530
232
67
240
347
143
257
408
462
289
142
485
35
370
49
251
177
153
152
337
58
451
491
358
111
453
84
82
21
113
380
72
345
48
75
366
44
163
403
362
132
3
24
139
300
422
126
449
308
26
12
283
208
407
218
39
74
467
17
430
57
83
454
478
110
145
182
63
244
5
116
102
350
172
115
78
89
53
4
117
303
7
367
280
243
86
42
76
248
147
219
201
70
224
234
47
68
6
125
137
20
486
397
498
353
404
260
237
88
23
93
508
27
10
77
105
8

>  <PUBCHEM_MMFF94_PARTIAL_CHARGES>  (1) 
40
1 -0.11
10 0.09
11 0.09
12 -0.19
13 0.72
14 0.22
15 0.62
16 -0.14
17 0.36
18 -0.15
19 -0.15
2 -0.11
20 0.08
21 -0.15
22 -0.15
23 0.08
24 -0.15
25 -0.15
26 -0.15
27 -0.15
28 -0.15
29 0.1
3 -0.43
30 0.1
37 0.15
39 0.15
4 -0.57
40 0.15
41 0.15
42 0.15
43 0.15
44 0.15
45 0.15
46 0.15
47 0.15
5 -0.17
6 -0.56
7 -0.19
8 -0.06
9 -0.1

>  <PUBCHEM_EFFECTIVE_ROTOR_COUNT>  (1) 
7.6

>  <PUBCHEM_PHARMACOPHORE_FEATURES>  (1) 
9
1 1 hydrophobe
1 2 hydrophobe
1 4 acceptor
1 5 acceptor
1 6 acceptor
3 1 2 14 hydrophobe
3 7 10 11 hydrophobe
6 16 18 19 20 21 22 rings
6 23 24 25 26 27 28 rings

>  <PUBCHEM_HEAVY_ATOM_COUNT>  (1) 
28

>  <PUBCHEM_ATOM_DEF_STEREO_COUNT>  (1) 
3

>  <PUBCHEM_ATOM_UDEF_STEREO_COUNT>  (1) 
0

>  <PUBCHEM_BOND_DEF_STEREO_COUNT>  (1) 
0

>  <PUBCHEM_BOND_UDEF_STEREO_COUNT>  (1) 
0

>  <PUBCHEM_ISOTOPIC_ATOM_COUNT>  (1) 
0

>  <PUBCHEM_COMPONENT_COUNT>  (1) 
1

>  <PUBCHEM_CACTVS_TAUTO_COUNT>  (1) 
1

>  <PUBCHEM_CONFORMER_ID>  (1) 
00009E8900000001

>  <PUBCHEM_MMFF94_ENERGY>  (1) 
82.181

>  <PUBCHEM_FEATURE_SELFOVERLAP>  (1) 
47.147

>  <PUBCHEM_SHAPE_FINGERPRINT>  (1) 
10675989 125 17181927753557948181
10764073 3 18045488721883285558
1100329 8 17903919950506648202
11370993 70 18410006607482906333
12107183 9 18041829602983185626
12107698 1 18190176965337276155
12403259 226 18054512683835732691
12422481 6 18192418694138207594
12645989 146 18127978709340774830
12838863 1 18268126778117412871
13122387 1 18122910828694465605
13402501 40 18341335573840923209
13726171 33 18121248560519191932
14466204 15 18410288108350266042
14725015 67 18337662131388739897
14931854 50 18270111306601490669
15021287 119 16805601452609673796
21033648 144 17414992745504903228
21033648 29 17775563169923927546
21279426 13 18269563754289973926
22182313 1 18058751155585744926
238918 7 18272929389141243086
3117164 225 18261382322506131322
3886686 26 18042112172544457330
392239 28 18336278937435106259
460360 51 18261407615278516842
508706 21 18409735062274944085
6328613 192 18333453158208041228
9862522 239 18200874105400549174
9981440 41 18412540999044083195

>  <PUBCHEM_SHAPE_MULTIPOLES>  (1) 
565.52
11.64
4.76
1.64
10.88
0.29
0.21
-3.66
-1.35
-5.06
-0.08
0.88
0.84
1.53

>  <PUBCHEM_SHAPE_SELFOVERLAP>  (1) 
1184.7

>  <PUBCHEM_SHAPE_VOLUME>  (1) 
326.2

>  <PUBCHEM_COORDINATE_TYPE>  (1) 
2
5
10

$$$$
