40605
     RDKit          3D

 19 21  0  0  0  0  0  0  0  0999 V2000
    0.8110    1.9792    0.6205 S   0  0  0  0  0  0  0  0  0  0  0  0
   -2.2228    1.8136    0.8117 S   0  0  0  0  0  0  0  0  0  0  0  0
   -4.7397   -1.6600   -1.0320 O   0  0  0  0  0  0  0  0  0  0  0  0
    3.4499    1.1083   -1.1930 N   0  0  0  0  0  0  0  0  0  0  0  0
    4.7043   -0.7276   -1.0362 N   0  0  0  0  0  0  0  0  0  0  0  0
    1.6049   -0.4127    1.6012 N   0  0  0  0  0  0  0  0  0  0  0  0
    3.4917   -1.7420    0.8107 N   0  0  0  0  0  0  0  0  0  0  0  0
   -4.3010    0.3498    0.1327 N   0  0  0  0  0  0  0  0  0  0  0  0
   -0.7806    0.0596   -0.3757 N   0  0  0  0  0  0  0  0  0  0  0  0
   -2.0871   -0.3763   -0.5115 N   0  0  0  0  0  0  0  0  0  0  0  0
    2.9117    0.3777   -0.1722 C   0  0  0  0  0  0  0  0  0  0  0  0
    3.7077   -0.7571   -0.0942 C   0  0  0  0  0  0  0  0  0  0  0  0
    1.8450    0.5539    0.6869 C   0  0  0  0  0  0  0  0  0  0  0  0
    4.5209    0.4058   -1.6790 C   0  0  0  0  0  0  0  0  0  0  0  0
   -0.7358    1.1772    0.2887 C   0  0  0  0  0  0  0  0  0  0  0  0
   -2.9385    0.4466    0.0625 C   0  0  0  0  0  0  0  0  0  0  0  0
    2.4312   -1.4858    1.6066 C   0  0  0  0  0  0  0  0  0  0  0  0
   -5.1044   -0.6715   -0.4044 C   0  0  0  0  0  0  0  0  0  0  0  0
   -6.5683   -0.4388   -0.1233 C   0  0  0  0  0  0  0  0  0  0  0  0
  1 13  1  0
  1 15  1  0
  2 15  1  0
  2 16  1  0
  3 18  2  0
  4 11  1  0
  4 14  1  0
  5 12  1  0
  5 14  2  0
  6 13  2  0
  6 17  1  0
  7 12  1  0
  7 17  2  0
  8 16  1  0
  8 18  1  0
  9 10  1  0
  9 15  2  0
 10 16  2  0
 11 12  2  0
 11 13  1  0
 18 19  1  0
M  END
>  <PUBCHEM_COMPOUND_CID>  (1) 
40605

>  <PUBCHEM_CONFORMER_RMSD>  (1) 
0.6

>  <PUBCHEM_CONFORMER_DIVERSEORDER>  (1) 
1
28
66
75
17
68
100
33
46
76
103
78
72
65
63
62
73
102
87
79
71
64
56
101
86
55
77
27
31
52
15
18
34
51
74
26
69
61
16
49
70
94
25
95
88
50
32
67
37
60
39
13
20
89
48
96
54
47
40
59
53
97
19
10
85
22
11
9
98
93
99
82
12
21
92
41
38
58
83
84
42
80
14
81
57
45
2
104
105
44
43
29
30
91
90
3
4
5
6
23
24
7
8
35
36

>  <PUBCHEM_MMFF94_PARTIAL_CHARGES>  (1) 
23
1 -0.16
10 -0.34
11 -0.15
12 0.48
13 0.41
14 0.04
15 0.43
16 0.44
17 0.47
18 0.57
19 0.06
2 -0.08
20 0.27
21 0.15
22 0.15
23 0.37
3 -0.57
4 0.03
5 -0.57
6 -0.62
7 -0.57
8 -0.49
9 -0.34

>  <PUBCHEM_EFFECTIVE_ROTOR_COUNT>  (1) 
4

>  <PUBCHEM_PHARMACOPHORE_FEATURES>  (1) 
10
1 3 acceptor
1 4 donor
1 6 acceptor
1 8 donor
1 9 acceptor
3 4 5 14 cation
3 6 7 17 cation
5 2 9 10 15 16 rings
5 4 5 11 12 14 rings
6 6 7 11 12 13 17 rings

>  <PUBCHEM_HEAVY_ATOM_COUNT>  (1) 
19

>  <PUBCHEM_ATOM_DEF_STEREO_COUNT>  (1) 
0

>  <PUBCHEM_ATOM_UDEF_STEREO_COUNT>  (1) 
0

>  <PUBCHEM_BOND_DEF_STEREO_COUNT>  (1) 
0

>  <PUBCHEM_BOND_UDEF_STEREO_COUNT>  (1) 
0

>  <PUBCHEM_ISOTOPIC_ATOM_COUNT>  (1) 
0

>  <PUBCHEM_COMPONENT_COUNT>  (1) 
1

>  <PUBCHEM_CACTVS_TAUTO_COUNT>  (1) 
12

>  <PUBCHEM_CONFORMER_ID>  (1) 
00009E9D00000001

>  <PUBCHEM_MMFF94_ENERGY>  (1) 
28.9249

>  <PUBCHEM_FEATURE_SELFOVERLAP>  (1) 
50.878

>  <PUBCHEM_SHAPE_FINGERPRINT>  (1) 
11128504 68 18259707817219268869
11140007 195 16272211889989693113
11543360 7 17313100856639908249
11545043 162 16487259837781060073
12236239 1 18335986376688777116
12553582 1 18272920627101939127
12596602 18 12751231524176812551
12616999 72 17821723940305844632
12633257 1 13254792434548911412
12730499 353 16660372475690672392
12788726 201 18340772546673212073
12969540 114 15213013878006278811
13464513 79 17775567546252729278
13675066 3 15626221304012043889
14366163 111 16153420636887906661
14528608 73 17458346355448395007
14576447 43 18408042888415909088
15188451 53 15913031167534179719
15342816 4 18412830153416615396
15375358 24 14273739555444255529
15527383 91 13398629438146574850
15537594 2 18408323311342371379
16752209 62 18271799069570835849
17834072 33 18260267447410922509
18222031 100 17917703630800198293
19422 9 18263648376862623560
20281475 54 18337669707131099953
20388580 30 18272093824454953040
20645477 70 17095518453089943162
20715895 44 9870933237588485395
21033648 29 15482380946645808971
21150785 3 15502373478971062795
21521239 73 18334870377299100918
22950370 63 18411420614011729241
23016692 55 18273218595011672093
23503953 91 10663811966675904301
235170 7 16370716020500483959
23559900 14 17917425488559977337
23590187 173 12685088181145098916
23596394 208 17022894640702067875
23622692 88 11959732663941813160
239999 70 18131069376802657008
2767999 5 7925915859734166819
2838139 119 13120296938926069526
2871803 45 18113621183557467676
3004659 81 18187359892193263850
3060560 45 17313390041383472302
3472631 163 12540709136048698966
351380 3 18342175579328861311
465052 167 18202005460337532679
59755656 215 17560806481619550557
6327066 14 16808440546336051532
94968 8 18410852170478748816
960060 61 18113613499934659357

>  <PUBCHEM_SHAPE_MULTIPOLES>  (1) 
357.97
12.54
1.74
1.32
14.28
0.32
-0.09
-5.33
4.13
0.09
-0.37
-1.66
-0.24
-1.33

>  <PUBCHEM_SHAPE_SELFOVERLAP>  (1) 
753.605

>  <PUBCHEM_SHAPE_VOLUME>  (1) 
203.1

>  <PUBCHEM_COORDINATE_TYPE>  (1) 
2
5
10

$$$$
