40617
     RDKit          3D

 19 18  0  0  1  0  0  0  0  0999 V2000
   -2.6810    1.2838   -1.7097 Cl  0  0  0  0  0  0  0  0  0  0  0  0
   -3.9597   -0.1944    0.4427 Cl  0  0  0  0  0  0  0  0  0  0  0  0
   -3.0102    2.4995    0.9054 Cl  0  0  0  0  0  0  0  0  0  0  0  0
   -0.7012   -1.1208   -0.2360 P   0  0  0  0  0  0  0  0  0  0  0  0
   -0.2487    1.3583    0.1934 O   0  0  0  0  0  0  0  0  0  0  0  0
    0.0697   -0.6420   -1.5779 O   0  0  0  0  0  0  0  0  0  0  0  0
    0.5181   -1.5920    0.7227 O   0  0  0  0  0  0  0  0  0  0  0  0
   -1.7510   -2.1699   -0.4634 O   0  0  0  0  0  0  0  0  0  0  0  0
    1.1005    0.8916    2.0113 O   0  0  0  0  0  0  0  0  0  0  0  0
   -1.2905    0.4091    0.5134 C   0  0  0  0  0  0  0  0  0  0  0  0
   -2.6479    0.9603    0.0481 C   0  0  0  0  0  0  0  0  0  0  0  0
    2.0527    1.7680   -0.0236 C   0  0  0  0  0  0  0  0  0  0  0  0
    0.9336    1.2856    0.8651 C   0  0  0  0  0  0  0  0  0  0  0  0
    0.6602   -1.6254   -2.4090 C   0  0  0  0  0  0  0  0  0  0  0  0
    0.2219   -2.2564    1.9380 C   0  0  0  0  0  0  0  0  0  0  0  0
    3.3881    1.1197    0.3262 C   0  0  0  0  0  0  0  0  0  0  0  0
    1.3162   -0.9431   -3.5906 C   0  0  0  0  0  0  0  0  0  0  0  0
    1.5176   -2.5902    2.6460 C   0  0  0  0  0  0  0  0  0  0  0  0
    4.5117    1.5583   -0.6019 C   0  0  0  0  0  0  0  0  0  0  0  0
  1 11  1  0
  2 11  1  0
  3 11  1  0
  4  6  1  0
  4  7  1  0
  4  8  2  0
  4 10  1  0
  5 10  1  0
  5 13  1  0
  6 14  1  0
  7 15  1  0
  9 13  2  0
 10 11  1  0
 12 13  1  0
 12 16  1  0
 14 17  1  0
 15 18  1  0
 16 19  1  0
M  END
>  <PUBCHEM_COMPOUND_CID>  (1) 
40617

>  <PUBCHEM_CONFORMER_RMSD>  (1) 
1

>  <PUBCHEM_CONFORMER_DIVERSEORDER>  (1) 
1
57
35
25
22
4
8
71
36
67
73
34
58
29
5
65
18
9
14
72
70
51
59
41
42
47
62
39
64
37
63
31
66
28
33
46
24
16
54
49
6
55
10
3
27
69
12
43
56
38
7
11
32
53
68
13
61
20
40
75
52
23
44
45
50
15
60
30
26
19
2
17
48
21
74

>  <PUBCHEM_MMFF94_PARTIAL_CHARGES>  (1) 
15
1 -0.29
10 0.28
11 0.87
12 0.06
13 0.66
14 0.28
15 0.28
2 -0.29
3 -0.29
4 1.24
5 -0.43
6 -0.55
7 -0.55
8 -0.7
9 -0.57

>  <PUBCHEM_EFFECTIVE_ROTOR_COUNT>  (1) 
10

>  <PUBCHEM_PHARMACOPHORE_FEATURES>  (1) 
3
1 19 hydrophobe
1 8 acceptor
1 9 acceptor

>  <PUBCHEM_HEAVY_ATOM_COUNT>  (1) 
19

>  <PUBCHEM_ATOM_DEF_STEREO_COUNT>  (1) 
0

>  <PUBCHEM_ATOM_UDEF_STEREO_COUNT>  (1) 
1

>  <PUBCHEM_BOND_DEF_STEREO_COUNT>  (1) 
0

>  <PUBCHEM_BOND_UDEF_STEREO_COUNT>  (1) 
0

>  <PUBCHEM_ISOTOPIC_ATOM_COUNT>  (1) 
0

>  <PUBCHEM_COMPONENT_COUNT>  (1) 
1

>  <PUBCHEM_CACTVS_TAUTO_COUNT>  (1) 
1

>  <PUBCHEM_CONFORMER_ID>  (1) 
00009EA900000001

>  <PUBCHEM_MMFF94_ENERGY>  (1) 
15.9823

>  <PUBCHEM_FEATURE_SELFOVERLAP>  (1) 
15.223

>  <PUBCHEM_SHAPE_FINGERPRINT>  (1) 
10382601 240 18120391864413633001
107951 10 18261691349682110686
12173636 292 17823687762794818260
12592029 89 17632027402510364918
14251751 93 18410570725466679792
14251757 17 17986416441245639438
14713325 29 17987532569954151276
14817 1 16105280375543893622
16945 1 18199736085164263785
20473742 2 17391878532433973095
20600515 1 17261866655305764625
20645476 183 18115304613364306392
21524375 3 18410856594094980329
23419403 2 17407458723705347282
23526113 38 15697702826781537792
298252 57 17989203780737164858
3052486 1 17174096323359530867
59755656 215 18202009824108870253
81228 2 17616800476462529673
9999458 23 18113053830967038897

>  <PUBCHEM_SHAPE_MULTIPOLES>  (1) 
371.12
5.53
2.97
2.83
0.43
2.52
3.12
-3.95
-1.35
1
-1.55
1.25
0.11
-0.62

>  <PUBCHEM_SHAPE_SELFOVERLAP>  (1) 
665.282

>  <PUBCHEM_SHAPE_VOLUME>  (1) 
240.2

>  <PUBCHEM_COORDINATE_TYPE>  (1) 
2
5
10

$$$$
