40610
     RDKit          3D

 28 30  0  0  0  0  0  0  0  0999 V2000
   -7.3330    0.6748   -0.6847 Cl  0  0  0  0  0  0  0  0  0  0  0  0
    1.0857    2.5010   -1.4180 S   0  0  0  0  0  0  0  0  0  0  0  0
    4.8154    2.6851   -0.4888 O   0  0  0  0  0  0  0  0  0  0  0  0
    1.2033   -2.3087   -2.0811 O   0  0  0  0  0  0  0  0  0  0  0  0
   -0.3408   -3.6035   -0.1674 O   0  0  0  0  0  0  0  0  0  0  0  0
    2.8105    1.8514    0.3796 N   0  0  0  0  0  0  0  0  0  0  0  0
    0.5597    1.2226    0.8409 N   0  0  0  0  0  0  0  0  0  0  0  0
   -0.6848    1.3314    0.2304 N   0  0  0  0  0  0  0  0  0  0  0  0
    3.3774    1.2908    1.5984 C   0  0  0  0  0  0  0  0  0  0  0  0
    3.8343   -0.1552    1.4208 C   0  0  0  0  0  0  0  0  0  0  0  0
    2.7186   -1.0767    0.9930 C   0  0  0  0  0  0  0  0  0  0  0  0
    3.6040    2.4976   -0.5595 C   0  0  0  0  0  0  0  0  0  0  0  0
    1.4690    1.7652    0.1074 C   0  0  0  0  0  0  0  0  0  0  0  0
    2.7973    2.9724   -1.7406 C   0  0  0  0  0  0  0  0  0  0  0  0
    2.4754   -1.2675   -0.3583 C   0  0  0  0  0  0  0  0  0  0  0  0
    1.9565   -1.7155    1.9585 C   0  0  0  0  0  0  0  0  0  0  0  0
    1.4437   -2.1189   -0.7538 C   0  0  0  0  0  0  0  0  0  0  0  0
    0.9250   -2.5669    1.5631 C   0  0  0  0  0  0  0  0  0  0  0  0
    0.6686   -2.7686    0.2069 C   0  0  0  0  0  0  0  0  0  0  0  0
    1.9000   -3.3769   -2.7198 C   0  0  0  0  0  0  0  0  0  0  0  0
   -1.6321   -3.0230   -0.3387 C   0  0  0  0  0  0  0  0  0  0  0  0
   -1.6015    0.7878    0.9632 C   0  0  0  0  0  0  0  0  0  0  0  0
   -3.0163    0.7591    0.5555 C   0  0  0  0  0  0  0  0  0  0  0  0
   -3.9499    0.1599    1.3860 C   0  0  0  0  0  0  0  0  0  0  0  0
   -3.3879    1.3332   -0.6498 C   0  0  0  0  0  0  0  0  0  0  0  0
   -5.2902    0.1339    1.0009 C   0  0  0  0  0  0  0  0  0  0  0  0
   -4.7283    1.3074   -1.0348 C   0  0  0  0  0  0  0  0  0  0  0  0
   -5.6797    0.7077   -0.2094 C   0  0  0  0  0  0  0  0  0  0  0  0
  1 28  1  0
  2 13  1  0
  2 14  1  0
  3 12  2  0
  4 17  1  0
  4 20  1  0
  5 19  1  0
  5 21  1  0
  6  9  1  0
  6 12  1  0
  6 13  1  0
  7  8  1  0
  7 13  2  0
  8 22  2  0
  9 10  1  0
 10 11  1  0
 11 15  2  0
 11 16  1  0
 12 14  1  0
 15 17  1  0
 16 18  2  0
 17 19  2  0
 18 19  1  0
 22 23  1  0
 23 24  2  0
 23 25  1  0
 24 26  1  0
 25 27  2  0
 26 28  2  0
 27 28  1  0
M  END
>  <PUBCHEM_COMPOUND_CID>  (1) 
40610

>  <PUBCHEM_CONFORMER_RMSD>  (1) 
0.8

>  <PUBCHEM_CONFORMER_DIVERSEORDER>  (1) 
2
9
46
50
31
7
17
40
15
38
8
49
1
41
43
48
12
23
10
45
52
47
3
42
39
4
28
22
11
44
21
18
36
32
27
16
37
13
33
26
51
19
20
14
24
30
6
35
34
25
29
5

>  <PUBCHEM_MMFF94_PARTIAL_CHARGES>  (1) 
36
1 -0.18
10 0.14
11 -0.14
12 0.57
13 0.65
14 0.29
15 -0.15
16 -0.15
17 0.08
18 -0.15
19 0.08
2 -0.37
20 0.28
21 0.28
22 0.3
23 0.09
24 -0.15
25 -0.15
26 -0.15
27 -0.15
28 0.18
3 -0.57
35 0.15
36 0.15
37 0.15
4 -0.36
44 0.06
45 0.15
46 0.15
47 0.15
48 0.15
5 -0.36
6 -0.42
7 -0.45
8 -0.45
9 0.3

>  <PUBCHEM_EFFECTIVE_ROTOR_COUNT>  (1) 
7.6

>  <PUBCHEM_PHARMACOPHORE_FEATURES>  (1) 
7
1 3 acceptor
1 4 acceptor
1 5 acceptor
1 8 acceptor
5 2 6 12 13 14 rings
6 11 15 16 17 18 19 rings
6 23 24 25 26 27 28 rings

>  <PUBCHEM_HEAVY_ATOM_COUNT>  (1) 
28

>  <PUBCHEM_ATOM_DEF_STEREO_COUNT>  (1) 
0

>  <PUBCHEM_ATOM_UDEF_STEREO_COUNT>  (1) 
0

>  <PUBCHEM_BOND_DEF_STEREO_COUNT>  (1) 
0

>  <PUBCHEM_BOND_UDEF_STEREO_COUNT>  (1) 
2

>  <PUBCHEM_ISOTOPIC_ATOM_COUNT>  (1) 
0

>  <PUBCHEM_COMPONENT_COUNT>  (1) 
1

>  <PUBCHEM_CACTVS_TAUTO_COUNT>  (1) 
1

>  <PUBCHEM_CONFORMER_ID>  (1) 
00009EA200000002

>  <PUBCHEM_MMFF94_ENERGY>  (1) 
83.0684

>  <PUBCHEM_FEATURE_SELFOVERLAP>  (1) 
35.528

>  <PUBCHEM_SHAPE_FINGERPRINT>  (1) 
104564 63 17834398195902711274
11421498 54 17703514298300069656
12156800 1 16449020103151421710
12422481 6 18265588001879742616
12788726 201 17327185849494275804
13150687 139 18339934813566267492
133893 2 18194144948151442225
13836976 161 18411133632301545272
14117953 113 18336820901292056572
14747281 78 17532392884596595445
14863182 85 17988637463513650166
16752209 62 17910396422308053478
17138139 8 17770757299035451663
17492 54 18117025246346174868
20609170 109 15511613490490654531
20645477 70 18410009901796480505
21197605 99 18263647436803258987
21860390 5 16371016255498750892
22149856 69 18060429019579237251
23558518 356 17470451098039466324
23559900 14 18191586342160606289
238 59 18336563637135560480
239999 70 18338800018059006715
3298306 158 18188782763276791809
338550 245 18263358247742920091
46194498 28 18187922838400363645
463206 1 18270668866518011293
6287921 2 18059018263569847839
6669772 16 18408893953787616902

>  <PUBCHEM_SHAPE_MULTIPOLES>  (1) 
549.4
11.15
4.4
1.95
22.99
2.11
-0.64
-6.57
-0.03
-4.96
-2.22
-1.45
1.02
0.08

>  <PUBCHEM_SHAPE_SELFOVERLAP>  (1) 
1149.773

>  <PUBCHEM_SHAPE_VOLUME>  (1) 
315.3

>  <PUBCHEM_COORDINATE_TYPE>  (1) 
2
5
10

$$$$
