40632
     RDKit          3D

 14 15  0  0  0  0  0  0  0  0999 V2000
    0.3145    2.4122   -0.3762 O   0  0  0  0  0  0  0  0  0  0  0  0
    0.3897    0.0736   -0.0030 N   0  0  0  0  0  0  0  0  0  0  0  0
   -1.0495   -0.1046    0.0138 C   0  0  0  0  0  0  0  0  0  0  0  0
    1.2409   -1.0278    0.1157 C   0  0  0  0  0  0  0  0  0  0  0  0
    2.5783   -0.9247    0.1166 C   0  0  0  0  0  0  0  0  0  0  0  0
    0.9365    1.3710   -0.1647 C   0  0  0  0  0  0  0  0  0  0  0  0
    3.1801    0.3775   -0.0030 C   0  0  0  0  0  0  0  0  0  0  0  0
    2.4260    1.4723   -0.1261 C   0  0  0  0  0  0  0  0  0  0  0  0
   -1.6030   -1.2857   -0.4687 C   0  0  0  0  0  0  0  0  0  0  0  0
   -1.8635    0.9067    0.5125 C   0  0  0  0  0  0  0  0  0  0  0  0
    3.4939   -2.1001    0.2599 C   0  0  0  0  0  0  0  0  0  0  0  0
   -2.9871   -1.4576   -0.4522 C   0  0  0  0  0  0  0  0  0  0  0  0
   -3.2476    0.7347    0.5290 C   0  0  0  0  0  0  0  0  0  0  0  0
   -3.8093   -0.4475    0.0466 C   0  0  0  0  0  0  0  0  0  0  0  0
  1  6  2  0
  2  3  1  0
  2  4  1  0
  2  6  1  0
  3  9  2  0
  3 10  1  0
  4  5  2  0
  5  7  1  0
  5 11  1  0
  6  8  1  0
  7  8  2  0
  9 12  1  0
 10 13  2  0
 12 14  2  0
 13 14  1  0
M  END
>  <PUBCHEM_COMPOUND_CID>  (1) 
40632

>  <PUBCHEM_CONFORMER_RMSD>  (1) 
0.4

>  <PUBCHEM_CONFORMER_DIVERSEORDER>  (1) 
1
2
3

>  <PUBCHEM_MMFF94_PARTIAL_CHARGES>  (1) 
22
1 -0.57
10 -0.15
11 0.14
12 -0.15
13 -0.15
14 -0.15
15 0.15
16 0.15
17 0.15
18 0.15
19 0.15
2 -0.29
23 0.15
24 0.15
25 0.15
3 0.12
4 -0.04
5 -0.14
6 0.62
7 -0.15
8 -0.14
9 -0.15

>  <PUBCHEM_EFFECTIVE_ROTOR_COUNT>  (1) 
1

>  <PUBCHEM_PHARMACOPHORE_FEATURES>  (1) 
3
1 1 acceptor
6 2 4 5 6 7 8 rings
6 3 9 10 12 13 14 rings

>  <PUBCHEM_HEAVY_ATOM_COUNT>  (1) 
14

>  <PUBCHEM_ATOM_DEF_STEREO_COUNT>  (1) 
0

>  <PUBCHEM_ATOM_UDEF_STEREO_COUNT>  (1) 
0

>  <PUBCHEM_BOND_DEF_STEREO_COUNT>  (1) 
0

>  <PUBCHEM_BOND_UDEF_STEREO_COUNT>  (1) 
0

>  <PUBCHEM_ISOTOPIC_ATOM_COUNT>  (1) 
0

>  <PUBCHEM_COMPONENT_COUNT>  (1) 
1

>  <PUBCHEM_CACTVS_TAUTO_COUNT>  (1) 
1

>  <PUBCHEM_CONFORMER_ID>  (1) 
00009EB800000001

>  <PUBCHEM_MMFF94_ENERGY>  (1) 
51.1429

>  <PUBCHEM_FEATURE_SELFOVERLAP>  (1) 
15.223

>  <PUBCHEM_SHAPE_FINGERPRINT>  (1) 
10967382 1 18338517555070817902
10980938 120 18409168843946407828
11132069 177 18341605984649485642
11471102 20 18335978739793696359
11769659 78 18342734130776848527
12032990 46 18336270054519616890
12251169 10 18343300336357665322
12553582 1 18191581956852005762
13296908 3 18334293145529250587
13571099 22 18410568492283931573
14144814 61 18412546526407880355
14178342 30 18196356246660746914
14251717 144 18335978757000153542
14325111 11 18412828005700670265
14576447 43 18269268139479305302
15279308 51 18343014497657330367
15375462 189 18114744807089692706
15442244 35 18340207388489168224
15477762 27 18336826501961006887
15501101 241 18333448755233293772
15536298 74 18344147007819248770
15669948 3 17774438412082772447
15775835 57 18341058509357859989
16945 1 18193278713345485193
17804303 29 18130229250728573994
18186145 218 17603301544485340331
19422 9 18412266133652398811
200 152 18201990054469099095
20559304 39 18340770450132916104
20645477 70 18408879633660173007
20871998 22 18197500628149727438
21267235 1 18411992363783837047
21501502 16 18413109484935366471
21501925 9 18411127039880193234
221490 88 18262527025157615130
22445834 79 18412546543593082707
2255824 54 18260552234076690482
23463225 33 18411983541952406318
23552423 10 18194683902438838045
23559900 14 17989201526042891056
2748010 2 18336536115053855220
5104073 3 18412827988663356755
57096353 35 18197216064684972733
63268167 104 18408604785733298625
6992083 37 18269849626817388281
7364860 26 18271524324686584680
77492 1 18202568401415981123

>  <PUBCHEM_SHAPE_MULTIPOLES>  (1) 
277.26
6.44
2.09
0.69
1.15
0.23
-0.01
-2.06
-0.43
-1.07
0.15
0.13
-0.01
-0.62

>  <PUBCHEM_SHAPE_SELFOVERLAP>  (1) 
595.334

>  <PUBCHEM_SHAPE_VOLUME>  (1) 
152.2

>  <PUBCHEM_COORDINATE_TYPE>  (1) 
2
5
10

$$$$
