40638
     RDKit          3D

 11 12  0  0  1  0  0  0  0  0999 V2000
    1.2130   -0.8810   -0.3283 C   0  0  0  0  0  0  0  0  0  0  0  0
   -0.2458   -0.5337   -0.1890 C   0  0  0  0  0  0  0  0  0  0  0  0
    1.8481    0.4869   -0.1133 C   0  0  0  0  0  0  0  0  0  0  0  0
   -0.3808    0.8379    0.0677 C   0  0  0  0  0  0  0  0  0  0  0  0
    0.9357    1.4488    0.1105 C   0  0  0  0  0  0  0  0  0  0  0  0
    1.6640   -1.9205    0.6914 C   0  0  0  0  0  0  0  0  0  0  0  0
   -1.3570   -1.3539   -0.2925 C   0  0  0  0  0  0  0  0  0  0  0  0
    3.3214    0.6819   -0.1915 C   0  0  0  0  0  0  0  0  0  0  0  0
   -1.6271    1.4170    0.2341 C   0  0  0  0  0  0  0  0  0  0  0  0
   -2.6187   -0.7786   -0.1255 C   0  0  0  0  0  0  0  0  0  0  0  0
   -2.7527    0.5952    0.1364 C   0  0  0  0  0  0  0  0  0  0  0  0
  1  2  1  0
  1  3  1  0
  1  6  1  0
  2  4  2  0
  2  7  1  0
  3  5  2  0
  3  8  1  0
  4  5  1  0
  4  9  1  0
  7 10  2  0
  9 11  2  0
 10 11  1  0
M  END
>  <PUBCHEM_COMPOUND_CID>  (1) 
40638

>  <PUBCHEM_CONFORMER_RMSD>  (1) 
0.4

>  <PUBCHEM_CONFORMER_DIVERSEORDER>  (1) 
1
2

>  <PUBCHEM_MMFF94_PARTIAL_CHARGES>  (1) 
15
1 0.28
10 -0.15
11 -0.15
13 0.15
17 0.15
2 -0.14
21 0.15
22 0.15
23 0.15
3 -0.28
4 0.03
5 -0.18
7 -0.15
8 0.14
9 -0.15

>  <PUBCHEM_EFFECTIVE_ROTOR_COUNT>  (1) 
0.2

>  <PUBCHEM_PHARMACOPHORE_FEATURES>  (1) 
2
5 1 2 3 4 5 rings
6 2 4 7 9 10 11 rings

>  <PUBCHEM_HEAVY_ATOM_COUNT>  (1) 
11

>  <PUBCHEM_ATOM_DEF_STEREO_COUNT>  (1) 
0

>  <PUBCHEM_ATOM_UDEF_STEREO_COUNT>  (1) 
1

>  <PUBCHEM_BOND_DEF_STEREO_COUNT>  (1) 
0

>  <PUBCHEM_BOND_UDEF_STEREO_COUNT>  (1) 
0

>  <PUBCHEM_ISOTOPIC_ATOM_COUNT>  (1) 
0

>  <PUBCHEM_COMPONENT_COUNT>  (1) 
1

>  <PUBCHEM_CACTVS_TAUTO_COUNT>  (1) 
1

>  <PUBCHEM_CONFORMER_ID>  (1) 
00009EBE00000001

>  <PUBCHEM_MMFF94_ENERGY>  (1) 
27.4049

>  <PUBCHEM_FEATURE_SELFOVERLAP>  (1) 
10.234

>  <PUBCHEM_SHAPE_FINGERPRINT>  (1) 
12423570 1 11994891167305341307
12524768 44 18270407074764599111
12897270 3 18411418457416030701
13380535 76 18411135844183536614
14325111 11 18411983589482026044
15775835 57 18411707564613014257
16945 1 18410852200332477601
193761 8 17978510828135513180
21040471 1 18341333305586533381
21501502 16 18339075986882109169
23402655 69 18270668767945247781
23463225 33 18335416838334515090
23552423 10 18335142007165815735
23559900 14 18271814562388460132
2748010 2 18267305318055405869
369184 2 18259982643781699435
5084963 1 18057611056031529784
528862 383 18187922837788368850
528886 8 18411696620883168400
53812653 166 18343861138838085816
63268167 104 18409729521719698417
7364860 26 18271243799182619390

>  <PUBCHEM_SHAPE_MULTIPOLES>  (1) 
226.37
4.13
1.8
0.69
0.41
0.34
-0.02
-0.4
0.07
0.22
-0.21
0.07
0.09
-0.35

>  <PUBCHEM_SHAPE_SELFOVERLAP>  (1) 
488.943

>  <PUBCHEM_SHAPE_VOLUME>  (1) 
120.9

>  <PUBCHEM_COORDINATE_TYPE>  (1) 
2
5
10

$$$$
