40635
     RDKit          3D

 12 11  0  0  0  0  0  0  0  0999 V2000
   -1.5932    0.3465   -0.1460 O   0  0  0  0  0  0  0  0  0  0  0  0
    0.4548    2.4209   -0.1170 O   0  0  0  0  0  0  0  0  0  0  0  0
   -2.8873   -1.5213    0.2678 O   0  0  0  0  0  0  0  0  0  0  0  0
    0.8472    0.3500   -0.2103 N   0  0  0  0  0  0  0  0  0  0  0  0
    0.9477    1.4616    0.4882 N   0  0  0  0  0  0  0  0  0  0  0  0
    2.0254   -0.5085   -0.0617 C   0  0  0  0  0  0  0  0  0  0  0  0
    1.9317   -1.6474   -1.0827 C   0  0  0  0  0  0  0  0  0  0  0  0
    3.2787    0.3327   -0.3259 C   0  0  0  0  0  0  0  0  0  0  0  0
    2.0635   -1.0784    1.3612 C   0  0  0  0  0  0  0  0  0  0  0  0
   -0.3868   -0.4261    0.0289 C   0  0  0  0  0  0  0  0  0  0  0  0
   -2.7653   -0.3331    0.0031 C   0  0  0  0  0  0  0  0  0  0  0  0
   -3.9165    0.6032   -0.2056 C   0  0  0  0  0  0  0  0  0  0  0  0
  1 10  1  0
  1 11  1  0
  2  5  2  0
  3 11  2  0
  4  5  1  0
  4  6  1  0
  4 10  1  0
  6  7  1  0
  6  8  1  0
  6  9  1  0
 11 12  1  0
M  END
>  <PUBCHEM_COMPOUND_CID>  (1) 
40635

>  <PUBCHEM_CONFORMER_RMSD>  (1) 
0.6

>  <PUBCHEM_CONFORMER_DIVERSEORDER>  (1) 
1
26
49
45
32
38
20
43
15
40
31
29
33
21
12
17
8
7
19
6
42
18
3
5
36
9
44
47
27
41
24
22
28
4
46
16
14
35
37
2
13
10
23
34
30
11
39
25
48

>  <PUBCHEM_MMFF94_PARTIAL_CHARGES>  (1) 
9
1 -0.43
10 0.55
11 0.66
12 0.06
2 -0.16
3 -0.57
4 -0.36
5 -0.01
6 0.27

>  <PUBCHEM_EFFECTIVE_ROTOR_COUNT>  (1) 
5

>  <PUBCHEM_PHARMACOPHORE_FEATURES>  (1) 
2
1 3 acceptor
4 6 7 8 9 hydrophobe

>  <PUBCHEM_HEAVY_ATOM_COUNT>  (1) 
12

>  <PUBCHEM_ATOM_DEF_STEREO_COUNT>  (1) 
0

>  <PUBCHEM_ATOM_UDEF_STEREO_COUNT>  (1) 
0

>  <PUBCHEM_BOND_DEF_STEREO_COUNT>  (1) 
0

>  <PUBCHEM_BOND_UDEF_STEREO_COUNT>  (1) 
0

>  <PUBCHEM_ISOTOPIC_ATOM_COUNT>  (1) 
0

>  <PUBCHEM_COMPONENT_COUNT>  (1) 
1

>  <PUBCHEM_CACTVS_TAUTO_COUNT>  (1) 
1

>  <PUBCHEM_CONFORMER_ID>  (1) 
00009EBB00000001

>  <PUBCHEM_MMFF94_ENERGY>  (1) 
30.077

>  <PUBCHEM_FEATURE_SELFOVERLAP>  (1) 
10.148

>  <PUBCHEM_SHAPE_FINGERPRINT>  (1) 
10130415 120 18261949644245421841
10219947 1 18059857268214036790
12932764 1 17967529082396829239
14144814 61 18412827962967197299
14252887 29 18342465828338370778
14325111 11 18408323298056237343
14648413 74 18337955713546221089
15775835 57 17967532367814910147
17990270 104 18341054102758480551
20201158 50 18412545401137232143
20645477 70 18129662989508732143
20653091 64 18337956791292836256
20711985 344 17978803306723399692
20711985 365 18050005484877964510
20871998 22 18270965622524299886
21524375 3 17617655904925177008
23402539 116 18411693288616554110
23552423 10 18116432725142077765
3248919 1 18201717345267503091
7364860 26 18199187476059437193
81228 2 18124037818995526520

>  <PUBCHEM_SHAPE_MULTIPOLES>  (1) 
219.38
5.75
1.74
0.9
4.71
0.64
-0.12
-0.74
0.31
-0.34
0.06
-0.61
-0.32
0.17

>  <PUBCHEM_SHAPE_SELFOVERLAP>  (1) 
417.409

>  <PUBCHEM_SHAPE_VOLUME>  (1) 
136.2

>  <PUBCHEM_COORDINATE_TYPE>  (1) 
2
5
10

$$$$
