40648
     RDKit          3D

 22 22  0  0  1  0  0  0  0  0999 V2000
    0.2951   -0.5126    0.2915 O   0  0  0  0  0  0  0  0  0  0  0  0
    1.3534   -3.0835    0.2506 O   0  0  0  0  0  0  0  0  0  0  0  0
   -2.6842   -1.8159    1.0892 O   0  0  0  0  0  0  0  0  0  0  0  0
   -2.3323   -2.0722   -1.1711 O   0  0  0  0  0  0  0  0  0  0  0  0
    3.7930   -0.3220   -0.1131 N   0  0  0  0  0  0  0  0  0  0  0  0
    1.0789    2.2156    0.3531 C   0  0  0  0  0  0  0  0  0  0  0  0
   -0.3307    1.7844    0.1143 C   0  0  0  0  0  0  0  0  0  0  0  0
   -0.6730    0.4346    0.0905 C   0  0  0  0  0  0  0  0  0  0  0  0
    2.0169   -2.0191   -0.4373 C   0  0  0  0  0  0  0  0  0  0  0  0
    0.9719   -0.9917   -0.8665 C   0  0  0  0  0  0  0  0  0  0  0  0
    3.0873   -1.4430    0.4926 C   0  0  0  0  0  0  0  0  0  0  0  0
   -1.9921    0.0479   -0.1345 C   0  0  0  0  0  0  0  0  0  0  0  0
   -1.3133    2.7535   -0.0879 C   0  0  0  0  0  0  0  0  0  0  0  0
   -2.9745    1.0171   -0.3369 C   0  0  0  0  0  0  0  0  0  0  0  0
    1.6690    2.9830   -0.8443 C   0  0  0  0  0  0  0  0  0  0  0  0
    1.2270    3.0532    1.6366 C   0  0  0  0  0  0  0  0  0  0  0  0
   -2.6351    2.3699   -0.3136 C   0  0  0  0  0  0  0  0  0  0  0  0
   -4.3990    0.6374   -0.5804 C   0  0  0  0  0  0  0  0  0  0  0  0
   -2.3432   -1.3681   -0.1559 C   0  0  0  0  0  0  0  0  0  0  0  0
    4.7267    0.2784    0.8423 C   0  0  0  0  0  0  0  0  0  0  0  0
    4.5071   -0.7506   -1.3177 C   0  0  0  0  0  0  0  0  0  0  0  0
   -3.0490   -3.1961    1.1986 C   0  0  0  0  0  0  0  0  0  0  0  0
  1  8  1  0
  1 10  1  0
  2  9  1  0
  3 19  1  0
  3 22  1  0
  4 19  2  0
  5 11  1  0
  5 20  1  0
  5 21  1  0
  6  7  1  0
  6 15  1  0
  6 16  1  0
  7  8  2  0
  7 13  1  0
  8 12  1  0
  9 10  1  0
  9 11  1  0
 12 14  2  0
 12 19  1  0
 13 17  2  0
 14 17  1  0
 14 18  1  0
M  END
>  <PUBCHEM_COMPOUND_CID>  (1) 
40648

>  <PUBCHEM_CONFORMER_RMSD>  (1) 
0.8

>  <PUBCHEM_CONFORMER_DIVERSEORDER>  (1) 
5
52
49
3
4
50
25
31
24
45
19
38
34
36
2
48
51
32
10
12
27
9
47
13
35
44
7
11
37
26
29
17
1
6
40
15
33
28
8
16
23
14
30
43
39
22
46
20
21
42
41
18

>  <PUBCHEM_MMFF94_PARTIAL_CHARGES>  (1) 
23
1 -0.36
10 0.28
11 0.27
12 0.09
13 -0.15
14 -0.14
17 -0.15
18 0.14
19 0.63
2 -0.68
20 0.27
21 0.27
22 0.28
29 0.15
3 -0.43
36 0.15
4 -0.57
46 0.4
5 -0.81
6 0.14
7 -0.14
8 0.08
9 0.28

>  <PUBCHEM_EFFECTIVE_ROTOR_COUNT>  (1) 
8

>  <PUBCHEM_PHARMACOPHORE_FEATURES>  (1) 
7
1 1 acceptor
1 2 acceptor
1 2 donor
1 4 acceptor
1 5 cation
3 6 15 16 hydrophobe
6 7 8 12 13 14 17 rings

>  <PUBCHEM_HEAVY_ATOM_COUNT>  (1) 
22

>  <PUBCHEM_ATOM_DEF_STEREO_COUNT>  (1) 
0

>  <PUBCHEM_ATOM_UDEF_STEREO_COUNT>  (1) 
1

>  <PUBCHEM_BOND_DEF_STEREO_COUNT>  (1) 
0

>  <PUBCHEM_BOND_UDEF_STEREO_COUNT>  (1) 
0

>  <PUBCHEM_ISOTOPIC_ATOM_COUNT>  (1) 
0

>  <PUBCHEM_COMPONENT_COUNT>  (1) 
1

>  <PUBCHEM_CACTVS_TAUTO_COUNT>  (1) 
1

>  <PUBCHEM_CONFORMER_ID>  (1) 
00009EC800000005

>  <PUBCHEM_MMFF94_ENERGY>  (1) 
72.103

>  <PUBCHEM_FEATURE_SELFOVERLAP>  (1) 
35.524

>  <PUBCHEM_SHAPE_FINGERPRINT>  (1) 
10498660 4 18339928108989897180
10906281 52 18271538485436515181
10967382 1 18339358544011275900
11112241 14 16771513392065790600
11578080 2 17130123520569899315
11680986 33 18338794636939718897
12035758 1 18410020922998729449
12173636 292 17975973163867650125
12553582 1 18411417276241871985
12788726 201 17698729103648082144
13027679 85 18342175540236714945
13140716 1 18339926034030297233
13544592 271 18341046337388972550
14081887 123 18198892614075509192
14251745 187 18412252944018680408
14790565 3 17254855581522254461
16945 1 18263379018020348821
19591789 44 17977954805921999364
20028762 73 16109250321148376638
20510252 161 17980199690891267617
20642791 178 18261400000375698308
20715895 44 17107612866263607852
20905425 154 18196945580566768524
21029758 11 18199177408988508605
2334 1 18122904497627600853
23557571 272 18199755743704142894
23559900 14 18336540620269255500
2748010 2 18194391415139847013
3178227 256 18192723250654828057
34934 24 18338790118022154894
350125 39 18266184013884999553
7364860 26 18271795861045902713
81228 2 17910125611297327969
9709674 26 18125160428968255734
9925002 15 17483659471273492630

>  <PUBCHEM_SHAPE_MULTIPOLES>  (1) 
424.29
7.39
4.15
1.14
4.08
0.25
0.14
-2.31
-0.58
-1.06
0.89
0.32
-0.01
1.13

>  <PUBCHEM_SHAPE_SELFOVERLAP>  (1) 
859.198

>  <PUBCHEM_SHAPE_VOLUME>  (1) 
250.8

>  <PUBCHEM_COORDINATE_TYPE>  (1) 
2
5
10

$$$$
