40649
     RDKit          3D

 24 24  0  0  1  0  0  0  0  0999 V2000
   -0.3775    0.4287    0.9266 O   0  0  0  0  0  0  0  0  0  0  0  0
    1.6340    2.0957    1.9429 O   0  0  0  0  0  0  0  0  0  0  0  0
   -0.8297   -2.3289    1.5362 O   0  0  0  0  0  0  0  0  0  0  0  0
   -0.4176   -2.9575   -0.6395 O   0  0  0  0  0  0  0  0  0  0  0  0
    3.6756    0.1352   -0.4443 N   0  0  0  0  0  0  0  0  0  0  0  0
    3.2854    1.2310    0.4325 C   0  0  0  0  0  0  0  0  0  0  0  0
    1.9552    0.9575    1.1382 C   0  0  0  0  0  0  0  0  0  0  0  0
    0.7996    0.7028    0.1730 C   0  0  0  0  0  0  0  0  0  0  0  0
   -2.0298    2.6491    0.2830 C   0  0  0  0  0  0  0  0  0  0  0  0
   -2.3625    1.2510   -0.1226 C   0  0  0  0  0  0  0  0  0  0  0  0
   -1.5222    0.1899    0.2144 C   0  0  0  0  0  0  0  0  0  0  0  0
    4.8887    0.4767   -1.1903 C   0  0  0  0  0  0  0  0  0  0  0  0
    3.8834   -1.0934    0.3251 C   0  0  0  0  0  0  0  0  0  0  0  0
   -1.8500   -1.1095   -0.1733 C   0  0  0  0  0  0  0  0  0  0  0  0
   -3.5301    1.0130   -0.8476 C   0  0  0  0  0  0  0  0  0  0  0  0
   -3.0176   -1.3475   -0.8984 C   0  0  0  0  0  0  0  0  0  0  0  0
   -1.8154    3.5765   -0.9272 C   0  0  0  0  0  0  0  0  0  0  0  0
   -3.0865    3.2539    1.2257 C   0  0  0  0  0  0  0  0  0  0  0  0
   -3.8577   -0.2863   -1.2355 C   0  0  0  0  0  0  0  0  0  0  0  0
    4.6969    1.7496   -1.9972 C   0  0  0  0  0  0  0  0  0  0  0  0
    4.2250   -2.2605   -0.5857 C   0  0  0  0  0  0  0  0  0  0  0  0
   -3.3945   -2.7280   -1.3280 C   0  0  0  0  0  0  0  0  0  0  0  0
   -0.9686   -2.2167    0.1814 C   0  0  0  0  0  0  0  0  0  0  0  0
    0.0157   -3.3824    2.0107 C   0  0  0  0  0  0  0  0  0  0  0  0
  1  8  1  0
  1 11  1  0
  2  7  1  0
  3 23  1  0
  3 24  1  0
  4 23  2  0
  5  6  1  0
  5 12  1  0
  5 13  1  0
  6  7  1  0
  7  8  1  0
  9 10  1  0
  9 17  1  0
  9 18  1  0
 10 11  2  0
 10 15  1  0
 11 14  1  0
 12 20  1  0
 13 21  1  0
 14 16  2  0
 14 23  1  0
 15 19  2  0
 16 19  1  0
 16 22  1  0
M  END
>  <PUBCHEM_COMPOUND_CID>  (1) 
40649

>  <PUBCHEM_CONFORMER_RMSD>  (1) 
1

>  <PUBCHEM_CONFORMER_DIVERSEORDER>  (1) 
1
48
56
21
45
17
24
33
8
32
20
2
47
59
54
50
39
14
11
51
19
37
49
57
52
53
31
42
55
16
40
35
30
13
41
12
38
44
5
34
6
23
15
43
36
29
7
46
18
27
22
4
28
58
26
3
9
10
25

>  <PUBCHEM_MMFF94_PARTIAL_CHARGES>  (1) 
23
1 -0.36
10 -0.14
11 0.08
12 0.27
13 0.27
14 0.09
15 -0.15
16 -0.14
19 -0.15
2 -0.68
22 0.14
23 0.63
24 0.28
3 -0.43
35 0.15
4 -0.57
42 0.15
49 0.4
5 -0.81
6 0.27
7 0.28
8 0.28
9 0.14

>  <PUBCHEM_EFFECTIVE_ROTOR_COUNT>  (1) 
10

>  <PUBCHEM_PHARMACOPHORE_FEATURES>  (1) 
7
1 1 acceptor
1 2 acceptor
1 2 donor
1 4 acceptor
1 5 cation
3 9 17 18 hydrophobe
6 10 11 14 15 16 19 rings

>  <PUBCHEM_HEAVY_ATOM_COUNT>  (1) 
24

>  <PUBCHEM_ATOM_DEF_STEREO_COUNT>  (1) 
0

>  <PUBCHEM_ATOM_UDEF_STEREO_COUNT>  (1) 
1

>  <PUBCHEM_BOND_DEF_STEREO_COUNT>  (1) 
0

>  <PUBCHEM_BOND_UDEF_STEREO_COUNT>  (1) 
0

>  <PUBCHEM_ISOTOPIC_ATOM_COUNT>  (1) 
0

>  <PUBCHEM_COMPONENT_COUNT>  (1) 
1

>  <PUBCHEM_CACTVS_TAUTO_COUNT>  (1) 
1

>  <PUBCHEM_CONFORMER_ID>  (1) 
00009EC900000001

>  <PUBCHEM_MMFF94_ENERGY>  (1) 
69.0277

>  <PUBCHEM_FEATURE_SELFOVERLAP>  (1) 
35.524

>  <PUBCHEM_SHAPE_FINGERPRINT>  (1) 
10366900 7 18268995469739133862
10693767 8 17700379694520111279
10764073 3 17547905864024748203
12363563 72 17275113833954963780
12553582 1 18120660390068473626
12788726 201 18263639718060822890
133893 2 17535449445206196491
13583140 156 16813493519255739657
14022347 108 18046048617803093065
14251740 79 18411986836424307416
14251751 93 18268140968335560493
14251757 17 17703213045299231696
14251757 5 18117004475298846532
14363568 33 17038124263879180234
14790565 3 17050211766429081113
14955137 171 17263011247501259395
15163728 17 16517625003240305583
15475509 35 13611957929697804301
16752209 62 18341038649391958994
18785283 64 17184760087116258817
20600515 1 17904172044013058969
20693207 138 17988640847953745256
21524375 3 18266178327464285793
22907989 373 18118420646138343446
23366157 5 17682108881782558763
23557571 272 18051121790182010512
23558518 356 18411135839898969656
23559900 14 18200016469414791352
350125 39 18053658080498124041
81228 2 18266450095809893009
9709674 26 18198051689322196706

>  <PUBCHEM_SHAPE_MULTIPOLES>  (1) 
465.45
8.74
4.39
1.67
9.8
0.41
-0.25
-1.61
4.55
-2.74
-0.76
0.46
0.08
-1.33

>  <PUBCHEM_SHAPE_SELFOVERLAP>  (1) 
936.571

>  <PUBCHEM_SHAPE_VOLUME>  (1) 
276.3

>  <PUBCHEM_COORDINATE_TYPE>  (1) 
2
5
10

$$$$
