40640
     RDKit          3D

 22 22  0  0  0  0  0  0  0  0999 V2000
   -0.1158    0.7871    0.8539 O   0  0  0  0  0  0  0  0  0  0  0  0
   -0.8487   -2.1921   -0.4873 O   0  0  0  0  0  0  0  0  0  0  0  0
   -0.1725   -2.4944    1.6923 O   0  0  0  0  0  0  0  0  0  0  0  0
   -3.3495    2.1342   -0.2924 N   0  0  0  0  0  0  0  0  0  0  0  0
    2.0214    2.5282    0.1742 C   0  0  0  0  0  0  0  0  0  0  0  0
    2.1038    1.0458    0.0138 C   0  0  0  0  0  0  0  0  0  0  0  0
    1.0330    0.2262    0.3602 C   0  0  0  0  0  0  0  0  0  0  0  0
    1.1243   -1.1544    0.2064 C   0  0  0  0  0  0  0  0  0  0  0  0
    2.2954   -1.7197   -0.2981 C   0  0  0  0  0  0  0  0  0  0  0  0
    3.2748    0.4804   -0.4909 C   0  0  0  0  0  0  0  0  0  0  0  0
    2.1494    3.2718   -1.1679 C   0  0  0  0  0  0  0  0  0  0  0  0
    3.0602    3.0690    1.1740 C   0  0  0  0  0  0  0  0  0  0  0  0
    3.3706   -0.9023   -0.6467 C   0  0  0  0  0  0  0  0  0  0  0  0
   -1.1103    1.1507   -0.0945 C   0  0  0  0  0  0  0  0  0  0  0  0
   -2.3049    1.7288    0.6474 C   0  0  0  0  0  0  0  0  0  0  0  0
   -0.0035   -2.0056    0.5702 C   0  0  0  0  0  0  0  0  0  0  0  0
    2.4280   -3.1973   -0.4769 C   0  0  0  0  0  0  0  0  0  0  0  0
   -1.9990   -3.0119   -0.2541 C   0  0  0  0  0  0  0  0  0  0  0  0
   -2.8305    3.1208   -1.2390 C   0  0  0  0  0  0  0  0  0  0  0  0
   -4.5030    2.6734    0.4269 C   0  0  0  0  0  0  0  0  0  0  0  0
   -2.8248   -2.4074    0.8712 C   0  0  0  0  0  0  0  0  0  0  0  0
   -2.7984   -3.1314   -1.5427 C   0  0  0  0  0  0  0  0  0  0  0  0
  1  7  1  0
  1 14  1  0
  2 16  1  0
  2 18  1  0
  3 16  2  0
  4 15  1  0
  4 19  1  0
  4 20  1  0
  5  6  1  0
  5 11  1  0
  5 12  1  0
  6  7  2  0
  6 10  1  0
  7  8  1  0
  8  9  2  0
  8 16  1  0
  9 13  1  0
  9 17  1  0
 10 13  2  0
 14 15  1  0
 18 21  1  0
 18 22  1  0
M  END
>  <PUBCHEM_COMPOUND_CID>  (1) 
40640

>  <PUBCHEM_CONFORMER_RMSD>  (1) 
0.8

>  <PUBCHEM_CONFORMER_DIVERSEORDER>  (1) 
2
45
41
16
40
23
21
22
31
30
7
19
44
52
37
14
50
34
42
27
33
18
12
47
25
17
38
20
11
28
35
10
48
39
49
24
9
3
36
29
32
26
4
5
43
1
6
15
13
51
46
8

>  <PUBCHEM_MMFF94_PARTIAL_CHARGES>  (1) 
20
1 -0.36
10 -0.15
13 -0.15
14 0.28
15 0.27
16 0.63
17 0.14
18 0.28
19 0.27
2 -0.43
20 0.27
24 0.15
3 -0.57
31 0.15
4 -0.81
5 0.14
6 -0.14
7 0.08
8 0.09
9 -0.14

>  <PUBCHEM_EFFECTIVE_ROTOR_COUNT>  (1) 
8

>  <PUBCHEM_PHARMACOPHORE_FEATURES>  (1) 
6
1 1 acceptor
1 3 acceptor
1 4 cation
3 18 21 22 hydrophobe
3 5 11 12 hydrophobe
6 6 7 8 9 10 13 rings

>  <PUBCHEM_HEAVY_ATOM_COUNT>  (1) 
22

>  <PUBCHEM_ATOM_DEF_STEREO_COUNT>  (1) 
0

>  <PUBCHEM_ATOM_UDEF_STEREO_COUNT>  (1) 
0

>  <PUBCHEM_BOND_DEF_STEREO_COUNT>  (1) 
0

>  <PUBCHEM_BOND_UDEF_STEREO_COUNT>  (1) 
0

>  <PUBCHEM_ISOTOPIC_ATOM_COUNT>  (1) 
0

>  <PUBCHEM_COMPONENT_COUNT>  (1) 
1

>  <PUBCHEM_CACTVS_TAUTO_COUNT>  (1) 
1

>  <PUBCHEM_CONFORMER_ID>  (1) 
00009EC000000002

>  <PUBCHEM_MMFF94_ENERGY>  (1) 
71.3748

>  <PUBCHEM_FEATURE_SELFOVERLAP>  (1) 
30.446

>  <PUBCHEM_SHAPE_FINGERPRINT>  (1) 
10930396 42 16686777505526196096
10967382 1 18122350081821455130
1100329 8 18265893553921277322
11578080 2 17274243054462211995
12553582 1 17257654413617868057
12788726 201 17832421273622066776
13140716 1 18411131463907810184
13149001 5 18269852942605799012
13836976 161 18049725122835853853
14178342 30 18338501028443098424
14537116 161 17480245363827269871
15210252 30 17827903346436984325
16945 1 18339365287579981130
19591789 44 17977387135730889605
20645477 70 17832142719702859813
20739085 24 17688345646342073867
21197605 99 18338532902197171283
22289505 5 17467065250829535197
23558518 356 18262797496432907440
238 59 17683775763017044421
266924 87 18124031492751052260
2748010 2 18122081814022310034
3060560 45 18121497947298556365
350125 39 18195257826260943680
589210 1 18410576231598747020
7832392 63 18339361868643322486
81228 2 18047193235030127641
8272917 22 17620197529801766321
90316 7 16899880485703505584

>  <PUBCHEM_SHAPE_MULTIPOLES>  (1) 
430.16
6.43
5.61
1.19
2.66
0.36
0.03
3.32
0.67
2.66
0.81
0.29
-0.04
0.27

>  <PUBCHEM_SHAPE_SELFOVERLAP>  (1) 
868.369

>  <PUBCHEM_SHAPE_VOLUME>  (1) 
255.8

>  <PUBCHEM_COORDINATE_TYPE>  (1) 
2
5
10

$$$$
