40646
     RDKit          3D

 23 23  0  0  1  0  0  0  0  0999 V2000
    0.4476    0.6272   -1.1121 O   0  0  0  0  0  0  0  0  0  0  0  0
   -1.7910    1.4515   -2.5840 O   0  0  0  0  0  0  0  0  0  0  0  0
   -0.2221   -2.4171    0.1190 O   0  0  0  0  0  0  0  0  0  0  0  0
    1.0457   -2.6359   -1.7897 O   0  0  0  0  0  0  0  0  0  0  0  0
   -3.5408   -0.0951    0.2894 N   0  0  0  0  0  0  0  0  0  0  0  0
    2.0780    2.6509    0.0318 C   0  0  0  0  0  0  0  0  0  0  0  0
    2.3069    1.1952    0.2730 C   0  0  0  0  0  0  0  0  0  0  0  0
   -1.9257    0.5634   -1.4708 C   0  0  0  0  0  0  0  0  0  0  0  0
    1.4832    0.2339   -0.3074 C   0  0  0  0  0  0  0  0  0  0  0  0
   -3.3255    0.7468   -0.8796 C   0  0  0  0  0  0  0  0  0  0  0  0
   -0.8055    0.8577   -0.4757 C   0  0  0  0  0  0  0  0  0  0  0  0
   -4.8579    0.1400    0.8650 C   0  0  0  0  0  0  0  0  0  0  0  0
    1.7095   -1.1201   -0.0733 C   0  0  0  0  0  0  0  0  0  0  0  0
    3.3637    0.7996    1.0932 C   0  0  0  0  0  0  0  0  0  0  0  0
    2.7661   -1.5155    0.7470 C   0  0  0  0  0  0  0  0  0  0  0  0
    1.7438    3.4151    1.3261 C   0  0  0  0  0  0  0  0  0  0  0  0
    3.2667    3.3218   -0.6807 C   0  0  0  0  0  0  0  0  0  0  0  0
    3.5932   -0.5557    1.3303 C   0  0  0  0  0  0  0  0  0  0  0  0
   -4.9994    1.6009    1.2832 C   0  0  0  0  0  0  0  0  0  0  0  0
   -5.0664   -0.7927    2.0539 C   0  0  0  0  0  0  0  0  0  0  0  0
    3.0365   -2.9595    1.0197 C   0  0  0  0  0  0  0  0  0  0  0  0
    0.8421   -2.1211   -0.6852 C   0  0  0  0  0  0  0  0  0  0  0  0
   -1.1486   -3.3912   -0.3731 C   0  0  0  0  0  0  0  0  0  0  0  0
  1  9  1  0
  1 11  1  0
  2  8  1  0
  3 22  1  0
  3 23  1  0
  4 22  2  0
  5 10  1  0
  5 12  1  0
  6  7  1  0
  6 16  1  0
  6 17  1  0
  7  9  2  0
  7 14  1  0
  8 10  1  0
  8 11  1  0
  9 13  1  0
 12 19  1  0
 12 20  1  0
 13 15  2  0
 13 22  1  0
 14 18  2  0
 15 18  1  0
 15 21  1  0
M  END
>  <PUBCHEM_COMPOUND_CID>  (1) 
40646

>  <PUBCHEM_CONFORMER_RMSD>  (1) 
0.8

>  <PUBCHEM_CONFORMER_DIVERSEORDER>  (1) 
1
43
71
6
80
5
65
99
94
69
59
13
31
77
100
87
45
85
38
58
12
32
96
90
102
95
11
19
101
10
78
61
73
2
91
83
52
51
27
97
34
21
36
98
41
50
20
55
82
42
74
88
56
72
39
86
57
23
33
29
44
40
46
66
75
63
103
8
7
60
47
81
37
54
24
16
35
68
17
22
76
89
48
25
70
15
49
4
3
79
28
26
64
92
84
14
67
9
62
18
93
30
53

>  <PUBCHEM_MMFF94_PARTIAL_CHARGES>  (1) 
23
1 -0.36
10 0.27
11 0.28
12 0.27
13 0.09
14 -0.15
15 -0.14
18 -0.15
2 -0.68
21 0.14
22 0.63
23 0.28
3 -0.43
31 0.36
32 0.15
39 0.15
4 -0.57
49 0.4
5 -0.9
6 0.14
7 -0.14
8 0.28
9 0.08

>  <PUBCHEM_EFFECTIVE_ROTOR_COUNT>  (1) 
9

>  <PUBCHEM_PHARMACOPHORE_FEATURES>  (1) 
9
1 1 acceptor
1 2 acceptor
1 2 donor
1 4 acceptor
1 5 cation
1 5 donor
3 12 19 20 hydrophobe
3 6 16 17 hydrophobe
6 7 9 13 14 15 18 rings

>  <PUBCHEM_HEAVY_ATOM_COUNT>  (1) 
23

>  <PUBCHEM_ATOM_DEF_STEREO_COUNT>  (1) 
0

>  <PUBCHEM_ATOM_UDEF_STEREO_COUNT>  (1) 
1

>  <PUBCHEM_BOND_DEF_STEREO_COUNT>  (1) 
0

>  <PUBCHEM_BOND_UDEF_STEREO_COUNT>  (1) 
0

>  <PUBCHEM_ISOTOPIC_ATOM_COUNT>  (1) 
0

>  <PUBCHEM_COMPONENT_COUNT>  (1) 
1

>  <PUBCHEM_CACTVS_TAUTO_COUNT>  (1) 
1

>  <PUBCHEM_CONFORMER_ID>  (1) 
00009EC600000001

>  <PUBCHEM_MMFF94_ENERGY>  (1) 
62.3536

>  <PUBCHEM_FEATURE_SELFOVERLAP>  (1) 
45.674

>  <PUBCHEM_SHAPE_FINGERPRINT>  (1) 
10076449 9 18266466413045251962
1100329 8 18339354271267935392
12035758 1 18270955740274680498
12363563 72 16732995227959992481
12390115 104 17834390499448722824
12633257 1 18409725166733688675
13140716 1 18122320631610878608
13583140 156 17241864563064154835
14341114 328 17917160493688993929
14955137 171 18341054021623385866
16945 1 18190718943545399190
20739085 24 18270121180598811296
21756936 100 17772189966702355200
2334 1 17686874513365044412
23558518 356 17331115504289765724
2748010 2 17834358300194280260
31174 14 18333448720556842633
350125 39 17903054962011392560
458136 41 18263083365414759292
469060 322 17246940136677151949
474 4 18202841067493986425
49207404 50 18336274513228283891
5252454 2 18193273224562611956
5282274 181 18409450327450002991
59755656 520 18124883610274254932
81228 2 17039493160557001500

>  <PUBCHEM_SHAPE_MULTIPOLES>  (1) 
444.87
8.65
4.12
1.77
12.54
0.44
-0.33
-2.33
5.28
-3.76
-0.04
1.2
-0.21
-0.1

>  <PUBCHEM_SHAPE_SELFOVERLAP>  (1) 
896.222

>  <PUBCHEM_SHAPE_VOLUME>  (1) 
263.7

>  <PUBCHEM_COORDINATE_TYPE>  (1) 
2
5
10

$$$$
