40641
     RDKit          3D

 23 23  0  0  0  0  0  0  0  0999 V2000
    0.6649    0.9669   -0.9239 O   0  0  0  0  0  0  0  0  0  0  0  0
   -1.3356   -1.5099    0.0941 O   0  0  0  0  0  0  0  0  0  0  0  0
   -0.5827   -1.9596   -2.0343 O   0  0  0  0  0  0  0  0  0  0  0  0
   -2.3355    2.8712    0.0418 N   0  0  0  0  0  0  0  0  0  0  0  0
    3.2277    1.6541    0.0868 C   0  0  0  0  0  0  0  0  0  0  0  0
    2.6899    0.2616    0.1248 C   0  0  0  0  0  0  0  0  0  0  0  0
    1.4242   -0.0300   -0.3837 C   0  0  0  0  0  0  0  0  0  0  0  0
    0.9624   -1.3318   -0.3303 C   0  0  0  0  0  0  0  0  0  0  0  0
    1.7193   -2.3525    0.2132 C   0  0  0  0  0  0  0  0  0  0  0  0
    3.4703   -0.7539    0.6775 C   0  0  0  0  0  0  0  0  0  0  0  0
    4.5027    1.7678   -0.7689 C   0  0  0  0  0  0  0  0  0  0  0  0
    3.4892    2.2211    1.4943 C   0  0  0  0  0  0  0  0  0  0  0  0
    2.9850   -2.0609    0.7218 C   0  0  0  0  0  0  0  0  0  0  0  0
   -3.6197   -1.5943    0.8840 C   0  0  0  0  0  0  0  0  0  0  0  0
   -0.2059    1.6670   -0.0392 C   0  0  0  0  0  0  0  0  0  0  0  0
   -2.6731   -1.7796   -0.3051 C   0  0  0  0  0  0  0  0  0  0  0  0
   -0.3855   -1.6379   -0.8728 C   0  0  0  0  0  0  0  0  0  0  0  0
   -1.4077    2.1630   -0.8274 C   0  0  0  0  0  0  0  0  0  0  0  0
    1.2263   -3.7617    0.2748 C   0  0  0  0  0  0  0  0  0  0  0  0
   -3.5756   -0.1594    1.4133 C   0  0  0  0  0  0  0  0  0  0  0  0
   -5.0467   -1.9721    0.4929 C   0  0  0  0  0  0  0  0  0  0  0  0
   -3.5137    3.3130   -0.7084 C   0  0  0  0  0  0  0  0  0  0  0  0
   -1.6802    4.0183    0.6747 C   0  0  0  0  0  0  0  0  0  0  0  0
  1  7  1  0
  1 15  1  0
  2 16  1  0
  2 17  1  0
  3 17  2  0
  4 18  1  0
  4 22  1  0
  4 23  1  0
  5  6  1  0
  5 11  1  0
  5 12  1  0
  6  7  2  0
  6 10  1  0
  7  8  1  0
  8  9  2  0
  8 17  1  0
  9 13  1  0
  9 19  1  0
 10 13  2  0
 14 16  1  0
 14 20  1  0
 14 21  1  0
 15 18  1  0
M  END
>  <PUBCHEM_COMPOUND_CID>  (1) 
40641

>  <PUBCHEM_CONFORMER_RMSD>  (1) 
1

>  <PUBCHEM_CONFORMER_DIVERSEORDER>  (1) 
2
25
13
14
18
4
10
8
6
19
24
3
17
15
22
12
21
16
20
9
11
5
7
1
23

>  <PUBCHEM_MMFF94_PARTIAL_CHARGES>  (1) 
20
1 -0.36
10 -0.15
13 -0.15
15 0.28
16 0.28
17 0.63
18 0.27
19 0.14
2 -0.43
22 0.27
23 0.27
25 0.15
3 -0.57
32 0.15
4 -0.81
5 0.14
6 -0.14
7 0.08
8 0.09
9 -0.14

>  <PUBCHEM_EFFECTIVE_ROTOR_COUNT>  (1) 
9

>  <PUBCHEM_PHARMACOPHORE_FEATURES>  (1) 
6
1 1 acceptor
1 3 acceptor
1 4 cation
3 14 20 21 hydrophobe
3 5 11 12 hydrophobe
6 6 7 8 9 10 13 rings

>  <PUBCHEM_HEAVY_ATOM_COUNT>  (1) 
23

>  <PUBCHEM_ATOM_DEF_STEREO_COUNT>  (1) 
0

>  <PUBCHEM_ATOM_UDEF_STEREO_COUNT>  (1) 
0

>  <PUBCHEM_BOND_DEF_STEREO_COUNT>  (1) 
0

>  <PUBCHEM_BOND_UDEF_STEREO_COUNT>  (1) 
0

>  <PUBCHEM_ISOTOPIC_ATOM_COUNT>  (1) 
0

>  <PUBCHEM_COMPONENT_COUNT>  (1) 
1

>  <PUBCHEM_CACTVS_TAUTO_COUNT>  (1) 
1

>  <PUBCHEM_CONFORMER_ID>  (1) 
00009EC100000002

>  <PUBCHEM_MMFF94_ENERGY>  (1) 
68.3904

>  <PUBCHEM_FEATURE_SELFOVERLAP>  (1) 
30.446

>  <PUBCHEM_SHAPE_FINGERPRINT>  (1) 
10006869 2 18341323453105642685
10382601 240 18196680495137916531
10670039 82 18336562602465550508
10688039 33 18040719208182587661
1100329 8 17904198127312303410
11578080 2 17343180170344826059
11680986 33 18052813646582405558
12422481 6 17758433724036304393
12553582 1 18194394717658207981
12633257 1 17757267081061511904
12788726 201 18262519311575569752
12954195 1 18269573714345663140
13140716 1 18264755589852005920
13965767 371 17912682092434464739
14081887 123 18411416211354292233
14178342 30 18335126558664694536
14223421 5 18410296869640522443
14251764 38 18195244408819995173
14790565 3 17975425916199105412
14955137 171 17903933484043309314
15420108 30 17988087798237239663
17980427 26 14836405804991169926
19591789 44 18410580574285437062
20739085 24 18261114105856144590
21197605 99 18340768131889969021
23558518 356 18187367584247426544
23559900 14 18194674865759075624
350125 39 18409730669093170816
352729 6 18198337355939328301
469060 322 18262528120601207161
59554788 248 17917427579839798775
7097593 13 17755015302654663082
9709674 26 18195525879300810989

>  <PUBCHEM_SHAPE_MULTIPOLES>  (1) 
450.74
7.92
4.95
1.21
2.56
2.24
0.06
0.91
-2.04
2.26
-0.2
0.11
0.03
0.47

>  <PUBCHEM_SHAPE_SELFOVERLAP>  (1) 
906.216

>  <PUBCHEM_SHAPE_VOLUME>  (1) 
268.8

>  <PUBCHEM_COORDINATE_TYPE>  (1) 
2
5
10

$$$$
