40653
     RDKit          3D

 25 25  0  0  0  0  0  0  0  0999 V2000
    1.0889    0.2346   -0.7386 O   0  0  0  0  0  0  0  0  0  0  0  0
   -2.3956    0.2089    0.0468 O   0  0  0  0  0  0  0  0  0  0  0  0
    2.0968   -2.3824   -1.3057 O   0  0  0  0  0  0  0  0  0  0  0  0
    2.0201   -2.9795    0.9161 O   0  0  0  0  0  0  0  0  0  0  0  0
   -1.2902    0.1174   -1.9777 O   0  0  0  0  0  0  0  0  0  0  0  0
   -7.1845    0.1525    0.7707 N   0  0  0  0  0  0  0  0  0  0  0  0
    2.2560    2.7927   -0.3134 C   0  0  0  0  0  0  0  0  0  0  0  0
    2.9253    1.5235    0.0998 C   0  0  0  0  0  0  0  0  0  0  0  0
    2.3182    0.2884   -0.1271 C   0  0  0  0  0  0  0  0  0  0  0  0
    2.9592   -0.8866    0.2658 C   0  0  0  0  0  0  0  0  0  0  0  0
    4.1735    1.5835    0.7197 C   0  0  0  0  0  0  0  0  0  0  0  0
    1.9424    3.7080    0.8842 C   0  0  0  0  0  0  0  0  0  0  0  0
    3.0678    3.5684   -1.3672 C   0  0  0  0  0  0  0  0  0  0  0  0
    4.2072   -0.8265    0.8859 C   0  0  0  0  0  0  0  0  0  0  0  0
    4.8144    0.4087    1.1129 C   0  0  0  0  0  0  0  0  0  0  0  0
   -4.7621    0.1634    0.4137 C   0  0  0  0  0  0  0  0  0  0  0  0
   -6.1375    0.0998   -0.2425 C   0  0  0  0  0  0  0  0  0  0  0  0
   -3.6467    0.1324   -0.6224 C   0  0  0  0  0  0  0  0  0  0  0  0
    4.9177   -2.0677    1.3183 C   0  0  0  0  0  0  0  0  0  0  0  0
   -0.0492    0.2785    0.0987 C   0  0  0  0  0  0  0  0  0  0  0  0
    2.3207   -2.1765    0.0265 C   0  0  0  0  0  0  0  0  0  0  0  0
   -1.2859    0.1918   -0.7564 C   0  0  0  0  0  0  0  0  0  0  0  0
   -8.4342    0.6533    0.1956 C   0  0  0  0  0  0  0  0  0  0  0  0
   -7.3934   -1.1690    1.3654 C   0  0  0  0  0  0  0  0  0  0  0  0
    1.4714   -3.6178   -1.6691 C   0  0  0  0  0  0  0  0  0  0  0  0
  1  9  1  0
  1 20  1  0
  2 18  1  0
  2 22  1  0
  3 21  1  0
  3 25  1  0
  4 21  2  0
  5 22  2  0
  6 17  1  0
  6 23  1  0
  6 24  1  0
  7  8  1  0
  7 12  1  0
  7 13  1  0
  8  9  2  0
  8 11  1  0
  9 10  1  0
 10 14  2  0
 10 21  1  0
 11 15  2  0
 14 15  1  0
 14 19  1  0
 16 17  1  0
 16 18  1  0
 20 22  1  0
M  END
>  <PUBCHEM_COMPOUND_CID>  (1) 
40653

>  <PUBCHEM_CONFORMER_RMSD>  (1) 
1.2

>  <PUBCHEM_CONFORMER_DIVERSEORDER>  (1) 
1
36
10
20
12
15
42
18
19
29
14
32
9
7
31
39
23
24
28
3
6
13
8
37
27
16
22
30
4
34
11
40
35
17
2
33
25
21
41
26
38
5

>  <PUBCHEM_MMFF94_PARTIAL_CHARGES>  (1) 
24
1 -0.36
10 0.09
11 -0.15
14 -0.14
15 -0.15
17 0.27
18 0.28
19 0.14
2 -0.43
20 0.34
21 0.63
22 0.66
23 0.27
24 0.27
25 0.28
27 0.15
3 -0.43
34 0.15
4 -0.57
5 -0.57
6 -0.81
7 0.14
8 -0.14
9 0.08

>  <PUBCHEM_EFFECTIVE_ROTOR_COUNT>  (1) 
11

>  <PUBCHEM_PHARMACOPHORE_FEATURES>  (1) 
6
1 1 acceptor
1 4 acceptor
1 5 acceptor
1 6 cation
3 7 12 13 hydrophobe
6 8 9 10 11 14 15 rings

>  <PUBCHEM_HEAVY_ATOM_COUNT>  (1) 
25

>  <PUBCHEM_ATOM_DEF_STEREO_COUNT>  (1) 
0

>  <PUBCHEM_ATOM_UDEF_STEREO_COUNT>  (1) 
0

>  <PUBCHEM_BOND_DEF_STEREO_COUNT>  (1) 
0

>  <PUBCHEM_BOND_UDEF_STEREO_COUNT>  (1) 
0

>  <PUBCHEM_ISOTOPIC_ATOM_COUNT>  (1) 
0

>  <PUBCHEM_COMPONENT_COUNT>  (1) 
1

>  <PUBCHEM_CACTVS_TAUTO_COUNT>  (1) 
1

>  <PUBCHEM_CONFORMER_ID>  (1) 
00009ECD00000001

>  <PUBCHEM_MMFF94_ENERGY>  (1) 
69.7854

>  <PUBCHEM_FEATURE_SELFOVERLAP>  (1) 
30.454

>  <PUBCHEM_SHAPE_FINGERPRINT>  (1) 
10162869 55 18270667771507092541
10165383 225 17969229004994662572
10411042 1 18119806916412830538
10688039 33 18113894927388077588
11724838 91 18201150044512126639
12616971 3 18201712981892012653
13533116 47 18334858333640928121
13785724 45 17769388127791368879
15250474 111 18058719330200185999
15348495 7 18187087304205352913
15475509 35 16516226480326450160
17844677 252 18334580101754967789
19377110 9 17846786196197711563
1979834 28 18272645723599517834
20157964 124 18342178865152734113
20739085 24 18339360769659241264
21049683 271 18041002822016303276
21197605 99 18192717958722609643
21267235 1 18338796715814588594
21344244 78 18201145564455393528
21623969 137 18410294701362909819
21859007 373 17750221523275109781
239999 70 18408609145204537107
3178227 256 18335134302606364578
3472631 163 15697706120974111008
394071 54 18342462513309342491
4340502 62 18413108368523879595
465052 167 18260824861457798794
8272917 22 18413673521383703589
8988823 20 18407760326902149807

>  <PUBCHEM_SHAPE_MULTIPOLES>  (1) 
480.16
17.03
3.82
1.38
52.73
0.48
0.32
-0.01
-7.35
-6.92
0.89
-0.43
-0.43
-0.11

>  <PUBCHEM_SHAPE_SELFOVERLAP>  (1) 
968.544

>  <PUBCHEM_SHAPE_VOLUME>  (1) 
283.5

>  <PUBCHEM_COORDINATE_TYPE>  (1) 
2
5
10

$$$$
