40650
     RDKit          3D

 25 26  0  0  1  0  0  0  0  0999 V2000
   -5.5896    0.3580    0.5309 O   0  0  0  0  0  0  0  0  0  0  0  0
    0.4630   -0.5893   -0.3744 O   0  0  0  0  0  0  0  0  0  0  0  0
   -0.3466   -3.2493   -0.3845 O   0  0  0  0  0  0  0  0  0  0  0  0
    3.5975   -1.6035   -0.9792 O   0  0  0  0  0  0  0  0  0  0  0  0
    3.1291   -1.8929    1.2559 O   0  0  0  0  0  0  0  0  0  0  0  0
   -3.0583   -0.7291   -0.1843 N   0  0  0  0  0  0  0  0  0  0  0  0
   -2.2104   -1.7811   -0.7414 C   0  0  0  0  0  0  0  0  0  0  0  0
   -3.9894   -0.2174   -1.1994 C   0  0  0  0  0  0  0  0  0  0  0  0
   -3.8052   -1.2231    0.9808 C   0  0  0  0  0  0  0  0  0  0  0  0
   -1.1494   -2.2533    0.2556 C   0  0  0  0  0  0  0  0  0  0  0  0
   -4.8708    0.8702   -0.5917 C   0  0  0  0  0  0  0  0  0  0  0  0
   -4.6918   -0.1125    1.5368 C   0  0  0  0  0  0  0  0  0  0  0  0
   -0.2352   -1.1311    0.7424 C   0  0  0  0  0  0  0  0  0  0  0  0
    0.8555    1.7565   -0.1707 C   0  0  0  0  0  0  0  0  0  0  0  0
   -0.5709    2.0522   -0.4992 C   0  0  0  0  0  0  0  0  0  0  0  0
    1.3226    0.4456   -0.1196 C   0  0  0  0  0  0  0  0  0  0  0  0
    2.6557    0.1857    0.1880 C   0  0  0  0  0  0  0  0  0  0  0  0
    1.7272    2.8143    0.0876 C   0  0  0  0  0  0  0  0  0  0  0  0
    3.5274    1.2436    0.4465 C   0  0  0  0  0  0  0  0  0  0  0  0
   -1.3049    2.7591    0.6550 C   0  0  0  0  0  0  0  0  0  0  0  0
   -0.7170    2.8729   -1.7937 C   0  0  0  0  0  0  0  0  0  0  0  0
    3.0631    2.5579    0.3964 C   0  0  0  0  0  0  0  0  0  0  0  0
    4.9633    1.0000    0.7801 C   0  0  0  0  0  0  0  0  0  0  0  0
    3.1375   -1.1906    0.2395 C   0  0  0  0  0  0  0  0  0  0  0  0
    4.0976   -2.9426   -1.0576 C   0  0  0  0  0  0  0  0  0  0  0  0
  1 11  1  0
  1 12  1  0
  2 13  1  0
  2 16  1  0
  3 10  1  0
  4 24  1  0
  4 25  1  0
  5 24  2  0
  6  7  1  0
  6  8  1  0
  6  9  1  0
  7 10  1  0
  8 11  1  0
  9 12  1  0
 10 13  1  0
 14 15  1  0
 14 16  2  0
 14 18  1  0
 15 20  1  0
 15 21  1  0
 16 17  1  0
 17 19  2  0
 17 24  1  0
 18 22  2  0
 19 22  1  0
 19 23  1  0
M  END
>  <PUBCHEM_COMPOUND_CID>  (1) 
40650

>  <PUBCHEM_CONFORMER_RMSD>  (1) 
1

>  <PUBCHEM_CONFORMER_DIVERSEORDER>  (1) 
1
46
17
19
38
12
28
41
48
32
42
40
39
8
37
24
14
2
45
47
51
6
21
4
11
3
43
30
50
29
9
10
16
49
27
33
35
23
44
25
7
31
5
26
20
15
36
18
34
22
13

>  <PUBCHEM_MMFF94_PARTIAL_CHARGES>  (1) 
26
1 -0.56
10 0.28
11 0.28
12 0.28
13 0.28
14 -0.14
15 0.14
16 0.08
17 0.09
18 -0.15
19 -0.14
2 -0.36
22 -0.15
23 0.14
24 0.63
25 0.28
3 -0.68
4 -0.43
40 0.15
41 0.4
48 0.15
5 -0.57
6 -0.81
7 0.27
8 0.27
9 0.27

>  <PUBCHEM_EFFECTIVE_ROTOR_COUNT>  (1) 
9.2

>  <PUBCHEM_PHARMACOPHORE_FEATURES>  (1) 
9
1 1 acceptor
1 2 acceptor
1 3 acceptor
1 3 donor
1 5 acceptor
1 6 cation
3 15 20 21 hydrophobe
6 1 6 8 9 11 12 rings
6 14 16 17 18 19 22 rings

>  <PUBCHEM_HEAVY_ATOM_COUNT>  (1) 
25

>  <PUBCHEM_ATOM_DEF_STEREO_COUNT>  (1) 
0

>  <PUBCHEM_ATOM_UDEF_STEREO_COUNT>  (1) 
1

>  <PUBCHEM_BOND_DEF_STEREO_COUNT>  (1) 
0

>  <PUBCHEM_BOND_UDEF_STEREO_COUNT>  (1) 
0

>  <PUBCHEM_ISOTOPIC_ATOM_COUNT>  (1) 
0

>  <PUBCHEM_COMPONENT_COUNT>  (1) 
1

>  <PUBCHEM_CACTVS_TAUTO_COUNT>  (1) 
1

>  <PUBCHEM_CONFORMER_ID>  (1) 
00009ECA00000001

>  <PUBCHEM_MMFF94_ENERGY>  (1) 
73.5449

>  <PUBCHEM_FEATURE_SELFOVERLAP>  (1) 
45.675

>  <PUBCHEM_SHAPE_FINGERPRINT>  (1) 
10906281 52 18189905382382443392
11513181 2 18131354124032855735
11578080 2 13696454229824362716
116883 192 18341613677183767582
12422481 6 18195829387803148825
12553582 1 18337386140858548924
12633257 1 18190723405815959802
12788726 201 18060149720985439721
13140716 1 18049154768395971456
13402501 40 18187636965408927005
14022347 108 17967819340338963442
14178342 30 17834105729735477082
15081414 286 18411143549586967720
15420108 30 17912629496349184498
1601671 61 18338800134387159524
17357779 13 18336826398860628061
17492 89 18270682103144027071
19591789 44 18194967331451549582
20028762 73 18130499735190319663
20739085 24 18263664921277289449
21279426 13 18264765455233830901
21421861 104 18041263410360987554
22182313 1 18336251350380219692
23184049 59 18410296930033854179
23559900 14 18272651277266401826
23566358 2 18337659824886073140
2748010 2 18266165150821204164
335352 9 18410569630687771948
34934 24 18339355383363790922
350125 39 18409728448611149864
5104073 3 18120364608677214824
59755656 215 18342178873874687156
7832392 63 18266738180456149259
81228 2 18261116270556552600

>  <PUBCHEM_SHAPE_MULTIPOLES>  (1) 
480.16
9.87
3.8
1.22
5.77
0.04
-0.11
1.41
1.59
-2.4
-0.79
0.55
-0.06
1.04

>  <PUBCHEM_SHAPE_SELFOVERLAP>  (1) 
986.303

>  <PUBCHEM_SHAPE_VOLUME>  (1) 
278

>  <PUBCHEM_COORDINATE_TYPE>  (1) 
2
5
10

$$$$
