40662
     RDKit          3D

 13 12  0  0  0  0  0  0  0  0999 V2000
    3.0876    1.1775    0.0721 O   0  0  0  0  0  0  0  0  0  0  0  0
   -1.4394    0.0599    0.0086 N   0  0  0  0  0  0  0  0  0  0  0  0
    2.1853   -0.9112   -0.4247 N   0  0  0  0  0  0  0  0  0  0  0  0
   -0.0697   -0.4539    0.4281 C   0  0  0  0  0  0  0  0  0  0  0  0
   -2.0207   -0.8573   -1.0578 C   0  0  0  0  0  0  0  0  0  0  0  0
   -2.3643    0.0829    1.2170 C   0  0  0  0  0  0  0  0  0  0  0  0
   -1.3032    1.4679   -0.5528 C   0  0  0  0  0  0  0  0  0  0  0  0
    0.8587   -0.4799   -0.7719 C   0  0  0  0  0  0  0  0  0  0  0  0
   -3.3820   -0.3416   -1.4705 C   0  0  0  0  0  0  0  0  0  0  0  0
   -2.4959   -1.3192    1.7705 C   0  0  0  0  0  0  0  0  0  0  0  0
   -0.7251    2.3748    0.5114 C   0  0  0  0  0  0  0  0  0  0  0  0
    3.1934   -0.0419   -0.0299 C   0  0  0  0  0  0  0  0  0  0  0  0
    4.4755   -0.7582    0.2998 C   0  0  0  0  0  0  0  0  0  0  0  0
  1 12  2  0
  2  4  1  0
  2  5  1  0
  2  6  1  0
  2  7  1  0
  3  8  1  0
  3 12  1  0
  4  8  1  0
  5  9  1  0
  6 10  1  0
  7 11  1  0
 12 13  1  0
M  CHG  1   2   1
M  END
>  <PUBCHEM_COMPOUND_CID>  (1) 
40662

>  <PUBCHEM_CONFORMER_RMSD>  (1) 
0.8

>  <PUBCHEM_CONFORMER_DIVERSEORDER>  (1) 
13
19
17
4
21
9
5
20
6
8
11
7
18
15
16
14
10
12
3
1
2

>  <PUBCHEM_MMFF94_PARTIAL_CHARGES>  (1) 
11
1 -0.57
12 0.57
13 0.06
2 -1.01
3 -0.73
33 0.37
4 0.5
5 0.5
6 0.5
7 0.5
8 0.3

>  <PUBCHEM_EFFECTIVE_ROTOR_COUNT>  (1) 
7

>  <PUBCHEM_PHARMACOPHORE_FEATURES>  (1) 
3
1 1 acceptor
1 2 cation
1 3 donor

>  <PUBCHEM_HEAVY_ATOM_COUNT>  (1) 
13

>  <PUBCHEM_ATOM_DEF_STEREO_COUNT>  (1) 
0

>  <PUBCHEM_ATOM_UDEF_STEREO_COUNT>  (1) 
0

>  <PUBCHEM_BOND_DEF_STEREO_COUNT>  (1) 
0

>  <PUBCHEM_BOND_UDEF_STEREO_COUNT>  (1) 
0

>  <PUBCHEM_ISOTOPIC_ATOM_COUNT>  (1) 
0

>  <PUBCHEM_COMPONENT_COUNT>  (1) 
1

>  <PUBCHEM_CACTVS_TAUTO_COUNT>  (1) 
2

>  <PUBCHEM_CONFORMER_ID>  (1) 
00009ED60000000D

>  <PUBCHEM_MMFF94_ENERGY>  (1) 
41.8686

>  <PUBCHEM_FEATURE_SELFOVERLAP>  (1) 
15.223

>  <PUBCHEM_SHAPE_FINGERPRINT>  (1) 
11132069 177 17560804320649619990
12162725 195 18410852140688271284
12500047 106 16732973215698784002
12916754 54 17917706907617548310
12932764 1 18059584529433083782
13024252 1 17967817111472391757
13214271 11 18340498815184581233
13296908 3 17313106384278603510
17802600 8 18130493194081299080
187816 3 17968365780728242863
200 152 18340474617149120030
20525323 117 18341899554043189484
21061003 4 18262533601010475619
21339142 36 18113902705926537763
21524375 3 17400929596148088117
22169311 21 17385718110675902346
22959321 105 17240770635078616430
2306618 200 17631728262269810360
23402539 116 18341881970473317406
23557571 272 17704071763859691708
23559900 14 17748819727210863416
3248919 1 18041004999116212110
57812782 119 18260263040985421322

>  <PUBCHEM_SHAPE_MULTIPOLES>  (1) 
251.7
6.52
1.66
1.37
7.33
1.09
0.17
-1.71
-0.11
-0.48
0.37
-1.6
-0.42
0.23

>  <PUBCHEM_SHAPE_SELFOVERLAP>  (1) 
465.022

>  <PUBCHEM_SHAPE_VOLUME>  (1) 
161.1

>  <PUBCHEM_COORDINATE_TYPE>  (1) 
2
5
10

$$$$
