40666
     RDKit          3D

 21 22  0  0  1  0  0  0  0  0999 V2000
    2.6114   -2.0052    0.4325 O   0  0  0  0  0  0  0  0  0  0  0  0
    5.1503    0.5545    0.6072 N   0  0  0  0  0  0  0  0  0  0  0  0
   -3.5062   -0.3055   -0.1913 C   0  0  0  0  0  0  0  0  0  0  0  0
   -3.9471    0.9790   -0.9149 C   0  0  0  0  0  0  0  0  0  0  0  0
   -4.2112   -0.4405    1.1699 C   0  0  0  0  0  0  0  0  0  0  0  0
    3.1004    0.0800   -0.8035 C   0  0  0  0  0  0  0  0  0  0  0  0
   -5.4670    1.0477   -1.0542 C   0  0  0  0  0  0  0  0  0  0  0  0
   -5.7300   -0.3660    1.0218 C   0  0  0  0  0  0  0  0  0  0  0  0
   -6.1633    0.9044    0.2959 C   0  0  0  0  0  0  0  0  0  0  0  0
    2.2612   -0.6202    0.3251 C   0  0  0  0  0  0  0  0  0  0  0  0
   -1.9965   -0.3874   -0.0567 C   0  0  0  0  0  0  0  0  0  0  0  0
    4.6352   -0.0834   -0.6009 C   0  0  0  0  0  0  0  0  0  0  0  0
    0.7515   -0.5380    0.1896 C   0  0  0  0  0  0  0  0  0  0  0  0
    2.7960    1.5936   -0.8838 C   0  0  0  0  0  0  0  0  0  0  0  0
    2.7060   -0.5240   -2.1757 C   0  0  0  0  0  0  0  0  0  0  0  0
   -1.2968   -1.4239   -0.6743 C   0  0  0  0  0  0  0  0  0  0  0  0
   -1.3092    0.5731    0.6854 C   0  0  0  0  0  0  0  0  0  0  0  0
    0.0904   -1.5000   -0.5499 C   0  0  0  0  0  0  0  0  0  0  0  0
    0.0782    0.4972    0.8097 C   0  0  0  0  0  0  0  0  0  0  0  0
    4.5372   -0.0326    1.7992 C   0  0  0  0  0  0  0  0  0  0  0  0
    4.9093    1.9973    0.5690 C   0  0  0  0  0  0  0  0  0  0  0  0
  1 10  1  0
  2 12  1  0
  2 20  1  0
  2 21  1  0
  3  4  1  0
  3  5  1  0
  3 11  1  0
  4  7  1  0
  5  8  1  0
  6 10  1  0
  6 12  1  0
  6 14  1  0
  6 15  1  0
  7  9  1  0
  8  9  1  0
 10 13  1  0
 11 16  2  0
 11 17  1  0
 13 18  2  0
 13 19  1  0
 16 18  1  0
 17 19  2  0
M  END
>  <PUBCHEM_COMPOUND_CID>  (1) 
40666

>  <PUBCHEM_CONFORMER_RMSD>  (1) 
0.8

>  <PUBCHEM_CONFORMER_DIVERSEORDER>  (1) 
15
5
10
13
6
19
3
8
18
4
14
12
17
2
9
16
1
7
11

>  <PUBCHEM_MMFF94_PARTIAL_CHARGES>  (1) 
18
1 -0.68
10 0.42
11 -0.14
12 0.27
13 -0.14
16 -0.15
17 -0.15
18 -0.15
19 -0.15
2 -0.81
20 0.27
21 0.27
3 0.14
42 0.15
43 0.15
44 0.15
45 0.15
46 0.4

>  <PUBCHEM_EFFECTIVE_ROTOR_COUNT>  (1) 
6.2

>  <PUBCHEM_PHARMACOPHORE_FEATURES>  (1) 
6
1 1 acceptor
1 1 donor
1 2 cation
3 6 14 15 hydrophobe
6 11 13 16 17 18 19 rings
6 3 4 5 7 8 9 rings

>  <PUBCHEM_HEAVY_ATOM_COUNT>  (1) 
21

>  <PUBCHEM_ATOM_DEF_STEREO_COUNT>  (1) 
0

>  <PUBCHEM_ATOM_UDEF_STEREO_COUNT>  (1) 
1

>  <PUBCHEM_BOND_DEF_STEREO_COUNT>  (1) 
0

>  <PUBCHEM_BOND_UDEF_STEREO_COUNT>  (1) 
0

>  <PUBCHEM_ISOTOPIC_ATOM_COUNT>  (1) 
0

>  <PUBCHEM_COMPONENT_COUNT>  (1) 
1

>  <PUBCHEM_CACTVS_TAUTO_COUNT>  (1) 
1

>  <PUBCHEM_CONFORMER_ID>  (1) 
00009EDA0000000F

>  <PUBCHEM_MMFF94_ENERGY>  (1) 
94.2373

>  <PUBCHEM_FEATURE_SELFOVERLAP>  (1) 
30.446

>  <PUBCHEM_SHAPE_FINGERPRINT>  (1) 
10 15 18260267494407747145
10366900 7 7853577919641910325
11128504 68 16845573114819668813
11405975 8 16371014030816051641
12107183 9 16085561914553265201
12166972 35 16515689943978780692
12236239 1 18410009948640116138
12403259 118 17676487263534316093
12507557 5 18113337518379772149
12596602 18 17168141247533710416
12616971 3 18334012834662698871
12633257 1 15430038772598529692
12730499 353 17060628810284073806
12788726 201 17274826800878811033
128620 24 18131637776547233637
12916748 109 18272376356198827217
12969540 114 17988914566213549909
13533116 47 17749665199902266674
13583140 156 18113340829804514011
13675066 3 18040996245751303566
13760787 5 17988644056346666743
13911852 28 12757963795029406664
14251718 22 13758071913484556617
14251764 18 15213019367116894628
14341114 176 16298104267863688356
14341114 328 16588031207958720237
14528608 73 15410891881491827688
15183329 4 13830137170166029929
15188451 53 15792018930613385323
15238133 3 17458067053878396612
15375358 24 17346599703094107206
15788980 27 18113899364204532995
17349148 13 12251903689867343667
17980427 23 18056183899183115892
18222031 100 8070026645020196855
19489759 90 17167863067508591281
19784866 9 18260823795941665890
200 152 8214146244227776383
20028762 73 14851889192009991073
20567600 75 9583526403929509345
20645477 56 18411134753382812159
20645477 70 14907911435612179692
21150785 3 17275097350123507685
2215653 11 10231759959711305025
23402539 116 18059851783387786709
23557571 272 17822302240767768173
23559900 14 17603875437963074234
2916195 48 18341047501462188497
300161 21 17060616690102122185
3004659 81 14117530805058021412
345986 75 14201934845129277260
3472631 163 18271804683240810788
34934 24 18131346444879145542
3545911 37 18335706035340865446
4072396 5 18336818728492162034
4340502 62 17894069602079900403
465052 167 8214142975436086432
5104073 3 17895478016967745785
542803 24 15626225710664125267
59755656 215 18262522494531555318
7495541 125 17676778664212186793
960060 61 14979963566309236508

>  <PUBCHEM_SHAPE_MULTIPOLES>  (1) 
421.32
14.05
1.53
1.44
9.16
0.04
0.18
5.17
-1.64
-1
0.13
-0.63
-0.02
0.68

>  <PUBCHEM_SHAPE_SELFOVERLAP>  (1) 
864.51

>  <PUBCHEM_SHAPE_VOLUME>  (1) 
241

>  <PUBCHEM_COORDINATE_TYPE>  (1) 
2
5
10

$$$$
