40676
     RDKit          3D

 31 34  0  0  0  0  0  0  0  0999 V2000
   -6.0442   -0.9545    0.1436 S   0  0  0  0  0  0  0  0  0  0  0  0
   -7.4538   -0.8250    0.4627 O   0  0  0  0  0  0  0  0  0  0  0  0
   -5.6245   -1.4636   -1.1470 O   0  0  0  0  0  0  0  0  0  0  0  0
    3.0054   -4.9992   -0.6639 O   0  0  0  0  0  0  0  0  0  0  0  0
    0.0177    1.2795   -1.2926 N   0  0  0  0  0  0  0  0  0  0  0  0
    3.6819    1.4720    0.7334 N   0  0  0  0  0  0  0  0  0  0  0  0
   -5.2662    0.5405    0.4983 N   0  0  0  0  0  0  0  0  0  0  0  0
    4.2726   -3.2632    0.3052 N   0  0  0  0  0  0  0  0  0  0  0  0
    1.2600    1.3448   -0.6052 C   0  0  0  0  0  0  0  0  0  0  0  0
    1.9953    0.1748   -0.3899 C   0  0  0  0  0  0  0  0  0  0  0  0
    1.7368    2.5784   -0.1505 C   0  0  0  0  0  0  0  0  0  0  0  0
    3.2181    0.2863    0.2934 C   0  0  0  0  0  0  0  0  0  0  0  0
    2.9696    2.5959    0.5233 C   0  0  0  0  0  0  0  0  0  0  0  0
    1.5402   -1.0784   -0.8356 C   0  0  0  0  0  0  0  0  0  0  0  0
   -1.2978    1.0947   -0.8473 C   0  0  0  0  0  0  0  0  0  0  0  0
    3.9549   -0.8749    0.5108 C   0  0  0  0  0  0  0  0  0  0  0  0
    1.0186    3.7698   -0.3528 C   0  0  0  0  0  0  0  0  0  0  0  0
    3.5057   -2.1218    0.0690 C   0  0  0  0  0  0  0  0  0  0  0  0
    2.2958   -2.2243   -0.6056 C   0  0  0  0  0  0  0  0  0  0  0  0
    3.4496    3.8212    0.9784 C   0  0  0  0  0  0  0  0  0  0  0  0
   -3.9260    0.7282    0.0432 C   0  0  0  0  0  0  0  0  0  0  0  0
   -2.3570    1.0726   -1.7617 C   0  0  0  0  0  0  0  0  0  0  0  0
   -1.5656    0.9319    0.5167 C   0  0  0  0  0  0  0  0  0  0  0  0
    1.5204    4.9817    0.1121 C   0  0  0  0  0  0  0  0  0  0  0  0
   -3.6668    0.8900   -1.3179 C   0  0  0  0  0  0  0  0  0  0  0  0
   -2.8753    0.7492    0.9605 C   0  0  0  0  0  0  0  0  0  0  0  0
    2.7384    5.0071    0.7791 C   0  0  0  0  0  0  0  0  0  0  0  0
   -5.3239   -1.9890    1.3987 C   0  0  0  0  0  0  0  0  0  0  0  0
   -5.8473   -3.4056    1.3175 C   0  0  0  0  0  0  0  0  0  0  0  0
    3.9896   -4.5864   -0.0590 C   0  0  0  0  0  0  0  0  0  0  0  0
    5.0776   -5.5328    0.3828 C   0  0  0  0  0  0  0  0  0  0  0  0
  1  2  2  0
  1  3  2  0
  1  7  1  0
  1 28  1  0
  4 30  2  0
  5  9  1  0
  5 15  1  0
  6 12  2  0
  6 13  1  0
  7 21  1  0
  8 18  1  0
  8 30  1  0
  9 10  2  0
  9 11  1  0
 10 12  1  0
 10 14  1  0
 11 13  2  0
 11 17  1  0
 12 16  1  0
 13 20  1  0
 14 19  2  0
 15 22  2  0
 15 23  1  0
 16 18  2  0
 17 24  2  0
 18 19  1  0
 20 27  2  0
 21 25  2  0
 21 26  1  0
 22 25  1  0
 23 26  2  0
 24 27  1  0
 28 29  1  0
 30 31  1  0
M  END
>  <PUBCHEM_COMPOUND_CID>  (1) 
40676

>  <PUBCHEM_CONFORMER_RMSD>  (1) 
1

>  <PUBCHEM_CONFORMER_DIVERSEORDER>  (1) 
1
20
28
24
22
36
21
50
53
18
31
23
37
55
3
52
8
26
32
46
48
34
47
38
30
39
49
5
16
35
12
29
11
44
43
14
42
19
6
54
33
9
51
27
45
17
15
7
25
10
41
40
13
4
2

>  <PUBCHEM_MMFF94_PARTIAL_CHARGES>  (1) 
42
1 1.33
12 0.31
13 0.31
14 -0.15
15 0.1
16 -0.15
17 -0.15
18 0.12
19 -0.15
2 -0.65
20 -0.15
21 0.2
22 -0.15
23 -0.15
24 -0.15
25 -0.15
26 -0.15
27 -0.15
28 0.11
3 -0.65
30 0.57
31 0.06
32 0.4
33 0.15
34 0.15
35 0.15
36 0.15
37 0.15
38 0.15
39 0.15
4 -0.57
40 0.15
41 0.15
42 0.15
43 0.42
44 0.15
47 0.37
5 -0.6
6 -0.62
7 -0.76
8 -0.55
9 0.1

>  <PUBCHEM_EFFECTIVE_ROTOR_COUNT>  (1) 
7

>  <PUBCHEM_PHARMACOPHORE_FEATURES>  (1) 
12
1 2 acceptor
1 3 acceptor
1 4 acceptor
1 5 cation
1 5 donor
1 6 acceptor
1 7 donor
1 8 donor
6 10 12 14 16 18 19 rings
6 11 13 17 20 24 27 rings
6 15 21 22 23 25 26 rings
6 6 9 10 11 12 13 rings

>  <PUBCHEM_HEAVY_ATOM_COUNT>  (1) 
31

>  <PUBCHEM_ATOM_DEF_STEREO_COUNT>  (1) 
0

>  <PUBCHEM_ATOM_UDEF_STEREO_COUNT>  (1) 
0

>  <PUBCHEM_BOND_DEF_STEREO_COUNT>  (1) 
0

>  <PUBCHEM_BOND_UDEF_STEREO_COUNT>  (1) 
0

>  <PUBCHEM_ISOTOPIC_ATOM_COUNT>  (1) 
0

>  <PUBCHEM_COMPONENT_COUNT>  (1) 
1

>  <PUBCHEM_CACTVS_TAUTO_COUNT>  (1) 
13

>  <PUBCHEM_CONFORMER_ID>  (1) 
00009EE400000001

>  <PUBCHEM_MMFF94_ENERGY>  (1) 
113.9509

>  <PUBCHEM_FEATURE_SELFOVERLAP>  (1) 
60.976

>  <PUBCHEM_SHAPE_FINGERPRINT>  (1) 
10411042 1 18195806254813528934
117089 54 18194407688471128279
12107183 9 18127421042830162809
12342043 65 18114186302885910173
12788726 201 17184735906212479208
13140716 1 18197484328996992768
13533116 47 18409452518368555641
13692114 37 17977099390402867242
13785724 45 18127702525641888085
13911852 28 18266456512163705887
13955234 65 18341610477101329520
14844126 61 17475503985513379714
15183329 4 8212774058428361393
15911013 46 18335710433767314827
16992752 21 18052268293732612190
17492 89 18411980230986418617
17859628 70 18410294743716204336
19246450 95 17477784390052545665
19319366 153 17984979551368361933
1979834 28 18117278275354492485
20505436 4 17630327669119311332
21049683 271 18335709343109690884
21130935 74 18337118969046535755
21197605 99 17903079176662604483
21814621 53 18259994773809139481
23559900 14 18409725137138532825
23572383 38 17824825792142985923
23845131 108 17692243453917913072
24893989 43 17844811588482941143
2747138 104 18052809262149290722
3178227 256 18339640161529652592
32027 91 18335699421687536451
3421961 26 18411135818556216084
404807 14 18193564372353819147
4353968 344 8283437545133353920
4403749 210 17544469116935877353
4408954 87 17261889152303217955
4616759 239 16830907558995540194
463206 1 18117565024524604051
484985 159 17542223458771625820
50009960 94 17896577613794021075
5104073 3 18340498858862690097
5309563 4 18195244412577100302
57816373 69 18270403772436474039
613672 6 18049696565398108750
6441014 3 18120936096915876595
6679774 75 18116418423703031232
6695519 79 17693392431084503409
6697151 62 18123160456446336077
7970288 3 18193276286737254378
86090 222 17603594023580000291
9777508 108 17260181619693633152

>  <PUBCHEM_SHAPE_MULTIPOLES>  (1) 
604.28
14.03
7.74
1.21
27.21
4.04
-0.16
14.18
3.79
-15.57
1.43
1.07
-0.09
2.33

>  <PUBCHEM_SHAPE_SELFOVERLAP>  (1) 
1311.158

>  <PUBCHEM_SHAPE_VOLUME>  (1) 
330

>  <PUBCHEM_COORDINATE_TYPE>  (1) 
2
5
10

$$$$
