40672
     RDKit          3D

 25 26  0  0  0  0  0  0  0  0999 V2000
   -3.0264   -0.4098   -0.0698 O   0  0  0  0  0  0  0  0  0  0  0  0
    3.0263   -0.4111   -0.0705 O   0  0  0  0  0  0  0  0  0  0  0  0
   -2.9560    0.7498   -2.0723 O   0  0  0  0  0  0  0  0  0  0  0  0
    2.9552    0.7478   -2.0733 O   0  0  0  0  0  0  0  0  0  0  0  0
    0.0008    2.6407    0.8223 N   0  0  0  0  0  0  0  0  0  0  0  0
   -0.0010   -3.6542    1.1080 N   0  0  0  0  0  0  0  0  0  0  0  0
   -0.0003    0.2321   -0.7608 C   0  0  0  0  0  0  0  0  0  0  0  0
   -1.2639    1.0124   -0.4336 C   0  0  0  0  0  0  0  0  0  0  0  0
    1.2638    1.0113   -0.4339 C   0  0  0  0  0  0  0  0  0  0  0  0
   -1.2309    2.1437    0.3108 C   0  0  0  0  0  0  0  0  0  0  0  0
    1.2320    2.1426    0.3106 C   0  0  0  0  0  0  0  0  0  0  0  0
   -0.0006   -1.1444   -0.0989 C   0  0  0  0  0  0  0  0  0  0  0  0
   -2.4733    2.9619    0.5968 C   0  0  0  0  0  0  0  0  0  0  0  0
    2.4753    2.9595    0.5964 C   0  0  0  0  0  0  0  0  0  0  0  0
    0.0016    3.6934    1.8524 C   0  0  0  0  0  0  0  0  0  0  0  0
   -2.5134    0.4508   -0.9805 C   0  0  0  0  0  0  0  0  0  0  0  0
    2.5128    0.4491   -0.9813 C   0  0  0  0  0  0  0  0  0  0  0  0
   -0.0024   -2.2852   -0.8847 C   0  0  0  0  0  0  0  0  0  0  0  0
    0.0010   -1.2429    1.2829 C   0  0  0  0  0  0  0  0  0  0  0  0
   -0.0023   -3.5097   -0.2362 C   0  0  0  0  0  0  0  0  0  0  0  0
    0.0009   -2.5140    1.8344 C   0  0  0  0  0  0  0  0  0  0  0  0
   -4.2503   -1.0421   -0.4588 C   0  0  0  0  0  0  0  0  0  0  0  0
    4.2503   -1.0430   -0.4593 C   0  0  0  0  0  0  0  0  0  0  0  0
   -4.7004   -1.9691    0.6500 C   0  0  0  0  0  0  0  0  0  0  0  0
    4.7009   -1.9695    0.6497 C   0  0  0  0  0  0  0  0  0  0  0  0
  1 16  1  0
  1 22  1  0
  2 17  1  0
  2 23  1  0
  3 16  2  0
  4 17  2  0
  5 10  1  0
  5 11  1  0
  5 15  1  0
  6 20  2  0
  6 21  1  0
  7  8  1  0
  7  9  1  0
  7 12  1  0
  8 10  2  0
  8 16  1  0
  9 11  2  0
  9 17  1  0
 10 13  1  0
 11 14  1  0
 12 18  2  0
 12 19  1  0
 18 20  1  0
 19 21  2  0
 22 24  1  0
 23 25  1  0
M  END
>  <PUBCHEM_COMPOUND_CID>  (1) 
40672

>  <PUBCHEM_CONFORMER_RMSD>  (1) 
0.8

>  <PUBCHEM_CONFORMER_DIVERSEORDER>  (1) 
1
17
5
20
9
8
4
21
12
13
14
10
23
15
2
16
18
7
19
11
3
6
22

>  <PUBCHEM_MMFF94_PARTIAL_CHARGES>  (1) 
27
1 -0.43
10 -0.04
11 -0.04
12 -0.14
13 0.14
14 0.14
15 0.37
16 0.71
17 0.71
18 -0.15
19 -0.15
2 -0.43
20 0.16
21 0.16
22 0.28
23 0.28
3 -0.57
36 0.15
37 0.15
38 0.15
39 0.15
4 -0.57
5 -0.57
6 -0.62
7 0.42
8 -0.12
9 -0.12

>  <PUBCHEM_EFFECTIVE_ROTOR_COUNT>  (1) 
7.4

>  <PUBCHEM_PHARMACOPHORE_FEATURES>  (1) 
6
1 3 acceptor
1 4 acceptor
1 5 cation
1 6 acceptor
6 5 7 8 9 10 11 rings
6 6 12 18 19 20 21 rings

>  <PUBCHEM_HEAVY_ATOM_COUNT>  (1) 
25

>  <PUBCHEM_ATOM_DEF_STEREO_COUNT>  (1) 
0

>  <PUBCHEM_ATOM_UDEF_STEREO_COUNT>  (1) 
0

>  <PUBCHEM_BOND_DEF_STEREO_COUNT>  (1) 
0

>  <PUBCHEM_BOND_UDEF_STEREO_COUNT>  (1) 
0

>  <PUBCHEM_ISOTOPIC_ATOM_COUNT>  (1) 
0

>  <PUBCHEM_COMPONENT_COUNT>  (1) 
1

>  <PUBCHEM_CACTVS_TAUTO_COUNT>  (1) 
1

>  <PUBCHEM_CONFORMER_ID>  (1) 
00009EE000000001

>  <PUBCHEM_MMFF94_ENERGY>  (1) 
65.9232

>  <PUBCHEM_FEATURE_SELFOVERLAP>  (1) 
30.446

>  <PUBCHEM_SHAPE_FINGERPRINT>  (1) 
10076449 9 17832740076312008326
1100329 8 18411128169193231075
11578080 2 16338078361811839395
12035758 1 18051418666778829145
12788726 201 18269855197500533084
13140716 1 18272653402643003449
14178342 30 18124882252815980812
14787075 74 18334297599495265503
15209289 33 18410862048766236439
16945 1 18273496771005126380
19591789 44 18336262457155318247
20028762 73 18059014033344359207
20832881 197 18341619239224542097
20905425 154 18051973619466540022
22393880 68 18121191407695021519
22907989 373 17683008496757348430
2334 1 18273213127070723257
23558518 356 18411989060933277297
23559900 14 18119253011391587308
2748010 2 17047098473448468044
3286 77 18410574011058541749
3380486 145 17833565860878256490
3383291 50 18409728444432896562
34934 24 17838332986708992901
57527585 103 17245021175043568474
5845 1 10159702369440895248
59755656 215 18053386496240149022
81228 2 17323507966141119767

>  <PUBCHEM_SHAPE_MULTIPOLES>  (1) 
481.05
6.46
4.7
1.53
0
0.52
-0.02
-2.98
-0.99
0
2.49
0
0.1
0

>  <PUBCHEM_SHAPE_SELFOVERLAP>  (1) 
1004.758

>  <PUBCHEM_SHAPE_VOLUME>  (1) 
271.7

>  <PUBCHEM_COORDINATE_TYPE>  (1) 
2
5
10

$$$$
