40687
     RDKit          3D

 30 33  0  0  0  0  0  0  0  0999 V2000
   -6.4705    1.3891    0.4297 S   0  0  0  0  0  0  0  0  0  0  0  0
   -7.5125    2.3510    0.7373 O   0  0  0  0  0  0  0  0  0  0  0  0
   -6.5336    0.5969   -0.7825 O   0  0  0  0  0  0  0  0  0  0  0  0
    4.8536    4.0008   -0.3410 O   0  0  0  0  0  0  0  0  0  0  0  0
   -0.3812   -0.5093   -1.3357 N   0  0  0  0  0  0  0  0  0  0  0  0
    2.8748   -2.2794    0.6223 N   0  0  0  0  0  0  0  0  0  0  0  0
    5.3131    1.8429    0.4901 N   0  0  0  0  0  0  0  0  0  0  0  0
   -4.9447    2.1748    0.5730 N   0  0  0  0  0  0  0  0  0  0  0  0
    0.7227   -1.1096   -0.6713 C   0  0  0  0  0  0  0  0  0  0  0  0
    1.8615   -0.3473   -0.3921 C   0  0  0  0  0  0  0  0  0  0  0  0
    0.6610   -2.4574   -0.3031 C   0  0  0  0  0  0  0  0  0  0  0  0
    2.9290   -0.9816    0.2655 C   0  0  0  0  0  0  0  0  0  0  0  0
    1.7755   -3.0091    0.3509 C   0  0  0  0  0  0  0  0  0  0  0  0
    1.9508    1.0089   -0.7507 C   0  0  0  0  0  0  0  0  0  0  0  0
    4.0657   -0.2280    0.5462 C   0  0  0  0  0  0  0  0  0  0  0  0
   -1.5179    0.1582   -0.8610 C   0  0  0  0  0  0  0  0  0  0  0  0
   -0.4707   -3.2472   -0.5713 C   0  0  0  0  0  0  0  0  0  0  0  0
    4.1577    1.1201    0.1912 C   0  0  0  0  0  0  0  0  0  0  0  0
    3.0982    1.7402   -0.4586 C   0  0  0  0  0  0  0  0  0  0  0  0
    1.7203   -4.3505    0.7201 C   0  0  0  0  0  0  0  0  0  0  0  0
   -0.5007   -4.5857   -0.1918 C   0  0  0  0  0  0  0  0  0  0  0  0
   -2.4676    0.6620   -1.7569 C   0  0  0  0  0  0  0  0  0  0  0  0
   -1.7140    0.3291    0.5143 C   0  0  0  0  0  0  0  0  0  0  0  0
    0.5972   -5.1382    0.4553 C   0  0  0  0  0  0  0  0  0  0  0  0
   -3.7873    1.4942    0.0880 C   0  0  0  0  0  0  0  0  0  0  0  0
   -3.5984    1.3279   -1.2841 C   0  0  0  0  0  0  0  0  0  0  0  0
   -2.8449    0.9948    0.9872 C   0  0  0  0  0  0  0  0  0  0  0  0
    5.5860    3.1897    0.2164 C   0  0  0  0  0  0  0  0  0  0  0  0
   -6.3782    0.2697    1.8091 C   0  0  0  0  0  0  0  0  0  0  0  0
    6.9552    3.5930    0.7035 C   0  0  0  0  0  0  0  0  0  0  0  0
  1  2  2  0
  1  3  2  0
  1  8  1  0
  1 29  1  0
  4 28  2  0
  5  9  1  0
  5 16  1  0
  6 12  2  0
  6 13  1  0
  7 18  1  0
  7 28  1  0
  8 25  1  0
  9 10  2  0
  9 11  1  0
 10 12  1  0
 10 14  1  0
 11 13  2  0
 11 17  1  0
 12 15  1  0
 13 20  1  0
 14 19  2  0
 15 18  2  0
 16 22  2  0
 16 23  1  0
 17 21  2  0
 18 19  1  0
 20 24  2  0
 21 24  1  0
 22 26  1  0
 23 27  2  0
 25 26  2  0
 25 27  1  0
 28 30  1  0
M  END
>  <PUBCHEM_COMPOUND_CID>  (1) 
40687

>  <PUBCHEM_CONFORMER_RMSD>  (1) 
0.8

>  <PUBCHEM_CONFORMER_DIVERSEORDER>  (1) 
2
15
27
61
48
21
51
43
66
37
14
25
46
63
53
44
52
41
22
40
39
64
65
11
36
16
58
38
62
42
34
54
29
24
19
49
13
50
67
59
26
18
20
9
12
28
30
33
47
57
45
31
56
55
23
35
17
60
10
8
6
5
3
7
32
1
4

>  <PUBCHEM_MMFF94_PARTIAL_CHARGES>  (1) 
42
1 1.33
12 0.31
13 0.31
14 -0.15
15 -0.15
16 0.1
17 -0.15
18 0.12
19 -0.15
2 -0.65
20 -0.15
21 -0.15
22 -0.15
23 -0.15
24 -0.15
25 0.2
26 -0.15
27 -0.15
28 0.57
29 0.11
3 -0.65
30 0.06
31 0.4
32 0.15
33 0.15
34 0.15
35 0.15
36 0.15
37 0.15
38 0.15
39 0.15
4 -0.57
40 0.15
41 0.15
42 0.15
43 0.37
44 0.42
5 -0.6
6 -0.62
7 -0.55
8 -0.76
9 0.1

>  <PUBCHEM_EFFECTIVE_ROTOR_COUNT>  (1) 
6

>  <PUBCHEM_PHARMACOPHORE_FEATURES>  (1) 
12
1 2 acceptor
1 3 acceptor
1 4 acceptor
1 5 cation
1 5 donor
1 6 acceptor
1 7 donor
1 8 donor
6 10 12 14 15 18 19 rings
6 11 13 17 20 21 24 rings
6 16 22 23 25 26 27 rings
6 6 9 10 11 12 13 rings

>  <PUBCHEM_HEAVY_ATOM_COUNT>  (1) 
30

>  <PUBCHEM_ATOM_DEF_STEREO_COUNT>  (1) 
0

>  <PUBCHEM_ATOM_UDEF_STEREO_COUNT>  (1) 
0

>  <PUBCHEM_BOND_DEF_STEREO_COUNT>  (1) 
0

>  <PUBCHEM_BOND_UDEF_STEREO_COUNT>  (1) 
0

>  <PUBCHEM_ISOTOPIC_ATOM_COUNT>  (1) 
0

>  <PUBCHEM_COMPONENT_COUNT>  (1) 
1

>  <PUBCHEM_CACTVS_TAUTO_COUNT>  (1) 
13

>  <PUBCHEM_CONFORMER_ID>  (1) 
00009EEF00000002

>  <PUBCHEM_MMFF94_ENERGY>  (1) 
117.2388

>  <PUBCHEM_FEATURE_SELFOVERLAP>  (1) 
60.976

>  <PUBCHEM_SHAPE_FINGERPRINT>  (1) 
10165383 225 18261404308517592190
10411042 1 17545883724628980138
10939801 23 18271806857227810583
1100329 8 18337942429893168426
11135609 127 18267295440464691861
11135609 187 18264469811402506621
11135609 201 18342735273180471657
11582403 64 15869919225798052574
12107183 9 17260473566254032529
12390115 104 18265899236653289020
12633046 712 11239142537517612301
12677640 9 17979071918442500853
12788726 201 17907277090725411462
13140716 1 18335414660923850170
13533116 47 18119538639738433163
13955234 65 18264206902889174507
14251764 75 18411417349552280320
14400156 413 18193828255293165525
14415360 78 18195227031019059685
14565420 104 18411138017542262793
14849402 71 18267303136734616098
15324884 4 17097751501440671470
15439362 3 18413672405673576868
15475509 35 16444180916602356826
15927050 60 18412262878574169086
16126227 98 18267304416376556808
16992610 120 18263096551908929116
17913733 40 18410019827449733331
18393751 57 18334294314029926293
19309040 13 18059575862521676340
19319366 153 18343295946689910245
19427546 62 18409732863156827370
1979834 28 18114190700526648949
20505436 4 18060134340849172285
20691028 202 18268146651074438680
21033648 29 18268422602833483176
21049683 271 17900554376164826862
21120745 212 17253166726960257188
21197605 99 18334868225294087099
21365058 113 17411356324954296654
21756936 100 18128814325667112940
23522609 53 17703236092922677393
23559900 14 17976539417136153475
23572383 38 17895209770833438467
23845131 108 18335702771071080531
23929065 36 17694200572352269208
27425 322 18272372000949126044
283562 15 17903907100624173590
3178227 256 18264205816863906858
38570 142 18272943721436859388
4058900 60 18341343226924434649
4073 2 18410298008787921145
4403749 210 18263643042734833385
474 4 18340763745651894366
5104073 3 17973984427582174152
59755656 520 18339640139721889932
621550 34 18188772734712564525
6523845 18 18334870389682401574
6695519 79 18196680512808169523
6697151 62 17396675620478689559
7399639 24 18187926136539621301
9658208 31 18338812224930860822

>  <PUBCHEM_SHAPE_MULTIPOLES>  (1) 
583.7
15.33
6.12
1.19
14.3
7.34
-0.1
-24.02
5.29
-7.37
1.01
1.3
-0.19
-0.32

>  <PUBCHEM_SHAPE_SELFOVERLAP>  (1) 
1272.719

>  <PUBCHEM_SHAPE_VOLUME>  (1) 
318.2

>  <PUBCHEM_COORDINATE_TYPE>  (1) 
2
5
10

$$$$
