40680
     RDKit          3D

 33 36  0  0  0  0  0  0  0  0999 V2000
    5.6962   -0.6888   -0.2968 S   0  0  0  0  0  0  0  0  0  0  0  0
    7.0566   -1.1164   -0.0287 O   0  0  0  0  0  0  0  0  0  0  0  0
    5.3251   -0.1901   -1.6063 O   0  0  0  0  0  0  0  0  0  0  0  0
   -2.2144    5.2713   -1.0394 O   0  0  0  0  0  0  0  0  0  0  0  0
   -0.7885   -1.5582   -1.2843 N   0  0  0  0  0  0  0  0  0  0  0  0
    4.6232   -1.9353    0.2139 N   0  0  0  0  0  0  0  0  0  0  0  0
   -4.2706   -0.7516    0.9050 N   0  0  0  0  0  0  0  0  0  0  0  0
   -3.7849    3.9500    0.1208 N   0  0  0  0  0  0  0  0  0  0  0  0
    5.3061    0.5705    0.8974 C   0  0  0  0  0  0  0  0  0  0  0  0
    6.1369    1.8242    0.6721 C   0  0  0  0  0  0  0  0  0  0  0  0
   -1.9696   -1.2848   -0.5422 C   0  0  0  0  0  0  0  0  0  0  0  0
   -2.4029    0.0363   -0.3909 C   0  0  0  0  0  0  0  0  0  0  0  0
   -2.6880   -2.3391    0.0308 C   0  0  0  0  0  0  0  0  0  0  0  0
    5.8150    2.8970    1.7105 C   0  0  0  0  0  0  0  0  0  0  0  0
   -3.5751    0.2602    0.3510 C   0  0  0  0  0  0  0  0  0  0  0  0
   -3.8490   -2.0223    0.7561 C   0  0  0  0  0  0  0  0  0  0  0  0
    0.5584   -1.6541   -0.9112 C   0  0  0  0  0  0  0  0  0  0  0  0
    3.2502   -1.8413   -0.1663 C   0  0  0  0  0  0  0  0  0  0  0  0
   -1.7005    1.1151   -0.9559 C   0  0  0  0  0  0  0  0  0  0  0  0
   -4.0115    1.5733    0.5052 C   0  0  0  0  0  0  0  0  0  0  0  0
   -2.2757   -3.6761   -0.1052 C   0  0  0  0  0  0  0  0  0  0  0  0
   -3.3159    2.6477   -0.0548 C   0  0  0  0  0  0  0  0  0  0  0  0
    0.9381   -1.4605    0.4221 C   0  0  0  0  0  0  0  0  0  0  0  0
    1.5382   -1.9424   -1.8681 C   0  0  0  0  0  0  0  0  0  0  0  0
    2.2794   -1.5537    0.7932 C   0  0  0  0  0  0  0  0  0  0  0  0
    2.8796   -2.0357   -1.4968 C   0  0  0  0  0  0  0  0  0  0  0  0
    6.6149    4.1668    1.4664 C   0  0  0  0  0  0  0  0  0  0  0  0
   -2.1580    2.4185   -0.7869 C   0  0  0  0  0  0  0  0  0  0  0  0
   -4.5686   -3.0675    1.3291 C   0  0  0  0  0  0  0  0  0  0  0  0
   -3.0130   -4.7027    0.4773 C   0  0  0  0  0  0  0  0  0  0  0  0
   -4.1618   -4.3973    1.1958 C   0  0  0  0  0  0  0  0  0  0  0  0
   -3.2285    5.1422   -0.3614 C   0  0  0  0  0  0  0  0  0  0  0  0
   -4.0416    6.3445    0.0486 C   0  0  0  0  0  0  0  0  0  0  0  0
  1  2  2  0
  1  3  2  0
  1  6  1  0
  1  9  1  0
  4 32  2  0
  5 11  1  0
  5 17  1  0
  6 18  1  0
  7 15  2  0
  7 16  1  0
  8 22  1  0
  8 32  1  0
  9 10  1  0
 10 14  1  0
 11 12  2  0
 11 13  1  0
 12 15  1  0
 12 19  1  0
 13 16  2  0
 13 21  1  0
 14 27  1  0
 15 20  1  0
 16 29  1  0
 17 23  2  0
 17 24  1  0
 18 25  2  0
 18 26  1  0
 19 28  2  0
 20 22  2  0
 21 30  2  0
 22 28  1  0
 23 25  1  0
 24 26  2  0
 29 31  2  0
 30 31  1  0
 32 33  1  0
M  END
>  <PUBCHEM_COMPOUND_CID>  (1) 
40680

>  <PUBCHEM_CONFORMER_RMSD>  (1) 
1

>  <PUBCHEM_CONFORMER_DIVERSEORDER>  (1) 
1
34
80
71
70
142
141
42
139
63
109
115
18
81
156
100
15
74
162
59
104
86
116
133
78
108
91
114
90
35
58
101
83
97
160
110
132
48
52
150
145
113
84
67
76
61
117
31
55
14
66
99
136
112
102
153
152
27
143
51
121
138
144
95
79
120
92
149
8
88
87
140
26
129
85
56
146
73
64
123
107
118
36
65
47
96
53
75
103
33
23
77
60
39
57
137
155
122
161
72
45
82
3
111
28
68
165
89
62
98
131
163
125
54
106
46
158
44
127
159
11
119
29
130
148
38
43
69
25
154
126
16
41
157
19
135
128
5
147
50
37
151
10
6
124
13
134
94
21
4
12
105
164
9
20
40
32
17
2
93
7
22
49
30
24

>  <PUBCHEM_MMFF94_PARTIAL_CHARGES>  (1) 
42
1 1.33
11 0.1
15 0.31
16 0.31
17 0.1
18 0.2
19 -0.15
2 -0.65
20 -0.15
21 -0.15
22 0.12
23 -0.15
24 -0.15
25 -0.15
26 -0.15
28 -0.15
29 -0.15
3 -0.65
30 -0.15
31 -0.15
32 0.57
33 0.06
4 -0.57
40 0.4
41 0.42
42 0.15
43 0.15
44 0.15
45 0.15
46 0.15
47 0.15
48 0.15
5 -0.6
52 0.15
53 0.15
54 0.15
55 0.15
56 0.37
6 -0.76
7 -0.62
8 -0.55
9 0.11

>  <PUBCHEM_EFFECTIVE_ROTOR_COUNT>  (1) 
9

>  <PUBCHEM_PHARMACOPHORE_FEATURES>  (1) 
13
1 2 acceptor
1 27 hydrophobe
1 3 acceptor
1 4 acceptor
1 5 cation
1 5 donor
1 6 donor
1 7 acceptor
1 8 donor
6 12 15 19 20 22 28 rings
6 13 16 21 29 30 31 rings
6 17 18 23 24 25 26 rings
6 7 11 12 13 15 16 rings

>  <PUBCHEM_HEAVY_ATOM_COUNT>  (1) 
33

>  <PUBCHEM_ATOM_DEF_STEREO_COUNT>  (1) 
0

>  <PUBCHEM_ATOM_UDEF_STEREO_COUNT>  (1) 
0

>  <PUBCHEM_BOND_DEF_STEREO_COUNT>  (1) 
0

>  <PUBCHEM_BOND_UDEF_STEREO_COUNT>  (1) 
0

>  <PUBCHEM_ISOTOPIC_ATOM_COUNT>  (1) 
0

>  <PUBCHEM_COMPONENT_COUNT>  (1) 
1

>  <PUBCHEM_CACTVS_TAUTO_COUNT>  (1) 
13

>  <PUBCHEM_CONFORMER_ID>  (1) 
00009EE800000001

>  <PUBCHEM_MMFF94_ENERGY>  (1) 
113.3168

>  <PUBCHEM_FEATURE_SELFOVERLAP>  (1) 
66.05

>  <PUBCHEM_SHAPE_FINGERPRINT>  (1) 
10319926 262 18410006599368147738
10369192 42 17058098950514436550
10675989 125 17259345462427670889
11059845 2 17974262367231036322
12107183 9 17755576049807086170
12788726 201 18043560333028088295
12925494 130 18339075969755883996
13008946 282 16822765644878915025
13965767 371 17319023728157689871
14068700 686 18341332283869854118
14415360 78 18047739421821846533
14739800 52 18263354811800907594
15183329 4 10807398294618905646
15230672 131 17685510753696417990
15419008 145 18264753520163462864
15513586 35 18129095791700429008
15684970 41 17611477723377299963
16114785 44 18267022765832993189
16992779 147 16900758415520935865
20505436 4 12679196968270224575
21033648 29 17976553706101807973
21133410 52 16976453756696034430
22956985 138 16674156258737721771
23522609 53 17532680983072136734
24771293 8 18271541814859037811
2747138 104 18117004496980158698
283562 15 18264486179923628967
3418910 222 18047764972834789372
376196 1 17837773327333445567
4058900 60 17691976959902902641
4144715 1 18336836290856755810
508706 21 18341320141691086824
5104073 3 18336538392088467186
5219985 13 17977387136079315917
5364581 5 18268993253330333074
550186 72 18194959866798837364
6371380 46 17688881830160091966
6673363 416 18048057434786068220
9849439 229 17903924357728389925
9896288 288 18189066317218621531
9981440 41 17829342285314478171

>  <PUBCHEM_SHAPE_MULTIPOLES>  (1) 
645.44
15.55
8.4
1.39
31.51
13.64
-0.13
5.81
5.94
-12.41
0.74
1.01
-0.24
4.94

>  <PUBCHEM_SHAPE_SELFOVERLAP>  (1) 
1387.105

>  <PUBCHEM_SHAPE_VOLUME>  (1) 
355.7

>  <PUBCHEM_COORDINATE_TYPE>  (1) 
2
5
10

$$$$
