40688
     RDKit          3D

 22 26  0  0  0  0  0  0  0  0999 V2000
   -0.0002   -3.2277   -0.0025 O   0  0  0  0  0  0  0  0  0  0  0  0
   -0.7236    0.1921    0.0038 C   0  0  0  0  0  0  0  0  0  0  0  0
    0.7236    0.1920    0.0041 C   0  0  0  0  0  0  0  0  0  0  0  0
   -1.1841   -1.1317    0.0021 C   0  0  0  0  0  0  0  0  0  0  0  0
    1.1840   -1.1317    0.0028 C   0  0  0  0  0  0  0  0  0  0  0  0
    0.0000   -2.0164    0.0010 C   0  0  0  0  0  0  0  0  0  0  0  0
   -1.6359    1.2325    0.0037 C   0  0  0  0  0  0  0  0  0  0  0  0
    1.6360    1.2325    0.0036 C   0  0  0  0  0  0  0  0  0  0  0  0
   -2.5222   -1.4694   -0.0001 C   0  0  0  0  0  0  0  0  0  0  0  0
    2.5223   -1.4694    0.0015 C   0  0  0  0  0  0  0  0  0  0  0  0
   -3.0136    0.9348    0.0015 C   0  0  0  0  0  0  0  0  0  0  0  0
    3.0136    0.9349    0.0016 C   0  0  0  0  0  0  0  0  0  0  0  0
   -3.4575   -0.4232   -0.0005 C   0  0  0  0  0  0  0  0  0  0  0  0
    3.4576   -0.4232    0.0006 C   0  0  0  0  0  0  0  0  0  0  0  0
   -3.9686    1.9627    0.0004 C   0  0  0  0  0  0  0  0  0  0  0  0
    3.9686    1.9627   -0.0007 C   0  0  0  0  0  0  0  0  0  0  0  0
   -4.8344   -0.6929   -0.0035 C   0  0  0  0  0  0  0  0  0  0  0  0
    4.8345   -0.6930   -0.0022 C   0  0  0  0  0  0  0  0  0  0  0  0
   -5.3331    1.6702   -0.0027 C   0  0  0  0  0  0  0  0  0  0  0  0
    5.3331    1.6703   -0.0044 C   0  0  0  0  0  0  0  0  0  0  0  0
   -5.7644    0.3470   -0.0048 C   0  0  0  0  0  0  0  0  0  0  0  0
    5.7644    0.3469   -0.0052 C   0  0  0  0  0  0  0  0  0  0  0  0
  1  6  2  0
  2  3  1  0
  2  4  2  0
  2  7  1  0
  3  5  2  0
  3  8  1  0
  4  6  1  0
  4  9  1  0
  5  6  1  0
  5 10  1  0
  7 11  2  0
  8 12  2  0
  9 13  2  0
 10 14  2  0
 11 13  1  0
 11 15  1  0
 12 14  1  0
 12 16  1  0
 13 17  1  0
 14 18  1  0
 15 19  2  0
 16 20  2  0
 17 21  2  0
 18 22  2  0
 19 21  1  0
 20 22  1  0
M  END
>  <PUBCHEM_COMPOUND_CID>  (1) 
40688

>  <PUBCHEM_CONFORMER_RMSD>  (1) 
0.6

>  <PUBCHEM_CONFORMER_DIVERSEORDER>  (1) 
1

>  <PUBCHEM_MMFF94_PARTIAL_CHARGES>  (1) 
28
1 -0.57
10 -0.15
15 -0.15
16 -0.15
17 -0.15
18 -0.15
19 -0.15
20 -0.15
21 -0.15
22 -0.15
23 0.15
24 0.15
25 0.15
26 0.15
27 0.15
28 0.15
29 0.15
30 0.15
31 0.15
32 0.15
33 0.15
34 0.15
4 0.09
5 0.09
6 0.4
7 -0.15
8 -0.15
9 -0.15

>  <PUBCHEM_EFFECTIVE_ROTOR_COUNT>  (1) 
0

>  <PUBCHEM_PHARMACOPHORE_FEATURES>  (1) 
6
1 1 acceptor
5 2 3 4 5 6 rings
6 11 13 15 17 19 21 rings
6 12 14 16 18 20 22 rings
6 2 4 7 9 11 13 rings
6 3 5 8 10 12 14 rings

>  <PUBCHEM_HEAVY_ATOM_COUNT>  (1) 
22

>  <PUBCHEM_ATOM_DEF_STEREO_COUNT>  (1) 
0

>  <PUBCHEM_ATOM_UDEF_STEREO_COUNT>  (1) 
0

>  <PUBCHEM_BOND_DEF_STEREO_COUNT>  (1) 
0

>  <PUBCHEM_BOND_UDEF_STEREO_COUNT>  (1) 
0

>  <PUBCHEM_ISOTOPIC_ATOM_COUNT>  (1) 
0

>  <PUBCHEM_COMPONENT_COUNT>  (1) 
1

>  <PUBCHEM_CACTVS_TAUTO_COUNT>  (1) 
1

>  <PUBCHEM_CONFORMER_ID>  (1) 
00009EF000000001

>  <PUBCHEM_MMFF94_ENERGY>  (1) 
80.474

>  <PUBCHEM_FEATURE_SELFOVERLAP>  (1) 
30.671

>  <PUBCHEM_SHAPE_FINGERPRINT>  (1) 
10 15 18114466742074317945
11595378 159 16805873005389277156
12107183 9 17689997834361252369
12236239 1 18410572885639829856
12390115 104 18270978881040993401
12403259 415 18411409618289459120
12788726 201 17703794652279708073
13402501 40 18410573985151944845
13785724 45 17833545696545859274
138480 1 17762338007177814667
14251764 18 18261106388327213560
14528608 73 18412824689854120573
14787075 74 18343579668398779403
14790565 3 18410859858175192577
15042514 8 18120377820187085787
15131766 46 16083350023944499404
15196674 1 18410856563934756864
18681886 176 18412821417310775600
200 152 17988923370875485337
21033648 29 18342167916616920288
21236236 1 18340205297505148967
21267235 1 18410864260516281219
21279426 13 18340771425507094156
21421861 104 17823119178466583106
23227448 37 18341894142405515487
23402539 116 18271801354171443773
23402655 69 18272649043255576037
23558518 356 17683521015616301016
23559900 14 18272371928493993310
293599 30 18411138043401665614
3004659 81 18408606934081875966
335352 9 18410856547741474614
34797466 226 17632023030080943140
34934 24 18410570690917128170
350125 39 18409730655501770420
3545911 37 18411139134144192628
3680242 22 18335981952898804130
38695281 34 18131070407262980071
4073 2 17968663825768091386
4214541 1 18410856568282783489
474 4 17894916264766945396
474229 33 18410575102222964107
495365 180 17274531131652378032
5104073 3 18335702723752042187
59755656 215 18411986823761146910
59755656 520 17603301574640075018
6138700 20 18266744589228317662
633830 44 18342172232921668711
9709674 26 18412270531667553862
9981440 41 18334579049023887323
9996256 80 18342175600677240151

>  <PUBCHEM_SHAPE_MULTIPOLES>  (1) 
446.88
12.84
2.36
0.61
0
0.75
0
-5.91
0.03
0
0
0
-0.01
0

>  <PUBCHEM_SHAPE_SELFOVERLAP>  (1) 
1045.885

>  <PUBCHEM_SHAPE_VOLUME>  (1) 
228.4

>  <PUBCHEM_COORDINATE_TYPE>  (1) 
2
5
10

$$$$
