407
     RDKit          3D

  4  3  0  0  0  0  0  0  0  0999 V2000
   -0.0932   -0.0057    0.4040 P   0  0  0  0  0  0  0  0  0  0  0  0
    0.7487    1.2793   -0.1231 O   0  0  0  0  0  0  0  0  0  0  0  0
    0.8337   -1.2290   -0.1243 O   0  0  0  0  0  0  0  0  0  0  0  0
   -1.4893   -0.0445   -0.1567 O   0  0  0  0  0  0  0  0  0  0  0  0
  1  2  1  0
  1  3  1  0
  1  4  2  0
M  END
>  <PUBCHEM_COMPOUND_CID>  (1) 
407

>  <PUBCHEM_CONFORMER_RMSD>  (1) 
0.4

>  <PUBCHEM_CONFORMER_DIVERSEORDER>  (1) 
1

>  <PUBCHEM_MMFF94_PARTIAL_CHARGES>  (1) 
7
1 1.28
2 -0.77
3 -0.77
4 -0.7
5 -0.04
6 0.5
7 0.5

>  <PUBCHEM_EFFECTIVE_ROTOR_COUNT>  (1) 
0

>  <PUBCHEM_PHARMACOPHORE_FEATURES>  (1) 
4
1 2 acceptor
1 3 acceptor
1 4 acceptor
4 1 2 3 4 anion

>  <PUBCHEM_HEAVY_ATOM_COUNT>  (1) 
4

>  <PUBCHEM_ATOM_DEF_STEREO_COUNT>  (1) 
0

>  <PUBCHEM_ATOM_UDEF_STEREO_COUNT>  (1) 
0

>  <PUBCHEM_BOND_DEF_STEREO_COUNT>  (1) 
0

>  <PUBCHEM_BOND_UDEF_STEREO_COUNT>  (1) 
0

>  <PUBCHEM_ISOTOPIC_ATOM_COUNT>  (1) 
0

>  <PUBCHEM_COMPONENT_COUNT>  (1) 
1

>  <PUBCHEM_CACTVS_TAUTO_COUNT>  (1) 
2

>  <PUBCHEM_CONFORMER_ID>  (1) 
0000019700000001

>  <PUBCHEM_MMFF94_ENERGY>  (1) 
-23.8253

>  <PUBCHEM_FEATURE_SELFOVERLAP>  (1) 
20.339

>  <PUBCHEM_SHAPE_FINGERPRINT>  (1) 
139733 1 8717669809980653651
20096714 4 18046905162820035161
21015797 1 8574436400133692225
5943 1 16459879987703511643

>  <PUBCHEM_SHAPE_MULTIPOLES>  (1) 
68.56
1.31
1.24
0.63
0.48
0.05
-0.08
-0.05
0.13
-0.54
0.09
0.01
0
0

>  <PUBCHEM_SHAPE_SELFOVERLAP>  (1) 
105.298

>  <PUBCHEM_SHAPE_VOLUME>  (1) 
50.1

>  <PUBCHEM_COORDINATE_TYPE>  (1) 
2
5
10

$$$$
