40700
     RDKit          3D

 25 25  0  0  0  0  0  0  0  0999 V2000
   -0.6733   -0.4926   -0.5405 O   0  0  0  0  0  0  0  0  0  0  0  0
   -0.6691    2.3099   -1.1179 O   0  0  0  0  0  0  0  0  0  0  0  0
    1.8288   -1.1630   -1.2732 O   0  0  0  0  0  0  0  0  0  0  0  0
   -0.8475    2.8504    1.1125 O   0  0  0  0  0  0  0  0  0  0  0  0
    5.0328    0.5020   -0.4035 N   0  0  0  0  0  0  0  0  0  0  0  0
    2.4459   -1.6686    0.9129 N   0  0  0  0  0  0  0  0  0  0  0  0
   -2.6506   -2.5367   -0.5045 C   0  0  0  0  0  0  0  0  0  0  0  0
   -2.9515   -1.1192   -0.1436 C   0  0  0  0  0  0  0  0  0  0  0  0
   -1.9525   -0.1463   -0.1739 C   0  0  0  0  0  0  0  0  0  0  0  0
   -2.2528    1.1727    0.1662 C   0  0  0  0  0  0  0  0  0  0  0  0
    4.8180   -1.1927    1.3912 C   0  0  0  0  0  0  0  0  0  0  0  0
   -4.2510   -0.7731    0.2271 C   0  0  0  0  0  0  0  0  0  0  0  0
   -3.4413   -3.0087   -1.7385 C   0  0  0  0  0  0  0  0  0  0  0  0
   -2.8859   -3.5041    0.6700 C   0  0  0  0  0  0  0  0  0  0  0  0
    4.7768    0.2915    1.0162 C   0  0  0  0  0  0  0  0  0  0  0  0
   -3.5522    1.5187    0.5371 C   0  0  0  0  0  0  0  0  0  0  0  0
    3.8033   -2.0596    0.6482 C   0  0  0  0  0  0  0  0  0  0  0  0
   -4.5513    0.5459    0.5676 C   0  0  0  0  0  0  0  0  0  0  0  0
    0.2035   -0.9013    0.4876 C   0  0  0  0  0  0  0  0  0  0  0  0
   -3.9039    2.9230    0.9073 C   0  0  0  0  0  0  0  0  0  0  0  0
    1.5643   -1.2496   -0.0771 C   0  0  0  0  0  0  0  0  0  0  0  0
   -1.2049    2.1875    0.1331 C   0  0  0  0  0  0  0  0  0  0  0  0
    4.4706    1.7796   -0.8452 C   0  0  0  0  0  0  0  0  0  0  0  0
    6.4697    0.4572   -0.6806 C   0  0  0  0  0  0  0  0  0  0  0  0
    0.3740    3.2772   -1.2787 C   0  0  0  0  0  0  0  0  0  0  0  0
  1  9  1  0
  1 19  1  0
  2 22  1  0
  2 25  1  0
  3 21  2  0
  4 22  2  0
  5 15  1  0
  5 23  1  0
  5 24  1  0
  6 17  1  0
  6 21  1  0
  7  8  1  0
  7 13  1  0
  7 14  1  0
  8  9  2  0
  8 12  1  0
  9 10  1  0
 10 16  2  0
 10 22  1  0
 11 15  1  0
 11 17  1  0
 12 18  2  0
 16 18  1  0
 16 20  1  0
 19 21  1  0
M  END
>  <PUBCHEM_COMPOUND_CID>  (1) 
40700

>  <PUBCHEM_CONFORMER_RMSD>  (1) 
1

>  <PUBCHEM_CONFORMER_DIVERSEORDER>  (1) 
2
116
61
109
12
138
133
132
122
136
10
118
52
107
134
9
69
102
39
117
108
62
111
81
141
121
89
105
76
42
127
23
95
114
51
139
79
84
87
97
85
103
137
17
56
31
112
30
130
72
63
131
80
14
82
41
46
124
120
43
115
5
106
113
50
140
38
94
66
98
126
13
49
64
99
74
110
96
135
90
58
20
18
11
101
28
125
40
78
44
119
16
53
86
68
29
26
75
65
19
48
1
24
129
123
77
7
128
92
67
93
34
88
33
25
35
45
22
100
36
3
70
91
59
21
4
8
6
60
104
32
57
73
54
47
37
71
15
83
27
55

>  <PUBCHEM_MMFF94_PARTIAL_CHARGES>  (1) 
25
1 -0.36
10 0.09
12 -0.15
15 0.27
16 -0.14
17 0.3
18 -0.15
19 0.34
2 -0.43
20 0.14
21 0.57
22 0.63
23 0.27
24 0.27
25 0.28
29 0.15
3 -0.57
4 -0.57
40 0.15
43 0.37
5 -0.81
6 -0.73
7 0.14
8 -0.14
9 0.08

>  <PUBCHEM_EFFECTIVE_ROTOR_COUNT>  (1) 
11

>  <PUBCHEM_PHARMACOPHORE_FEATURES>  (1) 
7
1 1 acceptor
1 3 acceptor
1 4 acceptor
1 5 cation
1 6 donor
3 7 13 14 hydrophobe
6 8 9 10 12 16 18 rings

>  <PUBCHEM_HEAVY_ATOM_COUNT>  (1) 
25

>  <PUBCHEM_ATOM_DEF_STEREO_COUNT>  (1) 
0

>  <PUBCHEM_ATOM_UDEF_STEREO_COUNT>  (1) 
0

>  <PUBCHEM_BOND_DEF_STEREO_COUNT>  (1) 
0

>  <PUBCHEM_BOND_UDEF_STEREO_COUNT>  (1) 
0

>  <PUBCHEM_ISOTOPIC_ATOM_COUNT>  (1) 
0

>  <PUBCHEM_COMPONENT_COUNT>  (1) 
1

>  <PUBCHEM_CACTVS_TAUTO_COUNT>  (1) 
2

>  <PUBCHEM_CONFORMER_ID>  (1) 
00009EFC00000002

>  <PUBCHEM_MMFF94_ENERGY>  (1) 
67.9075

>  <PUBCHEM_FEATURE_SELFOVERLAP>  (1) 
35.528

>  <PUBCHEM_SHAPE_FINGERPRINT>  (1) 
10670039 82 18410012161518802206
10906281 52 18272661117162954119
1100329 8 18410293649290841387
11056379 131 18200875174816069359
11578080 2 13397254988503984145
12107183 9 17904476308281272090
12390115 104 17845383154593509097
13140716 1 18268432515876211539
14341114 176 18338233752944824962
14341114 328 18334575729145503034
14790565 3 18125445202875573209
17349148 13 17458062681749440254
20600515 1 18340493274877404941
21623110 236 18408325466703959792
23227448 37 18411417272105342348
23557571 272 18201447969081712286
5312544 6 18042692891483924180
7064713 232 18270400464842033824

>  <PUBCHEM_SHAPE_MULTIPOLES>  (1) 
481.05
11.93
4.11
1.26
17.19
0.46
-0.19
-0.8
0.99
-3.83
-0.4
0.3
-0.09
-2.35

>  <PUBCHEM_SHAPE_SELFOVERLAP>  (1) 
968.95

>  <PUBCHEM_SHAPE_VOLUME>  (1) 
284.2

>  <PUBCHEM_COORDINATE_TYPE>  (1) 
2
5
10

$$$$
