40706
     RDKit          3D

 16 15  0  0  0  0  0  0  0  0999 V2000
    1.3993   -1.3334    0.0036 O   0  0  0  0  0  0  0  0  0  0  0  0
   -2.0542   -0.5544   -0.3499 O   0  0  0  0  0  0  0  0  0  0  0  0
    2.3991    0.3819   -1.1378 O   0  0  0  0  0  0  0  0  0  0  0  0
   -0.7347   -0.6723    1.5186 O   0  0  0  0  0  0  0  0  0  0  0  0
    0.2512    2.0099    0.3586 C   0  0  0  0  0  0  0  0  0  0  0  0
    0.0534    0.6325   -0.4197 C   0  0  0  0  0  0  0  0  0  0  0  0
    1.2212    2.9649   -0.3788 C   0  0  0  0  0  0  0  0  0  0  0  0
   -1.0890    2.7675    0.5255 C   0  0  0  0  0  0  0  0  0  0  0  0
    0.8329    1.8022    1.7781 C   0  0  0  0  0  0  0  0  0  0  0  0
   -0.5279    0.8234   -1.8471 C   0  0  0  0  0  0  0  0  0  0  0  0
    1.4257   -0.0901   -0.5607 C   0  0  0  0  0  0  0  0  0  0  0  0
   -0.9288   -0.2792    0.3735 C   0  0  0  0  0  0  0  0  0  0  0  0
    2.6043   -2.0982   -0.1091 C   0  0  0  0  0  0  0  0  0  0  0  0
   -3.0419   -1.3545    0.3086 C   0  0  0  0  0  0  0  0  0  0  0  0
    2.4024   -3.4386    0.5646 C   0  0  0  0  0  0  0  0  0  0  0  0
   -4.2131   -1.5616   -0.6280 C   0  0  0  0  0  0  0  0  0  0  0  0
  1 11  1  0
  1 13  1  0
  2 12  1  0
  2 14  1  0
  3 11  2  0
  4 12  2  0
  5  6  1  0
  5  7  1  0
  5  8  1  0
  5  9  1  0
  6 10  1  0
  6 11  1  0
  6 12  1  0
 13 15  1  0
 14 16  1  0
M  END
>  <PUBCHEM_COMPOUND_CID>  (1) 
40706

>  <PUBCHEM_CONFORMER_RMSD>  (1) 
0.8

>  <PUBCHEM_CONFORMER_DIVERSEORDER>  (1) 
1
40
25
34
24
48
35
38
4
6
12
21
51
15
9
47
49
3
20
37
19
26
30
23
18
52
28
46
7
42
31
44
27
33
17
5
41
22
13
50
45
14
32
39
36
29
10
2
16
8
43
11

>  <PUBCHEM_MMFF94_PARTIAL_CHARGES>  (1) 
9
1 -0.43
11 0.66
12 0.66
13 0.28
14 0.28
2 -0.43
3 -0.57
4 -0.57
6 0.12

>  <PUBCHEM_EFFECTIVE_ROTOR_COUNT>  (1) 
7

>  <PUBCHEM_PHARMACOPHORE_FEATURES>  (1) 
4
1 10 hydrophobe
1 3 acceptor
1 4 acceptor
4 5 7 8 9 hydrophobe

>  <PUBCHEM_HEAVY_ATOM_COUNT>  (1) 
16

>  <PUBCHEM_ATOM_DEF_STEREO_COUNT>  (1) 
0

>  <PUBCHEM_ATOM_UDEF_STEREO_COUNT>  (1) 
0

>  <PUBCHEM_BOND_DEF_STEREO_COUNT>  (1) 
0

>  <PUBCHEM_BOND_UDEF_STEREO_COUNT>  (1) 
0

>  <PUBCHEM_ISOTOPIC_ATOM_COUNT>  (1) 
0

>  <PUBCHEM_COMPONENT_COUNT>  (1) 
1

>  <PUBCHEM_CACTVS_TAUTO_COUNT>  (1) 
1

>  <PUBCHEM_CONFORMER_ID>  (1) 
00009F0200000001

>  <PUBCHEM_MMFF94_ENERGY>  (1) 
42.0738

>  <PUBCHEM_FEATURE_SELFOVERLAP>  (1) 
20.298

>  <PUBCHEM_SHAPE_FINGERPRINT>  (1) 
11265709 11 18338235946977021099
12326174 3 17842018833273984797
13024252 1 13844536245277997212
14617773 55 18193013520753304570
14713566 1 17686893921646826778
14817 1 16181278228308303712
15001771 113 18190468159951434958
15490181 8 16974198670703878549
15852999 172 17755296022070115691
16945 1 18263382415217978544
21296965 67 18341048523606506007
21339142 149 17335872635693732906
21452121 199 18189317018590638522
2255824 54 18197501946403844591
23402539 116 17622709939292768573
23419403 2 17901345062088759948
23526113 38 18040716982767283099
23598291 2 17844547684786194279
257057 1 18337950069727085418
3060560 45 17905884039367139517
5706482 22 16750991716039073384
6338986 31 18339359665103663843
7364860 26 18267300022651081451
81228 2 17982456988152263475

>  <PUBCHEM_SHAPE_MULTIPOLES>  (1) 
305.8
4.3
3.78
1.35
3.76
0.06
-0.02
-4.9
0.58
-1.94
-0.76
-0.08
0.48
-0.39

>  <PUBCHEM_SHAPE_SELFOVERLAP>  (1) 
590.164

>  <PUBCHEM_SHAPE_VOLUME>  (1) 
187.3

>  <PUBCHEM_COORDINATE_TYPE>  (1) 
2
5
10

$$$$
