40712
     RDKit          3D

 23 25  0  0  1  0  0  0  0  0999 V2000
    0.9211    0.5726   -2.7600 Br  0  0  0  0  0  0  0  0  0  0  0  0
    5.4592   -0.7425    0.1410 S   0  0  0  0  0  0  0  0  0  0  0  0
   -0.2209    2.9062    0.3756 O   0  0  0  0  0  0  0  0  0  0  0  0
    5.7462   -1.5142    1.3421 O   0  0  0  0  0  0  0  0  0  0  0  0
    5.8233   -1.2746   -1.1648 O   0  0  0  0  0  0  0  0  0  0  0  0
   -2.5602    0.3641    0.1134 N   0  0  0  0  0  0  0  0  0  0  0  0
   -0.3293    0.5605    0.1374 N   0  0  0  0  0  0  0  0  0  0  0  0
    6.1435    0.8140    0.3091 N   0  0  0  0  0  0  0  0  0  0  0  0
   -1.3845   -0.4274    0.0363 C   0  0  0  0  0  0  0  0  0  0  0  0
   -2.3514    1.7599    0.2566 C   0  0  0  0  0  0  0  0  0  0  0  0
   -0.8442    1.8594    0.2686 C   0  0  0  0  0  0  0  0  0  0  0  0
    1.0270    0.2585    0.1079 C   0  0  0  0  0  0  0  0  0  0  0  0
   -3.8512   -0.2027    0.0768 C   0  0  0  0  0  0  0  0  0  0  0  0
    1.7499    0.2174   -1.0894 C   0  0  0  0  0  0  0  0  0  0  0  0
    1.6808   -0.0110    1.3149 C   0  0  0  0  0  0  0  0  0  0  0  0
    3.7562   -0.3575    0.1276 C   0  0  0  0  0  0  0  0  0  0  0  0
   -4.9754    0.6160    0.1831 C   0  0  0  0  0  0  0  0  0  0  0  0
   -4.0038   -1.5817   -0.0666 C   0  0  0  0  0  0  0  0  0  0  0  0
    3.1104   -0.0896   -1.0794 C   0  0  0  0  0  0  0  0  0  0  0  0
    3.0412   -0.3181    1.3248 C   0  0  0  0  0  0  0  0  0  0  0  0
   -6.2524    0.0558    0.1461 C   0  0  0  0  0  0  0  0  0  0  0  0
   -5.2807   -2.1420   -0.1038 C   0  0  0  0  0  0  0  0  0  0  0  0
   -6.4049   -1.3231    0.0027 C   0  0  0  0  0  0  0  0  0  0  0  0
  1 14  1  0
  2  4  2  0
  2  5  2  0
  2  8  1  0
  2 16  1  0
  3 11  2  0
  6  9  1  0
  6 10  1  0
  6 13  1  0
  7  9  1  0
  7 11  1  0
  7 12  1  0
 10 11  1  0
 12 14  2  0
 12 15  1  0
 13 17  2  0
 13 18  1  0
 14 19  1  0
 15 20  2  0
 16 19  2  0
 16 20  1  0
 17 21  1  0
 18 22  2  0
 21 23  2  0
 22 23  1  0
M  END
>  <PUBCHEM_COMPOUND_CID>  (1) 
40712

>  <PUBCHEM_CONFORMER_RMSD>  (1) 
0.6

>  <PUBCHEM_CONFORMER_DIVERSEORDER>  (1) 
3
14
11
5
16
9
8
2
13
12
10
15
6
4
7
1

>  <PUBCHEM_MMFF94_PARTIAL_CHARGES>  (1) 
33
1 -0.11
10 0.43
11 0.57
12 0.12
13 0.1
14 0.11
15 -0.15
16 -0.01
17 -0.15
18 -0.15
19 -0.15
2 1.45
20 -0.15
21 -0.15
22 -0.15
23 -0.15
28 0.15
29 0.15
3 -0.57
30 0.15
31 0.15
32 0.15
33 0.15
34 0.15
35 0.15
36 0.42
37 0.42
4 -0.65
5 -0.65
6 -0.84
7 -0.48
8 -0.98
9 0.67

>  <PUBCHEM_EFFECTIVE_ROTOR_COUNT>  (1) 
3.8

>  <PUBCHEM_PHARMACOPHORE_FEATURES>  (1) 
9
1 1 hydrophobe
1 3 acceptor
1 4 acceptor
1 5 acceptor
1 6 cation
1 8 donor
5 6 7 9 10 11 rings
6 12 14 15 16 19 20 rings
6 13 17 18 21 22 23 rings

>  <PUBCHEM_HEAVY_ATOM_COUNT>  (1) 
23

>  <PUBCHEM_ATOM_DEF_STEREO_COUNT>  (1) 
0

>  <PUBCHEM_ATOM_UDEF_STEREO_COUNT>  (1) 
0

>  <PUBCHEM_BOND_DEF_STEREO_COUNT>  (1) 
0

>  <PUBCHEM_BOND_UDEF_STEREO_COUNT>  (1) 
0

>  <PUBCHEM_ISOTOPIC_ATOM_COUNT>  (1) 
0

>  <PUBCHEM_COMPONENT_COUNT>  (1) 
1

>  <PUBCHEM_CACTVS_TAUTO_COUNT>  (1) 
1

>  <PUBCHEM_CONFORMER_ID>  (1) 
00009F0800000003

>  <PUBCHEM_MMFF94_ENERGY>  (1) 
74.6999

>  <PUBCHEM_FEATURE_SELFOVERLAP>  (1) 
45.688

>  <PUBCHEM_SHAPE_FINGERPRINT>  (1) 
10 15 17274810373188339002
11315181 36 18273217517380952561
11524674 6 16559029398322137591
11578080 2 17823391912209751341
12035758 1 16844998066391930250
12166972 35 17894634768088707805
12236239 1 17967814929122700584
12516196 113 18412824706933821457
12633257 1 15841546401109679215
12892183 10 15266798632472741217
13288520 33 18411136944507157891
13402501 40 18060424607566603759
13533116 47 18114177506898682210
13668630 136 17458345247510921731
13685833 64 18341897420061719539
13740256 8 18411418453590431945
13782708 43 17632296739957216854
13862211 1 18411979187509890691
13911987 19 15285938939627109126
14068700 675 18259703389345798820
14251752 14 17968089794814662413
15183329 4 12829482628289959558
15927050 60 17409643689955419664
18681886 176 18187363272168748634
200 152 17313104133341349865
20374829 77 18412263943640804723
20645477 70 14924217184335510944
21033648 29 16630234828262297691
21150785 3 18040443196325227990
21267235 1 18409452527338305075
21623969 137 16558754498697354262
21637258 2 18259976072392325570
21641784 216 14562815379071890318
22079108 93 14548730716528531638
221357 26 15285633305232427935
22224240 67 15913321403416167751
2297311 6 18343306937564182672
23035841 295 18408321073268550547
23402539 116 18411979156991088351
23522609 53 18193587551591455272
23557571 272 18059300850790237285
23559900 14 18338791334062545289
23622692 88 15267340747107533329
26918003 58 16917068871675368563
2916195 48 11097859609415955871
293599 30 8790886285037104555
29717793 49 17821731619818438406
3004659 81 18113617906565895127
3009799 131 15140959578276786860
335352 9 18411133637804567205
3411729 13 18056192720318409592
34797466 226 18272658961253207284
351380 3 18186798080469583491
4325135 7 18409449219944435652
4340502 62 18131348601427787230
465052 167 17846501443728482550
5104073 3 18129671940921573611
559249 180 18408882933007166595
59682541 52 14852151910753801778
59755656 215 18411702045591160247
67856867 119 18261959672810078509
7471813 234 17821452360776146077
7495541 125 18059853991375705184
8863177 126 17826244166638484979

>  <PUBCHEM_SHAPE_MULTIPOLES>  (1) 
450.57
15.65
1.84
1.44
1.99
0.49
0.99
-8.48
-1.25
1.21
-0.22
-1.64
0.22
-0.71

>  <PUBCHEM_SHAPE_SELFOVERLAP>  (1) 
950.171

>  <PUBCHEM_SHAPE_VOLUME>  (1) 
259.4

>  <PUBCHEM_COORDINATE_TYPE>  (1) 
2
5
10

$$$$
