40726
     RDKit          3D

 16 16  0  0  1  0  0  0  0  0999 V2000
    1.2995    2.1772   -1.4958 O   0  0  0  0  0  0  0  0  0  0  0  0
   -1.8903   -0.1965    0.1771 N   0  0  0  0  0  0  0  0  0  0  0  0
   -2.8438    0.8999   -0.0436 C   0  0  0  0  0  0  0  0  0  0  0  0
   -2.3662   -1.4455   -0.4339 C   0  0  0  0  0  0  0  0  0  0  0  0
   -4.2161    0.5638    0.5419 C   0  0  0  0  0  0  0  0  0  0  0  0
   -3.7230   -1.8583    0.1390 C   0  0  0  0  0  0  0  0  0  0  0  0
   -4.7538   -0.7468   -0.0215 C   0  0  0  0  0  0  0  0  0  0  0  0
   -0.5716    0.1591   -0.3463 C   0  0  0  0  0  0  0  0  0  0  0  0
   -0.0332    1.4000    0.3787 C   0  0  0  0  0  0  0  0  0  0  0  0
    1.3602    1.8529   -0.1070 C   0  0  0  0  0  0  0  0  0  0  0  0
    1.7989    3.1108    0.6496 C   0  0  0  0  0  0  0  0  0  0  0  0
    2.3629    0.7896    0.0863 C   0  0  0  0  0  0  0  0  0  0  0  0
    3.1731   -0.0835    0.2421 C   0  0  0  0  0  0  0  0  0  0  0  0
    4.1566   -1.1580    0.4316 C   0  0  0  0  0  0  0  0  0  0  0  0
    3.4963   -2.5330    0.5342 C   0  0  0  0  0  0  0  0  0  0  0  0
    2.7506   -2.9318   -0.7326 C   0  0  0  0  0  0  0  0  0  0  0  0
  1 10  1  0
  2  3  1  0
  2  4  1  0
  2  8  1  0
  3  5  1  0
  4  6  1  0
  5  7  1  0
  6  7  1  0
  8  9  1  0
  9 10  1  0
 10 11  1  0
 10 12  1  0
 12 13  3  0
 13 14  1  0
 14 15  1  0
 15 16  1  0
M  END
>  <PUBCHEM_COMPOUND_CID>  (1) 
40726

>  <PUBCHEM_CONFORMER_RMSD>  (1) 
0.6

>  <PUBCHEM_CONFORMER_DIVERSEORDER>  (1) 
7
130
41
102
156
4
128
68
153
124
144
82
75
23
105
117
152
143
132
37
133
17
64
154
107
44
24
95
85
140
103
137
119
66
45
76
70
62
5
114
146
6
93
145
86
109
148
32
26
15
36
59
46
126
149
134
22
151
101
99
16
147
30
43
60
77
52
78
122
31
135
139
8
98
94
35
55
155
87
127
40
92
67
136
91
150
14
138
121
73
111
81
84
110
72
33
112
42
96
29
11
58
142
61
89
129
18
25
27
116
113
90
34
63
20
65
47
123
125
83
1
12
28
108
115
74
57
21
120
19
50
71
69
2
141
100
49
39
97
9
131
104
88
80
48
118
54
56
10
79
106
53
51
3
38
13

>  <PUBCHEM_MMFF94_PARTIAL_CHARGES>  (1) 
10
1 -0.68
10 0.48
12 -0.2
13 -0.2
14 0.2
2 -0.81
3 0.27
34 0.4
4 0.27
8 0.27

>  <PUBCHEM_EFFECTIVE_ROTOR_COUNT>  (1) 
5.2

>  <PUBCHEM_PHARMACOPHORE_FEATURES>  (1) 
5
1 1 acceptor
1 1 donor
1 16 hydrophobe
1 2 cation
6 2 3 4 5 6 7 rings

>  <PUBCHEM_HEAVY_ATOM_COUNT>  (1) 
16

>  <PUBCHEM_ATOM_DEF_STEREO_COUNT>  (1) 
0

>  <PUBCHEM_ATOM_UDEF_STEREO_COUNT>  (1) 
1

>  <PUBCHEM_BOND_DEF_STEREO_COUNT>  (1) 
0

>  <PUBCHEM_BOND_UDEF_STEREO_COUNT>  (1) 
0

>  <PUBCHEM_ISOTOPIC_ATOM_COUNT>  (1) 
0

>  <PUBCHEM_COMPONENT_COUNT>  (1) 
1

>  <PUBCHEM_CACTVS_TAUTO_COUNT>  (1) 
1

>  <PUBCHEM_CONFORMER_ID>  (1) 
00009F1600000007

>  <PUBCHEM_MMFF94_ENERGY>  (1) 
10.2322

>  <PUBCHEM_FEATURE_SELFOVERLAP>  (1) 
25.371

>  <PUBCHEM_SHAPE_FINGERPRINT>  (1) 
10062212 137 18202560692356120127
10616163 171 18122348148896891455
12107183 9 18197505013189972489
12506688 2 18411135797408005024
12553582 1 18341040844605764654
12617007 42 17167865278778647212
13533116 47 18340205310437361291
14251705 54 18411699851099988766
14252887 29 18411980222454422218
14866123 147 17333091923315496723
15256400 18 18197783206822127009
15352361 1 18338515227573564162
15422964 175 18268986497563079990
15442244 35 18412265021414254777
1813 80 17676493804479279516
18186145 218 17604417613607505993
20281475 54 18408887308872017964
20291156 8 18337670806911746458
20645477 70 18262511619251978651
20871998 22 18337950091618497440
21250096 35 18340484478547051194
221490 88 18262805188719568595
2255824 54 18191872429769058996
23463225 33 18412546539334967277
23559900 14 18339917224946891073
314173 41 18410862027534356886
3421961 26 18411695496076568712
5104073 3 18270688687828967475
58051976 100 18340207492022135599
633830 44 16878219861817608325
6443956 14 18410857620739369768
7097593 13 18342173401279139463
7364860 26 18339921636068149560
9709674 26 18262520419819732291

>  <PUBCHEM_SHAPE_MULTIPOLES>  (1) 
318.42
9.01
3.37
0.86
5.45
0.05
0.15
-5.45
-1.27
-3.44
0.13
-0.28
0.16
-0.18

>  <PUBCHEM_SHAPE_SELFOVERLAP>  (1) 
613.77

>  <PUBCHEM_SHAPE_VOLUME>  (1) 
194.3

>  <PUBCHEM_COORDINATE_TYPE>  (1) 
2
5
10

$$$$
