40722
     RDKit          3D

 13 13  0  0  0  0  0  0  0  0999 V2000
    4.0462    1.8744   -0.4411 O   0  0  0  0  0  0  0  0  0  0  0  0
   -1.1927   -0.0520   -0.3191 N   0  0  0  0  0  0  0  0  0  0  0  0
   -2.3087   -0.9980   -0.1802 C   0  0  0  0  0  0  0  0  0  0  0  0
   -1.6700    1.2762   -0.7288 C   0  0  0  0  0  0  0  0  0  0  0  0
   -3.3239   -0.5061    0.8528 C   0  0  0  0  0  0  0  0  0  0  0  0
   -2.6644    1.8424    0.2860 C   0  0  0  0  0  0  0  0  0  0  0  0
   -3.8328    0.8891    0.5091 C   0  0  0  0  0  0  0  0  0  0  0  0
   -0.2081   -0.5589   -1.2747 C   0  0  0  0  0  0  0  0  0  0  0  0
    0.3796   -1.8813   -0.7762 C   0  0  0  0  0  0  0  0  0  0  0  0
    1.0674   -1.7471    0.5842 C   0  0  0  0  0  0  0  0  0  0  0  0
    2.2233   -0.8414    0.5371 C   0  0  0  0  0  0  0  0  0  0  0  0
    3.1676   -0.1002    0.4994 C   0  0  0  0  0  0  0  0  0  0  0  0
    4.3166    0.8029    0.4515 C   0  0  0  0  0  0  0  0  0  0  0  0
  1 13  1  0
  2  3  1  0
  2  4  1  0
  2  8  1  0
  3  5  1  0
  4  6  1  0
  5  7  1  0
  6  7  1  0
  8  9  1  0
  9 10  1  0
 10 11  1  0
 11 12  3  0
 12 13  1  0
M  END
>  <PUBCHEM_COMPOUND_CID>  (1) 
40722

>  <PUBCHEM_CONFORMER_RMSD>  (1) 
0.6

>  <PUBCHEM_CONFORMER_DIVERSEORDER>  (1) 
3
4
11
2
19
17
20
10
8
9
6
18
12
1
15
16
14
13
5
7

>  <PUBCHEM_MMFF94_PARTIAL_CHARGES>  (1) 
10
1 -0.68
10 0.2
11 -0.2
12 -0.2
13 0.48
2 -0.81
3 0.27
32 0.4
4 0.27
8 0.27

>  <PUBCHEM_EFFECTIVE_ROTOR_COUNT>  (1) 
4.2

>  <PUBCHEM_PHARMACOPHORE_FEATURES>  (1) 
4
1 1 acceptor
1 1 donor
1 2 cation
6 2 3 4 5 6 7 rings

>  <PUBCHEM_HEAVY_ATOM_COUNT>  (1) 
13

>  <PUBCHEM_ATOM_DEF_STEREO_COUNT>  (1) 
0

>  <PUBCHEM_ATOM_UDEF_STEREO_COUNT>  (1) 
0

>  <PUBCHEM_BOND_DEF_STEREO_COUNT>  (1) 
0

>  <PUBCHEM_BOND_UDEF_STEREO_COUNT>  (1) 
0

>  <PUBCHEM_ISOTOPIC_ATOM_COUNT>  (1) 
0

>  <PUBCHEM_COMPONENT_COUNT>  (1) 
1

>  <PUBCHEM_CACTVS_TAUTO_COUNT>  (1) 
1

>  <PUBCHEM_CONFORMER_ID>  (1) 
00009F1200000003

>  <PUBCHEM_MMFF94_ENERGY>  (1) 
3.5665

>  <PUBCHEM_FEATURE_SELFOVERLAP>  (1) 
20.297

>  <PUBCHEM_SHAPE_FINGERPRINT>  (1) 
11031198 65 16773228488085876247
11137873 295 9871463257425722277
11615756 256 17986961747431542049
11769659 78 8214133062566976122
12186901 62 13398623940651856385
122479 349 18410012178165979802
12346645 44 18411416211232667314
13549 16 12031794655783431786
13897977 13 18409166619032074681
14026960 21 18408324384487862388
14123255 52 18272082821001435248
15775835 57 18343300375075525144
17834072 14 11025797626127043382
1798214 20 9583520906382017040
18186145 218 16271920541205097802
201361 129 18336262332532500266
20645477 56 17916581081083702874
20671657 53 8646766711900269106
20711983 171 18202558488789873542
21250096 35 7997971267243325004
21524375 3 18342448253696296150
21652331 79 18409448102614784600
22485316 2 9367347033430793170
23403322 49 8502658116493548768
27216 239 18410009940282108497
3086196 2 12468622924954894918
449060 50 18410859819989459275
59345606 31 9583528598626103284
76465 3 12036027818885164625
9882013 296 18259985985060553475

>  <PUBCHEM_SHAPE_MULTIPOLES>  (1) 
256.68
7.71
2.03
1.02
4.39
0.19
-0.13
4.29
1.96
0.4
-0.17
-0.13
-0.14
-0.22

>  <PUBCHEM_SHAPE_SELFOVERLAP>  (1) 
491.474

>  <PUBCHEM_SHAPE_VOLUME>  (1) 
156.2

>  <PUBCHEM_COORDINATE_TYPE>  (1) 
2
5
10

$$$$
