4073
     RDKit          3D

 37 39  0  0  0  0  0  0  0  0999 V2000
   -6.3166    3.6313    0.5802 S   0  0  0  0  0  0  0  0  0  0  0  0
    7.0073    1.5425   -0.1281 S   0  0  0  0  0  0  0  0  0  0  0  0
   -3.0854   -2.6984    0.1891 O   0  0  0  0  0  0  0  0  0  0  0  0
    4.1408   -2.4926    1.0804 O   0  0  0  0  0  0  0  0  0  0  0  0
    1.9546    1.2678   -0.7228 O   0  0  0  0  0  0  0  0  0  0  0  0
   -6.4965    4.9795   -0.3200 O   0  0  0  0  0  0  0  0  0  0  0  0
   -5.2423    3.8459    1.5325 O   0  0  0  0  0  0  0  0  0  0  0  0
   -7.6280    3.1762    1.0049 O   0  0  0  0  0  0  0  0  0  0  0  0
   -4.3134   -0.9555   -0.6766 N   0  0  0  0  0  0  0  0  0  0  0  0
    5.3975   -0.6045    0.5043 N   0  0  0  0  0  0  0  0  0  0  0  0
    4.2751    1.3254   -0.4264 N   0  0  0  0  0  0  0  0  0  0  0  0
   -4.7627    0.2924   -1.2412 C   0  0  0  0  0  0  0  0  0  0  0  0
    6.6432   -1.2584    0.9399 C   0  0  0  0  0  0  0  0  0  0  0  0
    4.3448    2.6926   -0.9692 C   0  0  0  0  0  0  0  0  0  0  0  0
   -5.2919    1.2237   -0.1551 C   0  0  0  0  0  0  0  0  0  0  0  0
    7.2773   -2.0969   -0.1648 C   0  0  0  0  0  0  0  0  0  0  0  0
    4.1174    3.7556    0.1004 C   0  0  0  0  0  0  0  0  0  0  0  0
   -5.1768   -1.9985   -0.3766 C   0  0  0  0  0  0  0  0  0  0  0  0
    5.5116    0.7282   -0.0129 C   0  0  0  0  0  0  0  0  0  0  0  0
   -3.0382   -1.3824   -0.3325 C   0  0  0  0  0  0  0  0  0  0  0  0
   -5.7367    2.5716   -0.7071 C   0  0  0  0  0  0  0  0  0  0  0  0
    2.9944   -0.6397    0.1864 C   0  0  0  0  0  0  0  0  0  0  0  0
    4.2098   -1.3473    0.6352 C   0  0  0  0  0  0  0  0  0  0  0  0
    3.0017    0.7304   -0.3632 C   0  0  0  0  0  0  0  0  0  0  0  0
   -4.4215   -3.0561    0.1505 C   0  0  0  0  0  0  0  0  0  0  0  0
    8.5575   -2.8001    0.2921 C   0  0  0  0  0  0  0  0  0  0  0  0
    4.1618    5.1772   -0.4645 C   0  0  0  0  0  0  0  0  0  0  0  0
   -6.5433   -2.1289   -0.5109 C   0  0  0  0  0  0  0  0  0  0  0  0
   -1.8650   -0.7468   -0.4289 C   0  0  0  0  0  0  0  0  0  0  0  0
    1.8168   -1.2779    0.2831 C   0  0  0  0  0  0  0  0  0  0  0  0
   -4.9714   -4.2516    0.5546 C   0  0  0  0  0  0  0  0  0  0  0  0
    9.1338   -3.6753   -0.8100 C   0  0  0  0  0  0  0  0  0  0  0  0
    3.8722    6.2117    0.6119 C   0  0  0  0  0  0  0  0  0  0  0  0
   -7.1314   -3.3345   -0.1077 C   0  0  0  0  0  0  0  0  0  0  0  0
   -0.6082   -1.3332   -0.0232 C   0  0  0  0  0  0  0  0  0  0  0  0
   -6.3532   -4.3843    0.4192 C   0  0  0  0  0  0  0  0  0  0  0  0
    0.5645   -0.6891   -0.1230 C   0  0  0  0  0  0  0  0  0  0  0  0
  1  6  1  0
  1  7  2  0
  1  8  2  0
  1 21  1  0
  2 19  2  0
  3 20  1  0
  3 25  1  0
  4 23  2  0
  5 24  2  0
  9 12  1  0
  9 18  1  0
  9 20  1  0
 10 13  1  0
 10 19  1  0
 10 23  1  0
 11 14  1  0
 11 19  1  0
 11 24  1  0
 12 15  1  0
 13 16  1  0
 14 17  1  0
 15 21  1  0
 16 26  1  0
 17 27  1  0
 18 25  2  0
 18 28  1  0
 20 29  2  0
 22 23  1  0
 22 24  1  0
 22 30  2  0
 25 31  1  0
 26 32  1  0
 27 33  1  0
 28 34  2  0
 29 35  1  0
 30 37  1  0
 31 36  2  0
 34 36  1  0
 35 37  2  0
M  END
>  <PUBCHEM_COMPOUND_CID>  (1) 
4073

>  <PUBCHEM_CONFORMER_RMSD>  (1) 
1.2

>  <PUBCHEM_CONFORMER_DIVERSEORDER>  (1) 
1
38
44
41
7
3
24
29
18
36
42
11
8
19
45
9
28
26
35
33
22
34
40
39
20
12
43
13
27
21
30
37
32
4
6
5
2
23
17
10
25
31
14
16
15

>  <PUBCHEM_MMFF94_PARTIAL_CHARGES>  (1) 
39
1 1.38
10 -0.42
11 -0.42
12 0.37
13 0.3
14 0.3
18 0.1
19 0.5
2 -0.38
20 0.18
21 0.11
22 0.03
23 0.62
24 0.62
25 0.08
28 -0.15
29 -0.15
3 -0.16
30 -0.15
31 -0.15
34 -0.15
35 -0.15
36 -0.15
37 -0.15
4 -0.57
5 -0.57
56 0.15
57 0.15
58 0.15
59 0.15
6 -0.68
66 0.15
67 0.15
68 0.15
69 0.15
7 -0.65
70 0.5
8 -0.65
9 -0.57

>  <PUBCHEM_EFFECTIVE_ROTOR_COUNT>  (1) 
12.8

>  <PUBCHEM_PHARMACOPHORE_FEATURES>  (1) 
15
1 2 acceptor
1 22 anion
1 3 acceptor
1 32 hydrophobe
1 33 hydrophobe
1 4 acceptor
1 5 acceptor
1 6 acceptor
1 7 acceptor
1 8 acceptor
1 9 cation
4 1 6 7 8 anion
5 3 9 18 20 25 rings
6 10 11 19 22 23 24 rings
6 18 25 28 31 34 36 rings

>  <PUBCHEM_HEAVY_ATOM_COUNT>  (1) 
37

>  <PUBCHEM_ATOM_DEF_STEREO_COUNT>  (1) 
0

>  <PUBCHEM_ATOM_UDEF_STEREO_COUNT>  (1) 
0

>  <PUBCHEM_BOND_DEF_STEREO_COUNT>  (1) 
0

>  <PUBCHEM_BOND_UDEF_STEREO_COUNT>  (1) 
2

>  <PUBCHEM_ISOTOPIC_ATOM_COUNT>  (1) 
0

>  <PUBCHEM_COMPONENT_COUNT>  (1) 
1

>  <PUBCHEM_CACTVS_TAUTO_COUNT>  (1) 
1

>  <PUBCHEM_CONFORMER_ID>  (1) 
00000FE900000001

>  <PUBCHEM_MMFF94_ENERGY>  (1) 
104.0385

>  <PUBCHEM_FEATURE_SELFOVERLAP>  (1) 
76.288

>  <PUBCHEM_SHAPE_FINGERPRINT>  (1) 
10050765 1 18410011078164066217
10411042 1 18409727323952158466
10595046 47 18261953067440390783
12082328 90 18411696595124596502
12107183 9 18118959201031484219
15152005 290 18267020549936440749
15347591 1 18410856606916416129
15890870 6 18195242223230780909
17844677 252 18335703883599374871
19302320 297 18339647711781537145
21130935 74 18192715772331009331
21814621 53 18201708562133457482
23522609 53 17750254563608958028
23569943 247 16806985689713568610
4073 2 17676487306289544378
4144715 1 18335425702699283850
4625314 4 18335978774671224607
5104073 3 18114174263507108219
9831232 110 18342463591700400318

>  <PUBCHEM_SHAPE_MULTIPOLES>  (1) 
718.98
28.15
8.18
0.94
7.39
10.37
0.04
-10.02
0.56
-3.71
1.29
-0.22
0.27
-0.98

>  <PUBCHEM_SHAPE_SELFOVERLAP>  (1) 
1471.024

>  <PUBCHEM_SHAPE_VOLUME>  (1) 
418.4

>  <PUBCHEM_COORDINATE_TYPE>  (1) 
2
5
10

$$$$
