40735
     RDKit          3D

 28 29  0  0  1  0  0  0  0  0999 V2000
    0.5973   -3.0247    1.7258 O   0  0  0  0  0  0  0  0  0  0  0  0
    1.8133   -0.6530    0.8578 O   0  0  0  0  0  0  0  0  0  0  0  0
   -7.9299    1.5312   -1.5398 O   0  0  0  0  0  0  0  0  0  0  0  0
    1.6450    1.9351    2.0638 O   0  0  0  0  0  0  0  0  0  0  0  0
    0.6020    2.8163    0.2104 O   0  0  0  0  0  0  0  0  0  0  0  0
   -2.3765   -1.3634    0.2627 N   0  0  0  0  0  0  0  0  0  0  0  0
   -4.9353   -0.0699   -0.1087 N   0  0  0  0  0  0  0  0  0  0  0  0
   -3.3628   -1.8851   -0.6915 C   0  0  0  0  0  0  0  0  0  0  0  0
   -3.0502   -0.6744    1.3701 C   0  0  0  0  0  0  0  0  0  0  0  0
   -4.2626   -0.7608   -1.2156 C   0  0  0  0  0  0  0  0  0  0  0  0
   -3.9490    0.4508    0.8459 C   0  0  0  0  0  0  0  0  0  0  0  0
   -1.5203   -2.4369    0.7632 C   0  0  0  0  0  0  0  0  0  0  0  0
   -0.1863   -1.9080    1.2955 C   0  0  0  0  0  0  0  0  0  0  0  0
   -5.7900    1.0045   -0.6101 C   0  0  0  0  0  0  0  0  0  0  0  0
    0.6124   -1.1255    0.2554 C   0  0  0  0  0  0  0  0  0  0  0  0
   -7.1271    0.4527   -1.0779 C   0  0  0  0  0  0  0  0  0  0  0  0
    2.6631    0.0622    0.0571 C   0  0  0  0  0  0  0  0  0  0  0  0
    3.6558   -0.6000   -0.6654 C   0  0  0  0  0  0  0  0  0  0  0  0
    3.8052   -2.0832   -0.5780 C   0  0  0  0  0  0  0  0  0  0  0  0
    2.5392    1.4484   -0.0373 C   0  0  0  0  0  0  0  0  0  0  0  0
    4.5243    0.1241   -1.4821 C   0  0  0  0  0  0  0  0  0  0  0  0
    3.4077    2.1724   -0.8541 C   0  0  0  0  0  0  0  0  0  0  0  0
    3.5768   -2.7771   -1.9334 C   0  0  0  0  0  0  0  0  0  0  0  0
    5.1684   -2.5026    0.0021 C   0  0  0  0  0  0  0  0  0  0  0  0
    4.4003    1.5102   -1.5766 C   0  0  0  0  0  0  0  0  0  0  0  0
    1.4997    2.1375    0.7201 C   0  0  0  0  0  0  0  0  0  0  0  0
    3.2991    3.6577   -0.9757 C   0  0  0  0  0  0  0  0  0  0  0  0
    0.6805    2.5617    2.9162 C   0  0  0  0  0  0  0  0  0  0  0  0
  1 13  1  0
  2 15  1  0
  2 17  1  0
  3 16  1  0
  4 26  1  0
  4 28  1  0
  5 26  2  0
  6  8  1  0
  6  9  1  0
  6 12  1  0
  7 10  1  0
  7 11  1  0
  7 14  1  0
  8 10  1  0
  9 11  1  0
 12 13  1  0
 13 15  1  0
 14 16  1  0
 17 18  2  0
 17 20  1  0
 18 19  1  0
 18 21  1  0
 19 23  1  0
 19 24  1  0
 20 22  2  0
 20 26  1  0
 21 25  2  0
 22 25  1  0
 22 27  1  0
M  END
>  <PUBCHEM_COMPOUND_CID>  (1) 
40735

>  <PUBCHEM_CONFORMER_RMSD>  (1) 
1

>  <PUBCHEM_CONFORMER_DIVERSEORDER>  (1) 
1
117
98
75
95
71
115
94
63
74
9
77
91
114
51
61
110
58
86
22
101
10
111
68
49
82
35
38
8
93
55
106
36
30
42
56
6
53
23
57
89
118
104
105
64
11
83
103
48
99
92
112
65
66
113
102
69
32
108
52
43
60
85
78
13
84
18
100
7
20
97
72
27
17
16
80
37
88
70
26
34
19
107
59
15
44
31
33
2
4
109
39
45
73
67
90
116
79
28
3
62
25
14
47
54
50
29
119
5
76
46
96
21
87
24
40
12
41
81

>  <PUBCHEM_MMFF94_PARTIAL_CHARGES>  (1) 
30
1 -0.68
10 0.27
11 0.27
12 0.27
13 0.28
14 0.27
15 0.28
16 0.28
17 0.08
18 -0.14
19 0.14
2 -0.36
20 0.09
21 -0.15
22 -0.14
25 -0.15
26 0.63
27 0.14
28 0.28
3 -0.68
4 -0.43
46 0.4
48 0.15
49 0.4
5 -0.57
56 0.15
6 -0.81
7 -0.81
8 0.27
9 0.27

>  <PUBCHEM_EFFECTIVE_ROTOR_COUNT>  (1) 
11.2

>  <PUBCHEM_PHARMACOPHORE_FEATURES>  (1) 
11
1 1 acceptor
1 1 donor
1 2 acceptor
1 3 acceptor
1 3 donor
1 5 acceptor
1 6 cation
1 7 cation
3 19 23 24 hydrophobe
6 17 18 20 21 22 25 rings
6 6 7 8 9 10 11 rings

>  <PUBCHEM_HEAVY_ATOM_COUNT>  (1) 
28

>  <PUBCHEM_ATOM_DEF_STEREO_COUNT>  (1) 
0

>  <PUBCHEM_ATOM_UDEF_STEREO_COUNT>  (1) 
1

>  <PUBCHEM_BOND_DEF_STEREO_COUNT>  (1) 
0

>  <PUBCHEM_BOND_UDEF_STEREO_COUNT>  (1) 
0

>  <PUBCHEM_ISOTOPIC_ATOM_COUNT>  (1) 
0

>  <PUBCHEM_COMPONENT_COUNT>  (1) 
1

>  <PUBCHEM_CACTVS_TAUTO_COUNT>  (1) 
1

>  <PUBCHEM_CONFORMER_ID>  (1) 
00009F1F00000001

>  <PUBCHEM_MMFF94_ENERGY>  (1) 
77.2816

>  <PUBCHEM_FEATURE_SELFOVERLAP>  (1) 
55.826

>  <PUBCHEM_SHAPE_FINGERPRINT>  (1) 
10675989 125 18334582317604385384
10764073 3 17982131718095883968
116883 192 18198080092421148462
11720765 8 18413103940597168328
12788726 201 17986979378773270264
13944108 23 17973156237058734573
14251757 17 18114760333475361658
14537116 161 18272926104029806133
146900 427 11314321563045868038
14848178 96 18261671571025292693
14931854 50 18340217314174576300
15183329 4 18131636664741398501
15210252 30 17967816101855261388
15322687 12 18333731329668832673
18608769 82 17974859672622667483
20642791 13 18127981798192146658
21033648 29 17822012063997443685
21315764 21 18335426793578201280
221357 26 18340204098955754253
22289505 5 18411423925246917886
22393880 68 17843414126794550694
23559900 14 18202273702536393603
238 59 17769945902372371590
27425 322 16371296660959818244
3380486 77 18261675862141415954
4066623 53 18200867392541174273
513532 50 18271790337707008163
59682541 52 18130784543219381391
633830 44 18260823834628533047
7399639 24 17405150015686240914
9862260 156 18261947436659092930

>  <PUBCHEM_SHAPE_MULTIPOLES>  (1) 
536.92
14.38
3.94
1.96
28
0.77
-0.81
2.23
9.95
-4.58
-0.43
-0.1
0.64
0.85

>  <PUBCHEM_SHAPE_SELFOVERLAP>  (1) 
1093.553

>  <PUBCHEM_SHAPE_VOLUME>  (1) 
314.2

>  <PUBCHEM_COORDINATE_TYPE>  (1) 
2
5
10

$$$$
