40733
     RDKit          3D

 30 31  0  0  1  0  0  0  0  0999 V2000
    0.8028   -3.1625   -0.0635 O   0  0  0  0  0  0  0  0  0  0  0  0
    1.0097   -0.3971   -0.2666 O   0  0  0  0  0  0  0  0  0  0  0  0
   -8.3874    1.0625    0.1183 O   0  0  0  0  0  0  0  0  0  0  0  0
    4.3235   -0.7312   -0.6230 O   0  0  0  0  0  0  0  0  0  0  0  0
    3.7802   -0.9343    1.6047 O   0  0  0  0  0  0  0  0  0  0  0  0
   -2.4007   -1.3041   -0.2318 N   0  0  0  0  0  0  0  0  0  0  0  0
   -5.1797   -0.7389    0.3304 N   0  0  0  0  0  0  0  0  0  0  0  0
   -3.3799   -1.1444   -1.3139 C   0  0  0  0  0  0  0  0  0  0  0  0
   -3.0538   -1.8191    0.9778 C   0  0  0  0  0  0  0  0  0  0  0  0
   -4.5272   -0.2255   -0.8803 C   0  0  0  0  0  0  0  0  0  0  0  0
   -4.2002   -0.8994    1.4120 C   0  0  0  0  0  0  0  0  0  0  0  0
   -1.3081   -2.1821   -0.6458 C   0  0  0  0  0  0  0  0  0  0  0  0
   -0.2392   -2.3220    0.4407 C   0  0  0  0  0  0  0  0  0  0  0  0
   -6.2710    0.1407    0.7447 C   0  0  0  0  0  0  0  0  0  0  0  0
    0.3730   -0.9880    0.8621 C   0  0  0  0  0  0  0  0  0  0  0  0
   -7.3411    0.2127   -0.3329 C   0  0  0  0  0  0  0  0  0  0  0  0
    1.6035    0.8210   -0.0703 C   0  0  0  0  0  0  0  0  0  0  0  0
    0.8660    1.9856   -0.2673 C   0  0  0  0  0  0  0  0  0  0  0  0
   -0.5651    1.9273   -0.6899 C   0  0  0  0  0  0  0  0  0  0  0  0
    2.9374    0.8916    0.3236 C   0  0  0  0  0  0  0  0  0  0  0  0
    3.5377    2.1349    0.5220 C   0  0  0  0  0  0  0  0  0  0  0  0
    1.4664    3.2291   -0.0692 C   0  0  0  0  0  0  0  0  0  0  0  0
   -1.5117    2.5442    0.3561 C   0  0  0  0  0  0  0  0  0  0  0  0
   -0.7994    2.5860   -2.0617 C   0  0  0  0  0  0  0  0  0  0  0  0
    2.8021    3.3037    0.3257 C   0  0  0  0  0  0  0  0  0  0  0  0
    3.7035   -0.3334    0.5279 C   0  0  0  0  0  0  0  0  0  0  0  0
    4.9664    2.2466    0.9450 C   0  0  0  0  0  0  0  0  0  0  0  0
    5.1080   -1.9265   -0.5503 C   0  0  0  0  0  0  0  0  0  0  0  0
    5.6893   -2.2280   -1.9232 C   0  0  0  0  0  0  0  0  0  0  0  0
    6.1949   -1.7493    0.4989 C   0  0  0  0  0  0  0  0  0  0  0  0
  1 13  1  0
  2 15  1  0
  2 17  1  0
  3 16  1  0
  4 26  1  0
  4 28  1  0
  5 26  2  0
  6  8  1  0
  6  9  1  0
  6 12  1  0
  7 10  1  0
  7 11  1  0
  7 14  1  0
  8 10  1  0
  9 11  1  0
 12 13  1  0
 13 15  1  0
 14 16  1  0
 17 18  2  0
 17 20  1  0
 18 19  1  0
 18 22  1  0
 19 23  1  0
 19 24  1  0
 20 21  2  0
 20 26  1  0
 21 25  1  0
 21 27  1  0
 22 25  2  0
 28 29  1  0
 28 30  1  0
M  END
>  <PUBCHEM_COMPOUND_CID>  (1) 
40733

>  <PUBCHEM_CONFORMER_RMSD>  (1) 
1.2

>  <PUBCHEM_CONFORMER_DIVERSEORDER>  (1) 
1
70
79
58
5
31
72
18
74
67
43
44
78
73
39
26
40
4
68
47
37
27
66
62
75
65
50
3
29
36
16
52
32
6
49
46
60
48
41
34
14
12
42
30
53
21
59
61
69
57
20
9
25
35
11
22
2
51
15
64
76
28
54
63
71
24
13
7
38
77
45
33
8
55
19
56
23
10
17

>  <PUBCHEM_MMFF94_PARTIAL_CHARGES>  (1) 
30
1 -0.68
10 0.27
11 0.27
12 0.27
13 0.28
14 0.27
15 0.28
16 0.28
17 0.08
18 -0.14
19 0.14
2 -0.36
20 0.09
21 -0.14
22 -0.15
25 -0.15
26 0.63
27 0.14
28 0.28
3 -0.68
4 -0.43
48 0.4
5 -0.57
50 0.15
51 0.4
58 0.15
6 -0.81
7 -0.81
8 0.27
9 0.27

>  <PUBCHEM_EFFECTIVE_ROTOR_COUNT>  (1) 
12.2

>  <PUBCHEM_PHARMACOPHORE_FEATURES>  (1) 
12
1 1 acceptor
1 1 donor
1 2 acceptor
1 3 acceptor
1 3 donor
1 5 acceptor
1 6 cation
1 7 cation
3 19 23 24 hydrophobe
3 28 29 30 hydrophobe
6 17 18 20 21 22 25 rings
6 6 7 8 9 10 11 rings

>  <PUBCHEM_HEAVY_ATOM_COUNT>  (1) 
30

>  <PUBCHEM_ATOM_DEF_STEREO_COUNT>  (1) 
0

>  <PUBCHEM_ATOM_UDEF_STEREO_COUNT>  (1) 
1

>  <PUBCHEM_BOND_DEF_STEREO_COUNT>  (1) 
0

>  <PUBCHEM_BOND_UDEF_STEREO_COUNT>  (1) 
0

>  <PUBCHEM_ISOTOPIC_ATOM_COUNT>  (1) 
0

>  <PUBCHEM_COMPONENT_COUNT>  (1) 
1

>  <PUBCHEM_CACTVS_TAUTO_COUNT>  (1) 
1

>  <PUBCHEM_CONFORMER_ID>  (1) 
00009F1D00000001

>  <PUBCHEM_MMFF94_ENERGY>  (1) 
82.6049

>  <PUBCHEM_FEATURE_SELFOVERLAP>  (1) 
60.901

>  <PUBCHEM_SHAPE_FINGERPRINT>  (1) 
10319926 262 17385730240238501187
10692045 39 18341339942197131535
10906281 52 17899134090778159040
11135609 12 18261384573227554872
11513181 2 18129103501356694614
11578080 2 17129562808131162352
12236239 1 17988640831258705151
12422481 6 18272660021418850731
12788726 201 18115025191635405098
13140716 1 18263922305371058394
13402501 40 18186795873330971589
13533116 47 18059856185803351920
14117953 113 18341613668957771645
15001296 14 18335133254508140273
15081414 286 18336263565167190372
15840311 113 18412827997923547813
16087824 20 18408885114144229893
16112460 7 18413112761811356216
173720 79 12751234770860643798
18335252 114 18341606011031271101
20028762 73 18201720626359065743
20511986 3 17844519105741672977
20739085 24 18260555562407404229
21279426 13 18336257964571872317
21298829 104 18342178861217177905
21421861 104 17896297251920065520
22182313 1 18263062414917717300
23559900 14 18271243949806720010
23566358 2 18336811066571485172
24893992 56 18187650211652258355
25223398 141 17386830734870534220
2838139 119 18412823574138426589
335352 9 18410575089100776679
350125 39 18409729552217200368
4144715 1 18190471639334478795
57527293 21 17913738792493392210
57724786 102 18115306820835189013
59755656 215 18336550404420988167

>  <PUBCHEM_SHAPE_MULTIPOLES>  (1) 
578.08
15.78
3.88
1.33
19.95
1.49
0.37
-3.66
-0.68
-4.05
0.44
-0.32
-0.15
1.57

>  <PUBCHEM_SHAPE_SELFOVERLAP>  (1) 
1175.78

>  <PUBCHEM_SHAPE_VOLUME>  (1) 
338.9

>  <PUBCHEM_COORDINATE_TYPE>  (1) 
2
5
10

$$$$
