40740
     RDKit          3D

 14 14  0  0  0  0  0  0  0  0999 V2000
    4.4058    0.8390    0.6293 Cl  0  0  0  0  0  0  0  0  0  0  0  0
   -4.7292    0.6848    0.6965 Cl  0  0  0  0  0  0  0  0  0  0  0  0
   -1.1949   -0.0267   -0.9127 O   0  0  0  0  0  0  0  0  0  0  0  0
   -1.8539    0.9451    1.1069 O   0  0  0  0  0  0  0  0  0  0  0  0
    0.7949   -0.8187    0.1645 C   0  0  0  0  0  0  0  0  0  0  0  0
    0.1259   -2.0981    0.5453 C   0  0  0  0  0  0  0  0  0  0  0  0
    0.1044    0.1617   -0.5481 C   0  0  0  0  0  0  0  0  0  0  0  0
    2.1250   -0.6092    0.5289 C   0  0  0  0  0  0  0  0  0  0  0  0
    0.2951   -3.1524   -0.5116 C   0  0  0  0  0  0  0  0  0  0  0  0
    0.7439    1.3514   -0.8963 C   0  0  0  0  0  0  0  0  0  0  0  0
    2.7645    0.5804    0.1806 C   0  0  0  0  0  0  0  0  0  0  0  0
    2.0740    1.5607   -0.5320 C   0  0  0  0  0  0  0  0  0  0  0  0
   -2.1342    0.4241    0.0360 C   0  0  0  0  0  0  0  0  0  0  0  0
   -3.5210    0.1580   -0.4872 C   0  0  0  0  0  0  0  0  0  0  0  0
  1 11  1  0
  2 14  1  0
  3  7  1  0
  3 13  1  0
  4 13  2  0
  5  6  1  0
  5  7  2  0
  5  8  1  0
  6  9  1  0
  7 10  1  0
  8 11  2  0
 10 12  2  0
 11 12  1  0
 13 14  1  0
M  END
>  <PUBCHEM_COMPOUND_CID>  (1) 
40740

>  <PUBCHEM_CONFORMER_RMSD>  (1) 
0.6

>  <PUBCHEM_CONFORMER_DIVERSEORDER>  (1) 
1
52
13
57
31
60
59
4
45
42
16
51
49
20
27
32
50
22
19
53
58
28
39
38
26
48
18
34
40
46
47
33
23
6
37
56
30
10
25
41
5
14
54
35
2
17
7
36
12
43
21
8
24
3
15
11
55
29
44
9

>  <PUBCHEM_MMFF94_PARTIAL_CHARGES>  (1) 
16
1 -0.18
10 -0.15
11 0.18
12 -0.15
13 0.66
14 0.35
17 0.15
2 -0.29
21 0.15
22 0.15
3 -0.23
4 -0.57
5 -0.14
6 0.14
7 0.08
8 -0.15

>  <PUBCHEM_EFFECTIVE_ROTOR_COUNT>  (1) 
4

>  <PUBCHEM_PHARMACOPHORE_FEATURES>  (1) 
3
1 4 acceptor
1 9 hydrophobe
6 5 7 8 10 11 12 rings

>  <PUBCHEM_HEAVY_ATOM_COUNT>  (1) 
14

>  <PUBCHEM_ATOM_DEF_STEREO_COUNT>  (1) 
0

>  <PUBCHEM_ATOM_UDEF_STEREO_COUNT>  (1) 
0

>  <PUBCHEM_BOND_DEF_STEREO_COUNT>  (1) 
0

>  <PUBCHEM_BOND_UDEF_STEREO_COUNT>  (1) 
0

>  <PUBCHEM_ISOTOPIC_ATOM_COUNT>  (1) 
0

>  <PUBCHEM_COMPONENT_COUNT>  (1) 
1

>  <PUBCHEM_CACTVS_TAUTO_COUNT>  (1) 
1

>  <PUBCHEM_CONFORMER_ID>  (1) 
00009F2400000001

>  <PUBCHEM_MMFF94_ENERGY>  (1) 
32.4953

>  <PUBCHEM_FEATURE_SELFOVERLAP>  (1) 
15.223

>  <PUBCHEM_SHAPE_FINGERPRINT>  (1) 
10219947 1 18260264127142752820
10465860 228 18197507229371815713
10922049 32 18342461447677457134
11132069 177 18334009510157590299
11471102 22 17967819322879733633
12119455 92 18114452422726887368
12251169 10 17967252017945414777
12346645 6 18336828598010477503
13380535 76 18334015008090529051
14251717 144 18335134285199732935
14617773 55 17758678137090746718
14993402 34 18335137613751966572
15207287 21 17312821572048935755
15309172 13 18334008402251180780
15502708 68 18335979783565824575
15775835 57 18131350808428820257
15906896 17 18056194923599377838
16945 1 17676213463305304516
18186145 218 18413387639728485652
201361 129 18129386994777895953
204376 136 18409450322922641265
20645477 70 18263351500718700047
20871998 22 17905607696576154039
21501502 16 17901100043185094724
21524375 3 18408602595215406146
23402539 116 17917422168196764684
23419403 2 14927279242493727691
25147074 1 17753323468619939436
2748010 2 18335714852924795302
276578 36 18343304755736529587
305870 269 18341614750630231392
366044 4 18410853287186115314
7364860 26 18199190581436700359
81228 2 17613986813132264018
8272917 22 18338803291282775293

>  <PUBCHEM_SHAPE_MULTIPOLES>  (1) 
280.11
6.76
2.23
0.97
3.95
2.41
0.02
-3.67
2.03
-0.68
-0.31
0.15
-0.11
-0.3

>  <PUBCHEM_SHAPE_SELFOVERLAP>  (1) 
557.536

>  <PUBCHEM_SHAPE_VOLUME>  (1) 
168

>  <PUBCHEM_COORDINATE_TYPE>  (1) 
2
5
10

$$$$
