40747
     RDKit          3D

 23 24  0  0  0  0  0  0  0  0999 V2000
   -2.7060    0.0905   -0.9104 O   0  0  0  0  0  0  0  0  0  0  0  0
    2.8143    0.1412   -0.9544 O   0  0  0  0  0  0  0  0  0  0  0  0
   -2.6445    0.8648    1.2950 O   0  0  0  0  0  0  0  0  0  0  0  0
    2.7755    0.9136    1.2522 O   0  0  0  0  0  0  0  0  0  0  0  0
   -0.6420   -1.0830   -0.5088 C   0  0  0  0  0  0  0  0  0  0  0  0
    0.7732   -1.0740   -0.5186 C   0  0  0  0  0  0  0  0  0  0  0  0
   -1.3388    0.0684   -0.9099 C   0  0  0  0  0  0  0  0  0  0  0  0
   -0.6503    1.2123   -1.3149 C   0  0  0  0  0  0  0  0  0  0  0  0
    1.4498    0.0860   -0.9292 C   0  0  0  0  0  0  0  0  0  0  0  0
    0.7414    1.2210   -1.3245 C   0  0  0  0  0  0  0  0  0  0  0  0
   -1.3187   -2.2431   -0.0981 C   0  0  0  0  0  0  0  0  0  0  0  0
    1.4700   -2.2255   -0.1174 C   0  0  0  0  0  0  0  0  0  0  0  0
   -1.3875    2.4392   -1.7416 C   0  0  0  0  0  0  0  0  0  0  0  0
   -4.7790    0.5072    0.1786 C   0  0  0  0  0  0  0  0  0  0  0  0
   -0.6102   -3.3781    0.2972 C   0  0  0  0  0  0  0  0  0  0  0  0
    0.7815   -3.3693    0.2876 C   0  0  0  0  0  0  0  0  0  0  0  0
    4.8975    0.6078    0.0973 C   0  0  0  0  0  0  0  0  0  0  0  0
   -5.4609    0.9466    1.4717 C   0  0  0  0  0  0  0  0  0  0  0  0
   -3.2712    0.5255    0.3004 C   0  0  0  0  0  0  0  0  0  0  0  0
    5.5896    1.1102    1.3618 C   0  0  0  0  0  0  0  0  0  0  0  0
    3.3922    0.5895    0.2464 C   0  0  0  0  0  0  0  0  0  0  0  0
   -6.9750    0.8925    1.3497 C   0  0  0  0  0  0  0  0  0  0  0  0
    7.0991    1.1565    1.1900 C   0  0  0  0  0  0  0  0  0  0  0  0
  1  7  1  0
  1 19  1  0
  2  9  1  0
  2 21  1  0
  3 19  2  0
  4 21  2  0
  5  6  1  0
  5  7  2  0
  5 11  1  0
  6  9  2  0
  6 12  1  0
  7  8  1  0
  8 10  2  0
  8 13  1  0
  9 10  1  0
 11 15  2  0
 12 16  2  0
 14 18  1  0
 14 19  1  0
 15 16  1  0
 17 20  1  0
 17 21  1  0
 18 22  1  0
 20 23  1  0
M  END
>  <PUBCHEM_COMPOUND_CID>  (1) 
40747

>  <PUBCHEM_CONFORMER_RMSD>  (1) 
0.8

>  <PUBCHEM_CONFORMER_DIVERSEORDER>  (1) 
1
70
78
63
68
51
6
52
38
74
45
49
73
12
80
54
56
2
58
66
34
35
21
75
39
28
53
22
25
65
37
32
26
33
72
16
46
81
40
27
23
10
67
30
62
47
42
55
18
31
17
15
76
69
4
41
36
57
20
14
29
79
44
8
71
7
77
5
59
43
24
48
13
9
50
19
3
60
61
11
64

>  <PUBCHEM_MMFF94_PARTIAL_CHARGES>  (1) 
22
1 -0.23
10 -0.15
11 -0.15
12 -0.15
13 0.14
14 0.06
15 -0.15
16 -0.15
17 0.06
19 0.66
2 -0.23
21 0.66
24 0.15
25 0.15
26 0.15
3 -0.57
32 0.15
33 0.15
4 -0.57
7 0.08
8 -0.14
9 0.08

>  <PUBCHEM_EFFECTIVE_ROTOR_COUNT>  (1) 
8

>  <PUBCHEM_PHARMACOPHORE_FEATURES>  (1) 
6
1 22 hydrophobe
1 23 hydrophobe
1 3 acceptor
1 4 acceptor
6 5 6 11 12 15 16 rings
6 5 6 7 8 9 10 rings

>  <PUBCHEM_HEAVY_ATOM_COUNT>  (1) 
23

>  <PUBCHEM_ATOM_DEF_STEREO_COUNT>  (1) 
0

>  <PUBCHEM_ATOM_UDEF_STEREO_COUNT>  (1) 
0

>  <PUBCHEM_BOND_DEF_STEREO_COUNT>  (1) 
0

>  <PUBCHEM_BOND_UDEF_STEREO_COUNT>  (1) 
0

>  <PUBCHEM_ISOTOPIC_ATOM_COUNT>  (1) 
0

>  <PUBCHEM_COMPONENT_COUNT>  (1) 
1

>  <PUBCHEM_CACTVS_TAUTO_COUNT>  (1) 
1

>  <PUBCHEM_CONFORMER_ID>  (1) 
00009F2B00000001

>  <PUBCHEM_MMFF94_ENERGY>  (1) 
58.4613

>  <PUBCHEM_FEATURE_SELFOVERLAP>  (1) 
30.473

>  <PUBCHEM_SHAPE_FINGERPRINT>  (1) 
10165383 225 18413389839047179384
10493431 412 18411418422966497999
106641 1 18187649153729547313
10693767 8 8430311295253299873
11578080 2 18124024642748350001
11796584 16 14996283613606638465
12596602 18 17845943935983818291
12633257 1 18338790225966393824
12892183 10 18267316331111487241
12930653 34 18190736432056662581
13140716 1 18116719710134762972
13540713 4 17898846838399938173
13540713 5 17826803834376457764
13583140 156 16153969314495964814
14178342 30 18336273426654604127
14341114 328 17846498093727754011
14787075 74 18059854000060604529
14790565 3 18116740519468292213
14863182 85 18042710341761961599
15042514 8 18115019844163705326
15209294 21 18272369780176473166
15295992 7 17773866683617137848
15420108 30 18412539912396446283
15475509 84 17320727266912121195
16945 1 18259985972128244407
18643901 69 12035717675107209416
19784866 240 13262402146140497169
20511986 3 18270679759003551345
20600515 1 18339367469291538308
21403212 168 18341608196399439536
21475661 188 17632288025252360728
21637258 2 14273732988360307769
21756936 100 17917985105138462546
22079108 93 18272934929285135785
221357 26 10375587050208282947
22182313 1 17970061145537021615
22224240 67 18411418423330547009
22956985 138 17316196930870811410
23379529 103 10666390356225498473
23559900 14 18340217358305800726
25147074 1 17898014783102154278
2748010 2 17898846842510380191
2838139 119 16630803313785686824
350125 39 18191592938977354102
392239 28 18130237055169318411
427121 178 18342463620703984035
4340502 62 18342466928356212395
465052 167 17022916665537208249
5104073 3 18044090155397186697
5385378 56 18341331102964967874
57527306 92 16917347021994393761
58807428 26 18333728022623532218
59755656 520 18273208707770220558

>  <PUBCHEM_SHAPE_MULTIPOLES>  (1) 
449.85
12.64
2.92
1.51
2.2
3.37
-0.07
-9.58
-10.3
0.08
0.2
-0.35
-0.93
0.37

>  <PUBCHEM_SHAPE_SELFOVERLAP>  (1) 
946.33

>  <PUBCHEM_SHAPE_VOLUME>  (1) 
251.1

>  <PUBCHEM_COORDINATE_TYPE>  (1) 
2
5
10

$$$$
