40743
     RDKit          3D

 17 16  0  0  1  0  0  0  0  0999 V2000
    2.2943    3.1872    0.8646 Cl  0  0  0  0  0  0  0  0  0  0  0  0
    2.2928    1.9534   -1.7681 Cl  0  0  0  0  0  0  0  0  0  0  0  0
    4.4754    1.4279    0.0903 Cl  0  0  0  0  0  0  0  0  0  0  0  0
    1.5226   -2.0714    0.2835 P   0  0  0  0  0  0  0  0  0  0  0  0
   -0.0475   -1.6191    0.2083 O   0  0  0  0  0  0  0  0  0  0  0  0
    2.2442   -0.6736   -0.1689 O   0  0  0  0  0  0  0  0  0  0  0  0
    1.8911   -2.3494    1.7255 O   0  0  0  0  0  0  0  0  0  0  0  0
    1.7625   -3.1203   -0.7819 O   0  0  0  0  0  0  0  0  0  0  0  0
   -3.6787    0.6525    0.1949 N   0  0  0  0  0  0  0  0  0  0  0  0
   -2.2082    0.2812    0.0677 C   0  0  0  0  0  0  0  0  0  0  0  0
   -2.0757   -0.9184   -0.8549 C   0  0  0  0  0  0  0  0  0  0  0  0
   -4.2267    1.0309   -1.1736 C   0  0  0  0  0  0  0  0  0  0  0  0
   -4.4565   -0.5357    0.7419 C   0  0  0  0  0  0  0  0  0  0  0  0
   -3.8231    1.8336    1.1436 C   0  0  0  0  0  0  0  0  0  0  0  0
   -0.6176   -1.3058   -1.0550 C   0  0  0  0  0  0  0  0  0  0  0  0
    1.9373    0.5217    0.5298 C   0  0  0  0  0  0  0  0  0  0  0  0
    2.7138    1.7051   -0.0476 C   0  0  0  0  0  0  0  0  0  0  0  0
  1 17  1  0
  2 17  1  0
  3 17  1  0
  4  5  1  0
  4  6  1  0
  4  7  1  0
  4  8  2  0
  5 15  1  0
  6 16  1  0
  9 10  1  0
  9 12  1  0
  9 13  1  0
  9 14  1  0
 10 11  1  0
 11 15  1  0
 16 17  1  0
M  CHG  2   7  -1   9   1
M  END
>  <PUBCHEM_COMPOUND_CID>  (1) 
40743

>  <PUBCHEM_CONFORMER_RMSD>  (1) 
0.8

>  <PUBCHEM_CONFORMER_DIVERSEORDER>  (1) 
2
21
31
42
45
24
7
46
12
26
51
37
56
52
3
60
16
57
55
5
49
44
8
25
28
32
58
6
19
18
23
53
4
50
33
15
47
54
20
34
1
61
29
22
36
48
39
35
43
59
30
13
38
27
17
41
14
11
40
9
10

>  <PUBCHEM_MMFF94_PARTIAL_CHARGES>  (1) 
16
1 -0.29
10 0.5
12 0.5
13 0.5
14 0.5
15 0.28
16 0.28
17 0.87
2 -0.29
3 -0.29
4 1.44
5 -0.55
6 -0.55
7 -0.95
8 -0.95
9 -1.01

>  <PUBCHEM_EFFECTIVE_ROTOR_COUNT>  (1) 
8

>  <PUBCHEM_PHARMACOPHORE_FEATURES>  (1) 
3
1 7 acceptor
1 8 acceptor
1 9 cation

>  <PUBCHEM_HEAVY_ATOM_COUNT>  (1) 
17

>  <PUBCHEM_ATOM_DEF_STEREO_COUNT>  (1) 
0

>  <PUBCHEM_ATOM_UDEF_STEREO_COUNT>  (1) 
0

>  <PUBCHEM_BOND_DEF_STEREO_COUNT>  (1) 
0

>  <PUBCHEM_BOND_UDEF_STEREO_COUNT>  (1) 
0

>  <PUBCHEM_ISOTOPIC_ATOM_COUNT>  (1) 
0

>  <PUBCHEM_COMPONENT_COUNT>  (1) 
1

>  <PUBCHEM_CACTVS_TAUTO_COUNT>  (1) 
1

>  <PUBCHEM_CONFORMER_ID>  (1) 
00009F2700000002

>  <PUBCHEM_MMFF94_ENERGY>  (1) 
31.9559

>  <PUBCHEM_FEATURE_SELFOVERLAP>  (1) 
15.233

>  <PUBCHEM_SHAPE_FINGERPRINT>  (1) 
10382601 240 18187642479819445376
10980938 120 18411135822877154439
14123255 52 18341327902523053720
15775835 57 18342458178975164772
20621476 13 18337659859009090661
20671657 1 18342177751949252023
20681677 76 18187921734477360149
21041028 32 18123183507477472532
21503847 285 18196661696139615843
21524375 3 18263924508968583070
21864079 5 17988933219489047121
22182937 141 18124316270320126256
23557571 272 15194132007587804415
23558518 356 17830729121390465650
23559900 14 17676770851803942359
23598291 2 18129646535256808655
25 1 18410857694017622894
2637199 183 18200610175327916556
474 4 18187645850962675285
49207404 50 18188223099183946067
7364860 26 18341050727098730902
81228 2 17180801282498608338
81539 233 18334013899735492678

>  <PUBCHEM_SHAPE_MULTIPOLES>  (1) 
330.85
8.57
3.46
1.37
6.09
0.93
-0.18
-5.44
0.65
-2.87
0.5
-0.01
-0.19
-0.53

>  <PUBCHEM_SHAPE_SELFOVERLAP>  (1) 
582.214

>  <PUBCHEM_SHAPE_VOLUME>  (1) 
220

>  <PUBCHEM_COORDINATE_TYPE>  (1) 
2
5
10

$$$$
