40752
     RDKit          3D

 23 23  0  0  1  0  0  0  0  0999 V2000
    4.3476    2.8103    0.4104 Cl  0  0  0  0  0  0  0  0  0  0  0  0
    3.6900   -3.3546   -0.3207 Cl  0  0  0  0  0  0  0  0  0  0  0  0
    6.4829   -2.0954    0.7216 Cl  0  0  0  0  0  0  0  0  0  0  0  0
   -1.5404    0.4320   -0.0587 O   0  0  0  0  0  0  0  0  0  0  0  0
    1.8920    1.3588   -0.5356 O   0  0  0  0  0  0  0  0  0  0  0  0
   -0.2670    0.6570   -1.9684 O   0  0  0  0  0  0  0  0  0  0  0  0
   -3.8560   -0.2907    0.0673 C   0  0  0  0  0  0  0  0  0  0  0  0
   -4.9808   -0.9052   -0.7948 C   0  0  0  0  0  0  0  0  0  0  0  0
   -6.1969   -1.4615   -0.0273 C   0  0  0  0  0  0  0  0  0  0  0  0
   -4.2901    0.9397    0.8946 C   0  0  0  0  0  0  0  0  0  0  0  0
   -2.6492    0.0072   -0.8393 C   0  0  0  0  0  0  0  0  0  0  0  0
   -6.9164   -0.3186    0.6955 C   0  0  0  0  0  0  0  0  0  0  0  0
   -5.8058   -2.5422    0.9815 C   0  0  0  0  0  0  0  0  0  0  0  0
   -4.7961    2.1220    0.0796 C   0  0  0  0  0  0  0  0  0  0  0  0
   -0.3977    0.7294   -0.7534 C   0  0  0  0  0  0  0  0  0  0  0  0
    0.7028    1.1356    0.2058 C   0  0  0  0  0  0  0  0  0  0  0  0
    0.3543    2.4201    0.9372 C   0  0  0  0  0  0  0  0  0  0  0  0
    2.9666    0.5593   -0.2402 C   0  0  0  0  0  0  0  0  0  0  0  0
    4.1638    1.1070    0.2073 C   0  0  0  0  0  0  0  0  0  0  0  0
    2.8330   -0.8160   -0.3989 C   0  0  0  0  0  0  0  0  0  0  0  0
    3.9096   -1.6534   -0.1064 C   0  0  0  0  0  0  0  0  0  0  0  0
    5.2404    0.2697    0.4999 C   0  0  0  0  0  0  0  0  0  0  0  0
    5.1133   -1.1104    0.3431 C   0  0  0  0  0  0  0  0  0  0  0  0
  1 19  1  0
  2 21  1  0
  3 23  1  0
  4 11  1  0
  4 15  1  0
  5 16  1  0
  5 18  1  0
  6 15  2  0
  7  8  1  0
  7 10  1  0
  7 11  1  0
  8  9  1  0
  9 12  1  0
  9 13  1  0
 10 14  1  0
 15 16  1  0
 16 17  1  0
 18 19  2  0
 18 20  1  0
 19 22  1  0
 20 21  2  0
 21 23  1  0
 22 23  2  0
M  END
>  <PUBCHEM_COMPOUND_CID>  (1) 
40752

>  <PUBCHEM_CONFORMER_RMSD>  (1) 
1.2

>  <PUBCHEM_CONFORMER_DIVERSEORDER>  (1) 
1
439
43
215
142
573
21
504
576
69
365
54
227
250
66
520
40
76
223
407
264
268
237
122
16
175
19
126
208
310
383
253
357
8
376
211
29
156
101
65
62
2
133
55
44
88
389
262
354
344
415
267
147
380
568
178
99
85
63
554
479
15
5
3
163
157
315
224
577
47
71
52
322
222
311
526
92
42
72
252
440
314
369
467
18
164
412
209
558
469
452
6
255
472
363
190
7
59
46
185
385
35
351
41
26
34
30
33
48
549
251
39
79
17
81
74
409
180
144
13
423
38
212
49
230
214
10
121
24
165
106
9
93
497
496
179
534
382
77
462
218

>  <PUBCHEM_MMFF94_PARTIAL_CHARGES>  (1) 
17
1 -0.18
11 0.28
15 0.66
16 0.34
18 0.08
19 0.18
2 -0.18
20 -0.15
21 0.18
22 -0.15
23 0.18
3 -0.18
4 -0.43
45 0.15
46 0.15
5 -0.36
6 -0.57

>  <PUBCHEM_EFFECTIVE_ROTOR_COUNT>  (1) 
9

>  <PUBCHEM_PHARMACOPHORE_FEATURES>  (1) 
6
1 14 hydrophobe
1 5 acceptor
1 6 acceptor
3 9 12 13 hydrophobe
4 7 8 9 10 hydrophobe
6 18 19 20 21 22 23 rings

>  <PUBCHEM_HEAVY_ATOM_COUNT>  (1) 
23

>  <PUBCHEM_ATOM_DEF_STEREO_COUNT>  (1) 
0

>  <PUBCHEM_ATOM_UDEF_STEREO_COUNT>  (1) 
2

>  <PUBCHEM_BOND_DEF_STEREO_COUNT>  (1) 
0

>  <PUBCHEM_BOND_UDEF_STEREO_COUNT>  (1) 
0

>  <PUBCHEM_ISOTOPIC_ATOM_COUNT>  (1) 
0

>  <PUBCHEM_COMPONENT_COUNT>  (1) 
1

>  <PUBCHEM_CACTVS_TAUTO_COUNT>  (1) 
1

>  <PUBCHEM_CONFORMER_ID>  (1) 
00009F3000000001

>  <PUBCHEM_MMFF94_ENERGY>  (1) 
59.6701

>  <PUBCHEM_FEATURE_SELFOVERLAP>  (1) 
30.786

>  <PUBCHEM_SHAPE_FINGERPRINT>  (1) 
12107183 9 17983022145977546097
12596602 18 18060702792508090987
12616971 3 17632289103257366764
12892183 10 18343301483135318277
13073987 5 18413108385556133881
13533116 47 18413389860500851752
13668630 136 17095524041712787731
13685833 64 18187366545398188115
13782708 43 17967525749349363402
13955234 65 18341603880743609152
14211702 104 17969231195290768291
14251764 18 18273215304982424637
14251764 30 18259982660829706467
14341114 176 18342181111288942985
15250474 111 17987505061042750639
15510800 12 18041293088058372162
17492 89 18197497329667591518
17844677 252 18411423903614345205
17857418 61 18342458175392347503
1813 80 17530969072503604333
18222031 100 16877659080210664324
20028762 73 18342173337362045542
20645477 70 18334853922767166860
21033648 29 14333415523509312913
21049683 271 18334297570569919116
21197605 99 18339082712870512354
21267235 1 18342458102699682910
21623969 137 18411138047691851974
23522609 53 17971222281825792972
239999 70 17967248732791162608
25122255 55 18041571333794325027
3004659 81 18259703385282511138
314194 84 18272082842302269911
33382 64 18408885135460063898
3663271 9 18272656774708412121
4073 2 18260553354804568955
4340502 62 18337951306957085640
465052 167 18412547630314845438
5104073 3 18272090495865588977
559249 180 18410009897870381953
5718773 13 17968930887009123738

>  <PUBCHEM_SHAPE_MULTIPOLES>  (1) 
461.33
18.34
3.12
1.03
14.02
0.73
-0.18
9.54
4.6
-2.6
0.56
0.47
-0.03
0.36

>  <PUBCHEM_SHAPE_SELFOVERLAP>  (1) 
901.449

>  <PUBCHEM_SHAPE_VOLUME>  (1) 
280

>  <PUBCHEM_COORDINATE_TYPE>  (1) 
2
5
10

$$$$
