40773
     RDKit          3D

 11 11  0  0  0  0  0  0  0  0999 V2000
    1.5955    0.0566   -1.8015 Cl  0  0  0  0  0  0  0  0  0  0  0  0
    3.2853   -1.2302    0.1393 Cl  0  0  0  0  0  0  0  0  0  0  0  0
    2.6980    1.5630    0.5013 Cl  0  0  0  0  0  0  0  0  0  0  0  0
    0.8966   -0.4116    0.7475 O   0  0  0  0  0  0  0  0  0  0  0  0
   -0.4079   -0.2085    0.4174 C   0  0  0  0  0  0  0  0  0  0  0  0
   -0.8915    1.0892    0.2506 C   0  0  0  0  0  0  0  0  0  0  0  0
   -1.2617   -1.2983    0.2464 C   0  0  0  0  0  0  0  0  0  0  0  0
   -2.2287    1.2974   -0.0871 C   0  0  0  0  0  0  0  0  0  0  0  0
   -2.5990   -1.0901   -0.0914 C   0  0  0  0  0  0  0  0  0  0  0  0
   -3.0825    0.2077   -0.2581 C   0  0  0  0  0  0  0  0  0  0  0  0
    1.9960    0.0248   -0.0645 C   0  0  0  0  0  0  0  0  0  0  0  0
  1 11  1  0
  2 11  1  0
  3 11  1  0
  4  5  1  0
  4 11  1  0
  5  6  2  0
  5  7  1  0
  6  8  1  0
  7  9  2  0
  8 10  2  0
  9 10  1  0
M  END
>  <PUBCHEM_COMPOUND_CID>  (1) 
40773

>  <PUBCHEM_CONFORMER_RMSD>  (1) 
0.4

>  <PUBCHEM_CONFORMER_DIVERSEORDER>  (1) 
1
3
4
2

>  <PUBCHEM_MMFF94_PARTIAL_CHARGES>  (1) 
16
1 -0.29
10 -0.15
11 1.15
12 0.15
13 0.15
14 0.15
15 0.15
16 0.15
2 -0.29
3 -0.29
4 -0.36
5 0.08
6 -0.15
7 -0.15
8 -0.15
9 -0.15

>  <PUBCHEM_EFFECTIVE_ROTOR_COUNT>  (1) 
2

>  <PUBCHEM_PHARMACOPHORE_FEATURES>  (1) 
2
1 4 acceptor
6 5 6 7 8 9 10 rings

>  <PUBCHEM_HEAVY_ATOM_COUNT>  (1) 
11

>  <PUBCHEM_ATOM_DEF_STEREO_COUNT>  (1) 
0

>  <PUBCHEM_ATOM_UDEF_STEREO_COUNT>  (1) 
0

>  <PUBCHEM_BOND_DEF_STEREO_COUNT>  (1) 
0

>  <PUBCHEM_BOND_UDEF_STEREO_COUNT>  (1) 
0

>  <PUBCHEM_ISOTOPIC_ATOM_COUNT>  (1) 
0

>  <PUBCHEM_COMPONENT_COUNT>  (1) 
1

>  <PUBCHEM_CACTVS_TAUTO_COUNT>  (1) 
1

>  <PUBCHEM_CONFORMER_ID>  (1) 
00009F4500000001

>  <PUBCHEM_MMFF94_ENERGY>  (1) 
35.395

>  <PUBCHEM_FEATURE_SELFOVERLAP>  (1) 
10.148

>  <PUBCHEM_SHAPE_FINGERPRINT>  (1) 
12716758 59 18408040710566920187
12897270 3 18413392054938827037
12932764 1 18339936986038379842
14325111 11 18410290311167419785
15219456 202 18272649077873894200
15310529 11 18202279246874221446
15775835 57 18188215307712597516
16945 1 18200323104093137171
19973954 147 18412545422596335424
20201158 50 17846219916784987438
20653085 51 16805044012592501295
207724 885 17168431454421188762
21028194 46 18187649063714218083
21501502 16 18272089413364829920
23402539 116 18058154055962243957
23552423 10 18186801382982844947
23557571 272 18199196267867612879
23559900 14 18270675352087712778
29004967 10 16200152084059425323
3248919 1 17203898443731572563
369184 2 18411982472647805513
5084963 1 17749392533333513750
57812782 119 18341044142818693070
7364860 26 18413386540791682314
8030462 33 18260277360058311086

>  <PUBCHEM_SHAPE_MULTIPOLES>  (1) 
226.11
5.24
1.55
1.04
0.63
0.18
-0.52
-0.27
-0.06
0.22
0.21
0.58
0.01
0.16

>  <PUBCHEM_SHAPE_SELFOVERLAP>  (1) 
433.872

>  <PUBCHEM_SHAPE_VOLUME>  (1) 
137.8

>  <PUBCHEM_COORDINATE_TYPE>  (1) 
2
5
10

$$$$
