40781
     RDKit          3D

 18 18  0  0  1  0  0  0  0  0999 V2000
    1.3411   -2.8651    0.0724 Cl  0  0  0  0  0  0  0  0  0  0  0  0
    4.0614    2.7540    0.0392 Cl  0  0  0  0  0  0  0  0  0  0  0  0
    5.5874    0.1632   -1.1601 Cl  0  0  0  0  0  0  0  0  0  0  0  0
   -3.1465    0.5208    0.1060 O   0  0  0  0  0  0  0  0  0  0  0  0
    0.1805   -0.2935    1.1089 O   0  0  0  0  0  0  0  0  0  0  0  0
   -2.3011   -1.3115    1.2270 O   0  0  0  0  0  0  0  0  0  0  0  0
   -4.2539   -0.2080   -0.4162 C   0  0  0  0  0  0  0  0  0  0  0  0
   -5.2731    0.7756   -0.9949 C   0  0  0  0  0  0  0  0  0  0  0  0
   -3.7501   -1.1711   -1.4827 C   0  0  0  0  0  0  0  0  0  0  0  0
   -5.7635    1.7762    0.0434 C   0  0  0  0  0  0  0  0  0  0  0  0
   -2.1531   -0.2320    0.6704 C   0  0  0  0  0  0  0  0  0  0  0  0
   -0.8360    0.4784    0.5012 C   0  0  0  0  0  0  0  0  0  0  0  0
    1.4438   -0.1943    0.5777 C   0  0  0  0  0  0  0  0  0  0  0  0
    2.0914   -1.3116    0.0649 C   0  0  0  0  0  0  0  0  0  0  0  0
    2.0588    1.0518    0.5651 C   0  0  0  0  0  0  0  0  0  0  0  0
    3.3410    1.1824    0.0316 C   0  0  0  0  0  0  0  0  0  0  0  0
    3.3736   -1.1812   -0.4686 C   0  0  0  0  0  0  0  0  0  0  0  0
    3.9985    0.0659   -0.4853 C   0  0  0  0  0  0  0  0  0  0  0  0
  1 14  1  0
  2 16  1  0
  3 18  1  0
  4  7  1  0
  4 11  1  0
  5 12  1  0
  5 13  1  0
  6 11  2  0
  7  8  1  0
  7  9  1  0
  8 10  1  0
 11 12  1  0
 13 14  2  0
 13 15  1  0
 14 17  1  0
 15 16  2  0
 16 18  1  0
 17 18  2  0
M  END
>  <PUBCHEM_COMPOUND_CID>  (1) 
40781

>  <PUBCHEM_CONFORMER_RMSD>  (1) 
0.8

>  <PUBCHEM_CONFORMER_DIVERSEORDER>  (1) 
1
266
297
221
166
215
159
174
165
294
231
31
223
45
236
87
37
193
153
212
326
230
337
97
200
141
210
2
268
262
184
288
152
343
127
157
222
136
163
329
281
86
301
279
328
119
255
234
76
38
41
305
123
64
29
322
195
120
129
93
71
239
218
12
103
17
177
151
341
81
256
178
18
286
292
95
44
233
130
243
270
313
7
272
156
330
36
321
334
250
317
331
147
208
128
303
251
246
320
13
39
46
21
264
299
52
280
72
124
144
206
150
162
273
132
217
315
277
197
8
121
58
114
269
291
57
342
340
89
27
84
203
23
11
205
92
50
9
180
69
289
259
211
115
161
258
59
283
298
226
309
293
122
131
244
68
245
105
62
67
238
312
112
138
290
235
308
98
248
4
227
287
139
182
20
63
318
24
285
70
88
164
338
314
107
311
15
241
274
191
32
16
263
22
79
204
56
61
186
201
169
117
118
261
344
116
110
295
73
275
85
257
10
237
187
145
43
228
282
160
99
104
55
242
146
109
310
199
108
176
213
140
137
126
307
240
91
74
324
40
232
209
214
6
175
19
276
207
42
336
47
125
30
155
94
54
33
196
26
339
154
319
66
181
183
249
49
346
53
82
5
133
51
102
253
75
300
65
216
284
28
172
179
170
149
260
101
96
173
325
189
304
229
48
111
345
135
327
267
142
265
323
60
190
252
134
158
148
247
198
14
332
113
220
219
296
77
185
316
3
35
224
143
278
78
34
106
80
83
171
167
333
225
271
302
100
202
90
188
335
25
306
192
254
194
168

>  <PUBCHEM_MMFF94_PARTIAL_CHARGES>  (1) 
17
1 -0.18
11 0.66
12 0.34
13 0.08
14 0.18
15 -0.15
16 0.18
17 -0.15
18 0.18
2 -0.18
3 -0.18
30 0.15
31 0.15
4 -0.43
5 -0.36
6 -0.57
7 0.28

>  <PUBCHEM_EFFECTIVE_ROTOR_COUNT>  (1) 
6

>  <PUBCHEM_PHARMACOPHORE_FEATURES>  (1) 
4
1 10 hydrophobe
1 5 acceptor
1 6 acceptor
6 13 14 15 16 17 18 rings

>  <PUBCHEM_HEAVY_ATOM_COUNT>  (1) 
18

>  <PUBCHEM_ATOM_DEF_STEREO_COUNT>  (1) 
0

>  <PUBCHEM_ATOM_UDEF_STEREO_COUNT>  (1) 
1

>  <PUBCHEM_BOND_DEF_STEREO_COUNT>  (1) 
0

>  <PUBCHEM_BOND_UDEF_STEREO_COUNT>  (1) 
0

>  <PUBCHEM_ISOTOPIC_ATOM_COUNT>  (1) 
0

>  <PUBCHEM_COMPONENT_COUNT>  (1) 
1

>  <PUBCHEM_CACTVS_TAUTO_COUNT>  (1) 
1

>  <PUBCHEM_CONFORMER_ID>  (1) 
00009F4D00000001

>  <PUBCHEM_MMFF94_ENERGY>  (1) 
41.4053

>  <PUBCHEM_FEATURE_SELFOVERLAP>  (1) 
20.305

>  <PUBCHEM_SHAPE_FINGERPRINT>  (1) 
10354089 29 11674882190981475700
10693767 8 17987803982609374814
11471102 20 18411421696306590586
12403259 415 18189346817236917728
12670546 177 18273495688678577511
12730499 353 18261399931518636411
12788726 201 17202768077781526697
12892183 10 11530752717501560430
13103583 49 8141267370521925021
13675066 3 13479121385459172905
13760787 19 18202278092034629063
14366163 111 18335417941919824025
14528608 73 18412260666148390821
15183329 4 17988641844818473277
15188451 53 10375576098078828573
15375358 24 18260265273999130907
15475509 84 12902361588006025390
16752209 62 16128371528877350491
17834072 33 18343580759199166389
17959699 21 18408321073337420921
1813 80 12679470802467668018
18186145 218 17822003190821876595
18222031 100 13973966518935272737
18915474 69 17561081444734867254
193927 3 13686302421647495805
200 152 17988926664772477706
20432913 95 11023830586750133237
20645477 56 17821449054236279161
20645477 70 18272653415580139439
21637258 2 15195289669088589406
22224240 67 9367052334634913316
22289505 5 18336823100378940420
22393880 68 18272928357911547471
23402539 116 18040997362643098230
23402655 69 18413387618411683565
23557571 272 17458922516753146683
23559900 14 18409727352972217234
2871803 45 18342460313985198556
29717793 49 17203615865180765244
3004659 81 17917426501723710414
3060560 45 18412265030426000710
312425 54 9006783128951928205
3472631 163 16588310509471099583
3545911 37 18259709999442469721
4072396 5 18334565816677690234
42 15 10375872982769962435
495365 180 18341602733443638896
542803 24 18259983764973995989
543358 83 18269838623010767107
58051976 378 18343026584080286402
633830 44 18336260223323431295
8272917 22 18341613651176950831
960060 61 17989484125884606941

>  <PUBCHEM_SHAPE_MULTIPOLES>  (1) 
358.43
12.8
2.32
1.1
9.85
0.13
-0.14
-5.82
-4.95
-1.55
0.07
0.38
0.19
0.01

>  <PUBCHEM_SHAPE_SELFOVERLAP>  (1) 
703.663

>  <PUBCHEM_SHAPE_VOLUME>  (1) 
217.5

>  <PUBCHEM_COORDINATE_TYPE>  (1) 
2
5
10

$$$$
