40784
     RDKit          3D

 13 12  0  0  1  0  0  0  0  0999 V2000
    6.7196    0.6746    0.6001 S   0  0  0  0  0  0  0  0  0  0  0  0
   -3.7243    1.4445   -1.1808 O   0  0  0  0  0  0  0  0  0  0  0  0
   -3.8928    1.3340    1.0766 O   0  0  0  0  0  0  0  0  0  0  0  0
    2.9257   -0.3159   -0.4417 N   0  0  0  0  0  0  0  0  0  0  0  0
   -3.5505   -1.2973    1.2024 N   0  0  0  0  0  0  0  0  0  0  0  0
   -0.8502   -0.4107    0.0429 C   0  0  0  0  0  0  0  0  0  0  0  0
    0.5051   -0.6625   -0.6228 C   0  0  0  0  0  0  0  0  0  0  0  0
   -2.0350   -1.0000   -0.7344 C   0  0  0  0  0  0  0  0  0  0  0  0
    1.6440   -0.0742    0.2103 C   0  0  0  0  0  0  0  0  0  0  0  0
   -3.4120   -0.7021   -0.1276 C   0  0  0  0  0  0  0  0  0  0  0  0
    4.0209    0.2306    0.3470 C   0  0  0  0  0  0  0  0  0  0  0  0
   -3.6937    0.7806    0.0011 C   0  0  0  0  0  0  0  0  0  0  0  0
    5.3432   -0.0017   -0.3732 C   0  0  0  0  0  0  0  0  0  0  0  0
  1 13  1  0
  2 12  1  0
  3 12  2  0
  4  9  1  0
  4 11  1  0
  5 10  1  0
  6  7  1  0
  6  8  1  0
  7  9  1  0
  8 10  1  0
 10 12  1  0
 11 13  1  0
M  END
>  <PUBCHEM_COMPOUND_CID>  (1) 
40784

>  <PUBCHEM_CONFORMER_RMSD>  (1) 
0.8

>  <PUBCHEM_CONFORMER_DIVERSEORDER>  (1) 
1
273
115
134
132
235
120
241
5
243
245
248
9
177
194
317
59
161
30
206
276
314
176
201
27
40
247
288
185
68
13
319
67
290
49
224
71
17
106
34
236
296
219
23
297
6
307
105
21
242
60
271
113
56
61
225
77
306
256
73
2
151
302
43
184
92
55
261
255
240
66
76
249
10
130
16
147
292
38
282
294
190
79
167
269
95
126
159
80
20
262
315
259
89
195
283
140
127
142
233
63
199
136
299
203
263
173
53
318
192
227
191
50
179
75
205
157
8
180
121
166
148
14
211
252
295
98
19
209
138
125
251
99
51
114
87
81
119
64
264
308
86
28
311
202
277
305
52
232
26
281
135
286
250
197
44
301
15
25
24
174
186
108
171
289
303
62
93
37
7
156
181
287
278
237
149
298
216
163
214
188
228
46
189
122
265
143
285
198
310
82
35
300
85
158
4
141
178
212
74
270
218
304
145
182
78
208
36
221
164
47
69
284
193
154
207
165
11
210
226
168
152
153
110
253
272
293
83
57
169
58
128
146
117
238
260
102
213
101
131
267
239
109
48
280
94
312
313
32
196
246
234
96
133
254
29
257
65
118
150
222
258
54
104
39
200
124
123
170
187
291
274
162
70
129
22
116
175
84
275
100
90
215
111
144
220
183
204
18
91
33
41
107
223
31
12
160
231
42
72
279
112
268
97
316
309
230
3
266
229
155
172
88
137
217
103
45
139
244

>  <PUBCHEM_MMFF94_PARTIAL_CHARGES>  (1) 
15
1 -0.41
10 0.33
11 0.27
12 0.66
13 0.23
2 -0.65
23 0.36
26 0.36
27 0.36
3 -0.57
30 0.5
31 0.18
4 -0.9
5 -0.99
9 0.27

>  <PUBCHEM_EFFECTIVE_ROTOR_COUNT>  (1) 
8

>  <PUBCHEM_PHARMACOPHORE_FEATURES>  (1) 
7
1 2 acceptor
1 3 acceptor
1 4 cation
1 4 donor
1 5 cation
1 5 donor
3 2 3 12 anion

>  <PUBCHEM_HEAVY_ATOM_COUNT>  (1) 
13

>  <PUBCHEM_ATOM_DEF_STEREO_COUNT>  (1) 
0

>  <PUBCHEM_ATOM_UDEF_STEREO_COUNT>  (1) 
1

>  <PUBCHEM_BOND_DEF_STEREO_COUNT>  (1) 
0

>  <PUBCHEM_BOND_UDEF_STEREO_COUNT>  (1) 
0

>  <PUBCHEM_ISOTOPIC_ATOM_COUNT>  (1) 
0

>  <PUBCHEM_COMPONENT_COUNT>  (1) 
1

>  <PUBCHEM_CACTVS_TAUTO_COUNT>  (1) 
1

>  <PUBCHEM_CONFORMER_ID>  (1) 
00009F5000000001

>  <PUBCHEM_MMFF94_ENERGY>  (1) 
2.4839

>  <PUBCHEM_FEATURE_SELFOVERLAP>  (1) 
35.58

>  <PUBCHEM_SHAPE_FINGERPRINT>  (1) 
10680689 15 18201720690641072255
10912923 1 16877944970962160158
12091667 2 18343581876238926830
12507557 5 18412265059805216296
13288520 33 9583516529794193263
14123238 8 14851604393171593254
14123255 352 18412822478067275972
1420 363 12396297046153794808
14251718 22 10592041376023236114
14251764 75 16767628529696292969
14455015 7 12901541322161378936
15501527 16 18059861649033219033
17834072 33 9439396948341567490
17834076 25 15770061644240464782
19433438 28 18335701693160474000
200 152 12391516386428148710
20281389 69 18408882910888894776
20621476 66 17632306626935204169
20645477 56 18202565077332944087
20645477 70 17489314031984264446
20767249 213 18335417955110538205
23402539 116 18334006212171274950
23402655 69 15841557340538971080
270888 7 17915185607497329977
42788 4 18201719574745763918
441001 317 17988925561272019760
49783359 22 12612753523399710928
542803 24 18113620101673881254
57483677 66 8070035463105039760

>  <PUBCHEM_SHAPE_MULTIPOLES>  (1) 
249.68
14.38
1.21
0.98
20.53
0.23
0.05
4.32
1.61
-1.42
0.01
-0.83
0.05
0.6

>  <PUBCHEM_SHAPE_SELFOVERLAP>  (1) 
450.224

>  <PUBCHEM_SHAPE_VOLUME>  (1) 
161.3

>  <PUBCHEM_COORDINATE_TYPE>  (1) 
2
5
10

$$$$
