40799
     RDKit          3D

 22 24  0  0  1  0  0  0  0  0999 V2000
   -1.3545   -1.8716   -1.6044 O   0  0  0  0  0  0  0  0  0  0  0  0
   -1.6899    1.5115    0.4982 O   0  0  0  0  0  0  0  0  0  0  0  0
    2.9716    2.1404   -0.2103 N   0  0  0  0  0  0  0  0  0  0  0  0
   -0.3369   -0.6752    0.0853 N   0  0  0  0  0  0  0  0  0  0  0  0
    2.0723   -0.1358    0.2269 C   0  0  0  0  0  0  0  0  0  0  0  0
    3.4836   -0.7283    0.0375 C   0  0  0  0  0  0  0  0  0  0  0  0
    0.9977   -1.1801   -0.1441 C   0  0  0  0  0  0  0  0  0  0  0  0
    3.6623   -2.0067    0.8610 C   0  0  0  0  0  0  0  0  0  0  0  0
    4.5390    0.3222    0.3936 C   0  0  0  0  0  0  0  0  0  0  0  0
    1.9407    1.1628   -0.5950 C   0  0  0  0  0  0  0  0  0  0  0  0
    1.1921   -2.4801    0.6461 C   0  0  0  0  0  0  0  0  0  0  0  0
    2.6020   -3.0422    0.4980 C   0  0  0  0  0  0  0  0  0  0  0  0
    4.3240    1.6051   -0.4115 C   0  0  0  0  0  0  0  0  0  0  0  0
    2.7992    3.3868   -0.9565 C   0  0  0  0  0  0  0  0  0  0  0  0
   -1.4534   -1.0649   -0.6803 C   0  0  0  0  0  0  0  0  0  0  0  0
   -2.7496   -0.4850   -0.3043 C   0  0  0  0  0  0  0  0  0  0  0  0
   -2.8154    0.7780    0.2688 C   0  0  0  0  0  0  0  0  0  0  0  0
   -3.9021   -1.2255   -0.5326 C   0  0  0  0  0  0  0  0  0  0  0  0
   -4.0561    1.3103    0.6198 C   0  0  0  0  0  0  0  0  0  0  0  0
   -5.1427   -0.6931   -0.1814 C   0  0  0  0  0  0  0  0  0  0  0  0
   -5.2196    0.5747    0.3948 C   0  0  0  0  0  0  0  0  0  0  0  0
   -1.8643    2.7967    1.0910 C   0  0  0  0  0  0  0  0  0  0  0  0
  1 15  2  0
  2 17  1  0
  2 22  1  0
  3 10  1  0
  3 13  1  0
  3 14  1  0
  4  7  1  0
  4 15  1  0
  5  6  1  0
  5  7  1  0
  5 10  1  0
  6  8  1  0
  6  9  1  0
  7 11  1  0
  8 12  1  0
  9 13  1  0
 11 12  1  0
 15 16  1  0
 16 17  2  0
 16 18  1  0
 17 19  1  0
 18 20  2  0
 19 21  2  0
 20 21  1  0
M  END
>  <PUBCHEM_COMPOUND_CID>  (1) 
40799

>  <PUBCHEM_CONFORMER_RMSD>  (1) 
0.8

>  <PUBCHEM_CONFORMER_DIVERSEORDER>  (1) 
7
1
19
10
17
16
14
21
15
3
9
2
6
22
11
8
20
13
4
18
12
5

>  <PUBCHEM_MMFF94_PARTIAL_CHARGES>  (1) 
21
1 -0.57
10 0.27
13 0.27
14 0.27
15 0.54
16 0.09
17 0.08
18 -0.15
19 -0.15
2 -0.36
20 -0.15
21 -0.15
22 0.28
3 -0.81
38 0.37
4 -0.73
42 0.15
43 0.15
44 0.15
45 0.15
7 0.3

>  <PUBCHEM_EFFECTIVE_ROTOR_COUNT>  (1) 
5.6

>  <PUBCHEM_PHARMACOPHORE_FEATURES>  (1) 
7
1 1 acceptor
1 2 acceptor
1 3 cation
1 4 donor
6 16 17 18 19 20 21 rings
6 3 5 6 9 10 13 rings
6 5 6 7 8 11 12 rings

>  <PUBCHEM_HEAVY_ATOM_COUNT>  (1) 
22

>  <PUBCHEM_ATOM_DEF_STEREO_COUNT>  (1) 
2

>  <PUBCHEM_ATOM_UDEF_STEREO_COUNT>  (1) 
1

>  <PUBCHEM_BOND_DEF_STEREO_COUNT>  (1) 
0

>  <PUBCHEM_BOND_UDEF_STEREO_COUNT>  (1) 
0

>  <PUBCHEM_ISOTOPIC_ATOM_COUNT>  (1) 
0

>  <PUBCHEM_COMPONENT_COUNT>  (1) 
1

>  <PUBCHEM_CACTVS_TAUTO_COUNT>  (1) 
2

>  <PUBCHEM_CONFORMER_ID>  (1) 
00009F5F00000007

>  <PUBCHEM_MMFF94_ENERGY>  (1) 
56.5366

>  <PUBCHEM_FEATURE_SELFOVERLAP>  (1) 
35.538

>  <PUBCHEM_SHAPE_FINGERPRINT>  (1) 
10090160 65 18334289898792528715
10366900 7 17749118755091314842
10411042 1 18046902672525623922
10759866 29 18411986853350969048
12107183 9 17762900961694423811
12236239 1 18343580741708268566
12403259 118 18339914905959567043
12467345 10 18412261709809411426
12788726 201 17703520908814147657
13009979 54 17985829220748845082
13140716 1 18191862534322229346
13583140 156 17751932315790797169
14341114 176 18337958896006354075
14341114 328 18341615914898821011
14739800 52 17916287485598825648
14787075 74 18118964934965798315
15196674 1 18412544288867166609
15342168 16 17896323704022196252
15442244 35 18195245512373148978
17492 89 18339924801459553307
20715895 44 17908138777408713337
20739085 24 18187926141256314926
21033648 29 16805591573730900879
21267235 1 18340211773946696194
21652331 79 18412825772322996625
2255824 54 18335421270698826350
23559900 14 18338793412483922483
245318 6 17461736282962726412
312423 11 18340498759228907843
350125 39 18411136892355880448
38570 142 18191328133169802100
392239 28 18262249918690081379
4340502 62 17821451279161597507
4409770 3 16531728198070646462
474 4 18261955249288512692
5104073 3 18411136905399116755
5312544 6 18336267949969837109
6034566 193 17028549639457891364
633830 44 18339079414651413230
67856867 119 18410567400971945849
7064713 232 17915741972780232473
7097593 13 17831017923412955339
8272917 22 18409168801123673310
84936 182 18198057174211952112
9709674 26 18337397049933673243
9981440 41 17903914801384010816

>  <PUBCHEM_SHAPE_MULTIPOLES>  (1) 
431.05
10.46
3.4
0.97
6.01
1.01
0.09
1.46
-0.65
-3.14
-0.09
0.13
0.02
-2.08

>  <PUBCHEM_SHAPE_SELFOVERLAP>  (1) 
904.486

>  <PUBCHEM_SHAPE_VOLUME>  (1) 
241.2

>  <PUBCHEM_COORDINATE_TYPE>  (1) 
2
5
10

$$$$
