40804
     RDKit          3D

 21 23  0  0  1  0  0  0  0  0999 V2000
    6.0501   -1.6359   -1.3053 Cl  0  0  0  0  0  0  0  0  0  0  0  0
    1.3006    1.5984    2.0445 O   0  0  0  0  0  0  0  0  0  0  0  0
   -3.5351   -1.8631    0.7246 N   0  0  0  0  0  0  0  0  0  0  0  0
    0.0028    0.6856    0.3536 N   0  0  0  0  0  0  0  0  0  0  0  0
   -2.4642    0.3558    0.4458 C   0  0  0  0  0  0  0  0  0  0  0  0
   -2.7463    0.3173   -1.0692 C   0  0  0  0  0  0  0  0  0  0  0  0
   -1.2551    1.2542    0.7824 C   0  0  0  0  0  0  0  0  0  0  0  0
   -2.9433    1.7318   -1.6249 C   0  0  0  0  0  0  0  0  0  0  0  0
   -3.9670   -0.5679   -1.3423 C   0  0  0  0  0  0  0  0  0  0  0  0
   -2.3261   -1.0722    1.0055 C   0  0  0  0  0  0  0  0  0  0  0  0
   -1.4375    2.6571    0.1891 C   0  0  0  0  0  0  0  0  0  0  0  0
   -1.7484    2.6284   -1.3077 C   0  0  0  0  0  0  0  0  0  0  0  0
   -3.7912   -1.9546   -0.7193 C   0  0  0  0  0  0  0  0  0  0  0  0
   -3.4201   -3.1988    1.3096 C   0  0  0  0  0  0  0  0  0  0  0  0
    1.1895    0.9109    1.0328 C   0  0  0  0  0  0  0  0  0  0  0  0
    2.3998    0.2770    0.4494 C   0  0  0  0  0  0  0  0  0  0  0  0
    3.6303    0.8570    0.6770 C   0  0  0  0  0  0  0  0  0  0  0  0
    2.2548   -0.8723   -0.2997 C   0  0  0  0  0  0  0  0  0  0  0  0
    4.7672    0.2612    0.1307 C   0  0  0  0  0  0  0  0  0  0  0  0
    3.3916   -1.4683   -0.8459 C   0  0  0  0  0  0  0  0  0  0  0  0
    4.6478   -0.9015   -0.6307 C   0  0  0  0  0  0  0  0  0  0  0  0
  1 21  1  0
  2 15  2  0
  3 10  1  0
  3 13  1  0
  3 14  1  0
  4  7  1  0
  4 15  1  0
  5  6  1  0
  5  7  1  0
  5 10  1  0
  6  8  1  0
  6  9  1  0
  7 11  1  0
  8 12  1  0
  9 13  1  0
 11 12  1  0
 15 16  1  0
 16 17  2  0
 16 18  1  0
 17 19  1  0
 18 20  2  0
 19 21  2  0
 20 21  1  0
M  END
>  <PUBCHEM_COMPOUND_CID>  (1) 
40804

>  <PUBCHEM_CONFORMER_RMSD>  (1) 
0.8

>  <PUBCHEM_CONFORMER_DIVERSEORDER>  (1) 
1
4
7
6
5
3
2

>  <PUBCHEM_MMFF94_PARTIAL_CHARGES>  (1) 
20
1 -0.18
10 0.27
13 0.27
14 0.27
15 0.54
16 0.09
17 -0.15
18 -0.15
19 -0.15
2 -0.57
20 -0.15
21 0.18
3 -0.81
37 0.37
4 -0.73
41 0.15
42 0.15
43 0.15
44 0.15
7 0.3

>  <PUBCHEM_EFFECTIVE_ROTOR_COUNT>  (1) 
4.6

>  <PUBCHEM_PHARMACOPHORE_FEATURES>  (1) 
6
1 2 acceptor
1 3 cation
1 4 donor
6 16 17 18 19 20 21 rings
6 3 5 6 9 10 13 rings
6 5 6 7 8 11 12 rings

>  <PUBCHEM_HEAVY_ATOM_COUNT>  (1) 
21

>  <PUBCHEM_ATOM_DEF_STEREO_COUNT>  (1) 
2

>  <PUBCHEM_ATOM_UDEF_STEREO_COUNT>  (1) 
1

>  <PUBCHEM_BOND_DEF_STEREO_COUNT>  (1) 
0

>  <PUBCHEM_BOND_UDEF_STEREO_COUNT>  (1) 
0

>  <PUBCHEM_ISOTOPIC_ATOM_COUNT>  (1) 
0

>  <PUBCHEM_COMPONENT_COUNT>  (1) 
1

>  <PUBCHEM_CACTVS_TAUTO_COUNT>  (1) 
2

>  <PUBCHEM_CONFORMER_ID>  (1) 
00009F6400000001

>  <PUBCHEM_MMFF94_ENERGY>  (1) 
40.3382

>  <PUBCHEM_FEATURE_SELFOVERLAP>  (1) 
30.463

>  <PUBCHEM_SHAPE_FINGERPRINT>  (1) 
10366900 7 18411691071965173087
10730089 88 18408879629533445607
10764073 3 17265296122989785019
107951 10 18192990410024954269
10928967 22 17203332195818509246
11089746 13 16081092602340285206
11640471 11 16081917140733429937
121448 382 17821728334110142842
12596602 18 15051442881518625311
12633257 1 16630253609521552823
12670546 177 18187645834052123916
12892183 10 11023818466743093380
13103583 49 16415212220699316707
13402501 40 18341895216411583535
13544653 18 18130509720561481800
14251740 79 18260276217792696258
14251758 9 11169902914968024196
14386348 63 18340201989995033883
15163728 17 16809802536078303957
15475509 8 18336254709703697077
15961568 22 17750230486566641916
17357779 13 18339068402112360863
17870717 6 18333732407631881391
18927931 339 17489034734697890582
200 152 17275094024964362381
20603629 256 16916490588329855408
20693207 138 18341039774647438844
20871999 31 18259702280980186789
21307412 95 18337105765816323687
21713013 43 18411138013526889748
221490 88 18272374166118797728
22393880 68 18263361409108063774
23379529 103 18263652938028591178
23402539 116 16805614612415420244
23557571 272 18335408101907363529
23559900 14 18409719682076593968
23598288 3 15984836903835672304
2871803 45 18411412921335217282
312425 83 17532378561033280718
3268164 11 17749389247815615724
437815 12 18338518655511139979
474 4 12396564226872799793
484985 159 17632296727372871799
4921388 177 18335139752450663493
5104073 3 17845936230728386010
531348 171 17533216367455835910
5486654 36 18059307499393947627
59755656 520 18123757456837552969
633830 44 15141246443442754704
9709674 26 18411693292431382356
9862886 166 18408886235568173810

>  <PUBCHEM_SHAPE_MULTIPOLES>  (1) 
418.21
10.85
2.94
1.57
13.27
0.45
0.01
6.64
3.83
-3.37
-0.2
-0.51
-0.16
2.46

>  <PUBCHEM_SHAPE_SELFOVERLAP>  (1) 
870.524

>  <PUBCHEM_SHAPE_VOLUME>  (1) 
237.9

>  <PUBCHEM_COORDINATE_TYPE>  (1) 
2
5
10

$$$$
