40803
     RDKit          3D

 20 22  0  0  1  0  0  0  0  0999 V2000
    1.8245    1.1683    2.0235 O   0  0  0  0  0  0  0  0  0  0  0  0
   -3.3416   -1.7538    0.6523 N   0  0  0  0  0  0  0  0  0  0  0  0
    0.3686    0.5440    0.3301 N   0  0  0  0  0  0  0  0  0  0  0  0
   -2.1088    0.3945    0.5388 C   0  0  0  0  0  0  0  0  0  0  0  0
   -2.4728    0.5408   -0.9520 C   0  0  0  0  0  0  0  0  0  0  0  0
   -0.8140    1.1570    0.8915 C   0  0  0  0  0  0  0  0  0  0  0  0
   -2.5823    2.0178   -1.3457 C   0  0  0  0  0  0  0  0  0  0  0  0
   -3.7747   -0.2145   -1.2397 C   0  0  0  0  0  0  0  0  0  0  0  0
   -2.0588   -1.0918    0.9387 C   0  0  0  0  0  0  0  0  0  0  0  0
   -0.9119    2.6254    0.4584 C   0  0  0  0  0  0  0  0  0  0  0  0
   -1.3029    2.7818   -1.0115 C   0  0  0  0  0  0  0  0  0  0  0  0
   -3.6804   -1.6696   -0.7750 C   0  0  0  0  0  0  0  0  0  0  0  0
   -3.3057   -3.1497    1.0882 C   0  0  0  0  0  0  0  0  0  0  0  0
    1.6040    0.6041    0.9550 C   0  0  0  0  0  0  0  0  0  0  0  0
    2.7258   -0.0533    0.2363 C   0  0  0  0  0  0  0  0  0  0  0  0
    4.0101    0.4045    0.4457 C   0  0  0  0  0  0  0  0  0  0  0  0
    2.4474   -1.1008   -0.6170 C   0  0  0  0  0  0  0  0  0  0  0  0
    5.0635   -0.2127   -0.2288 C   0  0  0  0  0  0  0  0  0  0  0  0
    3.5010   -1.7181   -1.2914 C   0  0  0  0  0  0  0  0  0  0  0  0
    4.8089   -1.2740   -1.0972 C   0  0  0  0  0  0  0  0  0  0  0  0
  1 14  2  0
  2  9  1  0
  2 12  1  0
  2 13  1  0
  3  6  1  0
  3 14  1  0
  4  5  1  0
  4  6  1  0
  4  9  1  0
  5  7  1  0
  5  8  1  0
  6 10  1  0
  7 11  1  0
  8 12  1  0
 10 11  1  0
 14 15  1  0
 15 16  2  0
 15 17  1  0
 16 18  1  0
 17 19  2  0
 18 20  2  0
 19 20  1  0
M  END
>  <PUBCHEM_COMPOUND_CID>  (1) 
40803

>  <PUBCHEM_CONFORMER_RMSD>  (1) 
0.6

>  <PUBCHEM_CONFORMER_DIVERSEORDER>  (1) 
1
4
9
8
7
6
5
2
3

>  <PUBCHEM_MMFF94_PARTIAL_CHARGES>  (1) 
20
1 -0.57
12 0.27
13 0.27
14 0.54
15 0.09
16 -0.15
17 -0.15
18 -0.15
19 -0.15
2 -0.81
20 -0.15
3 -0.73
36 0.37
40 0.15
41 0.15
42 0.15
43 0.15
44 0.15
6 0.3
9 0.27

>  <PUBCHEM_EFFECTIVE_ROTOR_COUNT>  (1) 
4.6

>  <PUBCHEM_PHARMACOPHORE_FEATURES>  (1) 
6
1 1 acceptor
1 2 cation
1 3 donor
6 15 16 17 18 19 20 rings
6 2 4 5 8 9 12 rings
6 4 5 6 7 10 11 rings

>  <PUBCHEM_HEAVY_ATOM_COUNT>  (1) 
20

>  <PUBCHEM_ATOM_DEF_STEREO_COUNT>  (1) 
2

>  <PUBCHEM_ATOM_UDEF_STEREO_COUNT>  (1) 
1

>  <PUBCHEM_BOND_DEF_STEREO_COUNT>  (1) 
0

>  <PUBCHEM_BOND_UDEF_STEREO_COUNT>  (1) 
0

>  <PUBCHEM_ISOTOPIC_ATOM_COUNT>  (1) 
0

>  <PUBCHEM_COMPONENT_COUNT>  (1) 
1

>  <PUBCHEM_CACTVS_TAUTO_COUNT>  (1) 
2

>  <PUBCHEM_CONFORMER_ID>  (1) 
00009F6300000001

>  <PUBCHEM_MMFF94_ENERGY>  (1) 
39.5653

>  <PUBCHEM_FEATURE_SELFOVERLAP>  (1) 
30.463

>  <PUBCHEM_SHAPE_FINGERPRINT>  (1) 
10764073 3 16978758981722867843
107951 10 18121779431313575485
11543360 7 18186811279246657116
11552529 35 12246805258844995724
11578080 2 14547295793719487529
11582403 64 15965591039519035889
11640471 11 16371281108814602401
121448 382 17967536757376826250
12363563 72 18337678627852104531
12553582 1 18114455760386098843
12633257 1 16200159836544128975
12670546 177 18333453162049198068
13103583 49 16414931849655866515
13402501 40 18343021103370214375
13544653 18 18131072670472666016
14251764 30 17460052870921293483
14386348 63 18341893021519407475
15163728 17 16881862333455443333
15475509 8 18409722959943295109
15961568 22 17895754140521571252
17357779 13 18340760528874448655
200 152 17060327501016228708
20567600 254 10591501468464408899
20603629 256 16701443689090634088
20693207 138 18343013385282061972
20775530 9 17128429207026692143
20871999 31 18335130960842616765
21713013 43 18341900645471135804
221490 88 18201443554377538686
22393880 68 18263929826618390470
23402539 116 18040714758337882516
23557571 272 18409158918119114496
23559900 14 18337380613167469968
23598288 3 15625955217686962088
2871803 45 18412822473867481406
312425 83 17678471766274749494
3268164 11 17895196575812683412
474 4 12757139169438949085
4921388 177 18336268937854474301
7097593 13 12031788029091960348
81228 2 18409158897050577241
84936 31 17623277682524949489
9709674 26 18341330003078306358

>  <PUBCHEM_SHAPE_MULTIPOLES>  (1) 
395.76
9.31
2.91
1.49
8.87
0.08
-0.06
5.18
2.6
-3.29
-0.05
-0.16
-0.08
2.03

>  <PUBCHEM_SHAPE_SELFOVERLAP>  (1) 
831.567

>  <PUBCHEM_SHAPE_VOLUME>  (1) 
220.8

>  <PUBCHEM_COORDINATE_TYPE>  (1) 
2
5
10

$$$$
