40809
     RDKit          3D

 25 25  0  0  1  0  0  0  0  0999 V2000
   -4.6863   -0.9969    2.3235 Cl  0  0  0  0  0  0  0  0  0  0  0  0
   -2.7202    2.2850   -2.6100 Cl  0  0  0  0  0  0  0  0  0  0  0  0
   -5.1906    3.3296   -0.7990 Cl  0  0  0  0  0  0  0  0  0  0  0  0
    4.3106    1.1060    0.3573 O   0  0  0  0  0  0  0  0  0  0  0  0
    3.6143   -1.3593   -0.7244 O   0  0  0  0  0  0  0  0  0  0  0  0
    1.0545   -2.3023   -0.0787 O   0  0  0  0  0  0  0  0  0  0  0  0
   -2.4332   -1.7088    0.4663 O   0  0  0  0  0  0  0  0  0  0  0  0
   -0.8163   -3.0812   -1.1797 O   0  0  0  0  0  0  0  0  0  0  0  0
    4.4853    2.5138    0.2804 C   0  0  0  0  0  0  0  0  0  0  0  0
    3.4810    3.1950    1.2124 C   0  0  0  0  0  0  0  0  0  0  0  0
    5.1982    0.4221   -0.5190 C   0  0  0  0  0  0  0  0  0  0  0  0
    5.9175    2.8538    0.6703 C   0  0  0  0  0  0  0  0  0  0  0  0
    4.9653   -1.0712   -0.3928 C   0  0  0  0  0  0  0  0  0  0  0  0
    2.0407    2.8391    0.8679 C   0  0  0  0  0  0  0  0  0  0  0  0
    3.3439   -2.7535   -0.6442 C   0  0  0  0  0  0  0  0  0  0  0  0
   -1.0451   -1.6230    0.7486 C   0  0  0  0  0  0  0  0  0  0  0  0
    1.8919   -2.9977   -1.0079 C   0  0  0  0  0  0  0  0  0  0  0  0
   -0.2890   -2.4327   -0.2852 C   0  0  0  0  0  0  0  0  0  0  0  0
   -0.8143   -2.1599    2.1503 C   0  0  0  0  0  0  0  0  0  0  0  0
   -3.0811   -0.5351    0.1769 C   0  0  0  0  0  0  0  0  0  0  0  0
   -4.1417   -0.0918    0.9593 C   0  0  0  0  0  0  0  0  0  0  0  0
   -2.6529    0.2056   -0.9199 C   0  0  0  0  0  0  0  0  0  0  0  0
   -3.2930    1.4036   -1.2375 C   0  0  0  0  0  0  0  0  0  0  0  0
   -4.7820    1.1060    0.6417 C   0  0  0  0  0  0  0  0  0  0  0  0
   -4.3574    1.8538   -0.4566 C   0  0  0  0  0  0  0  0  0  0  0  0
  1 21  1  0
  2 23  1  0
  3 25  1  0
  4  9  1  0
  4 11  1  0
  5 13  1  0
  5 15  1  0
  6 17  1  0
  6 18  1  0
  7 16  1  0
  7 20  1  0
  8 18  2  0
  9 10  1  0
  9 12  1  0
 10 14  1  0
 11 13  1  0
 15 17  1  0
 16 18  1  0
 16 19  1  0
 20 21  2  0
 20 22  1  0
 21 24  1  0
 22 23  2  0
 23 25  1  0
 24 25  2  0
M  END
>  <PUBCHEM_COMPOUND_CID>  (1) 
40809

>  <PUBCHEM_CONFORMER_RMSD>  (1) 
1.4

>  <PUBCHEM_CONFORMER_DIVERSEORDER>  (1) 
1
107
135
182
145
94
92
86
180
210
163
118
176
74
29
151
115
194
84
38
179
75
70
116
61
195
187
79
77
119
117
196
156
55
34
114
152
9
137
185
33
19
171
51
88
15
83
125
111
26
177
181
153
80
167
68
25
45
146
158
64
122
202
30
16
157
4
197
43
170
193
22
10
191
204
59
129
112
20
105
166
127
168
132
41
40
174
47
169
67
60
134
37
6
199
36
144
78
198
73
140
108
183
50
121
57
110
66
48
184
106
13
211
136
103
131
165
53
160
31
143
81
58
186
11
39
150
12
130
173
138
17
65
24
18
206
154
141
192
100
52
23
124
201
72
32
98
69
200
148
104
44
8
190
188
7
205
147
35
2
99
139
101
161
102
203
149
209
155
49
56
54
14
82
28
159
21
123
93
91
133
63
96
172
5
95
175
178
126
3
76
189
89
90
207
162
85
109
71
142
87
113
120
42
46
208
164
97
27
62
128

>  <PUBCHEM_MMFF94_PARTIAL_CHARGES>  (1) 
23
1 -0.18
11 0.28
13 0.28
15 0.28
16 0.34
17 0.28
18 0.66
2 -0.18
20 0.08
21 0.18
22 -0.15
23 0.18
24 -0.15
25 0.18
3 -0.18
4 -0.56
47 0.15
48 0.15
5 -0.56
6 -0.43
7 -0.36
8 -0.57
9 0.28

>  <PUBCHEM_EFFECTIVE_ROTOR_COUNT>  (1) 
12

>  <PUBCHEM_PHARMACOPHORE_FEATURES>  (1) 
6
1 14 hydrophobe
1 4 acceptor
1 5 acceptor
1 7 acceptor
1 8 acceptor
6 20 21 22 23 24 25 rings

>  <PUBCHEM_HEAVY_ATOM_COUNT>  (1) 
25

>  <PUBCHEM_ATOM_DEF_STEREO_COUNT>  (1) 
0

>  <PUBCHEM_ATOM_UDEF_STEREO_COUNT>  (1) 
2

>  <PUBCHEM_BOND_DEF_STEREO_COUNT>  (1) 
0

>  <PUBCHEM_BOND_UDEF_STEREO_COUNT>  (1) 
0

>  <PUBCHEM_ISOTOPIC_ATOM_COUNT>  (1) 
0

>  <PUBCHEM_COMPONENT_COUNT>  (1) 
1

>  <PUBCHEM_CACTVS_TAUTO_COUNT>  (1) 
1

>  <PUBCHEM_CONFORMER_ID>  (1) 
00009F6900000001

>  <PUBCHEM_MMFF94_ENERGY>  (1) 
55.9002

>  <PUBCHEM_FEATURE_SELFOVERLAP>  (1) 
30.459

>  <PUBCHEM_SHAPE_FINGERPRINT>  (1) 
11112241 14 18271231794379963445
11595378 159 16587739811291005574
12100795 323 18121210137588404396
12769317 202 18341891866616290578
12925494 130 18264774264381014385
133061 13 18187908574366094412
13402501 40 18408888429995599876
14251757 17 18409730616989334000
14428016 6 18269816688813604253
14739800 52 17823411592102608147
16067690 210 16298682593964112516
1768 210 17630308960568355840
1768 85 18341904012329908945
21388113 180 18411416241598177204
21475661 188 18408319965330583166
22122407 14 18058178215596720721
2838139 119 18411132502757113334
3298306 158 18411697690546549680
4371632 12 17772162435866841257
508706 21 18187922919186876324
550186 83 17968360313531014840

>  <PUBCHEM_SHAPE_MULTIPOLES>  (1) 
490.75
13.83
4.98
1.84
8.33
0.78
0.09
11.01
1.33
2.97
-0.35
-1.91
0.08
4.56

>  <PUBCHEM_SHAPE_SELFOVERLAP>  (1) 
956.033

>  <PUBCHEM_SHAPE_VOLUME>  (1) 
298.7

>  <PUBCHEM_COORDINATE_TYPE>  (1) 
2
5
10

$$$$
