4081
     RDKit          3D

 25 28  0  0  1  0  0  0  0  0999 V2000
   -3.7782    0.9929   -0.2299 S   0  0  0  0  0  0  0  0  0  0  0  0
   -4.2983    0.7881   -1.5762 O   0  0  0  0  0  0  0  0  0  0  0  0
   -2.7507    2.0029   -0.0086 O   0  0  0  0  0  0  0  0  0  0  0  0
   -0.3287   -2.8579   -0.7158 N   0  0  0  0  0  0  0  0  0  0  0  0
    4.3165    0.5019    1.1679 N   0  0  0  0  0  0  0  0  0  0  0  0
   -5.0972    1.2992    0.8349 N   0  0  0  0  0  0  0  0  0  0  0  0
    0.3914   -0.5058   -1.1450 C   0  0  0  0  0  0  0  0  0  0  0  0
    0.8215   -1.9375   -0.6211 C   0  0  0  0  0  0  0  0  0  0  0  0
   -0.8405    0.0049   -0.3846 C   0  0  0  0  0  0  0  0  0  0  0  0
   -1.9761   -1.0215   -0.4484 C   0  0  0  0  0  0  0  0  0  0  0  0
   -1.5019   -2.4003    0.0359 C   0  0  0  0  0  0  0  0  0  0  0  0
    1.5427   -1.9253    0.7841 C   0  0  0  0  0  0  0  0  0  0  0  0
    1.5320    0.4824   -1.0269 C   0  0  0  0  0  0  0  0  0  0  0  0
    2.5093    0.2322   -0.0582 C   0  0  0  0  0  0  0  0  0  0  0  0
    2.5923   -0.8647    0.8226 C   0  0  0  0  0  0  0  0  0  0  0  0
   -3.1767   -0.5464    0.3688 C   0  0  0  0  0  0  0  0  0  0  0  0
    3.5810    1.0774    0.1544 C   0  0  0  0  0  0  0  0  0  0  0  0
    0.0093   -4.2368   -0.3745 C   0  0  0  0  0  0  0  0  0  0  0  0
    1.6739    1.6518   -1.7807 C   0  0  0  0  0  0  0  0  0  0  0  0
    3.7243   -0.6758    1.5803 C   0  0  0  0  0  0  0  0  0  0  0  0
    3.7420    2.2447   -0.5933 C   0  0  0  0  0  0  0  0  0  0  0  0
    2.7619    2.5117   -1.5656 C   0  0  0  0  0  0  0  0  0  0  0  0
    5.5360    1.0414    1.7295 C   0  0  0  0  0  0  0  0  0  0  0  0
   -6.2020    0.3086    0.8663 C   0  0  0  0  0  0  0  0  0  0  0  0
   -4.7838    1.8322    2.1842 C   0  0  0  0  0  0  0  0  0  0  0  0
  1  2  2  0
  1  3  2  0
  1  6  1  0
  1 16  1  0
  4  8  1  0
  4 11  1  0
  4 18  1  0
  5 17  1  0
  5 20  1  0
  5 23  1  0
  6 24  1  0
  6 25  1  0
  7  8  1  0
  7  9  1  0
  7 13  1  0
  8 12  1  0
  9 10  1  0
 10 11  1  0
 10 16  1  0
 12 15  1  0
 13 14  2  0
 13 19  1  0
 14 15  1  0
 14 17  1  0
 15 20  2  0
 17 21  2  0
 19 22  2  0
 21 22  1  0
M  END
>  <PUBCHEM_COMPOUND_CID>  (1) 
4081

>  <PUBCHEM_CONFORMER_RMSD>  (1) 
0.8

>  <PUBCHEM_CONFORMER_DIVERSEORDER>  (1) 
3
32
16
31
50
42
9
22
29
36
49
45
44
52
27
35
38
20
56
11
8
18
15
54
55
39
17
14
47
2
10
43
7
30
28
23
57
4
26
19
53
5
40
46
21
12
33
48
41
1
24
6
25
34
13
51
58
37

>  <PUBCHEM_MMFF94_PARTIAL_CHARGES>  (1) 
26
1 1.33
11 0.27
12 0.18
13 -0.14
15 -0.18
16 0.11
17 -0.15
18 0.27
19 -0.15
2 -0.65
20 -0.3
21 -0.15
22 -0.15
23 0.26
24 0.36
25 0.36
3 -0.65
4 -0.81
40 0.15
41 0.15
42 0.15
43 0.15
5 0.05
6 -0.85
7 0.14
8 0.27

>  <PUBCHEM_EFFECTIVE_ROTOR_COUNT>  (1) 
4

>  <PUBCHEM_PHARMACOPHORE_FEATURES>  (1) 
8
1 2 acceptor
1 3 acceptor
1 4 cation
1 5 cation
5 5 14 15 17 20 rings
6 13 14 17 19 21 22 rings
6 4 7 8 9 10 11 rings
6 7 8 12 13 14 15 rings

>  <PUBCHEM_HEAVY_ATOM_COUNT>  (1) 
25

>  <PUBCHEM_ATOM_DEF_STEREO_COUNT>  (1) 
0

>  <PUBCHEM_ATOM_UDEF_STEREO_COUNT>  (1) 
3

>  <PUBCHEM_BOND_DEF_STEREO_COUNT>  (1) 
0

>  <PUBCHEM_BOND_UDEF_STEREO_COUNT>  (1) 
0

>  <PUBCHEM_ISOTOPIC_ATOM_COUNT>  (1) 
0

>  <PUBCHEM_COMPONENT_COUNT>  (1) 
1

>  <PUBCHEM_CACTVS_TAUTO_COUNT>  (1) 
1

>  <PUBCHEM_CONFORMER_ID>  (1) 
00000FF100000003

>  <PUBCHEM_MMFF94_ENERGY>  (1) 
59.3492

>  <PUBCHEM_FEATURE_SELFOVERLAP>  (1) 
40.889

>  <PUBCHEM_SHAPE_FINGERPRINT>  (1) 
10498660 4 15985105176473168353
10674148 151 18335714879839389828
10692045 39 18058722499627619754
10928967 22 7997683169644088625
11640471 11 18341611533557457727
11720765 8 16196799523046401188
11725454 13 16988267764121708538
11796584 16 13336108965029320760
12035758 1 18195796389675219986
12107183 9 18410002235664953506
12422481 6 18114732720983052216
12633257 1 17458627843046283203
12788726 201 17907860952568648591
12978246 48 18335139786942679825
13140716 1 18042112327763743308
13540713 5 17898847122453250806
13583140 156 17023171709379968999
13965767 371 18336263431780266776
14178342 30 18192414485086607722
14341114 328 18334301997741918273
14739800 52 17765987677829943304
14955137 171 18113340795740063928
15183329 4 8430321221729277355
15188451 53 15357703020084627633
15210252 30 13182726044434097923
15238133 3 18271809059902448608
15475509 8 18335996303022862956
15842332 3 17753328965935141318
1601671 61 18260549987940397542
19377110 9 18342182176804745107
19784866 140 9727356865495662016
1979834 28 18263096443975134869
20157964 124 18335978654870459245
20715895 44 18045490921012256989
20739085 24 18191026703453046326
21033648 29 18130212861523730970
21033650 10 17631749273207819028
21049683 271 17979090288186749502
21427221 339 18260824947267149030
221357 26 10375869650460922867
22149856 69 18198648600621290899
22182313 1 17971454223044171518
23184049 59 18187633687947628406
235170 7 14908179746530276673
23559900 14 18200889417480913566
23569917 315 18412542128489217487
23622692 88 18187358835778768212
25147074 1 17897439730268574110
2748010 2 17756674496635685886
2838139 119 16558452176324065464
3472631 163 17418367025909575033
38570 142 17533805911941869492
427121 178 18131071506726413402
474 4 18340209600909067447
5104073 3 17970617709554718008
58807428 26 18408600348963815379
633830 44 18130795520976370375
7064713 232 18411693326912427152
7097593 13 18115292480224080962
7808743 9 18196096766259323820
960060 61 10591756546461036609
9981440 41 18411417306850326363

>  <PUBCHEM_SHAPE_MULTIPOLES>  (1) 
491.66
10.99
3.37
1.67
9.35
3.01
0.33
-8.26
6.17
-0.18
-0.77
-0.44
-0.82
-1.58

>  <PUBCHEM_SHAPE_SELFOVERLAP>  (1) 
1043.541

>  <PUBCHEM_SHAPE_VOLUME>  (1) 
279.1

>  <PUBCHEM_COORDINATE_TYPE>  (1) 
2
5
10

$$$$
