40821
     RDKit          3D

 29 33  0  0  0  0  0  0  0  0999 V2000
    4.6622   -2.3626    1.3625 O   0  0  0  0  0  0  0  0  0  0  0  0
    3.5814   -1.5627   -2.5017 O   0  0  0  0  0  0  0  0  0  0  0  0
    4.5335   -3.2097   -1.2579 O   0  0  0  0  0  0  0  0  0  0  0  0
   -0.1694    0.1079    0.2698 N   0  0  0  0  0  0  0  0  0  0  0  0
   -1.3909   -0.5055    0.2608 C   0  0  0  0  0  0  0  0  0  0  0  0
   -1.6328   -1.9411    0.5535 C   0  0  0  0  0  0  0  0  0  0  0  0
   -2.3522    0.4402   -0.0344 C   0  0  0  0  0  0  0  0  0  0  0  0
   -2.9263   -2.3954   -0.1466 C   0  0  0  0  0  0  0  0  0  0  0  0
   -3.7423    0.0266   -0.0995 C   0  0  0  0  0  0  0  0  0  0  0  0
   -4.0386   -1.3587   -0.1098 C   0  0  0  0  0  0  0  0  0  0  0  0
   -0.3363    1.4412   -0.0119 C   0  0  0  0  0  0  0  0  0  0  0  0
   -1.6832    1.6767   -0.2017 C   0  0  0  0  0  0  0  0  0  0  0  0
    1.0520   -0.5182    0.5405 C   0  0  0  0  0  0  0  0  0  0  0  0
   -4.7801    0.9634   -0.1393 C   0  0  0  0  0  0  0  0  0  0  0  0
    0.7565    2.3894   -0.0800 C   0  0  0  0  0  0  0  0  0  0  0  0
   -5.3748   -1.7728   -0.1763 C   0  0  0  0  0  0  0  0  0  0  0  0
   -6.1064    0.5321   -0.1918 C   0  0  0  0  0  0  0  0  0  0  0  0
   -6.4029   -0.8303   -0.2101 C   0  0  0  0  0  0  0  0  0  0  0  0
    1.7903   -1.0532   -0.5046 C   0  0  0  0  0  0  0  0  0  0  0  0
    1.5039   -0.5920    1.8495 C   0  0  0  0  0  0  0  0  0  0  0  0
    1.1531    3.0724    1.0663 C   0  0  0  0  0  0  0  0  0  0  0  0
    1.4031    2.6125   -1.2923 C   0  0  0  0  0  0  0  0  0  0  0  0
    3.0085   -1.6765   -0.2343 C   0  0  0  0  0  0  0  0  0  0  0  0
    2.7223   -1.2152    2.1198 C   0  0  0  0  0  0  0  0  0  0  0  0
    3.4745   -1.7575    1.0779 C   0  0  0  0  0  0  0  0  0  0  0  0
    2.2049    3.9862    0.9996 C   0  0  0  0  0  0  0  0  0  0  0  0
    2.4550    3.5261   -1.3589 C   0  0  0  0  0  0  0  0  0  0  0  0
    2.8558    4.2130   -0.2129 C   0  0  0  0  0  0  0  0  0  0  0  0
    3.7790   -2.2363   -1.3363 C   0  0  0  0  0  0  0  0  0  0  0  0
  1 25  1  0
  2 29  1  0
  3 29  2  0
  4  5  1  0
  4 11  1  0
  4 13  1  0
  5  6  1  0
  5  7  2  0
  6  8  1  0
  7  9  1  0
  7 12  1  0
  8 10  1  0
  9 10  2  0
  9 14  1  0
 10 16  1  0
 11 12  2  0
 11 15  1  0
 13 19  2  0
 13 20  1  0
 14 17  2  0
 15 21  2  0
 15 22  1  0
 16 18  2  0
 17 18  1  0
 19 23  1  0
 20 24  2  0
 21 26  1  0
 22 27  2  0
 23 25  2  0
 23 29  1  0
 24 25  1  0
 26 28  2  0
 27 28  1  0
M  END
>  <PUBCHEM_COMPOUND_CID>  (1) 
40821

>  <PUBCHEM_CONFORMER_RMSD>  (1) 
0.8

>  <PUBCHEM_CONFORMER_DIVERSEORDER>  (1) 
1
3
6
5
2
4

>  <PUBCHEM_MMFF94_PARTIAL_CHARGES>  (1) 
44
1 -0.53
10 -0.14
11 -0.2
12 -0.15
13 -0.02
14 -0.15
15 0.05
16 -0.15
17 -0.15
18 -0.15
19 -0.15
2 -0.65
20 -0.15
21 -0.15
22 -0.15
23 0.09
24 -0.15
25 0.08
26 -0.15
27 -0.15
28 -0.15
29 0.63
3 -0.57
34 0.15
35 0.15
36 0.15
37 0.15
38 0.15
39 0.15
4 0.33
40 0.15
41 0.15
42 0.15
43 0.15
44 0.15
45 0.15
46 0.15
47 0.45
48 0.5
5 -0.33
6 0.18
7 -0.05
8 0.14
9 0.05

>  <PUBCHEM_EFFECTIVE_ROTOR_COUNT>  (1) 
3.4

>  <PUBCHEM_PHARMACOPHORE_FEATURES>  (1) 
10
1 1 donor
1 2 acceptor
1 3 acceptor
1 4 cation
3 2 3 29 anion
5 4 5 7 11 12 rings
6 13 19 20 23 24 25 rings
6 15 21 22 26 27 28 rings
6 5 6 7 8 9 10 rings
6 9 10 14 16 17 18 rings

>  <PUBCHEM_HEAVY_ATOM_COUNT>  (1) 
29

>  <PUBCHEM_ATOM_DEF_STEREO_COUNT>  (1) 
0

>  <PUBCHEM_ATOM_UDEF_STEREO_COUNT>  (1) 
0

>  <PUBCHEM_BOND_DEF_STEREO_COUNT>  (1) 
0

>  <PUBCHEM_BOND_UDEF_STEREO_COUNT>  (1) 
0

>  <PUBCHEM_ISOTOPIC_ATOM_COUNT>  (1) 
0

>  <PUBCHEM_COMPONENT_COUNT>  (1) 
1

>  <PUBCHEM_CACTVS_TAUTO_COUNT>  (1) 
4

>  <PUBCHEM_CONFORMER_ID>  (1) 
00009F7500000001

>  <PUBCHEM_MMFF94_ENERGY>  (1) 
105.7802

>  <PUBCHEM_FEATURE_SELFOVERLAP>  (1) 
50.915

>  <PUBCHEM_SHAPE_FINGERPRINT>  (1) 
10050765 1 18337109086073209211
10169797 241 17969798551564235091
10369192 42 17610060435777552221
10554248 39 18341316878476103365
10721379 63 18339091478972018860
1100329 8 18197223542693384265
11513181 2 18126565854411397743
11763715 3 17680416755157329538
11963148 33 17615117120182864203
12236239 1 17458908111116649554
12342043 65 17414710974387348718
12422481 6 17974533022821391136
12553582 1 18263649472047726419
12741549 16 17702083808329518320
12788726 201 17972889046800131530
131258 43 17631475426810379900
13140716 1 18335697269934795075
133893 2 18261690249638226912
13533116 47 18341895255719669689
13540713 4 18115597092395408819
13757389 114 17551539655359992236
14022347 108 18264204725298577170
140371 6 18200322009303926475
14739800 52 17916295229383188553
15324884 4 17842250615779728436
15475509 8 18054803788545754765
15664445 248 18410858729015583690
15775530 1 17533799340135140579
16112460 7 18341062839413135769
17492 89 18267017448627518835
1813 80 18340486660163460834
18222031 100 18341333292833630203
20028762 73 17185885432898064371
20554085 129 17913199051530745912
20567600 347 17830734614305315232
20600515 1 18196356031949675688
20642791 239 17823728341672075068
20691752 17 17096071606581476185
20771845 65 18060140907690780240
20775438 99 18194390328651018487
21033648 144 16593354154471856757
21033648 29 17344886561109905187
21133665 82 17904205073156168700
21859007 373 17533747500587103781
22311459 1 18264485088880668227
22393880 68 18053392268639037661
23366157 5 18041554853308263313
23557571 272 18268140951878553466
23559900 14 18343018900267820771
244849 19 17532106045305472281
3004659 81 18115032900706341670
3178227 256 18262531282413938313
3298306 158 18051701228482901284
3411729 13 18264481965511425776
350125 39 18334571326952425645
376196 1 17830729116584101272
38695281 34 18054790856351812236
4017518 198 17981898746659989924
4280585 95 18409730617353343654
460360 51 18337688480929114073
5081480 168 18260539026841064805
5104073 3 18336549413253441785
513532 50 17845940744185443796
57527293 21 17984948636779575306
5895379 119 17702401584460023929
59755656 215 18263362658416429132
621550 5 17702101357803246170
70251023 43 18410302397658993635
7364860 26 18339921635762213944
7399639 24 17914036626631150482
9841814 1 18261103071652378603
9981440 41 17685209869423652577

>  <PUBCHEM_SHAPE_MULTIPOLES>  (1) 
574.22
11.13
4.78
1.49
16.56
3.82
0.07
-5.47
1.64
-7.77
0.55
-2.42
-0.54
0.28

>  <PUBCHEM_SHAPE_SELFOVERLAP>  (1) 
1302.18

>  <PUBCHEM_SHAPE_VOLUME>  (1) 
301.6

>  <PUBCHEM_COORDINATE_TYPE>  (1) 
2
5
10

$$$$
