40836
     RDKit          3D

 24 26  0  0  1  0  0  0  0  0999 V2000
   -1.2064    3.8020   -1.0607 Cl  0  0  0  0  0  0  0  0  0  0  0  0
    1.1505    0.3805    1.0211 Si  0  0  0  0  0  4  0  0  0  0  0  0
   -1.2032    2.3787    0.4156 Si  0  0  0  0  0  4  0  0  0  0  0  0
    0.2947    1.6578    0.3767 O   0  0  0  0  0  0  0  0  0  0  0  0
    2.8011    0.2639    0.1284 C   0  0  0  0  0  0  0  0  0  0  0  0
    0.2372   -1.1889    0.5278 C   0  0  0  0  0  0  0  0  0  0  0  0
    1.4066    0.5330    2.8567 C   0  0  0  0  0  0  0  0  0  0  0  0
   -2.4544    1.1139   -0.1540 C   0  0  0  0  0  0  0  0  0  0  0  0
   -1.6120    3.1855    2.0244 C   0  0  0  0  0  0  0  0  0  0  0  0
    3.6431   -0.8060    0.3914 C   0  0  0  0  0  0  0  0  0  0  0  0
   -0.0310   -1.4264   -0.8111 C   0  0  0  0  0  0  0  0  0  0  0  0
    3.1549    1.2495   -0.7808 C   0  0  0  0  0  0  0  0  0  0  0  0
   -0.1547   -2.0846    1.5103 C   0  0  0  0  0  0  0  0  0  0  0  0
   -3.1880    0.3933    0.7852 C   0  0  0  0  0  0  0  0  0  0  0  0
   -2.6489    0.8957   -1.5157 C   0  0  0  0  0  0  0  0  0  0  0  0
    4.8680   -0.8924   -0.2703 C   0  0  0  0  0  0  0  0  0  0  0  0
   -0.7085   -2.5894   -1.1770 C   0  0  0  0  0  0  0  0  0  0  0  0
    4.3797    1.1630   -1.4425 C   0  0  0  0  0  0  0  0  0  0  0  0
   -0.8323   -3.2476    1.1443 C   0  0  0  0  0  0  0  0  0  0  0  0
    5.2363    0.0920   -1.1872 C   0  0  0  0  0  0  0  0  0  0  0  0
   -1.1091   -3.5000   -0.1994 C   0  0  0  0  0  0  0  0  0  0  0  0
   -4.1218   -0.5516    0.3602 C   0  0  0  0  0  0  0  0  0  0  0  0
   -3.5828   -0.0492   -1.9406 C   0  0  0  0  0  0  0  0  0  0  0  0
   -4.3192   -0.7728   -1.0027 C   0  0  0  0  0  0  0  0  0  0  0  0
  1  3  1  0
  2  4  1  0
  2  5  1  0
  2  6  1  0
  2  7  1  0
  3  4  1  0
  3  8  1  0
  3  9  1  0
  5 10  2  0
  5 12  1  0
  6 11  2  0
  6 13  1  0
  8 14  2  0
  8 15  1  0
 10 16  1  0
 11 17  1  0
 12 18  2  0
 13 19  2  0
 14 22  1  0
 15 23  2  0
 16 20  2  0
 17 21  2  0
 18 20  1  0
 19 21  1  0
 22 24  2  0
 23 24  1  0
M  END
>  <PUBCHEM_COMPOUND_CID>  (1) 
40836

>  <PUBCHEM_CONFORMER_RMSD>  (1) 
0.8

>  <PUBCHEM_CONFORMER_DIVERSEORDER>  (1) 
1
9
10
30
31
22
24
26
15
28
16
32
25
7
18
6
21
2
14
5
4
3
8
29
13
19
12
20
17
23
11
33
27

>  <PUBCHEM_MMFF94_PARTIAL_CHARGES>  (1) 
39
1 -0.37
10 -0.15
11 -0.15
12 -0.15
13 -0.15
14 -0.15
15 -0.15
16 -0.15
17 -0.15
18 -0.15
19 -0.15
2 0.82
20 -0.15
21 -0.15
22 -0.15
23 -0.15
24 -0.15
3 0.97
31 0.15
32 0.15
33 0.15
34 0.15
35 0.15
36 0.15
37 0.15
38 0.15
39 0.15
4 -0.59
40 0.15
41 0.15
42 0.15
43 0.15
44 0.15
45 0.15
5 -0.22
6 -0.22
7 -0.08
8 -0.22
9 -0.08

>  <PUBCHEM_EFFECTIVE_ROTOR_COUNT>  (1) 
5

>  <PUBCHEM_PHARMACOPHORE_FEATURES>  (1) 
3
6 5 10 12 16 18 20 rings
6 6 11 13 17 19 21 rings
6 8 14 15 22 23 24 rings

>  <PUBCHEM_HEAVY_ATOM_COUNT>  (1) 
24

>  <PUBCHEM_ATOM_DEF_STEREO_COUNT>  (1) 
0

>  <PUBCHEM_ATOM_UDEF_STEREO_COUNT>  (1) 
1

>  <PUBCHEM_BOND_DEF_STEREO_COUNT>  (1) 
0

>  <PUBCHEM_BOND_UDEF_STEREO_COUNT>  (1) 
0

>  <PUBCHEM_ISOTOPIC_ATOM_COUNT>  (1) 
0

>  <PUBCHEM_COMPONENT_COUNT>  (1) 
1

>  <PUBCHEM_CACTVS_TAUTO_COUNT>  (1) 
1

>  <PUBCHEM_CONFORMER_ID>  (1) 
00009F8400000001

>  <PUBCHEM_MMFF94_ENERGY>  (1) 
45.9533

>  <PUBCHEM_FEATURE_SELFOVERLAP>  (1) 
15.223

>  <PUBCHEM_SHAPE_FINGERPRINT>  (1) 
10119406 146 18195545714083192358
10759866 29 17530953670671700802
10863032 1 15791997953576399377
11578080 2 17557709350226353096
121448 382 18341044112812191336
12156800 1 11651432159182091481
12467345 10 17459197433156521406
12596599 1 17202462542155254845
12788726 201 18131083631530489928
13140716 1 18197490934202370634
13149001 5 18123460842021567237
133893 2 17755856416264801339
13583140 156 16515979111616224176
14251740 79 18411424981861899334
14251751 93 18198906903131132924
14251757 5 18190185761699557182
14787075 74 18261110815927208439
14790565 3 18409739439116442905
14955137 171 18129384968286652419
15209289 33 18131354098494867465
15848702 105 18114179756970655122
16752209 62 18337938009448407848
17349148 13 18272093747651476174
17492 54 18261390091732665445
17980427 23 17245796309593250976
19958102 18 18339370665269277206
20691752 17 18268689727986321153
20775438 99 16976141456691353551
21033650 10 17701287775107606684
21049683 271 16819705184216215338
22182313 1 17911513513057591938
22907989 373 18126031414508467324
23227448 37 17605845939135833708
23402539 116 18342459218536618036
23419403 2 17344069838381150826
23559900 14 18269276923668665568
2818148 4 17688611762895307691
283562 15 18341328894908568553
3027735 51 17845388664757182574
563151 40 17698757755279753929
81228 2 17979893219226201227

>  <PUBCHEM_SHAPE_MULTIPOLES>  (1) 
526.33
7.98
3.93
1.99
7.02
0.23
-0.65
-0.25
4.05
-2.56
-0.37
-0.12
-0.49
-0.65

>  <PUBCHEM_SHAPE_SELFOVERLAP>  (1) 
1085.06

>  <PUBCHEM_SHAPE_VOLUME>  (1) 
301.4

>  <PUBCHEM_COORDINATE_TYPE>  (1) 
2
5
10

$$$$
