40847
     RDKit          3D

 12 12  0  0  0  0  0  0  0  0999 V2000
   -1.1334   -2.1578    0.3757 O   0  0  0  0  0  0  0  0  0  0  0  0
   -2.9170    2.1374   -0.4463 O   0  0  0  0  0  0  0  0  0  0  0  0
   -0.2348    0.0982    0.4675 C   0  0  0  0  0  0  0  0  0  0  0  0
    1.1747   -0.1386    0.8872 C   0  0  0  0  0  0  0  0  0  0  0  0
   -0.6967    1.5015    0.2336 C   0  0  0  0  0  0  0  0  0  0  0  0
    2.1738    0.3412   -0.1670 C   0  0  0  0  0  0  0  0  0  0  0  0
   -1.2082   -0.7991    0.2552 C   0  0  0  0  0  0  0  0  0  0  0  0
   -2.5117   -0.2164   -0.1591 C   0  0  0  0  0  0  0  0  0  0  0  0
   -2.1309    1.2414   -0.1562 C   0  0  0  0  0  0  0  0  0  0  0  0
    3.6156    0.1230    0.2930 C   0  0  0  0  0  0  0  0  0  0  0  0
    4.6121    0.6324   -0.7363 C   0  0  0  0  0  0  0  0  0  0  0  0
   -0.7434   -2.7632   -0.8472 C   0  0  0  0  0  0  0  0  0  0  0  0
  1  7  1  0
  1 12  1  0
  2  9  2  0
  3  4  1  0
  3  5  1  0
  3  7  2  0
  4  6  1  0
  5  9  1  0
  6 10  1  0
  7  8  1  0
  8  9  1  0
 10 11  1  0
M  END
>  <PUBCHEM_COMPOUND_CID>  (1) 
40847

>  <PUBCHEM_CONFORMER_RMSD>  (1) 
0.6

>  <PUBCHEM_CONFORMER_DIVERSEORDER>  (1) 
1
18
24
15
11
17
4
3
23
25
22
14
10
7
6
5
21
20
8
12
2
13
19
16
9

>  <PUBCHEM_MMFF94_PARTIAL_CHARGES>  (1) 
9
1 -0.36
12 0.28
2 -0.57
3 -0.28
4 0.14
5 0.2
7 -0.06
8 0.2
9 0.45

>  <PUBCHEM_EFFECTIVE_ROTOR_COUNT>  (1) 
4.4

>  <PUBCHEM_PHARMACOPHORE_FEATURES>  (1) 
4
1 1 acceptor
1 11 hydrophobe
1 2 acceptor
5 3 5 7 8 9 rings

>  <PUBCHEM_HEAVY_ATOM_COUNT>  (1) 
12

>  <PUBCHEM_ATOM_DEF_STEREO_COUNT>  (1) 
0

>  <PUBCHEM_ATOM_UDEF_STEREO_COUNT>  (1) 
0

>  <PUBCHEM_BOND_DEF_STEREO_COUNT>  (1) 
0

>  <PUBCHEM_BOND_UDEF_STEREO_COUNT>  (1) 
0

>  <PUBCHEM_ISOTOPIC_ATOM_COUNT>  (1) 
0

>  <PUBCHEM_COMPONENT_COUNT>  (1) 
1

>  <PUBCHEM_CACTVS_TAUTO_COUNT>  (1) 
5

>  <PUBCHEM_CONFORMER_ID>  (1) 
00009F8F00000001

>  <PUBCHEM_MMFF94_ENERGY>  (1) 
10.4792

>  <PUBCHEM_FEATURE_SELFOVERLAP>  (1) 
20.297

>  <PUBCHEM_SHAPE_FINGERPRINT>  (1) 
10726558 24 18269275664335600741
12138202 97 18342175561779701246
12500047 106 18413102858259758172
12716758 59 18341324574070845832
12932764 1 18339364166777516512
13024252 1 16732984270965475779
15669948 3 18336822082840573050
15775835 57 18041279868254042108
16945 1 18337657724372563803
1741750 31 18411416172688796672
18534176 82 18272937141398911132
20279233 1 17775283881190844058
20524608 308 18413107285917567566
20645476 183 18259985963717826058
20645477 56 18411139147488173480
20711985 344 18194947750627517219
20871998 184 18340774848279874855
20871998 22 17619628424643264883
20871999 31 18343014531900920277
21061003 4 16987734552643294394
21524375 3 18189888725860816601
23402539 116 18342166782898196829
23552423 10 17692241946689612905
23557571 272 18199757002235445064
23559900 14 18273494560257440104
23598291 2 17895743011912335194
2748010 2 18339647715838594635
3071541 12 17547856252693649361
4175511 318 18410857681006114324
58051976 100 18261675879257552054
58734987 41 18196656189880843939
6333449 129 18412262848007594744
81228 2 18123172765669476043
81539 233 18046900490338553589
88987 49 18267845307572443080
93112 12 18411422834604961716

>  <PUBCHEM_SHAPE_MULTIPOLES>  (1) 
235.22
5.92
2.29
0.84
8.35
1.3
0
-2.22
1.4
-2.27
0.55
0.21
0.11
0.01

>  <PUBCHEM_SHAPE_SELFOVERLAP>  (1) 
465.254

>  <PUBCHEM_SHAPE_VOLUME>  (1) 
142.8

>  <PUBCHEM_COORDINATE_TYPE>  (1) 
2
5
10

$$$$
