4084
     RDKit          2D

 25 27  0  0  1  0  0  0  0  0999 V2000
    0.0000    0.0000    0.0000 S   0  0  0  0  0  0  0  0  0  0  0  0
    0.0000    0.0000    0.0000 O   0  0  0  0  0  0  0  0  0  0  0  0
    0.0000    0.0000    0.0000 O   0  0  0  0  0  0  0  0  0  0  0  0
    0.0000    0.0000    0.0000 O   0  0  0  0  0  0  0  0  0  0  0  0
    0.0000    0.0000    0.0000 O   0  0  0  0  0  0  0  0  0  0  0  0
    0.0000    0.0000    0.0000 N   0  0  0  0  0  0  0  0  0  0  0  0
    0.0000    0.0000    0.0000 N   0  0  0  0  0  0  0  0  0  0  0  0
    0.0000    0.0000    0.0000 N   0  0  0  0  0  0  0  0  0  0  0  0
    0.0000    0.0000    0.0000 C   0  0  0  0  0  0  0  0  0  0  0  0
    0.0000    0.0000    0.0000 C   0  0  0  0  0  0  0  0  0  0  0  0
    0.0000    0.0000    0.0000 C   0  0  0  0  0  0  0  0  0  0  0  0
    0.0000    0.0000    0.0000 C   0  0  0  0  0  0  0  0  0  0  0  0
    0.0000    0.0000    0.0000 C   0  0  0  0  0  0  0  0  0  0  0  0
    0.0000    0.0000    0.0000 C   0  0  0  0  0  0  0  0  0  0  0  0
    0.0000    0.0000    0.0000 C   0  0  0  0  0  0  0  0  0  0  0  0
    0.0000    0.0000    0.0000 C   0  0  0  0  0  0  0  0  0  0  0  0
    0.0000    0.0000    0.0000 C   0  0  0  0  0  0  0  0  0  0  0  0
    0.0000    0.0000    0.0000 C   0  0  0  0  0  0  0  0  0  0  0  0
    0.0000    0.0000    0.0000 C   0  0  0  0  0  0  0  0  0  0  0  0
    0.0000    0.0000    0.0000 C   0  0  0  0  0  0  0  0  0  0  0  0
    0.0000    0.0000    0.0000 C   0  0  0  0  0  0  0  0  0  0  0  0
    0.0000    0.0000    0.0000 C   0  0  0  0  0  0  0  0  0  0  0  0
    0.0000    0.0000    0.0000 C   0  0  0  0  0  0  0  0  0  0  0  0
    0.0000    0.0000    0.0000 C   0  0  0  0  0  0  0  0  0  0  0  0
    0.0000    0.0000    0.0000 C   0  0  0  0  0  0  0  0  0  0  0  0
  1  9  1  0
  1 10  1  0
  2 13  2  0
  3 16  1  0
  4 16  2  0
  5 17  2  0
  6  9  1  0
  6 11  1  0
  6 13  1  0
  7 12  1  0
  7 17  1  0
  8 18  1  0
  8 24  2  0
  9 12  1  0
 10 11  1  0
 10 14  1  0
 10 15  1  0
 11 16  1  0
 12 13  1  0
 17 18  1  0
 18 19  1  0
 19 20  2  0
 19 21  1  0
 20 22  1  0
 21 23  2  0
 22 25  2  0
 23 25  1  0
M  END
>  <PUBCHEM_COMPOUND_CID>  (1) 
4084

>  <PUBCHEM_CONFORMER_RMSD>  (1) 
0.8

>  <PUBCHEM_CONFORMER_DIVERSEORDER>  (1) 
15
178
142
305
111
306
264
141
165
113
200
209
105
259
7
282
112
74
161
277
160
224
125
247
131
167
278
159
266
30
225
237
96
100
294
61
110
218
242
230
5
95
198
133
174
83
289
255
275
119
75
146
49
166
280
148
211
296
139
220
116
97
182
288
170
175
121
189
240
35
149
152
72
156
54
197
183
244
249
276
219
199
297
24
208
91
307
168
270
155
71
1
303
221
172
171
120
195
292
207
226
258
184
62
92
286
101
217
180
26
22
44
4
129
239
53
260
145
223
203
143
252
65
229
13
206
28
227
147
302
14
103
205
122
117
295
29
251
59
128
162
256
32
87
304
124
102
94
181
238
212
279
210
18
47
132
37
232
308
126
104
58
157
93
90
284
33
233
254
66
38
36
3
130
299
136
245
300
272
153
283
48
301
127
70
186
268
138
77
9
265
107
31
291
250
215
151
194
164
271
6
216
274
89
293
179
261
196
257
67
187
134
84
287
42
79
248
234
185
269
192
235
246
214
204
263
188
82
222
12
236
140
86
173
85
176
80
52
98
20
213
50
150
69
290
106
285
25
241
267
201
118
8
43
16
169
76
68
253
202
108
78
109
55
41
144
27
243
17
10
51
135
158
39
298
99
163
190
56
57
228
191
63
123
73
177
154
231
193
46
60
81
88
2
64
137
114
273
115
11
21
40
19
281
23
45
34
262

>  <PUBCHEM_MMFF94_PARTIAL_CHARGES>  (1) 
32
1 -0.45
10 0.23
11 0.36
12 0.28
13 0.58
16 0.66
17 0.57
18 0.45
19 -0.14
2 -0.57
20 -0.15
21 -0.15
22 -0.15
23 -0.15
24 0.33
25 -0.15
3 -0.65
35 0.37
37 0.5
38 0.15
39 0.15
4 -0.57
40 0.15
41 0.15
42 0.06
43 0.06
44 0.15
5 -0.57
6 -0.59
7 -0.65
8 -0.7
9 0.44

>  <PUBCHEM_EFFECTIVE_ROTOR_COUNT>  (1) 
6.8

>  <PUBCHEM_PHARMACOPHORE_FEATURES>  (1) 
11
1 2 acceptor
1 3 acceptor
1 4 acceptor
1 5 acceptor
1 7 donor
1 8 acceptor
3 10 14 15 hydrophobe
3 3 4 16 anion
4 6 9 12 13 rings
6 19 20 21 22 23 25 rings
7 1 6 9 10 11 12 13 rings

>  <PUBCHEM_HEAVY_ATOM_COUNT>  (1) 
25

>  <PUBCHEM_ATOM_DEF_STEREO_COUNT>  (1) 
0

>  <PUBCHEM_ATOM_UDEF_STEREO_COUNT>  (1) 
4

>  <PUBCHEM_BOND_DEF_STEREO_COUNT>  (1) 
0

>  <PUBCHEM_BOND_UDEF_STEREO_COUNT>  (1) 
0

>  <PUBCHEM_ISOTOPIC_ATOM_COUNT>  (1) 
0

>  <PUBCHEM_COMPONENT_COUNT>  (1) 
1

>  <PUBCHEM_CACTVS_TAUTO_COUNT>  (1) 
2

$$$$
