40858
     RDKit          3D

 12 14  0  0  1  0  0  0  0  0999 V2000
   -0.4421    1.6308    0.2318 O   0  0  0  0  0  0  0  0  0  0  0  0
   -2.5921    0.7640   -0.3470 O   0  0  0  0  0  0  0  0  0  0  0  0
   -0.9900   -0.7106    0.7353 C   0  0  0  0  0  0  0  0  0  0  0  0
   -1.5162    0.7383    0.6209 C   0  0  0  0  0  0  0  0  0  0  0  0
    0.4223   -0.5117    0.3416 C   0  0  0  0  0  0  0  0  0  0  0  0
    0.6580    0.8292    0.0827 C   0  0  0  0  0  0  0  0  0  0  0  0
   -1.8417   -1.4116   -0.2480 C   0  0  0  0  0  0  0  0  0  0  0  0
    1.4407   -1.4435    0.2296 C   0  0  0  0  0  0  0  0  0  0  0  0
   -2.6897   -0.5393   -0.7785 C   0  0  0  0  0  0  0  0  0  0  0  0
    1.9042    1.2913   -0.2978 C   0  0  0  0  0  0  0  0  0  0  0  0
    2.7082   -0.9984   -0.1543 C   0  0  0  0  0  0  0  0  0  0  0  0
    2.9384    0.3614   -0.4162 C   0  0  0  0  0  0  0  0  0  0  0  0
  1  4  1  0
  1  6  1  0
  2  4  1  0
  2  9  1  0
  3  4  1  0
  3  5  1  0
  3  7  1  0
  5  6  2  0
  5  8  1  0
  6 10  1  0
  7  9  2  0
  8 11  2  0
 10 12  2  0
 11 12  1  0
M  END
>  <PUBCHEM_COMPOUND_CID>  (1) 
40858

>  <PUBCHEM_CONFORMER_RMSD>  (1) 
0.4

>  <PUBCHEM_CONFORMER_DIVERSEORDER>  (1) 
1
2

>  <PUBCHEM_MMFF94_PARTIAL_CHARGES>  (1) 
18
1 -0.36
10 -0.15
11 -0.15
12 -0.15
15 0.15
16 0.15
17 0.15
18 0.15
19 0.15
2 -0.36
20 0.15
3 0.28
4 0.56
5 -0.14
6 0.08
7 -0.29
8 -0.15
9 -0.07

>  <PUBCHEM_EFFECTIVE_ROTOR_COUNT>  (1) 
0.4

>  <PUBCHEM_PHARMACOPHORE_FEATURES>  (1) 
5
1 1 acceptor
1 2 acceptor
5 1 3 4 5 6 rings
5 2 3 4 7 9 rings
6 5 6 8 10 11 12 rings

>  <PUBCHEM_HEAVY_ATOM_COUNT>  (1) 
12

>  <PUBCHEM_ATOM_DEF_STEREO_COUNT>  (1) 
0

>  <PUBCHEM_ATOM_UDEF_STEREO_COUNT>  (1) 
2

>  <PUBCHEM_BOND_DEF_STEREO_COUNT>  (1) 
0

>  <PUBCHEM_BOND_UDEF_STEREO_COUNT>  (1) 
0

>  <PUBCHEM_ISOTOPIC_ATOM_COUNT>  (1) 
0

>  <PUBCHEM_COMPONENT_COUNT>  (1) 
1

>  <PUBCHEM_CACTVS_TAUTO_COUNT>  (1) 
1

>  <PUBCHEM_CONFORMER_ID>  (1) 
00009F9A00000001

>  <PUBCHEM_MMFF94_ENERGY>  (1) 
35.1391

>  <PUBCHEM_FEATURE_SELFOVERLAP>  (1) 
26.026

>  <PUBCHEM_SHAPE_FINGERPRINT>  (1) 
11206711 2 18335989687892258860
12423570 1 16032658727793201721
12524768 44 18267314144223839374
12897270 3 18411419548348214886
13024252 1 17458072559852129931
14128692 85 18273212023321331982
15775835 57 18334582321340125228
16945 1 18410296882614971768
17844478 74 17749685051167053753
20201158 50 18408601470055462846
20653085 51 17530684299144834733
23402655 69 18410282597997039213
23552423 10 18334859428435361362
23559900 14 18342738482496480770
25 1 17896314723408921645
2748010 2 16680917172593973026
369184 2 18410017636615543891
5084963 1 18272373096123353890
528886 8 18409727365503665066
63268167 104 18335422344055353192
8030462 33 18410302418954442796

>  <PUBCHEM_SHAPE_MULTIPOLES>  (1) 
235.22
4.2
1.6
0.79
0.37
0.03
0
-0.34
-1
0.16
0.03
-0.2
-0.04
-0.22

>  <PUBCHEM_SHAPE_SELFOVERLAP>  (1) 
530.781

>  <PUBCHEM_SHAPE_VOLUME>  (1) 
124.1

>  <PUBCHEM_COORDINATE_TYPE>  (1) 
2
5
10

$$$$
