40854
     RDKit          3D

 22 24  0  0  1  0  0  0  0  0999 V2000
   -3.3034   -1.7464   -0.3290 S   0  0  0  0  0  0  0  0  0  0  0  0
   -3.3155   -1.9795   -1.8144 O   0  0  0  0  0  0  0  0  0  0  0  0
    6.1277    0.9146   -0.7895 O   0  0  0  0  0  0  0  0  0  0  0  0
    5.2131    0.3546    1.2279 O   0  0  0  0  0  0  0  0  0  0  0  0
    1.6888   -0.2400   -1.2137 N   0  0  0  0  0  0  0  0  0  0  0  0
    2.3506   -0.3814    0.9033 N   0  0  0  0  0  0  0  0  0  0  0  0
    3.9535    0.3124   -0.7564 N   0  0  0  0  0  0  0  0  0  0  0  0
    0.5846   -0.6501   -0.5116 C   0  0  0  0  0  0  0  0  0  0  0  0
    1.0232   -0.7310    0.8070 C   0  0  0  0  0  0  0  0  0  0  0  0
   -1.6063   -1.3452    0.1024 C   0  0  0  0  0  0  0  0  0  0  0  0
   -0.7205   -0.9483   -0.9048 C   0  0  0  0  0  0  0  0  0  0  0  0
    0.1199   -1.1312    1.8060 C   0  0  0  0  0  0  0  0  0  0  0  0
   -1.1957   -1.4356    1.4343 C   0  0  0  0  0  0  0  0  0  0  0  0
    2.7175   -0.0933   -0.3253 C   0  0  0  0  0  0  0  0  0  0  0  0
   -3.8982   -0.0539   -0.0968 C   0  0  0  0  0  0  0  0  0  0  0  0
   -3.8851    0.8265   -1.1686 C   0  0  0  0  0  0  0  0  0  0  0  0
   -4.3599    0.3413    1.1502 C   0  0  0  0  0  0  0  0  0  0  0  0
   -4.3437    2.1315   -0.9895 C   0  0  0  0  0  0  0  0  0  0  0  0
   -4.8186    1.6464    1.3292 C   0  0  0  0  0  0  0  0  0  0  0  0
   -4.8104    2.5414    0.2593 C   0  0  0  0  0  0  0  0  0  0  0  0
    5.0981    0.5082    0.0183 C   0  0  0  0  0  0  0  0  0  0  0  0
    7.3802    1.1590   -0.1386 C   0  0  0  0  0  0  0  0  0  0  0  0
  1  2  2  0
  1 10  1  0
  1 15  1  0
  3 21  1  0
  3 22  1  0
  4 21  2  0
  5  8  1  0
  5 14  1  0
  6  9  1  0
  6 14  2  0
  7 14  1  0
  7 21  1  0
  8  9  2  0
  8 11  1  0
  9 12  1  0
 10 11  2  0
 10 13  1  0
 12 13  2  0
 15 16  2  0
 15 17  1  0
 16 18  1  0
 17 19  2  0
 18 20  2  0
 19 20  1  0
M  END
>  <PUBCHEM_COMPOUND_CID>  (1) 
40854

>  <PUBCHEM_CONFORMER_RMSD>  (1) 
0.8

>  <PUBCHEM_CONFORMER_DIVERSEORDER>  (1) 
1
9
18
23
8
4
3
24
16
11
2
14
25
15
17
21
19
7
20
22
6
10
12
5
13

>  <PUBCHEM_MMFF94_PARTIAL_CHARGES>  (1) 
32
1 0.37
10 0.06
11 -0.15
12 -0.15
13 -0.15
14 0.25
15 0.06
16 -0.15
17 -0.15
18 -0.15
19 -0.15
2 -0.5
20 -0.15
21 0.78
22 0.28
23 0.15
24 0.27
25 0.15
26 0.15
27 0.37
28 0.15
29 0.15
3 -0.43
30 0.15
31 0.15
32 0.15
4 -0.57
5 0.03
6 -0.57
7 -0.49
8 -0.15
9 0.23

>  <PUBCHEM_EFFECTIVE_ROTOR_COUNT>  (1) 
5

>  <PUBCHEM_PHARMACOPHORE_FEATURES>  (1) 
7
1 2 acceptor
1 4 acceptor
1 5 donor
1 7 donor
5 5 6 8 9 14 rings
6 15 16 17 18 19 20 rings
6 8 9 10 11 12 13 rings

>  <PUBCHEM_HEAVY_ATOM_COUNT>  (1) 
22

>  <PUBCHEM_ATOM_DEF_STEREO_COUNT>  (1) 
0

>  <PUBCHEM_ATOM_UDEF_STEREO_COUNT>  (1) 
1

>  <PUBCHEM_BOND_DEF_STEREO_COUNT>  (1) 
0

>  <PUBCHEM_BOND_UDEF_STEREO_COUNT>  (1) 
0

>  <PUBCHEM_ISOTOPIC_ATOM_COUNT>  (1) 
0

>  <PUBCHEM_COMPONENT_COUNT>  (1) 
1

>  <PUBCHEM_CACTVS_TAUTO_COUNT>  (1) 
5

>  <PUBCHEM_CONFORMER_ID>  (1) 
00009F9600000001

>  <PUBCHEM_MMFF94_ENERGY>  (1) 
48.476

>  <PUBCHEM_FEATURE_SELFOVERLAP>  (1) 
35.664

>  <PUBCHEM_SHAPE_FINGERPRINT>  (1) 
10087517 78 18334855039190301468
10165383 225 17632588141431549363
10291535 26 17988652895336465473
10498660 4 17986662681118177761
105312 117 17989491813991897527
10906281 52 17676784140791153774
11046707 91 10231753383936896739
12363563 72 10881988068525162505
12596602 18 16153709816772650608
12895837 130 18412269441146936685
13288520 33 9943809984562306251
13690498 29 17202191014043805815
13914758 101 18343303644336980170
14251764 38 18196930187330717720
14251764 75 17339296515336132513
14508225 48 14620794899104561578
14713325 29 18272373113778671991
15183329 4 17775287136464798594
15209294 21 17894909620352129767
15415430 10 11023823985427577715
15463212 79 18341604911325003567
15475509 8 17749687186298738838
17780758 139 13479133480382731285
17857418 61 11959735954145036588
17980427 23 18187088398836457980
18222031 100 12895352166876971018
18769570 83 18410573972594130016
193927 3 9295280677348416585
19489759 90 18342455988752918294
19784866 240 11527937972678261137
20281389 69 18409166614990438520
20645477 56 18131636690569568587
21315759 148 12324235049632178104
21623969 137 13767921322031028584
21709351 56 17489303139746331748
21756936 100 18259706709418484363
22393880 68 14476664279327079309
23081809 10 18334005121534664962
23198884 109 17846781793323580293
23379529 103 12533900990652761205
23402539 116 18408320012532746214
23466295 7 13685146861108477997
23559900 14 15913326927409060354
270888 7 18266742368820084721
2838139 119 18272368676808371224
392239 28 17242482558226050577
5104073 3 17385723556356557896
5283173 99 17775005682757339456
5718773 13 11242840131035488921
6327066 14 18338794495406648445
636775 72 18263081179931163324
7226269 152 18407760322317668784
7808743 9 18340765941103278553
7970288 3 9222641412059666029

>  <PUBCHEM_SHAPE_MULTIPOLES>  (1) 
424.05
14.79
2.08
1.51
24.02
0.55
0.13
10.96
-0.04
-3.15
-0.08
-0.97
-0.32
-0.87

>  <PUBCHEM_SHAPE_SELFOVERLAP>  (1) 
909.653

>  <PUBCHEM_SHAPE_VOLUME>  (1) 
234.6

>  <PUBCHEM_COORDINATE_TYPE>  (1) 
2
5
10

$$$$
