40869
     RDKit          3D

 18 21  0  0  1  0  0  0  0  0999 V2000
    4.7564   -0.1399   -0.2765 O   0  0  0  0  0  0  0  0  0  0  0  0
   -2.7340   -0.8092   -0.7700 N   0  0  0  0  0  0  0  0  0  0  0  0
   -1.0622   -0.4871    0.9827 C   0  0  0  0  0  0  0  0  0  0  0  0
   -2.5111   -0.9268    0.6824 C   0  0  0  0  0  0  0  0  0  0  0  0
   -0.7191    0.9202    0.4077 C   0  0  0  0  0  0  0  0  0  0  0  0
   -2.8720    0.6456   -0.9632 C   0  0  0  0  0  0  0  0  0  0  0  0
   -1.4470    1.2287   -0.9136 C   0  0  0  0  0  0  0  0  0  0  0  0
   -3.5130    0.0588    1.2975 C   0  0  0  0  0  0  0  0  0  0  0  0
   -3.7267    1.1181    0.2164 C   0  0  0  0  0  0  0  0  0  0  0  0
    0.0162   -1.4518    0.4329 C   0  0  0  0  0  0  0  0  0  0  0  0
    0.7674    0.8101    0.2308 C   0  0  0  0  0  0  0  0  0  0  0  0
    1.1802   -0.5273    0.2557 C   0  0  0  0  0  0  0  0  0  0  0  0
   -3.9060   -1.5525   -1.2255 C   0  0  0  0  0  0  0  0  0  0  0  0
    1.6801    1.8353    0.0403 C   0  0  0  0  0  0  0  0  0  0  0  0
    2.5117   -0.8662    0.0806 C   0  0  0  0  0  0  0  0  0  0  0  0
    3.0259    1.5027   -0.1253 C   0  0  0  0  0  0  0  0  0  0  0  0
    3.4387    0.1614   -0.1059 C   0  0  0  0  0  0  0  0  0  0  0  0
    5.1146   -1.5201   -0.2470 C   0  0  0  0  0  0  0  0  0  0  0  0
  1 17  1  0
  1 18  1  0
  2  4  1  0
  2  6  1  0
  2 13  1  0
  3  4  1  0
  3  5  1  0
  3 10  1  0
  4  8  1  0
  5  7  1  0
  5 11  1  0
  6  7  1  0
  6  9  1  0
  8  9  1  0
 10 12  1  0
 11 12  2  0
 11 14  1  0
 12 15  1  0
 14 16  2  0
 15 17  2  0
 16 17  1  0
M  END
>  <PUBCHEM_COMPOUND_CID>  (1) 
40869

>  <PUBCHEM_CONFORMER_RMSD>  (1) 
0.6

>  <PUBCHEM_CONFORMER_DIVERSEORDER>  (1) 
3
2
5
4
1

>  <PUBCHEM_MMFF94_PARTIAL_CHARGES>  (1) 
17
1 -0.36
10 0.14
11 -0.14
12 -0.14
13 0.27
14 -0.15
15 -0.15
16 -0.15
17 0.08
18 0.28
2 -0.81
34 0.15
35 0.15
36 0.15
4 0.27
5 0.14
6 0.27

>  <PUBCHEM_EFFECTIVE_ROTOR_COUNT>  (1) 
2

>  <PUBCHEM_PHARMACOPHORE_FEATURES>  (1) 
5
1 1 acceptor
1 2 cation
5 3 5 10 11 12 rings
6 11 12 14 15 16 17 rings
8 2 3 4 5 6 7 8 9 rings

>  <PUBCHEM_HEAVY_ATOM_COUNT>  (1) 
18

>  <PUBCHEM_ATOM_DEF_STEREO_COUNT>  (1) 
2

>  <PUBCHEM_ATOM_UDEF_STEREO_COUNT>  (1) 
2

>  <PUBCHEM_BOND_DEF_STEREO_COUNT>  (1) 
0

>  <PUBCHEM_BOND_UDEF_STEREO_COUNT>  (1) 
0

>  <PUBCHEM_ISOTOPIC_ATOM_COUNT>  (1) 
0

>  <PUBCHEM_COMPONENT_COUNT>  (1) 
1

>  <PUBCHEM_CACTVS_TAUTO_COUNT>  (1) 
1

>  <PUBCHEM_CONFORMER_ID>  (1) 
00009FA500000003

>  <PUBCHEM_MMFF94_ENERGY>  (1) 
62.4117

>  <PUBCHEM_FEATURE_SELFOVERLAP>  (1) 
25.483

>  <PUBCHEM_SHAPE_FINGERPRINT>  (1) 
10062212 137 18273211997525368799
10608611 8 18260545657975540044
11132069 177 18411130351120643336
11401426 45 18342172259144866912
11471102 20 18409449198042233752
11578080 2 17416377975084132553
12032990 46 18334582343205293208
12186901 62 16732702740022262757
12236239 1 17917996070585595297
12403259 226 18336542819292231664
12916754 54 18342172327758984975
13214271 11 17968101902406564985
13288520 33 18131351912061270583
13581323 91 16081089298445038337
13583140 156 15267054809881302738
13760787 5 18334300885329297932
14004511 7 18272375260586527985
15163728 17 15214678431226370551
15196674 1 18409450306048798592
15219456 202 18260831531035464312
15309172 13 18341618117895303387
15536298 74 18341893026183555592
15653759 3 17313108574300513585
15788980 27 18409449172261763518
15848702 151 18059582347405081150
16945 1 17822001038816499033
17844478 74 17822018622623735361
18186145 218 17749105608196330856
19026448 5 17775291607040684472
19141452 34 18273217473882744111
19422 9 18059575836171200821
19862831 5 18334576819877266018
200 152 18131066043411961782
20281475 54 18272089413533420436
20645477 70 18412265039031701022
21267235 1 18410583889562618939
21637258 2 16987986319553083279
221490 88 18264494047533601330
22646028 28 17917710231558231998
23402539 116 18343579616901337446
23402655 69 18409445847593411036
23493267 7 16660359273098549233
23557571 272 16153430532640171639
23559900 14 18409166615581028880
25 1 18187360978703678787
2748010 2 17900266604169246418
2871803 45 18262223534632004943
296302 2 17632297899766977096
3286 77 17845647178611680329
335352 9 18337111159482097380
4028521 119 17677035906962022503
465052 167 17201354329304111103
5104073 3 18411701014967080936
633830 44 17894349990413852360
69090 78 18410571833478590786
8809292 202 18113626706758797234
9709674 26 18336266855074826074
9981440 41 17406538686198249592

>  <PUBCHEM_SHAPE_MULTIPOLES>  (1) 
359.58
8.61
1.74
1.04
5.95
0.09
-0.03
-2.19
-1.31
0.33
-0.19
-1.06
-0.12
-0.18

>  <PUBCHEM_SHAPE_SELFOVERLAP>  (1) 
792.082

>  <PUBCHEM_SHAPE_VOLUME>  (1) 
197.4

>  <PUBCHEM_COORDINATE_TYPE>  (1) 
2
5
10

$$$$
