40899
     RDKit          3D

  8  7  0  0  0  0  0  0  0  0999 V2000
    1.1901   -1.0265    0.5542 O   0  0  0  0  0  0  0  0  0  0  0  0
    0.3564    0.0094    0.1976 C   0  0  0  0  0  0  0  0  0  0  0  0
   -2.2048   -0.4363    0.1064 C   0  0  0  0  0  0  0  0  0  0  0  0
    0.9523    1.2862   -0.1014 C   0  0  0  0  0  0  0  0  0  0  0  0
   -3.2355    0.5791   -0.2566 C   0  0  0  0  0  0  0  0  0  0  0  0
   -0.9233   -0.2123    0.1518 C   0  0  0  0  0  0  0  0  0  0  0  0
    1.6024   -1.7581   -0.5852 C   0  0  0  0  0  0  0  0  0  0  0  0
    2.2625    1.5585   -0.0668 C   0  0  0  0  0  0  0  0  0  0  0  0
  1  2  1  0
  1  7  1  0
  2  4  1  0
  2  6  2  0
  3  5  1  0
  3  6  2  0
  4  8  2  0
M  END
>  <PUBCHEM_COMPOUND_CID>  (1) 
40899

>  <PUBCHEM_CONFORMER_RMSD>  (1) 
0.4

>  <PUBCHEM_CONFORMER_DIVERSEORDER>  (1) 
2
5
8
1
6
7
4
3

>  <PUBCHEM_MMFF94_PARTIAL_CHARGES>  (1) 
12
1 -0.36
10 0.15
17 0.15
18 0.15
2 0.14
3 -0.22
4 -0.15
5 0.14
6 -0.13
7 0.28
8 -0.3
9 0.15

>  <PUBCHEM_EFFECTIVE_ROTOR_COUNT>  (1) 
2

>  <PUBCHEM_PHARMACOPHORE_FEATURES>  (1) 
3
1 1 acceptor
1 5 hydrophobe
1 8 hydrophobe

>  <PUBCHEM_HEAVY_ATOM_COUNT>  (1) 
8

>  <PUBCHEM_ATOM_DEF_STEREO_COUNT>  (1) 
0

>  <PUBCHEM_ATOM_UDEF_STEREO_COUNT>  (1) 
0

>  <PUBCHEM_BOND_DEF_STEREO_COUNT>  (1) 
0

>  <PUBCHEM_BOND_UDEF_STEREO_COUNT>  (1) 
0

>  <PUBCHEM_ISOTOPIC_ATOM_COUNT>  (1) 
0

>  <PUBCHEM_COMPONENT_COUNT>  (1) 
1

>  <PUBCHEM_CACTVS_TAUTO_COUNT>  (1) 
1

>  <PUBCHEM_CONFORMER_ID>  (1) 
00009FC300000002

>  <PUBCHEM_MMFF94_ENERGY>  (1) 
16.7163

>  <PUBCHEM_FEATURE_SELFOVERLAP>  (1) 
15.223

>  <PUBCHEM_SHAPE_FINGERPRINT>  (1) 
12932741 1 17967821535336348347
12932764 1 17203603818192709969
14325111 11 18192993940018773896
14390081 3 18338796827119975193
170605 34 18188206606377803289
19973954 147 18408604730283923485
20711985 344 17189271400129833390
21040471 1 18050005790137290000
23552423 10 18412824655826892791
23552449 11 18334568006224794035
29004967 10 18339079280953545138
58734985 102 17987534623270435070

>  <PUBCHEM_SHAPE_MULTIPOLES>  (1) 
158.77
3.96
1.7
0.7
3.11
0.22
-0.02
-0.96
-0.42
-1.47
-0.21
-0.05
0.08
0.17

>  <PUBCHEM_SHAPE_SELFOVERLAP>  (1) 
296.638

>  <PUBCHEM_SHAPE_VOLUME>  (1) 
99.9

>  <PUBCHEM_COORDINATE_TYPE>  (1) 
2
5
10

$$$$
