40907
     RDKit          3D

 29 32  0  0  1  0  0  0  0  0999 V2000
    5.3975   -1.3284   -1.3747 O   0  0  0  0  0  0  0  0  0  0  0  0
    0.2298    0.6094    0.2344 O   0  0  0  0  0  0  0  0  0  0  0  0
   -0.3359   -1.4645   -0.5823 O   0  0  0  0  0  0  0  0  0  0  0  0
   -1.7375   -0.0188    1.9246 O   0  0  0  0  0  0  0  0  0  0  0  0
    4.2671    0.3959    1.0387 N   0  0  0  0  0  0  0  0  0  0  0  0
    3.7124   -0.8583    0.3132 C   0  0  0  0  0  0  0  0  0  0  0  0
    3.8909    1.4849    0.0150 C   0  0  0  0  0  0  0  0  0  0  0  0
    4.1666   -0.6534   -1.1458 C   0  0  0  0  0  0  0  0  0  0  0  0
    4.3349    0.8633   -1.3215 C   0  0  0  0  0  0  0  0  0  0  0  0
    2.1737   -0.8355    0.3833 C   0  0  0  0  0  0  0  0  0  0  0  0
    2.3677    1.7069    0.0361 C   0  0  0  0  0  0  0  0  0  0  0  0
    1.5606    0.4296   -0.2390 C   0  0  0  0  0  0  0  0  0  0  0  0
    5.7556    0.3266    1.3842 C   0  0  0  0  0  0  0  0  0  0  0  0
    3.5661    0.6322    2.3904 C   0  0  0  0  0  0  0  0  0  0  0  0
    5.2582   -2.7335   -1.2159 C   0  0  0  0  0  0  0  0  0  0  0  0
   -0.6382   -0.4277   -0.0034 C   0  0  0  0  0  0  0  0  0  0  0  0
   -2.0384   -0.0913    0.5160 C   0  0  0  0  0  0  0  0  0  0  0  0
   -3.0789   -1.1826    0.2523 C   0  0  0  0  0  0  0  0  0  0  0  0
   -2.5387    1.2694    0.0261 C   0  0  0  0  0  0  0  0  0  0  0  0
   -3.4674   -1.4219   -1.0456 C   0  0  0  0  0  0  0  0  0  0  0  0
   -3.2471    2.0635    0.8984 C   0  0  0  0  0  0  0  0  0  0  0  0
   -3.5850   -1.8823    1.3233 C   0  0  0  0  0  0  0  0  0  0  0  0
   -2.2606    1.6469   -1.2674 C   0  0  0  0  0  0  0  0  0  0  0  0
   -4.4153   -2.4165   -1.2860 C   0  0  0  0  0  0  0  0  0  0  0  0
   -3.7030    3.3039    0.4521 C   0  0  0  0  0  0  0  0  0  0  0  0
   -4.5330   -2.8770    1.0827 C   0  0  0  0  0  0  0  0  0  0  0  0
   -2.7164    2.8874   -1.7135 C   0  0  0  0  0  0  0  0  0  0  0  0
   -4.9480   -3.1440   -0.2220 C   0  0  0  0  0  0  0  0  0  0  0  0
   -3.4377    3.7159   -0.8537 C   0  0  0  0  0  0  0  0  0  0  0  0
  1  8  1  0
  1 15  1  0
  2 12  1  0
  2 16  1  0
  3 16  2  0
  4 17  1  0
  5  6  1  0
  5  7  1  0
  5 13  1  0
  5 14  1  0
  6  8  1  0
  6 10  1  0
  7  9  1  0
  7 11  1  0
  8  9  1  0
 10 12  1  0
 11 12  1  0
 16 17  1  0
 17 18  1  0
 17 19  1  0
 18 20  2  0
 18 22  1  0
 19 21  2  0
 19 23  1  0
 20 24  1  0
 21 25  1  0
 22 26  2  0
 23 27  2  0
 24 28  2  0
 25 29  2  0
 26 28  1  0
 27 29  1  0
M  CHG  1   5   1
M  END
>  <PUBCHEM_COMPOUND_CID>  (1) 
40907

>  <PUBCHEM_CONFORMER_RMSD>  (1) 
0.8

>  <PUBCHEM_CONFORMER_DIVERSEORDER>  (1) 
1
32
99
187
207
175
88
62
184
56
104
120
185
204
82
75
181
49
46
81
155
105
194
73
170
163
160
91
164
18
147
167
84
144
66
90
195
206
141
96
63
168
139
52
59
127
179
176
48
178
22
87
71
189
16
182
172
65
118
115
11
109
191
34
205
129
28
53
38
33
201
12
40
193
188
20
114
42
60
200
103
174
117
72
17
183
153
64
128
7
173
159
108
50
119
180
199
150
190
177
10
35
8
136
41
143
122
169
4
61
69
89
13
186
55
85
44
31
116
162
43
30
29
58
15
6
94
27
78
133
161
110
97
95
196
212
3
152
80
171
157
25
45
210
57
158
100
26
92
106
51
165
111
21
9
39
98
192
151
138
154
124
149
36
68
208
125
123
145
198
156
203
83
107
74
130
2
23
77
213
54
211
37
86
166
135
132
121
24
5
101
113
142
112
19
126
93
70
134
146
202
79
14
209
197
137
47
76
140
215
214
102
131
148
67

>  <PUBCHEM_MMFF94_PARTIAL_CHARGES>  (1) 
37
1 -0.56
12 0.28
13 0.5
14 0.5
15 0.28
16 0.66
17 0.63
18 -0.14
19 -0.14
2 -0.43
20 -0.15
21 -0.15
22 -0.15
23 -0.15
24 -0.15
25 -0.15
26 -0.15
27 -0.15
28 -0.15
29 -0.15
3 -0.57
4 -0.68
49 0.4
5 -1.01
50 0.15
51 0.15
52 0.15
53 0.15
54 0.15
55 0.15
56 0.15
57 0.15
58 0.15
59 0.15
6 0.5
7 0.5
8 0.28

>  <PUBCHEM_EFFECTIVE_ROTOR_COUNT>  (1) 
7.2

>  <PUBCHEM_PHARMACOPHORE_FEATURES>  (1) 
8
1 1 acceptor
1 3 acceptor
1 4 acceptor
1 4 donor
1 5 cation
6 18 20 22 24 26 28 rings
6 19 21 23 25 27 29 rings
8 5 6 7 8 9 10 11 12 rings

>  <PUBCHEM_HEAVY_ATOM_COUNT>  (1) 
29

>  <PUBCHEM_ATOM_DEF_STEREO_COUNT>  (1) 
1

>  <PUBCHEM_ATOM_UDEF_STEREO_COUNT>  (1) 
3

>  <PUBCHEM_BOND_DEF_STEREO_COUNT>  (1) 
0

>  <PUBCHEM_BOND_UDEF_STEREO_COUNT>  (1) 
0

>  <PUBCHEM_ISOTOPIC_ATOM_COUNT>  (1) 
0

>  <PUBCHEM_COMPONENT_COUNT>  (1) 
1

>  <PUBCHEM_CACTVS_TAUTO_COUNT>  (1) 
1

>  <PUBCHEM_CONFORMER_ID>  (1) 
00009FCB00000001

>  <PUBCHEM_MMFF94_ENERGY>  (1) 
116.8762

>  <PUBCHEM_FEATURE_SELFOVERLAP>  (1) 
40.597

>  <PUBCHEM_SHAPE_FINGERPRINT>  (1) 
10366900 7 18042129911053800946
10670039 82 18334868246594005900
11045515 52 18043806705484190349
11101153 10 18117563040207567292
11405975 8 18340769222146705578
11545043 162 18272370845929885786
11552529 35 18412548695456399329
12403259 226 18342177816511106281
12403259 415 18059858363731416520
12422481 6 18270701830444736419
12643181 29 18124600774098840966
12788726 201 18187639267031115955
13004483 165 18265608978389258535
13224815 77 18040999553023801612
13583140 156 17632283588851609136
13690498 29 18339376205212515086
13782708 43 18272092699780215630
13911987 19 17824830185398897687
13944108 23 16170304410758483300
14347332 77 18411700997587205695
14840074 17 18128264582733131695
14910302 57 18342737420668997871
14950920 106 16486981729595083291
15131766 46 15767785766845498185
17349148 13 17386005108685136839
17492 89 18341334465512734950
17844677 252 18341899601741354558
1813 80 18054245473094304247
19301676 85 17404874648285530927
19958102 18 18342168913508021975
21033648 144 18271239401062443820
21033648 29 17917132949710505016
21065201 7 18410571760711826450
21304303 282 17899663849266054045
21307412 95 17769107752389635470
22393880 68 18339080385198113406
23559900 14 18200028427072806368
283562 15 18334850650065806939
3027735 51 18408882932580223899
312423 11 18188502374805338612
32027 91 17842842123467268446
4058900 60 17762624984809582449
44062 13 18339084782880361454
44880168 125 17971192526196614942
460360 51 18342451500760137350
497634 4 17988657319073736753
508706 21 18336265656457203830
5104073 3 18201720626775635202
513202 73 18338248106546576063
5924683 9 18335132103208776945
59755656 520 18197220239952937741
613672 6 18118679061794955187
633830 44 17604445019836006596
6698420 124 17914341169497627985
70251023 43 18266464389566126521
7399639 24 18055907942790948472

>  <PUBCHEM_SHAPE_MULTIPOLES>  (1) 
568.35
13.15
3.93
1.68
11.32
1.08
0.31
-5.57
-0.66
-6.93
-1.01
0.77
0.02
1.71

>  <PUBCHEM_SHAPE_SELFOVERLAP>  (1) 
1226.956

>  <PUBCHEM_SHAPE_VOLUME>  (1) 
311.8

>  <PUBCHEM_COORDINATE_TYPE>  (1) 
2
5
10

$$$$
