40900
     RDKit          3D

 17 19  0  0  0  0  0  0  0  0999 V2000
    3.0778    1.7596   -0.0076 S   0  0  0  0  0  0  0  0  0  0  0  0
    3.1011   -1.7395    0.0079 S   0  0  0  0  0  0  0  0  0  0  0  0
    0.0597    2.3061   -0.0816 O   0  0  0  0  0  0  0  0  0  0  0  0
    0.0906   -2.3266    0.0837 O   0  0  0  0  0  0  0  0  0  0  0  0
   -0.4130   -0.0135    0.0007 N   0  0  0  0  0  0  0  0  0  0  0  0
   -2.4915   -1.2153    0.0182 N   0  0  0  0  0  0  0  0  0  0  0  0
    1.7735    0.6656    0.0031 C   0  0  0  0  0  0  0  0  0  0  0  0
    1.7823   -0.6632   -0.0020 C   0  0  0  0  0  0  0  0  0  0  0  0
    0.3711    1.1275   -0.0170 C   0  0  0  0  0  0  0  0  0  0  0  0
    0.3861   -1.1440    0.0185 C   0  0  0  0  0  0  0  0  0  0  0  0
    4.4597    0.6552    0.4174 C   0  0  0  0  0  0  0  0  0  0  0  0
    4.4672   -0.6170   -0.4209 C   0  0  0  0  0  0  0  0  0  0  0  0
   -1.8456   -0.0232    0.0008 C   0  0  0  0  0  0  0  0  0  0  0  0
   -2.5013    1.2019   -0.0181 C   0  0  0  0  0  0  0  0  0  0  0  0
   -3.8919    1.2035   -0.0188 C   0  0  0  0  0  0  0  0  0  0  0  0
   -3.8428   -1.1741    0.0168 C   0  0  0  0  0  0  0  0  0  0  0  0
   -4.5830   -0.0030   -0.0011 C   0  0  0  0  0  0  0  0  0  0  0  0
  1  7  1  0
  1 11  1  0
  2  8  1  0
  2 12  1  0
  3  9  2  0
  4 10  2  0
  5  9  1  0
  5 10  1  0
  5 13  1  0
  6 13  2  0
  6 16  1  0
  7  8  2  0
  7  9  1  0
  8 10  1  0
 11 12  1  0
 13 14  1  0
 14 15  2  0
 15 17  1  0
 16 17  2  0
M  END
>  <PUBCHEM_COMPOUND_CID>  (1) 
40900

>  <PUBCHEM_CONFORMER_RMSD>  (1) 
0.6

>  <PUBCHEM_CONFORMER_DIVERSEORDER>  (1) 
1
2

>  <PUBCHEM_MMFF94_PARTIAL_CHARGES>  (1) 
21
1 -0.33
10 0.62
11 0.23
12 0.23
13 0.43
14 -0.15
15 -0.15
16 0.16
17 -0.15
2 -0.33
22 0.15
23 0.15
24 0.15
25 0.15
3 -0.57
4 -0.57
5 -0.24
6 -0.62
7 0.12
8 0.12
9 0.62

>  <PUBCHEM_EFFECTIVE_ROTOR_COUNT>  (1) 
2

>  <PUBCHEM_PHARMACOPHORE_FEATURES>  (1) 
6
1 3 acceptor
1 4 acceptor
1 6 acceptor
5 5 7 8 9 10 rings
6 1 2 7 8 11 12 rings
6 6 13 14 15 16 17 rings

>  <PUBCHEM_HEAVY_ATOM_COUNT>  (1) 
17

>  <PUBCHEM_ATOM_DEF_STEREO_COUNT>  (1) 
0

>  <PUBCHEM_ATOM_UDEF_STEREO_COUNT>  (1) 
0

>  <PUBCHEM_BOND_DEF_STEREO_COUNT>  (1) 
0

>  <PUBCHEM_BOND_UDEF_STEREO_COUNT>  (1) 
0

>  <PUBCHEM_ISOTOPIC_ATOM_COUNT>  (1) 
0

>  <PUBCHEM_COMPONENT_COUNT>  (1) 
1

>  <PUBCHEM_CACTVS_TAUTO_COUNT>  (1) 
1

>  <PUBCHEM_CONFORMER_ID>  (1) 
00009FC400000001

>  <PUBCHEM_MMFF94_ENERGY>  (1) 
44.5301

>  <PUBCHEM_FEATURE_SELFOVERLAP>  (1) 
30.496

>  <PUBCHEM_SHAPE_FINGERPRINT>  (1) 
10608611 8 18409163286364442773
10967382 1 18410573976846411626
11132069 177 18409726261718246848
11401426 45 18411133645165198468
11471102 20 18411134727897890300
11806522 49 18410854399524616271
12032990 46 18410859858227446430
12236239 1 17775286062780996785
13140716 1 18338516339579197304
13675066 3 18272367602860201712
13862211 1 18410288099649944634
15196674 1 18410855460128161793
15442244 35 18339644412760785337
15536298 74 18343019991083778564
15848702 151 17774450365013635022
16945 1 18122341276938031688
18186145 218 18334853900938909244
18522853 276 18413389834757415113
19591789 44 18410574002563857662
200 152 18131062745605000917
20645477 70 18342738485720959598
21267235 1 18411146831015750375
21452121 103 18272359924028752904
221490 88 18263933300698105251
2334 1 18410575119022817285
23402539 116 18343294886128439510
23402655 69 18342457032208178468
23463225 33 18409166593235728276
23559900 14 18341331107296539814
2748010 2 18410012139025730534
335352 9 18122343480150746941
34934 24 18410848841647070103
3545911 37 18410576184475510477
4214541 1 18411138009189841153
474 4 17532096171165355452
4990 188 18131078116923733870
5104073 3 18410857646730779051
537710 114 18410579500338144516
69090 78 18343580776168292326
7364860 26 18342176618573900806
77779 3 18411702088392347373
8809292 202 18260272966623480043
9709674 26 18410579517101581038

>  <PUBCHEM_SHAPE_MULTIPOLES>  (1) 
335.85
8.84
2.11
0.63
1.78
0.02
0
-0.03
-0.01
-0.61
0
-0.14
-0.01
0.15

>  <PUBCHEM_SHAPE_SELFOVERLAP>  (1) 
713.061

>  <PUBCHEM_SHAPE_VOLUME>  (1) 
188.5

>  <PUBCHEM_COORDINATE_TYPE>  (1) 
2
5
10

$$$$
