40908
     RDKit          3D

 13 14  0  0  0  0  0  0  0  0999 V2000
   -1.1499    1.1303    0.0015 O   0  0  0  0  0  0  0  0  0  0  0  0
    3.5977    0.2582   -0.0021 O   0  0  0  0  0  0  0  0  0  0  0  0
   -4.6002    0.2337   -0.0034 O   0  0  0  0  0  0  0  0  0  0  0  0
   -0.3714   -0.9905    0.0005 C   0  0  0  0  0  0  0  0  0  0  0  0
   -0.0275    0.3573    0.0011 C   0  0  0  0  0  0  0  0  0  0  0  0
    1.2838    0.8293    0.0012 C   0  0  0  0  0  0  0  0  0  0  0  0
   -1.7908   -1.0267    0.0009 C   0  0  0  0  0  0  0  0  0  0  0  0
    0.6593   -1.9467   -0.0004 C   0  0  0  0  0  0  0  0  0  0  0  0
    2.2927   -0.1384    0.0007 C   0  0  0  0  0  0  0  0  0  0  0  0
   -2.2121    0.2829    0.0014 C   0  0  0  0  0  0  0  0  0  0  0  0
    1.9886   -1.5022   -0.0002 C   0  0  0  0  0  0  0  0  0  0  0  0
   -3.5168    0.8512    0.0000 C   0  0  0  0  0  0  0  0  0  0  0  0
    3.8467    1.6617   -0.0011 C   0  0  0  0  0  0  0  0  0  0  0  0
  1  5  1  0
  1 10  1  0
  2  9  1  0
  2 13  1  0
  3 12  2  0
  4  5  2  0
  4  7  1  0
  4  8  1  0
  5  6  1  0
  6  9  2  0
  7 10  2  0
  8 11  2  0
  9 11  1  0
 10 12  1  0
M  END
>  <PUBCHEM_COMPOUND_CID>  (1) 
40908

>  <PUBCHEM_CONFORMER_RMSD>  (1) 
0.6

>  <PUBCHEM_CONFORMER_DIVERSEORDER>  (1) 
1
2

>  <PUBCHEM_MMFF94_PARTIAL_CHARGES>  (1) 
17
1 -0.28
10 0.05
11 -0.15
12 0.59
13 0.28
14 0.15
15 0.15
16 0.15
17 0.15
18 0.06
2 -0.36
3 -0.57
5 0.14
6 -0.15
7 -0.15
8 -0.15
9 0.08

>  <PUBCHEM_EFFECTIVE_ROTOR_COUNT>  (1) 
2

>  <PUBCHEM_PHARMACOPHORE_FEATURES>  (1) 
5
1 1 acceptor
1 2 acceptor
1 3 acceptor
5 1 4 5 7 10 rings
6 4 5 6 8 9 11 rings

>  <PUBCHEM_HEAVY_ATOM_COUNT>  (1) 
13

>  <PUBCHEM_ATOM_DEF_STEREO_COUNT>  (1) 
0

>  <PUBCHEM_ATOM_UDEF_STEREO_COUNT>  (1) 
0

>  <PUBCHEM_BOND_DEF_STEREO_COUNT>  (1) 
0

>  <PUBCHEM_BOND_UDEF_STEREO_COUNT>  (1) 
0

>  <PUBCHEM_ISOTOPIC_ATOM_COUNT>  (1) 
0

>  <PUBCHEM_COMPONENT_COUNT>  (1) 
1

>  <PUBCHEM_CACTVS_TAUTO_COUNT>  (1) 
1

>  <PUBCHEM_CONFORMER_ID>  (1) 
00009FCC00000001

>  <PUBCHEM_MMFF94_ENERGY>  (1) 
29.9208

>  <PUBCHEM_FEATURE_SELFOVERLAP>  (1) 
25.474

>  <PUBCHEM_SHAPE_FINGERPRINT>  (1) 
10219947 1 18260551099725068629
10608611 8 18263078829871181397
10980938 120 18340205198140249755
11471102 20 18410852127470910573
11543360 7 15697712722349426464
12346645 44 18413390925441737985
12932764 1 17130971114938059553
13380535 76 18409449193351848474
14325111 11 18410855460133443041
14897335 6 18411697694630416511
15219456 202 18335428962700449571
15536298 74 18343302526907102286
15775835 57 18342458157542272950
16945 1 18266741285696515618
170605 34 18335139769514384194
17846911 113 18412257359276793416
18186145 218 18341899528331414653
20645477 70 18268143163628715271
23235685 24 18408879646344114408
23402539 116 18200867474450676372
23402655 69 18270672083506681517
23463225 33 18334852784500756154
2748010 2 18194967571874818022
3071541 37 18335145263194378166
366044 4 18410292536303402874
449060 50 18408326596617481485
449060 62 18413390916788337392
4990 188 17846226539867008316
5104073 3 18336267843138727681
528886 8 18411414024957033754
53812653 166 18342453772570710928
7364860 26 18269837523879356614

>  <PUBCHEM_SHAPE_MULTIPOLES>  (1) 
249.93
6.52
1.7
0.59
2.29
0.42
0
-3.03
-0.01
-0.94
0
-0.02
0.01
0

>  <PUBCHEM_SHAPE_SELFOVERLAP>  (1) 
545.852

>  <PUBCHEM_SHAPE_VOLUME>  (1) 
138.1

>  <PUBCHEM_COORDINATE_TYPE>  (1) 
2
5
10

$$$$
