40922
     RDKit          3D

  9  8  0  0  0  0  0  0  0  0999 V2000
   -3.3926   -0.3016    0.0024 O   0  0  0  0  0  0  0  0  0  0  0  0
    1.5720   -0.1185   -0.0244 C   0  0  0  0  0  0  0  0  0  0  0  0
    2.5715   -1.2866   -0.0754 C   0  0  0  0  0  0  0  0  0  0  0  0
    1.8004    0.6310    1.3099 C   0  0  0  0  0  0  0  0  0  0  0  0
    1.8497    0.8821   -1.1603 C   0  0  0  0  0  0  0  0  0  0  0  0
    0.1325   -0.6256   -0.0453 C   0  0  0  0  0  0  0  0  0  0  0  0
   -1.0266    0.0589   -0.0104 C   0  0  0  0  0  0  0  0  0  0  0  0
   -1.2437    1.5376    0.0314 C   0  0  0  0  0  0  0  0  0  0  0  0
   -2.2632   -0.7774   -0.0278 C   0  0  0  0  0  0  0  0  0  0  0  0
  1  9  2  0
  2  3  1  0
  2  4  1  0
  2  5  1  0
  2  6  1  0
  6  7  2  0
  7  8  1  0
  7  9  1  0
M  END
>  <PUBCHEM_COMPOUND_CID>  (1) 
40922

>  <PUBCHEM_CONFORMER_RMSD>  (1) 
0.4

>  <PUBCHEM_CONFORMER_DIVERSEORDER>  (1) 
1
2

>  <PUBCHEM_MMFF94_PARTIAL_CHARGES>  (1) 
8
1 -0.57
19 0.15
2 0.14
23 0.06
6 -0.29
7 -0.12
8 0.14
9 0.5

>  <PUBCHEM_EFFECTIVE_ROTOR_COUNT>  (1) 
2

>  <PUBCHEM_PHARMACOPHORE_FEATURES>  (1) 
3
1 1 acceptor
1 8 hydrophobe
4 2 3 4 5 hydrophobe

>  <PUBCHEM_HEAVY_ATOM_COUNT>  (1) 
9

>  <PUBCHEM_ATOM_DEF_STEREO_COUNT>  (1) 
0

>  <PUBCHEM_ATOM_UDEF_STEREO_COUNT>  (1) 
0

>  <PUBCHEM_BOND_DEF_STEREO_COUNT>  (1) 
0

>  <PUBCHEM_BOND_UDEF_STEREO_COUNT>  (1) 
1

>  <PUBCHEM_ISOTOPIC_ATOM_COUNT>  (1) 
0

>  <PUBCHEM_COMPONENT_COUNT>  (1) 
1

>  <PUBCHEM_CACTVS_TAUTO_COUNT>  (1) 
1

>  <PUBCHEM_CONFORMER_ID>  (1) 
00009FDA00000001

>  <PUBCHEM_MMFF94_ENERGY>  (1) 
19.324

>  <PUBCHEM_FEATURE_SELFOVERLAP>  (1) 
15.223

>  <PUBCHEM_SHAPE_FINGERPRINT>  (1) 
10857977 72 18339916138536098667
12897270 3 18335432312595287084
12932764 1 17989208170146340119
14128692 85 18338809896810802742
170605 34 17241617293544697340
20653091 64 18187082819774010586
21040471 1 18339923830606410134
23552333 60 17531242898148750304
23552423 10 18260269607542231883
24536 1 18187078455791877532
29004967 10 18340204197523633211
3248919 1 18187078494626087155
5084963 1 18336548226697878546

>  <PUBCHEM_SHAPE_MULTIPOLES>  (1) 
179.35
4.23
1.33
0.96
2.15
0.19
-0.08
-0.95
0.04
-0.16
0.05
-0.63
0.27
-0.03

>  <PUBCHEM_SHAPE_SELFOVERLAP>  (1) 
335.229

>  <PUBCHEM_SHAPE_VOLUME>  (1) 
113.3

>  <PUBCHEM_COORDINATE_TYPE>  (1) 
2
5
10

$$$$
