4092
     RDKit          3D

 11 10  0  0  1  0  0  0  0  0999 V2000
   -1.7426    0.4081    0.7467 O   0  0  0  0  0  0  0  0  0  0  0  0
   -1.4546    0.4275   -1.5412 O   0  0  0  0  0  0  0  0  0  0  0  0
    1.6767    0.2424    0.0840 N   0  0  0  0  0  0  0  0  0  0  0  0
    0.8709   -0.8349    0.7103 C   0  0  0  0  0  0  0  0  0  0  0  0
   -0.3155   -1.2336   -0.1690 C   0  0  0  0  0  0  0  0  0  0  0  0
    2.1895   -0.1921   -1.2959 C   0  0  0  0  0  0  0  0  0  0  0  0
    0.8377    1.5149   -0.0979 C   0  0  0  0  0  0  0  0  0  0  0  0
    2.8908    0.5923    0.9555 C   0  0  0  0  0  0  0  0  0  0  0  0
   -1.1054   -2.4137    0.3969 C   0  0  0  0  0  0  0  0  0  0  0  0
   -1.2275   -0.0448   -0.4350 C   0  0  0  0  0  0  0  0  0  0  0  0
   -2.6201    1.5339    0.6455 C   0  0  0  0  0  0  0  0  0  0  0  0
  1 10  1  0
  1 11  1  0
  2 10  2  0
  3  4  1  0
  3  6  1  0
  3  7  1  0
  3  8  1  0
  4  5  1  0
  5  9  1  0
  5 10  1  0
M  CHG  1   3   1
M  END
>  <PUBCHEM_COMPOUND_CID>  (1) 
4092

>  <PUBCHEM_CONFORMER_RMSD>  (1) 
0.6

>  <PUBCHEM_CONFORMER_DIVERSEORDER>  (1) 
1
4
2
3
5

>  <PUBCHEM_MMFF94_PARTIAL_CHARGES>  (1) 
10
1 -0.43
10 0.66
11 0.28
2 -0.57
3 -1.01
4 0.5
5 0.06
6 0.5
7 0.5
8 0.5

>  <PUBCHEM_EFFECTIVE_ROTOR_COUNT>  (1) 
4

>  <PUBCHEM_PHARMACOPHORE_FEATURES>  (1) 
3
1 2 acceptor
1 3 cation
1 9 hydrophobe

>  <PUBCHEM_HEAVY_ATOM_COUNT>  (1) 
11

>  <PUBCHEM_ATOM_DEF_STEREO_COUNT>  (1) 
0

>  <PUBCHEM_ATOM_UDEF_STEREO_COUNT>  (1) 
1

>  <PUBCHEM_BOND_DEF_STEREO_COUNT>  (1) 
0

>  <PUBCHEM_BOND_UDEF_STEREO_COUNT>  (1) 
0

>  <PUBCHEM_ISOTOPIC_ATOM_COUNT>  (1) 
0

>  <PUBCHEM_COMPONENT_COUNT>  (1) 
1

>  <PUBCHEM_CACTVS_TAUTO_COUNT>  (1) 
1

>  <PUBCHEM_CONFORMER_ID>  (1) 
00000FFC00000001

>  <PUBCHEM_MMFF94_ENERGY>  (1) 
45.3814

>  <PUBCHEM_FEATURE_SELFOVERLAP>  (1) 
15.223

>  <PUBCHEM_SHAPE_FINGERPRINT>  (1) 
12423570 1 8068355558986147442
12932764 1 17603860139837717612
13839132 238 18201720686672983656
15310529 11 16558745741100619501
15557651 10 17895772723947313109
15775835 57 18040428923415569468
16945 1 18265909118734954363
19837323 101 18131351933673250531
19973954 147 18197498639305367920
20645464 45 18343580754919938832
20653085 51 17131562647577050121
21040471 1 18409735036383840362
21922407 69 15719953669299243162
21930827 45 18338814384719304542
23235685 24 18411702054080283200
23402539 116 17986084491660382743
24536 1 18200874109805785940
29004967 10 15141225617088313904
305870 269 18194394498609555850
5084963 1 17749942383784511754
81228 2 18193563487184542859

>  <PUBCHEM_SHAPE_MULTIPOLES>  (1) 
209.66
3.55
1.9
1.18
0.87
0.74
0.31
-1.39
-0.52
-1.08
-0.37
0.21
-0.08
0.05

>  <PUBCHEM_SHAPE_SELFOVERLAP>  (1) 
390.651

>  <PUBCHEM_SHAPE_VOLUME>  (1) 
133.6

>  <PUBCHEM_COORDINATE_TYPE>  (1) 
2
5
10

$$$$
