40929
     RDKit          3D

 26 29  0  0  0  0  0  0  0  0999 V2000
   -4.0497   -0.5545   -1.9719 O   0  0  0  0  0  0  0  0  0  0  0  0
    1.6606    3.8632    1.6974 O   0  0  0  0  0  0  0  0  0  0  0  0
    2.5605    1.7982    1.9221 O   0  0  0  0  0  0  0  0  0  0  0  0
   -0.5291    2.9234    0.3878 N   0  0  0  0  0  0  0  0  0  0  0  0
    0.8640   -0.4411    0.7079 C   0  0  0  0  0  0  0  0  0  0  0  0
    0.0918    0.7933    0.4499 C   0  0  0  0  0  0  0  0  0  0  0  0
   -1.1614    0.8720   -0.2194 C   0  0  0  0  0  0  0  0  0  0  0  0
    0.4544    2.0704    0.8112 C   0  0  0  0  0  0  0  0  0  0  0  0
   -1.5286    2.2191   -0.2449 C   0  0  0  0  0  0  0  0  0  0  0  0
    1.8985   -0.6265   -0.4098 C   0  0  0  0  0  0  0  0  0  0  0  0
   -0.0690   -1.6176    1.0220 C   0  0  0  0  0  0  0  0  0  0  0  0
   -2.0212   -0.0765   -0.8081 C   0  0  0  0  0  0  0  0  0  0  0  0
   -2.7174    2.6669   -0.8318 C   0  0  0  0  0  0  0  0  0  0  0  0
    3.2315   -0.6157   -0.0767 C   0  0  0  0  0  0  0  0  0  0  0  0
   -0.9408   -1.4984    2.0775 C   0  0  0  0  0  0  0  0  0  0  0  0
    1.4486   -0.7953   -1.6971 C   0  0  0  0  0  0  0  0  0  0  0  0
    0.0064   -2.7414    0.2351 C   0  0  0  0  0  0  0  0  0  0  0  0
   -3.2136    0.3570   -1.3990 C   0  0  0  0  0  0  0  0  0  0  0  0
    1.6267    2.5051    1.5049 C   0  0  0  0  0  0  0  0  0  0  0  0
   -3.5544    1.7080   -1.4095 C   0  0  0  0  0  0  0  0  0  0  0  0
    4.1722   -0.7839   -1.0930 C   0  0  0  0  0  0  0  0  0  0  0  0
   -1.7889   -2.5683    2.3635 C   0  0  0  0  0  0  0  0  0  0  0  0
    2.3891   -0.9636   -2.7133 C   0  0  0  0  0  0  0  0  0  0  0  0
   -0.8418   -3.8113    0.5210 C   0  0  0  0  0  0  0  0  0  0  0  0
    3.7509   -0.9578   -2.4112 C   0  0  0  0  0  0  0  0  0  0  0  0
   -1.7394   -3.7247    1.5853 C   0  0  0  0  0  0  0  0  0  0  0  0
  1 18  1  0
  2 19  1  0
  3 19  2  0
  4  8  1  0
  4  9  1  0
  5  6  1  0
  5 10  1  0
  5 11  1  0
  6  7  1  0
  6  8  2  0
  7  9  2  0
  7 12  1  0
  8 19  1  0
  9 13  1  0
 10 14  2  0
 10 16  1  0
 11 15  2  0
 11 17  1  0
 12 18  2  0
 13 20  2  0
 14 21  1  0
 15 22  1  0
 16 23  2  0
 17 24  2  0
 18 20  1  0
 21 25  2  0
 22 26  2  0
 23 25  1  0
 24 26  1  0
M  END
>  <PUBCHEM_COMPOUND_CID>  (1) 
40929

>  <PUBCHEM_CONFORMER_RMSD>  (1) 
0.8

>  <PUBCHEM_CONFORMER_DIVERSEORDER>  (1) 
1
5
9
2
6
8
7
4
10
3

>  <PUBCHEM_MMFF94_PARTIAL_CHARGES>  (1) 
41
1 -0.53
10 -0.14
11 -0.14
12 -0.15
13 -0.15
14 -0.15
15 -0.15
16 -0.15
17 -0.15
18 0.08
19 0.81
2 -0.65
20 -0.15
21 -0.15
22 -0.15
23 -0.15
24 -0.15
25 -0.15
26 -0.15
28 0.27
29 0.15
3 -0.57
30 0.15
31 0.15
32 0.15
33 0.15
34 0.15
35 0.15
36 0.15
37 0.15
38 0.15
39 0.15
4 0.03
40 0.15
41 0.15
42 0.45
43 0.5
5 0.47
6 -0.18
8 -0.24
9 -0.15

>  <PUBCHEM_EFFECTIVE_ROTOR_COUNT>  (1) 
4

>  <PUBCHEM_PHARMACOPHORE_FEATURES>  (1) 
10
1 1 donor
1 2 acceptor
1 3 acceptor
1 4 cation
1 4 donor
3 2 3 19 anion
5 4 6 7 8 9 rings
6 10 14 16 21 23 25 rings
6 11 15 17 22 24 26 rings
6 7 9 12 13 18 20 rings

>  <PUBCHEM_HEAVY_ATOM_COUNT>  (1) 
26

>  <PUBCHEM_ATOM_DEF_STEREO_COUNT>  (1) 
0

>  <PUBCHEM_ATOM_UDEF_STEREO_COUNT>  (1) 
0

>  <PUBCHEM_BOND_DEF_STEREO_COUNT>  (1) 
0

>  <PUBCHEM_BOND_UDEF_STEREO_COUNT>  (1) 
0

>  <PUBCHEM_ISOTOPIC_ATOM_COUNT>  (1) 
0

>  <PUBCHEM_COMPONENT_COUNT>  (1) 
1

>  <PUBCHEM_CACTVS_TAUTO_COUNT>  (1) 
11

>  <PUBCHEM_CONFORMER_ID>  (1) 
00009FE100000001

>  <PUBCHEM_MMFF94_ENERGY>  (1) 
80.0485

>  <PUBCHEM_FEATURE_SELFOVERLAP>  (1) 
50.898

>  <PUBCHEM_SHAPE_FINGERPRINT>  (1) 
108634 29 17901925759021660855
10906281 52 18272931631283548632
11421498 54 17829620465598449145
11578080 2 17975157609533562653
121448 382 18264774268063266078
12293681 160 18124595280355211800
12293681 25 18268145542529036982
12714826 92 17972349388433490914
13009979 54 16754365017808276035
13149001 5 18410016562926603876
133893 2 17131283483688558828
14943834 7 16970271735034507320
15420108 30 15675201978966036626
15475509 8 16985468218840575925
15775530 1 18196374947032775592
16945 1 18056183679496068857
17980427 23 15287849834337166508
19319366 153 17830460479791671449
19765921 60 17900833642884190373
20600515 1 17188197464937216511
20691752 17 18188756280587728485
20775438 99 17910649275660628327
21330990 113 17831064244439642003
21452121 99 18114184154848549410
22182313 1 18122063366694688050
22907989 373 17901707905210760190
23419403 2 18054248762247890282
23559900 14 18408327662513312438
25222932 49 17402832052565778999
2748010 2 18193560205549700403
3493558 16 14498302942554491253
352729 6 17974025963293209946
376196 1 17624086794102436377
4409770 3 18262539042745342342
57527585 103 17909589144771870702
58260988 114 14116694012168691398
5845 1 11023825128068252723
59755656 520 17685253532282560302

>  <PUBCHEM_SHAPE_MULTIPOLES>  (1) 
512.48
5.51
4.53
2.5
1.7
1.87
0.35
-1.22
4.87
-2.14
-3.58
0.61
-0.09
2.07

>  <PUBCHEM_SHAPE_SELFOVERLAP>  (1) 
1155.599

>  <PUBCHEM_SHAPE_VOLUME>  (1) 
269.1

>  <PUBCHEM_COORDINATE_TYPE>  (1) 
2
5
10

$$$$
