40920
     RDKit          3D

  8  8  0  0  1  0  0  0  0  0999 V2000
    0.8402    1.6661    0.0746 O   0  0  0  0  0  0  0  0  0  0  0  0
    0.0831    0.6303   -0.5291 C   0  0  0  0  0  0  0  0  0  0  0  0
    1.0990    0.3235    0.5050 C   0  0  0  0  0  0  0  0  0  0  0  0
   -1.3820    0.6765   -0.1260 C   0  0  0  0  0  0  0  0  0  0  0  0
    2.4191   -0.1960    0.0802 C   0  0  0  0  0  0  0  0  0  0  0  0
   -2.0063   -0.7173   -0.1246 C   0  0  0  0  0  0  0  0  0  0  0  0
    2.4254   -1.7154   -0.1312 C   0  0  0  0  0  0  0  0  0  0  0  0
   -3.4785   -0.6677    0.2512 C   0  0  0  0  0  0  0  0  0  0  0  0
  1  2  1  0
  1  3  1  0
  2  3  1  0
  2  4  1  0
  3  5  1  0
  4  6  1  0
  5  7  1  0
  6  8  1  0
M  END
>  <PUBCHEM_COMPOUND_CID>  (1) 
40920

>  <PUBCHEM_CONFORMER_RMSD>  (1) 
0.6

>  <PUBCHEM_CONFORMER_DIVERSEORDER>  (1) 
1
5
40
27
24
13
20
46
14
34
44
7
35
43
25
37
45
21
36
12
41
2
26
19
29
42
38
3
6
32
17
9
18
11
23
33
39
28
22
4
15
16
31
30
10
8

>  <PUBCHEM_MMFF94_PARTIAL_CHARGES>  (1) 
7
1 -0.3
10 0.1
2 -0.05
3 -0.05
4 0.09
5 0.09
9 0.1

>  <PUBCHEM_EFFECTIVE_ROTOR_COUNT>  (1) 
3.6

>  <PUBCHEM_PHARMACOPHORE_FEATURES>  (1) 
3
1 1 acceptor
1 7 hydrophobe
1 8 hydrophobe

>  <PUBCHEM_HEAVY_ATOM_COUNT>  (1) 
8

>  <PUBCHEM_ATOM_DEF_STEREO_COUNT>  (1) 
0

>  <PUBCHEM_ATOM_UDEF_STEREO_COUNT>  (1) 
2

>  <PUBCHEM_BOND_DEF_STEREO_COUNT>  (1) 
0

>  <PUBCHEM_BOND_UDEF_STEREO_COUNT>  (1) 
0

>  <PUBCHEM_ISOTOPIC_ATOM_COUNT>  (1) 
0

>  <PUBCHEM_COMPONENT_COUNT>  (1) 
1

>  <PUBCHEM_CACTVS_TAUTO_COUNT>  (1) 
1

>  <PUBCHEM_CONFORMER_ID>  (1) 
00009FD800000001

>  <PUBCHEM_MMFF94_ENERGY>  (1) 
2.3332

>  <PUBCHEM_FEATURE_SELFOVERLAP>  (1) 
15.223

>  <PUBCHEM_SHAPE_FINGERPRINT>  (1) 
12897270 3 10665225947456295259
12932764 1 17703784859986276949
20201158 50 18334575754361880091
20711978 78 18340473577724855789
20871998 22 18270967830164006774
23552333 60 18058739120501682505
23552423 10 18115029580658983710
29004967 10 18341043060592488048

>  <PUBCHEM_SHAPE_MULTIPOLES>  (1) 
158.77
4.69
1.49
0.69
2.46
0.09
0
2.39
0.33
-0.69
-0.05
-0.01
-0.01
0.17

>  <PUBCHEM_SHAPE_SELFOVERLAP>  (1) 
291.413

>  <PUBCHEM_SHAPE_VOLUME>  (1) 
103.1

>  <PUBCHEM_COORDINATE_TYPE>  (1) 
2
5
10

$$$$
