40927
     RDKit          3D

 26 29  0  0  0  0  0  0  0  0999 V2000
   -4.3231   -0.6081   -2.0502 Cl  0  0  0  0  0  0  0  0  0  0  0  0
    1.8698    3.8083    1.6388 O   0  0  0  0  0  0  0  0  0  0  0  0
    2.6774    1.7066    1.8732 O   0  0  0  0  0  0  0  0  0  0  0  0
   -0.3781    2.9575    0.3693 N   0  0  0  0  0  0  0  0  0  0  0  0
    0.8614   -0.4651    0.7066 C   0  0  0  0  0  0  0  0  0  0  0  0
    0.1440    0.8015    0.4456 C   0  0  0  0  0  0  0  0  0  0  0  0
   -1.1134    0.9318   -0.2079 C   0  0  0  0  0  0  0  0  0  0  0  0
    0.5706    2.0637    0.7885 C   0  0  0  0  0  0  0  0  0  0  0  0
    1.8705   -0.7100   -0.4228 C   0  0  0  0  0  0  0  0  0  0  0  0
   -0.1211   -1.5933    1.0459 C   0  0  0  0  0  0  0  0  0  0  0  0
   -1.4178    2.2942   -0.2427 C   0  0  0  0  0  0  0  0  0  0  0  0
   -2.0242    0.0186   -0.7750 C   0  0  0  0  0  0  0  0  0  0  0  0
   -2.5924    2.7912   -0.8184 C   0  0  0  0  0  0  0  0  0  0  0  0
    3.2071   -0.7579   -0.1076 C   0  0  0  0  0  0  0  0  0  0  0  0
   -0.9720   -1.4227    2.1114 C   0  0  0  0  0  0  0  0  0  0  0  0
    1.3955   -0.8707   -1.7019 C   0  0  0  0  0  0  0  0  0  0  0  0
   -0.1091   -2.7275    0.2703 C   0  0  0  0  0  0  0  0  0  0  0  0
    1.7713    2.4514    1.4615 C   0  0  0  0  0  0  0  0  0  0  0  0
   -3.2033    0.5013   -1.3546 C   0  0  0  0  0  0  0  0  0  0  0  0
   -3.4810    1.8666   -1.3748 C   0  0  0  0  0  0  0  0  0  0  0  0
    4.1247   -0.9801   -1.1344 C   0  0  0  0  0  0  0  0  0  0  0  0
   -1.8649   -2.4488    2.4202 C   0  0  0  0  0  0  0  0  0  0  0  0
    2.3130   -1.0930   -2.7289 C   0  0  0  0  0  0  0  0  0  0  0  0
   -1.0022   -3.7536    0.5789 C   0  0  0  0  0  0  0  0  0  0  0  0
    3.6777   -1.1477   -2.4449 C   0  0  0  0  0  0  0  0  0  0  0  0
   -1.8801   -3.6142    1.6540 C   0  0  0  0  0  0  0  0  0  0  0  0
  1 19  1  0
  2 18  1  0
  3 18  2  0
  4  8  1  0
  4 11  1  0
  5  6  1  0
  5  9  1  0
  5 10  1  0
  6  7  1  0
  6  8  2  0
  7 11  2  0
  7 12  1  0
  8 18  1  0
  9 14  2  0
  9 16  1  0
 10 15  2  0
 10 17  1  0
 11 13  1  0
 12 19  2  0
 13 20  2  0
 14 21  1  0
 15 22  1  0
 16 23  2  0
 17 24  2  0
 19 20  1  0
 21 25  2  0
 22 26  2  0
 23 25  1  0
 24 26  1  0
M  END
>  <PUBCHEM_COMPOUND_CID>  (1) 
40927

>  <PUBCHEM_CONFORMER_RMSD>  (1) 
0.8

>  <PUBCHEM_CONFORMER_DIVERSEORDER>  (1) 
1
5
10
2
6
9
3
4
7
8

>  <PUBCHEM_MMFF94_PARTIAL_CHARGES>  (1) 
40
1 -0.18
10 -0.14
11 -0.15
12 -0.15
13 -0.15
14 -0.15
15 -0.15
16 -0.15
17 -0.15
18 0.81
19 0.18
2 -0.65
20 -0.15
21 -0.15
22 -0.15
23 -0.15
24 -0.15
25 -0.15
26 -0.15
28 0.27
29 0.15
3 -0.57
30 0.15
31 0.15
32 0.15
33 0.15
34 0.15
35 0.15
36 0.15
37 0.15
38 0.15
39 0.15
4 0.03
40 0.15
41 0.15
42 0.5
5 0.47
6 -0.18
8 -0.24
9 -0.14

>  <PUBCHEM_EFFECTIVE_ROTOR_COUNT>  (1) 
4

>  <PUBCHEM_PHARMACOPHORE_FEATURES>  (1) 
9
1 2 acceptor
1 3 acceptor
1 4 cation
1 4 donor
3 2 3 18 anion
5 4 6 7 8 11 rings
6 10 15 17 22 24 26 rings
6 7 11 12 13 19 20 rings
6 9 14 16 21 23 25 rings

>  <PUBCHEM_HEAVY_ATOM_COUNT>  (1) 
26

>  <PUBCHEM_ATOM_DEF_STEREO_COUNT>  (1) 
0

>  <PUBCHEM_ATOM_UDEF_STEREO_COUNT>  (1) 
0

>  <PUBCHEM_BOND_DEF_STEREO_COUNT>  (1) 
0

>  <PUBCHEM_BOND_UDEF_STEREO_COUNT>  (1) 
0

>  <PUBCHEM_ISOTOPIC_ATOM_COUNT>  (1) 
0

>  <PUBCHEM_COMPONENT_COUNT>  (1) 
1

>  <PUBCHEM_CACTVS_TAUTO_COUNT>  (1) 
2

>  <PUBCHEM_CONFORMER_ID>  (1) 
00009FDF00000001

>  <PUBCHEM_MMFF94_ENERGY>  (1) 
78.5988

>  <PUBCHEM_FEATURE_SELFOVERLAP>  (1) 
45.823

>  <PUBCHEM_SHAPE_FINGERPRINT>  (1) 
108634 29 17973704064231735799
10906281 52 18341887541331510104
11421498 54 17757282483178913905
11578080 2 18046933715694034349
121448 382 18264492780185848774
12156800 1 17388530785778503111
12293681 160 18124314896316005584
12293681 25 18340205322673663566
12714826 92 17972633049527462738
13009979 54 16609968341876056411
13149001 5 18409736174566063124
133893 2 17202778123430560524
14943834 7 16825876162919464728
15775530 1 18196094562967182576
16945 1 17983844597601816129
19319366 153 17758121402208210305
19765921 60 17828494565284878957
20600515 1 17116423523492938071
20691752 17 18187631475908089429
20775438 99 17982706861134982431
21452121 99 18113903770767158210
22182313 1 18120374512803337339
22907989 373 17901708996090274854
23419403 2 18126306343400929323
23559900 14 18336273341261667094
25222932 49 17474327787593032319
2748010 2 18193279821505238963
352729 6 17901969455871458394
376196 1 17695862904520984529
394222 165 16397097744967161837
4409770 3 18262257559120694302
57527585 103 17837814112337392342
58260988 114 14332303848560886566
5845 1 9676504104934884635
59755656 520 17612915554168561390

>  <PUBCHEM_SHAPE_MULTIPOLES>  (1) 
520.22
5.73
4.5
2.58
0.73
0.86
0.48
-0.62
5
-1.92
-3.38
0.67
0.49
2.52

>  <PUBCHEM_SHAPE_SELFOVERLAP>  (1) 
1161.008

>  <PUBCHEM_SHAPE_VOLUME>  (1) 
276.8

>  <PUBCHEM_COORDINATE_TYPE>  (1) 
2
5
10

$$$$
