40928
     RDKit          3D

 25 28  0  0  0  0  0  0  0  0999 V2000
    0.2693    3.9989    1.8857 O   0  0  0  0  0  0  0  0  0  0  0  0
    1.6369    2.2175    2.1695 O   0  0  0  0  0  0  0  0  0  0  0  0
   -1.4413    2.6133    0.2897 N   0  0  0  0  0  0  0  0  0  0  0  0
    0.7199   -0.3062    0.7009 C   0  0  0  0  0  0  0  0  0  0  0  0
   -0.3072    0.7074    0.3773 C   0  0  0  0  0  0  0  0  0  0  0  0
   -1.4529    0.5059   -0.4421 C   0  0  0  0  0  0  0  0  0  0  0  0
   -0.3277    2.0124    0.8124 C   0  0  0  0  0  0  0  0  0  0  0  0
    1.8892   -0.1648   -0.2822 C   0  0  0  0  0  0  0  0  0  0  0  0
    0.0886   -1.6944    0.8675 C   0  0  0  0  0  0  0  0  0  0  0  0
   -2.1473    1.7169   -0.4806 C   0  0  0  0  0  0  0  0  0  0  0  0
   -1.9675   -0.5939   -1.1571 C   0  0  0  0  0  0  0  0  0  0  0  0
   -3.3353    1.8838   -1.2010 C   0  0  0  0  0  0  0  0  0  0  0  0
    3.1274    0.1618    0.2158 C   0  0  0  0  0  0  0  0  0  0  0  0
   -0.9006   -1.8556    1.8076 C   0  0  0  0  0  0  0  0  0  0  0  0
    1.6489   -0.3702   -1.6193 C   0  0  0  0  0  0  0  0  0  0  0  0
    0.5390   -2.7187    0.0700 C   0  0  0  0  0  0  0  0  0  0  0  0
    0.6070    2.6889    1.6569 C   0  0  0  0  0  0  0  0  0  0  0  0
   -3.1548   -0.4416   -1.8824 C   0  0  0  0  0  0  0  0  0  0  0  0
   -3.8265    0.7790   -1.9025 C   0  0  0  0  0  0  0  0  0  0  0  0
    4.1906    0.2909   -0.6781 C   0  0  0  0  0  0  0  0  0  0  0  0
   -1.4743   -3.1180    1.9594 C   0  0  0  0  0  0  0  0  0  0  0  0
    2.7120   -0.2412   -2.5132 C   0  0  0  0  0  0  0  0  0  0  0  0
   -0.0347   -3.9811    0.2217 C   0  0  0  0  0  0  0  0  0  0  0  0
    3.9828    0.0894   -2.0424 C   0  0  0  0  0  0  0  0  0  0  0  0
   -1.0413   -4.1807    1.1665 C   0  0  0  0  0  0  0  0  0  0  0  0
  1 17  1  0
  2 17  2  0
  3  7  1  0
  3 10  1  0
  4  5  1  0
  4  8  1  0
  4  9  1  0
  5  6  1  0
  5  7  2  0
  6 10  2  0
  6 11  1  0
  7 17  1  0
  8 13  2  0
  8 15  1  0
  9 14  2  0
  9 16  1  0
 10 12  1  0
 11 18  2  0
 12 19  2  0
 13 20  1  0
 14 21  1  0
 15 22  2  0
 16 23  2  0
 18 19  1  0
 20 24  2  0
 21 25  2  0
 22 24  1  0
 23 25  1  0
M  END
>  <PUBCHEM_COMPOUND_CID>  (1) 
40928

>  <PUBCHEM_CONFORMER_RMSD>  (1) 
0.8

>  <PUBCHEM_CONFORMER_DIVERSEORDER>  (1) 
1
5
9
10
2
4
8
7
3
6

>  <PUBCHEM_MMFF94_PARTIAL_CHARGES>  (1) 
40
1 -0.65
10 -0.15
11 -0.15
12 -0.15
13 -0.15
14 -0.15
15 -0.15
16 -0.15
17 0.81
18 -0.15
19 -0.15
2 -0.57
20 -0.15
21 -0.15
22 -0.15
23 -0.15
24 -0.15
25 -0.15
27 0.27
28 0.15
29 0.15
3 0.03
30 0.15
31 0.15
32 0.15
33 0.15
34 0.15
35 0.15
36 0.15
37 0.15
38 0.15
39 0.15
4 0.47
40 0.15
41 0.15
42 0.5
5 -0.18
7 -0.24
8 -0.14
9 -0.14

>  <PUBCHEM_EFFECTIVE_ROTOR_COUNT>  (1) 
4

>  <PUBCHEM_PHARMACOPHORE_FEATURES>  (1) 
9
1 1 acceptor
1 2 acceptor
1 3 cation
1 3 donor
3 1 2 17 anion
5 3 5 6 7 10 rings
6 6 10 11 12 18 19 rings
6 8 13 15 20 22 24 rings
6 9 14 16 21 23 25 rings

>  <PUBCHEM_HEAVY_ATOM_COUNT>  (1) 
25

>  <PUBCHEM_ATOM_DEF_STEREO_COUNT>  (1) 
0

>  <PUBCHEM_ATOM_UDEF_STEREO_COUNT>  (1) 
0

>  <PUBCHEM_BOND_DEF_STEREO_COUNT>  (1) 
0

>  <PUBCHEM_BOND_UDEF_STEREO_COUNT>  (1) 
0

>  <PUBCHEM_ISOTOPIC_ATOM_COUNT>  (1) 
0

>  <PUBCHEM_COMPONENT_COUNT>  (1) 
1

>  <PUBCHEM_CACTVS_TAUTO_COUNT>  (1) 
2

>  <PUBCHEM_CONFORMER_ID>  (1) 
00009FE000000001

>  <PUBCHEM_MMFF94_ENERGY>  (1) 
78.0846

>  <PUBCHEM_FEATURE_SELFOVERLAP>  (1) 
45.823

>  <PUBCHEM_SHAPE_FINGERPRINT>  (1) 
108634 29 17398636466143669207
10906281 52 18129656534326048992
11421498 54 18191305975365202917
11578080 2 17831315156313152573
12035758 1 18195527219056502803
121448 382 18409445869099551782
12293681 160 18341888533352618232
12293681 25 17981034529449412510
12714826 92 17972339552995221842
13009979 54 17261015629375388799
13149001 5 18267019638231950333
14863182 85 17978194237733446747
14943834 7 17476359405111493976
14955137 171 16253938771219239610
16945 1 18129925798462335937
19319366 153 18192147093249118655
19765921 60 18191026698910256629
20600515 1 17330052134426423391
20691752 17 18118092927570926013
21330990 113 17975454370504615123
21452121 99 18115299111136465350
22112679 90 16392681736892152475
22182313 1 17834669774742021946
22907989 373 17973194912880233886
229495 10 17539980468237363717
23419403 2 17838632388873344035
238 59 17244440590070084007
25222932 49 17045633744288641543
266924 1 17692532212963608373
266924 78 17321573486974493141
2748010 2 17834109023854177563
298252 57 17240485792810648524
352729 6 18263090933237052586
4409770 3 18263656198198860718
57527585 103 18053980378980214438
5845 1 10425205179148632394
59755656 520 18045814241480006430
9981440 41 18202002089131252470

>  <PUBCHEM_SHAPE_MULTIPOLES>  (1) 
497.77
5.24
4.62
2.38
2.22
3.62
0.17
-2.35
4.67
-2.06
-3.62
0.26
-0.85
1.2

>  <PUBCHEM_SHAPE_SELFOVERLAP>  (1) 
1122.054

>  <PUBCHEM_SHAPE_VOLUME>  (1) 
261.4

>  <PUBCHEM_COORDINATE_TYPE>  (1) 
2
5
10

$$$$
