40939
     RDKit          3D

 27 30  0  0  0  0  0  0  0  0999 V2000
    3.4797   -3.2391   -2.8917 O   0  0  0  0  0  0  0  0  0  0  0  0
    3.0953   -3.9092   -0.7579 O   0  0  0  0  0  0  0  0  0  0  0  0
    0.0431    1.7033    0.3499 N   0  0  0  0  0  0  0  0  0  0  0  0
   -1.0771   -0.4055   -0.3086 C   0  0  0  0  0  0  0  0  0  0  0  0
    0.1237    0.3663    0.0666 C   0  0  0  0  0  0  0  0  0  0  0  0
    1.4378   -0.0173    0.2043 C   0  0  0  0  0  0  0  0  0  0  0  0
    2.1863    1.1310    0.5865 C   0  0  0  0  0  0  0  0  0  0  0  0
    1.2876    2.1967    0.6708 C   0  0  0  0  0  0  0  0  0  0  0  0
    1.9735   -1.3781   -0.0077 C   0  0  0  0  0  0  0  0  0  0  0  0
   -2.0137    0.4902   -1.1315 C   0  0  0  0  0  0  0  0  0  0  0  0
   -1.6697   -1.1309    0.9076 C   0  0  0  0  0  0  0  0  0  0  0  0
    2.4343   -1.6671   -1.4504 C   0  0  0  0  0  0  0  0  0  0  0  0
    3.5464    1.3669    0.8696 C   0  0  0  0  0  0  0  0  0  0  0  0
    1.6826    3.4915    1.0254 C   0  0  0  0  0  0  0  0  0  0  0  0
   -1.8361    0.5461   -2.4924 C   0  0  0  0  0  0  0  0  0  0  0  0
   -2.2904   -2.3402    0.7090 C   0  0  0  0  0  0  0  0  0  0  0  0
   -2.9895    1.1969   -0.4716 C   0  0  0  0  0  0  0  0  0  0  0  0
   -1.5537   -0.5400    2.1422 C   0  0  0  0  0  0  0  0  0  0  0  0
    3.9559    2.6570    1.2258 C   0  0  0  0  0  0  0  0  0  0  0  0
    3.0366    3.7015    1.3019 C   0  0  0  0  0  0  0  0  0  0  0  0
   -2.6873    1.3598   -3.2402 C   0  0  0  0  0  0  0  0  0  0  0  0
   -2.8288   -2.9996    1.8140 C   0  0  0  0  0  0  0  0  0  0  0  0
   -3.8406    2.0104   -1.2195 C   0  0  0  0  0  0  0  0  0  0  0  0
   -2.0920   -1.1996    3.2471 C   0  0  0  0  0  0  0  0  0  0  0  0
    3.0152   -3.0537   -1.6280 C   0  0  0  0  0  0  0  0  0  0  0  0
   -3.6895    2.0918   -2.6039 C   0  0  0  0  0  0  0  0  0  0  0  0
   -2.7296   -2.4293    3.0829 C   0  0  0  0  0  0  0  0  0  0  0  0
  1 25  1  0
  2 25  2  0
  3  5  1  0
  3  8  1  0
  4  5  1  0
  4 10  1  0
  4 11  1  0
  5  6  2  0
  6  7  1  0
  6  9  1  0
  7  8  2  0
  7 13  1  0
  8 14  1  0
  9 12  1  0
 10 15  2  0
 10 17  1  0
 11 16  2  0
 11 18  1  0
 12 25  1  0
 13 19  2  0
 14 20  2  0
 15 21  1  0
 16 22  1  0
 17 23  2  0
 18 24  2  0
 19 20  1  0
 21 26  2  0
 22 27  2  0
 23 26  1  0
 24 27  1  0
M  END
>  <PUBCHEM_COMPOUND_CID>  (1) 
40939

>  <PUBCHEM_CONFORMER_RMSD>  (1) 
0.8

>  <PUBCHEM_CONFORMER_DIVERSEORDER>  (1) 
1
25
19
7
33
23
27
36
3
31
13
34
18
35
21
26
28
5
9
17
6
22
15
2
37
12
8
16
30
11
4
38
32
10
20
29
24
14

>  <PUBCHEM_MMFF94_PARTIAL_CHARGES>  (1) 
42
1 -0.65
10 -0.14
11 -0.14
12 0.06
13 -0.15
14 -0.15
15 -0.15
16 -0.15
17 -0.15
18 -0.15
19 -0.15
2 -0.57
20 -0.15
21 -0.15
22 -0.15
23 -0.15
24 -0.15
25 0.66
26 -0.15
27 -0.15
29 0.27
3 0.03
34 0.15
35 0.15
36 0.15
37 0.15
38 0.15
39 0.15
4 0.47
40 0.15
41 0.15
42 0.15
43 0.15
44 0.15
45 0.15
46 0.15
47 0.15
48 0.5
5 -0.33
6 -0.18
8 -0.15
9 0.18

>  <PUBCHEM_EFFECTIVE_ROTOR_COUNT>  (1) 
6

>  <PUBCHEM_PHARMACOPHORE_FEATURES>  (1) 
9
1 1 acceptor
1 2 acceptor
1 3 cation
1 3 donor
3 1 2 25 anion
5 3 5 6 7 8 rings
6 10 15 17 21 23 26 rings
6 11 16 18 22 24 27 rings
6 7 8 13 14 19 20 rings

>  <PUBCHEM_HEAVY_ATOM_COUNT>  (1) 
27

>  <PUBCHEM_ATOM_DEF_STEREO_COUNT>  (1) 
0

>  <PUBCHEM_ATOM_UDEF_STEREO_COUNT>  (1) 
0

>  <PUBCHEM_BOND_DEF_STEREO_COUNT>  (1) 
0

>  <PUBCHEM_BOND_UDEF_STEREO_COUNT>  (1) 
0

>  <PUBCHEM_ISOTOPIC_ATOM_COUNT>  (1) 
0

>  <PUBCHEM_COMPONENT_COUNT>  (1) 
1

>  <PUBCHEM_CACTVS_TAUTO_COUNT>  (1) 
1

>  <PUBCHEM_CONFORMER_ID>  (1) 
00009FEB00000001

>  <PUBCHEM_MMFF94_ENERGY>  (1) 
67.4259

>  <PUBCHEM_FEATURE_SELFOVERLAP>  (1) 
45.821

>  <PUBCHEM_SHAPE_FINGERPRINT>  (1) 
10906281 52 18267852909781030192
11578080 2 18117868596775334012
11582403 64 17183276076613875496
12160290 23 17313106354530265635
12293681 160 17687460161724596910
12714826 92 17825138976040641034
12788726 201 17404034625838469730
12930653 34 17533474958524885024
13009979 54 16343131429289608110
13149001 5 18262236599421183991
133893 2 17704077287266560950
14863182 85 17187043171154918491
15219462 58 18055383385692611041
15775530 1 18334019410236789483
17980427 26 17486243233198658988
1813 80 17414135933424938014
18915476 22 18272367619876547103
19319366 153 16822510566406766609
21033648 29 17316441138258168804
21285901 2 18116707620482657431
229495 10 18059858428298454611
23419403 2 18338537260433623511
266924 78 17988931118695761798
3493558 16 15909348730371218752
376196 1 17832659708642041413
469060 322 15958615028919180208
59554788 248 18126275574877550930
633830 44 18122041145193691189
81228 2 17531525507587359179
9658208 31 17968098560943153097
9981440 41 17911203386127891553

>  <PUBCHEM_SHAPE_MULTIPOLES>  (1) 
538.93
7
4.85
3.37
2.3
2.02
0.76
-2.05
-0.08
2.02
1.23
-1.75
1.62
7.74

>  <PUBCHEM_SHAPE_SELFOVERLAP>  (1) 
1192.7

>  <PUBCHEM_SHAPE_VOLUME>  (1) 
289.5

>  <PUBCHEM_COORDINATE_TYPE>  (1) 
2
5
10

$$$$
