40935
     RDKit          3D

 27 30  0  0  0  0  0  0  0  0999 V2000
    5.3529   -1.2060   -2.7531 O   0  0  0  0  0  0  0  0  0  0  0  0
    5.4133   -2.3241   -0.7793 O   0  0  0  0  0  0  0  0  0  0  0  0
    1.8680   -0.2513    0.5012 N   0  0  0  0  0  0  0  0  0  0  0  0
   -1.7579    0.1816    0.5111 C   0  0  0  0  0  0  0  0  0  0  0  0
   -0.2879    0.2605    0.6314 C   0  0  0  0  0  0  0  0  0  0  0  0
    0.4586    1.3315    1.1976 C   0  0  0  0  0  0  0  0  0  0  0  0
    1.8082    0.9853    1.1034 C   0  0  0  0  0  0  0  0  0  0  0  0
    0.6064   -0.6974    0.2122 C   0  0  0  0  0  0  0  0  0  0  0  0
   -2.1991   -1.2763    0.6995 C   0  0  0  0  0  0  0  0  0  0  0  0
   -2.2491    0.9205   -0.7410 C   0  0  0  0  0  0  0  0  0  0  0  0
    3.0801   -0.9858    0.2076 C   0  0  0  0  0  0  0  0  0  0  0  0
    0.1145    2.5662    1.7831 C   0  0  0  0  0  0  0  0  0  0  0  0
    2.8351    1.8151    1.5673 C   0  0  0  0  0  0  0  0  0  0  0  0
    3.6600   -0.6771   -1.1735 C   0  0  0  0  0  0  0  0  0  0  0  0
    1.1310    3.4066    2.2514 C   0  0  0  0  0  0  0  0  0  0  0  0
   -2.4508   -1.7242    1.9736 C   0  0  0  0  0  0  0  0  0  0  0  0
   -3.4781    1.5330   -0.6993 C   0  0  0  0  0  0  0  0  0  0  0  0
   -2.3240   -2.0712   -0.4140 C   0  0  0  0  0  0  0  0  0  0  0  0
   -1.4386    0.9388   -1.8503 C   0  0  0  0  0  0  0  0  0  0  0  0
    2.4697    3.0348    2.1442 C   0  0  0  0  0  0  0  0  0  0  0  0
   -2.8519   -3.0490    2.1450 C   0  0  0  0  0  0  0  0  0  0  0  0
   -3.9247    2.2049   -1.8372 C   0  0  0  0  0  0  0  0  0  0  0  0
   -2.7253   -3.3961   -0.2426 C   0  0  0  0  0  0  0  0  0  0  0  0
   -1.8852    1.6109   -2.9881 C   0  0  0  0  0  0  0  0  0  0  0  0
    4.8924   -1.4901   -1.5063 C   0  0  0  0  0  0  0  0  0  0  0  0
   -2.9893   -3.8849    1.0370 C   0  0  0  0  0  0  0  0  0  0  0  0
   -3.1282    2.2439   -2.9815 C   0  0  0  0  0  0  0  0  0  0  0  0
  1 25  1  0
  2 25  2  0
  3  7  1  0
  3  8  1  0
  3 11  1  0
  4  5  1  0
  4  9  1  0
  4 10  1  0
  5  6  1  0
  5  8  2  0
  6  7  2  0
  6 12  1  0
  7 13  1  0
  9 16  2  0
  9 18  1  0
 10 17  2  0
 10 19  1  0
 11 14  1  0
 12 15  2  0
 13 20  2  0
 14 25  1  0
 15 20  1  0
 16 21  1  0
 17 22  1  0
 18 23  2  0
 19 24  2  0
 21 26  2  0
 22 27  2  0
 23 26  1  0
 24 27  1  0
M  END
>  <PUBCHEM_COMPOUND_CID>  (1) 
40935

>  <PUBCHEM_CONFORMER_RMSD>  (1) 
0.8

>  <PUBCHEM_CONFORMER_DIVERSEORDER>  (1) 
1
19
16
56
54
63
46
57
44
36
49
6
20
51
45
62
34
21
60
53
13
47
35
26
18
41
11
40
32
27
10
52
7
30
4
12
31
8
61
23
24
37
15
3
39
55
48
58
42
65
50
5
28
38
17
64
25
2
14
29
33
9
66
59
22
43

>  <PUBCHEM_MMFF94_PARTIAL_CHARGES>  (1) 
42
1 -0.65
10 -0.14
11 0.26
12 -0.15
13 -0.15
14 0.06
15 -0.15
16 -0.15
17 -0.15
18 -0.15
19 -0.15
2 -0.57
20 -0.15
21 -0.15
22 -0.15
23 -0.15
24 -0.15
25 0.66
26 -0.15
27 -0.15
29 0.15
3 0.05
32 0.15
33 0.15
36 0.15
37 0.15
38 0.15
39 0.15
4 0.47
40 0.15
41 0.15
42 0.15
43 0.15
44 0.15
45 0.15
46 0.15
47 0.15
48 0.5
5 -0.18
7 -0.15
8 -0.3
9 -0.14

>  <PUBCHEM_EFFECTIVE_ROTOR_COUNT>  (1) 
6

>  <PUBCHEM_PHARMACOPHORE_FEATURES>  (1) 
8
1 1 acceptor
1 2 acceptor
1 3 cation
3 1 2 25 anion
5 3 5 6 7 8 rings
6 10 17 19 22 24 27 rings
6 6 7 12 13 15 20 rings
6 9 16 18 21 23 26 rings

>  <PUBCHEM_HEAVY_ATOM_COUNT>  (1) 
27

>  <PUBCHEM_ATOM_DEF_STEREO_COUNT>  (1) 
0

>  <PUBCHEM_ATOM_UDEF_STEREO_COUNT>  (1) 
0

>  <PUBCHEM_BOND_DEF_STEREO_COUNT>  (1) 
0

>  <PUBCHEM_BOND_UDEF_STEREO_COUNT>  (1) 
0

>  <PUBCHEM_ISOTOPIC_ATOM_COUNT>  (1) 
0

>  <PUBCHEM_COMPONENT_COUNT>  (1) 
1

>  <PUBCHEM_CACTVS_TAUTO_COUNT>  (1) 
1

>  <PUBCHEM_CONFORMER_ID>  (1) 
00009FE700000001

>  <PUBCHEM_MMFF94_ENERGY>  (1) 
72.6611

>  <PUBCHEM_FEATURE_SELFOVERLAP>  (1) 
40.747

>  <PUBCHEM_SHAPE_FINGERPRINT>  (1) 
10165383 225 18043818572257750621
10764073 3 17986418675340776803
11578080 2 18337396044615952676
11582403 64 16324758719271571753
12160290 23 17604691349264158649
12553582 1 18058735676428696930
12623949 98 17767701807292665782
12714826 92 18334304170737030714
12788726 201 17768810866911516818
13149001 5 18339907251932472745
13540713 4 18340759450864057296
14114211 68 17613998487286606389
14863182 85 16828134065855797515
15274700 242 17695344781098442410
15324884 4 17901662988643543579
15775530 1 18337658823704856483
15842332 3 16153692224733630288
1813 80 17680711729100687035
19319366 153 17331971521125639625
20693207 138 18411133666692958046
21285901 2 17760336157855374599
21304303 282 17690845562833520664
22182313 1 18270109240515907928
22440779 20 17898605135005095899
229495 10 17557695052422434331
23419403 2 18270966846320979948
23557571 272 17826211159154768767
3729539 64 17976814285947039975
376196 1 17190032571646573577
44062 13 18114191783148876062
484985 159 18126871320811679306
58260988 647 17989198275069692207
59554788 248 17624666327076899632
6049 1 18339361984353959256
613672 6 18059294241716478590
621550 5 18192173661289038434
6442390 28 18042942330505185133
7399639 24 17690819577558784856
81228 2 17751620256346508337
9658208 31 18188756285256878301
9981440 41 16763605777442960433

>  <PUBCHEM_SHAPE_MULTIPOLES>  (1) 
538.93
8.32
4.57
3.05
9.26
1.44
1.26
4.69
5.16
-2.79
-1.3
0.58
-1.74
6.57

>  <PUBCHEM_SHAPE_SELFOVERLAP>  (1) 
1192.021

>  <PUBCHEM_SHAPE_VOLUME>  (1) 
289.6

>  <PUBCHEM_COORDINATE_TYPE>  (1) 
2
5
10

$$$$
