40931
     RDKit          3D

 33 37  0  0  0  0  0  0  0  0999 V2000
    2.7652   -1.5279   -0.5298 O   0  0  0  0  0  0  0  0  0  0  0  0
   -5.2286   -2.6064    0.1883 O   0  0  0  0  0  0  0  0  0  0  0  0
   -5.0782   -0.4192    0.7523 O   0  0  0  0  0  0  0  0  0  0  0  0
   -2.5493   -2.8361   -0.2104 N   0  0  0  0  0  0  0  0  0  0  0  0
   -2.2267    0.6927    0.6876 C   0  0  0  0  0  0  0  0  0  0  0  0
   -2.0834   -0.7251    0.2927 C   0  0  0  0  0  0  0  0  0  0  0  0
   -0.8653   -1.3833   -0.0357 C   0  0  0  0  0  0  0  0  0  0  0  0
   -3.1006   -1.6441    0.1762 C   0  0  0  0  0  0  0  0  0  0  0  0
   -1.1856   -2.7063   -0.3478 C   0  0  0  0  0  0  0  0  0  0  0  0
   -2.5737    1.5250   -0.5537 C   0  0  0  0  0  0  0  0  0  0  0  0
   -1.0387    1.1473    1.5450 C   0  0  0  0  0  0  0  0  0  0  0  0
    0.4832   -0.9792   -0.0979 C   0  0  0  0  0  0  0  0  0  0  0  0
   -0.2210   -3.6491   -0.7205 C   0  0  0  0  0  0  0  0  0  0  0  0
    1.4589   -1.9115   -0.4690 C   0  0  0  0  0  0  0  0  0  0  0  0
   -3.7767    2.1884   -0.5817 C   0  0  0  0  0  0  0  0  0  0  0  0
   -0.7701    0.4642    2.7067 C   0  0  0  0  0  0  0  0  0  0  0  0
   -1.6668    1.5724   -1.5848 C   0  0  0  0  0  0  0  0  0  0  0  0
   -0.2925    2.2181    1.1152 C   0  0  0  0  0  0  0  0  0  0  0  0
    1.1100   -3.2254   -0.7752 C   0  0  0  0  0  0  0  0  0  0  0  0
   -4.5008   -1.4629    0.4013 C   0  0  0  0  0  0  0  0  0  0  0  0
   -4.0922    2.9453   -1.7100 C   0  0  0  0  0  0  0  0  0  0  0  0
    0.3102    0.8773    3.4863 C   0  0  0  0  0  0  0  0  0  0  0  0
   -1.9824    2.3295   -2.7132 C   0  0  0  0  0  0  0  0  0  0  0  0
    0.7879    2.6311    1.8948 C   0  0  0  0  0  0  0  0  0  0  0  0
   -3.1951    3.0159   -2.7757 C   0  0  0  0  0  0  0  0  0  0  0  0
    1.0892    1.9606    3.0804 C   0  0  0  0  0  0  0  0  0  0  0  0
    3.0573   -0.1706   -0.2050 C   0  0  0  0  0  0  0  0  0  0  0  0
    4.5313    0.0637   -0.3598 C   0  0  0  0  0  0  0  0  0  0  0  0
    5.3785   -0.1423    0.7234 C   0  0  0  0  0  0  0  0  0  0  0  0
    5.0369    0.4841   -1.5849 C   0  0  0  0  0  0  0  0  0  0  0  0
    6.7488    0.0753    0.5797 C   0  0  0  0  0  0  0  0  0  0  0  0
    6.4073    0.7015   -1.7286 C   0  0  0  0  0  0  0  0  0  0  0  0
    7.2632    0.4971   -0.6462 C   0  0  0  0  0  0  0  0  0  0  0  0
  1 14  1  0
  1 27  1  0
  2 20  1  0
  3 20  2  0
  4  8  1  0
  4  9  1  0
  5  6  1  0
  5 10  1  0
  5 11  1  0
  6  7  1  0
  6  8  2  0
  7  9  2  0
  7 12  1  0
  8 20  1  0
  9 13  1  0
 10 15  2  0
 10 17  1  0
 11 16  2  0
 11 18  1  0
 12 14  2  0
 13 19  2  0
 14 19  1  0
 15 21  1  0
 16 22  1  0
 17 23  2  0
 18 24  2  0
 21 25  2  0
 22 26  2  0
 23 25  1  0
 24 26  1  0
 27 28  1  0
 28 29  2  0
 28 30  1  0
 29 31  1  0
 30 32  2  0
 31 33  2  0
 32 33  1  0
M  END
>  <PUBCHEM_COMPOUND_CID>  (1) 
40931

>  <PUBCHEM_CONFORMER_RMSD>  (1) 
1

>  <PUBCHEM_CONFORMER_DIVERSEORDER>  (1) 
1
11
13
3
14
16
32
26
29
24
36
22
15
37
12
27
33
5
28
6
4
8
10
19
17
25
21
18
35
31
23
2
30
20
34
9
7

>  <PUBCHEM_MMFF94_PARTIAL_CHARGES>  (1) 
52
1 -0.36
10 -0.14
11 -0.14
12 -0.15
13 -0.15
14 0.08
15 -0.15
16 -0.15
17 -0.15
18 -0.15
19 -0.15
2 -0.65
20 0.81
21 -0.15
22 -0.15
23 -0.15
24 -0.15
25 -0.15
26 -0.15
27 0.42
28 -0.14
29 -0.15
3 -0.57
30 -0.15
31 -0.15
32 -0.15
33 -0.15
35 0.27
36 0.15
37 0.15
38 0.15
39 0.15
4 0.03
40 0.15
41 0.15
42 0.15
43 0.15
44 0.15
45 0.15
46 0.15
47 0.15
48 0.15
5 0.47
51 0.5
52 0.15
53 0.15
54 0.15
55 0.15
56 0.15
6 -0.18
8 -0.24
9 -0.15

>  <PUBCHEM_EFFECTIVE_ROTOR_COUNT>  (1) 
7

>  <PUBCHEM_PHARMACOPHORE_FEATURES>  (1) 
11
1 1 acceptor
1 2 acceptor
1 3 acceptor
1 4 cation
1 4 donor
3 2 3 20 anion
5 4 6 7 8 9 rings
6 10 15 17 21 23 25 rings
6 11 16 18 22 24 26 rings
6 28 29 30 31 32 33 rings
6 7 9 12 13 14 19 rings

>  <PUBCHEM_HEAVY_ATOM_COUNT>  (1) 
33

>  <PUBCHEM_ATOM_DEF_STEREO_COUNT>  (1) 
0

>  <PUBCHEM_ATOM_UDEF_STEREO_COUNT>  (1) 
0

>  <PUBCHEM_BOND_DEF_STEREO_COUNT>  (1) 
0

>  <PUBCHEM_BOND_UDEF_STEREO_COUNT>  (1) 
0

>  <PUBCHEM_ISOTOPIC_ATOM_COUNT>  (1) 
0

>  <PUBCHEM_COMPONENT_COUNT>  (1) 
1

>  <PUBCHEM_CACTVS_TAUTO_COUNT>  (1) 
2

>  <PUBCHEM_CONFORMER_ID>  (1) 
00009FE300000001

>  <PUBCHEM_MMFF94_ENERGY>  (1) 
108.5598

>  <PUBCHEM_FEATURE_SELFOVERLAP>  (1) 
55.974

>  <PUBCHEM_SHAPE_FINGERPRINT>  (1) 
10032420 55 18336814381489828274
10165383 225 18340491076139304137
10290309 65 18342462486870360014
10940486 97 14523374200323796144
11578080 2 18192997024274699961
11582403 64 17315068866093981880
12107698 1 17531248400123293204
12156800 1 17825913092366381612
12166972 35 18338805606497332428
13402501 40 18059859518998751466
13560911 43 18189057659070662032
13642711 20 17918270935291243622
13726171 33 18336829693043145880
13911987 19 18201435839819722742
14468879 13 17751373793247115796
14713325 29 18187085040135030493
15001296 14 18119534495132084876
15324884 4 17905024196005594171
15361156 5 16773811281711832912
15513586 35 17462883026815491084
15575132 122 18260272966454376502
16067690 210 17023190422727246828
17980427 23 17240495692768081038
20715895 44 17758103813689749565
22122407 14 17169008810296496852
22182313 1 18128510817175897353
22899556 10 17897730856363762521
23419403 2 18130490995184559649
4112364 45 15939488509100858869
469060 322 18262537968802473682
508706 21 18196631072843291356
57527306 92 17240761830648731367
57527358 35 17386843907324221274
5951187 136 16306802272328586357

>  <PUBCHEM_SHAPE_MULTIPOLES>  (1) 
656.54
12.36
3.98
2.71
23.24
1.76
-1.4
-2.11
5.12
-4.66
1.46
-0.5
-2.98
2.23

>  <PUBCHEM_SHAPE_SELFOVERLAP>  (1) 
1472.681

>  <PUBCHEM_SHAPE_VOLUME>  (1) 
346.1

>  <PUBCHEM_COORDINATE_TYPE>  (1) 
2
5
10

$$$$
