40938
     RDKit          3D

 32 35  0  0  1  0  0  0  0  0999 V2000
    1.9810   -2.5091   -1.7487 O   0  0  0  0  0  0  0  0  0  0  0  0
    4.7175   -0.3634    1.5441 O   0  0  0  0  0  0  0  0  0  0  0  0
    4.3846   -2.3225   -0.3847 O   0  0  0  0  0  0  0  0  0  0  0  0
   -4.9568   -1.4922   -3.0340 O   0  0  0  0  0  0  0  0  0  0  0  0
   -2.9845   -2.1683   -2.1226 O   0  0  0  0  0  0  0  0  0  0  0  0
   -3.0519   -0.0313   -0.3115 N   0  0  0  0  0  0  0  0  0  0  0  0
    0.1863    1.2721    0.7612 C   0  0  0  0  0  0  0  0  0  0  0  0
   -1.1294    0.6249    0.5834 C   0  0  0  0  0  0  0  0  0  0  0  0
   -1.8104   -0.1837    1.5359 C   0  0  0  0  0  0  0  0  0  0  0  0
   -3.0135   -0.5825    0.9495 C   0  0  0  0  0  0  0  0  0  0  0  0
   -1.9176    0.7000   -0.5419 C   0  0  0  0  0  0  0  0  0  0  0  0
    1.3279    0.2950    0.4494 C   0  0  0  0  0  0  0  0  0  0  0  0
    0.1834    2.6232    0.0331 C   0  0  0  0  0  0  0  0  0  0  0  0
   -1.5178   -0.6160    2.8447 C   0  0  0  0  0  0  0  0  0  0  0  0
   -4.1263   -0.1932   -1.2674 C   0  0  0  0  0  0  0  0  0  0  0  0
   -3.9423   -1.3952    1.6092 C   0  0  0  0  0  0  0  0  0  0  0  0
    2.5046    0.4199    1.1470 C   0  0  0  0  0  0  0  0  0  0  0  0
    1.1244   -0.6625   -0.5145 C   0  0  0  0  0  0  0  0  0  0  0  0
    0.6255    2.6668   -1.2668 C   0  0  0  0  0  0  0  0  0  0  0  0
   -0.2618    3.7314    0.7121 C   0  0  0  0  0  0  0  0  0  0  0  0
   -2.4375   -1.4293    3.5167 C   0  0  0  0  0  0  0  0  0  0  0  0
   -3.6305   -1.8117    2.9066 C   0  0  0  0  0  0  0  0  0  0  0  0
    2.1622   -1.5503   -0.7982 C   0  0  0  0  0  0  0  0  0  0  0  0
    3.5425   -0.4678    0.8630 C   0  0  0  0  0  0  0  0  0  0  0  0
    3.3712   -1.4529   -0.1095 C   0  0  0  0  0  0  0  0  0  0  0  0
    0.6226    3.8947   -1.9287 C   0  0  0  0  0  0  0  0  0  0  0  0
   -0.2649    4.9593    0.0502 C   0  0  0  0  0  0  0  0  0  0  0  0
   -3.9251   -1.3891   -2.1572 C   0  0  0  0  0  0  0  0  0  0  0  0
    0.1773    5.0409   -1.2701 C   0  0  0  0  0  0  0  0  0  0  0  0
    1.4537   -3.7611   -1.3143 C   0  0  0  0  0  0  0  0  0  0  0  0
    5.7188    0.4833    0.9831 C   0  0  0  0  0  0  0  0  0  0  0  0
    4.8867   -2.3294   -1.7191 C   0  0  0  0  0  0  0  0  0  0  0  0
  1 23  1  0
  1 30  1  0
  2 24  1  0
  2 31  1  0
  3 25  1  0
  3 32  1  0
  4 28  1  0
  5 28  2  0
  6 10  1  0
  6 11  1  0
  6 15  1  0
  7  8  1  0
  7 12  1  0
  7 13  1  0
  8  9  1  0
  8 11  2  0
  9 10  2  0
  9 14  1  0
 10 16  1  0
 12 17  2  0
 12 18  1  0
 13 19  2  0
 13 20  1  0
 14 21  2  0
 15 28  1  0
 16 22  2  0
 17 24  1  0
 18 23  2  0
 19 26  1  0
 20 27  2  0
 21 22  1  0
 23 25  1  0
 24 25  2  0
 26 29  2  0
 27 29  1  0
M  END
>  <PUBCHEM_COMPOUND_CID>  (1) 
40938

>  <PUBCHEM_CONFORMER_RMSD>  (1) 
1

>  <PUBCHEM_CONFORMER_DIVERSEORDER>  (1) 
1
10
6
30
19
25
4
20
29
16
14
34
32
18
12
27
21
3
11
9
23
28
26
5
22
17
7
2
8
13
31
15
24
33

>  <PUBCHEM_MMFF94_PARTIAL_CHARGES>  (1) 
44
1 -0.36
10 -0.15
11 -0.3
12 -0.14
13 -0.14
14 -0.15
15 0.32
16 -0.15
17 -0.15
18 -0.15
19 -0.15
2 -0.36
20 -0.15
21 -0.15
22 -0.15
23 0.08
24 0.08
25 0.08
26 -0.15
27 -0.15
28 0.66
29 -0.15
3 -0.36
30 0.28
31 0.28
32 0.28
34 0.15
35 0.15
38 0.15
39 0.15
4 -0.65
40 0.15
41 0.15
42 0.15
43 0.15
44 0.15
45 0.15
46 0.15
47 0.15
48 0.5
5 -0.57
6 0.05
7 0.47
8 -0.18

>  <PUBCHEM_EFFECTIVE_ROTOR_COUNT>  (1) 
8

>  <PUBCHEM_PHARMACOPHORE_FEATURES>  (1) 
11
1 1 acceptor
1 2 acceptor
1 3 acceptor
1 4 acceptor
1 5 acceptor
1 6 cation
3 4 5 28 anion
5 6 8 9 10 11 rings
6 12 17 18 23 24 25 rings
6 13 19 20 26 27 29 rings
6 9 10 14 16 21 22 rings

>  <PUBCHEM_HEAVY_ATOM_COUNT>  (1) 
32

>  <PUBCHEM_ATOM_DEF_STEREO_COUNT>  (1) 
0

>  <PUBCHEM_ATOM_UDEF_STEREO_COUNT>  (1) 
1

>  <PUBCHEM_BOND_DEF_STEREO_COUNT>  (1) 
0

>  <PUBCHEM_BOND_UDEF_STEREO_COUNT>  (1) 
0

>  <PUBCHEM_ISOTOPIC_ATOM_COUNT>  (1) 
0

>  <PUBCHEM_COMPONENT_COUNT>  (1) 
1

>  <PUBCHEM_CACTVS_TAUTO_COUNT>  (1) 
1

>  <PUBCHEM_CONFORMER_ID>  (1) 
00009FEA00000001

>  <PUBCHEM_MMFF94_ENERGY>  (1) 
120.5465

>  <PUBCHEM_FEATURE_SELFOVERLAP>  (1) 
55.981

>  <PUBCHEM_SHAPE_FINGERPRINT>  (1) 
10006869 2 17467629300732388705
10369192 42 16886129928746121597
107951 10 16675880816823507535
10906281 52 18334583403704097304
10928967 22 17700994145141827638
10930396 42 17686009077603023488
11115154 58 18268688594801238533
11477941 20 18118995532697489860
11578080 2 17772761468109619840
11582403 64 16674379356824256933
11763715 3 17560250239735587601
12160290 23 17976259028248423472
12363563 72 18188505621816432450
12553582 1 18340502134967668494
12788726 201 17974564702309819817
13149001 5 17749380525116806609
133893 2 18123474049030171589
13681431 1 18263093239249361856
13690498 29 18054807087344714110
13782708 43 18198352763137402390
13911987 19 18260831548758425494
140371 6 18188501155172088268
14068700 675 17273111712958158463
14955137 171 18049186624242531632
15219462 58 18042966463763053738
15361156 5 18266751186202599668
161222 10 17488481830034866398
1813 80 18269857391833214632
20600515 1 17676203554984954092
20693207 138 17314235643002956667
21120745 212 17902269700066242532
21133665 82 15813987850972834494
21304303 282 17317022663981463948
23419403 2 17678739170627146721
23559900 14 16879631724794033417
238 59 17976250554594037277
266924 78 17980209900392306143
3380486 145 18202005395565208209
392239 28 16126945612035100522
44802255 64 16024845688224123086
46194498 28 18046598335357953765
469060 322 18270665558960813318
484985 159 17056121710479779374
57527452 28 17560221635316232111
613672 6 18334573542680413730
6677587 24 16610189833603529533
6913067 236 18270381859628607520
7399639 24 18341050727636463456
81228 2 18046355132075824208

>  <PUBCHEM_SHAPE_MULTIPOLES>  (1) 
624.22
8.78
5.35
2.97
4.31
8.66
0.33
-8.62
-0.64
1.76
-2.5
-3.61
-2.24
1.3

>  <PUBCHEM_SHAPE_SELFOVERLAP>  (1) 
1371.909

>  <PUBCHEM_SHAPE_VOLUME>  (1) 
339.2

>  <PUBCHEM_COORDINATE_TYPE>  (1) 
2
5
10

$$$$
