40940
     RDKit          3D

 28 31  0  0  1  0  0  0  0  0999 V2000
   -1.1036   -2.3242   -1.5294 O   0  0  0  0  0  0  0  0  0  0  0  0
    1.6642    0.5059   -4.1971 O   0  0  0  0  0  0  0  0  0  0  0  0
    1.9069   -1.1600   -2.6718 O   0  0  0  0  0  0  0  0  0  0  0  0
    0.9544   -0.3075    1.4189 N   0  0  0  0  0  0  0  0  0  0  0  0
   -0.9126    0.1643   -0.1387 C   0  0  0  0  0  0  0  0  0  0  0  0
    0.5228    0.1530    0.2040 C   0  0  0  0  0  0  0  0  0  0  0  0
    1.6268    0.5477   -0.5159 C   0  0  0  0  0  0  0  0  0  0  0  0
    2.7755    0.3185    0.2923 C   0  0  0  0  0  0  0  0  0  0  0  0
    2.3258   -0.2184    1.5005 C   0  0  0  0  0  0  0  0  0  0  0  0
   -1.7013   -1.0551    0.4135 C   0  0  0  0  0  0  0  0  0  0  0  0
   -1.6645    1.5083    0.0765 C   0  0  0  0  0  0  0  0  0  0  0  0
    1.6188    1.1093   -1.8832 C   0  0  0  0  0  0  0  0  0  0  0  0
    4.1588    0.5165    0.1112 C   0  0  0  0  0  0  0  0  0  0  0  0
   -1.7328   -2.2013   -0.3271 C   0  0  0  0  0  0  0  0  0  0  0  0
    3.1937   -0.5684    2.5409 C   0  0  0  0  0  0  0  0  0  0  0  0
   -2.3209   -0.8992    1.6212 C   0  0  0  0  0  0  0  0  0  0  0  0
   -2.6767    1.8135   -0.7858 C   0  0  0  0  0  0  0  0  0  0  0  0
   -1.2657    2.2989    1.1145 C   0  0  0  0  0  0  0  0  0  0  0  0
    5.0388    0.1712    1.1434 C   0  0  0  0  0  0  0  0  0  0  0  0
    4.5614   -0.3626    2.3388 C   0  0  0  0  0  0  0  0  0  0  0  0
    1.7322    0.0240   -2.9308 C   0  0  0  0  0  0  0  0  0  0  0  0
   -2.4453   -3.2866    0.1833 C   0  0  0  0  0  0  0  0  0  0  0  0
   -3.0334   -1.9844    2.1313 C   0  0  0  0  0  0  0  0  0  0  0  0
   -3.3514    3.0189   -0.5928 C   0  0  0  0  0  0  0  0  0  0  0  0
   -1.9406    3.5043    1.3074 C   0  0  0  0  0  0  0  0  0  0  0  0
   -3.0957   -3.1780    1.4123 C   0  0  0  0  0  0  0  0  0  0  0  0
   -2.9834    3.8643    0.4538 C   0  0  0  0  0  0  0  0  0  0  0  0
   -1.8522   -1.9727   -2.6913 C   0  0  0  0  0  0  0  0  0  0  0  0
  1 14  1  0
  1 28  1  0
  2 21  1  0
  3 21  2  0
  4  6  1  0
  4  9  1  0
  5  6  1  0
  5 10  1  0
  5 11  1  0
  6  7  2  0
  7  8  1  0
  7 12  1  0
  8  9  2  0
  8 13  1  0
  9 15  1  0
 10 14  2  0
 10 16  1  0
 11 17  2  0
 11 18  1  0
 12 21  1  0
 13 19  2  0
 14 22  1  0
 15 20  2  0
 16 23  2  0
 17 24  1  0
 18 25  2  0
 19 20  1  0
 22 26  2  0
 23 26  1  0
 24 27  2  0
 25 27  1  0
M  END
>  <PUBCHEM_COMPOUND_CID>  (1) 
40940

>  <PUBCHEM_CONFORMER_RMSD>  (1) 
0.8

>  <PUBCHEM_CONFORMER_DIVERSEORDER>  (1) 
1
65
87
80
42
61
56
75
30
96
85
53
67
33
31
89
93
29
100
35
57
82
72
94
74
27
83
76
39
78
81
99
47
41
73
21
44
46
49
69
59
86
51
50
92
38
90
77
37
66
36
32
23
55
18
7
43
91
8
88
64
54
98
62
79
101
71
19
97
12
95
25
26
17
48
63
34
5
13
20
68
45
22
3
70
28
24
15
2
58
60
40
84
14
52
9
6
10
11
4
16

>  <PUBCHEM_MMFF94_PARTIAL_CHARGES>  (1) 
42
1 -0.36
10 -0.14
11 -0.14
12 0.24
13 -0.15
14 0.08
15 -0.15
16 -0.15
17 -0.15
18 -0.15
19 -0.15
2 -0.65
20 -0.15
21 0.66
22 -0.15
23 -0.15
24 -0.15
25 -0.15
26 -0.15
27 -0.15
28 0.28
3 -0.57
30 0.27
33 0.15
34 0.15
35 0.15
36 0.15
37 0.15
38 0.15
39 0.15
4 0.03
40 0.15
41 0.15
42 0.15
43 0.15
44 0.15
45 0.15
49 0.5
5 0.47
6 -0.33
7 -0.18
9 -0.15

>  <PUBCHEM_EFFECTIVE_ROTOR_COUNT>  (1) 
6

>  <PUBCHEM_PHARMACOPHORE_FEATURES>  (1) 
10
1 1 acceptor
1 2 acceptor
1 3 acceptor
1 4 cation
1 4 donor
3 2 3 21 anion
5 4 6 7 8 9 rings
6 10 14 16 22 23 26 rings
6 11 17 18 24 25 27 rings
6 8 9 13 15 19 20 rings

>  <PUBCHEM_HEAVY_ATOM_COUNT>  (1) 
28

>  <PUBCHEM_ATOM_DEF_STEREO_COUNT>  (1) 
0

>  <PUBCHEM_ATOM_UDEF_STEREO_COUNT>  (1) 
1

>  <PUBCHEM_BOND_DEF_STEREO_COUNT>  (1) 
0

>  <PUBCHEM_BOND_UDEF_STEREO_COUNT>  (1) 
0

>  <PUBCHEM_ISOTOPIC_ATOM_COUNT>  (1) 
0

>  <PUBCHEM_COMPONENT_COUNT>  (1) 
1

>  <PUBCHEM_CACTVS_TAUTO_COUNT>  (1) 
1

>  <PUBCHEM_CONFORMER_ID>  (1) 
00009FEC00000001

>  <PUBCHEM_MMFF94_ENERGY>  (1) 
84.3258

>  <PUBCHEM_FEATURE_SELFOVERLAP>  (1) 
50.896

>  <PUBCHEM_SHAPE_FINGERPRINT>  (1) 
10165383 225 17118386023173949297
11578080 2 17558022539157330184
11582403 64 17270002075152859912
11763715 3 18119809368158518334
12160290 23 18337972112079477809
12655364 131 14548184165367441238
12788726 201 18116452486117879947
13009979 54 17894916264903848898
133893 2 15410336529657222164
13583140 156 17631427082695439026
14068700 675 17751344299975986146
14787075 74 17612312253161158456
15842332 3 17386591131250345204
1813 80 17909570667606473723
18603816 31 17553440784617450474
20567600 347 17983283834293124661
20600515 1 17912947241992745243
23419403 2 12025527589754935855
23557571 272 18271536337578210172
23598288 3 18260557731212544249
238 59 16557615323062566748
266924 1 17532390818284295996
3380486 145 17560517421182040019
3380486 77 17482245503225237119
376196 1 17270853084336870800
469060 322 15684700144153164128
59554788 281 18194116322542709993
9981440 41 17773858827646894266

>  <PUBCHEM_SHAPE_MULTIPOLES>  (1) 
553.64
7.19
3.96
3.19
7.78
1.14
-3.24
0.15
3.84
-7.4
1.07
2.02
-0.73
-0.59

>  <PUBCHEM_SHAPE_SELFOVERLAP>  (1) 
1228.23

>  <PUBCHEM_SHAPE_VOLUME>  (1) 
296.3

>  <PUBCHEM_COORDINATE_TYPE>  (1) 
2
5
10

$$$$
