40957
     RDKit          3D

 14 15  0  0  1  0  0  0  0  0999 V2000
   -3.0530    1.5594   -0.2199 Cl  0  0  0  0  0  0  0  0  0  0  0  0
    1.2342    2.2691   -0.3219 S   0  0  0  0  0  0  0  0  0  0  0  0
    1.3252   -2.3866   -0.0824 O   0  0  0  0  0  0  0  0  0  0  0  0
   -2.1880   -1.5979    1.0608 O   0  0  0  0  0  0  0  0  0  0  0  0
   -1.8946   -1.7311   -1.2034 O   0  0  0  0  0  0  0  0  0  0  0  0
    0.4768   -0.2148    0.2668 N   0  0  0  0  0  0  0  0  0  0  0  0
    3.2392    0.1245   -0.8275 N   0  0  0  0  0  0  0  0  0  0  0  0
    1.3830    0.8158    0.7448 C   0  0  0  0  0  0  0  0  0  0  0  0
    2.5240   -0.1695    0.4100 C   0  0  0  0  0  0  0  0  0  0  0  0
    1.3882   -1.2064    0.1713 C   0  0  0  0  0  0  0  0  0  0  0  0
   -0.8510   -0.0127    0.0647 C   0  0  0  0  0  0  0  0  0  0  0  0
   -0.5364    2.5149    0.0644 C   0  0  0  0  0  0  0  0  0  0  0  0
   -1.3549    1.2390    0.0010 C   0  0  0  0  0  0  0  0  0  0  0  0
   -1.6926   -1.2037   -0.1286 C   0  0  0  0  0  0  0  0  0  0  0  0
  1 13  1  0
  2  8  1  0
  2 12  1  0
  3 10  2  0
  4 14  1  0
  5 14  2  0
  6  8  1  0
  6 10  1  0
  6 11  1  0
  7  9  1  0
  8  9  1  0
  9 10  1  0
 11 13  2  0
 11 14  1  0
 12 13  1  0
M  END
>  <PUBCHEM_COMPOUND_CID>  (1) 
40957

>  <PUBCHEM_CONFORMER_RMSD>  (1) 
0.6

>  <PUBCHEM_CONFORMER_DIVERSEORDER>  (1) 
1
4
3
2

>  <PUBCHEM_MMFF94_PARTIAL_CHARGES>  (1) 
16
1 -0.14
10 0.58
11 0.12
12 0.37
14 0.71
19 0.36
2 -0.45
20 0.36
21 0.5
3 -0.57
4 -0.65
5 -0.57
6 -0.39
7 -0.93
8 0.44
9 0.26

>  <PUBCHEM_EFFECTIVE_ROTOR_COUNT>  (1) 
1.6

>  <PUBCHEM_PHARMACOPHORE_FEATURES>  (1) 
8
1 3 acceptor
1 4 acceptor
1 5 acceptor
1 7 cation
1 7 donor
3 4 5 14 anion
4 6 8 9 10 rings
6 2 6 8 11 12 13 rings

>  <PUBCHEM_HEAVY_ATOM_COUNT>  (1) 
14

>  <PUBCHEM_ATOM_DEF_STEREO_COUNT>  (1) 
0

>  <PUBCHEM_ATOM_UDEF_STEREO_COUNT>  (1) 
2

>  <PUBCHEM_BOND_DEF_STEREO_COUNT>  (1) 
0

>  <PUBCHEM_BOND_UDEF_STEREO_COUNT>  (1) 
0

>  <PUBCHEM_ISOTOPIC_ATOM_COUNT>  (1) 
0

>  <PUBCHEM_COMPONENT_COUNT>  (1) 
1

>  <PUBCHEM_CACTVS_TAUTO_COUNT>  (1) 
1

>  <PUBCHEM_CONFORMER_ID>  (1) 
00009FFD00000001

>  <PUBCHEM_MMFF94_ENERGY>  (1) 
46.9215

>  <PUBCHEM_FEATURE_SELFOVERLAP>  (1) 
40.909

>  <PUBCHEM_SHAPE_FINGERPRINT>  (1) 
10353120 184 18264216974660979214
10967382 1 18266456512258781209
11206711 2 18337109063611793092
12423570 1 16608869933896639568
12524768 44 18268424638024748137
13140716 1 18410289250411225008
13380535 21 18338248054447182307
13380535 76 18266451018958621466
14251711 518 18411411817375673867
14614273 12 18188198823844419556
14993402 34 18338796693886461349
15219459 52 18048038475824463596
16945 1 18340480063152086696
193761 8 18337951315362819673
20588541 1 18339077064850608136
20645476 183 17678477267457649494
21501502 16 18337665321906199978
22802520 49 18127426570072751054
2334 1 18193836170120618240
23402539 116 18051952758678332540
23419403 2 16611588330188209321
23526114 1 18265616670074922740
23552423 10 18336823207694730061
23559900 14 18272091562024572292
2748010 2 18266451186467899992
5084963 1 17915743274112741402
528886 8 18409727340029383800
53812654 25 18195789800361262360
66348 1 18340201869461564968
81228 2 18337663127267712697

>  <PUBCHEM_SHAPE_MULTIPOLES>  (1) 
266.26
3.94
2.75
0.85
0.07
0.25
-0.03
0.01
-0.4
-0.6
-0.19
-0.04
-0.16
-0.04

>  <PUBCHEM_SHAPE_SELFOVERLAP>  (1) 
543.792

>  <PUBCHEM_SHAPE_VOLUME>  (1) 
157

>  <PUBCHEM_COORDINATE_TYPE>  (1) 
2
5
10

$$$$
