40958
     RDKit          3D

 24 26  0  0  1  0  0  0  0  0999 V2000
    4.3758   -2.8607    0.1803 Cl  0  0  0  0  0  0  0  0  0  0  0  0
    0.4211   -1.2636    1.0217 S   0  0  0  0  0  0  0  0  0  0  0  0
    2.3110    2.5640   -0.8543 O   0  0  0  0  0  0  0  0  0  0  0  0
   -2.1507    2.0851    1.5566 O   0  0  0  0  0  0  0  0  0  0  0  0
    5.3604    0.5101    0.0076 O   0  0  0  0  0  0  0  0  0  0  0  0
    4.3871    0.0327   -2.0061 O   0  0  0  0  0  0  0  0  0  0  0  0
    2.2714    0.5146    0.3114 N   0  0  0  0  0  0  0  0  0  0  0  0
   -0.6350    1.4084   -0.0623 N   0  0  0  0  0  0  0  0  0  0  0  0
   -4.0767    2.3920   -0.3999 N   0  0  0  0  0  0  0  0  0  0  0  0
    1.2515    0.3141    1.3270 C   0  0  0  0  0  0  0  0  0  0  0  0
    0.5689    1.5738    0.7510 C   0  0  0  0  0  0  0  0  0  0  0  0
    1.8682    1.7393   -0.0896 C   0  0  0  0  0  0  0  0  0  0  0  0
    3.2440   -0.3919    0.0343 C   0  0  0  0  0  0  0  0  0  0  0  0
    1.9540   -2.2411    1.2193 C   0  0  0  0  0  0  0  0  0  0  0  0
    3.1419   -1.6662    0.4708 C   0  0  0  0  0  0  0  0  0  0  0  0
   -1.9168    1.6830    0.4179 C   0  0  0  0  0  0  0  0  0  0  0  0
   -3.0082    1.4114   -0.6118 C   0  0  0  0  0  0  0  0  0  0  0  0
    4.3725    0.0641   -0.7926 C   0  0  0  0  0  0  0  0  0  0  0  0
   -3.5054   -0.0155   -0.5080 C   0  0  0  0  0  0  0  0  0  0  0  0
   -2.8881   -1.0009   -1.2576 C   0  0  0  0  0  0  0  0  0  0  0  0
   -4.5653   -0.3008    0.3343 C   0  0  0  0  0  0  0  0  0  0  0  0
   -3.3458   -2.3150   -1.1620 C   0  0  0  0  0  0  0  0  0  0  0  0
   -5.0229   -1.6150    0.4300 C   0  0  0  0  0  0  0  0  0  0  0  0
   -4.4130   -2.6221   -0.3182 C   0  0  0  0  0  0  0  0  0  0  0  0
  1 15  1  0
  2 10  1  0
  2 14  1  0
  3 12  2  0
  4 16  2  0
  5 18  1  0
  6 18  2  0
  7 10  1  0
  7 12  1  0
  7 13  1  0
  8 11  1  0
  8 16  1  0
  9 17  1  0
 10 11  1  0
 11 12  1  0
 13 15  2  0
 13 18  1  0
 14 15  1  0
 16 17  1  0
 17 19  1  0
 19 20  2  0
 19 21  1  0
 20 22  1  0
 21 23  2  0
 22 24  2  0
 23 24  1  0
M  END
>  <PUBCHEM_COMPOUND_CID>  (1) 
40958

>  <PUBCHEM_CONFORMER_RMSD>  (1) 
0.8

>  <PUBCHEM_CONFORMER_DIVERSEORDER>  (1) 
1
6
16
20
8
13
19
18
12
15
21
2
5
10
3
7
9
11
14
4
17

>  <PUBCHEM_MMFF94_PARTIAL_CHARGES>  (1) 
32
1 -0.14
10 0.44
11 0.28
12 0.58
13 0.12
14 0.37
16 0.57
17 0.47
18 0.71
19 -0.14
2 -0.45
20 -0.15
21 -0.15
22 -0.15
23 -0.15
24 -0.15
27 0.37
3 -0.57
31 0.36
32 0.36
33 0.15
34 0.15
35 0.5
36 0.15
37 0.15
38 0.15
4 -0.57
5 -0.65
6 -0.57
7 -0.39
8 -0.65
9 -0.99

>  <PUBCHEM_EFFECTIVE_ROTOR_COUNT>  (1) 
5.6

>  <PUBCHEM_PHARMACOPHORE_FEATURES>  (1) 
11
1 3 acceptor
1 4 acceptor
1 5 acceptor
1 6 acceptor
1 8 donor
1 9 cation
1 9 donor
3 5 6 18 anion
4 7 10 11 12 rings
6 19 20 21 22 23 24 rings
6 2 7 10 13 14 15 rings

>  <PUBCHEM_HEAVY_ATOM_COUNT>  (1) 
24

>  <PUBCHEM_ATOM_DEF_STEREO_COUNT>  (1) 
2

>  <PUBCHEM_ATOM_UDEF_STEREO_COUNT>  (1) 
1

>  <PUBCHEM_BOND_DEF_STEREO_COUNT>  (1) 
0

>  <PUBCHEM_BOND_UDEF_STEREO_COUNT>  (1) 
0

>  <PUBCHEM_ISOTOPIC_ATOM_COUNT>  (1) 
0

>  <PUBCHEM_COMPONENT_COUNT>  (1) 
1

>  <PUBCHEM_CACTVS_TAUTO_COUNT>  (1) 
2

>  <PUBCHEM_CONFORMER_ID>  (1) 
00009FFE00000001

>  <PUBCHEM_MMFF94_ENERGY>  (1) 
68.4582

>  <PUBCHEM_FEATURE_SELFOVERLAP>  (1) 
56.135

>  <PUBCHEM_SHAPE_FINGERPRINT>  (1) 
10616163 171 18412542120082846431
10928967 22 18130505361513295719
11552529 35 14619084170548814933
12553582 1 18341600564759648963
12596599 1 18199477566776979620
12633257 1 15195267738447856158
13631057 29 18342172318847134496
13726171 33 18059030426906927808
14251751 93 18412827984262698925
14251757 5 18339929311001088871
14576447 43 18409449202416133904
14617045 38 18411140234352198139
14931854 50 18334008415073448743
15196674 1 18337106770051952922
15537594 2 18410864265207108475
17349148 13 18114452435970654936
17492 89 18410569591643293035
17909252 39 18342459300220501626
20291156 8 18340480149483572499
21054139 6 18334857247219709462
21634736 98 18411417353604193232
221357 26 18410007780077601835
221490 88 18408603681794640075
22393880 68 18409729539100216116
23379529 103 18271529676274390622
235170 7 16588015814669830847
23559900 14 18342162397927082745
2838139 119 16371018407999650244
2871803 45 18263634221008877943
329604 57 18334576862500443658
4280585 95 17762902065797443894

>  <PUBCHEM_SHAPE_MULTIPOLES>  (1) 
461.21
11.22
3.22
1.28
0.37
0.5
-0.12
4.63
-2.54
0.85
0.08
-0.36
0.05
-1.12

>  <PUBCHEM_SHAPE_SELFOVERLAP>  (1) 
968.459

>  <PUBCHEM_SHAPE_VOLUME>  (1) 
261.9

>  <PUBCHEM_COORDINATE_TYPE>  (1) 
2
5
10

$$$$
