40968
     RDKit          3D

 39 42  0  0  0  0  0  0  0  0999 V2000
   10.0374   -0.5051    0.0264 O   0  0  0  0  0  0  0  0  0  0  0  0
    0.6943   -0.2629    0.3318 O   0  0  0  0  0  0  0  0  0  0  0  0
    3.2271    0.1261   -0.4929 O   0  0  0  0  0  0  0  0  0  0  0  0
   -3.8404   -3.1563   -2.0961 O   0  0  0  0  0  0  0  0  0  0  0  0
   -6.3578   -3.5062   -0.9785 O   0  0  0  0  0  0  0  0  0  0  0  0
   -2.1791    4.2378   -1.9559 O   0  0  0  0  0  0  0  0  0  0  0  0
   -0.1057    5.5871   -0.6889 O   0  0  0  0  0  0  0  0  0  0  0  0
    7.4494   -1.6899    0.0378 N   0  0  0  0  0  0  0  0  0  0  0  0
    3.7644   -2.1245   -0.2446 N   0  0  0  0  0  0  0  0  0  0  0  0
   -3.1004    0.7739    2.4718 N   0  0  0  0  0  0  0  0  0  0  0  0
   -0.5716   -0.6629    0.7888 N   0  0  0  0  0  0  0  0  0  0  0  0
    8.3832   -1.8728    1.1578 C   0  0  0  0  0  0  0  0  0  0  0  0
    7.7023   -0.4022   -0.6234 C   0  0  0  0  0  0  0  0  0  0  0  0
    6.0648   -1.7739    0.4978 C   0  0  0  0  0  0  0  0  0  0  0  0
    9.8206   -1.7685    0.6561 C   0  0  0  0  0  0  0  0  0  0  0  0
    9.1556   -0.3334   -1.0837 C   0  0  0  0  0  0  0  0  0  0  0  0
    5.1340   -2.0477   -0.6745 C   0  0  0  0  0  0  0  0  0  0  0  0
    2.9181   -1.0230   -0.1891 C   0  0  0  0  0  0  0  0  0  0  0  0
    1.5346   -1.3969    0.2983 C   0  0  0  0  0  0  0  0  0  0  0  0
   -3.6589   -0.8461    0.7458 C   0  0  0  0  0  0  0  0  0  0  0  0
   -2.7946    0.0586    1.3657 C   0  0  0  0  0  0  0  0  0  0  0  0
   -4.9364   -1.0211    1.3167 C   0  0  0  0  0  0  0  0  0  0  0  0
   -1.4148    0.3272    0.8509 C   0  0  0  0  0  0  0  0  0  0  0  0
   -3.3021   -1.5707   -0.4034 C   0  0  0  0  0  0  0  0  0  0  0  0
   -1.0732    1.7115    0.4436 C   0  0  0  0  0  0  0  0  0  0  0  0
   -5.8333   -1.9229    0.7209 C   0  0  0  0  0  0  0  0  0  0  0  0
   -4.2053   -2.4619   -0.9821 C   0  0  0  0  0  0  0  0  0  0  0  0
   -5.4681   -2.6377   -0.4211 C   0  0  0  0  0  0  0  0  0  0  0  0
   -5.2727   -0.2900    2.4619 C   0  0  0  0  0  0  0  0  0  0  0  0
   -4.3317    0.5806    2.9904 C   0  0  0  0  0  0  0  0  0  0  0  0
   -1.7920    2.3364   -0.5755 C   0  0  0  0  0  0  0  0  0  0  0  0
   -0.0323    2.3885    1.0790 C   0  0  0  0  0  0  0  0  0  0  0  0
   -1.4700    3.6383   -0.9591 C   0  0  0  0  0  0  0  0  0  0  0  0
   -0.4290    4.3152   -0.3238 C   0  0  0  0  0  0  0  0  0  0  0  0
    0.2900    3.6903    0.6952 C   0  0  0  0  0  0  0  0  0  0  0  0
   -4.1217   -2.5524   -3.3570 C   0  0  0  0  0  0  0  0  0  0  0  0
   -7.6288   -3.6282   -0.3434 C   0  0  0  0  0  0  0  0  0  0  0  0
   -3.2272    3.4773   -2.5535 C   0  0  0  0  0  0  0  0  0  0  0  0
    0.9712    6.2083    0.0102 C   0  0  0  0  0  0  0  0  0  0  0  0
  1 15  1  0
  1 16  1  0
  2 11  1  0
  2 19  1  0
  3 18  2  0
  4 27  1  0
  4 36  1  0
  5 28  1  0
  5 37  1  0
  6 33  1  0
  6 38  1  0
  7 34  1  0
  7 39  1  0
  8 12  1  0
  8 13  1  0
  8 14  1  0
  9 17  1  0
  9 18  1  0
 10 21  2  0
 10 30  1  0
 11 23  2  0
 12 15  1  0
 13 16  1  0
 14 17  1  0
 18 19  1  0
 20 21  1  0
 20 22  2  0
 20 24  1  0
 21 23  1  0
 22 26  1  0
 22 29  1  0
 23 25  1  0
 24 27  2  0
 25 31  2  0
 25 32  1  0
 26 28  2  0
 27 28  1  0
 29 30  2  0
 31 33  1  0
 32 35  2  0
 33 34  2  0
 34 35  1  0
M  END
>  <PUBCHEM_COMPOUND_CID>  (1) 
40968

>  <PUBCHEM_CONFORMER_RMSD>  (1) 
1.2

>  <PUBCHEM_CONFORMER_DIVERSEORDER>  (1) 
4
22
16
47
7
82
84
96
68
77
58
78
51
63
45
10
39
25
67
44
75
6
8
48
91
35
72
79
3
1
30
12
89
59
13
14
17
18
61
74
60
11
55
46
95
24
83
64
85
81
42
29
41
52
93
21
69
43
88
73
54
66
34
90
56
40
53
38
92
15
70
33
36
97
32
9
19
57
98
87
23
65
28
86
71
50
80
49
62
20
94
76
2
31
26
5
37
27

>  <PUBCHEM_MMFF94_PARTIAL_CHARGES>  (1) 
45
1 -0.56
10 -0.62
11 -0.51
12 0.27
13 0.27
14 0.27
15 0.28
16 0.28
17 0.3
18 0.57
19 0.34
2 -0.22
21 0.4
23 0.28
24 -0.15
25 0.09
26 -0.15
27 0.08
28 0.08
29 -0.15
3 -0.57
30 0.16
31 -0.15
32 -0.15
33 0.08
34 0.08
35 -0.15
36 0.28
37 0.28
38 0.28
39 0.28
4 -0.36
5 -0.36
52 0.37
55 0.15
56 0.15
57 0.15
58 0.15
59 0.15
6 -0.36
60 0.15
61 0.15
7 -0.36
8 -0.81
9 -0.73

>  <PUBCHEM_EFFECTIVE_ROTOR_COUNT>  (1) 
14.2

>  <PUBCHEM_PHARMACOPHORE_FEATURES>  (1) 
14
1 1 acceptor
1 10 acceptor
1 11 acceptor
1 3 acceptor
1 4 acceptor
1 5 acceptor
1 6 acceptor
1 7 acceptor
1 8 cation
1 9 donor
6 1 8 12 13 15 16 rings
6 10 20 21 22 29 30 rings
6 20 22 24 26 27 28 rings
6 25 31 32 33 34 35 rings

>  <PUBCHEM_HEAVY_ATOM_COUNT>  (1) 
39

>  <PUBCHEM_ATOM_DEF_STEREO_COUNT>  (1) 
0

>  <PUBCHEM_ATOM_UDEF_STEREO_COUNT>  (1) 
0

>  <PUBCHEM_BOND_DEF_STEREO_COUNT>  (1) 
0

>  <PUBCHEM_BOND_UDEF_STEREO_COUNT>  (1) 
1

>  <PUBCHEM_ISOTOPIC_ATOM_COUNT>  (1) 
0

>  <PUBCHEM_COMPONENT_COUNT>  (1) 
1

>  <PUBCHEM_CACTVS_TAUTO_COUNT>  (1) 
2

>  <PUBCHEM_CONFORMER_ID>  (1) 
0000A00800000004

>  <PUBCHEM_MMFF94_ENERGY>  (1) 
145.0583

>  <PUBCHEM_FEATURE_SELFOVERLAP>  (1) 
71.09

>  <PUBCHEM_SHAPE_FINGERPRINT>  (1) 
11477941 20 18410569570547803772
12218070 45 17846499261627283246
12717326 25 11815904478887325068
13383668 251 18059280064155756360
13540713 5 17986413276862194451
14068700 675 18333452049721019452
14150023 24 9871480802430741694
14394314 77 18410860923733193051
16989713 51 18343861104826552758
17686467 74 18270959150578524962
4409770 3 18119247260456627933
5080951 261 18265051340809703185
57527295 17 17603852383422421251
5969126 39 18334857199505479878

>  <PUBCHEM_SHAPE_MULTIPOLES>  (1) 
741.59
24.09
6.87
2.23
74.92
12.83
-0.38
-32.29
0.76
-6.4
-3.64
-4.61
-0.03
-1.79

>  <PUBCHEM_SHAPE_SELFOVERLAP>  (1) 
1576.132

>  <PUBCHEM_SHAPE_VOLUME>  (1) 
413.2

>  <PUBCHEM_COORDINATE_TYPE>  (1) 
2
5
10

$$$$
