40974
     RDKit          3D

 28 31  0  0  1  0  0  0  0  0999 V2000
   -8.8485    0.3649    0.7946 Cl  0  0  0  0  0  0  0  0  0  0  0  0
   -2.7925    0.2387   -0.2588 O   0  0  0  0  0  0  0  0  0  0  0  0
    7.8176   -0.1956    1.0372 O   0  0  0  0  0  0  0  0  0  0  0  0
   -4.0811    1.1326    1.4088 O   0  0  0  0  0  0  0  0  0  0  0  0
   -5.6340   -2.1054   -1.4621 O   0  0  0  0  0  0  0  0  0  0  0  0
   -4.9639   -0.4990    0.0141 N   0  0  0  0  0  0  0  0  0  0  0  0
   -4.6773   -1.3916   -1.1422 N   0  0  0  0  0  0  0  0  0  0  0  0
    0.1605   -0.4204    0.0407 C   0  0  0  0  0  0  0  0  0  0  0  0
   -0.4269    0.8150   -0.6760 C   0  0  0  0  0  0  0  0  0  0  0  0
    1.6300   -0.7127   -0.3240 C   0  0  0  0  0  0  0  0  0  0  0  0
    2.5541    0.5217   -0.1935 C   0  0  0  0  0  0  0  0  0  0  0  0
    0.5317    2.0240   -0.5651 C   0  0  0  0  0  0  0  0  0  0  0  0
   -1.7135    1.0806    0.1418 C   0  0  0  0  0  0  0  0  0  0  0  0
   -0.1146   -0.1555    1.5306 C   0  0  0  0  0  0  0  0  0  0  0  0
    1.9680    1.7075   -0.9813 C   0  0  0  0  0  0  0  0  0  0  0  0
    4.0146    0.1894   -0.6376 C   0  0  0  0  0  0  0  0  0  0  0  0
   -1.3449    0.7570    1.5918 C   0  0  0  0  0  0  0  0  0  0  0  0
    2.1903   -1.8874    0.4906 C   0  0  0  0  0  0  0  0  0  0  0  0
   -0.7345    0.5212   -2.1537 C   0  0  0  0  0  0  0  0  0  0  0  0
    3.5873   -2.2620    0.0120 C   0  0  0  0  0  0  0  0  0  0  0  0
    4.5243   -1.0807    0.0300 C   0  0  0  0  0  0  0  0  0  0  0  0
    4.9441    1.3909   -0.3648 C   0  0  0  0  0  0  0  0  0  0  0  0
    6.4152    1.0292   -0.4723 C   0  0  0  0  0  0  0  0  0  0  0  0
    5.7441   -1.2032    0.5771 C   0  0  0  0  0  0  0  0  0  0  0  0
    6.7381   -0.1122    0.4559 C   0  0  0  0  0  0  0  0  0  0  0  0
   -3.9558    0.3540    0.4652 C   0  0  0  0  0  0  0  0  0  0  0  0
   -6.2784   -0.5401    0.6362 C   0  0  0  0  0  0  0  0  0  0  0  0
   -7.2538    0.4390    0.0050 C   0  0  0  0  0  0  0  0  0  0  0  0
  1 28  1  0
  2 13  1  0
  2 26  1  0
  3 25  2  0
  4 26  2  0
  5  7  2  0
  6  7  1  0
  6 26  1  0
  6 27  1  0
  8  9  1  0
  8 10  1  0
  8 14  1  0
  9 12  1  0
  9 13  1  0
  9 19  1  0
 10 11  1  0
 10 18  1  0
 11 15  1  0
 11 16  1  0
 12 15  1  0
 13 17  1  0
 14 17  1  0
 16 21  1  0
 16 22  1  0
 18 20  1  0
 20 21  1  0
 21 24  2  0
 22 23  1  0
 23 25  1  0
 24 25  1  0
 27 28  1  0
M  END
>  <PUBCHEM_COMPOUND_CID>  (1) 
40974

>  <PUBCHEM_CONFORMER_RMSD>  (1) 
1

>  <PUBCHEM_CONFORMER_DIVERSEORDER>  (1) 
1
359
4
348
206
313
283
370
162
249
106
198
377
19
229
369
178
245
80
334
214
207
100
42
315
186
203
304
107
269
46
285
150
93
236
12
345
163
353
139
200
95
253
39
196
90
293
247
240
199
350
352
136
165
244
138
209
232
147
311
354
286
317
233
306
301
51
110
66
174
89
120
202
298
92
60
351
270
35
243
181
116
297
45
230
331
273
250
223
330
341
327
217
276
355
126
282
112
279
228
111
115
248
218
18
75
275
294
374
188
288
32
227
30
314
281
33
167
170
300
235
325
21
324
375
13
309
366
310
338
17
28
76
153
128
268
292
175
280
363
96
340
261
368
226
316
121
210
134
164
15
123
320
357
158
189
326
347
48
337
148
277
154
185
7
224
295
172
79
29
258
43
53
68
84
335
349
118
265
36
238
183
259
129
159
322
190
63
291
57
362
104
239
242
192
114
255
342
23
319
299
40
6
151
119
251
85
64
271
303
213
82
27
41
266
149
278
160
318
113
171
26
86
117
3
55
81
372
22
135
305
61
142
211
215
168
287
193
62
102
358
99
20
328
197
180
133
132
94
263
91
184
125
72
101
9
73
204
187
231
274
130
140
333
69
312
376
367
103
145
83
137
234
56
98
272
52
156
205
11
5
289
182
166
169
8
44
344
146
246
237
336
31
222
97
343
177
373
24
260
157
284
122
67
267
65
144
173
323
37
290
50
364
74
143
262
25
38
54
201
108
361
105
308
221
127
191
131
321
71
257
155
307
256
179
78
264
356
195
109
49
70
152
87
329
208
360
124
47
302
141
88
14
339
254
241
216
34
58
219
194
220
371
16
161
77
225
296
10
252
332
2
212
346
365
59
176

>  <PUBCHEM_MMFF94_PARTIAL_CHARGES>  (1) 
18
1 -0.29
13 0.28
16 0.14
2 -0.43
20 0.14
21 -0.28
23 0.06
24 -0.14
25 0.49
26 0.78
27 0.3
28 0.29
3 -0.57
4 -0.57
5 -0.16
53 0.15
6 -0.18
7 -0.02

>  <PUBCHEM_EFFECTIVE_ROTOR_COUNT>  (1) 
7.8

>  <PUBCHEM_PHARMACOPHORE_FEATURES>  (1) 
6
1 3 acceptor
1 4 acceptor
5 8 9 13 14 17 rings
6 10 11 16 18 20 21 rings
6 16 21 22 23 24 25 rings
6 8 9 10 11 12 15 rings

>  <PUBCHEM_HEAVY_ATOM_COUNT>  (1) 
28

>  <PUBCHEM_ATOM_DEF_STEREO_COUNT>  (1) 
1

>  <PUBCHEM_ATOM_UDEF_STEREO_COUNT>  (1) 
5

>  <PUBCHEM_BOND_DEF_STEREO_COUNT>  (1) 
0

>  <PUBCHEM_BOND_UDEF_STEREO_COUNT>  (1) 
0

>  <PUBCHEM_ISOTOPIC_ATOM_COUNT>  (1) 
0

>  <PUBCHEM_COMPONENT_COUNT>  (1) 
1

>  <PUBCHEM_CACTVS_TAUTO_COUNT>  (1) 
8

>  <PUBCHEM_CONFORMER_ID>  (1) 
0000A00E00000001

>  <PUBCHEM_MMFF94_ENERGY>  (1) 
69.2578

>  <PUBCHEM_FEATURE_SELFOVERLAP>  (1) 
30.652

>  <PUBCHEM_SHAPE_FINGERPRINT>  (1) 
10 15 15697996336140437034
10165383 225 13039184806387201648
10299344 5 18343021099633974199
106641 1 17704351082556877104
11135926 11 18040707070294461435
11796584 16 17989212577210320535
12236239 1 18059858342325002320
12516196 113 18407762521155963629
12596602 18 17775287140854861210
12741549 16 17894624847353200908
13533116 47 18411982438815808874
13685833 64 17894354376007789985
13862211 1 18186801370725359024
14170010 4 18040721376481890429
14251764 18 18131917048975822401
14849402 71 18271526524085062632
14856354 85 17561088029526217973
15119646 104 18407760335033265543
15183329 4 8502657008565955570
15301273 46 14620798193528807099
15419008 47 16009025103348371525
16120349 18 18410853283223710697
17492 89 18046621206191244490
17857418 61 18411419518441718871
19377110 9 18272656722862862466
200 152 18408604751283785464
20028762 73 18413387631846037030
21267235 1 18334577902915977926
21781051 124 14057301795903907785
21792961 116 14273734032390847073
22224240 67 18131348613837759862
23559900 14 17896041116696837313
23569917 315 18412548700453876702
249057 3 18410012152728309981
3009799 131 17240202127416246041
34797466 226 16702306763228097080
4073 2 17895203254571348451
4325135 7 18413952776015406722
4340502 62 16559034879132410542
5104073 3 18118396243031103192
5283156 175 18341615897634354505
58260988 393 17346321445364465120
5969126 39 17822283565849532549
59755656 215 14923937930263002608

>  <PUBCHEM_SHAPE_MULTIPOLES>  (1) 
544.66
20.59
1.8
1.31
19.78
0.28
-0.15
2.95
3.57
-1.32
-0.39
1.09
0
-1.31

>  <PUBCHEM_SHAPE_SELFOVERLAP>  (1) 
1137.611

>  <PUBCHEM_SHAPE_VOLUME>  (1) 
308

>  <PUBCHEM_COORDINATE_TYPE>  (1) 
2
5
10

$$$$
