40970
     RDKit          3D

 45 49  0  0  0  0  0  0  0  0999 V2000
   -0.6321   -2.7339    3.5831 O   0  0  0  0  0  0  0  0  0  0  0  0
    3.3102   -0.9083   -3.8853 O   0  0  0  0  0  0  0  0  0  0  0  0
    0.8153    0.1915   -1.9946 O   0  0  0  0  0  0  0  0  0  0  0  0
   -3.8402   -2.7843   -0.1379 O   0  0  0  0  0  0  0  0  0  0  0  0
   -6.4767   -1.9141   -0.1112 O   0  0  0  0  0  0  0  0  0  0  0  0
    0.4263    2.4499    3.3058 O   0  0  0  0  0  0  0  0  0  0  0  0
    2.5407    3.9664    2.3291 O   0  0  0  0  0  0  0  0  0  0  0  0
    1.3363   -2.4176    1.5517 N   0  0  0  0  0  0  0  0  0  0  0  0
    3.1071   -1.5476   -1.6034 N   0  0  0  0  0  0  0  0  0  0  0  0
   -0.5593    0.4598   -2.0941 N   0  0  0  0  0  0  0  0  0  0  0  0
   -2.6455    3.0210   -1.4538 N   0  0  0  0  0  0  0  0  0  0  0  0
   -0.0971   -2.2739    1.2617 C   0  0  0  0  0  0  0  0  0  0  0  0
    1.6069   -2.0492    2.9482 C   0  0  0  0  0  0  0  0  0  0  0  0
    2.1350   -1.6051    0.6365 C   0  0  0  0  0  0  0  0  0  0  0  0
   -0.9105   -3.1203    2.2367 C   0  0  0  0  0  0  0  0  0  0  0  0
    0.7539   -2.9018    3.8830 C   0  0  0  0  0  0  0  0  0  0  0  0
    2.3152   -2.3266   -0.6910 C   0  0  0  0  0  0  0  0  0  0  0  0
    4.4717   -1.1936   -1.2103 C   0  0  0  0  0  0  0  0  0  0  0  0
    2.6313   -1.1019   -2.8724 C   0  0  0  0  0  0  0  0  0  0  0  0
    1.1483   -0.7889   -2.9544 C   0  0  0  0  0  0  0  0  0  0  0  0
    5.1983   -2.0401   -0.3729 C   0  0  0  0  0  0  0  0  0  0  0  0
    5.0459   -0.0097   -1.6733 C   0  0  0  0  0  0  0  0  0  0  0  0
    6.4989   -1.7028    0.0017 C   0  0  0  0  0  0  0  0  0  0  0  0
    6.3466    0.3275   -1.2990 C   0  0  0  0  0  0  0  0  0  0  0  0
    7.0731   -0.5188   -0.4612 C   0  0  0  0  0  0  0  0  0  0  0  0
   -3.3994    0.7709   -0.9211 C   0  0  0  0  0  0  0  0  0  0  0  0
   -2.4083    1.7145   -1.1984 C   0  0  0  0  0  0  0  0  0  0  0  0
   -0.9548    1.3587   -1.2393 C   0  0  0  0  0  0  0  0  0  0  0  0
   -4.7372    1.2168   -0.9081 C   0  0  0  0  0  0  0  0  0  0  0  0
   -0.0364    2.0433   -0.2974 C   0  0  0  0  0  0  0  0  0  0  0  0
   -3.1106   -0.5789   -0.6603 C   0  0  0  0  0  0  0  0  0  0  0  0
   -5.7617    0.2964   -0.6331 C   0  0  0  0  0  0  0  0  0  0  0  0
   -4.1405   -1.4793   -0.3892 C   0  0  0  0  0  0  0  0  0  0  0  0
   -5.4631   -1.0426   -0.3755 C   0  0  0  0  0  0  0  0  0  0  0  0
   -5.0041    2.5657   -1.1703 C   0  0  0  0  0  0  0  0  0  0  0  0
   -0.2339    1.9266    1.0785 C   0  0  0  0  0  0  0  0  0  0  0  0
    1.0245    2.8049   -0.7875 C   0  0  0  0  0  0  0  0  0  0  0  0
   -3.9376    3.4118   -1.4330 C   0  0  0  0  0  0  0  0  0  0  0  0
    0.6296    2.5713    1.9643 C   0  0  0  0  0  0  0  0  0  0  0  0
    1.8877    3.4499    0.0983 C   0  0  0  0  0  0  0  0  0  0  0  0
    1.6903    3.3329    1.4742 C   0  0  0  0  0  0  0  0  0  0  0  0
   -3.7966   -3.6663   -1.2576 C   0  0  0  0  0  0  0  0  0  0  0  0
   -6.8596   -2.0679    1.2539 C   0  0  0  0  0  0  0  0  0  0  0  0
   -0.6804    1.6534    3.7242 C   0  0  0  0  0  0  0  0  0  0  0  0
    3.6922    3.2402    2.7548 C   0  0  0  0  0  0  0  0  0  0  0  0
  1 15  1  0
  1 16  1  0
  2 19  2  0
  3 10  1  0
  3 20  1  0
  4 33  1  0
  4 42  1  0
  5 34  1  0
  5 43  1  0
  6 39  1  0
  6 44  1  0
  7 41  1  0
  7 45  1  0
  8 12  1  0
  8 13  1  0
  8 14  1  0
  9 17  1  0
  9 18  1  0
  9 19  1  0
 10 28  2  0
 11 27  2  0
 11 38  1  0
 12 15  1  0
 13 16  1  0
 14 17  1  0
 18 21  2  0
 18 22  1  0
 19 20  1  0
 21 23  1  0
 22 24  2  0
 23 25  2  0
 24 25  1  0
 26 27  1  0
 26 29  2  0
 26 31  1  0
 27 28  1  0
 28 30  1  0
 29 32  1  0
 29 35  1  0
 30 36  2  0
 30 37  1  0
 31 33  2  0
 32 34  2  0
 33 34  1  0
 35 38  2  0
 36 39  1  0
 37 40  2  0
 39 41  2  0
 40 41  1  0
M  END
>  <PUBCHEM_COMPOUND_CID>  (1) 
40970

>  <PUBCHEM_CONFORMER_RMSD>  (1) 
1.4

>  <PUBCHEM_CONFORMER_DIVERSEORDER>  (1) 
2
60
7
20
21
53
59
33
16
51
47
11
23
82
34
70
8
39
64
54
62
6
80
68
75
43
44
42
10
15
29
36
5
27
76
32
30
69
61
38
28
73
55
35
79
81
1
71
46
49
48
17
37
57
19
45
40
31
63
18
67
74
78
56
9
77
65
58
14
50
4
24
66
26
41
52
12
25
72
13
3
22

>  <PUBCHEM_MMFF94_PARTIAL_CHARGES>  (1) 
55
1 -0.56
10 -0.51
11 -0.62
12 0.27
13 0.27
14 0.27
15 0.28
16 0.28
17 0.3
18 0.12
19 0.57
2 -0.57
20 0.34
21 -0.15
22 -0.15
23 -0.15
24 -0.15
25 -0.15
27 0.4
28 0.28
3 -0.22
30 0.09
31 -0.15
32 -0.15
33 0.08
34 0.08
35 -0.15
36 -0.15
37 -0.15
38 0.16
39 0.08
4 -0.36
40 -0.15
41 0.08
42 0.28
43 0.28
44 0.28
45 0.28
5 -0.36
6 -0.36
60 0.15
61 0.15
62 0.15
63 0.15
64 0.15
65 0.15
66 0.15
67 0.15
68 0.15
69 0.15
7 -0.36
70 0.15
71 0.15
8 -0.81
9 -0.48

>  <PUBCHEM_EFFECTIVE_ROTOR_COUNT>  (1) 
15.2

>  <PUBCHEM_PHARMACOPHORE_FEATURES>  (1) 
14
1 1 acceptor
1 10 acceptor
1 11 acceptor
1 2 acceptor
1 4 acceptor
1 5 acceptor
1 6 acceptor
1 7 acceptor
1 8 cation
6 1 8 12 13 15 16 rings
6 11 26 27 29 35 38 rings
6 18 21 22 23 24 25 rings
6 26 29 31 32 33 34 rings
6 30 36 37 39 40 41 rings

>  <PUBCHEM_HEAVY_ATOM_COUNT>  (1) 
45

>  <PUBCHEM_ATOM_DEF_STEREO_COUNT>  (1) 
0

>  <PUBCHEM_ATOM_UDEF_STEREO_COUNT>  (1) 
0

>  <PUBCHEM_BOND_DEF_STEREO_COUNT>  (1) 
0

>  <PUBCHEM_BOND_UDEF_STEREO_COUNT>  (1) 
1

>  <PUBCHEM_ISOTOPIC_ATOM_COUNT>  (1) 
0

>  <PUBCHEM_COMPONENT_COUNT>  (1) 
1

>  <PUBCHEM_CACTVS_TAUTO_COUNT>  (1) 
1

>  <PUBCHEM_CONFORMER_ID>  (1) 
0000A00A00000002

>  <PUBCHEM_MMFF94_ENERGY>  (1) 
189.4194

>  <PUBCHEM_FEATURE_SELFOVERLAP>  (1) 
71.092

>  <PUBCHEM_SHAPE_FINGERPRINT>  (1) 
10032420 55 18187075139976976590
12156800 1 17387405955766819320
12758862 65 18270977837543769327
13726171 33 18267027150520303465
14747282 125 18337664316884593547
14932702 115 17824854301660870102
19315092 285 17678444274368526210
19319366 153 17678177092721320587
19611394 137 18202284693584083702
20511986 3 17750228115258520871
20764821 26 17460316792340187259
21792938 131 17676490575534661979
23559900 14 18408879651309755557
437795 51 18270960249778974364
5081480 168 17561071506254592635
5171179 24 18270112564715112710
66674814 147 16950572077178780534
6823239 73 18271793610319009298

>  <PUBCHEM_SHAPE_MULTIPOLES>  (1) 
865.07
13.68
5.22
3.91
0.9
1.68
-2.85
-5.74
6.38
1.53
-3.36
-2.86
-0.52
2.94

>  <PUBCHEM_SHAPE_SELFOVERLAP>  (1) 
1855.66

>  <PUBCHEM_SHAPE_VOLUME>  (1) 
476.9

>  <PUBCHEM_COORDINATE_TYPE>  (1) 
2
5
10

$$$$
