40986
     RDKit          3D

 28 30  0  0  1  0  0  0  0  0999 V2000
   -4.1440   -2.6001   -1.6188 O   0  0  0  0  0  0  0  0  0  0  0  0
    4.2753    0.1090   -1.3102 O   0  0  0  0  0  0  0  0  0  0  0  0
   -2.5278   -1.5461   -0.3862 N   0  0  0  0  0  0  0  0  0  0  0  0
    3.5967   -0.4895    0.8611 N   0  0  0  0  0  0  0  0  0  0  0  0
    6.8879   -0.0206   -0.6996 N   0  0  0  0  0  0  0  0  0  0  0  0
   -4.7201   -0.4703   -0.6726 C   0  0  0  0  0  0  0  0  0  0  0  0
   -5.6224   -0.8228    0.5096 C   0  0  0  0  0  0  0  0  0  0  0  0
   -4.0009    0.8396   -0.4361 C   0  0  0  0  0  0  0  0  0  0  0  0
   -2.0935   -0.4823    0.5232 C   0  0  0  0  0  0  0  0  0  0  0  0
   -2.7221    0.8499    0.1535 C   0  0  0  0  0  0  0  0  0  0  0  0
   -3.7804   -1.6305   -0.9514 C   0  0  0  0  0  0  0  0  0  0  0  0
   -0.5767   -0.4842    0.6134 C   0  0  0  0  0  0  0  0  0  0  0  0
   -6.3149   -2.1628    0.2740 C   0  0  0  0  0  0  0  0  0  0  0  0
   -6.6509    0.2802    0.7456 C   0  0  0  0  0  0  0  0  0  0  0  0
   -4.6319    2.0508   -0.7587 C   0  0  0  0  0  0  0  0  0  0  0  0
   -2.1220    2.0840    0.4486 C   0  0  0  0  0  0  0  0  0  0  0  0
   -4.0075    3.2665   -0.4896 C   0  0  0  0  0  0  0  0  0  0  0  0
   -2.7565    3.2828    0.1187 C   0  0  0  0  0  0  0  0  0  0  0  0
    0.0458   -0.8040    1.8174 C   0  0  0  0  0  0  0  0  0  0  0  0
    0.1847   -0.1661   -0.5087 C   0  0  0  0  0  0  0  0  0  0  0  0
    1.4383   -0.8058    1.9000 C   0  0  0  0  0  0  0  0  0  0  0  0
    1.5771   -0.1678   -0.4260 C   0  0  0  0  0  0  0  0  0  0  0  0
    2.2039   -0.4876    0.7783 C   0  0  0  0  0  0  0  0  0  0  0  0
    8.2640   -0.1178   -0.2313 C   0  0  0  0  0  0  0  0  0  0  0  0
    4.5290   -0.1992   -0.1501 C   0  0  0  0  0  0  0  0  0  0  0  0
    5.9500   -0.3208    0.3726 C   0  0  0  0  0  0  0  0  0  0  0  0
    8.5030    0.8609    0.9151 C   0  0  0  0  0  0  0  0  0  0  0  0
    9.2157    0.1545   -1.3917 C   0  0  0  0  0  0  0  0  0  0  0  0
  1 11  2  0
  2 25  2  0
  3  9  1  0
  3 11  1  0
  4 23  1  0
  4 25  1  0
  5 24  1  0
  5 26  1  0
  6  7  1  0
  6  8  1  0
  6 11  1  0
  7 13  1  0
  7 14  1  0
  8 10  2  0
  8 15  1  0
  9 10  1  0
  9 12  1  0
 10 16  1  0
 12 19  2  0
 12 20  1  0
 15 17  2  0
 16 18  2  0
 17 18  1  0
 19 21  1  0
 20 22  2  0
 21 23  2  0
 22 23  1  0
 24 27  1  0
 24 28  1  0
 25 26  1  0
M  END
>  <PUBCHEM_COMPOUND_CID>  (1) 
40986

>  <PUBCHEM_CONFORMER_RMSD>  (1) 
0.8

>  <PUBCHEM_CONFORMER_DIVERSEORDER>  (1) 
1
38
27
45
10
49
13
67
44
32
60
4
25
71
46
53
28
47
3
79
52
75
40
21
39
26
74
30
62
41
5
51
24
78
68
66
23
29
54
9
77
16
64
7
73
59
58
6
42
12
70
72
19
48
8
76
34
15
69
20
18
31
35
14
36
11
57
65
50
61
55
43
56
2
22
17
33
37
63

>  <PUBCHEM_MMFF94_PARTIAL_CHARGES>  (1) 
34
1 -0.57
10 -0.14
11 0.57
12 -0.14
15 -0.15
16 -0.15
17 -0.15
18 -0.15
19 -0.15
2 -0.57
20 -0.15
21 -0.15
22 -0.15
23 0.12
24 0.27
25 0.57
26 0.33
3 -0.73
32 0.37
39 0.15
4 -0.55
40 0.15
41 0.15
42 0.15
43 0.15
44 0.15
45 0.15
46 0.15
47 0.37
5 -0.9
51 0.36
6 0.2
8 -0.14
9 0.59

>  <PUBCHEM_EFFECTIVE_ROTOR_COUNT>  (1) 
7.6

>  <PUBCHEM_PHARMACOPHORE_FEATURES>  (1) 
11
1 1 acceptor
1 2 acceptor
1 3 donor
1 4 donor
1 5 cation
1 5 donor
3 24 27 28 hydrophobe
3 7 13 14 hydrophobe
6 12 19 20 21 22 23 rings
6 3 6 8 9 10 11 rings
6 8 10 15 16 17 18 rings

>  <PUBCHEM_HEAVY_ATOM_COUNT>  (1) 
28

>  <PUBCHEM_ATOM_DEF_STEREO_COUNT>  (1) 
0

>  <PUBCHEM_ATOM_UDEF_STEREO_COUNT>  (1) 
2

>  <PUBCHEM_BOND_DEF_STEREO_COUNT>  (1) 
0

>  <PUBCHEM_BOND_UDEF_STEREO_COUNT>  (1) 
0

>  <PUBCHEM_ISOTOPIC_ATOM_COUNT>  (1) 
0

>  <PUBCHEM_COMPONENT_COUNT>  (1) 
1

>  <PUBCHEM_CACTVS_TAUTO_COUNT>  (1) 
4

>  <PUBCHEM_CONFORMER_ID>  (1) 
0000A01A00000001

>  <PUBCHEM_MMFF94_ENERGY>  (1) 
77.8849

>  <PUBCHEM_FEATURE_SELFOVERLAP>  (1) 
55.842

>  <PUBCHEM_SHAPE_FINGERPRINT>  (1) 
10087517 78 18259982644051342324
10165383 225 17846783975900209363
10411042 1 18194962083941114927
10595046 47 18261670385746564938
10669705 176 18338517444171743340
10670039 82 18334570231007440100
10730089 173 18409448068349796841
10906281 52 18122337979690980613
11315181 36 17385447634756742441
11524674 6 15913326914049353519
11756154 67 18268988860349591647
11991303 11 17060050502381703508
12082328 90 18408886226756615350
12107698 1 18409449219142744909
12166972 35 17530969119843332869
12236239 1 17968091984604502618
12553582 1 18266160882019591219
12788726 201 18334568032833420243
13631057 29 18114180861278618211
13690498 29 18201148953395722559
13726171 33 18196375819238847465
14118638 360 18335137558044297578
14251764 18 17458345243558241450
14856354 85 18339079397319095863
15183329 4 18341890771526172154
15419008 47 17989483026890373488
15461852 350 18410300216274471742
15716309 27 13254799036646686290
1577012 14 17967530126174148264
17686467 74 18269549619130492576
18681886 176 18335415807268161632
19427546 20 18260543399619113205
21150785 3 17967816067880092194
21267235 1 18409731802911815507
21756936 100 18040440962314402217
21792961 116 17417815003085878766
2297311 6 18343019999916403843
23081809 10 18040991814057120106
23559900 14 17846489340225799538
2838139 119 18113622296386715564
335352 9 18410284806364570773
34797466 226 18059861683915287660
4098825 35 18341615867781047446
4169191 19 17095815403888726620
445580 204 18187365407195002864
445580 37 18409732842267624764
5265222 85 18201996668529402286
5758199 1 17530685394841315858
59755656 520 17022903479602917147
6691757 9 17240774990776601666

>  <PUBCHEM_SHAPE_MULTIPOLES>  (1) 
549.55
22.95
2.46
1.32
56.83
1.89
0.14
0.31
-4.45
-6.1
-0.36
0.69
-0.42
-0.46

>  <PUBCHEM_SHAPE_SELFOVERLAP>  (1) 
1164.305

>  <PUBCHEM_SHAPE_VOLUME>  (1) 
305.5

>  <PUBCHEM_COORDINATE_TYPE>  (1) 
2
5
10

$$$$
