40981
     RDKit          3D

 10 10  0  0  1  0  0  0  0  0999 V2000
    0.5667   -1.3518   -0.5414 O   0  0  0  0  0  0  0  0  0  0  0  0
    2.0346    0.4514   -0.0604 O   0  0  0  0  0  0  0  0  0  0  0  0
   -0.3656    1.2791   -1.3578 O   0  0  0  0  0  0  0  0  0  0  0  0
   -0.5917   -0.7034    0.0220 C   0  0  0  0  0  0  0  0  0  0  0  0
   -0.3681    0.8415    0.0117 C   0  0  0  0  0  0  0  0  0  0  0  0
    1.0099    1.2018    0.5912 C   0  0  0  0  0  0  0  0  0  0  0  0
   -1.7618   -1.1292   -0.8831 C   0  0  0  0  0  0  0  0  0  0  0  0
   -0.8553   -1.2744    1.4279 C   0  0  0  0  0  0  0  0  0  0  0  0
   -1.4637    1.6307    0.7362 C   0  0  0  0  0  0  0  0  0  0  0  0
    1.7949   -0.9456    0.0538 C   0  0  0  0  0  0  0  0  0  0  0  0
  1  4  1  0
  1 10  1  0
  2  6  1  0
  2 10  1  0
  3  5  1  0
  4  5  1  0
  4  7  1  0
  4  8  1  0
  5  6  1  0
  5  9  1  0
M  END
>  <PUBCHEM_COMPOUND_CID>  (1) 
40981

>  <PUBCHEM_CONFORMER_RMSD>  (1) 
0.4

>  <PUBCHEM_CONFORMER_DIVERSEORDER>  (1) 
2
3
1
4

>  <PUBCHEM_MMFF94_PARTIAL_CHARGES>  (1) 
8
1 -0.56
10 0.56
2 -0.56
24 0.4
3 -0.68
4 0.28
5 0.28
6 0.28

>  <PUBCHEM_EFFECTIVE_ROTOR_COUNT>  (1) 
1.2

>  <PUBCHEM_PHARMACOPHORE_FEATURES>  (1) 
6
1 1 acceptor
1 2 acceptor
1 3 acceptor
1 3 donor
3 4 7 8 hydrophobe
6 1 2 4 5 6 10 rings

>  <PUBCHEM_HEAVY_ATOM_COUNT>  (1) 
10

>  <PUBCHEM_ATOM_DEF_STEREO_COUNT>  (1) 
0

>  <PUBCHEM_ATOM_UDEF_STEREO_COUNT>  (1) 
1

>  <PUBCHEM_BOND_DEF_STEREO_COUNT>  (1) 
0

>  <PUBCHEM_BOND_UDEF_STEREO_COUNT>  (1) 
0

>  <PUBCHEM_ISOTOPIC_ATOM_COUNT>  (1) 
0

>  <PUBCHEM_COMPONENT_COUNT>  (1) 
1

>  <PUBCHEM_CACTVS_TAUTO_COUNT>  (1) 
1

>  <PUBCHEM_CONFORMER_ID>  (1) 
0000A01500000002

>  <PUBCHEM_MMFF94_ENERGY>  (1) 
33.6554

>  <PUBCHEM_FEATURE_SELFOVERLAP>  (1) 
30.487

>  <PUBCHEM_SHAPE_FINGERPRINT>  (1) 
12423570 1 13091438206673959288
13024252 1 17242188850512430634
137420 1 14522453633843512520
16945 1 18271804588434726643
18185500 45 17624414577162486574
21040471 1 18055918680045339792
241688 4 18263631896856713841
29004967 10 17975130151781070803
5084963 1 18189039907157859788
68250623 7 18271526373359481143

>  <PUBCHEM_SHAPE_MULTIPOLES>  (1) 
188.19
2.11
1.87
1.16
0.6
0.29
0.07
-0.23
-0.05
-0.4
0.12
-0.41
-0.08
-0.06

>  <PUBCHEM_SHAPE_SELFOVERLAP>  (1) 
371.996

>  <PUBCHEM_SHAPE_VOLUME>  (1) 
111.8

>  <PUBCHEM_COORDINATE_TYPE>  (1) 
2
5
10

$$$$
