40988
     RDKit          3D

 29 32  0  0  1  0  0  0  0  0999 V2000
   -5.0829   -2.3565   -1.6970 O   0  0  0  0  0  0  0  0  0  0  0  0
    8.0946    1.7157   -0.3061 O   0  0  0  0  0  0  0  0  0  0  0  0
    3.4914   -0.4530   -1.2908 O   0  0  0  0  0  0  0  0  0  0  0  0
   -3.4124   -1.5788   -0.3674 N   0  0  0  0  0  0  0  0  0  0  0  0
    6.0832   -0.2975   -0.3589 N   0  0  0  0  0  0  0  0  0  0  0  0
    2.7960   -1.2195    0.8216 N   0  0  0  0  0  0  0  0  0  0  0  0
   -5.5297   -0.2961   -0.4809 C   0  0  0  0  0  0  0  0  0  0  0  0
   -2.8743   -0.6645    0.6356 C   0  0  0  0  0  0  0  0  0  0  0  0
   -4.6782    0.9289   -0.1266 C   0  0  0  0  0  0  0  0  0  0  0  0
   -3.3878    0.7491    0.4233 C   0  0  0  0  0  0  0  0  0  0  0  0
   -4.6676   -1.4919   -0.9226 C   0  0  0  0  0  0  0  0  0  0  0  0
   -6.5385   -0.0154   -1.6190 C   0  0  0  0  0  0  0  0  0  0  0  0
   -6.3222   -0.7295    0.7683 C   0  0  0  0  0  0  0  0  0  0  0  0
   -1.3615   -0.8131    0.6851 C   0  0  0  0  0  0  0  0  0  0  0  0
   -5.1732    2.2393   -0.2643 C   0  0  0  0  0  0  0  0  0  0  0  0
   -2.6528    1.8735    0.8426 C   0  0  0  0  0  0  0  0  0  0  0  0
   -4.4159    3.3445    0.1246 C   0  0  0  0  0  0  0  0  0  0  0  0
   -3.1579    3.1617    0.6812 C   0  0  0  0  0  0  0  0  0  0  0  0
   -0.7526   -1.3158    1.8315 C   0  0  0  0  0  0  0  0  0  0  0  0
   -0.5937   -0.4447   -0.4163 C   0  0  0  0  0  0  0  0  0  0  0  0
    5.7647    1.0988   -0.0297 C   0  0  0  0  0  0  0  0  0  0  0  0
    7.4668   -0.6036    0.0306 C   0  0  0  0  0  0  0  0  0  0  0  0
    5.1466   -1.2108    0.2926 C   0  0  0  0  0  0  0  0  0  0  0  0
    6.7619    2.0315   -0.7109 C   0  0  0  0  0  0  0  0  0  0  0  0
    8.4242    0.3697   -0.6511 C   0  0  0  0  0  0  0  0  0  0  0  0
    1.4083   -1.0838    0.7758 C   0  0  0  0  0  0  0  0  0  0  0  0
    0.6349   -1.4513    1.8771 C   0  0  0  0  0  0  0  0  0  0  0  0
    0.7939   -0.5803   -0.3710 C   0  0  0  0  0  0  0  0  0  0  0  0
    3.7346   -0.9064   -0.1771 C   0  0  0  0  0  0  0  0  0  0  0  0
  1 11  2  0
  2 24  1  0
  2 25  1  0
  3 29  2  0
  4  8  1  0
  4 11  1  0
  5 21  1  0
  5 22  1  0
  5 23  1  0
  6 26  1  0
  6 29  1  0
  7  9  1  0
  7 11  1  0
  7 12  1  0
  7 13  1  0
  8 10  1  0
  8 14  1  0
  9 10  2  0
  9 15  1  0
 10 16  1  0
 14 19  2  0
 14 20  1  0
 15 17  2  0
 16 18  2  0
 17 18  1  0
 19 27  1  0
 20 28  2  0
 21 24  1  0
 22 25  1  0
 23 29  1  0
 26 27  2  0
 26 28  1  0
M  END
>  <PUBCHEM_COMPOUND_CID>  (1) 
40988

>  <PUBCHEM_CONFORMER_RMSD>  (1) 
0.8

>  <PUBCHEM_CONFORMER_DIVERSEORDER>  (1) 
1
25
24
37
39
11
5
23
31
30
38
32
15
3
29
4
34
17
22
16
36
28
21
13
20
6
27
14
9
35
26
19
8
33
18
7
2
12
10

>  <PUBCHEM_MMFF94_PARTIAL_CHARGES>  (1) 
37
1 -0.57
10 -0.14
11 0.57
14 -0.14
15 -0.15
16 -0.15
17 -0.15
18 -0.15
19 -0.15
2 -0.56
20 -0.15
21 0.27
22 0.27
23 0.33
24 0.28
25 0.28
26 0.12
27 -0.15
28 -0.15
29 0.57
3 -0.57
31 0.37
38 0.15
39 0.15
4 -0.73
40 0.15
41 0.15
42 0.15
43 0.15
5 -0.81
54 0.15
55 0.15
56 0.37
6 -0.55
7 0.2
8 0.59
9 -0.14

>  <PUBCHEM_EFFECTIVE_ROTOR_COUNT>  (1) 
6.8

>  <PUBCHEM_PHARMACOPHORE_FEATURES>  (1) 
11
1 1 acceptor
1 2 acceptor
1 3 acceptor
1 4 donor
1 5 cation
1 6 donor
3 7 12 13 hydrophobe
6 14 19 20 26 27 28 rings
6 2 5 21 22 24 25 rings
6 4 7 8 9 10 11 rings
6 9 10 15 16 17 18 rings

>  <PUBCHEM_HEAVY_ATOM_COUNT>  (1) 
29

>  <PUBCHEM_ATOM_DEF_STEREO_COUNT>  (1) 
0

>  <PUBCHEM_ATOM_UDEF_STEREO_COUNT>  (1) 
1

>  <PUBCHEM_BOND_DEF_STEREO_COUNT>  (1) 
0

>  <PUBCHEM_BOND_UDEF_STEREO_COUNT>  (1) 
0

>  <PUBCHEM_ISOTOPIC_ATOM_COUNT>  (1) 
0

>  <PUBCHEM_COMPONENT_COUNT>  (1) 
1

>  <PUBCHEM_CACTVS_TAUTO_COUNT>  (1) 
4

>  <PUBCHEM_CONFORMER_ID>  (1) 
0000A01C00000001

>  <PUBCHEM_MMFF94_ENERGY>  (1) 
92.0877

>  <PUBCHEM_FEATURE_SELFOVERLAP>  (1) 
55.842

>  <PUBCHEM_SHAPE_FINGERPRINT>  (1) 
10 15 14057007135414261150
10076449 9 17418091040771227119
10087517 78 18334857194978910964
10454371 7 18342742892594931156
10595046 47 18410853244141847650
10669705 176 18342741776388211598
10670039 82 18409162190952740073
11101153 10 18409168852320668853
11315181 36 18186523206999680567
11477941 20 18130215034524520269
11524674 6 13118003313913422584
11991303 11 16845003619794934742
12082328 90 18343018887103578366
12107698 1 18343300391997353708
12236239 1 18187643549055669387
12821665 9 18411138069171553869
12895837 130 18338241470785128737
13627175 4 13254810002020311172
13631057 29 17676493891281251635
13673619 4 17131547358084800715
13690498 29 17988634263937705615
13726171 33 18198349447079681121
13911987 19 16271927077955139181
13914758 101 18410295783910718858
14394314 77 18187368666907259229
14856354 85 18272647995864513255
14930077 153 18271241741476287372
15183329 4 18343301462002905560
15289351 153 18334853901983537800
15348495 7 11891347464631592118
15352257 5 9511465516036955644
15461852 350 18343588456181494326
1577012 14 18261393291440947072
15876981 60 18411139164741870421
16120349 21 9439410133590498936
16989713 51 17345461751630709759
17913733 40 15574715764035011456
20511986 3 17968651602243823725
21033648 144 17458340823367637019
21150785 3 17918275363835061350
21315763 191 9079112263532669618
21424621 283 18113902632933089146
21756936 100 18187371995869897379
21792961 116 17132117905924825166
23198884 109 18409731746486741234
23559900 14 18060125532282775881
2748736 6 17967535692615482372
2838139 119 18335424573570797080
34797466 226 18060427910601591414
397830 11 11891918132825906278
4073 2 18040442118299421586
4098825 35 18272091552838993486
4169191 19 17531820168319884844
445580 204 18334859402908209296
445580 37 18413109446417934292
4516262 110 17969216751383699557
5104073 3 17240768376548285962
5265222 85 17774154738209816158
543368 44 18187081746137843795
563151 97 18334572391655792259
636775 72 18334859455086873696
999808 66 12175617412690154189

>  <PUBCHEM_SHAPE_MULTIPOLES>  (1) 
564.26
22.79
2.71
1.31
41.43
2.34
0.08
7.1
-7.43
-2.92
0.24
-1.1
-0.56
-1.81

>  <PUBCHEM_SHAPE_SELFOVERLAP>  (1) 
1214.893

>  <PUBCHEM_SHAPE_VOLUME>  (1) 
307.9

>  <PUBCHEM_COORDINATE_TYPE>  (1) 
2
5
10

$$$$
