40992
     RDKit          3D

 23 25  0  0  0  0  0  0  0  0999 V2000
   -0.5808   -1.6198    0.8137 O   0  0  0  0  0  0  0  0  0  0  0  0
   -0.2736   -2.0333   -1.4353 O   0  0  0  0  0  0  0  0  0  0  0  0
   -3.6399    0.3398    0.0790 N   0  0  0  0  0  0  0  0  0  0  0  0
    2.3939   -0.8595    0.0701 C   0  0  0  0  0  0  0  0  0  0  0  0
    3.2189    1.0048   -1.4363 C   0  0  0  0  0  0  0  0  0  0  0  0
    4.6726    0.1831    0.4511 C   0  0  0  0  0  0  0  0  0  0  0  0
    2.5888    1.5092    0.9511 C   0  0  0  0  0  0  0  0  0  0  0  0
    2.4046   -0.2993   -1.3720 C   0  0  0  0  0  0  0  0  0  0  0  0
    3.8543   -1.1185    0.5103 C   0  0  0  0  0  0  0  0  0  0  0  0
    1.7762    0.2039    1.0088 C   0  0  0  0  0  0  0  0  0  0  0  0
    4.6626    0.7224   -0.9890 C   0  0  0  0  0  0  0  0  0  0  0  0
    2.5891    2.0418   -0.4914 C   0  0  0  0  0  0  0  0  0  0  0  0
    4.0358    1.2243    1.3865 C   0  0  0  0  0  0  0  0  0  0  0  0
    1.5829   -2.1566    0.1302 C   0  0  0  0  0  0  0  0  0  0  0  0
    0.1538   -1.9393   -0.2930 C   0  0  0  0  0  0  0  0  0  0  0  0
   -1.9724   -1.3794    0.5812 C   0  0  0  0  0  0  0  0  0  0  0  0
   -2.1904    0.0907    0.2818 C   0  0  0  0  0  0  0  0  0  0  0  0
   -4.4411   -0.0650    1.3237 C   0  0  0  0  0  0  0  0  0  0  0  0
   -3.9038    1.8264   -0.1963 C   0  0  0  0  0  0  0  0  0  0  0  0
   -4.1697   -0.4680   -1.1136 C   0  0  0  0  0  0  0  0  0  0  0  0
   -3.9382    0.7183    2.5166 C   0  0  0  0  0  0  0  0  0  0  0  0
   -3.1863    2.2332   -1.4648 C   0  0  0  0  0  0  0  0  0  0  0  0
   -5.6374   -0.1591   -1.3121 C   0  0  0  0  0  0  0  0  0  0  0  0
  1 15  1  0
  1 16  1  0
  2 15  2  0
  3 17  1  0
  3 18  1  0
  3 19  1  0
  3 20  1  0
  4  8  1  0
  4  9  1  0
  4 10  1  0
  4 14  1  0
  5  8  1  0
  5 11  1  0
  5 12  1  0
  6  9  1  0
  6 11  1  0
  6 13  1  0
  7 10  1  0
  7 12  1  0
  7 13  1  0
 14 15  1  0
 16 17  1  0
 18 21  1  0
 19 22  1  0
 20 23  1  0
M  CHG  1   3   1
M  END
>  <PUBCHEM_COMPOUND_CID>  (1) 
40992

>  <PUBCHEM_CONFORMER_RMSD>  (1) 
1

>  <PUBCHEM_CONFORMER_DIVERSEORDER>  (1) 
1
3
27
17
20
21
22
7
38
11
34
24
13
41
23
35
46
12
42
5
43
32
15
33
16
28
9
8
4
36
6
14
31
29
44
39
40
37
2
30
18
19
45
25
26
10

>  <PUBCHEM_MMFF94_PARTIAL_CHARGES>  (1) 
10
1 -0.43
14 0.06
15 0.66
16 0.28
17 0.5
18 0.5
19 0.5
2 -0.57
20 0.5
3 -1.01

>  <PUBCHEM_EFFECTIVE_ROTOR_COUNT>  (1) 
10.2

>  <PUBCHEM_PHARMACOPHORE_FEATURES>  (1) 
6
1 2 acceptor
1 3 cation
6 4 5 6 8 9 11 rings
6 4 5 7 8 10 12 rings
6 4 6 7 9 10 13 rings
6 5 6 7 11 12 13 rings

>  <PUBCHEM_HEAVY_ATOM_COUNT>  (1) 
23

>  <PUBCHEM_ATOM_DEF_STEREO_COUNT>  (1) 
0

>  <PUBCHEM_ATOM_UDEF_STEREO_COUNT>  (1) 
0

>  <PUBCHEM_BOND_DEF_STEREO_COUNT>  (1) 
0

>  <PUBCHEM_BOND_UDEF_STEREO_COUNT>  (1) 
0

>  <PUBCHEM_ISOTOPIC_ATOM_COUNT>  (1) 
0

>  <PUBCHEM_COMPONENT_COUNT>  (1) 
1

>  <PUBCHEM_CACTVS_TAUTO_COUNT>  (1) 
1

>  <PUBCHEM_CONFORMER_ID>  (1) 
0000A02000000001

>  <PUBCHEM_MMFF94_ENERGY>  (1) 
74.6136

>  <PUBCHEM_FEATURE_SELFOVERLAP>  (1) 
42.962

>  <PUBCHEM_SHAPE_FINGERPRINT>  (1) 
10064457 181 15430323580891907800
10498660 4 18335139851319099461
10646746 165 18272369819279727606
10670039 82 18114756949157268324
11545043 162 16732994089218698611
11552529 35 16154283860488792051
11595378 159 16588030121300261005
12422481 6 18044912646714990586
12523318 42 15502670346640902121
12596599 1 17632300060167402829
12633257 1 16153700990609192565
12670546 177 17632008741046385863
12892183 10 15792017817341194315
13224815 77 18272651229805457689
13402501 40 18187638060240712421
13583140 156 16732699471889715459
14251764 38 18041836216964237829
15188451 53 14996573961901192123
1601671 61 18260833709295877580
17349148 13 17632861910466667890
1813 80 10447931706432379387
18186145 218 18060142037224922209
19862831 5 16630535020121233283
21033648 29 17822004307376340325
21503847 285 17095242532017350102
21524375 3 18412825802219462799
21864079 5 17969226814070126692
22749437 52 18335420153706688029
23402539 116 16702305633313737618
235170 7 15195573398427615241
23559900 14 16153994530223222147
341906 21 16877947118303429031
351380 180 18261103071963497701
46194498 28 14332827336291254243
469060 322 18117291456994031835
474 4 18260545628089961215
4921388 177 15985100842967074839
508706 21 17604426272219617565
6328613 192 18334860563288136876
633830 44 17346326976781025785
7808743 9 18117290365787053484
8509985 295 18187354433516359104
9981440 41 17677042452908984619

>  <PUBCHEM_SHAPE_MULTIPOLES>  (1) 
456.61
11.62
2.22
1.74
6.84
0.04
0.4
-3.64
-0.21
-0.17
-0.41
1.19
-0.38
0.16

>  <PUBCHEM_SHAPE_SELFOVERLAP>  (1) 
942.152

>  <PUBCHEM_SHAPE_VOLUME>  (1) 
257.6

>  <PUBCHEM_COORDINATE_TYPE>  (1) 
2
5
10

$$$$
