41005
     RDKit          3D

 26 26  0  0  1  0  0  0  0  0999 V2000
    0.0683    0.6906    2.7032 Cl  0  0  0  0  0  0  0  0  0  0  0  0
    1.3896   -1.4746   -0.7668 O   0  0  0  0  0  0  0  0  0  0  0  0
    0.2523   -3.3817   -0.1599 O   0  0  0  0  0  0  0  0  0  0  0  0
   -4.1724   -1.0867    1.2109 O   0  0  0  0  0  0  0  0  0  0  0  0
   -2.1816    1.6304   -2.1935 O   0  0  0  0  0  0  0  0  0  0  0  0
   -4.3106    1.0788   -0.5102 O   0  0  0  0  0  0  0  0  0  0  0  0
    3.8351   -0.1661   -0.1241 N   0  0  0  0  0  0  0  0  0  0  0  0
    4.3111    0.5703    1.0411 C   0  0  0  0  0  0  0  0  0  0  0  0
    3.1425    0.9178    1.9633 C   0  0  0  0  0  0  0  0  0  0  0  0
    2.1118    1.7928    1.2395 C   0  0  0  0  0  0  0  0  0  0  0  0
    3.5650   -1.5623    0.2237 C   0  0  0  0  0  0  0  0  0  0  0  0
    4.8108   -0.0940   -1.2131 C   0  0  0  0  0  0  0  0  0  0  0  0
    0.9039    2.1586    2.1123 C   0  0  0  0  0  0  0  0  0  0  0  0
    2.6164   -2.1925   -0.7835 C   0  0  0  0  0  0  0  0  0  0  0  0
    5.0571    1.3446   -1.6352 C   0  0  0  0  0  0  0  0  0  0  0  0
   -0.0931    3.0137    1.3390 C   0  0  0  0  0  0  0  0  0  0  0  0
    0.2806   -2.1928   -0.4374 C   0  0  0  0  0  0  0  0  0  0  0  0
   -0.9292   -1.3322   -0.4576 C   0  0  0  0  0  0  0  0  0  0  0  0
   -0.9949   -0.2418   -1.3247 C   0  0  0  0  0  0  0  0  0  0  0  0
   -1.9991   -1.6126    0.3925 C   0  0  0  0  0  0  0  0  0  0  0  0
   -3.1344   -0.8025    0.3753 C   0  0  0  0  0  0  0  0  0  0  0  0
   -2.1302    0.5684   -1.3419 C   0  0  0  0  0  0  0  0  0  0  0  0
   -3.2000    0.2880   -0.4918 C   0  0  0  0  0  0  0  0  0  0  0  0
   -4.0251   -2.2190    2.0654 C   0  0  0  0  0  0  0  0  0  0  0  0
   -1.0459    1.8470   -3.0288 C   0  0  0  0  0  0  0  0  0  0  0  0
   -4.1280    2.4577   -0.1978 C   0  0  0  0  0  0  0  0  0  0  0  0
  1 13  1  0
  2 14  1  0
  2 17  1  0
  3 17  2  0
  4 21  1  0
  4 24  1  0
  5 22  1  0
  5 25  1  0
  6 23  1  0
  6 26  1  0
  7  8  1  0
  7 11  1  0
  7 12  1  0
  8  9  1  0
  9 10  1  0
 10 13  1  0
 11 14  1  0
 12 15  1  0
 13 16  1  0
 17 18  1  0
 18 19  2  0
 18 20  1  0
 19 22  1  0
 20 21  2  0
 21 23  1  0
 22 23  2  0
M  END
>  <PUBCHEM_COMPOUND_CID>  (1) 
41005

>  <PUBCHEM_CONFORMER_RMSD>  (1) 
1.2

>  <PUBCHEM_CONFORMER_DIVERSEORDER>  (1) 
12
39
37
27
32
8
2
64
14
35
19
66
24
13
28
65
21
3
62
61
6
31
15
58
67
18
70
22
26
5
44
51
23
59
9
40
34
29
25
38
52
68
46
47
1
63
4
7
54
42
17
20
43
69
45
30
57
41
10
55
36
33
49
56
71
48
60
16
50
11
53

>  <PUBCHEM_MMFF94_PARTIAL_CHARGES>  (1) 
24
1 -0.29
11 0.27
12 0.27
13 0.29
14 0.28
17 0.63
18 0.09
19 -0.15
2 -0.43
20 -0.15
21 0.08
22 0.08
23 0.08
24 0.28
25 0.28
26 0.28
3 -0.57
4 -0.36
46 0.15
47 0.15
5 -0.36
6 -0.36
7 -0.81
8 0.27

>  <PUBCHEM_EFFECTIVE_ROTOR_COUNT>  (1) 
13

>  <PUBCHEM_PHARMACOPHORE_FEATURES>  (1) 
6
1 3 acceptor
1 4 acceptor
1 5 acceptor
1 6 acceptor
1 7 cation
6 18 19 20 21 22 23 rings

>  <PUBCHEM_HEAVY_ATOM_COUNT>  (1) 
26

>  <PUBCHEM_ATOM_DEF_STEREO_COUNT>  (1) 
0

>  <PUBCHEM_ATOM_UDEF_STEREO_COUNT>  (1) 
1

>  <PUBCHEM_BOND_DEF_STEREO_COUNT>  (1) 
0

>  <PUBCHEM_BOND_UDEF_STEREO_COUNT>  (1) 
0

>  <PUBCHEM_ISOTOPIC_ATOM_COUNT>  (1) 
0

>  <PUBCHEM_COMPONENT_COUNT>  (1) 
1

>  <PUBCHEM_CACTVS_TAUTO_COUNT>  (1) 
1

>  <PUBCHEM_CONFORMER_ID>  (1) 
0000A02D0000000C

>  <PUBCHEM_MMFF94_ENERGY>  (1) 
83.1904

>  <PUBCHEM_FEATURE_SELFOVERLAP>  (1) 
30.457

>  <PUBCHEM_SHAPE_FINGERPRINT>  (1) 
10165383 225 18409730634095025430
10366900 7 18337379492323008391
104564 63 17631742551974274232
1100329 8 16975336094066031232
11578080 2 18193014646483096785
11595378 159 16371004057738369356
12553582 1 17918279753386512432
12596602 18 16226329325845322478
12788726 201 17846224315554477680
13726171 33 18259709995248710276
14251757 17 18341604889380240344
14341114 328 16877943845422343844
14363568 33 18052832621331441832
14957384 54 16517907560437504804
15081414 286 17703231836245797760
15210252 30 18411700998289104812
17357779 13 17489594463489201608
18219364 16 18199169832259594482
19930381 70 17697290148154571337
21033648 29 18413105078246290466
23559900 14 17969786267815407950
238 59 17410160301300560244
3524813 1 18410288125050269078
508706 21 18269260417201881879
6287921 2 17758111892586828948
7808743 9 18189620617513363030

>  <PUBCHEM_SHAPE_MULTIPOLES>  (1) 
502.61
9.13
3.29
2.58
3.83
0.21
0.24
-0.61
0.67
-0.67
-0.64
-0.37
-1.52
2.18

>  <PUBCHEM_SHAPE_SELFOVERLAP>  (1) 
997.026

>  <PUBCHEM_SHAPE_VOLUME>  (1) 
301.9

>  <PUBCHEM_COORDINATE_TYPE>  (1) 
2
5
10

$$$$
