41003
     RDKit          3D

 24 24  0  0  1  0  0  0  0  0999 V2000
    3.4502    3.6530    1.4330 Cl  0  0  0  0  0  0  0  0  0  0  0  0
    1.1424   -1.6107   -0.0729 O   0  0  0  0  0  0  0  0  0  0  0  0
   -1.6816    2.3807   -0.5613 O   0  0  0  0  0  0  0  0  0  0  0  0
   -4.7069   -1.1817    0.4852 O   0  0  0  0  0  0  0  0  0  0  0  0
   -4.2730    1.4451   -0.2792 O   0  0  0  0  0  0  0  0  0  0  0  0
    0.0379   -2.8809    1.4973 O   0  0  0  0  0  0  0  0  0  0  0  0
    3.6949   -0.4763   -0.5395 N   0  0  0  0  0  0  0  0  0  0  0  0
    4.1523   -0.3437    0.8432 C   0  0  0  0  0  0  0  0  0  0  0  0
    3.3909   -1.8738   -0.8455 C   0  0  0  0  0  0  0  0  0  0  0  0
    4.7033    0.0414   -1.4633 C   0  0  0  0  0  0  0  0  0  0  0  0
    4.4101    1.1244    1.1790 C   0  0  0  0  0  0  0  0  0  0  0  0
    2.3113   -2.4043    0.0843 C   0  0  0  0  0  0  0  0  0  0  0  0
    4.2446   -0.0884   -2.9059 C   0  0  0  0  0  0  0  0  0  0  0  0
    3.1390    1.9501    1.0235 C   0  0  0  0  0  0  0  0  0  0  0  0
   -1.0769   -1.0584    0.4388 C   0  0  0  0  0  0  0  0  0  0  0  0
    0.0746   -1.9593    0.6969 C   0  0  0  0  0  0  0  0  0  0  0  0
   -2.3571   -1.5516    0.5873 C   0  0  0  0  0  0  0  0  0  0  0  0
   -0.8310    0.2449    0.0576 C   0  0  0  0  0  0  0  0  0  0  0  0
   -1.9125    1.0916   -0.1856 C   0  0  0  0  0  0  0  0  0  0  0  0
   -3.4385   -0.7049    0.3438 C   0  0  0  0  0  0  0  0  0  0  0  0
   -3.2162    0.6168   -0.0427 C   0  0  0  0  0  0  0  0  0  0  0  0
   -1.5674    3.3485    0.4800 C   0  0  0  0  0  0  0  0  0  0  0  0
   -5.3122   -1.7648   -0.6670 C   0  0  0  0  0  0  0  0  0  0  0  0
   -4.3782    2.0023   -1.5873 C   0  0  0  0  0  0  0  0  0  0  0  0
  1 14  1  0
  2 12  1  0
  2 16  1  0
  3 19  1  0
  3 22  1  0
  4 20  1  0
  4 23  1  0
  5 21  1  0
  5 24  1  0
  6 16  2  0
  7  8  1  0
  7  9  1  0
  7 10  1  0
  8 11  1  0
  9 12  1  0
 10 13  1  0
 11 14  1  0
 15 16  1  0
 15 17  2  0
 15 18  1  0
 17 20  1  0
 18 19  2  0
 19 21  1  0
 20 21  2  0
M  END
>  <PUBCHEM_COMPOUND_CID>  (1) 
41003

>  <PUBCHEM_CONFORMER_RMSD>  (1) 
1

>  <PUBCHEM_CONFORMER_DIVERSEORDER>  (1) 
3
44
122
29
63
9
77
39
55
62
57
75
5
21
34
83
4
120
23
89
49
121
7
6
16
72
67
115
30
43
27
88
101
42
38
46
90
108
35
11
85
119
10
117
84
14
64
31
12
109
96
76
81
19
70
69
113
26
98
86
110
50
93
1
15
40
97
100
82
48
105
22
118
66
56
99
59
74
102
95
61
65
87
47
32
80
78
111
94
114
45
25
52
17
104
51
112
37
73
33
79
91
53
60
68
36
2
54
116
8
41
13
58
20
92
24
107
28
106
18
103
71

>  <PUBCHEM_MMFF94_PARTIAL_CHARGES>  (1) 
24
1 -0.29
10 0.27
12 0.28
14 0.29
15 0.09
16 0.63
17 -0.15
18 -0.15
19 0.08
2 -0.43
20 0.08
21 0.08
22 0.28
23 0.28
24 0.28
3 -0.36
4 -0.36
40 0.15
41 0.15
5 -0.36
6 -0.57
7 -0.81
8 0.27
9 0.27

>  <PUBCHEM_EFFECTIVE_ROTOR_COUNT>  (1) 
12

>  <PUBCHEM_PHARMACOPHORE_FEATURES>  (1) 
6
1 3 acceptor
1 4 acceptor
1 5 acceptor
1 6 acceptor
1 7 cation
6 15 17 18 19 20 21 rings

>  <PUBCHEM_HEAVY_ATOM_COUNT>  (1) 
24

>  <PUBCHEM_ATOM_DEF_STEREO_COUNT>  (1) 
0

>  <PUBCHEM_ATOM_UDEF_STEREO_COUNT>  (1) 
0

>  <PUBCHEM_BOND_DEF_STEREO_COUNT>  (1) 
0

>  <PUBCHEM_BOND_UDEF_STEREO_COUNT>  (1) 
0

>  <PUBCHEM_ISOTOPIC_ATOM_COUNT>  (1) 
0

>  <PUBCHEM_COMPONENT_COUNT>  (1) 
1

>  <PUBCHEM_CACTVS_TAUTO_COUNT>  (1) 
1

>  <PUBCHEM_CONFORMER_ID>  (1) 
0000A02B00000003

>  <PUBCHEM_MMFF94_ENERGY>  (1) 
86.0791

>  <PUBCHEM_FEATURE_SELFOVERLAP>  (1) 
30.457

>  <PUBCHEM_SHAPE_FINGERPRINT>  (1) 
10366900 7 18337122236614372594
10498660 4 18335699403731817521
10670039 82 18115042835339588094
12596602 18 15647627773112877274
13402501 40 18341608282905804432
14251757 17 18201155460476625120
14790565 3 17835804093587358617
19930381 70 18341325699226222680
221357 26 18272099270863322518
23227448 37 18200024178648836070
235170 7 17632302224461636062
23557571 272 18338249201456996015
23559900 14 18122333580362750315
341906 21 18040433287271147302
34797466 226 17775287200868540399
46194498 28 17774734146836111732
474 4 17604723148627271678
5104073 3 18261674757944158067
532947 4 18124875909212666281
7808743 9 17969236684332266758
9981440 41 17895199882727025074

>  <PUBCHEM_SHAPE_MULTIPOLES>  (1) 
461.45
11.37
3.78
1.63
1.29
2.5
1.08
1.01
3.12
-0.62
-1.23
-2.09
0.11
2.42

>  <PUBCHEM_SHAPE_SELFOVERLAP>  (1) 
919.593

>  <PUBCHEM_SHAPE_VOLUME>  (1) 
277.2

>  <PUBCHEM_COORDINATE_TYPE>  (1) 
2
5
10

$$$$
