41012
     RDKit          3D

 11 11  0  0  0  0  0  0  0  0999 V2000
    0.8252    0.4618    0.2727 C   0  0  0  0  0  0  0  0  0  0  0  0
    0.4996   -0.8874    0.1335 C   0  0  0  0  0  0  0  0  0  0  0  0
   -0.8270   -1.2673   -0.0709 C   0  0  0  0  0  0  0  0  0  0  0  0
    2.2378    0.8937    0.4937 C   0  0  0  0  0  0  0  0  0  0  0  0
   -0.1759    1.4311    0.2074 C   0  0  0  0  0  0  0  0  0  0  0  0
   -1.5024    1.0510    0.0029 C   0  0  0  0  0  0  0  0  0  0  0  0
   -1.8279   -0.2981   -0.1363 C   0  0  0  0  0  0  0  0  0  0  0  0
    1.5728   -1.9271    0.2041 C   0  0  0  0  0  0  0  0  0  0  0  0
   -1.2015   -2.7055   -0.2230 C   0  0  0  0  0  0  0  0  0  0  0  0
    2.9726    1.1609   -0.8164 C   0  0  0  0  0  0  0  0  0  0  0  0
   -2.5733    2.0869   -0.0678 C   0  0  0  0  0  0  0  0  0  0  0  0
  1  2  2  0
  1  4  1  0
  1  5  1  0
  2  3  1  0
  2  8  1  0
  3  7  2  0
  3  9  1  0
  4 10  1  0
  5  6  2  0
  6  7  1  0
  6 11  1  0
M  END
>  <PUBCHEM_COMPOUND_CID>  (1) 
41012

>  <PUBCHEM_CONFORMER_RMSD>  (1) 
0.4

>  <PUBCHEM_CONFORMER_DIVERSEORDER>  (1) 
2
3
1

>  <PUBCHEM_MMFF94_PARTIAL_CHARGES>  (1) 
12
1 -0.14
11 0.14
14 0.15
15 0.15
2 -0.14
3 -0.14
4 0.14
5 -0.15
6 -0.14
7 -0.15
8 0.14
9 0.14

>  <PUBCHEM_EFFECTIVE_ROTOR_COUNT>  (1) 
1

>  <PUBCHEM_PHARMACOPHORE_FEATURES>  (1) 
2
1 10 hydrophobe
6 1 2 3 5 6 7 rings

>  <PUBCHEM_HEAVY_ATOM_COUNT>  (1) 
11

>  <PUBCHEM_ATOM_DEF_STEREO_COUNT>  (1) 
0

>  <PUBCHEM_ATOM_UDEF_STEREO_COUNT>  (1) 
0

>  <PUBCHEM_BOND_DEF_STEREO_COUNT>  (1) 
0

>  <PUBCHEM_BOND_UDEF_STEREO_COUNT>  (1) 
0

>  <PUBCHEM_ISOTOPIC_ATOM_COUNT>  (1) 
0

>  <PUBCHEM_COMPONENT_COUNT>  (1) 
1

>  <PUBCHEM_CACTVS_TAUTO_COUNT>  (1) 
1

>  <PUBCHEM_CONFORMER_ID>  (1) 
0000A03400000002

>  <PUBCHEM_MMFF94_ENERGY>  (1) 
28.3319

>  <PUBCHEM_FEATURE_SELFOVERLAP>  (1) 
10.148

>  <PUBCHEM_SHAPE_FINGERPRINT>  (1) 
1 1 18050562946074256149
10353120 184 17976822313161431142
11206711 2 18194678391637062477
12423570 1 11152285581093420856
12716758 59 18342181093824159276
13380535 21 18339093613274937241
13380535 76 18339913836075009594
13380536 305 18051419469721441589
14614273 12 18189037836920488844
15219459 52 18194116322283941678
16945 1 18339354292088604897
193761 8 18411133619438034491
20511035 2 18269542849972045802
21040471 1 18411974745817218600
21501502 16 18410570656615301651
22802520 49 18129115557403441598
2334 1 18411415077482412529
23419403 2 15387430454986094674
23552423 10 18335136449647141074
23559900 14 18273220786278709300
2748010 2 18338235951482419765
5084963 1 17842262675799917377
5255222 1 18341611567996246169
528862 383 18117837703054156384
81228 2 18194960979216115441

>  <PUBCHEM_SHAPE_MULTIPOLES>  (1) 
226.37
3.49
2.74
0.72
1.2
1.29
0.04
-1.87
0.48
-1.03
0.13
0.23
-0.08
-0.27

>  <PUBCHEM_SHAPE_SELFOVERLAP>  (1) 
461.607

>  <PUBCHEM_SHAPE_VOLUME>  (1) 
129.9

>  <PUBCHEM_COORDINATE_TYPE>  (1) 
2
5
10

$$$$
