41010
     RDKit          3D

 27 27  0  0  1  0  0  0  0  0999 V2000
   -3.0067   -3.8721    0.7922 Cl  0  0  0  0  0  0  0  0  0  0  0  0
    1.8643    1.8534    0.0280 O   0  0  0  0  0  0  0  0  0  0  0  0
    1.1708    2.3338   -2.1139 O   0  0  0  0  0  0  0  0  0  0  0  0
   -3.4030   -0.0625   -1.8648 O   0  0  0  0  0  0  0  0  0  0  0  0
   -2.3529    1.4152    2.5681 O   0  0  0  0  0  0  0  0  0  0  0  0
   -4.1330    0.2621    0.7871 O   0  0  0  0  0  0  0  0  0  0  0  0
    4.0144   -0.0036    0.2167 N   0  0  0  0  0  0  0  0  0  0  0  0
    3.0352   -1.8976   -1.0429 C   0  0  0  0  0  0  0  0  0  0  0  0
    4.2831   -1.3022   -0.3887 C   0  0  0  0  0  0  0  0  0  0  0  0
    1.8780   -2.0980   -0.0592 C   0  0  0  0  0  0  0  0  0  0  0  0
    0.6785   -2.7605   -0.7425 C   0  0  0  0  0  0  0  0  0  0  0  0
    3.9528    1.0404   -0.8081 C   0  0  0  0  0  0  0  0  0  0  0  0
    5.0367    0.3229    1.2125 C   0  0  0  0  0  0  0  0  0  0  0  0
   -0.4884   -2.9351    0.2340 C   0  0  0  0  0  0  0  0  0  0  0  0
    3.1901    2.2516   -0.2952 C   0  0  0  0  0  0  0  0  0  0  0  0
    5.0729   -0.7141    2.3224 C   0  0  0  0  0  0  0  0  0  0  0  0
   -1.6818   -3.6634   -0.3761 C   0  0  0  0  0  0  0  0  0  0  0  0
    0.9505    1.9449   -0.9774 C   0  0  0  0  0  0  0  0  0  0  0  0
   -0.3889    1.5031   -0.5132 C   0  0  0  0  0  0  0  0  0  0  0  0
   -0.7528    1.6669    0.8233 C   0  0  0  0  0  0  0  0  0  0  0  0
   -1.2824    0.9219   -1.4129 C   0  0  0  0  0  0  0  0  0  0  0  0
   -2.5397    0.5043   -0.9762 C   0  0  0  0  0  0  0  0  0  0  0  0
   -2.0101    1.2496    1.2601 C   0  0  0  0  0  0  0  0  0  0  0  0
   -2.9034    0.6682    0.3604 C   0  0  0  0  0  0  0  0  0  0  0  0
   -2.9533   -0.1931   -3.2118 C   0  0  0  0  0  0  0  0  0  0  0  0
   -2.0412    0.3469    3.4601 C   0  0  0  0  0  0  0  0  0  0  0  0
   -5.1896    1.2168    0.7180 C   0  0  0  0  0  0  0  0  0  0  0  0
  1 17  1  0
  2 15  1  0
  2 18  1  0
  3 18  2  0
  4 22  1  0
  4 25  1  0
  5 23  1  0
  5 26  1  0
  6 24  1  0
  6 27  1  0
  7  9  1  0
  7 12  1  0
  7 13  1  0
  8  9  1  0
  8 10  1  0
 10 11  1  0
 11 14  1  0
 12 15  1  0
 13 16  1  0
 14 17  1  0
 18 19  1  0
 19 20  2  0
 19 21  1  0
 20 23  1  0
 21 22  2  0
 22 24  1  0
 23 24  2  0
M  END
>  <PUBCHEM_COMPOUND_CID>  (1) 
41010

>  <PUBCHEM_CONFORMER_RMSD>  (1) 
1.2

>  <PUBCHEM_CONFORMER_DIVERSEORDER>  (1) 
1
44
21
2
8
75
66
53
31
20
39
67
30
50
57
3
78
37
76
60
33
68
19
71
77
10
55
41
24
13
4
47
12
51
61
34
40
49
62
11
52
69
6
56
58
59
74
73
9
79
65
29
26
63
35
7
38
36
32
70
27
22
54
45
28
17
72
43
80
46
42
5
23
48
15
25
18
14
16
64

>  <PUBCHEM_MMFF94_PARTIAL_CHARGES>  (1) 
24
1 -0.29
12 0.27
13 0.27
15 0.28
17 0.29
18 0.63
19 0.09
2 -0.43
20 -0.15
21 -0.15
22 0.08
23 0.08
24 0.08
25 0.28
26 0.28
27 0.28
3 -0.57
4 -0.36
49 0.15
5 -0.36
50 0.15
6 -0.36
7 -0.81
9 0.27

>  <PUBCHEM_EFFECTIVE_ROTOR_COUNT>  (1) 
15

>  <PUBCHEM_PHARMACOPHORE_FEATURES>  (1) 
7
1 3 acceptor
1 4 acceptor
1 5 acceptor
1 6 acceptor
1 7 cation
4 8 10 11 14 hydrophobe
6 19 20 21 22 23 24 rings

>  <PUBCHEM_HEAVY_ATOM_COUNT>  (1) 
27

>  <PUBCHEM_ATOM_DEF_STEREO_COUNT>  (1) 
0

>  <PUBCHEM_ATOM_UDEF_STEREO_COUNT>  (1) 
0

>  <PUBCHEM_BOND_DEF_STEREO_COUNT>  (1) 
0

>  <PUBCHEM_BOND_UDEF_STEREO_COUNT>  (1) 
0

>  <PUBCHEM_ISOTOPIC_ATOM_COUNT>  (1) 
0

>  <PUBCHEM_COMPONENT_COUNT>  (1) 
1

>  <PUBCHEM_CACTVS_TAUTO_COUNT>  (1) 
1

>  <PUBCHEM_CONFORMER_ID>  (1) 
0000A03200000001

>  <PUBCHEM_MMFF94_ENERGY>  (1) 
79.5096

>  <PUBCHEM_FEATURE_SELFOVERLAP>  (1) 
35.531

>  <PUBCHEM_SHAPE_FINGERPRINT>  (1) 
12422481 6 18119558615478886099
12467345 10 17632015226162081561
12539773 59 17559112069286228779
12553582 1 18410856547398947172
12633257 1 18409163316666259406
12788726 201 17693114254194061366
13140716 1 18337667633131095322
14341114 328 17346308298480185992
19734167 9 18201996630201374562
19930381 70 17976267833210760075
20511986 3 17702083804177449093
3052486 1 18263089954422079646
338550 245 18190474941973944167
4340502 62 18341630221830366897
469060 322 17603591871564338575
6287921 2 17702103565058195214
7064713 232 18343019978188308040

>  <PUBCHEM_SHAPE_MULTIPOLES>  (1) 
523.19
9.39
3.89
2.58
6.17
4.36
-0.79
-0.45
-2.78
-1.24
0.26
-1.8
-0.74
-0.69

>  <PUBCHEM_SHAPE_SELFOVERLAP>  (1) 
1030.338

>  <PUBCHEM_SHAPE_VOLUME>  (1) 
316.4

>  <PUBCHEM_COORDINATE_TYPE>  (1) 
2
5
10

$$$$
