41014
     RDKit          3D

 18 18  0  0  0  0  0  0  0  0999 V2000
   -6.3276    0.9833    0.1008 O   0  0  0  0  0  0  0  0  0  0  0  0
    4.5796   -0.1669   -0.3828 O   0  0  0  0  0  0  0  0  0  0  0  0
    3.4660    0.6396    1.4569 O   0  0  0  0  0  0  0  0  0  0  0  0
   -3.3076   -1.0985   -0.0728 N   0  0  0  0  0  0  0  0  0  0  0  0
   -2.0536    0.9291   -0.0197 N   0  0  0  0  0  0  0  0  0  0  0  0
   -0.8621    1.5835   -0.0655 N   0  0  0  0  0  0  0  0  0  0  0  0
    1.5140    1.5509   -0.2575 N   0  0  0  0  0  0  0  0  0  0  0  0
    2.6262    0.8895   -0.6890 N   0  0  0  0  0  0  0  0  0  0  0  0
   -4.5138   -0.4527   -0.5452 C   0  0  0  0  0  0  0  0  0  0  0  0
   -2.0689   -0.4171   -0.1189 C   0  0  0  0  0  0  0  0  0  0  0  0
   -5.1642    0.3251    0.5861 C   0  0  0  0  0  0  0  0  0  0  0  0
   -3.3822   -2.4420    0.4601 C   0  0  0  0  0  0  0  0  0  0  0  0
   -0.9226   -1.1718   -0.2663 C   0  0  0  0  0  0  0  0  0  0  0  0
    0.2896   -0.5059   -0.3131 C   0  0  0  0  0  0  0  0  0  0  0  0
    0.2873    0.8774   -0.2096 C   0  0  0  0  0  0  0  0  0  0  0  0
    5.6183   -0.6604    0.4705 C   0  0  0  0  0  0  0  0  0  0  0  0
    3.5471    0.4721    0.2439 C   0  0  0  0  0  0  0  0  0  0  0  0
    6.6747   -1.3353   -0.3782 C   0  0  0  0  0  0  0  0  0  0  0  0
  1 11  1  0
  2 16  1  0
  2 17  1  0
  3 17  2  0
  4  9  1  0
  4 10  1  0
  4 12  1  0
  5  6  2  0
  5 10  1  0
  6 15  1  0
  7  8  1  0
  7 15  1  0
  8 17  1  0
  9 11  1  0
 10 13  2  0
 13 14  1  0
 14 15  2  0
 16 18  1  0
M  END
>  <PUBCHEM_COMPOUND_CID>  (1) 
41014

>  <PUBCHEM_CONFORMER_RMSD>  (1) 
0.8

>  <PUBCHEM_CONFORMER_DIVERSEORDER>  (1) 
1
53
132
123
38
63
83
145
125
9
141
31
37
74
88
106
75
57
15
89
140
43
82
124
91
60
144
102
46
93
26
77
92
101
61
98
115
59
45
119
71
51
143
116
58
130
20
128
22
49
122
114
113
127
52
81
95
6
35
111
105
137
19
73
10
133
86
25
118
100
23
108
76
120
87
50
131
12
72
78
62
44
42
68
129
107
136
24
103
65
112
41
126
67
79
134
96
70
7
28
11
30
109
135
121
47
90
27
104
80
39
14
54
21
69
48
84
16
94
29
142
4
17
36
85
97
18
110
117
13
55
66
139
99
3
34
40
8
64
5
2
33
56
138
32

>  <PUBCHEM_MMFF94_PARTIAL_CHARGES>  (1) 
22
1 -0.68
10 0.41
11 0.28
12 0.37
13 -0.15
14 -0.15
15 0.41
16 0.28
17 0.78
2 -0.43
26 0.15
27 0.15
28 0.4
29 0.4
3 -0.57
30 0.37
4 -0.84
5 -0.31
6 -0.31
7 -0.52
8 -0.41
9 0.37

>  <PUBCHEM_EFFECTIVE_ROTOR_COUNT>  (1) 
8

>  <PUBCHEM_PHARMACOPHORE_FEATURES>  (1) 
8
1 1 acceptor
1 1 donor
1 3 acceptor
1 7 donor
1 8 donor
3 4 5 10 cation
3 6 7 15 cation
6 5 6 10 13 14 15 rings

>  <PUBCHEM_HEAVY_ATOM_COUNT>  (1) 
18

>  <PUBCHEM_ATOM_DEF_STEREO_COUNT>  (1) 
0

>  <PUBCHEM_ATOM_UDEF_STEREO_COUNT>  (1) 
0

>  <PUBCHEM_BOND_DEF_STEREO_COUNT>  (1) 
0

>  <PUBCHEM_BOND_UDEF_STEREO_COUNT>  (1) 
0

>  <PUBCHEM_ISOTOPIC_ATOM_COUNT>  (1) 
0

>  <PUBCHEM_COMPONENT_COUNT>  (1) 
1

>  <PUBCHEM_CACTVS_TAUTO_COUNT>  (1) 
5

>  <PUBCHEM_CONFORMER_ID>  (1) 
0000A03600000001

>  <PUBCHEM_MMFF94_ENERGY>  (1) 
54.8993

>  <PUBCHEM_FEATURE_SELFOVERLAP>  (1) 
42.176

>  <PUBCHEM_SHAPE_FINGERPRINT>  (1) 
10062212 137 18336823216749102759
11089746 13 17275382101632679441
11401426 45 17917992798026289453
12119455 92 16845574231674722389
12236239 1 17967255316406458108
12555020 224 18335973259890752231
12916748 109 9655580724774965912
13288520 33 18409730651607216724
13533116 47 13038920902169282916
13675066 3 18200311151183321699
13862211 1 18341330071824397343
14123256 10 9655573007193397761
14251718 22 10809344442509217499
14251731 8 18186796980762419543
14251752 14 17604141541420053076
14251758 9 18411982464021006259
14251764 18 18411421752014499901
15196674 1 18337673138725326358
15531645 54 18413388730760746955
15537594 2 17458338641576719354
17834072 33 12685096998691975494
17834072 8 18260259755156124679
18186145 218 17313936553895723549
19141452 34 18202279238363772286
19489759 90 17346600764251508521
20374829 77 18407758153432608566
21150785 3 11891341958478256705
21267235 1 18334582338520026627
23016692 55 18409738344326349182
23035841 295 18186801370356379970
23218964 4 18407759227110979693
23402539 116 17917424341750806037
23559900 14 18338231678206614896
26918003 58 17989208152787122866
3004659 81 18186522107925824902
335352 9 18409449189573488997
34797466 226 12973894680548392978
351380 3 17821443565020278754
42 15 18342175587760371438
4463277 17 18335140908092245708
5104073 3 18268434701333661441
5207 217 9943518617985730141
559249 180 18335416820621837487
59755656 215 18338798909931213702

>  <PUBCHEM_SHAPE_MULTIPOLES>  (1) 
327.92
14.61
1.71
0.8
8.78
0.52
-0.13
3.4
-1
-0.8
-0.07
0.33
-0.01
0.22

>  <PUBCHEM_SHAPE_SELFOVERLAP>  (1) 
653.952

>  <PUBCHEM_SHAPE_VOLUME>  (1) 
193.7

>  <PUBCHEM_COORDINATE_TYPE>  (1) 
2
5
10

$$$$
