41021
     RDKit          3D

 29 31  0  0  1  0  0  0  0  0999 V2000
   -0.1773   -0.6796   -1.0533 O   0  0  0  0  0  0  0  0  0  0  0  0
   -4.0134    4.5969    0.6601 O   0  0  0  0  0  0  0  0  0  0  0  0
    0.2460   -0.0408    1.1242 O   0  0  0  0  0  0  0  0  0  0  0  0
    2.4574    1.2663    0.3435 O   0  0  0  0  0  0  0  0  0  0  0  0
   -3.2789    1.9708   -0.1560 N   0  0  0  0  0  0  0  0  0  0  0  0
   -1.3645   -1.3624   -0.6224 C   0  0  0  0  0  0  0  0  0  0  0  0
   -2.3040   -0.2912    0.0017 C   0  0  0  0  0  0  0  0  0  0  0  0
   -2.3745    1.0185   -0.7969 C   0  0  0  0  0  0  0  0  0  0  0  0
   -2.6187    2.6371    0.9753 C   0  0  0  0  0  0  0  0  0  0  0  0
   -3.7534    2.9713   -1.1222 C   0  0  0  0  0  0  0  0  0  0  0  0
   -1.0217   -2.4575    0.3914 C   0  0  0  0  0  0  0  0  0  0  0  0
   -2.0410   -1.9472   -1.8914 C   0  0  0  0  0  0  0  0  0  0  0  0
   -3.5776    3.6337    1.6201 C   0  0  0  0  0  0  0  0  0  0  0  0
   -4.6848    3.9610   -0.4282 C   0  0  0  0  0  0  0  0  0  0  0  0
    0.2187   -3.0934    0.3383 C   0  0  0  0  0  0  0  0  0  0  0  0
   -1.9495   -2.8189    1.3683 C   0  0  0  0  0  0  0  0  0  0  0  0
    0.5308   -0.0613   -0.0656 C   0  0  0  0  0  0  0  0  0  0  0  0
   -1.1886   -2.9217   -2.5984 C   0  0  0  0  0  0  0  0  0  0  0  0
    0.5312   -4.0909    1.2619 C   0  0  0  0  0  0  0  0  0  0  0  0
   -1.6369   -3.8164    2.2919 C   0  0  0  0  0  0  0  0  0  0  0  0
   -0.3965   -4.4523    2.2387 C   0  0  0  0  0  0  0  0  0  0  0  0
    1.7363    0.6037   -0.6760 C   0  0  0  0  0  0  0  0  0  0  0  0
   -0.4981   -3.7162   -3.1758 C   0  0  0  0  0  0  0  0  0  0  0  0
    3.8149    1.3901    0.1706 C   0  0  0  0  0  0  0  0  0  0  0  0
    4.3495    1.4771   -1.1150 C   0  0  0  0  0  0  0  0  0  0  0  0
    4.6587    1.4282    1.2808 C   0  0  0  0  0  0  0  0  0  0  0  0
    5.7277    1.6019   -1.2903 C   0  0  0  0  0  0  0  0  0  0  0  0
    6.0369    1.5531    1.1053 C   0  0  0  0  0  0  0  0  0  0  0  0
    6.5713    1.6400   -0.1803 C   0  0  0  0  0  0  0  0  0  0  0  0
  1  6  1  0
  1 17  1  0
  2 13  1  0
  2 14  1  0
  3 17  2  0
  4 22  1  0
  4 24  1  0
  5  8  1  0
  5  9  1  0
  5 10  1  0
  6  7  1  0
  6 11  1  0
  6 12  1  0
  7  8  1  0
  9 13  1  0
 10 14  1  0
 11 15  2  0
 11 16  1  0
 12 18  1  0
 15 19  1  0
 16 20  2  0
 17 22  1  0
 18 23  3  0
 19 21  2  0
 20 21  1  0
 24 25  2  0
 24 26  1  0
 25 27  1  0
 26 28  2  0
 27 29  2  0
 28 29  1  0
M  END
>  <PUBCHEM_COMPOUND_CID>  (1) 
41021

>  <PUBCHEM_CONFORMER_RMSD>  (1) 
1

>  <PUBCHEM_CONFORMER_DIVERSEORDER>  (1) 
1
126
75
79
108
202
36
132
110
41
39
170
44
77
175
206
92
186
72
156
130
105
60
121
152
56
163
17
140
109
86
47
103
119
215
30
185
122
115
151
150
35
168
58
80
34
55
68
209
153
15
100
93
154
98
37
166
3
89
21
162
207
28
42
71
160
5
164
145
111
49
165
141
199
62
117
201
33
128
159
194
173
95
38
216
11
144
91
53
61
180
177
23
197
155
26
81
203
214
27
198
138
74
176
84
211
59
51
101
67
123
181
64
52
114
167
78
43
182
187
179
127
88
131
143
147
195
129
45
196
25
102
16
124
76
188
70
107
125
48
97
90
169
6
142
32
9
66
4
148
133
205
106
210
94
13
171
29
200
136
85
208
135
40
96
50
57
193
118
146
99
24
189
112
149
178
19
190
20
137
192
18
174
172
65
183
83
120
158
2
69
161
157
54
134
191
73
8
14
63
204
7
116
184
213
113
22
10
31
139
212
46
12
87
104
82

>  <PUBCHEM_MMFF94_PARTIAL_CHARGES>  (1) 
39
1 -0.43
10 0.27
11 -0.14
12 0.2
13 0.28
14 0.28
15 -0.15
16 -0.15
17 0.66
18 -0.2
19 -0.15
2 -0.56
20 -0.15
21 -0.15
22 0.34
23 -0.18
24 0.08
25 -0.15
26 -0.15
27 -0.15
28 -0.15
29 -0.15
3 -0.57
4 -0.36
44 0.15
45 0.15
46 0.15
47 0.15
48 0.15
5 -0.81
51 0.18
52 0.15
53 0.15
54 0.15
55 0.15
56 0.15
6 0.42
8 0.27
9 0.27

>  <PUBCHEM_EFFECTIVE_ROTOR_COUNT>  (1) 
11.2

>  <PUBCHEM_PHARMACOPHORE_FEATURES>  (1) 
8
1 2 acceptor
1 23 hydrophobe
1 3 acceptor
1 4 acceptor
1 5 cation
6 11 15 16 19 20 21 rings
6 2 5 9 10 13 14 rings
6 24 25 26 27 28 29 rings

>  <PUBCHEM_HEAVY_ATOM_COUNT>  (1) 
29

>  <PUBCHEM_ATOM_DEF_STEREO_COUNT>  (1) 
0

>  <PUBCHEM_ATOM_UDEF_STEREO_COUNT>  (1) 
1

>  <PUBCHEM_BOND_DEF_STEREO_COUNT>  (1) 
0

>  <PUBCHEM_BOND_UDEF_STEREO_COUNT>  (1) 
0

>  <PUBCHEM_ISOTOPIC_ATOM_COUNT>  (1) 
0

>  <PUBCHEM_COMPONENT_COUNT>  (1) 
1

>  <PUBCHEM_CACTVS_TAUTO_COUNT>  (1) 
1

>  <PUBCHEM_CONFORMER_ID>  (1) 
0000A03D00000001

>  <PUBCHEM_MMFF94_ENERGY>  (1) 
82.4798

>  <PUBCHEM_FEATURE_SELFOVERLAP>  (1) 
40.604

>  <PUBCHEM_SHAPE_FINGERPRINT>  (1) 
107951 10 18336274474056840998
11036077 51 18334007328530605562
11443803 9 18129642150448152711
12107183 9 18114731648074555104
12160290 23 18265876124637976421
12293681 160 18049128315745195047
12788726 201 18266162006451605851
15361156 5 18125163994592503636
15463212 79 18337379474616287681
15878777 1 13018476569566064271
17980427 26 18046614621452206439
21033650 10 18341887554569202720
21120745 212 17683831051656441148
283562 15 18336261327916120259
376196 1 18198067975616468557
394222 165 18124308299277550067
4058900 60 18121512262325119840
497634 4 17314789826975632342
531348 171 18201438108406636566
7288768 16 18410014295342426077
79837 15 18333737930859428592
9841814 1 17328874192991295873
9981440 41 18202003209326107654

>  <PUBCHEM_SHAPE_MULTIPOLES>  (1) 
568.35
10.65
7.18
2.37
23.78
0.9
0.96
-15.82
-0.22
-11.12
-2.35
-1.12
3.13
-0.48

>  <PUBCHEM_SHAPE_SELFOVERLAP>  (1) 
1195.473

>  <PUBCHEM_SHAPE_VOLUME>  (1) 
315.8

>  <PUBCHEM_COORDINATE_TYPE>  (1) 
2
5
10

$$$$
