41024
     RDKit          3D

 24 26  0  0  1  0  0  0  0  0999 V2000
   -2.4989    2.2210    0.5635 O   0  0  0  0  0  0  0  0  0  0  0  0
    1.9053   -1.7741    0.0179 N   0  0  0  0  0  0  0  0  0  0  0  0
   -1.2459    0.1986    0.4466 N   0  0  0  0  0  0  0  0  0  0  0  0
   -2.3759   -1.8633    0.7008 N   0  0  0  0  0  0  0  0  0  0  0  0
    2.8751   -0.7069    0.3017 C   0  0  0  0  0  0  0  0  0  0  0  0
    2.3727   -2.6401   -1.0737 C   0  0  0  0  0  0  0  0  0  0  0  0
    4.2362   -1.2870    0.6900 C   0  0  0  0  0  0  0  0  0  0  0  0
    3.7173   -3.2831   -0.7306 C   0  0  0  0  0  0  0  0  0  0  0  0
    0.5976   -1.2042   -0.3055 C   0  0  0  0  0  0  0  0  0  0  0  0
    4.7639   -2.2300   -0.3851 C   0  0  0  0  0  0  0  0  0  0  0  0
    0.0170   -0.3802    0.8507 C   0  0  0  0  0  0  0  0  0  0  0  0
   -0.1750   -1.1913    2.1300 C   0  0  0  0  0  0  0  0  0  0  0  0
   -2.3502   -0.6908    0.0882 C   0  0  0  0  0  0  0  0  0  0  0  0
   -1.4474    1.6070    0.3868 C   0  0  0  0  0  0  0  0  0  0  0  0
   -0.2777    2.4467    0.0646 C   0  0  0  0  0  0  0  0  0  0  0  0
   -3.2143   -0.1938   -0.8337 C   0  0  0  0  0  0  0  0  0  0  0  0
   -0.0030    2.7441   -1.2593 C   0  0  0  0  0  0  0  0  0  0  0  0
    0.5194    2.9193    1.0930 C   0  0  0  0  0  0  0  0  0  0  0  0
   -4.2687   -1.0314   -1.1806 C   0  0  0  0  0  0  0  0  0  0  0  0
   -3.4141   -2.6498    0.3385 C   0  0  0  0  0  0  0  0  0  0  0  0
   -4.3777   -2.2846   -0.5878 C   0  0  0  0  0  0  0  0  0  0  0  0
    1.1027    3.5380   -1.5640 C   0  0  0  0  0  0  0  0  0  0  0  0
    1.6250    3.7133    0.7883 C   0  0  0  0  0  0  0  0  0  0  0  0
    1.9166    4.0225   -0.5403 C   0  0  0  0  0  0  0  0  0  0  0  0
  1 14  2  0
  2  5  1  0
  2  6  1  0
  2  9  1  0
  3 11  1  0
  3 13  1  0
  3 14  1  0
  4 13  2  0
  4 20  1  0
  5  7  1  0
  6  8  1  0
  7 10  1  0
  8 10  1  0
  9 11  1  0
 11 12  1  0
 13 16  1  0
 14 15  1  0
 15 17  2  0
 15 18  1  0
 16 19  2  0
 17 22  1  0
 18 23  2  0
 19 21  1  0
 20 21  2  0
 22 24  2  0
 23 24  1  0
M  END
>  <PUBCHEM_COMPOUND_CID>  (1) 
41024

>  <PUBCHEM_CONFORMER_RMSD>  (1) 
0.8

>  <PUBCHEM_CONFORMER_DIVERSEORDER>  (1) 
4
96
73
5
36
97
49
75
22
39
77
81
56
42
82
26
86
30
41
84
74
25
61
88
69
79
87
44
93
63
94
20
89
43
29
52
90
24
15
21
83
7
32
85
92
34
54
78
46
66
28
57
64
27
13
51
38
37
70
16
60
33
76
65
68
18
23
47
71
62
50
12
31
53
40
3
6
35
59
72
9
95
11
45
55
8
67
91
19
58
14
17
48
80
10
2
1

>  <PUBCHEM_MMFF94_PARTIAL_CHARGES>  (1) 
29
1 -0.57
11 0.3
13 0.43
14 0.54
15 0.09
16 -0.15
17 -0.15
18 -0.15
19 -0.15
2 -0.81
20 0.16
21 -0.15
22 -0.15
23 -0.15
24 -0.15
3 -0.48
4 -0.62
41 0.15
42 0.15
43 0.15
44 0.15
45 0.15
46 0.15
47 0.15
48 0.15
49 0.15
5 0.27
6 0.27
9 0.27

>  <PUBCHEM_EFFECTIVE_ROTOR_COUNT>  (1) 
7.2

>  <PUBCHEM_PHARMACOPHORE_FEATURES>  (1) 
6
1 1 acceptor
1 2 cation
1 4 acceptor
6 15 17 18 22 23 24 rings
6 2 5 6 7 8 10 rings
6 4 13 16 19 20 21 rings

>  <PUBCHEM_HEAVY_ATOM_COUNT>  (1) 
24

>  <PUBCHEM_ATOM_DEF_STEREO_COUNT>  (1) 
0

>  <PUBCHEM_ATOM_UDEF_STEREO_COUNT>  (1) 
1

>  <PUBCHEM_BOND_DEF_STEREO_COUNT>  (1) 
0

>  <PUBCHEM_BOND_UDEF_STEREO_COUNT>  (1) 
0

>  <PUBCHEM_ISOTOPIC_ATOM_COUNT>  (1) 
0

>  <PUBCHEM_COMPONENT_COUNT>  (1) 
1

>  <PUBCHEM_CACTVS_TAUTO_COUNT>  (1) 
1

>  <PUBCHEM_CONFORMER_ID>  (1) 
0000A04000000004

>  <PUBCHEM_MMFF94_ENERGY>  (1) 
81.3118

>  <PUBCHEM_FEATURE_SELFOVERLAP>  (1) 
30.446

>  <PUBCHEM_SHAPE_FINGERPRINT>  (1) 
10006869 2 17396993357858928041
10670039 82 18337968801313723550
1100329 8 18339928100252711297
11045515 52 18335420119156766526
11488393 25 17975140051944991275
11833330 49 18337950065353126882
11963148 33 16964062264392221171
12173636 292 17187005289791060020
12403259 226 18200024020384016106
12592029 89 17762060247616041699
12788726 201 17974002847457228994
13149001 5 17967820499922559531
133893 2 18118704315817235057
13681431 1 18409732901716444474
138480 1 18411699928287755980
14508225 48 18339634543052663407
14910302 57 17697886865194011742
14955137 171 18194423099482913673
15463212 79 17541947485896435138
15475509 8 18198054782268199829
15961568 22 18408602557621042692
167882 2 18119525698406105196
1813 80 18411418401750566395
19591789 44 17258502669537417578
19930381 70 18339642364536002272
20028762 73 16469819740634606951
20101258 96 18337408053491750923
20600515 1 18056490443398681973
20602899 9 17332544860615083705
20775438 99 17690227778489293997
21304303 282 17036370049206635014
21344244 246 18051125097253678286
23114952 82 18189890006240846143
23419403 2 17899103222241048060
23557571 272 18127691530889730510
23559900 14 18339630248222452235
3298306 158 17759241082321900284
4280585 95 18336528452821740522
46194498 28 18046880909883728599
5385378 56 18050859015676808499
59755656 215 17543911660735977903
6669772 16 17694512837754723012
7364860 26 18195803196722889675
7399639 24 18129361749672734722
81228 2 18194689172068350387

>  <PUBCHEM_SHAPE_MULTIPOLES>  (1) 
473.1
7.4
5.71
1.36
1.19
4.69
-0.15
-8.83
1.68
-4.59
1.14
-0.01
0.25
0.21

>  <PUBCHEM_SHAPE_SELFOVERLAP>  (1) 
1002.388

>  <PUBCHEM_SHAPE_VOLUME>  (1) 
262

>  <PUBCHEM_COORDINATE_TYPE>  (1) 
2
5
10

$$$$
