4103
     RDKit          3D

 26 28  0  0  1  0  0  0  0  0999 V2000
   -2.9384   -2.2145   -0.6119 S   0  0  0  0  0  0  0  0  0  0  0  0
   -1.4762    1.8650   -1.3587 O   0  0  0  0  0  0  0  0  0  0  0  0
   -3.6460    1.8009    1.6481 O   0  0  0  0  0  0  0  0  0  0  0  0
   -5.7400    1.4967    0.8005 O   0  0  0  0  0  0  0  0  0  0  0  0
    1.8680   -0.0644   -2.0877 O   0  0  0  0  0  0  0  0  0  0  0  0
    3.4375   -2.3391   -0.1509 O   0  0  0  0  0  0  0  0  0  0  0  0
    2.7285    2.4059    0.0071 O   0  0  0  0  0  0  0  0  0  0  0  0
   -2.4239    0.2362    0.0626 N   0  0  0  0  0  0  0  0  0  0  0  0
    0.6511   -0.3270   -0.1325 N   0  0  0  0  0  0  0  0  0  0  0  0
   -1.7429   -1.0592    0.1507 C   0  0  0  0  0  0  0  0  0  0  0  0
   -4.3693   -1.1864   -0.0110 C   0  0  0  0  0  0  0  0  0  0  0  0
   -3.8625    0.2678   -0.1361 C   0  0  0  0  0  0  0  0  0  0  0  0
   -0.6600   -0.4805   -0.7700 C   0  0  0  0  0  0  0  0  0  0  0  0
   -1.5047    0.8085   -0.7690 C   0  0  0  0  0  0  0  0  0  0  0  0
   -5.5791   -1.4412   -0.9122 C   0  0  0  0  0  0  0  0  0  0  0  0
   -4.6862   -1.6165    1.4286 C   0  0  0  0  0  0  0  0  0  0  0  0
   -4.5449    1.2419    0.8015 C   0  0  0  0  0  0  0  0  0  0  0  0
    1.8241   -0.1284   -0.8618 C   0  0  0  0  0  0  0  0  0  0  0  0
    3.0746    0.0323   -0.0775 C   0  0  0  0  0  0  0  0  0  0  0  0
    3.8179   -1.0892    0.2381 C   0  0  0  0  0  0  0  0  0  0  0  0
    3.4617    1.2990    0.3162 C   0  0  0  0  0  0  0  0  0  0  0  0
    4.9926   -0.9381    0.9750 C   0  0  0  0  0  0  0  0  0  0  0  0
    4.6365    1.4501    1.0530 C   0  0  0  0  0  0  0  0  0  0  0  0
    5.4020    0.3314    1.3824 C   0  0  0  0  0  0  0  0  0  0  0  0
    4.2610   -3.4261    0.2181 C   0  0  0  0  0  0  0  0  0  0  0  0
    3.0186    3.0750   -1.2028 C   0  0  0  0  0  0  0  0  0  0  0  0
  1 10  1  0
  1 11  1  0
  2 14  2  0
  3 17  1  0
  4 17  2  0
  5 18  2  0
  6 20  1  0
  6 25  1  0
  7 21  1  0
  7 26  1  0
  8 10  1  0
  8 12  1  0
  8 14  1  0
  9 13  1  0
  9 18  1  0
 10 13  1  0
 11 12  1  0
 11 15  1  0
 11 16  1  0
 12 17  1  0
 13 14  1  0
 18 19  1  0
 19 20  2  0
 19 21  1  0
 20 22  1  0
 21 23  2  0
 22 24  2  0
 23 24  1  0
M  END
>  <PUBCHEM_COMPOUND_CID>  (1) 
4103

>  <PUBCHEM_CONFORMER_RMSD>  (1) 
0.8

>  <PUBCHEM_CONFORMER_DIVERSEORDER>  (1) 
8
75
87
56
63
43
88
33
38
70
78
31
27
83
15
48
86
74
32
73
41
82
79
68
3
71
45
37
57
84
81
34
14
24
85
49
69
19
76
50
72
11
39
54
25
35
42
55
59
64
53
28
17
77
80
13
22
60
12
51
18
61
58
44
46
52
16
40
20
7
62
2
1
65
67
66
47
23
4
26
21
9
30
29
5
36
6
10

>  <PUBCHEM_MMFF94_PARTIAL_CHARGES>  (1) 
29
1 -0.45
10 0.44
11 0.23
12 0.36
13 0.28
14 0.58
17 0.66
18 0.54
19 0.09
2 -0.57
20 0.08
21 0.08
22 -0.15
23 -0.15
24 -0.15
25 0.28
26 0.28
3 -0.65
36 0.37
37 0.5
38 0.15
39 0.15
4 -0.57
40 0.15
5 -0.57
6 -0.36
7 -0.36
8 -0.59
9 -0.65

>  <PUBCHEM_EFFECTIVE_ROTOR_COUNT>  (1) 
6.8

>  <PUBCHEM_PHARMACOPHORE_FEATURES>  (1) 
12
1 2 acceptor
1 3 acceptor
1 4 acceptor
1 5 acceptor
1 6 acceptor
1 7 acceptor
1 9 donor
3 11 15 16 hydrophobe
3 3 4 17 anion
4 8 10 13 14 rings
6 19 20 21 22 23 24 rings
7 1 8 10 11 12 13 14 rings

>  <PUBCHEM_HEAVY_ATOM_COUNT>  (1) 
26

>  <PUBCHEM_ATOM_DEF_STEREO_COUNT>  (1) 
0

>  <PUBCHEM_ATOM_UDEF_STEREO_COUNT>  (1) 
3

>  <PUBCHEM_BOND_DEF_STEREO_COUNT>  (1) 
0

>  <PUBCHEM_BOND_UDEF_STEREO_COUNT>  (1) 
0

>  <PUBCHEM_ISOTOPIC_ATOM_COUNT>  (1) 
0

>  <PUBCHEM_COMPONENT_COUNT>  (1) 
1

>  <PUBCHEM_CACTVS_TAUTO_COUNT>  (1) 
2

>  <PUBCHEM_CONFORMER_ID>  (1) 
0000100700000008

>  <PUBCHEM_MMFF94_ENERGY>  (1) 
97.6388

>  <PUBCHEM_FEATURE_SELFOVERLAP>  (1) 
64.695

>  <PUBCHEM_SHAPE_FINGERPRINT>  (1) 
10366900 7 18113624516668224264
10595046 47 18271801375868105295
10670039 82 15051465911649764208
11370993 144 18340486664611493267
11405975 8 18411705370042793283
11552529 35 18128808814907885919
12107183 9 17982736272637832755
12403259 118 18201718470375134161
12596602 18 17989484130411696314
12633257 1 18407757049605083300
12892183 10 18342176678207336882
13073987 5 18343582941164164507
13533116 47 18410291419385585247
13583140 156 18341033173514404606
13914758 101 17821995498983829613
14341114 176 18342176661523301018
14849402 71 18265611182024954256
15250474 111 18269548502228596655
15788980 27 15936405667579811823
17349148 13 16370446652688076947
17818456 19 18059017172400014304
17844677 252 18272093785646792515
17980427 23 18202004348395021645
1813 80 17167865248856255462
18222031 100 16515398573692578334
19377110 9 18130513036788164667
20715895 44 17986396581634082049
21033648 29 14189578507385346443
21065198 48 18343580741797958826
21065199 12 18410286991569130474
21792934 111 18407761418335727945
21859007 373 17825943728974947997
23503953 91 18411135840004490512
23559900 14 17774181005812573734
3117164 225 18268433429891446553
3633792 109 18262500539017369663
3680242 22 18270694064796050241
460360 51 18270982171122773993
5104073 3 18341619187643042395
7097593 13 18411974759245478574
960060 61 10953454128964062914
9709674 26 18333731334022322338
9841814 1 16226050007300663740

>  <PUBCHEM_SHAPE_MULTIPOLES>  (1) 
493.74
14.01
2.97
1.36
3.83
0.38
-0.04
1.61
4.83
-2.15
-0.21
0.12
-0.37
-1

>  <PUBCHEM_SHAPE_SELFOVERLAP>  (1) 
1039.974

>  <PUBCHEM_SHAPE_VOLUME>  (1) 
281.9

>  <PUBCHEM_COORDINATE_TYPE>  (1) 
2
5
10

$$$$
