41035
     RDKit          3D

 19 20  0  0  0  0  0  0  0  0999 V2000
    5.6599   -2.0020    0.5021 F   0  0  0  0  0  0  0  0  0  0  0  0
    5.9242   -0.1427   -0.5945 F   0  0  0  0  0  0  0  0  0  0  0  0
    3.8496   -1.0285   -0.3969 O   0  0  0  0  0  0  0  0  0  0  0  0
   -2.0134    1.9925    0.3367 O   0  0  0  0  0  0  0  0  0  0  0  0
   -0.8306    0.0018   -0.0708 N   0  0  0  0  0  0  0  0  0  0  0  0
   -5.6702   -1.3016   -0.0991 N   0  0  0  0  0  0  0  0  0  0  0  0
    0.5040    0.4067   -0.0313 C   0  0  0  0  0  0  0  0  0  0  0  0
    1.5220   -0.5248   -0.2357 C   0  0  0  0  0  0  0  0  0  0  0  0
    2.8561   -0.1196   -0.1973 C   0  0  0  0  0  0  0  0  0  0  0  0
    0.8201    1.7433    0.2117 C   0  0  0  0  0  0  0  0  0  0  0  0
   -3.2685    0.0572    0.0363 C   0  0  0  0  0  0  0  0  0  0  0  0
   -1.9763    0.7881    0.1089 C   0  0  0  0  0  0  0  0  0  0  0  0
    3.1723    1.2170    0.0459 C   0  0  0  0  0  0  0  0  0  0  0  0
    2.1543    2.1484    0.2503 C   0  0  0  0  0  0  0  0  0  0  0  0
   -4.3964    0.7369   -0.3574 C   0  0  0  0  0  0  0  0  0  0  0  0
   -3.2977   -1.2771    0.3648 C   0  0  0  0  0  0  0  0  0  0  0  0
   -5.5754    0.0109   -0.4092 C   0  0  0  0  0  0  0  0  0  0  0  0
   -4.5259   -1.9130    0.2807 C   0  0  0  0  0  0  0  0  0  0  0  0
    5.0919   -0.7933    0.2551 C   0  0  0  0  0  0  0  0  0  0  0  0
  1 19  1  0
  2 19  1  0
  3  9  1  0
  3 19  1  0
  4 12  2  0
  5  7  1  0
  5 12  1  0
  6 17  2  0
  6 18  1  0
  7  8  2  0
  7 10  1  0
  8  9  1  0
  9 13  2  0
 10 14  2  0
 11 12  1  0
 11 15  2  0
 11 16  1  0
 13 14  1  0
 15 17  1  0
 16 18  2  0
M  END
>  <PUBCHEM_COMPOUND_CID>  (1) 
41035

>  <PUBCHEM_CONFORMER_RMSD>  (1) 
0.8

>  <PUBCHEM_CONFORMER_DIVERSEORDER>  (1) 
2
10
4
5
14
8
7
11
13
1
3
12
6
9

>  <PUBCHEM_MMFF94_PARTIAL_CHARGES>  (1) 
28
1 -0.34
10 -0.15
11 0.09
12 0.54
13 -0.15
14 -0.15
15 -0.15
16 -0.15
17 0.16
18 0.16
19 0.96
2 -0.34
20 0.15
21 0.37
22 0.15
23 0.15
24 0.15
25 0.15
26 0.15
27 0.15
28 0.15
3 -0.36
4 -0.57
5 -0.55
6 -0.62
7 0.12
8 -0.15
9 0.08

>  <PUBCHEM_EFFECTIVE_ROTOR_COUNT>  (1) 
5

>  <PUBCHEM_PHARMACOPHORE_FEATURES>  (1) 
6
1 3 acceptor
1 4 acceptor
1 5 donor
1 6 acceptor
6 6 11 15 16 17 18 rings
6 7 8 9 10 13 14 rings

>  <PUBCHEM_HEAVY_ATOM_COUNT>  (1) 
19

>  <PUBCHEM_ATOM_DEF_STEREO_COUNT>  (1) 
0

>  <PUBCHEM_ATOM_UDEF_STEREO_COUNT>  (1) 
0

>  <PUBCHEM_BOND_DEF_STEREO_COUNT>  (1) 
0

>  <PUBCHEM_BOND_UDEF_STEREO_COUNT>  (1) 
0

>  <PUBCHEM_ISOTOPIC_ATOM_COUNT>  (1) 
0

>  <PUBCHEM_COMPONENT_COUNT>  (1) 
1

>  <PUBCHEM_CACTVS_TAUTO_COUNT>  (1) 
2

>  <PUBCHEM_CONFORMER_ID>  (1) 
0000A04B00000002

>  <PUBCHEM_MMFF94_ENERGY>  (1) 
63.6371

>  <PUBCHEM_FEATURE_SELFOVERLAP>  (1) 
30.446

>  <PUBCHEM_SHAPE_FINGERPRINT>  (1) 
100836 57 9439399142642483746
10803635 8 18040427764170123103
11315181 36 18344149193831145041
11796584 16 17385725794467477434
12555020 224 18409439315829173983
12596602 18 13830129486079641391
12616971 3 17560798879263835381
12916754 54 18410576210356467449
13167823 11 18409164450326817283
13288520 33 18411420605289873901
13685833 64 18409733980249341939
13740256 8 18411140255214871022
13862211 1 18413386527395434734
13955234 65 18198060494121809208
14251752 14 17385995123118022687
14252887 29 17274830116968148382
14341114 176 18411141367616850865
14350574 20 18334859437141275581
15188451 53 15554151684614112573
15196674 1 18411138077977766265
15352361 1 18411700984649101313
17492 89 18119531187659354011
17834072 33 18334298690743532092
17844677 252 18410017654244312605
17857418 61 18410573980941152770
18186145 218 17822281427525231669
18222031 100 18201726133060520294
193927 3 18272381862009206182
200 152 18202845461398543521
20028762 73 18059852908606915647
20374829 77 18335419058505552945
20645477 70 18413390951163971646
21033648 29 16844711041847728426
21065201 7 17968086569236337305
21150785 3 15864075411490080379
21267235 1 18410581703772236467
21682296 61 17774171084813088462
221490 88 18264495150933949641
23402539 116 18410571769333467989
23522609 53 18121533269010261749
23559900 14 18336539508304969729
26918003 58 18344145895438621297
2871803 45 18260824921344267017
293599 30 8214137460982635376
300161 21 11314307277878814665
3004659 81 18259701211506832896
3286 77 18411138047723468108
335352 9 18410855448182542949
4073 2 17969225697141252986
4214541 1 18410575076743427621
465052 167 18343586239909960054
5104073 3 18272374191424677473
542803 24 13695582248357061653
559249 180 18337668625358328403
59682541 35 18271513274800972866
59682541 52 13840531918593037210
7495541 125 18411138060797962084
77779 3 18338236067831827485
8863177 126 18117289257590974659
9709674 26 18117842324950747835
9971528 1 17894629300632360716

>  <PUBCHEM_SHAPE_MULTIPOLES>  (1) 
354.76
13.91
1.98
0.67
1.73
0.19
0
-7.24
-0.74
0.52
0.29
0.02
-0.01
0.17

>  <PUBCHEM_SHAPE_SELFOVERLAP>  (1) 
762.993

>  <PUBCHEM_SHAPE_VOLUME>  (1) 
194.8

>  <PUBCHEM_COORDINATE_TYPE>  (1) 
2
5
10

$$$$
