41040
     RDKit          3D

 11 11  0  0  0  0  0  0  0  0999 V2000
   -0.3179    1.4768    0.3818 O   0  0  0  0  0  0  0  0  0  0  0  0
    0.2086   -0.6398   -0.1604 C   0  0  0  0  0  0  0  0  0  0  0  0
    0.6980    0.5905    0.2123 C   0  0  0  0  0  0  0  0  0  0  0  0
   -1.1984   -0.5004   -0.2240 C   0  0  0  0  0  0  0  0  0  0  0  0
    0.9971   -1.8559   -0.4362 C   0  0  0  0  0  0  0  0  0  0  0  0
   -1.4685    0.8051    0.1143 C   0  0  0  0  0  0  0  0  0  0  0  0
    2.0530    1.1092    0.4511 C   0  0  0  0  0  0  0  0  0  0  0  0
   -2.1819   -1.5412   -0.5789 C   0  0  0  0  0  0  0  0  0  0  0  0
    1.2178   -2.7195    0.8105 C   0  0  0  0  0  0  0  0  0  0  0  0
   -2.7116    1.5807    0.2387 C   0  0  0  0  0  0  0  0  0  0  0  0
    2.7040    1.6945   -0.8092 C   0  0  0  0  0  0  0  0  0  0  0  0
  1  3  1  0
  1  6  1  0
  2  3  2  0
  2  4  1  0
  2  5  1  0
  3  7  1  0
  4  6  2  0
  4  8  1  0
  5  9  1  0
  6 10  1  0
  7 11  1  0
M  END
>  <PUBCHEM_COMPOUND_CID>  (1) 
41040

>  <PUBCHEM_CONFORMER_RMSD>  (1) 
0.4

>  <PUBCHEM_CONFORMER_DIVERSEORDER>  (1) 
2
1
14
8
13
4
15
5
12
9
10
11
7
3
6

>  <PUBCHEM_MMFF94_PARTIAL_CHARGES>  (1) 
9
1 -0.28
10 0.18
2 -0.18
3 -0.04
4 -0.18
5 0.18
6 -0.04
7 0.18
8 0.18

>  <PUBCHEM_EFFECTIVE_ROTOR_COUNT>  (1) 
2

>  <PUBCHEM_PHARMACOPHORE_FEATURES>  (1) 
4
1 1 acceptor
1 11 hydrophobe
1 9 hydrophobe
5 1 2 3 4 6 rings

>  <PUBCHEM_HEAVY_ATOM_COUNT>  (1) 
11

>  <PUBCHEM_ATOM_DEF_STEREO_COUNT>  (1) 
0

>  <PUBCHEM_ATOM_UDEF_STEREO_COUNT>  (1) 
0

>  <PUBCHEM_BOND_DEF_STEREO_COUNT>  (1) 
0

>  <PUBCHEM_BOND_UDEF_STEREO_COUNT>  (1) 
0

>  <PUBCHEM_ISOTOPIC_ATOM_COUNT>  (1) 
0

>  <PUBCHEM_COMPONENT_COUNT>  (1) 
1

>  <PUBCHEM_CACTVS_TAUTO_COUNT>  (1) 
1

>  <PUBCHEM_CONFORMER_ID>  (1) 
0000A05000000002

>  <PUBCHEM_MMFF94_ENERGY>  (1) 
0.8252

>  <PUBCHEM_FEATURE_SELFOVERLAP>  (1) 
20.297

>  <PUBCHEM_SHAPE_FINGERPRINT>  (1) 
11206711 2 18197494232637390957
12423570 1 13055886370073425808
12524768 44 17695900038607213198
12716758 59 18124882510756832536
13380535 21 18341908376269869425
13380536 55 18410848846095070397
15219459 52 18125435315765021967
16945 1 18193835946702664837
193761 8 18412542081159134831
20511035 2 18129082438589030927
20645476 183 17607519434614575718
21040471 1 18343299241135924961
21501502 16 18341045238256945111
23552423 10 18409445856156763879
23559900 14 14022376448835167983
241688 4 16542721115251284691
2748010 2 18413390946832009566
5084963 1 17844255244135562728
528862 383 18265335001744984304
53812653 8 18192992849107461296
57177213 63 18335985349832786893
68250623 7 18411981330287023803
81228 2 17691969675474597832

>  <PUBCHEM_SHAPE_MULTIPOLES>  (1) 
220.51
3.44
2.76
0.83
0.31
1.46
-0.02
-1.71
-0.38
-0.78
0.27
-0.2
0.1
-0.71

>  <PUBCHEM_SHAPE_SELFOVERLAP>  (1) 
442.702

>  <PUBCHEM_SHAPE_VOLUME>  (1) 
134.7

>  <PUBCHEM_COORDINATE_TYPE>  (1) 
2
5
10

$$$$
