41044
     RDKit          3D

  7  6  0  0  0  0  0  0  0  0999 V2000
    1.2229   -1.6167   -1.0423 Br  0  0  0  0  0  0  0  0  0  0  0  0
   -1.2066   -1.6364    1.0395 Br  0  0  0  0  0  0  0  0  0  0  0  0
    2.1596    1.5091    0.1968 Br  0  0  0  0  0  0  0  0  0  0  0  0
   -2.1625    1.5080   -0.1937 Br  0  0  0  0  0  0  0  0  0  0  0  0
   -0.0007   -0.4441   -0.0005 C   0  0  0  0  0  0  0  0  0  0  0  0
    0.8241    0.3452    1.0146 C   0  0  0  0  0  0  0  0  0  0  0  0
   -0.8368    0.3347   -1.0145 C   0  0  0  0  0  0  0  0  0  0  0  0
  1  5  1  0
  2  5  1  0
  3  6  1  0
  4  7  1  0
  5  6  1  0
  5  7  1  0
M  END
>  <PUBCHEM_COMPOUND_CID>  (1) 
41044

>  <PUBCHEM_CONFORMER_RMSD>  (1) 
0.4

>  <PUBCHEM_CONFORMER_DIVERSEORDER>  (1) 
1
4
5
2
3
6

>  <PUBCHEM_MMFF94_PARTIAL_CHARGES>  (1) 
7
1 -0.23
2 -0.23
3 -0.23
4 -0.23
5 0.46
6 0.23
7 0.23

>  <PUBCHEM_EFFECTIVE_ROTOR_COUNT>  (1) 
2

>  <PUBCHEM_PHARMACOPHORE_FEATURES>  (1) 
5
1 1 hydrophobe
1 2 hydrophobe
1 3 hydrophobe
1 4 hydrophobe
3 1 2 5 hydrophobe

>  <PUBCHEM_HEAVY_ATOM_COUNT>  (1) 
7

>  <PUBCHEM_ATOM_DEF_STEREO_COUNT>  (1) 
0

>  <PUBCHEM_ATOM_UDEF_STEREO_COUNT>  (1) 
0

>  <PUBCHEM_BOND_DEF_STEREO_COUNT>  (1) 
0

>  <PUBCHEM_BOND_UDEF_STEREO_COUNT>  (1) 
0

>  <PUBCHEM_ISOTOPIC_ATOM_COUNT>  (1) 
0

>  <PUBCHEM_COMPONENT_COUNT>  (1) 
1

>  <PUBCHEM_CACTVS_TAUTO_COUNT>  (1) 
1

>  <PUBCHEM_CONFORMER_ID>  (1) 
0000A05400000001

>  <PUBCHEM_MMFF94_ENERGY>  (1) 
13.4052

>  <PUBCHEM_FEATURE_SELFOVERLAP>  (1) 
26.72

>  <PUBCHEM_SHAPE_FINGERPRINT>  (1) 
12423570 1 11078332506160271717
137420 1 14117227433715783106
16714656 1 17763744686507904112
21040471 1 17896043152531856439
21930827 45 18187377501295225246
23211744 25 17902243216885704615
29004967 10 17342366385579455943
3250762 1 18410866450955175750
5084963 1 17831252286412880220
5943 1 9864718041220483750
68250623 7 18266717186603570639

>  <PUBCHEM_SHAPE_MULTIPOLES>  (1) 
167.83
2.8
2.3
1.29
0
0.25
0
-1.46
-0.01
0.01
0.01
0
0.38
1

>  <PUBCHEM_SHAPE_SELFOVERLAP>  (1) 
251.729

>  <PUBCHEM_SHAPE_VOLUME>  (1) 
126.9

>  <PUBCHEM_COORDINATE_TYPE>  (1) 
2
5
10

$$$$
