41041
     RDKit          3D

 18 19  0  0  1  0  0  0  0  0999 V2000
   -0.8242    3.3939   -0.3787 O   0  0  0  0  0  0  0  0  0  0  0  0
    2.1639   -0.4096    0.0327 N   0  0  0  0  0  0  0  0  0  0  0  0
   -1.2508    1.1217    0.0520 N   0  0  0  0  0  0  0  0  0  0  0  0
   -2.1166   -0.8995    0.9229 N   0  0  0  0  0  0  0  0  0  0  0  0
    2.9590    0.8231   -0.0566 C   0  0  0  0  0  0  0  0  0  0  0  0
    2.7482   -1.4794   -0.7883 C   0  0  0  0  0  0  0  0  0  0  0  0
    4.3979    0.5864    0.4053 C   0  0  0  0  0  0  0  0  0  0  0  0
    4.1800   -1.7912   -0.3506 C   0  0  0  0  0  0  0  0  0  0  0  0
    5.0539   -0.5425   -0.3813 C   0  0  0  0  0  0  0  0  0  0  0  0
    0.7799   -0.1559   -0.3671 C   0  0  0  0  0  0  0  0  0  0  0  0
    0.0910    0.8766    0.5341 C   0  0  0  0  0  0  0  0  0  0  0  0
    0.0416    0.4562    2.0012 C   0  0  0  0  0  0  0  0  0  0  0  0
   -2.2361    0.0546    0.0078 C   0  0  0  0  0  0  0  0  0  0  0  0
   -1.5728    2.4192   -0.3715 C   0  0  0  0  0  0  0  0  0  0  0  0
   -3.1724    0.1624   -0.9751 C   0  0  0  0  0  0  0  0  0  0  0  0
   -4.1201   -0.8538   -1.0259 C   0  0  0  0  0  0  0  0  0  0  0  0
   -3.0549   -1.8695    0.8425 C   0  0  0  0  0  0  0  0  0  0  0  0
   -4.0674   -1.8928   -0.1033 C   0  0  0  0  0  0  0  0  0  0  0  0
  1 14  2  0
  2  5  1  0
  2  6  1  0
  2 10  1  0
  3 11  1  0
  3 13  1  0
  3 14  1  0
  4 13  2  0
  4 17  1  0
  5  7  1  0
  6  8  1  0
  7  9  1  0
  8  9  1  0
 10 11  1  0
 11 12  1  0
 13 15  1  0
 15 16  2  0
 16 18  1  0
 17 18  2  0
M  END
>  <PUBCHEM_COMPOUND_CID>  (1) 
41041

>  <PUBCHEM_CONFORMER_RMSD>  (1) 
0.8

>  <PUBCHEM_CONFORMER_DIVERSEORDER>  (1) 
1
44
49
17
45
41
20
18
3
48
29
50
36
37
6
8
26
13
4
40
31
24
16
43
46
14
33
27
30
35
28
25
15
23
38
21
11
39
32
5
7
42
22
34
12
2
19
47
9
10

>  <PUBCHEM_MMFF94_PARTIAL_CHARGES>  (1) 
19
1 -0.57
10 0.27
11 0.3
13 0.43
14 0.57
15 -0.15
16 -0.15
17 0.16
18 -0.15
2 -0.81
3 -0.48
35 0.06
36 0.15
37 0.15
38 0.15
39 0.15
4 -0.62
5 0.27
6 0.27

>  <PUBCHEM_EFFECTIVE_ROTOR_COUNT>  (1) 
6.2

>  <PUBCHEM_PHARMACOPHORE_FEATURES>  (1) 
5
1 1 acceptor
1 2 cation
1 4 acceptor
6 2 5 6 7 8 9 rings
6 4 13 15 16 17 18 rings

>  <PUBCHEM_HEAVY_ATOM_COUNT>  (1) 
18

>  <PUBCHEM_ATOM_DEF_STEREO_COUNT>  (1) 
0

>  <PUBCHEM_ATOM_UDEF_STEREO_COUNT>  (1) 
1

>  <PUBCHEM_BOND_DEF_STEREO_COUNT>  (1) 
0

>  <PUBCHEM_BOND_UDEF_STEREO_COUNT>  (1) 
0

>  <PUBCHEM_ISOTOPIC_ATOM_COUNT>  (1) 
0

>  <PUBCHEM_COMPONENT_COUNT>  (1) 
1

>  <PUBCHEM_CACTVS_TAUTO_COUNT>  (1) 
1

>  <PUBCHEM_CONFORMER_ID>  (1) 
0000A05100000001

>  <PUBCHEM_MMFF94_ENERGY>  (1) 
45.9783

>  <PUBCHEM_FEATURE_SELFOVERLAP>  (1) 
25.371

>  <PUBCHEM_SHAPE_FINGERPRINT>  (1) 
10366900 7 18409735079950659482
11045515 52 18113899377142657277
11615757 297 17275105029182108994
12363563 72 18337117846825402287
12403259 226 18412822465673218200
12596602 18 14979670039464960710
12892183 10 13110975231404064671
12916754 54 18272376339235157856
13544653 18 18131635607578154195
14790565 3 17906733596989983445
15375462 189 17417810681663093570
17834072 14 18334575767467931702
1813 80 18129400322188171925
18186145 218 16732987560710035701
19141452 34 18343591724524882273
19862831 5 17240198833018145986
200 152 17988923366475120386
20281475 54 18272655683523013379
20374829 77 18410849975872000511
20671657 53 18339648948562734957
20871999 31 18261661607070639429
21079973 296 18408884074666601130
23175994 123 18335422413281199655
23402539 116 18260824891015836300
23403322 49 18410292519039481959
23557571 272 18341050726887948804
23559900 14 18409441462937814072
23598288 3 15841003148087462848
2871803 45 18410008827849045070
3286 77 17203322364274221611
474 4 11819259049749923263
4921388 177 17386012792724716067
5104073 3 18200872869103784434
5283173 99 18188196616331670893
57100710 210 18341609287532123150
633830 44 10881942996347256291
6913067 236 18128231545770389352
7364860 26 17905325483487378753
81228 2 18335423422330060617
9709674 26 18268996388635645854

>  <PUBCHEM_SHAPE_MULTIPOLES>  (1) 
349.62
9.33
2.44
1.13
6.16
1.49
0.4
-5.24
-1.79
-1.21
-0.32
-0.46
-0.03
0.77

>  <PUBCHEM_SHAPE_SELFOVERLAP>  (1) 
717.296

>  <PUBCHEM_SHAPE_VOLUME>  (1) 
200.4

>  <PUBCHEM_COORDINATE_TYPE>  (1) 
2
5
10

$$$$
