41045
     RDKit          3D

  9  8  0  0  1  0  0  0  0  0999 V2000
   -2.5666    1.9399    0.2362 N   0  0  0  0  0  0  0  0  0  0  0  0
    0.6098    0.0032   -0.3599 C   0  0  0  0  0  0  0  0  0  0  0  0
   -0.5075   -0.8933    0.1913 C   0  0  0  0  0  0  0  0  0  0  0  0
    1.9729   -0.4019    0.2079 C   0  0  0  0  0  0  0  0  0  0  0  0
   -1.8940   -0.5351   -0.3717 C   0  0  0  0  0  0  0  0  0  0  0  0
    3.1291    0.4443   -0.3291 C   0  0  0  0  0  0  0  0  0  0  0  0
   -2.9490   -1.5005    0.1708 C   0  0  0  0  0  0  0  0  0  0  0  0
    4.4757    0.0934    0.2847 C   0  0  0  0  0  0  0  0  0  0  0  0
   -2.2704    0.8500   -0.0300 C   0  0  0  0  0  0  0  0  0  0  0  0
  1  9  3  0
  2  3  1  0
  2  4  1  0
  3  5  1  0
  4  6  1  0
  5  7  1  0
  5  9  1  0
  6  8  1  0
M  END
>  <PUBCHEM_COMPOUND_CID>  (1) 
41045

>  <PUBCHEM_CONFORMER_RMSD>  (1) 
0.6

>  <PUBCHEM_CONFORMER_DIVERSEORDER>  (1) 
15
54
45
51
41
5
53
27
49
2
48
29
11
43
55
3
19
33
8
50
17
47
42
10
12
24
46
52
36
31
21
20
32
38
25
18
26
7
40
35
6
9
28
39
44
1
16
14
23
13
4
30
34
37
22

>  <PUBCHEM_MMFF94_PARTIAL_CHARGES>  (1) 
3
1 -0.56
5 0.2
9 0.36

>  <PUBCHEM_EFFECTIVE_ROTOR_COUNT>  (1) 
4

>  <PUBCHEM_PHARMACOPHORE_FEATURES>  (1) 
4
1 1 acceptor
1 7 hydrophobe
1 8 hydrophobe
5 2 3 4 5 6 hydrophobe

>  <PUBCHEM_HEAVY_ATOM_COUNT>  (1) 
9

>  <PUBCHEM_ATOM_DEF_STEREO_COUNT>  (1) 
0

>  <PUBCHEM_ATOM_UDEF_STEREO_COUNT>  (1) 
1

>  <PUBCHEM_BOND_DEF_STEREO_COUNT>  (1) 
0

>  <PUBCHEM_BOND_UDEF_STEREO_COUNT>  (1) 
0

>  <PUBCHEM_ISOTOPIC_ATOM_COUNT>  (1) 
0

>  <PUBCHEM_COMPONENT_COUNT>  (1) 
1

>  <PUBCHEM_CACTVS_TAUTO_COUNT>  (1) 
1

>  <PUBCHEM_CONFORMER_ID>  (1) 
0000A0550000000F

>  <PUBCHEM_MMFF94_ENERGY>  (1) 
0.5896

>  <PUBCHEM_FEATURE_SELFOVERLAP>  (1) 
20.297

>  <PUBCHEM_SHAPE_FINGERPRINT>  (1) 
11062470 55 11671791480954788270
12162725 195 18334297604053502604
12932764 1 17489579087005349198
14325111 11 18410575076490038166
14390081 3 18342454828990169184
18342897 69 18336262465349516539
190213 19 18113894983633270774
1986462 14 18410578379314601318
20645477 56 18342743983347507505
22485316 2 9583526404182521644
23380061 127 18410570712507872814
23402539 116 18340759434006227335
23500284 214 18129670686205969569
3248919 1 17603594044843559806

>  <PUBCHEM_SHAPE_MULTIPOLES>  (1) 
180.23
7.09
1.43
0.68
6.86
0.43
-0.02
0.44
0.52
-1.81
0.14
0.06
-0.01
-0.14

>  <PUBCHEM_SHAPE_SELFOVERLAP>  (1) 
322.292

>  <PUBCHEM_SHAPE_VOLUME>  (1) 
115.7

>  <PUBCHEM_COORDINATE_TYPE>  (1) 
2
5
10

$$$$
