41049
     RDKit          3D

 17 18  0  0  1  0  0  0  0  0999 V2000
    3.8891    1.9171    0.4801 O   0  0  0  0  0  0  0  0  0  0  0  0
   -2.6621    1.0720    0.1328 N   0  0  0  0  0  0  0  0  0  0  0  0
   -0.4974   -0.0823   -0.5733 C   0  0  0  0  0  0  0  0  0  0  0  0
   -1.2735   -1.4359   -0.5841 C   0  0  0  0  0  0  0  0  0  0  0  0
   -1.1991    0.9918    0.3153 C   0  0  0  0  0  0  0  0  0  0  0  0
   -0.4852    0.3991   -2.0518 C   0  0  0  0  0  0  0  0  0  0  0  0
   -1.9141   -1.8428    0.7455 C   0  0  0  0  0  0  0  0  0  0  0  0
    0.9682   -0.2062   -0.0801 C   0  0  0  0  0  0  0  0  0  0  0  0
   -3.3101   -1.2459    0.9144 C   0  0  0  0  0  0  0  0  0  0  0  0
   -3.3613    0.2648    1.1492 C   0  0  0  0  0  0  0  0  0  0  0  0
    0.2254   -0.5986   -2.9365 C   0  0  0  0  0  0  0  0  0  0  0  0
   -3.1021    2.4681    0.2454 C   0  0  0  0  0  0  0  0  0  0  0  0
    1.7765    0.9254   -0.0214 C   0  0  0  0  0  0  0  0  0  0  0  0
    1.4669   -1.4490    0.2995 C   0  0  0  0  0  0  0  0  0  0  0  0
    3.0947    0.8134    0.4210 C   0  0  0  0  0  0  0  0  0  0  0  0
    2.7851   -1.5611    0.7415 C   0  0  0  0  0  0  0  0  0  0  0  0
    3.5990   -0.4299    0.8024 C   0  0  0  0  0  0  0  0  0  0  0  0
  1 15  1  0
  2  5  1  0
  2 10  1  0
  2 12  1  0
  3  4  1  0
  3  5  1  0
  3  6  1  0
  3  8  1  0
  4  7  1  0
  6 11  1  0
  7  9  1  0
  8 13  2  0
  8 14  1  0
  9 10  1  0
 13 15  1  0
 14 16  2  0
 15 17  2  0
 16 17  1  0
M  END
>  <PUBCHEM_COMPOUND_CID>  (1) 
41049

>  <PUBCHEM_CONFORMER_RMSD>  (1) 
0.6

>  <PUBCHEM_CONFORMER_DIVERSEORDER>  (1) 
7
57
9
37
27
54
56
20
40
51
11
49
41
43
66
14
52
61
26
59
28
36
67
69
6
64
65
3
13
5
12
17
46
45
60
42
18
2
58
62
19
21
24
44
70
68
1
39
31
53
10
16
55
30
29
47
4
50
25
34
63
15
35
38
32
22
8
33
23
48

>  <PUBCHEM_MMFF94_PARTIAL_CHARGES>  (1) 
17
1 -0.53
10 0.27
12 0.27
13 -0.15
14 -0.15
15 0.08
16 -0.15
17 -0.15
2 -0.81
3 0.14
36 0.15
37 0.15
38 0.15
39 0.15
40 0.45
5 0.27
8 -0.14

>  <PUBCHEM_EFFECTIVE_ROTOR_COUNT>  (1) 
3.4

>  <PUBCHEM_PHARMACOPHORE_FEATURES>  (1) 
5
1 1 donor
1 11 hydrophobe
1 2 cation
6 8 13 14 15 16 17 rings
7 2 3 4 5 7 9 10 rings

>  <PUBCHEM_HEAVY_ATOM_COUNT>  (1) 
17

>  <PUBCHEM_ATOM_DEF_STEREO_COUNT>  (1) 
0

>  <PUBCHEM_ATOM_UDEF_STEREO_COUNT>  (1) 
1

>  <PUBCHEM_BOND_DEF_STEREO_COUNT>  (1) 
0

>  <PUBCHEM_BOND_UDEF_STEREO_COUNT>  (1) 
0

>  <PUBCHEM_ISOTOPIC_ATOM_COUNT>  (1) 
0

>  <PUBCHEM_COMPONENT_COUNT>  (1) 
1

>  <PUBCHEM_CACTVS_TAUTO_COUNT>  (1) 
3

>  <PUBCHEM_CONFORMER_ID>  (1) 
0000A05900000007

>  <PUBCHEM_MMFF94_ENERGY>  (1) 
56.973

>  <PUBCHEM_FEATURE_SELFOVERLAP>  (1) 
25.372

>  <PUBCHEM_SHAPE_FINGERPRINT>  (1) 
10608611 8 18410572864244387840
11132069 177 17822566217894759746
11578080 2 17386274527984366149
12251169 10 18334014986219774419
12363563 72 14923936890290085634
12382932 28 18409729547373347400
12507560 40 18334862688452676329
12633257 1 18190175672546637592
12892183 10 18260835912060238787
13296909 8 18260548931220251749
13675066 3 18059565885280518034
14181834 199 15552761699335871862
14289901 80 18333735749021446960
15375462 478 18263367039588603667
15906896 17 17845354661395540503
16945 1 18266180706607090415
17804303 29 18117850892835815050
17844478 74 17458337520769316718
1813 80 16226056565167241110
18981168 100 18055886978939305264
19868273 293 16988266638787672540
20361792 2 15647057070564235967
20653085 51 11600012067379341939
20671657 53 10809338932303774698
21501502 16 18335414673412704146
21524375 3 17773866515617644533
21756936 100 18126844026980113920
23402539 116 18411410693006735589
23419403 2 16101318422800832734
23493267 7 17988097628973976272
23559900 14 18196934379302720274
276578 36 15985112889928496070
3286 77 18259981583135949626
68419 9 17462604811338324567
6992083 37 17603594006309998167
81228 2 15430861112695926518

>  <PUBCHEM_SHAPE_MULTIPOLES>  (1) 
339
6.18
2.09
1.7
1.51
0.36
-1.87
1.47
3.38
-0.69
0.51
-0.16
-0.21
0.11

>  <PUBCHEM_SHAPE_SELFOVERLAP>  (1) 
698.235

>  <PUBCHEM_SHAPE_VOLUME>  (1) 
192.8

>  <PUBCHEM_COORDINATE_TYPE>  (1) 
2
5
10

$$$$
