4105
     RDKit          3D

 28 28  0  0  1  0  0  0  0  0999 V2000
    2.6719    3.8348   -1.4687 S   0  0  0  0  0  0  0  0  0  0  0  0
   -0.3745   -0.4879   -1.6673 O   0  0  0  0  0  0  0  0  0  0  0  0
   -0.6065    1.6873    1.6339 O   0  0  0  0  0  0  0  0  0  0  0  0
   -1.0915   -4.4741   -0.3540 O   0  0  0  0  0  0  0  0  0  0  0  0
    1.0034   -5.0658   -0.9635 O   0  0  0  0  0  0  0  0  0  0  0  0
   -1.9260    1.2406   -0.2230 N   0  0  0  0  0  0  0  0  0  0  0  0
   -0.4933   -1.9703    0.1162 N   0  0  0  0  0  0  0  0  0  0  0  0
   -1.8341    4.3398    1.1499 N   0  0  0  0  0  0  0  0  0  0  0  0
   -3.4147   -0.6947   -0.5929 C   0  0  0  0  0  0  0  0  0  0  0  0
   -2.1024   -0.1704    0.0040 C   0  0  0  0  0  0  0  0  0  0  0  0
   -4.6886   -0.0117   -0.0548 C   0  0  0  0  0  0  0  0  0  0  0  0
   -0.9122   -0.8801   -0.6338 C   0  0  0  0  0  0  0  0  0  0  0  0
   -4.7837   -0.2167    1.4597 C   0  0  0  0  0  0  0  0  0  0  0  0
   -5.9587   -0.5359   -0.7262 C   0  0  0  0  0  0  0  0  0  0  0  0
    0.6458   -2.7858   -0.2389 C   0  0  0  0  0  0  0  0  0  0  0  0
   -1.1728    3.5153    0.1406 C   0  0  0  0  0  0  0  0  0  0  0  0
   -1.1853    2.0656    0.6173 C   0  0  0  0  0  0  0  0  0  0  0  0
    1.6941   -2.7894    0.8814 C   0  0  0  0  0  0  0  0  0  0  0  0
    0.2539    4.0093   -0.1561 C   0  0  0  0  0  0  0  0  0  0  0  0
    2.5329   -1.5343    0.9072 C   0  0  0  0  0  0  0  0  0  0  0  0
    0.9986    3.1759   -1.2026 C   0  0  0  0  0  0  0  0  0  0  0  0
    0.2216   -4.2119   -0.5582 C   0  0  0  0  0  0  0  0  0  0  0  0
    3.7166   -1.4714    0.1718 C   0  0  0  0  0  0  0  0  0  0  0  0
    2.1241   -0.4375    1.6659 C   0  0  0  0  0  0  0  0  0  0  0  0
    4.4916   -0.3120    0.1953 C   0  0  0  0  0  0  0  0  0  0  0  0
    2.8992    0.7221    1.6893 C   0  0  0  0  0  0  0  0  0  0  0  0
    4.0829    0.7848    0.9539 C   0  0  0  0  0  0  0  0  0  0  0  0
    3.2080    2.6747   -2.7464 C   0  0  0  0  0  0  0  0  0  0  0  0
  1 21  1  0
  1 28  1  0
  2 12  2  0
  3 17  2  0
  4 22  1  0
  5 22  2  0
  6 10  1  0
  6 17  1  0
  7 12  1  0
  7 15  1  0
  8 16  1  0
  9 10  1  0
  9 11  1  0
 10 12  1  0
 11 13  1  0
 11 14  1  0
 15 18  1  0
 15 22  1  0
 16 17  1  0
 16 19  1  0
 18 20  1  0
 19 21  1  0
 20 23  2  0
 20 24  1  0
 23 25  1  0
 24 26  2  0
 25 27  2  0
 26 27  1  0
M  END
>  <PUBCHEM_COMPOUND_CID>  (1) 
4105

>  <PUBCHEM_CONFORMER_RMSD>  (1) 
1.2

>  <PUBCHEM_CONFORMER_DIVERSEORDER>  (1) 
1
199
198
133
112
127
28
62
143
152
202
142
124
102
48
130
60
148
211
35
81
122
76
249
55
222
163
240
167
235
56
216
190
34
82
169
111
231
225
251
223
99
213
78
128
14
49
234
119
141
95
92
214
149
54
94
187
125
201
79
172
21
107
4
136
77
44
210
237
64
191
221
209
39
171
83
147
53
176
212
19
70
90
218
72
32
158
155
170
224
164
114
41
192
244
239
27
156
16
227
75
241
162
116
20
69
89
68
36
243
181
177
166
18
67
25
100
50
186
40
105
38
182
71
154
106
161
93
13
73
248
208
151
126
63
189
247
233
228
101
66
80
179
109
17
113
217
103
157
98
153
42
118
219
230
203
131
204
145
129
194
33
58
11
159
196
97
195
135
115
74
188
139
29
137
84
22
65
52
168
236
174
178
160
57
238
140
184
205
185
46
15
120
229
117
87
86
220
183
6
110
8
245
226
200
30
206
9
7
232
37
242
31
123
138
146
165
193
12
197
45
250
61
215
144
104
3
10
26
23
207
132
47
180
246
43
51
85
121
24
88
108
134
173
175
96
59
91
5
2
150

>  <PUBCHEM_MMFF94_PARTIAL_CHARGES>  (1) 
33
1 -0.46
10 0.36
12 0.57
15 0.36
16 0.33
17 0.57
18 0.14
2 -0.57
20 -0.14
21 0.23
22 0.66
23 -0.15
24 -0.15
25 -0.15
26 -0.15
27 -0.15
28 0.23
3 -0.57
33 0.37
4 -0.65
42 0.37
49 0.36
5 -0.57
50 0.36
51 0.15
52 0.15
53 0.15
54 0.15
55 0.5
56 0.15
6 -0.73
7 -0.73
8 -0.99

>  <PUBCHEM_EFFECTIVE_ROTOR_COUNT>  (1) 
14

>  <PUBCHEM_PHARMACOPHORE_FEATURES>  (1) 
12
1 2 acceptor
1 28 hydrophobe
1 3 acceptor
1 4 acceptor
1 5 acceptor
1 6 donor
1 7 donor
1 8 cation
1 8 donor
3 11 13 14 hydrophobe
3 4 5 22 anion
6 20 23 24 25 26 27 rings

>  <PUBCHEM_HEAVY_ATOM_COUNT>  (1) 
28

>  <PUBCHEM_ATOM_DEF_STEREO_COUNT>  (1) 
0

>  <PUBCHEM_ATOM_UDEF_STEREO_COUNT>  (1) 
3

>  <PUBCHEM_BOND_DEF_STEREO_COUNT>  (1) 
0

>  <PUBCHEM_BOND_UDEF_STEREO_COUNT>  (1) 
0

>  <PUBCHEM_ISOTOPIC_ATOM_COUNT>  (1) 
0

>  <PUBCHEM_COMPONENT_COUNT>  (1) 
1

>  <PUBCHEM_CACTVS_TAUTO_COUNT>  (1) 
4

>  <PUBCHEM_CONFORMER_ID>  (1) 
0000100900000001

>  <PUBCHEM_MMFF94_ENERGY>  (1) 
51.4212

>  <PUBCHEM_FEATURE_SELFOVERLAP>  (1) 
60.956

>  <PUBCHEM_SHAPE_FINGERPRINT>  (1) 
1100329 8 18266171931930765390
12403259 226 16752687158473975317
12788726 201 18270698548462994317
140371 6 18335987459184001137
14223421 5 18052812542612104843
14790565 3 18341330080398748129
14955137 171 18411422855974491675
15927050 60 17763180641337997837
20600515 1 18058168499742263312
20642791 178 18337106882290710789
20739085 24 18338797819004141907
22113638 7 18264759021156224916
23559900 14 17693360154310652107
25019877 29 17988913475688119630
3187 122 18118383078070331785
350125 39 18197490723723151426
35225 105 16381195671956835052
463206 1 18121214552635501160
484985 159 14427360889384015130
513532 50 15824101889263840422
6287921 2 18194412086854300936

>  <PUBCHEM_SHAPE_MULTIPOLES>  (1) 
541.66
8.24
6.71
1.72
7.61
1.47
-0.32
-1.31
-0.01
-2.23
-1.84
-1.24
-0.93
-2.43

>  <PUBCHEM_SHAPE_SELFOVERLAP>  (1) 
1067.066

>  <PUBCHEM_SHAPE_VOLUME>  (1) 
325.4

>  <PUBCHEM_COORDINATE_TYPE>  (1) 
2
5
10

$$$$
