41052
     RDKit          3D

 12 13  0  0  1  0  0  0  0  0999 V2000
    1.9139    0.3944    0.2463 C   0  0  0  0  0  0  0  0  0  0  0  0
    1.5466    1.8407    0.6425 C   0  0  0  0  0  0  0  0  0  0  0  0
    0.5490   -0.2249    0.1412 C   0  0  0  0  0  0  0  0  0  0  0  0
    0.1550    2.1284    0.0573 C   0  0  0  0  0  0  0  0  0  0  0  0
   -0.4440    0.7581    0.0448 C   0  0  0  0  0  0  0  0  0  0  0  0
    0.2231   -1.5715    0.1152 C   0  0  0  0  0  0  0  0  0  0  0  0
    2.6753    0.3270   -1.0722 C   0  0  0  0  0  0  0  0  0  0  0  0
   -1.7786    0.4149   -0.0913 C   0  0  0  0  0  0  0  0  0  0  0  0
   -1.1217   -1.9263   -0.0095 C   0  0  0  0  0  0  0  0  0  0  0  0
   -2.1153   -0.9401   -0.1128 C   0  0  0  0  0  0  0  0  0  0  0  0
    1.2386   -2.6514    0.2474 C   0  0  0  0  0  0  0  0  0  0  0  0
   -2.8420    1.4508   -0.2087 C   0  0  0  0  0  0  0  0  0  0  0  0
  1  2  1  0
  1  3  1  0
  1  7  1  0
  2  4  1  0
  3  5  2  0
  3  6  1  0
  4  5  1  0
  5  8  1  0
  6  9  2  0
  6 11  1  0
  8 10  2  0
  8 12  1  0
  9 10  1  0
M  END
>  <PUBCHEM_COMPOUND_CID>  (1) 
41052

>  <PUBCHEM_CONFORMER_RMSD>  (1) 
0.4

>  <PUBCHEM_CONFORMER_DIVERSEORDER>  (1) 
2
1

>  <PUBCHEM_MMFF94_PARTIAL_CHARGES>  (1) 
12
1 0.14
10 -0.15
11 0.14
12 0.14
21 0.15
22 0.15
3 -0.14
4 0.14
5 -0.14
6 -0.14
8 -0.14
9 -0.15

>  <PUBCHEM_EFFECTIVE_ROTOR_COUNT>  (1) 
0.6

>  <PUBCHEM_PHARMACOPHORE_FEATURES>  (1) 
2
5 1 2 3 4 5 rings
6 3 5 6 8 9 10 rings

>  <PUBCHEM_HEAVY_ATOM_COUNT>  (1) 
12

>  <PUBCHEM_ATOM_DEF_STEREO_COUNT>  (1) 
0

>  <PUBCHEM_ATOM_UDEF_STEREO_COUNT>  (1) 
1

>  <PUBCHEM_BOND_DEF_STEREO_COUNT>  (1) 
0

>  <PUBCHEM_BOND_UDEF_STEREO_COUNT>  (1) 
0

>  <PUBCHEM_ISOTOPIC_ATOM_COUNT>  (1) 
0

>  <PUBCHEM_COMPONENT_COUNT>  (1) 
1

>  <PUBCHEM_CACTVS_TAUTO_COUNT>  (1) 
1

>  <PUBCHEM_CONFORMER_ID>  (1) 
0000A05C00000002

>  <PUBCHEM_MMFF94_ENERGY>  (1) 
32.0797

>  <PUBCHEM_FEATURE_SELFOVERLAP>  (1) 
10.231

>  <PUBCHEM_SHAPE_FINGERPRINT>  (1) 
10967382 1 18267018345472953481
11206711 2 18337670935686704759
13380535 21 18336277747227881251
15490181 7 18340199803708902643
16945 1 18338231686558958219
193761 8 18410848859127788539
20645476 183 17895492422050718310
20871998 184 16758035801580205636
21040471 1 18409443717284123449
21501502 16 18336825291202358927
22802520 49 17764608889809952590
2334 1 18195243549214534904
23402539 116 17406816857991304206
23552423 10 18261958422984845662
23559900 14 18343028779467906180
241688 4 17041756491940710011
2748010 2 17761209217036965591
3071541 158 17612308550366112133
3071541 250 17908713825609183199
5084963 1 17986117528617336659
5255222 1 18409444756824555621
528886 8 18410853239646089041
53812653 166 18413387626906900201
63268167 104 18268430131594063417
66348 1 18410852183157805275

>  <PUBCHEM_SHAPE_MULTIPOLES>  (1) 
246.95
3.31
2.71
0.77
0.63
0.91
-0.08
-0.88
-0.61
-0.27
0.32
-0.31
-0.09
0.07

>  <PUBCHEM_SHAPE_SELFOVERLAP>  (1) 
526.294

>  <PUBCHEM_SHAPE_VOLUME>  (1) 
133.9

>  <PUBCHEM_COORDINATE_TYPE>  (1) 
2
5
10

$$$$
