41064
     RDKit          3D

 14 15  0  0  1  0  0  0  0  0999 V2000
   -0.1899   -2.2759    0.4348 O   0  0  0  0  0  0  0  0  0  0  0  0
   -1.0831    2.2359    0.9126 O   0  0  0  0  0  0  0  0  0  0  0  0
   -1.0088   -0.0971    0.6890 N   0  0  0  0  0  0  0  0  0  0  0  0
    1.2710   -0.3997    0.9776 C   0  0  0  0  0  0  0  0  0  0  0  0
    1.0110    1.0571    0.5795 C   0  0  0  0  0  0  0  0  0  0  0  0
    2.5171   -1.0495    0.3852 C   0  0  0  0  0  0  0  0  0  0  0  0
    1.3321    1.3986   -0.8848 C   0  0  0  0  0  0  0  0  0  0  0  0
   -0.0387   -1.0809    0.6385 C   0  0  0  0  0  0  0  0  0  0  0  0
   -0.4851    1.1778    0.7800 C   0  0  0  0  0  0  0  0  0  0  0  0
    2.9225   -0.5283   -0.9548 C   0  0  0  0  0  0  0  0  0  0  0  0
    2.3943    0.5619   -1.5194 C   0  0  0  0  0  0  0  0  0  0  0  0
   -2.4280   -0.3836    0.6182 C   0  0  0  0  0  0  0  0  0  0  0  0
   -2.9082   -0.3298   -0.7623 C   0  0  0  0  0  0  0  0  0  0  0  0
   -3.3063   -0.2864   -1.8941 C   0  0  0  0  0  0  0  0  0  0  0  0
  1  8  2  0
  2  9  2  0
  3  8  1  0
  3  9  1  0
  3 12  1  0
  4  5  1  0
  4  6  1  0
  4  8  1  0
  5  7  1  0
  5  9  1  0
  6 10  1  0
  7 11  1  0
 10 11  2  0
 12 13  1  0
 13 14  3  0
M  END
>  <PUBCHEM_COMPOUND_CID>  (1) 
41064

>  <PUBCHEM_CONFORMER_RMSD>  (1) 
0.6

>  <PUBCHEM_CONFORMER_DIVERSEORDER>  (1) 
1
7
4
8
5
6
3
2

>  <PUBCHEM_MMFF94_PARTIAL_CHARGES>  (1) 
17
1 -0.57
10 -0.29
11 -0.29
12 0.5
13 -0.2
14 -0.18
2 -0.57
21 0.15
22 0.15
25 0.18
3 -0.42
4 0.06
5 0.06
6 0.14
7 0.14
8 0.57
9 0.57

>  <PUBCHEM_EFFECTIVE_ROTOR_COUNT>  (1) 
1.6

>  <PUBCHEM_PHARMACOPHORE_FEATURES>  (1) 
5
1 1 acceptor
1 14 hydrophobe
1 2 acceptor
5 3 4 5 8 9 rings
6 4 5 6 7 10 11 rings

>  <PUBCHEM_HEAVY_ATOM_COUNT>  (1) 
14

>  <PUBCHEM_ATOM_DEF_STEREO_COUNT>  (1) 
0

>  <PUBCHEM_ATOM_UDEF_STEREO_COUNT>  (1) 
2

>  <PUBCHEM_BOND_DEF_STEREO_COUNT>  (1) 
0

>  <PUBCHEM_BOND_UDEF_STEREO_COUNT>  (1) 
0

>  <PUBCHEM_ISOTOPIC_ATOM_COUNT>  (1) 
0

>  <PUBCHEM_COMPONENT_COUNT>  (1) 
1

>  <PUBCHEM_CACTVS_TAUTO_COUNT>  (1) 
3

>  <PUBCHEM_CONFORMER_ID>  (1) 
0000A06800000001

>  <PUBCHEM_MMFF94_ENERGY>  (1) 
15.6378

>  <PUBCHEM_FEATURE_SELFOVERLAP>  (1) 
25.551

>  <PUBCHEM_SHAPE_FINGERPRINT>  (1) 
10353120 184 18341623602647427811
11206711 2 18338800013653250013
11471102 22 11311782764810965022
11769659 78 16057161704989876631
12202030 40 15913325736948381525
12423570 1 14156685118291753234
12491281 212 14779267484034874783
13380536 243 18113896065659236782
13571099 52 15719674359176005852
13764800 53 12829502423762929157
13839132 238 14345796045675529953
14761567 1 18264219165073103842
15775835 57 17458637742982921046
16945 1 18337971063838179016
17775402 16 18261116308773440789
18186145 218 18333733537239668877
20361792 2 17917429865031230221
20653085 51 16515692151528328965
23402539 116 18342462513145513404
23559900 14 18267037227278581628
2748010 2 17979645859200771730
276578 36 11602813554150191061
353137 74 18262252095879589072
4175511 376 17769638025783325621
449060 23 17346590889926665463
5084963 1 17169294669722276210
549884 4 18338225089620885261
63268167 104 17749120988748498324

>  <PUBCHEM_SHAPE_MULTIPOLES>  (1) 
271.39
4.55
1.74
1.51
1.9
0.06
0.56
-0.6
2.64
-0.23
-0.42
0.4
0.28
-0.41

>  <PUBCHEM_SHAPE_SELFOVERLAP>  (1) 
572.374

>  <PUBCHEM_SHAPE_VOLUME>  (1) 
151.4

>  <PUBCHEM_COORDINATE_TYPE>  (1) 
2
5
10

$$$$
