41075
     RDKit          3D

  6  5  0  0  0  0  0  0  0  0999 V2000
    2.5128    0.5545    0.6833 Br  0  0  0  0  0  0  0  0  0  0  0  0
   -0.4080   -1.7830    0.2397 Cl  0  0  0  0  0  0  0  0  0  0  0  0
   -0.0398   -0.1561   -0.2620 C   0  0  0  0  0  0  0  0  0  0  0  0
   -1.0117    0.7692   -0.1996 C   0  0  0  0  0  0  0  0  0  0  0  0
    1.3458    0.0341   -0.7848 C   0  0  0  0  0  0  0  0  0  0  0  0
   -2.3992    0.5814    0.3232 C   0  0  0  0  0  0  0  0  0  0  0  0
  1  5  1  0
  2  3  1  0
  3  4  2  0
  3  5  1  0
  4  6  1  0
M  END
>  <PUBCHEM_COMPOUND_CID>  (1) 
41075

>  <PUBCHEM_CONFORMER_RMSD>  (1) 
0.4

>  <PUBCHEM_CONFORMER_DIVERSEORDER>  (1) 
1
3
4
2

>  <PUBCHEM_MMFF94_PARTIAL_CHARGES>  (1) 
6
1 -0.23
2 -0.14
4 -0.29
5 0.37
6 0.14
7 0.15

>  <PUBCHEM_EFFECTIVE_ROTOR_COUNT>  (1) 
1

>  <PUBCHEM_PHARMACOPHORE_FEATURES>  (1) 
2
1 1 hydrophobe
1 6 hydrophobe

>  <PUBCHEM_HEAVY_ATOM_COUNT>  (1) 
6

>  <PUBCHEM_ATOM_DEF_STEREO_COUNT>  (1) 
0

>  <PUBCHEM_ATOM_UDEF_STEREO_COUNT>  (1) 
0

>  <PUBCHEM_BOND_DEF_STEREO_COUNT>  (1) 
0

>  <PUBCHEM_BOND_UDEF_STEREO_COUNT>  (1) 
1

>  <PUBCHEM_ISOTOPIC_ATOM_COUNT>  (1) 
0

>  <PUBCHEM_COMPONENT_COUNT>  (1) 
1

>  <PUBCHEM_CACTVS_TAUTO_COUNT>  (1) 
1

>  <PUBCHEM_CONFORMER_ID>  (1) 
0000A07300000001

>  <PUBCHEM_MMFF94_ENERGY>  (1) 
4.0517

>  <PUBCHEM_FEATURE_SELFOVERLAP>  (1) 
10.149

>  <PUBCHEM_SHAPE_FINGERPRINT>  (1) 
14390081 3 17561361764260146545
16714656 1 18333741229294019861
20096714 4 18059856125631514076
21040471 1 18336557048518526126
23552449 1 18055629761869121648
23552449 11 17756137895742174939
5943 1 15256078763010365398

>  <PUBCHEM_SHAPE_MULTIPOLES>  (1) 
131.29
3.29
1.4
0.88
0.77
0.78
0.01
-1.27
-0.81
-0.44
-0.18
0.29
-0.03
0.11

>  <PUBCHEM_SHAPE_SELFOVERLAP>  (1) 
213.762

>  <PUBCHEM_SHAPE_VOLUME>  (1) 
92.6

>  <PUBCHEM_COORDINATE_TYPE>  (1) 
2
5
10

$$$$
