41079
     RDKit          3D

 11 11  0  0  0  0  0  0  0  0999 V2000
    4.6155   -0.0097   -0.2004 Cl  0  0  0  0  0  0  0  0  0  0  0  0
    0.5365    0.0051    0.3544 C   0  0  0  0  0  0  0  0  0  0  0  0
    2.0016    0.0111    0.6347 C   0  0  0  0  0  0  0  0  0  0  0  0
   -1.5134   -1.2114   -0.0399 C   0  0  0  0  0  0  0  0  0  0  0  0
   -1.5233    1.2046   -0.0407 C   0  0  0  0  0  0  0  0  0  0  0  0
   -0.1535    1.2103    0.2224 C   0  0  0  0  0  0  0  0  0  0  0  0
   -0.1435   -1.2058    0.2233 C   0  0  0  0  0  0  0  0  0  0  0  0
   -2.2032   -0.0062   -0.1718 C   0  0  0  0  0  0  0  0  0  0  0  0
    2.8845    0.0150   -0.6193 C   0  0  0  0  0  0  0  0  0  0  0  0
   -2.2402   -2.5062   -0.1805 C   0  0  0  0  0  0  0  0  0  0  0  0
   -2.2609    2.4932   -0.1821 C   0  0  0  0  0  0  0  0  0  0  0  0
  1  9  1  0
  2  3  1  0
  2  6  2  0
  2  7  1  0
  3  9  1  0
  4  7  2  0
  4  8  1  0
  4 10  1  0
  5  6  1  0
  5  8  2  0
  5 11  1  0
M  END
>  <PUBCHEM_COMPOUND_CID>  (1) 
41079

>  <PUBCHEM_CONFORMER_RMSD>  (1) 
0.4

>  <PUBCHEM_CONFORMER_DIVERSEORDER>  (1) 
1
5
6
2
3
4

>  <PUBCHEM_MMFF94_PARTIAL_CHARGES>  (1) 
14
1 -0.29
10 0.14
11 0.14
14 0.15
15 0.15
16 0.15
2 -0.14
3 0.14
4 -0.14
5 -0.14
6 -0.15
7 -0.15
8 -0.15
9 0.29

>  <PUBCHEM_EFFECTIVE_ROTOR_COUNT>  (1) 
2

>  <PUBCHEM_PHARMACOPHORE_FEATURES>  (1) 
1
6 2 4 5 6 7 8 rings

>  <PUBCHEM_HEAVY_ATOM_COUNT>  (1) 
11

>  <PUBCHEM_ATOM_DEF_STEREO_COUNT>  (1) 
0

>  <PUBCHEM_ATOM_UDEF_STEREO_COUNT>  (1) 
0

>  <PUBCHEM_BOND_DEF_STEREO_COUNT>  (1) 
0

>  <PUBCHEM_BOND_UDEF_STEREO_COUNT>  (1) 
0

>  <PUBCHEM_ISOTOPIC_ATOM_COUNT>  (1) 
0

>  <PUBCHEM_COMPONENT_COUNT>  (1) 
1

>  <PUBCHEM_CACTVS_TAUTO_COUNT>  (1) 
1

>  <PUBCHEM_CONFORMER_ID>  (1) 
0000A07700000001

>  <PUBCHEM_MMFF94_ENERGY>  (1) 
23.2319

>  <PUBCHEM_FEATURE_SELFOVERLAP>  (1) 
5.074

>  <PUBCHEM_SHAPE_FINGERPRINT>  (1) 
1 1 17689150111180852277
11206711 2 18338504305360486677
12032990 46 18194120952427907635
12138202 97 18341329981292259750
12716758 59 18341610378369315906
13024252 1 17385446539719501515
15669948 3 18409160004951289482
15775835 57 18115028485516410084
16945 1 18410844469612787105
1741750 31 18268710506964356688
20645476 183 18188772738595873359
20645477 56 18339084796076739816
20645477 70 17041463485552959327
20711985 344 18338223951349290539
20871998 184 18272937158399705343
20871998 22 17907858749276286123
21040471 1 18194953059364980289
21061003 4 16916794032280608170
21524375 3 18044092345862149329
23380061 127 18409445908376716982
23402539 116 18341604919713757415
23552423 10 18116429430538171376
23557571 272 18272943730200795580
23559900 14 18200872860930534994
241688 4 18194114342646695627
2748010 2 18051114089405076251
3071541 12 17187849718804967597
3071541 250 17903082470817675855
573450 72 18261379032793122218
6333449 129 18341612598846432192
81228 2 18338507642681918449

>  <PUBCHEM_SHAPE_MULTIPOLES>  (1) 
228.24
5.62
2.27
0.72
8.41
0.02
0
-0.01
0.88
-3.02
0.16
0.19
0
0

>  <PUBCHEM_SHAPE_SELFOVERLAP>  (1) 
451.945

>  <PUBCHEM_SHAPE_VOLUME>  (1) 
134.5

>  <PUBCHEM_COORDINATE_TYPE>  (1) 
2
5
10

$$$$
