41083
     RDKit          3D

 22 22  0  0  1  0  0  0  0  0999 V2000
    1.4176    0.4053    1.5927 O   0  0  0  0  0  0  0  0  0  0  0  0
   -0.9985    1.4109   -0.7930 O   0  0  0  0  0  0  0  0  0  0  0  0
    0.6174   -1.7774   -0.1150 O   0  0  0  0  0  0  0  0  0  0  0  0
   -2.2199    0.8913    1.6922 O   0  0  0  0  0  0  0  0  0  0  0  0
    2.8930   -0.2000   -0.1298 O   0  0  0  0  0  0  0  0  0  0  0  0
   -1.2204    0.5082   -2.9078 O   0  0  0  0  0  0  0  0  0  0  0  0
   -0.7682   -2.5203   -1.8076 O   0  0  0  0  0  0  0  0  0  0  0  0
   -3.4834   -0.9345    1.0545 O   0  0  0  0  0  0  0  0  0  0  0  0
    3.9658    1.3928    1.1544 O   0  0  0  0  0  0  0  0  0  0  0  0
   -0.8543    0.1343   -0.1728 C   0  0  0  0  0  0  0  0  0  0  0  0
    0.5299   -0.4134   -0.5278 C   0  0  0  0  0  0  0  0  0  0  0  0
   -0.9929    0.2632    1.3487 C   0  0  0  0  0  0  0  0  0  0  0  0
    1.6323    0.3882    0.1796 C   0  0  0  0  0  0  0  0  0  0  0  0
    0.1838    1.0290    1.9459 C   0  0  0  0  0  0  0  0  0  0  0  0
   -0.9058    1.4207   -2.1559 C   0  0  0  0  0  0  0  0  0  0  0  0
   -0.2825   -2.6301   -0.6899 C   0  0  0  0  0  0  0  0  0  0  0  0
   -3.3462    0.2668    1.2418 C   0  0  0  0  0  0  0  0  0  0  0  0
    3.9806    0.4082    0.4280 C   0  0  0  0  0  0  0  0  0  0  0  0
   -0.3527    2.7352   -2.6167 C   0  0  0  0  0  0  0  0  0  0  0  0
   -0.6017   -3.7462    0.2579 C   0  0  0  0  0  0  0  0  0  0  0  0
   -4.4222    1.2819    1.0019 C   0  0  0  0  0  0  0  0  0  0  0  0
    5.2284   -0.3141    0.0188 C   0  0  0  0  0  0  0  0  0  0  0  0
  1 13  1  0
  1 14  1  0
  2 10  1  0
  2 15  1  0
  3 11  1  0
  3 16  1  0
  4 12  1  0
  4 17  1  0
  5 13  1  0
  5 18  1  0
  6 15  2  0
  7 16  2  0
  8 17  2  0
  9 18  2  0
 10 11  1  0
 10 12  1  0
 11 13  1  0
 12 14  1  0
 15 19  1  0
 16 20  1  0
 17 21  1  0
 18 22  1  0
M  END
>  <PUBCHEM_COMPOUND_CID>  (1) 
41083

>  <PUBCHEM_CONFORMER_RMSD>  (1) 
1

>  <PUBCHEM_CONFORMER_DIVERSEORDER>  (1) 
1
11
3
12
5
14
16
19
24
9
18
22
25
7
23
20
6
13
10
8
17
21
2
15
4

>  <PUBCHEM_MMFF94_PARTIAL_CHARGES>  (1) 
22
1 -0.56
10 0.28
11 0.28
12 0.28
13 0.56
14 0.28
15 0.66
16 0.66
17 0.66
18 0.66
19 0.06
2 -0.43
20 0.06
21 0.06
22 0.06
3 -0.43
4 -0.43
5 -0.43
6 -0.57
7 -0.57
8 -0.57
9 -0.57

>  <PUBCHEM_EFFECTIVE_ROTOR_COUNT>  (1) 
9.2

>  <PUBCHEM_PHARMACOPHORE_FEATURES>  (1) 
6
1 1 acceptor
1 6 acceptor
1 7 acceptor
1 8 acceptor
1 9 acceptor
6 1 10 11 12 13 14 rings

>  <PUBCHEM_HEAVY_ATOM_COUNT>  (1) 
22

>  <PUBCHEM_ATOM_DEF_STEREO_COUNT>  (1) 
4

>  <PUBCHEM_ATOM_UDEF_STEREO_COUNT>  (1) 
0

>  <PUBCHEM_BOND_DEF_STEREO_COUNT>  (1) 
0

>  <PUBCHEM_BOND_UDEF_STEREO_COUNT>  (1) 
0

>  <PUBCHEM_ISOTOPIC_ATOM_COUNT>  (1) 
0

>  <PUBCHEM_COMPONENT_COUNT>  (1) 
1

>  <PUBCHEM_CACTVS_TAUTO_COUNT>  (1) 
1

>  <PUBCHEM_CONFORMER_ID>  (1) 
0000A07B00000001

>  <PUBCHEM_MMFF94_ENERGY>  (1) 
52.3467

>  <PUBCHEM_FEATURE_SELFOVERLAP>  (1) 
30.454

>  <PUBCHEM_SHAPE_FINGERPRINT>  (1) 
10756046 70 17898307227383166551
11370993 70 18342463608124868795
11578080 2 17542816121214264948
12403814 3 18187640340730624416
12930653 34 17985846855863353105
13009979 54 17904489854260151799
13134695 92 17241624981678751029
14178342 30 18191895391054269675
14787075 74 17703791470051553307
14817 1 10323342478960177951
16945 1 18115892787217370305
17980427 23 18188788248387820297
18915476 22 18050842217806616631
19010151 120 17095818675704590561
19873495 37 17060338491837389720
20344682 1 18187936049044389921
20600515 1 16516836713168507245
21330990 113 18336839610180225206
21524375 3 16988288573096060776
229495 10 17911227326734236309
23402539 116 17530687610501290593
23419403 2 17757837723396513631
23526113 38 16893128908413629583
23557571 272 17459482043485660149
3250762 1 17538844676824827943
4340502 62 18202010893402492955
5845 1 13393213260805796845
59755656 520 18201719535869661742
81228 2 18048857878570735986
8272917 22 17772764762375409321
9925002 15 17976269250375530805
9999458 23 18201727257994182345

>  <PUBCHEM_SHAPE_MULTIPOLES>  (1) 
399.93
6.41
2.9
2.37
5.28
2.21
1
-1.5
-3.72
-1.06
2.22
-1.18
-1.2
0.38

>  <PUBCHEM_SHAPE_SELFOVERLAP>  (1) 
810.414

>  <PUBCHEM_SHAPE_VOLUME>  (1) 
228.8

>  <PUBCHEM_COORDINATE_TYPE>  (1) 
2
5
10

$$$$
