41086
     RDKit          3D

 29 32  0  0  1  0  0  0  0  0999 V2000
   -1.8833   -1.0124    1.9385 O   0  0  0  0  0  0  0  0  0  0  0  0
   -1.4935   -0.2004   -2.8424 O   0  0  0  0  0  0  0  0  0  0  0  0
   -3.4597    0.6179    0.8880 C   0  0  0  0  0  0  0  0  0  0  0  0
   -5.1278    1.2998   -1.3778 C   0  0  0  0  0  0  0  0  0  0  0  0
   -2.7415    0.1315    2.1474 C   0  0  0  0  0  0  0  0  0  0  0  0
   -3.0282    0.2778   -0.3434 C   0  0  0  0  0  0  0  0  0  0  0  0
   -3.7224    0.7229   -1.6094 C   0  0  0  0  0  0  0  0  0  0  0  0
   -4.6583    1.5271    1.0778 C   0  0  0  0  0  0  0  0  0  0  0  0
   -5.1020    2.2583   -0.1894 C   0  0  0  0  0  0  0  0  0  0  0  0
   -1.8110   -0.5470   -0.4421 C   0  0  0  0  0  0  0  0  0  0  0  0
   -1.3041   -1.1525    0.7107 C   0  0  0  0  0  0  0  0  0  0  0  0
   -5.6450    1.9935   -2.6360 C   0  0  0  0  0  0  0  0  0  0  0  0
   -1.8632    1.2481    2.7357 C   0  0  0  0  0  0  0  0  0  0  0  0
   -3.7368   -0.3459    3.2185 C   0  0  0  0  0  0  0  0  0  0  0  0
   -1.1394   -0.7723   -1.6548 C   0  0  0  0  0  0  0  0  0  0  0  0
    0.4712   -2.1981   -0.5543 C   0  0  0  0  0  0  0  0  0  0  0  0
   -0.1803   -1.9838    0.6561 C   0  0  0  0  0  0  0  0  0  0  0  0
    1.6757   -3.0743   -0.6116 C   0  0  0  0  0  0  0  0  0  0  0  0
   -0.0061   -1.5887   -1.7095 C   0  0  0  0  0  0  0  0  0  0  0  0
    2.8662   -2.5806    0.2600 C   0  0  0  0  0  0  0  0  0  0  0  0
    1.3329   -4.5288   -0.2238 C   0  0  0  0  0  0  0  0  0  0  0  0
    3.3418   -1.1752   -0.1380 C   0  0  0  0  0  0  0  0  0  0  0  0
    4.4970   -0.6663    0.7330 C   0  0  0  0  0  0  0  0  0  0  0  0
    4.9959    0.7036    0.3478 C   0  0  0  0  0  0  0  0  0  0  0  0
    6.0149    0.8195   -0.5858 C   0  0  0  0  0  0  0  0  0  0  0  0
    4.4276    1.8250    0.9329 C   0  0  0  0  0  0  0  0  0  0  0  0
    6.4764    2.0865   -0.9424 C   0  0  0  0  0  0  0  0  0  0  0  0
    4.8891    3.0920    0.5761 C   0  0  0  0  0  0  0  0  0  0  0  0
    5.9136    3.2227   -0.3615 C   0  0  0  0  0  0  0  0  0  0  0  0
  1  5  1  0
  1 11  1  0
  2 15  1  0
  3  5  1  0
  3  6  2  0
  3  8  1  0
  4  7  1  0
  4  9  1  0
  4 12  1  0
  5 13  1  0
  5 14  1  0
  6  7  1  0
  6 10  1  0
  8  9  1  0
 10 11  2  0
 10 15  1  0
 11 17  1  0
 15 19  2  0
 16 17  2  0
 16 18  1  0
 16 19  1  0
 18 20  1  0
 18 21  1  0
 20 22  1  0
 22 23  1  0
 23 24  1  0
 24 25  2  0
 24 26  1  0
 25 27  1  0
 26 28  2  0
 27 29  2  0
 28 29  1  0
M  END
>  <PUBCHEM_COMPOUND_CID>  (1) 
41086

>  <PUBCHEM_CONFORMER_RMSD>  (1) 
0.8

>  <PUBCHEM_CONFORMER_DIVERSEORDER>  (1) 
1
50
14
130
135
138
125
88
142
133
48
137
110
59
70
75
20
144
82
100
103
28
57
79
24
21
84
91
33
148
146
64
143
90
126
40
96
77
5
47
52
132
7
139
122
116
18
49
106
120
92
86
29
123
89
35
51
136
15
105
31
115
141
94
78
8
112
102
101
145
3
80
55
118
121
124
26
108
54
140
65
111
43
93
39
97
117
16
60
85
127
119
56
4
13
71
44
23
45
38
113
58
131
73
34
128
114
27
104
76
107
95
25
2
19
72
149
129
32
74
53
46
134
30
22
68
109
147
98
63
83
69
61
87
10
66
41
11
9
81
42
67
12
6
99
62
37
17
36

>  <PUBCHEM_MMFF94_PARTIAL_CHARGES>  (1) 
29
1 -0.36
10 0.03
11 0.08
15 0.08
16 -0.14
17 -0.15
18 0.14
19 -0.15
2 -0.53
23 0.14
24 -0.14
25 -0.15
26 -0.15
27 -0.15
28 -0.15
29 -0.15
3 -0.28
46 0.15
48 0.15
5 0.42
56 0.45
59 0.15
6 -0.17
60 0.15
61 0.15
62 0.15
63 0.15
7 0.14
8 0.14

>  <PUBCHEM_EFFECTIVE_ROTOR_COUNT>  (1) 
6.2

>  <PUBCHEM_PHARMACOPHORE_FEATURES>  (1) 
9
1 1 acceptor
1 2 donor
1 21 hydrophobe
3 5 13 14 hydrophobe
4 18 20 22 23 hydrophobe
6 1 3 5 6 10 11 rings
6 10 11 15 16 17 19 rings
6 24 25 26 27 28 29 rings
6 3 4 6 7 8 9 rings

>  <PUBCHEM_HEAVY_ATOM_COUNT>  (1) 
29

>  <PUBCHEM_ATOM_DEF_STEREO_COUNT>  (1) 
0

>  <PUBCHEM_ATOM_UDEF_STEREO_COUNT>  (1) 
2

>  <PUBCHEM_BOND_DEF_STEREO_COUNT>  (1) 
0

>  <PUBCHEM_BOND_UDEF_STEREO_COUNT>  (1) 
0

>  <PUBCHEM_ISOTOPIC_ATOM_COUNT>  (1) 
0

>  <PUBCHEM_COMPONENT_COUNT>  (1) 
1

>  <PUBCHEM_CACTVS_TAUTO_COUNT>  (1) 
20

>  <PUBCHEM_CONFORMER_ID>  (1) 
0000A07E00000001

>  <PUBCHEM_MMFF94_ENERGY>  (1) 
78.8206

>  <PUBCHEM_FEATURE_SELFOVERLAP>  (1) 
45.718

>  <PUBCHEM_SHAPE_FINGERPRINT>  (1) 
10319688 67 16153427225853392513
10319926 262 16732990790968800898
10670039 82 16845296016810297768
10937287 8 18341045320151902742
11112241 14 18187362095817363869
11578080 2 18335426725602536067
12422481 6 13623797289952612064
12559416 39 10014484298753607940
12633257 1 16008750225393785100
12655364 74 15729562491264404300
13590594 115 17622740717498280018
13994607 96 17988091091865239210
14705955 166 17024294224863613236
14840074 17 18130799957229869776
14848178 96 18343303687017497890
14950920 106 14563349862493425260
15131766 46 18131636651778018977
15274700 21 18052824929509121483
15324884 4 17679327199090619915
15444296 8 16256172978942853342
15475509 35 11387525926452923213
15475509 8 13901905627137810803
15513586 35 16592529516598404492
15629462 23 16319480650777636366
15728490 83 9366256339424377020
16067690 210 16988016006356984064
16991981 162 17416402284856918726
18470217 77 17531251690558754553
21033648 29 17531536373659588465
21033650 10 15123519081455288402
21388113 180 18334010558393790068
21585483 110 18409727357230936652
21641784 216 16629669653389528121
22122407 14 18267027167378367592
23559900 14 16952551073454875487
23929065 36 17095248021412991361
2838139 119 18340198579685687813
44062 13 10159439603674204322
44344687 77 16551402300961459223
469060 322 17025430273920678610
474 4 18271523109374636578
58902169 19 17845080775895132470
6034566 193 18339083812544728700
6608658 132 17346602928388031752
6700243 42 14333120845470968073
7288768 16 18261960768749211394
7970288 3 9007060162753262060

>  <PUBCHEM_SHAPE_MULTIPOLES>  (1) 
585.07
14.76
4.03
2.55
13.19
2.19
-0.65
-17.21
2.65
5.23
0.63
-4.73
-0.6
1

>  <PUBCHEM_SHAPE_SELFOVERLAP>  (1) 
1253.889

>  <PUBCHEM_SHAPE_VOLUME>  (1) 
323.6

>  <PUBCHEM_COORDINATE_TYPE>  (1) 
2
5
10

$$$$
