41100
     RDKit          3D

 20 19  0  0  1  0  0  0  0  0999 V2000
    2.4574    2.1230    1.2736 O   0  0  0  0  0  0  0  0  0  0  0  0
    7.0013   -1.0833   -0.0159 O   0  0  0  0  0  0  0  0  0  0  0  0
    4.3053    0.1221   -0.1071 N   0  0  0  0  0  0  0  0  0  0  0  0
    4.6549   -1.2587   -0.0261 N   0  0  0  0  0  0  0  0  0  0  0  0
    2.8194    0.1678   -0.1034 C   0  0  0  0  0  0  0  0  0  0  0  0
    2.3659    1.6240   -0.0598 C   0  0  0  0  0  0  0  0  0  0  0  0
    0.9372    1.8244   -0.5872 C   0  0  0  0  0  0  0  0  0  0  0  0
   -0.1412    1.0311    0.1619 C   0  0  0  0  0  0  0  0  0  0  0  0
   -1.5248    1.2748   -0.4487 C   0  0  0  0  0  0  0  0  0  0  0  0
   -2.6428    0.4871    0.2408 C   0  0  0  0  0  0  0  0  0  0  0  0
    4.8786    0.6503   -1.4108 C   0  0  0  0  0  0  0  0  0  0  0  0
    4.8897    0.8017    1.1194 C   0  0  0  0  0  0  0  0  0  0  0  0
   -4.0134    0.6733   -0.4158 C   0  0  0  0  0  0  0  0  0  0  0  0
   -5.0749   -0.1923    0.2687 C   0  0  0  0  0  0  0  0  0  0  0  0
   -6.4635   -0.0672   -0.3651 C   0  0  0  0  0  0  0  0  0  0  0  0
   -7.5302   -0.9130    0.3338 C   0  0  0  0  0  0  0  0  0  0  0  0
    5.9606   -1.7327    0.0119 C   0  0  0  0  0  0  0  0  0  0  0  0
   -8.8963   -0.7409   -0.3320 C   0  0  0  0  0  0  0  0  0  0  0  0
    5.9849   -3.2375    0.0852 C   0  0  0  0  0  0  0  0  0  0  0  0
   -9.9680   -1.5540    0.3766 C   0  0  0  0  0  0  0  0  0  0  0  0
  1  6  1  0
  2 17  2  0
  3  4  1  0
  3  5  1  0
  3 11  1  0
  3 12  1  0
  4 17  1  0
  5  6  1  0
  6  7  1  0
  7  8  1  0
  8  9  1  0
  9 10  1  0
 10 13  1  0
 13 14  1  0
 14 15  1  0
 15 16  1  0
 16 18  1  0
 17 19  1  0
 18 20  1  0
M  CHG  1   3   1
M  END
>  <PUBCHEM_COMPOUND_CID>  (1) 
41100

>  <PUBCHEM_CONFORMER_RMSD>  (1) 
1.4

>  <PUBCHEM_CONFORMER_DIVERSEORDER>  (1) 
1
72
40
19
84
96
78
27
61
79
2
15
4
53
38
55
39
81
64
70
21
82
63
13
47
85
6
60
93
33
65
23
22
50
74
31
30
97
95
48
66
3
46
99
59
41
62
24
25
34
101
9
98
77
5
16
51
56
42
10
36
37
58
45
52
71
90
73
88
17
20
67
69
75
32
43
8
92
29
76
54
14
89
18
7
91
94
80
100
86
87
83
35
11
26
28
57
44
68
12
49

>  <PUBCHEM_MMFF94_PARTIAL_CHARGES>  (1) 
12
1 -0.68
11 0.5
12 0.5
17 0.57
19 0.06
2 -0.57
3 -0.76
4 -0.18
40 0.37
45 0.4
5 0.5
6 0.28

>  <PUBCHEM_EFFECTIVE_ROTOR_COUNT>  (1) 
13

>  <PUBCHEM_PHARMACOPHORE_FEATURES>  (1) 
5
1 1 acceptor
1 1 donor
1 2 acceptor
1 20 hydrophobe
1 4 donor

>  <PUBCHEM_HEAVY_ATOM_COUNT>  (1) 
20

>  <PUBCHEM_ATOM_DEF_STEREO_COUNT>  (1) 
0

>  <PUBCHEM_ATOM_UDEF_STEREO_COUNT>  (1) 
1

>  <PUBCHEM_BOND_DEF_STEREO_COUNT>  (1) 
0

>  <PUBCHEM_BOND_UDEF_STEREO_COUNT>  (1) 
0

>  <PUBCHEM_ISOTOPIC_ATOM_COUNT>  (1) 
0

>  <PUBCHEM_COMPONENT_COUNT>  (1) 
1

>  <PUBCHEM_CACTVS_TAUTO_COUNT>  (1) 
2

>  <PUBCHEM_CONFORMER_ID>  (1) 
0000A08C00000001

>  <PUBCHEM_MMFF94_ENERGY>  (1) 
38.0137

>  <PUBCHEM_FEATURE_SELFOVERLAP>  (1) 
25.372

>  <PUBCHEM_SHAPE_FINGERPRINT>  (1) 
10066227 49 18408322173318572939
106641 1 17918268758544528056
10666366 153 18114174230133826597
11315181 36 10665224844978918549
11638347 137 15482680065195171373
125118 31 9367355833956186191
12592606 108 18410012165803427615
13533116 47 18343580771799660616
13668630 136 18113335324014980435
13685833 64 18411418410187351033
13885169 127 18409165481784009437
14026016 60 15430303673871660706
14216079 64 18409448077145531255
14251757 52 10159699084234012671
14251764 18 18060139851166020929
14617042 71 9511462239167202627
15183329 4 16370723712644317421
15475509 35 18200867397352430674
155225 6 11022667325303565842
15690457 1 18343299284671037031
17134984 74 17822289051177020498
1768 124 18131632253288487022
1768 4 9295282872852243183
18335252 114 12035447229559034870
20165401 70 18343016692460108375
2026 5 18263359205284172883
20281389 69 11815903344804818531
20526848 3 8862938385970246495
20621476 38 18409448098968241511
20721686 124 11025790982372781064
20735858 18 16845856793631541413
21095123 145 13912327890211790945
21130971 5 17273427072103681854
21130990 3 18058456409466720678
21130991 4 17895749596256164074
21150785 3 13406791139019542601
21267235 1 18408604760506846237
21315763 28 18413108386431612617
21344244 78 16559030480695990328
22224240 67 12607405490732523389
22956985 138 17627526930100027422
246663 6 18113057147599565851
270888 7 9150587112419162638
28498 318 18334855022811655285
3004659 81 17748828501676269716
33532 11 18410573994517157607
445580 126 9223230724262861406
465052 167 18343021073589760356
5104073 3 16486395724625877933
58260988 587 18129091407335970264
59755656 215 17603863399865543331
636775 72 10519722081740687947
6438161 24 18335416867940506243

>  <PUBCHEM_SHAPE_MULTIPOLES>  (1) 
389.89
28.59
2.34
0.9
59.2
1.38
0.01
22.58
0.44
-4.42
0.15
-0.74
-0.29
0.56

>  <PUBCHEM_SHAPE_SELFOVERLAP>  (1) 
719.864

>  <PUBCHEM_SHAPE_VOLUME>  (1) 
247.8

>  <PUBCHEM_COORDINATE_TYPE>  (1) 
2
5
10

$$$$
