41108
     RDKit          3D

 21 22  0  0  1  0  0  0  0  0999 V2000
    4.3559   -1.9126   -0.7228 O   0  0  0  0  0  0  0  0  0  0  0  0
    0.7516   -1.1526   -0.2170 N   0  0  0  0  0  0  0  0  0  0  0  0
   -5.2969    0.8679   -0.1535 N   0  0  0  0  0  0  0  0  0  0  0  0
    2.0186   -1.8702   -0.0285 C   0  0  0  0  0  0  0  0  0  0  0  0
    3.1273   -1.1946   -0.8667 C   0  0  0  0  0  0  0  0  0  0  0  0
   -0.3181   -1.8073    0.5159 C   0  0  0  0  0  0  0  0  0  0  0  0
    2.3373   -1.8804    1.4678 C   0  0  0  0  0  0  0  0  0  0  0  0
    3.4080    0.2370   -0.4628 C   0  0  0  0  0  0  0  0  0  0  0  0
   -1.6348   -1.0991    0.3383 C   0  0  0  0  0  0  0  0  0  0  0  0
    2.7022    1.2607   -1.0705 C   0  0  0  0  0  0  0  0  0  0  0  0
    4.3639    0.4904    0.5053 C   0  0  0  0  0  0  0  0  0  0  0  0
   -2.4719   -1.4651   -0.7061 C   0  0  0  0  0  0  0  0  0  0  0  0
   -1.9930   -0.0910    1.2224 C   0  0  0  0  0  0  0  0  0  0  0  0
   -4.0631    0.2050    0.0124 C   0  0  0  0  0  0  0  0  0  0  0  0
   -3.6923   -0.8097   -0.8700 C   0  0  0  0  0  0  0  0  0  0  0  0
   -3.2133    0.5645    1.0587 C   0  0  0  0  0  0  0  0  0  0  0  0
    2.9607    2.5799   -0.6982 C   0  0  0  0  0  0  0  0  0  0  0  0
    4.6222    1.8097    0.8776 C   0  0  0  0  0  0  0  0  0  0  0  0
    3.9205    2.8544    0.2757 C   0  0  0  0  0  0  0  0  0  0  0  0
   -5.8773    1.0192   -1.4729 C   0  0  0  0  0  0  0  0  0  0  0  0
   -6.0075    1.3941    0.9950 C   0  0  0  0  0  0  0  0  0  0  0  0
  1  5  1  0
  2  4  1  0
  2  6  1  0
  3 14  1  0
  3 20  1  0
  3 21  1  0
  4  5  1  0
  4  7  1  0
  5  8  1  0
  6  9  1  0
  8 10  2  0
  8 11  1  0
  9 12  2  0
  9 13  1  0
 10 17  1  0
 11 18  2  0
 12 15  1  0
 13 16  2  0
 14 15  2  0
 14 16  1  0
 17 19  2  0
 18 19  1  0
M  END
>  <PUBCHEM_COMPOUND_CID>  (1) 
41108

>  <PUBCHEM_CONFORMER_RMSD>  (1) 
0.8

>  <PUBCHEM_CONFORMER_DIVERSEORDER>  (1) 
9
8
4
34
24
10
31
15
28
27
23
25
11
18
20
7
12
33
26
1
16
19
5
2
30
14
29
21
22
32
17
3
13
6

>  <PUBCHEM_MMFF94_PARTIAL_CHARGES>  (1) 
31
1 -0.68
10 -0.15
11 -0.15
12 -0.15
13 -0.15
14 0.1
15 -0.15
16 -0.15
17 -0.15
18 -0.15
19 -0.15
2 -0.9
20 0.37
21 0.37
24 0.36
3 -0.84
30 0.15
31 0.15
32 0.15
33 0.15
34 0.4
35 0.15
36 0.15
37 0.15
38 0.15
39 0.15
4 0.27
5 0.42
6 0.41
8 -0.14
9 -0.14

>  <PUBCHEM_EFFECTIVE_ROTOR_COUNT>  (1) 
6

>  <PUBCHEM_PHARMACOPHORE_FEATURES>  (1) 
7
1 1 acceptor
1 1 donor
1 2 cation
1 2 donor
1 3 cation
6 8 10 11 17 18 19 rings
6 9 12 13 14 15 16 rings

>  <PUBCHEM_HEAVY_ATOM_COUNT>  (1) 
21

>  <PUBCHEM_ATOM_DEF_STEREO_COUNT>  (1) 
0

>  <PUBCHEM_ATOM_UDEF_STEREO_COUNT>  (1) 
2

>  <PUBCHEM_BOND_DEF_STEREO_COUNT>  (1) 
0

>  <PUBCHEM_BOND_UDEF_STEREO_COUNT>  (1) 
0

>  <PUBCHEM_ISOTOPIC_ATOM_COUNT>  (1) 
0

>  <PUBCHEM_COMPONENT_COUNT>  (1) 
1

>  <PUBCHEM_CACTVS_TAUTO_COUNT>  (1) 
1

>  <PUBCHEM_CONFORMER_ID>  (1) 
0000A09400000009

>  <PUBCHEM_MMFF94_ENERGY>  (1) 
70.0106

>  <PUBCHEM_FEATURE_SELFOVERLAP>  (1) 
35.52

>  <PUBCHEM_SHAPE_FINGERPRINT>  (1) 
10498660 4 18059860613903831320
11089746 13 18335979787734438334
11128504 68 17917427606052440759
11595378 159 13695864792817754295
11796584 16 12751225975273874509
12633257 1 15574715836975536623
12839892 36 13840272485683999249
13103583 49 11819814272804225334
13878862 14 17896578640543600183
13955234 65 18189616042777834571
14251764 30 11242785077917764024
14251764 38 18045220702532262412
14251764 75 18117851116179869973
14341114 176 8358259263176420685
14420673 8 10883047962483609216
14528608 73 18412824685928437919
14790565 3 18057897844695604673
14848178 96 18410014376878128768
17810953 82 18410015437703493292
17959699 21 18342458136373456673
18335252 114 18193269698842049725
193927 3 10735878387272305319
19752476 56 18342177791015394736
20157964 124 18410570678548853437
20511986 3 18129646595312380292
20554085 129 15936679390858309149
20621476 13 18265898140967837904
20715895 44 18409724045647250833
21033648 144 18408318899999216303
21033648 29 17313100826701569301
212916 134 16515404062745035915
21298829 104 18343303664873632089
21304303 282 16913100876424752710
21315763 76 18412819200923216345
21452121 103 18411132559161036314
21475661 188 18260266399623564000
21503847 285 18410015416597675062
21860390 5 18343029917091063908
22079108 93 17895203203538214435
22122407 14 18193570969619148057
22224240 67 8573844842221368302
22749437 52 18266465480461647208
22950370 63 9006515938761707984
22956985 138 8269990547377935670
23227448 37 18410012178202864167
23559900 14 18201440246725875790
2838139 119 17971456418152579805
3472631 163 18272370875904849877
474 4 18335984259080022194
5104073 3 18260831509924748811
543358 83 18413672396170824224
57724786 102 17459193035537486444
5895379 119 17416983728944804408
6328613 192 18118128198607576460
633830 44 18412259532404112399
67856867 119 18271799129758653618
960060 61 15051738581363313931
9971528 1 18271247128162172958
9981440 41 18195242450267579154

>  <PUBCHEM_SHAPE_MULTIPOLES>  (1) 
416.34
13.56
2.74
1.28
12.8
0.7
-0.06
7.88
0.76
-3.29
-0.04
0.51
0.05
-0.03

>  <PUBCHEM_SHAPE_SELFOVERLAP>  (1) 
868.461

>  <PUBCHEM_SHAPE_VOLUME>  (1) 
238.2

>  <PUBCHEM_COORDINATE_TYPE>  (1) 
2
5
10

$$$$
