41117
     RDKit          3D

 16 18  0  0  0  0  0  0  0  0999 V2000
   -2.2936   -2.5217   -0.0002 Cl  0  0  0  0  0  0  0  0  0  0  0  0
   -4.7728   -0.4788   -0.0002 Cl  0  0  0  0  0  0  0  0  0  0  0  0
    0.2853   -1.1956   -0.0001 O   0  0  0  0  0  0  0  0  0  0  0  0
    0.7240    1.6243   -0.0002 O   0  0  0  0  0  0  0  0  0  0  0  0
   -0.7502   -0.2958    0.0000 C   0  0  0  0  0  0  0  0  0  0  0  0
   -0.5360    1.0816   -0.0001 C   0  0  0  0  0  0  0  0  0  0  0  0
    1.5454   -0.6530    0.0000 C   0  0  0  0  0  0  0  0  0  0  0  0
    1.7597    0.7245   -0.0002 C   0  0  0  0  0  0  0  0  0  0  0  0
   -2.0489   -0.8037    0.0000 C   0  0  0  0  0  0  0  0  0  0  0  0
   -1.6189    1.9599    0.0002 C   0  0  0  0  0  0  0  0  0  0  0  0
    2.6285   -1.5313    0.0002 C   0  0  0  0  0  0  0  0  0  0  0  0
    3.0584    1.2323   -0.0002 C   0  0  0  0  0  0  0  0  0  0  0  0
   -3.1335    0.0739    0.0002 C   0  0  0  0  0  0  0  0  0  0  0  0
   -2.9189    1.4533    0.0002 C   0  0  0  0  0  0  0  0  0  0  0  0
    3.9284   -1.0247    0.0002 C   0  0  0  0  0  0  0  0  0  0  0  0
    4.1430    0.3547    0.0000 C   0  0  0  0  0  0  0  0  0  0  0  0
  1  9  1  0
  2 13  1  0
  3  5  1  0
  3  7  1  0
  4  6  1  0
  4  8  1  0
  5  6  2  0
  5  9  1  0
  6 10  1  0
  7  8  2  0
  7 11  1  0
  8 12  1  0
  9 13  2  0
 10 14  2  0
 11 15  2  0
 12 16  2  0
 13 14  1  0
 15 16  1  0
M  END
>  <PUBCHEM_COMPOUND_CID>  (1) 
41117

>  <PUBCHEM_CONFORMER_RMSD>  (1) 
0.4

>  <PUBCHEM_CONFORMER_DIVERSEORDER>  (1) 
1

>  <PUBCHEM_MMFF94_PARTIAL_CHARGES>  (1) 
22
1 -0.18
10 -0.15
11 -0.15
12 -0.15
13 0.18
14 -0.15
15 -0.15
16 -0.15
17 0.15
18 0.15
19 0.15
2 -0.18
20 0.15
21 0.15
22 0.15
3 -0.17
4 -0.17
5 0.08
6 0.08
7 0.08
8 0.08
9 0.18

>  <PUBCHEM_EFFECTIVE_ROTOR_COUNT>  (1) 
0.4

>  <PUBCHEM_PHARMACOPHORE_FEATURES>  (1) 
5
1 3 acceptor
1 4 acceptor
6 3 4 5 6 7 8 rings
6 5 6 9 10 13 14 rings
6 7 8 11 12 15 16 rings

>  <PUBCHEM_HEAVY_ATOM_COUNT>  (1) 
16

>  <PUBCHEM_ATOM_DEF_STEREO_COUNT>  (1) 
0

>  <PUBCHEM_ATOM_UDEF_STEREO_COUNT>  (1) 
0

>  <PUBCHEM_BOND_DEF_STEREO_COUNT>  (1) 
0

>  <PUBCHEM_BOND_UDEF_STEREO_COUNT>  (1) 
0

>  <PUBCHEM_ISOTOPIC_ATOM_COUNT>  (1) 
0

>  <PUBCHEM_COMPONENT_COUNT>  (1) 
1

>  <PUBCHEM_CACTVS_TAUTO_COUNT>  (1) 
1

>  <PUBCHEM_CONFORMER_ID>  (1) 
0000A09D00000001

>  <PUBCHEM_MMFF94_ENERGY>  (1) 
46.9481

>  <PUBCHEM_FEATURE_SELFOVERLAP>  (1) 
25.449

>  <PUBCHEM_SHAPE_FINGERPRINT>  (1) 
10608611 8 18411415098968175272
10616163 171 18412266168112656438
10967382 1 18410575088989805158
11132069 177 18410849975708197520
11471102 20 18410008849307667580
11806522 49 18409165536805642303
12032990 46 18411422778105605620
12251169 10 18411419513888191175
13140716 1 18195245739679147411
13221675 6 18410011035229801819
13380535 76 18412544284308656647
13862211 1 18411132554882250503
14115302 16 18113626719717519559
14144814 61 18410573946597004880
14325111 11 18410575054799092704
15196674 1 18410575046013706469
15442244 35 18266176119956623154
15536298 74 18342457032714554448
16945 1 18410575110496381093
17802600 8 18410851053539416272
17804303 29 18341335513284171524
17834074 16 18410576188538434194
18186145 218 18115025204039699996
18522853 276 18412824685506444633
19141452 34 18271810168141024407
200 152 18130779058572621701
20510252 161 18200595796041426809
20645477 70 18411980230612093350
21029758 11 18343013398578433385
21267235 1 18410583872261495334
21501502 16 18410293614250419372
221490 88 18337116769210565154
2334 1 18266740375216118438
23402539 116 18343575244846137495
23402655 69 18340482279334028165
23463225 33 18408886209391843820
23557571 272 18202292376937548028
23559900 14 18341325669699281096
2748010 2 17329428861757205544
2871803 45 18334289859984835655
3312278 4 18411421743002598194
335352 9 18194683657282746166
34934 24 18338509837056901955
4214541 1 18410575050356237472
474 4 17241339104534739300
5104073 3 18411418371442806616
54173680 148 18337674242811925027
69090 78 18412823582026962055
7364860 26 18341049739356843216
8809292 202 18334579078766722579
9709674 26 18341618087799176286

>  <PUBCHEM_SHAPE_MULTIPOLES>  (1) 
321.27
7.74
2.14
0.61
0.36
0.36
0
1.05
0
-0.74
0
-0.02
0.01
0

>  <PUBCHEM_SHAPE_SELFOVERLAP>  (1) 
702.475

>  <PUBCHEM_SHAPE_VOLUME>  (1) 
174.8

>  <PUBCHEM_COORDINATE_TYPE>  (1) 
2
5
10

$$$$
