41113
     RDKit          3D

 13 13  0  0  1  0  0  0  0  0999 V2000
    2.9440    1.7261    0.4340 O   0  0  0  0  0  0  0  0  0  0  0  0
   -3.1224   -0.1364   -0.2242 C   0  0  0  0  0  0  0  0  0  0  0  0
   -1.6398    0.0241   -0.2198 C   0  0  0  0  0  0  0  0  0  0  0  0
    2.6164    0.4849   -0.2074 C   0  0  0  0  0  0  0  0  0  0  0  0
    1.1339    0.3241   -0.2118 C   0  0  0  0  0  0  0  0  0  0  0  0
    3.3810   -0.6472    0.5108 C   0  0  0  0  0  0  0  0  0  0  0  0
   -0.9480    0.1476   -1.4248 C   0  0  0  0  0  0  0  0  0  0  0  0
   -0.9446    0.0507    0.9893 C   0  0  0  0  0  0  0  0  0  0  0  0
    0.4388    0.2975   -1.4208 C   0  0  0  0  0  0  0  0  0  0  0  0
    0.4421    0.2008    0.9932 C   0  0  0  0  0  0  0  0  0  0  0  0
   -3.8426    1.0258    0.4857 C   0  0  0  0  0  0  0  0  0  0  0  0
   -3.5715   -1.4785    0.3843 C   0  0  0  0  0  0  0  0  0  0  0  0
    3.1127   -2.0196   -0.0885 C   0  0  0  0  0  0  0  0  0  0  0  0
  1  4  1  0
  2  3  1  0
  2 11  1  0
  2 12  1  0
  3  7  2  0
  3  8  1  0
  4  5  1  0
  4  6  1  0
  5  9  2  0
  5 10  1  0
  6 13  1  0
  7  9  1  0
  8 10  2  0
M  END
>  <PUBCHEM_COMPOUND_CID>  (1) 
41113

>  <PUBCHEM_CONFORMER_RMSD>  (1) 
0.6

>  <PUBCHEM_CONFORMER_DIVERSEORDER>  (1) 
1
9
10
13
7
12
5
2
4
3
8
11
6

>  <PUBCHEM_MMFF94_PARTIAL_CHARGES>  (1) 
14
1 -0.68
10 -0.15
18 0.15
19 0.15
2 0.14
20 0.15
21 0.15
3 -0.14
31 0.4
4 0.42
5 -0.14
7 -0.15
8 -0.15
9 -0.15

>  <PUBCHEM_EFFECTIVE_ROTOR_COUNT>  (1) 
3

>  <PUBCHEM_PHARMACOPHORE_FEATURES>  (1) 
5
1 1 acceptor
1 1 donor
1 13 hydrophobe
3 2 11 12 hydrophobe
6 3 5 7 8 9 10 rings

>  <PUBCHEM_HEAVY_ATOM_COUNT>  (1) 
13

>  <PUBCHEM_ATOM_DEF_STEREO_COUNT>  (1) 
0

>  <PUBCHEM_ATOM_UDEF_STEREO_COUNT>  (1) 
1

>  <PUBCHEM_BOND_DEF_STEREO_COUNT>  (1) 
0

>  <PUBCHEM_BOND_UDEF_STEREO_COUNT>  (1) 
0

>  <PUBCHEM_ISOTOPIC_ATOM_COUNT>  (1) 
0

>  <PUBCHEM_COMPONENT_COUNT>  (1) 
1

>  <PUBCHEM_CACTVS_TAUTO_COUNT>  (1) 
1

>  <PUBCHEM_CONFORMER_ID>  (1) 
0000A09900000001

>  <PUBCHEM_MMFF94_ENERGY>  (1) 
28.6964

>  <PUBCHEM_FEATURE_SELFOVERLAP>  (1) 
25.371

>  <PUBCHEM_SHAPE_FINGERPRINT>  (1) 
10130415 120 17632856408360087656
10353120 184 15791452603982186679
10465860 71 16081664287413641766
11132069 177 17240756315710308069
11206711 2 15357685375741946471
11769659 78 18408881849831532075
12032990 46 16153432735636537209
124424 183 17917425385443585481
12932764 1 17489298737056687136
13296908 3 17530956982159843207
13538477 17 17274813705708102190
13675066 3 17632571626464488554
13705890 14 18187645829567031402
13760787 19 18272655674780124071
14289901 80 18268710674441376265
14325111 11 18410293631366926643
14993402 34 13407079184473523702
15310529 11 18272929453122757529
16945 1 15626226827144690481
18186145 218 17967529056210216193
19026448 4 18408319999468548037
19026448 5 18413108376902473341
19422 9 18410856577072963827
20645476 183 17631729503631559500
20645477 70 18412821365497036871
21293036 1 14634879629944499014
23402539 116 16732973228810415830
2748010 2 16082749453776458039
4072396 5 16486407656076694031
449060 23 17530683199548875775
581208 293 17676766560804254146
7364860 26 17241907551740188748

>  <PUBCHEM_SHAPE_MULTIPOLES>  (1) 
261.66
6.71
1.42
1.16
1.33
0.46
-0.24
1.29
1.12
-0.69
0.12
0.1
-0.14
0.13

>  <PUBCHEM_SHAPE_SELFOVERLAP>  (1) 
526.634

>  <PUBCHEM_SHAPE_VOLUME>  (1) 
154.7

>  <PUBCHEM_COORDINATE_TYPE>  (1) 
2
5
10

$$$$
