41138
     RDKit          3D

 16 18  0  0  0  0  0  0  0  0999 V2000
    2.7985    1.7785   -0.0089 S   0  0  0  0  0  0  0  0  0  0  0  0
    2.8874   -1.7195    0.0097 S   0  0  0  0  0  0  0  0  0  0  0  0
   -2.8866    1.4285   -0.0225 S   0  0  0  0  0  0  0  0  0  0  0  0
   -0.2293    2.2684   -0.0837 O   0  0  0  0  0  0  0  0  0  0  0  0
   -0.1117   -2.3628    0.0857 O   0  0  0  0  0  0  0  0  0  0  0  0
   -0.6585   -0.0596    0.0005 N   0  0  0  0  0  0  0  0  0  0  0  0
   -2.8771   -1.1562    0.0176 N   0  0  0  0  0  0  0  0  0  0  0  0
    1.5149    0.6603    0.0026 C   0  0  0  0  0  0  0  0  0  0  0  0
    1.5486   -0.6681   -0.0014 C   0  0  0  0  0  0  0  0  0  0  0  0
    0.1041    1.0959   -0.0180 C   0  0  0  0  0  0  0  0  0  0  0  0
    0.1617   -1.1749    0.0195 C   0  0  0  0  0  0  0  0  0  0  0  0
    4.2009    0.7006    0.4171 C   0  0  0  0  0  0  0  0  0  0  0  0
    4.2322   -0.5720   -0.4200 C   0  0  0  0  0  0  0  0  0  0  0  0
   -2.0906   -0.0961    0.0005 C   0  0  0  0  0  0  0  0  0  0  0  0
   -4.3994    0.6204   -0.0104 C   0  0  0  0  0  0  0  0  0  0  0  0
   -4.1951   -0.7433    0.0117 C   0  0  0  0  0  0  0  0  0  0  0  0
  1  8  1  0
  1 12  1  0
  2  9  1  0
  2 13  1  0
  3 14  1  0
  3 15  1  0
  4 10  2  0
  5 11  2  0
  6 10  1  0
  6 11  1  0
  6 14  1  0
  7 14  2  0
  7 16  1  0
  8  9  2  0
  8 10  1  0
  9 11  1  0
 12 13  1  0
 15 16  2  0
M  END
>  <PUBCHEM_COMPOUND_CID>  (1) 
41138

>  <PUBCHEM_CONFORMER_RMSD>  (1) 
0.6

>  <PUBCHEM_CONFORMER_DIVERSEORDER>  (1) 
1
2

>  <PUBCHEM_MMFF94_PARTIAL_CHARGES>  (1) 
18
1 -0.33
10 0.62
11 0.62
12 0.23
13 0.23
14 0.44
15 -0.11
16 0.08
2 -0.33
21 0.15
22 0.15
3 -0.08
4 -0.57
5 -0.57
6 -0.18
7 -0.57
8 0.12
9 0.12

>  <PUBCHEM_EFFECTIVE_ROTOR_COUNT>  (1) 
2

>  <PUBCHEM_PHARMACOPHORE_FEATURES>  (1) 
5
1 4 acceptor
1 5 acceptor
5 3 7 14 15 16 rings
5 6 8 9 10 11 rings
6 1 2 8 9 12 13 rings

>  <PUBCHEM_HEAVY_ATOM_COUNT>  (1) 
16

>  <PUBCHEM_ATOM_DEF_STEREO_COUNT>  (1) 
0

>  <PUBCHEM_ATOM_UDEF_STEREO_COUNT>  (1) 
0

>  <PUBCHEM_BOND_DEF_STEREO_COUNT>  (1) 
0

>  <PUBCHEM_BOND_UDEF_STEREO_COUNT>  (1) 
0

>  <PUBCHEM_ISOTOPIC_ATOM_COUNT>  (1) 
0

>  <PUBCHEM_COMPONENT_COUNT>  (1) 
1

>  <PUBCHEM_CACTVS_TAUTO_COUNT>  (1) 
1

>  <PUBCHEM_CONFORMER_ID>  (1) 
0000A0B200000001

>  <PUBCHEM_MMFF94_ENERGY>  (1) 
34.7921

>  <PUBCHEM_FEATURE_SELFOVERLAP>  (1) 
25.416

>  <PUBCHEM_SHAPE_FINGERPRINT>  (1) 
10608611 8 18409163281990367205
10967382 1 18410573981099174410
11132069 177 18411695495633508800
11401426 45 18412541024349032773
11471102 20 18411134736413965380
11806522 49 18411416250077179623
12032990 46 18410578387524604054
12236239 1 17775286062897047819
13140716 1 18338798892682564929
13380535 76 18411419557217990594
13675066 3 18343580771841416640
13862211 1 18410288099655245362
14251717 144 18411418405807740854
14325111 11 18410855473076490633
15196674 1 18410856555350103521
15219456 202 18409726231685150333
15442244 35 18267586797279572008
15536298 74 18343302561261344932
15848702 151 17702956820388034654
16945 1 18193562400283094340
18186145 218 18410856534023044748
18522853 276 18413389830567988337
193761 8 17833831564708623428
19591789 44 18410573993889533526
200 152 18131060542339603613
20510252 161 18272088271114785904
20645477 70 18342738490068654951
21267235 1 18411146830767843551
21452121 103 18272359919670462592
21501502 16 18194122919469804968
221490 88 18263933296397895667
2334 1 18410574006642131365
23402539 116 18343293790716561270
23402655 69 18343018886939684052
23463225 33 18409166593109147204
23559900 14 18341612590889617326
2748010 2 18409729560242463805
2871803 45 18335697222189046605
335352 9 18050285868938237565
4990 188 18131641066834996150
5104073 3 18411137996014543059
537710 114 18410298029561442636
53812653 166 18342172310341843024
69090 78 18271803561853465342
7364860 26 18342175519009557966
77779 3 18411702080002905325
8809292 202 18259991487383405139
9709674 26 18411143553739731070

>  <PUBCHEM_SHAPE_MULTIPOLES>  (1) 
319.12
8.17
2.13
0.64
2.27
0
0
-0.13
-0.02
-0.59
0.01
-0.13
-0.02
0.15

>  <PUBCHEM_SHAPE_SELFOVERLAP>  (1) 
661.726

>  <PUBCHEM_SHAPE_VOLUME>  (1) 
183.3

>  <PUBCHEM_COORDINATE_TYPE>  (1) 
2
5
10

$$$$
