41133
     RDKit          3D

 15 16  0  0  1  0  0  0  0  0999 V2000
   -2.7841   -2.3875    0.5372 O   0  0  0  0  0  0  0  0  0  0  0  0
   -0.9465    1.2573   -0.2051 C   0  0  0  0  0  0  0  0  0  0  0  0
   -0.5908   -0.0350   -0.9988 C   0  0  0  0  0  0  0  0  0  0  0  0
    1.8431    0.1124   -0.2420 C   0  0  0  0  0  0  0  0  0  0  0  0
    0.6129   -0.7885   -0.3932 C   0  0  0  0  0  0  0  0  0  0  0  0
    0.3268    2.1162    0.0122 C   0  0  0  0  0  0  0  0  0  0  0  0
    1.5109    1.3487    0.5952 C   0  0  0  0  0  0  0  0  0  0  0  0
   -1.5818    0.8885    1.1617 C   0  0  0  0  0  0  0  0  0  0  0  0
   -1.7872   -0.9885   -1.1333 C   0  0  0  0  0  0  0  0  0  0  0  0
   -1.9400    2.1261   -1.0129 C   0  0  0  0  0  0  0  0  0  0  0  0
    3.0055   -0.6613    0.3785 C   0  0  0  0  0  0  0  0  0  0  0  0
   -2.7796   -0.0485    1.0489 C   0  0  0  0  0  0  0  0  0  0  0  0
   -2.4447   -1.2530    0.2026 C   0  0  0  0  0  0  0  0  0  0  0  0
    3.3128   -1.9136   -0.4388 C   0  0  0  0  0  0  0  0  0  0  0  0
    4.2427    0.2267    0.4876 C   0  0  0  0  0  0  0  0  0  0  0  0
  1 13  2  0
  2  3  1  0
  2  6  1  0
  2  8  1  0
  2 10  1  0
  3  5  1  0
  3  9  1  0
  4  5  1  0
  4  7  1  0
  4 11  1  0
  6  7  1  0
  8 12  1  0
  9 13  1  0
 11 14  1  0
 11 15  1  0
 12 13  1  0
M  END
>  <PUBCHEM_COMPOUND_CID>  (1) 
41133

>  <PUBCHEM_CONFORMER_RMSD>  (1) 
0.6

>  <PUBCHEM_CONFORMER_DIVERSEORDER>  (1) 
1
12
6
19
17
20
28
13
26
5
27
4
25
24
14
16
23
11
7
15
8
3
22
21
18
9
2
10

>  <PUBCHEM_MMFF94_PARTIAL_CHARGES>  (1) 
4
1 -0.57
12 0.06
13 0.45
9 0.06

>  <PUBCHEM_EFFECTIVE_ROTOR_COUNT>  (1) 
2.4

>  <PUBCHEM_PHARMACOPHORE_FEATURES>  (1) 
4
1 1 acceptor
3 11 14 15 hydrophobe
6 2 3 4 5 6 7 rings
6 2 3 8 9 12 13 rings

>  <PUBCHEM_HEAVY_ATOM_COUNT>  (1) 
15

>  <PUBCHEM_ATOM_DEF_STEREO_COUNT>  (1) 
0

>  <PUBCHEM_ATOM_UDEF_STEREO_COUNT>  (1) 
3

>  <PUBCHEM_BOND_DEF_STEREO_COUNT>  (1) 
0

>  <PUBCHEM_BOND_UDEF_STEREO_COUNT>  (1) 
0

>  <PUBCHEM_ISOTOPIC_ATOM_COUNT>  (1) 
0

>  <PUBCHEM_COMPONENT_COUNT>  (1) 
1

>  <PUBCHEM_CACTVS_TAUTO_COUNT>  (1) 
3

>  <PUBCHEM_CONFORMER_ID>  (1) 
0000A0AD00000001

>  <PUBCHEM_MMFF94_ENERGY>  (1) 
35.6655

>  <PUBCHEM_FEATURE_SELFOVERLAP>  (1) 
20.356

>  <PUBCHEM_SHAPE_FINGERPRINT>  (1) 
11086676 242 18200046155911781995
11132069 177 18412268328464927322
12138202 97 17897715483974553405
12251169 10 18272662259096747315
12382932 28 18202286853408995802
12423570 1 15831128197914086317
12491281 212 11240003347394322650
12696612 119 18201443622522125924
13024252 1 16805326552763480973
13214271 11 18341323440479158212
13296908 3 18339359656998623190
14817 1 10999519598902647581
15076042 46 17845948371909860697
15309172 13 17704351069925377766
15375462 478 17988932222840155043
16945 1 18199771205380829329
17844478 74 18409168813881623792
18186145 218 11025798665725465166
19868273 325 18335136471042921348
200 152 17631997724465600309
20281407 28 18407764737480173826
20524608 308 18115587011526818589
20871998 184 18273494546312189774
21501502 16 18336554913925444389
22445834 79 18129104604909776017
2334 1 18342452634652329726
23419403 2 15694011788133172277
23559900 14 18195236729829816346
2748010 2 18270951380539334092
305870 269 11455353681809655053
598444 67 17765167076380996015
8809292 202 18195247720055040750

>  <PUBCHEM_SHAPE_MULTIPOLES>  (1) 
302.82
5.65
2.28
1.1
4.98
0.04
0.02
2.12
-1.03
-0.9
0.15
-0.59
-0.07
0.6

>  <PUBCHEM_SHAPE_SELFOVERLAP>  (1) 
615.388

>  <PUBCHEM_SHAPE_VOLUME>  (1) 
175.2

>  <PUBCHEM_COORDINATE_TYPE>  (1) 
2
5
10

$$$$
