41140
     RDKit          3D

 27 29  0  0  0  0  0  0  0  0999 V2000
    6.0177    2.3178   -0.2092 S   0  0  0  0  0  0  0  0  0  0  0  0
    6.7176   -1.0032    0.6425 S   0  0  0  0  0  0  0  0  0  0  0  0
   -3.3456   -0.3163   -0.1607 O   0  0  0  0  0  0  0  0  0  0  0  0
    2.9837    2.1657   -0.6397 O   0  0  0  0  0  0  0  0  0  0  0  0
    3.8926   -2.1998    0.6282 O   0  0  0  0  0  0  0  0  0  0  0  0
   -2.9994   -2.5070   -0.7769 O   0  0  0  0  0  0  0  0  0  0  0  0
   -6.8989    0.6476    0.0610 N   0  0  0  0  0  0  0  0  0  0  0  0
    2.9636   -0.1261   -0.0412 N   0  0  0  0  0  0  0  0  0  0  0  0
   -5.4528    0.7940    0.1338 C   0  0  0  0  0  0  0  0  0  0  0  0
   -7.5644    1.9157    0.3694 C   0  0  0  0  0  0  0  0  0  0  0  0
   -7.3606   -0.4005    0.9746 C   0  0  0  0  0  0  0  0  0  0  0  0
    4.9593    0.9957   -0.0365 C   0  0  0  0  0  0  0  0  0  0  0  0
    5.2265   -0.2679    0.2763 C   0  0  0  0  0  0  0  0  0  0  0  0
   -4.7623   -0.5110   -0.2288 C   0  0  0  0  0  0  0  0  0  0  0  0
    1.5713   -0.4465   -0.1467 C   0  0  0  0  0  0  0  0  0  0  0  0
    3.5073    1.1261   -0.2719 C   0  0  0  0  0  0  0  0  0  0  0  0
    3.9586   -1.0243    0.3056 C   0  0  0  0  0  0  0  0  0  0  0  0
    7.5230    1.6606    0.5731 C   0  0  0  0  0  0  0  0  0  0  0  0
    7.8826    0.2698    0.0658 C   0  0  0  0  0  0  0  0  0  0  0  0
   -7.1018    3.0201   -0.5659 C   0  0  0  0  0  0  0  0  0  0  0  0
   -8.8608   -0.6097    0.8569 C   0  0  0  0  0  0  0  0  0  0  0  0
    1.1729   -1.7339   -0.5150 C   0  0  0  0  0  0  0  0  0  0  0  0
    0.6056    0.5275    0.1183 C   0  0  0  0  0  0  0  0  0  0  0  0
   -1.1444   -1.0703   -0.3525 C   0  0  0  0  0  0  0  0  0  0  0  0
   -0.1829   -2.0454   -0.6178 C   0  0  0  0  0  0  0  0  0  0  0  0
   -0.7502    0.2161    0.0156 C   0  0  0  0  0  0  0  0  0  0  0  0
   -2.5580   -1.3947   -0.4585 C   0  0  0  0  0  0  0  0  0  0  0  0
  1 12  1  0
  1 18  1  0
  2 13  1  0
  2 19  1  0
  3 14  1  0
  3 27  1  0
  4 16  2  0
  5 17  2  0
  6 27  2  0
  7  9  1  0
  7 10  1  0
  7 11  1  0
  8 15  1  0
  8 16  1  0
  8 17  1  0
  9 14  1  0
 10 20  1  0
 11 21  1  0
 12 13  2  0
 12 16  1  0
 13 17  1  0
 15 22  2  0
 15 23  1  0
 18 19  1  0
 22 25  1  0
 23 26  2  0
 24 25  2  0
 24 26  1  0
 24 27  1  0
M  END
>  <PUBCHEM_COMPOUND_CID>  (1) 
41140

>  <PUBCHEM_CONFORMER_RMSD>  (1) 
1

>  <PUBCHEM_CONFORMER_DIVERSEORDER>  (1) 
1
4
10
12
26
19
9
2
23
16
8
22
18
21
14
17
15
13
7
6
20
11
25
5
3
24

>  <PUBCHEM_MMFF94_PARTIAL_CHARGES>  (1) 
29
1 -0.33
10 0.27
11 0.27
12 0.12
13 0.12
14 0.28
15 0.12
16 0.62
17 0.62
18 0.23
19 0.23
2 -0.33
22 -0.15
23 -0.15
24 0.09
25 -0.15
26 -0.15
27 0.63
3 -0.43
4 -0.57
46 0.15
47 0.15
48 0.15
49 0.15
5 -0.57
6 -0.57
7 -0.81
8 -0.24
9 0.27

>  <PUBCHEM_EFFECTIVE_ROTOR_COUNT>  (1) 
9

>  <PUBCHEM_PHARMACOPHORE_FEATURES>  (1) 
7
1 4 acceptor
1 5 acceptor
1 6 acceptor
1 7 cation
5 8 12 13 16 17 rings
6 1 2 12 13 18 19 rings
6 15 22 23 24 25 26 rings

>  <PUBCHEM_HEAVY_ATOM_COUNT>  (1) 
27

>  <PUBCHEM_ATOM_DEF_STEREO_COUNT>  (1) 
0

>  <PUBCHEM_ATOM_UDEF_STEREO_COUNT>  (1) 
0

>  <PUBCHEM_BOND_DEF_STEREO_COUNT>  (1) 
0

>  <PUBCHEM_BOND_UDEF_STEREO_COUNT>  (1) 
0

>  <PUBCHEM_ISOTOPIC_ATOM_COUNT>  (1) 
0

>  <PUBCHEM_COMPONENT_COUNT>  (1) 
1

>  <PUBCHEM_CACTVS_TAUTO_COUNT>  (1) 
1

>  <PUBCHEM_CONFORMER_ID>  (1) 
0000A0B400000001

>  <PUBCHEM_MMFF94_ENERGY>  (1) 
68.3077

>  <PUBCHEM_FEATURE_SELFOVERLAP>  (1) 
35.567

>  <PUBCHEM_SHAPE_FINGERPRINT>  (1) 
10 15 18335704957710197755
100830 39 18410575085718217833
106641 1 18259989301688117587
11135609 99 8646762301106155864
11456790 92 18261385642558146880
12236239 1 18342453803400463790
13167372 99 18410573959756453613
13248334 5 17909834233018713535
14251764 18 18409728486727616471
14251764 46 18411700994098898539
14933364 13 18334859411619469521
15183329 4 18336815451178881743
15419008 145 18188763934140478184
15461852 350 17131547340756829663
1577012 14 18271802445061819718
15840311 113 18334861627759375684
16989713 51 16987705983064836927
19611394 137 18042419091982549801
20281389 69 18409730664634764097
21033648 29 17916850448626714818
21150785 3 12967129410702421483
21267235 1 18335421241177393702
22224240 67 16660644072480135075
22288116 15 16988548140314935629
22956985 138 12975536203926874048
2838139 119 18343295986162436693
335352 9 18341611542205194166
350125 39 18411415125112421500
3633792 109 17988649562800721278
4073 2 18041002894128979051
4169191 19 18342175532242625953
4340502 62 17095519600352749898
437795 83 18268981013539541061
504843 32 17774998025306171695
5104073 3 18189607410373000330
58083652 198 14273746166116421423
6328613 192 18342175566211954929
636775 8 8430315774930388024
9962374 69 13695880267732744451
999808 66 10807641330081286333

>  <PUBCHEM_SHAPE_MULTIPOLES>  (1) 
529.91
26.8
2.56
0.81
28.11
0.8
-0.05
12.91
-6.46
0.81
0.46
0.34
-0.08
-0.13

>  <PUBCHEM_SHAPE_SELFOVERLAP>  (1) 
1097.682

>  <PUBCHEM_SHAPE_VOLUME>  (1) 
305.1

>  <PUBCHEM_COORDINATE_TYPE>  (1) 
2
5
10

$$$$
