41158
     RDKit          3D

 33 36  0  0  0  0  0  0  0  0999 V2000
    2.3741    1.1078   -2.6478 S   0  0  0  0  0  0  0  0  0  0  0  0
   -5.6411   -1.8019    0.3714 S   0  0  0  0  0  0  0  0  0  0  0  0
    3.5770    3.3351    0.5635 N   0  0  0  0  0  0  0  0  0  0  0  0
    3.2713   -0.8416   -1.1963 N   0  0  0  0  0  0  0  0  0  0  0  0
    1.0543   -2.4472    0.2405 N   0  0  0  0  0  0  0  0  0  0  0  0
    2.7055    2.4760   -0.2744 C   0  0  0  0  0  0  0  0  0  0  0  0
    2.8574    3.7483    1.8551 C   0  0  0  0  0  0  0  0  0  0  0  0
    3.9721    4.6123   -0.1912 C   0  0  0  0  0  0  0  0  0  0  0  0
    4.8641    2.5937    0.9517 C   0  0  0  0  0  0  0  0  0  0  0  0
    3.3966    2.1406   -1.5859 C   0  0  0  0  0  0  0  0  0  0  0  0
    2.5272    2.5100    2.6595 C   0  0  0  0  0  0  0  0  0  0  0  0
    2.7204    5.3647   -0.5869 C   0  0  0  0  0  0  0  0  0  0  0  0
    2.1822   -0.2679   -1.5486 C   0  0  0  0  0  0  0  0  0  0  0  0
    0.7629   -0.5053   -1.2310 C   0  0  0  0  0  0  0  0  0  0  0  0
    0.3427   -1.4938   -0.4330 C   0  0  0  0  0  0  0  0  0  0  0  0
    3.4297   -1.9406   -0.3446 C   0  0  0  0  0  0  0  0  0  0  0  0
    2.4356   -2.6812    0.3124 C   0  0  0  0  0  0  0  0  0  0  0  0
   -1.1234   -1.5698   -0.2353 C   0  0  0  0  0  0  0  0  0  0  0  0
    4.7797   -2.3150   -0.1566 C   0  0  0  0  0  0  0  0  0  0  0  0
    2.8369   -3.7668    1.1310 C   0  0  0  0  0  0  0  0  0  0  0  0
   -1.8970   -2.3384   -1.0991 C   0  0  0  0  0  0  0  0  0  0  0  0
   -1.7157   -0.8718    0.8123 C   0  0  0  0  0  0  0  0  0  0  0  0
    5.1524   -3.3858    0.6528 C   0  0  0  0  0  0  0  0  0  0  0  0
    4.1744   -4.1169    1.3010 C   0  0  0  0  0  0  0  0  0  0  0  0
   -3.2776   -2.4097   -0.9134 C   0  0  0  0  0  0  0  0  0  0  0  0
   -3.0963   -0.9431    0.9979 C   0  0  0  0  0  0  0  0  0  0  0  0
   -3.8773   -1.7120    0.1351 C   0  0  0  0  0  0  0  0  0  0  0  0
   -6.1040   -0.0839    0.2056 C   0  0  0  0  0  0  0  0  0  0  0  0
   -6.7312    0.5696    1.2632 C   0  0  0  0  0  0  0  0  0  0  0  0
   -5.8361    0.5948   -0.9805 C   0  0  0  0  0  0  0  0  0  0  0  0
   -7.0930    1.9106    1.1341 C   0  0  0  0  0  0  0  0  0  0  0  0
   -6.1977    1.9358   -1.1098 C   0  0  0  0  0  0  0  0  0  0  0  0
   -6.8262    2.5936   -0.0526 C   0  0  0  0  0  0  0  0  0  0  0  0
  1 10  1  0
  1 13  1  0
  2 27  1  0
  2 28  1  0
  3  6  1  0
  3  7  1  0
  3  8  1  0
  3  9  1  0
  4 13  2  0
  4 16  1  0
  5 15  1  0
  5 17  1  0
  6 10  1  0
  7 11  1  0
  8 12  1  0
 13 14  1  0
 14 15  2  0
 15 18  1  0
 16 17  2  0
 16 19  1  0
 17 20  1  0
 18 21  2  0
 18 22  1  0
 19 23  2  0
 20 24  2  0
 21 25  1  0
 22 26  2  0
 23 24  1  0
 25 27  2  0
 26 27  1  0
 28 29  2  0
 28 30  1  0
 29 31  1  0
 30 32  2  0
 31 33  2  0
 32 33  1  0
M  CHG  1   3   1
M  END
>  <PUBCHEM_COMPOUND_CID>  (1) 
41158

>  <PUBCHEM_CONFORMER_RMSD>  (1) 
1

>  <PUBCHEM_CONFORMER_DIVERSEORDER>  (1) 
1
42
83
105
184
153
67
108
130
166
26
169
117
167
20
138
158
3
23
182
129
48
65
132
176
142
74
127
16
179
75
119
63
140
80
168
134
11
51
120
94
181
17
125
112
128
157
101
68
155
79
69
84
131
96
86
93
188
37
123
135
38
19
91
43
160
114
52
89
92
59
111
139
66
159
170
187
25
87
173
90
136
55
103
171
35
164
180
109
30
186
107
40
47
110
85
45
151
64
100
34
28
185
7
116
121
150
141
183
57
143
156
137
4
70
12
124
149
144
27
58
178
165
33
5
14
36
18
44
73
162
113
81
146
115
61
163
118
102
99
154
174
60
31
177
106
32
95
49
72
24
2
133
145
15
77
76
148
56
122
88
147
161
9
97
21
172
50
82
78
152
175
8
104
46
98
13
53
29
6
62
39
126
10
41
22
71
54

>  <PUBCHEM_MMFF94_PARTIAL_CHARGES>  (1) 
46
1 -0.37
10 0.23
13 0.58
14 -0.14
15 0.07
16 0.18
17 0.1
18 0.03
19 -0.15
2 -0.2
20 -0.15
21 -0.15
22 -0.15
23 -0.15
24 -0.15
25 -0.15
26 -0.15
27 0.1
28 0.1
29 -0.15
3 -1.01
30 -0.15
31 -0.15
32 -0.15
33 -0.15
4 -0.63
5 -0.6
51 0.15
52 0.4
53 0.15
54 0.15
55 0.15
56 0.15
57 0.15
58 0.15
59 0.15
6 0.5
60 0.15
61 0.15
62 0.15
63 0.15
64 0.15
65 0.15
7 0.5
8 0.5
9 0.5

>  <PUBCHEM_EFFECTIVE_ROTOR_COUNT>  (1) 
9.2

>  <PUBCHEM_PHARMACOPHORE_FEATURES>  (1) 
8
1 3 cation
1 4 acceptor
1 5 cation
1 5 donor
6 16 17 19 20 23 24 rings
6 18 21 22 25 26 27 rings
6 28 29 30 31 32 33 rings
7 4 5 13 14 15 16 17 rings

>  <PUBCHEM_HEAVY_ATOM_COUNT>  (1) 
33

>  <PUBCHEM_ATOM_DEF_STEREO_COUNT>  (1) 
0

>  <PUBCHEM_ATOM_UDEF_STEREO_COUNT>  (1) 
0

>  <PUBCHEM_BOND_DEF_STEREO_COUNT>  (1) 
0

>  <PUBCHEM_BOND_UDEF_STEREO_COUNT>  (1) 
0

>  <PUBCHEM_ISOTOPIC_ATOM_COUNT>  (1) 
0

>  <PUBCHEM_COMPONENT_COUNT>  (1) 
1

>  <PUBCHEM_CACTVS_TAUTO_COUNT>  (1) 
3

>  <PUBCHEM_CONFORMER_ID>  (1) 
0000A0C600000001

>  <PUBCHEM_MMFF94_ENERGY>  (1) 
126.1202

>  <PUBCHEM_FEATURE_SELFOVERLAP>  (1) 
40.604

>  <PUBCHEM_SHAPE_FINGERPRINT>  (1) 
10439779 11 18125445202838129937
11093857 51 15841284730206436052
11331351 85 18054222133857584526
11399510 152 17969524743557562155
11456790 92 17895758387647608370
11578080 2 18339920515044690637
1200032 147 16879653676540955452
12422481 6 17531513361288497493
13512321 179 18059862701337377441
14068700 686 18051421961240953519
14739800 52 18270678796150155251
15439362 3 18194684994036011224
15475509 84 18192993716785800836
15773879 134 18267015248785884917
17868525 174 18337107878248330830
17980427 26 18195235836038945070
19302320 297 18124892166286809689
19304152 47 17902803194969871889
20691028 202 18342185441133514033
22122407 14 18338813229926957843
23191077 185 18058729251147332991
23559900 14 18335416833971593435
23569914 2 17609171876507441245
376196 1 17627517369417760396
4058900 60 18121226647405623672
5104073 3 18334020506049828691
57091435 61 18267306623720208485
57124632 79 18265613367597928290
6086070 43 18342465806995364103
6371009 1 18057606469602745425
6677587 24 16988562454555469652

>  <PUBCHEM_SHAPE_MULTIPOLES>  (1) 
671.88
17.04
6.78
1.87
33.38
5
0.02
6.36
-3.11
-12.15
-1.83
-1.38
1.06
-0.69

>  <PUBCHEM_SHAPE_SELFOVERLAP>  (1) 
1403.356

>  <PUBCHEM_SHAPE_VOLUME>  (1) 
381.9

>  <PUBCHEM_COORDINATE_TYPE>  (1) 
2
5
10

$$$$
