41164
     RDKit          3D

 10 10  0  0  0  0  0  0  0  0999 V2000
    0.3564    0.4113    0.1018 N   0  0  0  0  0  0  0  0  0  0  0  0
    3.5638   -0.5935   -0.6684 N   0  0  0  0  0  0  0  0  0  0  0  0
   -2.0626   -1.1867   -0.5863 C   0  0  0  0  0  0  0  0  0  0  0  0
   -2.7625    0.1603   -0.4234 C   0  0  0  0  0  0  0  0  0  0  0  0
   -1.2137   -1.5420    0.6299 C   0  0  0  0  0  0  0  0  0  0  0  0
   -1.8429    1.3777   -0.4401 C   0  0  0  0  0  0  0  0  0  0  0  0
    0.2000   -0.9525    0.6192 C   0  0  0  0  0  0  0  0  0  0  0  0
   -0.6753    1.3476    0.5503 C   0  0  0  0  0  0  0  0  0  0  0  0
    1.6985    0.9089    0.4099 C   0  0  0  0  0  0  0  0  0  0  0  0
    2.7382    0.0688   -0.1929 C   0  0  0  0  0  0  0  0  0  0  0  0
  1  7  1  0
  1  8  1  0
  1  9  1  0
  2 10  3  0
  3  4  1  0
  3  5  1  0
  4  6  1  0
  5  7  1  0
  6  8  1  0
  9 10  1  0
M  END
>  <PUBCHEM_COMPOUND_CID>  (1) 
41164

>  <PUBCHEM_CONFORMER_RMSD>  (1) 
0.6

>  <PUBCHEM_CONFORMER_DIVERSEORDER>  (1) 
1
8
7
4
9
5
2
3
6

>  <PUBCHEM_MMFF94_PARTIAL_CHARGES>  (1) 
6
1 -0.81
10 0.36
2 -0.56
7 0.27
8 0.27
9 0.47

>  <PUBCHEM_EFFECTIVE_ROTOR_COUNT>  (1) 
2.4

>  <PUBCHEM_PHARMACOPHORE_FEATURES>  (1) 
3
1 1 cation
1 2 acceptor
7 1 3 4 5 6 7 8 rings

>  <PUBCHEM_HEAVY_ATOM_COUNT>  (1) 
10

>  <PUBCHEM_ATOM_DEF_STEREO_COUNT>  (1) 
0

>  <PUBCHEM_ATOM_UDEF_STEREO_COUNT>  (1) 
0

>  <PUBCHEM_BOND_DEF_STEREO_COUNT>  (1) 
0

>  <PUBCHEM_BOND_UDEF_STEREO_COUNT>  (1) 
0

>  <PUBCHEM_ISOTOPIC_ATOM_COUNT>  (1) 
0

>  <PUBCHEM_COMPONENT_COUNT>  (1) 
1

>  <PUBCHEM_CACTVS_TAUTO_COUNT>  (1) 
1

>  <PUBCHEM_CONFORMER_ID>  (1) 
0000A0CC00000001

>  <PUBCHEM_MMFF94_ENERGY>  (1) 
14.5709

>  <PUBCHEM_FEATURE_SELFOVERLAP>  (1) 
15.223

>  <PUBCHEM_SHAPE_FINGERPRINT>  (1) 
12716758 59 18411131446157780345
12897270 3 18410568496188541173
12932764 1 17968089815841391696
13024252 1 17749114404468662067
14325111 11 18408882919341529888
15775835 57 18114463336159762861
16945 1 18261379070804164817
20201158 50 18201721738871406094
20645476 183 17458341952875210635
20653085 51 17240488034625250068
20828058 34 18260543411775748407
21040471 1 18263065661501250537
22802520 49 18339365265650937898
23235685 24 18187358818562047021
23552423 10 18188769573421234536
23559900 14 18342172225439236714
2748010 2 17975121351783269891
29004967 10 16845292786483220720
369184 2 12463576149076206588
5084963 1 18411135844194027632

>  <PUBCHEM_SHAPE_MULTIPOLES>  (1) 
195.83
4.52
1.61
0.85
3.25
0.03
-0.02
0.41
1.43
-0.77
-0.16
-0.02
0.08
0.24

>  <PUBCHEM_SHAPE_SELFOVERLAP>  (1) 
374.334

>  <PUBCHEM_SHAPE_VOLUME>  (1) 
114.8

>  <PUBCHEM_COORDINATE_TYPE>  (1) 
2
5
10

$$$$
