41168
     RDKit          3D

 20 20  0  0  1  0  0  0  0  0999 V2000
    6.2203    0.9135    0.9597 Cl  0  0  0  0  0  0  0  0  0  0  0  0
   -2.5257   -0.9514   -0.5374 O   0  0  0  0  0  0  0  0  0  0  0  0
   -2.1948    2.5657   -0.4781 O   0  0  0  0  0  0  0  0  0  0  0  0
   -2.6722    1.6215    2.0808 O   0  0  0  0  0  0  0  0  0  0  0  0
   -1.4108   -1.0536   -2.6046 O   0  0  0  0  0  0  0  0  0  0  0  0
   -4.7804   -1.8175    0.7967 O   0  0  0  0  0  0  0  0  0  0  0  0
    1.9213    1.4466   -1.1626 O   0  0  0  0  0  0  0  0  0  0  0  0
    3.1640   -2.5438    0.7627 O   0  0  0  0  0  0  0  0  0  0  0  0
    0.3256   -0.1082   -0.5948 N   0  0  0  0  0  0  0  0  0  0  0  0
    2.6146   -0.5435   -0.1983 N   0  0  0  0  0  0  0  0  0  0  0  0
    2.2113   -1.8619    0.3700 N   0  0  0  0  0  0  0  0  0  0  0  0
   -0.7916    0.6905   -1.0530 C   0  0  0  0  0  0  0  0  0  0  0  0
   -1.3080    1.5905    0.0757 C   0  0  0  0  0  0  0  0  0  0  0  0
   -2.0667    0.7629    1.1216 C   0  0  0  0  0  0  0  0  0  0  0  0
   -3.1312   -0.1219    0.4607 C   0  0  0  0  0  0  0  0  0  0  0  0
   -1.9283   -0.1949   -1.5916 C   0  0  0  0  0  0  0  0  0  0  0  0
   -3.8071   -1.0422    1.4724 C   0  0  0  0  0  0  0  0  0  0  0  0
    1.6407    0.3421   -0.6858 C   0  0  0  0  0  0  0  0  0  0  0  0
    4.0317   -0.2042   -0.2278 C   0  0  0  0  0  0  0  0  0  0  0  0
    4.4872    0.5098    1.0337 C   0  0  0  0  0  0  0  0  0  0  0  0
  1 20  1  0
  2 15  1  0
  2 16  1  0
  3 13  1  0
  4 14  1  0
  5 16  1  0
  6 17  1  0
  7 18  2  0
  8 11  2  0
  9 12  1  0
  9 18  1  0
 10 11  1  0
 10 18  1  0
 10 19  1  0
 12 13  1  0
 12 16  1  0
 13 14  1  0
 14 15  1  0
 15 17  1  0
 19 20  1  0
M  END
>  <PUBCHEM_COMPOUND_CID>  (1) 
41168

>  <PUBCHEM_CONFORMER_RMSD>  (1) 
1

>  <PUBCHEM_CONFORMER_DIVERSEORDER>  (1) 
1
368
360
184
197
398
242
134
365
32
257
284
249
19
129
367
324
137
375
371
380
144
338
179
235
168
277
325
57
202
35
207
335
334
276
246
303
341
232
331
227
98
247
153
18
219
274
104
397
21
158
391
40
355
152
183
370
251
102
205
100
323
353
67
80
83
306
395
269
263
64
265
337
94
45
374
268
87
359
119
244
173
178
315
241
309
161
5
175
212
128
77
382
84
58
193
336
210
321
271
138
97
220
20
290
131
203
49
364
99
120
110
124
301
70
222
300
253
240
399
174
155
294
136
50
13
239
264
308
216
384
270
190
386
279
42
332
229
208
389
96
196
373
236
59
43
400
62
343
47
289
209
327
267
213
385
358
30
182
4
17
164
387
170
346
288
71
147
106
388
278
320
130
286
76
351
369
376
361
118
281
169
250
317
204
393
105
125
333
69
349
292
185
34
313
28
68
65
363
63
293
16
187
186
46
326
61
245
116
283
163
261
352
299
6
54
113
396
206
12
305
111
126
171
314
140
38
149
73
298
11
230
74
150
3
295
23
218
31
228
108
328
165
217
25
304
225
15
215
148
44
316
275
226
24
156
142
211
145
354
7
81
342
297
192
330
329
55
394
172
255
254
350
201
194
322
287
302
189
344
91
176
319
379
107
95
347
154
195
272
238
248
348
258
252
115
166
122
37
345
214
340
318
133
78
383
362
296
311
357
112
26
256
291
139
259
200
9
85
177
233
89
285
82
273
378
237
86
101
260
188
167
266
52
14
121
114
199
160
143
132
10
135
66
127
310
146
92
162
181
29
88
339
157
191
117
366
39
390
159
151
56
221
231
372
36
22
307
60
103
234
243
27
377
79
51
198
262
72
223
280
141
282
312
2
93
356
392
75
53
41
224
381
123
8
33
48
180
109
90

>  <PUBCHEM_MMFF94_PARTIAL_CHARGES>  (1) 
25
1 -0.29
10 -0.18
11 -0.02
12 0.3
13 0.28
14 0.28
15 0.28
16 0.56
17 0.28
18 0.69
19 0.3
2 -0.56
20 0.29
28 0.37
29 0.4
3 -0.68
30 0.4
31 0.4
32 0.4
4 -0.68
5 -0.68
6 -0.68
7 -0.57
8 -0.16
9 -0.73

>  <PUBCHEM_EFFECTIVE_ROTOR_COUNT>  (1) 
8.2

>  <PUBCHEM_PHARMACOPHORE_FEATURES>  (1) 
12
1 2 acceptor
1 3 acceptor
1 3 donor
1 4 acceptor
1 4 donor
1 5 acceptor
1 5 donor
1 6 acceptor
1 6 donor
1 7 acceptor
1 9 donor
6 2 12 13 14 15 16 rings

>  <PUBCHEM_HEAVY_ATOM_COUNT>  (1) 
20

>  <PUBCHEM_ATOM_DEF_STEREO_COUNT>  (1) 
0

>  <PUBCHEM_ATOM_UDEF_STEREO_COUNT>  (1) 
5

>  <PUBCHEM_BOND_DEF_STEREO_COUNT>  (1) 
0

>  <PUBCHEM_BOND_UDEF_STEREO_COUNT>  (1) 
0

>  <PUBCHEM_ISOTOPIC_ATOM_COUNT>  (1) 
0

>  <PUBCHEM_COMPONENT_COUNT>  (1) 
1

>  <PUBCHEM_CACTVS_TAUTO_COUNT>  (1) 
2

>  <PUBCHEM_CONFORMER_ID>  (1) 
0000A0D000000001

>  <PUBCHEM_MMFF94_ENERGY>  (1) 
39.6455

>  <PUBCHEM_FEATURE_SELFOVERLAP>  (1) 
60.959

>  <PUBCHEM_SHAPE_FINGERPRINT>  (1) 
11127187 94 13190635970144646761
12363563 72 15719398347176032646
12596602 18 17917720127316304891
12892183 10 18272664419439209187
13140716 1 17973445691894471402
13583140 156 18340761572514935528
14178342 30 18041559127201421992
14289901 80 18114755840955471800
15375462 189 18272650164489999026
19862831 5 8070025558467168196
200 152 17821727273263769541
20645477 56 16845577517277367220
20671657 53 15213311871263660183
23402539 116 13912592853762203455
26918003 58 18040712597510370757
3286 77 17676492799346383252
5104073 3 18337947875620991346
56616090 284 13984660395382011481
633830 44 12031778172310652178
81228 2 16199856384652139143
90316 7 18266478532994347585

>  <PUBCHEM_SHAPE_MULTIPOLES>  (1) 
357.43
10.09
2.03
1.74
12.02
0.16
0.36
1.06
-5.26
-0.52
-0.36
-1.33
0.03
-0.02

>  <PUBCHEM_SHAPE_SELFOVERLAP>  (1) 
699.718

>  <PUBCHEM_SHAPE_VOLUME>  (1) 
213.5

>  <PUBCHEM_COORDINATE_TYPE>  (1) 
2
5
10

$$$$
