41170
     RDKit          3D

  7  6  0  0  1  0  0  0  0  0999 V2000
    1.6905    1.3535   -0.1577 O   0  0  0  0  0  0  0  0  0  0  0  0
    0.2565   -0.5822   -0.0779 C   0  0  0  0  0  0  0  0  0  0  0  0
    1.6170    0.0082    0.3060 C   0  0  0  0  0  0  0  0  0  0  0  0
   -0.9066    0.1950    0.5498 C   0  0  0  0  0  0  0  0  0  0  0  0
    2.7579   -0.7877   -0.3134 C   0  0  0  0  0  0  0  0  0  0  0  0
   -2.2281   -0.4148    0.1841 C   0  0  0  0  0  0  0  0  0  0  0  0
   -3.1873    0.2281   -0.4909 C   0  0  0  0  0  0  0  0  0  0  0  0
  1  3  1  0
  2  3  1  0
  2  4  1  0
  3  5  1  0
  4  6  1  0
  6  7  2  0
M  END
>  <PUBCHEM_COMPOUND_CID>  (1) 
41170

>  <PUBCHEM_CONFORMER_RMSD>  (1) 
0.4

>  <PUBCHEM_CONFORMER_DIVERSEORDER>  (1) 
1
17
26
15
19
27
4
28
13
21
5
3
6
9
22
16
25
24
2
11
20
8
7
18
14
12
23
10

>  <PUBCHEM_MMFF94_PARTIAL_CHARGES>  (1) 
9
1 -0.68
16 0.15
17 0.4
18 0.15
19 0.15
3 0.28
4 0.14
6 -0.29
7 -0.3

>  <PUBCHEM_EFFECTIVE_ROTOR_COUNT>  (1) 
3

>  <PUBCHEM_PHARMACOPHORE_FEATURES>  (1) 
3
1 1 acceptor
1 1 donor
1 7 hydrophobe

>  <PUBCHEM_HEAVY_ATOM_COUNT>  (1) 
7

>  <PUBCHEM_ATOM_DEF_STEREO_COUNT>  (1) 
0

>  <PUBCHEM_ATOM_UDEF_STEREO_COUNT>  (1) 
1

>  <PUBCHEM_BOND_DEF_STEREO_COUNT>  (1) 
0

>  <PUBCHEM_BOND_UDEF_STEREO_COUNT>  (1) 
0

>  <PUBCHEM_ISOTOPIC_ATOM_COUNT>  (1) 
0

>  <PUBCHEM_COMPONENT_COUNT>  (1) 
1

>  <PUBCHEM_CACTVS_TAUTO_COUNT>  (1) 
1

>  <PUBCHEM_CONFORMER_ID>  (1) 
0000A0D200000001

>  <PUBCHEM_MMFF94_ENERGY>  (1) 
4.3871

>  <PUBCHEM_FEATURE_SELFOVERLAP>  (1) 
15.223

>  <PUBCHEM_SHAPE_FINGERPRINT>  (1) 
12897270 3 18409446981759818839
12932741 1 17968105256090344507
12932764 1 17530960289548476571
14325111 11 18410574015485358011
14390081 3 17894343393623556701
20651381 32 18409448072365000934
29004967 10 18410578383229721434
3248919 1 17846785108911777635
5460574 1 11386367040996494507

>  <PUBCHEM_SHAPE_MULTIPOLES>  (1) 
138.19
4.81
0.97
0.72
1.46
0.2
-0.01
-0.31
0.84
-0.49
0.06
0.12
0
0.09

>  <PUBCHEM_SHAPE_SELFOVERLAP>  (1) 
243.448

>  <PUBCHEM_SHAPE_VOLUME>  (1) 
91.1

>  <PUBCHEM_COORDINATE_TYPE>  (1) 
2
5
10

$$$$
