41171
     RDKit          3D

  8  8  0  0  1  0  0  0  0  0999 V2000
    0.0899   -0.7881    0.0738 O   0  0  0  0  0  0  0  0  0  0  0  0
   -2.7215   -0.9371   -0.1373 O   0  0  0  0  0  0  0  0  0  0  0  0
   -0.7076    0.3300   -0.3534 C   0  0  0  0  0  0  0  0  0  0  0  0
    0.0691    1.5808    0.0234 C   0  0  0  0  0  0  0  0  0  0  0  0
    1.4938    1.1090   -0.1322 C   0  0  0  0  0  0  0  0  0  0  0  0
    1.4044   -0.3089    0.4072 C   0  0  0  0  0  0  0  0  0  0  0  0
   -2.0807    0.2559    0.2860 C   0  0  0  0  0  0  0  0  0  0  0  0
    2.4527   -1.2416   -0.1677 C   0  0  0  0  0  0  0  0  0  0  0  0
  1  3  1  0
  1  6  1  0
  2  7  1  0
  3  4  1  0
  3  7  1  0
  4  5  1  0
  5  6  1  0
  6  8  1  0
M  END
>  <PUBCHEM_COMPOUND_CID>  (1) 
41171

>  <PUBCHEM_CONFORMER_RMSD>  (1) 
0.4

>  <PUBCHEM_CONFORMER_DIVERSEORDER>  (1) 
1
12
10
2
6
9
7
13
8
11
3
5
4

>  <PUBCHEM_MMFF94_PARTIAL_CHARGES>  (1) 
6
1 -0.56
2 -0.68
20 0.4
3 0.28
6 0.28
7 0.28

>  <PUBCHEM_EFFECTIVE_ROTOR_COUNT>  (1) 
2

>  <PUBCHEM_PHARMACOPHORE_FEATURES>  (1) 
4
1 1 acceptor
1 2 acceptor
1 2 donor
5 1 3 4 5 6 rings

>  <PUBCHEM_HEAVY_ATOM_COUNT>  (1) 
8

>  <PUBCHEM_ATOM_DEF_STEREO_COUNT>  (1) 
0

>  <PUBCHEM_ATOM_UDEF_STEREO_COUNT>  (1) 
2

>  <PUBCHEM_BOND_DEF_STEREO_COUNT>  (1) 
0

>  <PUBCHEM_BOND_UDEF_STEREO_COUNT>  (1) 
0

>  <PUBCHEM_ISOTOPIC_ATOM_COUNT>  (1) 
0

>  <PUBCHEM_COMPONENT_COUNT>  (1) 
1

>  <PUBCHEM_CACTVS_TAUTO_COUNT>  (1) 
1

>  <PUBCHEM_CONFORMER_ID>  (1) 
0000A0D300000001

>  <PUBCHEM_MMFF94_ENERGY>  (1) 
12.8083

>  <PUBCHEM_FEATURE_SELFOVERLAP>  (1) 
20.3

>  <PUBCHEM_SHAPE_FINGERPRINT>  (1) 
10857977 72 18339626863766909770
14128692 85 18410018710547239542
21040471 1 17976822317493379976
23552423 10 18260271806691873670
29004967 10 18409165515130449816

>  <PUBCHEM_SHAPE_MULTIPOLES>  (1) 
152.9
3.33
1.47
0.65
0.88
0.29
-0.01
-1.49
0.03
-0.33
0.05
-0.03
0.02
-0.03

>  <PUBCHEM_SHAPE_SELFOVERLAP>  (1) 
294.828

>  <PUBCHEM_SHAPE_VOLUME>  (1) 
95.4

>  <PUBCHEM_COORDINATE_TYPE>  (1) 
2
5
10

$$$$
