41189
     RDKit          3D

 24 25  0  0  0  0  0  0  0  0999 V2000
    1.0410   -0.8959   -1.7893 O   0  0  0  0  0  0  0  0  0  0  0  0
   -3.2941   -3.3580    0.1644 O   0  0  0  0  0  0  0  0  0  0  0  0
    5.0941   -0.3346    0.4236 N   0  0  0  0  0  0  0  0  0  0  0  0
    1.4023   -0.8200    0.5124 N   0  0  0  0  0  0  0  0  0  0  0  0
   -4.1204   -1.1806    0.3057 N   0  0  0  0  0  0  0  0  0  0  0  0
    3.6887    0.0500    0.4010 C   0  0  0  0  0  0  0  0  0  0  0  0
    2.8015   -1.1818    0.5047 C   0  0  0  0  0  0  0  0  0  0  0  0
    5.3994   -1.2408   -0.6852 C   0  0  0  0  0  0  0  0  0  0  0  0
    5.9543    0.8488    0.3625 C   0  0  0  0  0  0  0  0  0  0  0  0
   -0.7478   -0.3327   -0.3742 C   0  0  0  0  0  0  0  0  0  0  0  0
   -1.3378    0.9959   -0.2877 C   0  0  0  0  0  0  0  0  0  0  0  0
   -2.7717    0.8279   -0.0021 C   0  0  0  0  0  0  0  0  0  0  0  0
   -2.9641   -0.5091    0.0650 C   0  0  0  0  0  0  0  0  0  0  0  0
    0.6316   -0.7054   -0.6375 C   0  0  0  0  0  0  0  0  0  0  0  0
   -1.7236   -1.2255   -0.1628 C   0  0  0  0  0  0  0  0  0  0  0  0
    6.8459   -1.7026   -0.6344 C   0  0  0  0  0  0  0  0  0  0  0  0
    5.6549    1.8048    1.5048 C   0  0  0  0  0  0  0  0  0  0  0  0
   -0.6733    2.1501   -0.4440 C   0  0  0  0  0  0  0  0  0  0  0  0
   -3.7924    1.8325    0.1771 C   0  0  0  0  0  0  0  0  0  0  0  0
   -1.1885    3.4979   -0.3738 C   0  0  0  0  0  0  0  0  0  0  0  0
   -3.6338    3.1610    0.1162 C   0  0  0  0  0  0  0  0  0  0  0  0
   -2.4362    3.9237   -0.1379 C   0  0  0  0  0  0  0  0  0  0  0  0
   -4.2144   -2.5657    0.3535 C   0  0  0  0  0  0  0  0  0  0  0  0
   -5.6155   -3.0401    0.6380 C   0  0  0  0  0  0  0  0  0  0  0  0
  1 14  2  0
  2 23  2  0
  3  6  1  0
  3  8  1  0
  3  9  1  0
  4  7  1  0
  4 14  1  0
  5 13  1  0
  5 23  1  0
  6  7  1  0
  8 16  1  0
  9 17  1  0
 10 11  2  0
 10 14  1  0
 10 15  1  0
 11 12  1  0
 11 18  1  0
 12 13  1  0
 12 19  2  0
 13 15  2  0
 18 20  2  0
 19 21  1  0
 20 22  1  0
 21 22  2  0
 23 24  1  0
M  END
>  <PUBCHEM_COMPOUND_CID>  (1) 
41189

>  <PUBCHEM_CONFORMER_RMSD>  (1) 
1

>  <PUBCHEM_CONFORMER_DIVERSEORDER>  (1) 
2
14
25
33
8
31
21
7
27
15
30
26
22
3
32
23
1
9
20
10
4
19
5
29
28
12
17
24
18
6
13
16
11

>  <PUBCHEM_MMFF94_PARTIAL_CHARGES>  (1) 
28
1 -0.57
10 0.01
13 0.11
14 0.62
15 -0.15
18 -0.15
19 -0.15
2 -0.57
20 -0.15
21 -0.15
22 -0.15
23 0.57
24 0.06
3 -0.81
33 0.37
34 0.15
4 -0.73
41 0.15
42 0.15
43 0.37
44 0.15
45 0.15
46 0.15
5 -0.54
6 0.27
7 0.3
8 0.27
9 0.27

>  <PUBCHEM_EFFECTIVE_ROTOR_COUNT>  (1) 
9

>  <PUBCHEM_PHARMACOPHORE_FEATURES>  (1) 
7
1 1 acceptor
1 2 acceptor
1 3 cation
1 4 donor
1 5 donor
5 10 11 12 13 15 rings
7 11 12 18 19 20 21 22 rings

>  <PUBCHEM_HEAVY_ATOM_COUNT>  (1) 
24

>  <PUBCHEM_ATOM_DEF_STEREO_COUNT>  (1) 
0

>  <PUBCHEM_ATOM_UDEF_STEREO_COUNT>  (1) 
0

>  <PUBCHEM_BOND_DEF_STEREO_COUNT>  (1) 
0

>  <PUBCHEM_BOND_UDEF_STEREO_COUNT>  (1) 
0

>  <PUBCHEM_ISOTOPIC_ATOM_COUNT>  (1) 
0

>  <PUBCHEM_COMPONENT_COUNT>  (1) 
1

>  <PUBCHEM_CACTVS_TAUTO_COUNT>  (1) 
4

>  <PUBCHEM_CONFORMER_ID>  (1) 
0000A0E500000002

>  <PUBCHEM_MMFF94_ENERGY>  (1) 
79.8944

>  <PUBCHEM_FEATURE_SELFOVERLAP>  (1) 
35.55

>  <PUBCHEM_SHAPE_FINGERPRINT>  (1) 
10319926 262 18339911616442237330
10411042 1 18337676446678806475
10595046 47 18261116266805027750
11056379 131 18408889503283873079
11265709 11 18335985380530833491
12107183 9 17757824529668599842
12390115 104 17911527497377045361
12516196 113 18263924513211231731
13140716 1 18411426137698705969
13782708 43 17989489623881031414
14787075 74 17968938733338756026
14844126 61 18334860515600450331
15042514 8 18410016541952849293
16087824 20 18336827486949051269
17844677 252 18411705383349759706
20101258 96 18409453622027302105
21033648 29 17845636089718149152
21304303 172 18413112767118549235
2132832 1 17968383449896768397
2297311 6 18410300215678859790
23557571 272 18343025453986767263
23559900 14 17983013350074778446
2747138 104 18189626101564439234
5104073 3 18341324523037783858
5969126 39 18271235102058305935

>  <PUBCHEM_SHAPE_MULTIPOLES>  (1) 
467.23
14.45
4.36
0.95
24
2.12
-0.05
-6.26
2.53
-7.47
0.23
0.87
-0.02
2.07

>  <PUBCHEM_SHAPE_SELFOVERLAP>  (1) 
971.827

>  <PUBCHEM_SHAPE_VOLUME>  (1) 
264.8

>  <PUBCHEM_COORDINATE_TYPE>  (1) 
2
5
10

$$$$
