41193
     RDKit          3D

 18 19  0  0  0  0  0  0  0  0999 V2000
   -1.4046    0.1061   -0.1418 P   0  0  0  0  0  0  0  0  0  0  0  0
   -1.9762    1.3370   -0.8051 O   0  0  0  0  0  0  0  0  0  0  0  0
    0.9590    1.0354   -1.0924 O   0  0  0  0  0  0  0  0  0  0  0  0
    2.3698   -0.8239    0.0419 O   0  0  0  0  0  0  0  0  0  0  0  0
    0.5503   -1.8472    0.9876 O   0  0  0  0  0  0  0  0  0  0  0  0
    1.1404    2.2732    0.8557 O   0  0  0  0  0  0  0  0  0  0  0  0
   -1.9642   -1.3298   -0.7661 N   0  0  0  0  0  0  0  0  0  0  0  0
   -1.7287    0.0115    1.4859 N   0  0  0  0  0  0  0  0  0  0  0  0
    0.3020    0.0506   -0.3169 N   0  0  0  0  0  0  0  0  0  0  0  0
   -1.8037   -1.5161   -2.2013 C   0  0  0  0  0  0  0  0  0  0  0  0
   -3.1544   -1.2545   -1.6017 C   0  0  0  0  0  0  0  0  0  0  0  0
   -3.1275   -0.1469    1.8579 C   0  0  0  0  0  0  0  0  0  0  0  0
   -2.4108    1.1529    2.0799 C   0  0  0  0  0  0  0  0  0  0  0  0
    1.0319   -0.9522    0.2973 C   0  0  0  0  0  0  0  0  0  0  0  0
    1.3270    2.1183   -0.3439 C   0  0  0  0  0  0  0  0  0  0  0  0
    3.2199   -1.8122    0.6339 C   0  0  0  0  0  0  0  0  0  0  0  0
    2.0145    3.1187   -1.2224 C   0  0  0  0  0  0  0  0  0  0  0  0
    4.6554   -1.5209    0.2516 C   0  0  0  0  0  0  0  0  0  0  0  0
  1  2  2  0
  1  7  1  0
  1  8  1  0
  1  9  1  0
  3  9  1  0
  3 15  1  0
  4 14  1  0
  4 16  1  0
  5 14  2  0
  6 15  2  0
  7 10  1  0
  7 11  1  0
  8 12  1  0
  8 13  1  0
  9 14  1  0
 10 11  1  0
 12 13  1  0
 15 17  1  0
 16 18  1  0
M  END
>  <PUBCHEM_COMPOUND_CID>  (1) 
41193

>  <PUBCHEM_CONFORMER_RMSD>  (1) 
0.8

>  <PUBCHEM_CONFORMER_DIVERSEORDER>  (1) 
1
71
49
86
12
4
16
38
77
40
87
74
20
103
81
44
53
88
5
47
43
39
104
31
83
72
48
62
70
32
96
95
106
102
92
59
57
75
33
58
11
94
51
90
6
82
100
30
54
73
60
89
50
45
80
18
23
97
99
68
22
93
42
52
84
15
65
85
27
29
105
8
67
98
63
46
24
69
76
55
91
37
101
64
19
61
56
7
66
41
9
28
78
25
17
107
79
34
21
14
13
10
26
2
36
3
35

>  <PUBCHEM_MMFF94_PARTIAL_CHARGES>  (1) 
25
1 1.49
10 -0.04
11 -0.04
12 -0.04
13 -0.04
14 0.78
15 0.66
16 0.28
17 0.06
19 0.1
2 -0.7
20 0.1
21 0.1
22 0.1
23 0.1
24 0.1
25 0.1
26 0.1
3 -0.19
4 -0.43
5 -0.57
6 -0.57
7 -0.58
8 -0.58
9 -0.28

>  <PUBCHEM_EFFECTIVE_ROTOR_COUNT>  (1) 
9.2

>  <PUBCHEM_PHARMACOPHORE_FEATURES>  (1) 
3
1 2 acceptor
1 5 acceptor
1 6 acceptor

>  <PUBCHEM_HEAVY_ATOM_COUNT>  (1) 
18

>  <PUBCHEM_ATOM_DEF_STEREO_COUNT>  (1) 
0

>  <PUBCHEM_ATOM_UDEF_STEREO_COUNT>  (1) 
0

>  <PUBCHEM_BOND_DEF_STEREO_COUNT>  (1) 
0

>  <PUBCHEM_BOND_UDEF_STEREO_COUNT>  (1) 
0

>  <PUBCHEM_ISOTOPIC_ATOM_COUNT>  (1) 
0

>  <PUBCHEM_COMPONENT_COUNT>  (1) 
1

>  <PUBCHEM_CACTVS_TAUTO_COUNT>  (1) 
1

>  <PUBCHEM_CONFORMER_ID>  (1) 
0000A0E900000001

>  <PUBCHEM_MMFF94_ENERGY>  (1) 
26.9476

>  <PUBCHEM_FEATURE_SELFOVERLAP>  (1) 
15.224

>  <PUBCHEM_SHAPE_FINGERPRINT>  (1) 
10756046 70 18271259247921292869
11578080 2 17914019154081932457
12173636 292 17255713174073062197
13296909 8 17274812537139751267
13380536 127 17202770443796738125
13538477 17 17846508070921010049
13898156 1 17988649639708926599
14115302 16 17917697025034937247
14617773 55 18059294391406960671
14817 1 8976412903657431767
15852999 172 17611726191618990712
16945 1 18187931754372499388
17357990 137 17843996713021860113
1813 80 18338813199730441310
20671657 53 18120340290271976846
21041028 32 18262252018538847648
21061003 4 17822868484555137786
22112679 90 17988368151636440913
228727 97 17698447959515267205
23402539 116 18263915554584581282
23419403 2 17386013900403849628
23526113 38 17024011697124016474
23557571 272 15410345454135052523
23598288 3 17829617158567940438
23598291 2 18272380779698481798
23598294 1 17129326383060994411
23622692 88 18130514037298941929
266924 1 18129100202716055749
2748010 2 17241043326699364423
298252 57 17688000052347058373
3286 77 17823159919777286003
568465 68 17678200229256255962
68419 9 17917439777662632055
6992083 37 18130224839702176462
81228 2 17684362854949915768
88987 49 16917083169320641073

>  <PUBCHEM_SHAPE_MULTIPOLES>  (1) 
329.99
5.81
2.82
1.96
3.83
1.9
0.06
-2.96
0.96
2.27
-0.82
-2.12
-0.04
-2.1

>  <PUBCHEM_SHAPE_SELFOVERLAP>  (1) 
636.905

>  <PUBCHEM_SHAPE_VOLUME>  (1) 
202.1

>  <PUBCHEM_COORDINATE_TYPE>  (1) 
2
5
10

$$$$
