41191
     RDKit          3D

 22 23  0  0  1  0  0  0  0  0999 V2000
    0.8392    0.0321    0.2269 P   0  0  0  0  0  0  0  0  0  0  0  0
    1.4099   -0.6475    1.4495 O   0  0  0  0  0  0  0  0  0  0  0  0
   -1.5323   -0.2881    1.5027 O   0  0  0  0  0  0  0  0  0  0  0  0
   -2.8960    0.9903   -0.2971 O   0  0  0  0  0  0  0  0  0  0  0  0
   -1.0644    1.4212   -1.6057 O   0  0  0  0  0  0  0  0  0  0  0  0
   -1.8187   -2.2238    0.2653 O   0  0  0  0  0  0  0  0  0  0  0  0
    1.4897    1.5330   -0.0693 N   0  0  0  0  0  0  0  0  0  0  0  0
    1.0609   -0.8094   -1.1897 N   0  0  0  0  0  0  0  0  0  0  0  0
   -0.8576    0.2423    0.3774 N   0  0  0  0  0  0  0  0  0  0  0  0
    2.7388    1.9033    0.5785 C   0  0  0  0  0  0  0  0  0  0  0  0
    1.6346   -2.1454   -1.1367 C   0  0  0  0  0  0  0  0  0  0  0  0
    1.4322    2.4948    1.0210 C   0  0  0  0  0  0  0  0  0  0  0  0
    2.4343   -0.9788   -1.6387 C   0  0  0  0  0  0  0  0  0  0  0  0
    3.6599    2.7621   -0.2130 C   0  0  0  0  0  0  0  0  0  0  0  0
    3.4136    0.9378    1.4869 C   0  0  0  0  0  0  0  0  0  0  0  0
    1.1221   -3.1205   -2.1362 C   0  0  0  0  0  0  0  0  0  0  0  0
    2.0077   -2.7371    0.1762 C   0  0  0  0  0  0  0  0  0  0  0  0
   -1.5626    0.9272   -0.5971 C   0  0  0  0  0  0  0  0  0  0  0  0
   -1.9672   -1.5658    1.2864 C   0  0  0  0  0  0  0  0  0  0  0  0
   -3.7202    1.6818   -1.2419 C   0  0  0  0  0  0  0  0  0  0  0  0
   -2.6699   -2.0654    2.5120 C   0  0  0  0  0  0  0  0  0  0  0  0
   -5.1541    1.6560   -0.7571 C   0  0  0  0  0  0  0  0  0  0  0  0
  1  2  2  0
  1  7  1  0
  1  8  1  0
  1  9  1  0
  3  9  1  0
  3 19  1  0
  4 18  1  0
  4 20  1  0
  5 18  2  0
  6 19  2  0
  7 10  1  0
  7 12  1  0
  8 11  1  0
  8 13  1  0
  9 18  1  0
 10 12  1  0
 10 14  1  0
 10 15  1  0
 11 13  1  0
 11 16  1  0
 11 17  1  0
 19 21  1  0
 20 22  1  0
M  END
>  <PUBCHEM_COMPOUND_CID>  (1) 
41191

>  <PUBCHEM_CONFORMER_RMSD>  (1) 
1

>  <PUBCHEM_CONFORMER_DIVERSEORDER>  (1) 
1
29
8
13
3
4
10
9
17
22
19
23
20
25
7
2
24
6
16
18
15
26
5
21
12
27
28
11
14

>  <PUBCHEM_MMFF94_PARTIAL_CHARGES>  (1) 
25
1 1.49
10 -0.03
11 -0.03
12 -0.04
13 -0.04
14 0.09
15 0.09
16 0.09
17 0.09
18 0.78
19 0.66
2 -0.7
20 0.28
21 0.06
23 0.1
24 0.1
25 0.1
26 0.1
3 -0.19
4 -0.43
5 -0.57
6 -0.57
7 -0.58
8 -0.58
9 -0.28

>  <PUBCHEM_EFFECTIVE_ROTOR_COUNT>  (1) 
9.2

>  <PUBCHEM_PHARMACOPHORE_FEATURES>  (1) 
5
1 2 acceptor
1 5 acceptor
1 6 acceptor
3 10 14 15 hydrophobe
3 11 16 17 hydrophobe

>  <PUBCHEM_HEAVY_ATOM_COUNT>  (1) 
22

>  <PUBCHEM_ATOM_DEF_STEREO_COUNT>  (1) 
0

>  <PUBCHEM_ATOM_UDEF_STEREO_COUNT>  (1) 
0

>  <PUBCHEM_BOND_DEF_STEREO_COUNT>  (1) 
0

>  <PUBCHEM_BOND_UDEF_STEREO_COUNT>  (1) 
0

>  <PUBCHEM_ISOTOPIC_ATOM_COUNT>  (1) 
0

>  <PUBCHEM_COMPONENT_COUNT>  (1) 
1

>  <PUBCHEM_CACTVS_TAUTO_COUNT>  (1) 
1

>  <PUBCHEM_CONFORMER_ID>  (1) 
0000A0E700000001

>  <PUBCHEM_MMFF94_ENERGY>  (1) 
53.7705

>  <PUBCHEM_FEATURE_SELFOVERLAP>  (1) 
25.373

>  <PUBCHEM_SHAPE_FINGERPRINT>  (1) 
10906281 52 18197502818514314352
11578080 2 18119561853393421053
121448 382 17058637685041322870
12592029 89 18130776888960106908
12633257 1 17750770234604959424
12788726 201 16901047595657736710
13149001 5 18191033308933529447
13681431 1 17985557658577388350
14178342 30 17620509090745103651
15309172 13 17984713469770503896
16945 1 17986415333407996294
18186145 218 18263078813145142261
18915476 22 18200888326179236183
19930374 2 18123190374734949266
20600515 1 17682685021791724494
20832881 197 17834400025580014653
22112679 90 15864074307714952045
22182313 1 18262533566914714971
23419403 2 18195837156681288975
23526113 38 18050577248231144303
23557571 272 18114192976801052785
23559900 14 18041570148034789006
238 59 18131343133264064757
2748010 2 18340780328763262948
394222 165 17203310235128490829
495365 180 18201429260077726013
5845 1 14780359333694228326
6992083 37 17116639294170685306
7364860 26 18129369432646313332
81228 2 17822868584014417531
88987 49 17530973492177607097
9862522 239 18126278890418236482
9981440 41 18129079264624485409
9999458 23 17023170588288529664

>  <PUBCHEM_SHAPE_MULTIPOLES>  (1) 
412.31
6.5
3.72
2.03
6.08
1.19
0.38
-4.57
-0.54
-1.84
-0.62
0.61
1.23
2.92

>  <PUBCHEM_SHAPE_SELFOVERLAP>  (1) 
811.142

>  <PUBCHEM_SHAPE_VOLUME>  (1) 
250.1

>  <PUBCHEM_COORDINATE_TYPE>  (1) 
2
5
10

$$$$
