41195
     RDKit          3D

 19 19  0  0  0  0  0  0  0  0999 V2000
    2.9492   -0.1215   -0.4629 P   0  0  0  0  0  0  0  0  0  0  0  0
    1.9238    1.1137   -0.2823 O   0  0  0  0  0  0  0  0  0  0  0  0
    2.8593   -0.9196    0.9449 O   0  0  0  0  0  0  0  0  0  0  0  0
    4.4065    0.5891   -0.4197 O   0  0  0  0  0  0  0  0  0  0  0  0
    2.7254   -0.9588   -1.6906 O   0  0  0  0  0  0  0  0  0  0  0  0
   -2.0941   -2.2809    1.0913 O   0  0  0  0  0  0  0  0  0  0  0  0
   -2.3717   -2.2958   -1.1646 O   0  0  0  0  0  0  0  0  0  0  0  0
   -4.2804    1.7144    0.3084 O   0  0  0  0  0  0  0  0  0  0  0  0
   -4.1483   -0.4701    0.1369 O   0  0  0  0  0  0  0  0  0  0  0  0
   -3.6126    0.6625    0.1730 N   0  0  0  0  0  0  0  0  0  0  0  0
    0.5648    0.9962   -0.1698 C   0  0  0  0  0  0  0  0  0  0  0  0
   -1.4092   -0.3832   -0.0970 C   0  0  0  0  0  0  0  0  0  0  0  0
   -0.0241   -0.2634   -0.2100 C   0  0  0  0  0  0  0  0  0  0  0  0
   -2.1978    0.7572    0.0557 C   0  0  0  0  0  0  0  0  0  0  0  0
   -0.2161    2.1372   -0.0177 C   0  0  0  0  0  0  0  0  0  0  0  0
   -1.6012    2.0175    0.0954 C   0  0  0  0  0  0  0  0  0  0  0  0
   -1.9968   -1.7168   -0.1423 C   0  0  0  0  0  0  0  0  0  0  0  0
    3.7606   -1.9889    1.1727 C   0  0  0  0  0  0  0  0  0  0  0  0
    4.7627    1.4113    0.6785 C   0  0  0  0  0  0  0  0  0  0  0  0
  1  2  1  0
  1  3  1  0
  1  4  1  0
  1  5  2  0
  2 11  1  0
  3 18  1  0
  4 19  1  0
  6 17  1  0
  7 17  2  0
  8 10  1  0
  9 10  2  0
 10 14  1  0
 11 13  2  0
 11 15  1  0
 12 13  1  0
 12 14  2  0
 12 17  1  0
 14 16  1  0
 15 16  2  0
M  CHG  2   8  -1  10   1
M  END
>  <PUBCHEM_COMPOUND_CID>  (1) 
41195

>  <PUBCHEM_CONFORMER_RMSD>  (1) 
0.8

>  <PUBCHEM_CONFORMER_DIVERSEORDER>  (1) 
2
10
13
16
17
4
1
9
15
14
6
3
18
5
11
8
7
12

>  <PUBCHEM_MMFF94_PARTIAL_CHARGES>  (1) 
23
1 1.51
10 0.91
11 0.08
12 0.09
13 -0.15
14 0.13
15 -0.15
16 -0.15
17 0.63
18 0.28
19 0.28
2 -0.35
20 0.15
21 0.15
22 0.15
29 0.5
3 -0.55
4 -0.55
5 -0.7
6 -0.65
7 -0.57
8 -0.52
9 -0.52

>  <PUBCHEM_EFFECTIVE_ROTOR_COUNT>  (1) 
6

>  <PUBCHEM_PHARMACOPHORE_FEATURES>  (1) 
8
1 5 acceptor
1 6 acceptor
1 7 acceptor
1 8 acceptor
1 8 anion
1 9 acceptor
3 6 7 17 anion
6 11 12 13 14 15 16 rings

>  <PUBCHEM_HEAVY_ATOM_COUNT>  (1) 
19

>  <PUBCHEM_ATOM_DEF_STEREO_COUNT>  (1) 
0

>  <PUBCHEM_ATOM_UDEF_STEREO_COUNT>  (1) 
0

>  <PUBCHEM_BOND_DEF_STEREO_COUNT>  (1) 
0

>  <PUBCHEM_BOND_UDEF_STEREO_COUNT>  (1) 
0

>  <PUBCHEM_ISOTOPIC_ATOM_COUNT>  (1) 
0

>  <PUBCHEM_COMPONENT_COUNT>  (1) 
1

>  <PUBCHEM_CACTVS_TAUTO_COUNT>  (1) 
1

>  <PUBCHEM_CONFORMER_ID>  (1) 
0000A0EB00000002

>  <PUBCHEM_MMFF94_ENERGY>  (1) 
59.6559

>  <PUBCHEM_FEATURE_SELFOVERLAP>  (1) 
40.742

>  <PUBCHEM_SHAPE_FINGERPRINT>  (1) 
10366900 7 17203602683878479368
10616163 171 18411140272595538190
11132069 177 18412830200302604876
12403814 3 17603865589913950309
12670545 47 16988552524648180552
12788726 201 18129668491245884784
13140716 1 18411136952369170467
13214271 11 18201435934599355100
13675066 3 17748827384436185560
15196674 1 18409448055348668595
15375358 24 18202003230943459932
15375462 189 18334294301133818808
15669948 3 18412543214909064918
16752209 62 18118389671013773325
16945 1 18341333288622968149
19050596 39 18334850628659204336
20510252 161 18129948858026113233
20645476 183 17605300465325276727
20645477 70 17131562639387964852
21267235 1 18337964483689993911
23402539 116 18272645736732469845
23463225 33 18335422352545080460
23557571 272 18271534190452959580
23559900 14 18201445727467389196
2748010 2 18268430329199540709
3312278 4 18335424607640255240
34934 24 18410290328563716084
474 4 17677343847807474628
5104073 3 18410295774460805577
69090 78 18341612590398890093
81228 2 18339095799387345824
9709674 26 18272095989128390030

>  <PUBCHEM_SHAPE_MULTIPOLES>  (1) 
342.93
8.43
2.48
0.99
4.05
0.51
0.12
-0.37
-1.26
-0.79
-0.3
0.66
0.49
-0.47

>  <PUBCHEM_SHAPE_SELFOVERLAP>  (1) 
699.29

>  <PUBCHEM_SHAPE_VOLUME>  (1) 
199.9

>  <PUBCHEM_COORDINATE_TYPE>  (1) 
2
5
10

$$$$
