41192
     RDKit          3D

 15 16  0  0  0  0  0  0  0  0999 V2000
   -1.7359    0.0076   -0.2769 P   0  0  0  0  0  0  0  0  0  0  0  0
   -0.2642   -0.0822   -0.9726 O   0  0  0  0  0  0  0  0  0  0  0  0
   -2.8227    0.0576   -1.3237 O   0  0  0  0  0  0  0  0  0  0  0  0
    2.9669   -0.0009    0.4475 O   0  0  0  0  0  0  0  0  0  0  0  0
    2.3266   -0.1984   -1.7499 O   0  0  0  0  0  0  0  0  0  0  0  0
   -1.8190   -1.2852    0.7618 N   0  0  0  0  0  0  0  0  0  0  0  0
   -1.6521    1.3517    0.6932 N   0  0  0  0  0  0  0  0  0  0  0  0
    0.7850   -0.0132   -0.0438 N   0  0  0  0  0  0  0  0  0  0  0  0
   -1.9017   -2.6045    0.1490 C   0  0  0  0  0  0  0  0  0  0  0  0
   -3.0928   -1.9900    0.8244 C   0  0  0  0  0  0  0  0  0  0  0  0
   -1.5700    2.6382    0.0134 C   0  0  0  0  0  0  0  0  0  0  0  0
   -2.8267    2.2143    0.7156 C   0  0  0  0  0  0  0  0  0  0  0  0
    2.0486   -0.0827   -0.5605 C   0  0  0  0  0  0  0  0  0  0  0  0
    4.3404   -0.0577    0.0466 C   0  0  0  0  0  0  0  0  0  0  0  0
    5.2176    0.0455    1.2760 C   0  0  0  0  0  0  0  0  0  0  0  0
  1  2  1  0
  1  3  2  0
  1  6  1  0
  1  7  1  0
  2  8  1  0
  4 13  1  0
  4 14  1  0
  5 13  2  0
  6  9  1  0
  6 10  1  0
  7 11  1  0
  7 12  1  0
  8 13  1  0
  9 10  1  0
 11 12  1  0
 14 15  1  0
M  END
>  <PUBCHEM_COMPOUND_CID>  (1) 
41192

>  <PUBCHEM_CONFORMER_RMSD>  (1) 
0.8

>  <PUBCHEM_CONFORMER_DIVERSEORDER>  (1) 
1
61
53
34
5
73
14
26
7
45
6
44
32
31
72
19
20
47
39
38
49
8
36
62
23
24
40
28
27
37
12
58
67
11
35
16
42
10
60
29
55
69
51
4
18
2
41
21
25
33
13
48
3
52
59
17
30
50
63
56
22
65
43
46
9
15
54
57
66
64
68
71
70

>  <PUBCHEM_MMFF94_PARTIAL_CHARGES>  (1) 
23
1 1.51
10 -0.04
11 -0.04
12 -0.04
13 0.78
14 0.28
16 0.1
17 0.1
18 0.1
19 0.1
2 -0.31
20 0.1
21 0.1
22 0.1
23 0.1
24 0.37
3 -0.7
4 -0.43
5 -0.57
6 -0.58
7 -0.58
8 -0.39
9 -0.04

>  <PUBCHEM_EFFECTIVE_ROTOR_COUNT>  (1) 
8.2

>  <PUBCHEM_PHARMACOPHORE_FEATURES>  (1) 
2
1 5 acceptor
1 8 donor

>  <PUBCHEM_HEAVY_ATOM_COUNT>  (1) 
15

>  <PUBCHEM_ATOM_DEF_STEREO_COUNT>  (1) 
0

>  <PUBCHEM_ATOM_UDEF_STEREO_COUNT>  (1) 
0

>  <PUBCHEM_BOND_DEF_STEREO_COUNT>  (1) 
0

>  <PUBCHEM_BOND_UDEF_STEREO_COUNT>  (1) 
0

>  <PUBCHEM_ISOTOPIC_ATOM_COUNT>  (1) 
0

>  <PUBCHEM_COMPONENT_COUNT>  (1) 
1

>  <PUBCHEM_CACTVS_TAUTO_COUNT>  (1) 
2

>  <PUBCHEM_CONFORMER_ID>  (1) 
0000A0E800000001

>  <PUBCHEM_MMFF94_ENERGY>  (1) 
21.8853

>  <PUBCHEM_FEATURE_SELFOVERLAP>  (1) 
10.148

>  <PUBCHEM_SHAPE_FINGERPRINT>  (1) 
10680689 15 17846778525138168294
11357001 24 18408888451253937731
12532896 13 18125446310997629997
12932764 1 17275118205951856446
13296909 8 18408885139802510320
14178342 30 18334582304571965786
15279308 16 17988925535517890580
18219364 16 16845566548104674618
187816 3 18338220623213580765
20112054 60 18411983563490559310
20645477 56 18340495456351753360
20645477 70 14779259818209250810
20671657 53 17024026149673110983
20715346 28 17703241636965105732
21339142 149 18343298141766462157
21339142 36 18266451178352602343
21524375 3 17695359074997497093
21650355 55 18338800138423605635
22943178 12 17988092097388551582
2306618 200 17895185597886804893
23402539 116 18341884208710473815
23500284 214 17916593020360004633
23532345 11 18410016507324046606
23557571 272 18130522867873437668
23598291 2 17676787413107918606
27216 239 17775000180645945608
3086196 2 18409448128284114818
3248919 1 18408892819309492158
5706482 22 18263647264750852425
57265010 4 18408316675316744576
6049 1 17702407116287593668
6992083 37 17749676194638619052
7615 1 17749683977367324708
81228 2 18339944674409544091
88987 49 18265352654319118516
90127 26 17989766696905880416

>  <PUBCHEM_SHAPE_MULTIPOLES>  (1) 
274.12
7.97
2.48
1.2
13.06
0.29
-0.25
-0.48
2.48
-4.05
0.67
0.42
-0.05
0.16

>  <PUBCHEM_SHAPE_SELFOVERLAP>  (1) 
521.628

>  <PUBCHEM_SHAPE_VOLUME>  (1) 
170.8

>  <PUBCHEM_COORDINATE_TYPE>  (1) 
2
5
10

$$$$
