41209
     RDKit          3D

 21 20  0  0  1  0  0  0  0  0999 V2000
    1.3051    1.2251    0.1540 C   0  0  0  0  0  0  0  0  0  0  0  0
   -3.7810    1.8480   -0.2925 C   0  0  0  0  0  0  0  0  0  0  0  0
   -0.0829    0.5754   -0.0414 C   0  0  0  0  0  0  0  0  0  0  0  0
   -2.5839    0.8767   -0.2639 C   0  0  0  0  0  0  0  0  0  0  0  0
   -1.2456    1.5733    0.0127 C   0  0  0  0  0  0  0  0  0  0  0  0
    2.3839    0.1197    0.0968 C   0  0  0  0  0  0  0  0  0  0  0  0
   -5.0718    1.1457   -0.7688 C   0  0  0  0  0  0  0  0  0  0  0  0
    3.8003    0.6272    0.3899 C   0  0  0  0  0  0  0  0  0  0  0  0
    4.8574   -0.4830    0.3561 C   0  0  0  0  0  0  0  0  0  0  0  0
   -5.5825    0.0241    0.1440 C   0  0  0  0  0  0  0  0  0  0  0  0
    6.2697    0.0181    0.6752 C   0  0  0  0  0  0  0  0  0  0  0  0
    1.5677    2.3231   -0.8814 C   0  0  0  0  0  0  0  0  0  0  0  0
    7.3341   -1.0978    0.6594 C   0  0  0  0  0  0  0  0  0  0  0  0
   -3.9883    2.5496    1.0524 C   0  0  0  0  0  0  0  0  0  0  0  0
   -6.8313   -0.6400   -0.4485 C   0  0  0  0  0  0  0  0  0  0  0  0
   -7.3522   -1.8237    0.3878 C   0  0  0  0  0  0  0  0  0  0  0  0
    7.3863   -1.9044   -0.6534 C   0  0  0  0  0  0  0  0  0  0  0  0
    8.7055   -0.5082    1.0067 C   0  0  0  0  0  0  0  0  0  0  0  0
   -6.2703   -2.9018    0.4908 C   0  0  0  0  0  0  0  0  0  0  0  0
   -8.6311   -2.4309   -0.1908 C   0  0  0  0  0  0  0  0  0  0  0  0
    7.8110   -1.1162   -1.8850 C   0  0  0  0  0  0  0  0  0  0  0  0
  1  3  1  0
  1  6  1  0
  1 12  1  0
  2  4  1  0
  2  7  1  0
  2 14  1  0
  3  5  1  0
  4  5  1  0
  6  8  1  0
  7 10  1  0
  8  9  1  0
  9 11  1  0
 10 15  1  0
 11 13  1  0
 13 17  1  0
 13 18  1  0
 15 16  1  0
 16 19  1  0
 16 20  1  0
 17 21  1  0
M  END
>  <PUBCHEM_COMPOUND_CID>  (1) 
41209

>  <PUBCHEM_CONFORMER_RMSD>  (1) 
1.6

>  <PUBCHEM_CONFORMER_DIVERSEORDER>  (1) 
1
14
4
3
41
36
23
46
8
40
11
10
20
35
38
33
22
27
39
18
13
12
7
42
28
24
45
32
30
17
25
19
2
15
21
6
31
43
9
44
29
34
37
26
5
16

>  <PUBCHEM_MMFF94_PARTIAL_CHARGES>  (1) 
0

>  <PUBCHEM_EFFECTIVE_ROTOR_COUNT>  (1) 
14

>  <PUBCHEM_PHARMACOPHORE_FEATURES>  (1) 
5
1 12 hydrophobe
1 14 hydrophobe
1 18 hydrophobe
1 21 hydrophobe
3 16 19 20 hydrophobe

>  <PUBCHEM_HEAVY_ATOM_COUNT>  (1) 
21

>  <PUBCHEM_ATOM_DEF_STEREO_COUNT>  (1) 
0

>  <PUBCHEM_ATOM_UDEF_STEREO_COUNT>  (1) 
3

>  <PUBCHEM_BOND_DEF_STEREO_COUNT>  (1) 
0

>  <PUBCHEM_BOND_UDEF_STEREO_COUNT>  (1) 
0

>  <PUBCHEM_ISOTOPIC_ATOM_COUNT>  (1) 
0

>  <PUBCHEM_COMPONENT_COUNT>  (1) 
1

>  <PUBCHEM_CACTVS_TAUTO_COUNT>  (1) 
1

>  <PUBCHEM_CONFORMER_ID>  (1) 
0000A0F900000001

>  <PUBCHEM_MMFF94_ENERGY>  (1) 
20.3181

>  <PUBCHEM_FEATURE_SELFOVERLAP>  (1) 
25.376

>  <PUBCHEM_SHAPE_FINGERPRINT>  (1) 
10162869 55 17167861977072142686
11135609 99 18337389447798861223
11315181 36 18411135810325302633
11761917 87 16199885947265692974
13668630 136 18410009914559868252
14142895 15 18335139856511391892
14178184 131 18201433744425283311
14202775 3 18342176606560197102
14344974 204 18200593739011373759
14344974 52 11458430155080163187
14429380 56 15574721305281450646
14598715 104 8214139620966505686
14729087 3 8935000373785936047
1818759 1 18333737927092183163
18335252 114 14345797145925870318
18335252 98 18131631176353397226
18643901 69 18113898269910902551
21095123 293 12175617417259701234
21130935 74 18270961216484024914
21150785 3 16732983115629757438
21267235 1 18411700993323691789
21781051 124 18130517392101281246
22288116 15 13262684777201857177
23389318 12 17748832934208899342
23569943 247 17833834872651964154
328311 84 17917429800912539486
3383291 50 18412543232242636003
54039377 194 18409730690515376887
59682541 35 18131624604594531306
636775 8 18410862061646234222
9995097 26 18410298025508815278
999808 66 18201998833150156439

>  <PUBCHEM_SHAPE_MULTIPOLES>  (1) 
432.17
31.2
2.84
1.07
15.36
0.53
0.25
27.66
-0.05
-5.76
-0.04
1.71
0.06
0.84

>  <PUBCHEM_SHAPE_SELFOVERLAP>  (1) 
787.495

>  <PUBCHEM_SHAPE_VOLUME>  (1) 
277.7

>  <PUBCHEM_COORDINATE_TYPE>  (1) 
2
5
10

$$$$
