41221
     RDKit          3D

 13 14  0  0  1  0  0  0  0  0999 V2000
    3.4632   -0.6770   -0.0553 O   0  0  0  0  0  0  0  0  0  0  0  0
   -2.8927    0.1583   -0.3325 N   0  0  0  0  0  0  0  0  0  0  0  0
   -1.3304   -1.7171   -0.0614 C   0  0  0  0  0  0  0  0  0  0  0  0
   -2.6774   -1.1192    0.3579 C   0  0  0  0  0  0  0  0  0  0  0  0
   -1.9039    1.1537    0.1186 C   0  0  0  0  0  0  0  0  0  0  0  0
   -0.2028   -0.7199    0.0012 C   0  0  0  0  0  0  0  0  0  0  0  0
   -0.4780    0.6578    0.0420 C   0  0  0  0  0  0  0  0  0  0  0  0
    1.1264   -1.1604   -0.0417 C   0  0  0  0  0  0  0  0  0  0  0  0
    0.5828    1.5730    0.0770 C   0  0  0  0  0  0  0  0  0  0  0  0
   -4.2509    0.6499   -0.1030 C   0  0  0  0  0  0  0  0  0  0  0  0
    2.1744   -0.2406   -0.0180 C   0  0  0  0  0  0  0  0  0  0  0  0
    1.9030    1.1243    0.0434 C   0  0  0  0  0  0  0  0  0  0  0  0
    4.4863    0.3171   -0.0282 C   0  0  0  0  0  0  0  0  0  0  0  0
  1 11  1  0
  1 13  1  0
  2  4  1  0
  2  5  1  0
  2 10  1  0
  3  4  1  0
  3  6  1  0
  5  7  1  0
  6  7  2  0
  6  8  1  0
  7  9  1  0
  8 11  2  0
  9 12  2  0
 11 12  1  0
M  END
>  <PUBCHEM_COMPOUND_CID>  (1) 
41221

>  <PUBCHEM_CONFORMER_RMSD>  (1) 
0.6

>  <PUBCHEM_CONFORMER_DIVERSEORDER>  (1) 
1
3
2

>  <PUBCHEM_MMFF94_PARTIAL_CHARGES>  (1) 
16
1 -0.36
10 0.27
11 0.08
12 -0.15
13 0.28
2 -0.81
20 0.15
21 0.15
25 0.15
3 0.14
4 0.27
5 0.41
6 -0.14
7 -0.14
8 -0.15
9 -0.15

>  <PUBCHEM_EFFECTIVE_ROTOR_COUNT>  (1) 
1.8

>  <PUBCHEM_PHARMACOPHORE_FEATURES>  (1) 
4
1 1 acceptor
1 2 cation
6 2 3 4 5 6 7 rings
6 6 7 8 9 11 12 rings

>  <PUBCHEM_HEAVY_ATOM_COUNT>  (1) 
13

>  <PUBCHEM_ATOM_DEF_STEREO_COUNT>  (1) 
0

>  <PUBCHEM_ATOM_UDEF_STEREO_COUNT>  (1) 
0

>  <PUBCHEM_BOND_DEF_STEREO_COUNT>  (1) 
0

>  <PUBCHEM_BOND_UDEF_STEREO_COUNT>  (1) 
0

>  <PUBCHEM_ISOTOPIC_ATOM_COUNT>  (1) 
0

>  <PUBCHEM_COMPONENT_COUNT>  (1) 
1

>  <PUBCHEM_CACTVS_TAUTO_COUNT>  (1) 
1

>  <PUBCHEM_CONFORMER_ID>  (1) 
0000A10500000001

>  <PUBCHEM_MMFF94_ENERGY>  (1) 
40.6165

>  <PUBCHEM_FEATURE_SELFOVERLAP>  (1) 
20.319

>  <PUBCHEM_SHAPE_FINGERPRINT>  (1) 
10130415 120 18408882936399904640
10608611 8 18339357569075188465
11132069 177 18411696599740634800
11401426 45 18342170072626795900
11471102 20 18411413995055747493
12032990 46 18412270531909802534
124424 183 18333447646825743587
12932764 1 16878208848935639085
13221675 6 18409730655464483362
13380535 76 18411982442472706367
13690532 89 18410009905658645202
14115302 16 18187938286759151110
14144814 61 18410575063330771378
14325111 11 18410292553193199593
14911166 2 18411698777004295365
14993402 34 18411699872194562468
15196674 1 18410575123333615330
15219456 202 18340484594316015408
15536298 74 18271245040517806224
15775835 57 18186801357381638203
16945 1 18412553097523168385
18522853 276 18341895190388123905
193761 8 17834957851283848480
200 152 17846774122659559295
20201158 50 18413389817350751015
20510252 161 18201439108274472224
20588541 1 18411421682852047942
20645477 70 18130507409864289454
21267235 1 18410583902252400394
21501502 16 18193559088847452533
23402539 116 18201711843430227957
23402655 69 18269825446663253837
23463225 33 18407759222932076310
23552423 10 18116714212550048655
23559900 14 18341894100447378544
25 1 18263352591529525845
2748010 2 18195244644446688293
3312278 4 18409451396675144843
5104073 3 18410574028148604352
528886 8 18411414007761301331
53812653 166 18412259532245187706
6333449 129 18412261757259955279
69090 78 18272364282882253943
7364860 26 18125441053921093784
8809292 202 18261116321800832683

>  <PUBCHEM_SHAPE_MULTIPOLES>  (1) 
256.68
6.69
1.6
0.62
1.63
0.11
-0.01
-0.59
0.2
-0.39
-0.04
-0.06
0
0.11

>  <PUBCHEM_SHAPE_SELFOVERLAP>  (1) 
537.901

>  <PUBCHEM_SHAPE_VOLUME>  (1) 
146.7

>  <PUBCHEM_COORDINATE_TYPE>  (1) 
2
5
10

$$$$
