41230
     RDKit          3D

 19 21  0  0  1  0  0  0  0  0999 V2000
    1.0393    1.3972    1.3153 O   0  0  0  0  0  0  0  0  0  0  0  0
   -3.8538    1.3055   -0.2476 O   0  0  0  0  0  0  0  0  0  0  0  0
   -6.0862    0.8057   -0.5879 O   0  0  0  0  0  0  0  0  0  0  0  0
   -4.5395   -0.8867   -0.1708 N   0  0  0  0  0  0  0  0  0  0  0  0
    0.8753    0.1237    0.6702 C   0  0  0  0  0  0  0  0  0  0  0  0
    1.6702    0.1653   -0.6530 C   0  0  0  0  0  0  0  0  0  0  0  0
   -0.5626   -0.2129    0.4525 C   0  0  0  0  0  0  0  0  0  0  0  0
    3.1635    0.0756   -0.4421 C   0  0  0  0  0  0  0  0  0  0  0  0
   -1.4822    0.8114    0.2037 C   0  0  0  0  0  0  0  0  0  0  0  0
   -2.7969    0.4462    0.0104 C   0  0  0  0  0  0  0  0  0  0  0  0
   -0.9748   -1.5606    0.5012 C   0  0  0  0  0  0  0  0  0  0  0  0
   -3.1895   -0.8741    0.0600 C   0  0  0  0  0  0  0  0  0  0  0  0
   -2.3133   -1.9075    0.3021 C   0  0  0  0  0  0  0  0  0  0  0  0
    3.8958    1.2394   -0.2728 C   0  0  0  0  0  0  0  0  0  0  0  0
    3.7722   -1.1688   -0.4225 C   0  0  0  0  0  0  0  0  0  0  0  0
   -4.9454    0.4250   -0.3568 C   0  0  0  0  0  0  0  0  0  0  0  0
    5.2746    1.1564   -0.0784 C   0  0  0  0  0  0  0  0  0  0  0  0
    5.1509   -1.2518   -0.2278 C   0  0  0  0  0  0  0  0  0  0  0  0
    5.9022   -0.0891   -0.0557 C   0  0  0  0  0  0  0  0  0  0  0  0
  1  5  1  0
  2 10  1  0
  2 16  1  0
  3 16  2  0
  4 12  1  0
  4 16  1  0
  5  6  1  0
  5  7  1  0
  6  8  1  0
  7  9  1  0
  7 11  2  0
  8 14  2  0
  8 15  1  0
  9 10  2  0
 10 12  1  0
 11 13  1  0
 12 13  2  0
 14 17  1  0
 15 18  2  0
 17 19  2  0
 18 19  1  0
M  END
>  <PUBCHEM_COMPOUND_CID>  (1) 
41230

>  <PUBCHEM_CONFORMER_RMSD>  (1) 
0.6

>  <PUBCHEM_CONFORMER_DIVERSEORDER>  (1) 
5
12
10
1
7
20
13
33
9
21
18
29
17
31
8
30
2
26
11
6
16
28
25
23
22
3
24
27
14
32
15
19
4

>  <PUBCHEM_MMFF94_PARTIAL_CHARGES>  (1) 
29
1 -0.68
10 0.08
11 -0.15
12 0.12
13 -0.15
14 -0.15
15 -0.15
16 0.78
17 -0.15
18 -0.15
19 -0.15
2 -0.23
23 0.15
24 0.15
25 0.15
26 0.37
27 0.15
28 0.15
29 0.4
3 -0.57
30 0.15
31 0.15
32 0.15
4 -0.55
5 0.42
6 0.14
7 -0.14
8 -0.14
9 -0.15

>  <PUBCHEM_EFFECTIVE_ROTOR_COUNT>  (1) 
3

>  <PUBCHEM_PHARMACOPHORE_FEATURES>  (1) 
7
1 1 acceptor
1 1 donor
1 3 acceptor
1 4 donor
5 2 4 10 12 16 rings
6 7 9 10 11 12 13 rings
6 8 14 15 17 18 19 rings

>  <PUBCHEM_HEAVY_ATOM_COUNT>  (1) 
19

>  <PUBCHEM_ATOM_DEF_STEREO_COUNT>  (1) 
0

>  <PUBCHEM_ATOM_UDEF_STEREO_COUNT>  (1) 
1

>  <PUBCHEM_BOND_DEF_STEREO_COUNT>  (1) 
0

>  <PUBCHEM_BOND_UDEF_STEREO_COUNT>  (1) 
0

>  <PUBCHEM_ISOTOPIC_ATOM_COUNT>  (1) 
0

>  <PUBCHEM_COMPONENT_COUNT>  (1) 
1

>  <PUBCHEM_CACTVS_TAUTO_COUNT>  (1) 
2

>  <PUBCHEM_CONFORMER_ID>  (1) 
0000A10E00000005

>  <PUBCHEM_MMFF94_ENERGY>  (1) 
56.6486

>  <PUBCHEM_FEATURE_SELFOVERLAP>  (1) 
35.638

>  <PUBCHEM_SHAPE_FINGERPRINT>  (1) 
10014705 185 18260831530929702829
10366900 7 15267349535053979358
10835480 77 18341327890049978912
11315181 36 18059861683683042840
11719270 70 18343581829559185342
11796584 16 18408886252653260066
11858739 19 18272937090234136062
12107183 9 17689435984404495594
12236239 1 17385441037697518768
12516196 113 17561361790383046960
12815109 37 17918274255527731686
12916748 109 17894917325465533905
13167823 11 18408885148730360298
13533116 47 18201438026665373654
13668630 136 16774082886056443220
15099037 51 18343864420245743271
15183329 4 18410293575331911144
15196674 1 18409731785252138614
15375358 24 18272658947867210358
15788980 27 18260270763188868090
17834072 8 18334017168485303342
1813 80 14333134082966219992
18186145 218 15140965118737008812
18222031 100 15769780160937511856
19141452 34 18187648032837931142
19489759 90 18272089383331603320
19784866 170 8286204954735544937
200 152 17203611479760329315
20645477 56 18260267473059445917
20645477 70 18201725012063981062
20681677 155 17967531294030777995
2215653 11 18202842153825248268
22224240 67 12324247178493370857
23402539 116 18410570699701975645
23536379 177 18334575728628544712
23559900 14 18413106195475928992
26918003 58 18413389839511259826
29717793 49 17918000447447368460
300161 21 18410008862545919298
3004659 81 18408324359461850594
347723 3 16443343170240874016
351380 180 18411982472769183364
3545911 37 18408888442954068924
4073 2 17894918485892856802
4214541 1 18408605872465285636
4921388 177 17096094713094468874
5104073 3 18409452509446124146
5283173 99 18340485565168963592
542803 24 17489875933648595000
559249 180 18333729117766391714
59755656 215 18337959991787588726
59755656 520 16225764129386525371
633830 44 16588027969584929742
67856867 119 18190182472181909156
9709674 26 18411711984567372286
9971528 1 17749392577085144484

>  <PUBCHEM_SHAPE_MULTIPOLES>  (1) 
368.42
13.79
1.57
0.8
2.01
0.34
-0.09
-1.51
2.7
-0.06
-0.1
0.07
-0.08
0.47

>  <PUBCHEM_SHAPE_SELFOVERLAP>  (1) 
811.242

>  <PUBCHEM_SHAPE_VOLUME>  (1) 
198.5

>  <PUBCHEM_COORDINATE_TYPE>  (1) 
2
5
10

$$$$
