41233
     RDKit          3D

 15 17  0  0  0  0  0  0  0  0999 V2000
   -2.1538    0.2632    1.4869 S   0  0  0  0  0  0  0  0  0  0  0  0
   -2.1433    0.2830   -1.5171 S   0  0  0  0  0  0  0  0  0  0  0  0
    1.7821   -2.0226   -0.0110 N   0  0  0  0  0  0  0  0  0  0  0  0
   -1.6705   -0.6972   -0.0170 C   0  0  0  0  0  0  0  0  0  0  0  0
   -0.1695   -0.9654   -0.0119 C   0  0  0  0  0  0  0  0  0  0  0  0
    0.8654    0.0111    0.0048 C   0  0  0  0  0  0  0  0  0  0  0  0
   -3.3468    1.3450    0.6634 C   0  0  0  0  0  0  0  0  0  0  0  0
   -2.7347    1.7654   -0.6562 C   0  0  0  0  0  0  0  0  0  0  0  0
   -2.5679   -1.9462   -0.0346 C   0  0  0  0  0  0  0  0  0  0  0  0
    2.0796   -0.6786    0.0051 C   0  0  0  0  0  0  0  0  0  0  0  0
    0.4255   -2.2060   -0.0214 C   0  0  0  0  0  0  0  0  0  0  0  0
    0.8855    1.4199    0.0197 C   0  0  0  0  0  0  0  0  0  0  0  0
    3.3181   -0.0273    0.0197 C   0  0  0  0  0  0  0  0  0  0  0  0
    2.1169    2.0850    0.0347 C   0  0  0  0  0  0  0  0  0  0  0  0
    3.3134    1.3705    0.0348 C   0  0  0  0  0  0  0  0  0  0  0  0
  1  4  1  0
  1  7  1  0
  2  4  1  0
  2  8  1  0
  3 10  1  0
  3 11  1  0
  4  5  1  0
  4  9  1  0
  5  6  1  0
  5 11  2  0
  6 10  2  0
  6 12  1  0
  7  8  1  0
 10 13  1  0
 12 14  2  0
 13 15  2  0
 14 15  1  0
M  END
>  <PUBCHEM_COMPOUND_CID>  (1) 
41233

>  <PUBCHEM_CONFORMER_RMSD>  (1) 
0.6

>  <PUBCHEM_CONFORMER_DIVERSEORDER>  (1) 
1
4
3
6
5
2

>  <PUBCHEM_MMFF94_PARTIAL_CHARGES>  (1) 
19
1 -0.46
10 -0.15
11 -0.3
12 -0.15
13 -0.15
14 -0.15
15 -0.15
2 -0.46
23 0.15
24 0.27
25 0.15
26 0.15
27 0.15
28 0.15
3 0.03
4 0.64
5 -0.18
7 0.23
8 0.23

>  <PUBCHEM_EFFECTIVE_ROTOR_COUNT>  (1) 
2

>  <PUBCHEM_PHARMACOPHORE_FEATURES>  (1) 
5
1 3 cation
1 3 donor
5 1 2 4 7 8 rings
5 3 5 6 10 11 rings
6 6 10 12 13 14 15 rings

>  <PUBCHEM_HEAVY_ATOM_COUNT>  (1) 
15

>  <PUBCHEM_ATOM_DEF_STEREO_COUNT>  (1) 
0

>  <PUBCHEM_ATOM_UDEF_STEREO_COUNT>  (1) 
0

>  <PUBCHEM_BOND_DEF_STEREO_COUNT>  (1) 
0

>  <PUBCHEM_BOND_UDEF_STEREO_COUNT>  (1) 
0

>  <PUBCHEM_ISOTOPIC_ATOM_COUNT>  (1) 
0

>  <PUBCHEM_COMPONENT_COUNT>  (1) 
1

>  <PUBCHEM_CACTVS_TAUTO_COUNT>  (1) 
1

>  <PUBCHEM_CONFORMER_ID>  (1) 
0000A11100000001

>  <PUBCHEM_MMFF94_ENERGY>  (1) 
29.4003

>  <PUBCHEM_FEATURE_SELFOVERLAP>  (1) 
25.463

>  <PUBCHEM_SHAPE_FINGERPRINT>  (1) 
10608611 8 18408601452859730405
10967382 1 18338797793207808036
10980938 120 18337958882888973273
12491281 212 18410296925548969888
12696612 119 18187937208559037189
12932764 1 17894630327160939138
13140716 1 18410570682617065000
13294875 104 16449502453722094813
13380535 21 18409738339250633823
13693222 7 18343862216790318569
14614273 12 18335696204355741471
15219456 202 18260552173509097105
15309172 13 18335424611692525440
15442244 35 18268147548246738954
15775835 57 18342181072175437837
16945 1 18338514110554512806
17844478 74 18042414684438787603
18186145 218 18271815639696926076
18219364 16 18261952960060667413
18981168 100 18200861980723326905
19049666 15 17607246459219946625
200 152 18129652136315986647
20510252 161 18053663856442751120
21130352 189 18049443643068355507
21501502 16 18408599271000565199
21524375 3 18267585882757674850
21639500 275 18339911632846607085
22094290 62 18339922589181338152
2334 1 18338796835488103836
23402539 116 17911230934063672807
23493267 7 17531253829251800128
238 59 15948751778511019477
25 1 18337108960485169924
2748010 2 18410295830464080758
305870 269 18408885144166121002
350125 39 18266464384923122920
528886 8 18412259515181343554
63268167 104 18341895143122222272
74978 22 18340769239005016119
77492 1 17632006434617156045
7832392 63 18342741771360137865
81228 2 17330271083590953306

>  <PUBCHEM_SHAPE_MULTIPOLES>  (1) 
311.41
5.51
2.4
1.03
0.79
0.4
0.01
-2.03
-0.2
0.05
0.06
-0.93
-0.2
0.03

>  <PUBCHEM_SHAPE_SELFOVERLAP>  (1) 
649.301

>  <PUBCHEM_SHAPE_VOLUME>  (1) 
179.6

>  <PUBCHEM_COORDINATE_TYPE>  (1) 
2
5
10

$$$$
