41238
     RDKit          3D

 33 36  0  0  0  0  0  0  0  0999 V2000
   -5.0545   -2.9845    0.0295 S   0  0  0  0  0  0  0  0  0  0  0  0
    4.6780   -3.3879    0.3858 S   0  0  0  0  0  0  0  0  0  0  0  0
   -0.4107    1.3251   -2.8648 O   0  0  0  0  0  0  0  0  0  0  0  0
   -4.5849   -1.7355    0.9907 O   0  0  0  0  0  0  0  0  0  0  0  0
    4.5992   -2.0724   -0.5976 O   0  0  0  0  0  0  0  0  0  0  0  0
   -6.4687   -3.4705    0.6841 O   0  0  0  0  0  0  0  0  0  0  0  0
    6.1820   -3.9718    0.1370 O   0  0  0  0  0  0  0  0  0  0  0  0
   -4.1001   -4.0628    0.2109 O   0  0  0  0  0  0  0  0  0  0  0  0
   -5.3300   -2.4776   -1.3023 O   0  0  0  0  0  0  0  0  0  0  0  0
    3.7413   -4.3737   -0.1214 O   0  0  0  0  0  0  0  0  0  0  0  0
    4.5921   -2.9507    1.7671 O   0  0  0  0  0  0  0  0  0  0  0  0
   -0.1058    3.2865   -1.6206 N   0  0  0  0  0  0  0  0  0  0  0  0
    0.0168    1.2134   -0.4091 C   0  0  0  0  0  0  0  0  0  0  0  0
    0.2161    2.4450    0.4751 C   0  0  0  0  0  0  0  0  0  0  0  0
    0.1331    3.6057   -0.2924 C   0  0  0  0  0  0  0  0  0  0  0  0
   -0.2008    1.9059   -1.8089 C   0  0  0  0  0  0  0  0  0  0  0  0
   -1.2003    0.4337   -0.0386 C   0  0  0  0  0  0  0  0  0  0  0  0
    1.2288    0.3447   -0.4593 C   0  0  0  0  0  0  0  0  0  0  0  0
    0.4354    2.5371    1.8423 C   0  0  0  0  0  0  0  0  0  0  0  0
    0.2693    4.8711    0.2449 C   0  0  0  0  0  0  0  0  0  0  0  0
   -1.0863   -0.6872    0.7828 C   0  0  0  0  0  0  0  0  0  0  0  0
    1.2763   -0.7347   -1.3406 C   0  0  0  0  0  0  0  0  0  0  0  0
   -2.4506    0.8265   -0.5149 C   0  0  0  0  0  0  0  0  0  0  0  0
    2.3126    0.6127    0.3763 C   0  0  0  0  0  0  0  0  0  0  0  0
    0.5767    3.8069    2.4112 C   0  0  0  0  0  0  0  0  0  0  0  0
    0.4950    4.9644    1.6184 C   0  0  0  0  0  0  0  0  0  0  0  0
    0.1792    6.1002   -0.5890 C   0  0  0  0  0  0  0  0  0  0  0  0
   -2.2241   -1.4164    1.1283 C   0  0  0  0  0  0  0  0  0  0  0  0
    2.4093   -1.5472   -1.3866 C   0  0  0  0  0  0  0  0  0  0  0  0
   -3.5884    0.0974   -0.1693 C   0  0  0  0  0  0  0  0  0  0  0  0
    3.4455   -0.1997    0.3301 C   0  0  0  0  0  0  0  0  0  0  0  0
   -3.4752   -1.0240    0.6522 C   0  0  0  0  0  0  0  0  0  0  0  0
    3.4939   -1.2797   -0.5513 C   0  0  0  0  0  0  0  0  0  0  0  0
  1  4  1  0
  1  6  1  0
  1  8  2  0
  1  9  2  0
  2  5  1  0
  2  7  1  0
  2 10  2  0
  2 11  2  0
  3 16  2  0
  4 32  1  0
  5 33  1  0
 12 15  1  0
 12 16  1  0
 13 14  1  0
 13 16  1  0
 13 17  1  0
 13 18  1  0
 14 15  2  0
 14 19  1  0
 15 20  1  0
 17 21  2  0
 17 23  1  0
 18 22  2  0
 18 24  1  0
 19 25  2  0
 20 26  2  0
 20 27  1  0
 21 28  1  0
 22 29  1  0
 23 30  2  0
 24 31  2  0
 25 26  1  0
 28 32  2  0
 29 33  2  0
 30 32  1  0
 31 33  1  0
M  END
>  <PUBCHEM_COMPOUND_CID>  (1) 
41238

>  <PUBCHEM_CONFORMER_RMSD>  (1) 
1

>  <PUBCHEM_CONFORMER_DIVERSEORDER>  (1) 
1
5
3
2
8
6
4
7

>  <PUBCHEM_MMFF94_PARTIAL_CHARGES>  (1) 
47
1 1.67
10 -0.65
11 -0.65
12 -0.55
13 0.49
14 -0.14
15 0.12
16 0.57
17 -0.14
18 -0.14
19 -0.15
2 1.67
20 -0.14
21 -0.15
22 -0.15
23 -0.15
24 -0.15
25 -0.15
26 -0.15
27 0.14
28 -0.15
29 -0.15
3 -0.57
30 -0.15
31 -0.15
32 0.08
33 0.08
34 0.37
35 0.15
36 0.15
37 0.15
38 0.15
39 0.15
4 -0.27
40 0.15
41 0.15
45 0.15
46 0.15
47 0.15
48 0.15
49 0.5
5 -0.27
50 0.5
6 -0.68
7 -0.68
8 -0.65
9 -0.65

>  <PUBCHEM_EFFECTIVE_ROTOR_COUNT>  (1) 
6.4

>  <PUBCHEM_PHARMACOPHORE_FEATURES>  (1) 
14
1 10 acceptor
1 11 acceptor
1 12 donor
1 3 acceptor
1 6 acceptor
1 7 acceptor
1 8 acceptor
1 9 acceptor
4 1 6 8 9 anion
4 2 7 10 11 anion
5 12 13 14 15 16 rings
6 14 15 19 20 25 26 rings
6 17 21 23 28 30 32 rings
6 18 22 24 29 31 33 rings

>  <PUBCHEM_HEAVY_ATOM_COUNT>  (1) 
33

>  <PUBCHEM_ATOM_DEF_STEREO_COUNT>  (1) 
0

>  <PUBCHEM_ATOM_UDEF_STEREO_COUNT>  (1) 
0

>  <PUBCHEM_BOND_DEF_STEREO_COUNT>  (1) 
0

>  <PUBCHEM_BOND_UDEF_STEREO_COUNT>  (1) 
0

>  <PUBCHEM_ISOTOPIC_ATOM_COUNT>  (1) 
0

>  <PUBCHEM_COMPONENT_COUNT>  (1) 
1

>  <PUBCHEM_CACTVS_TAUTO_COUNT>  (1) 
2

>  <PUBCHEM_CONFORMER_ID>  (1) 
0000A11600000001

>  <PUBCHEM_MMFF94_ENERGY>  (1) 
104.9497

>  <PUBCHEM_FEATURE_SELFOVERLAP>  (1) 
71.254

>  <PUBCHEM_SHAPE_FINGERPRINT>  (1) 
10074138 170 17912084941229307977
10622 236 17460302253697192162
11135609 149 18194096720723519311
11552529 35 18121219771358194098
11763715 3 18193585335941582156
12107183 9 18270138850658627163
12293681 25 18120058836912059925
12342043 65 17460620227680095475
12788726 201 18120670045176086408
12969540 37 18192992844759811687
13004483 165 18339932502024016128
131258 43 18057632982483304396
13140716 1 18340774727899101040
13631057 29 18335709287348994446
13955234 65 17979645846532011379
14068700 675 18260548866827852094
14863182 85 17470452197666599597
14955137 171 17915195721749315492
15131766 46 16054022621421521914
15163728 17 8790885211337920467
15219462 58 15249879763988846536
20587220 46 14360243765914531288
20775530 9 18334304157794288402
21120745 212 18124347976360192308
21304303 282 17544742439921871653
21796203 349 17906214871792277946
22956985 138 18266453407145112922
23845131 108 17044571808865312089
244849 19 18120063278420167973
32027 91 18338228388663105927
3380486 145 17984953043040928532
376196 1 15901777305062691468
4616759 239 17694195805134458266
463206 1 18333740121457306291
497634 4 18044947762383329454
508180 173 18189321400285474901
57527585 103 17840593595991082676
59755656 520 17400919700817667036
6673363 416 18341065060549193500
6679774 75 17760352689532936464
6697151 62 18269537451905244767
77188 2 18410579499984969956
9981440 41 16679514660110323928

>  <PUBCHEM_SHAPE_MULTIPOLES>  (1) 
629.02
9.73
8.26
1.77
5.65
7.08
0.19
-23.01
-1.54
-3.67
-1.75
-0.23
1.34
0.4

>  <PUBCHEM_SHAPE_SELFOVERLAP>  (1) 
1372.034

>  <PUBCHEM_SHAPE_VOLUME>  (1) 
345.7

>  <PUBCHEM_COORDINATE_TYPE>  (1) 
2
5
10

$$$$
