41247
     RDKit          3D

 25 28  0  0  1  0  0  0  0  0999 V2000
   -7.1306    0.8321   -0.4643 Cl  0  0  0  0  0  0  0  0  0  0  0  0
   -0.8077    1.8430    0.0029 O   0  0  0  0  0  0  0  0  0  0  0  0
    0.9194    0.3769   -0.5163 N   0  0  0  0  0  0  0  0  0  0  0  0
    2.9014    2.1555    0.8527 N   0  0  0  0  0  0  0  0  0  0  0  0
    4.1158    1.6410   -1.0158 N   0  0  0  0  0  0  0  0  0  0  0  0
   -1.2951   -0.5079    0.2323 C   0  0  0  0  0  0  0  0  0  0  0  0
   -0.9951   -1.1311    1.6024 C   0  0  0  0  0  0  0  0  0  0  0  0
    0.4918   -1.2472    1.9127 C   0  0  0  0  0  0  0  0  0  0  0  0
   -0.3806    0.6875   -0.0718 C   0  0  0  0  0  0  0  0  0  0  0  0
    1.3018   -1.7362    0.7405 C   0  0  0  0  0  0  0  0  0  0  0  0
    1.5348   -0.9163   -0.3861 C   0  0  0  0  0  0  0  0  0  0  0  0
    1.6952    1.4280   -1.1753 C   0  0  0  0  0  0  0  0  0  0  0  0
   -2.7704   -0.1681    0.0560 C   0  0  0  0  0  0  0  0  0  0  0  0
    2.9506    1.7453   -0.4394 C   0  0  0  0  0  0  0  0  0  0  0  0
    1.9038   -3.0038    0.8163 C   0  0  0  0  0  0  0  0  0  0  0  0
    2.4212   -1.3746   -1.3775 C   0  0  0  0  0  0  0  0  0  0  0  0
   -3.4988    0.3251    1.1338 C   0  0  0  0  0  0  0  0  0  0  0  0
   -3.3786   -0.3546   -1.1814 C   0  0  0  0  0  0  0  0  0  0  0  0
    4.2333    2.3961    1.3231 C   0  0  0  0  0  0  0  0  0  0  0  0
    5.0629    2.0548    0.0701 C   0  0  0  0  0  0  0  0  0  0  0  0
    2.7508   -3.4520   -0.1940 C   0  0  0  0  0  0  0  0  0  0  0  0
    3.0167   -2.6341   -1.2852 C   0  0  0  0  0  0  0  0  0  0  0  0
   -4.8492    0.6350    0.9727 C   0  0  0  0  0  0  0  0  0  0  0  0
   -4.7290   -0.0447   -1.3428 C   0  0  0  0  0  0  0  0  0  0  0  0
   -5.4644    0.4503   -0.2656 C   0  0  0  0  0  0  0  0  0  0  0  0
  1 25  1  0
  2  9  2  0
  3  9  1  0
  3 11  1  0
  3 12  1  0
  4 14  1  0
  4 19  1  0
  5 14  2  0
  5 20  1  0
  6  7  1  0
  6  9  1  0
  6 13  1  0
  7  8  1  0
  8 10  1  0
 10 11  2  0
 10 15  1  0
 11 16  1  0
 12 14  1  0
 13 17  2  0
 13 18  1  0
 15 21  2  0
 16 22  2  0
 17 23  1  0
 18 24  2  0
 19 20  1  0
 21 22  1  0
 23 25  2  0
 24 25  1  0
M  END
>  <PUBCHEM_COMPOUND_CID>  (1) 
41247

>  <PUBCHEM_CONFORMER_RMSD>  (1) 
0.8

>  <PUBCHEM_CONFORMER_DIVERSEORDER>  (1) 
1
11
5
7
13
17
18
4
12
10
16
3
15
8
9
2
14
6

>  <PUBCHEM_MMFF94_PARTIAL_CHARGES>  (1) 
33
1 -0.18
10 -0.14
11 0.12
12 0.36
13 -0.14
14 0.44
15 -0.15
16 -0.15
17 -0.15
18 -0.15
19 0.37
2 -0.57
20 0.25
21 -0.15
22 -0.15
23 -0.15
24 -0.15
25 0.18
3 -0.48
33 0.15
34 0.15
35 0.15
36 0.15
37 0.4
4 -0.82
42 0.15
43 0.15
44 0.15
45 0.15
5 -0.7
6 0.2
8 0.14
9 0.57

>  <PUBCHEM_EFFECTIVE_ROTOR_COUNT>  (1) 
4.4

>  <PUBCHEM_PHARMACOPHORE_FEATURES>  (1) 
7
1 2 acceptor
1 4 donor
3 4 5 14 cation
5 4 5 14 19 20 rings
6 10 11 15 16 21 22 rings
6 13 17 18 23 24 25 rings
7 3 6 7 8 9 10 11 rings

>  <PUBCHEM_HEAVY_ATOM_COUNT>  (1) 
25

>  <PUBCHEM_ATOM_DEF_STEREO_COUNT>  (1) 
0

>  <PUBCHEM_ATOM_UDEF_STEREO_COUNT>  (1) 
1

>  <PUBCHEM_BOND_DEF_STEREO_COUNT>  (1) 
0

>  <PUBCHEM_BOND_UDEF_STEREO_COUNT>  (1) 
0

>  <PUBCHEM_ISOTOPIC_ATOM_COUNT>  (1) 
0

>  <PUBCHEM_COMPONENT_COUNT>  (1) 
1

>  <PUBCHEM_CACTVS_TAUTO_COUNT>  (1) 
1

>  <PUBCHEM_CONFORMER_ID>  (1) 
0000A11F00000001

>  <PUBCHEM_MMFF94_ENERGY>  (1) 
91.3796

>  <PUBCHEM_FEATURE_SELFOVERLAP>  (1) 
35.534

>  <PUBCHEM_SHAPE_FINGERPRINT>  (1) 
10764073 3 14929233105047428264
10906281 52 18114758129999435308
12236239 1 18202003197380208845
12597179 24 18261957452765381202
12730499 353 18337963367104076571
12788726 201 16988853752696450665
13533116 47 18342177731138956173
13631057 29 17983288520276817215
14251764 30 8790348641232231080
14461889 52 18114187492787348859
14739800 52 17561070410858655881
15081414 286 18261398836555618741
15238133 3 15984549880241048323
15664445 248 17984995790750842190
17492 54 14547899584849683528
1813 80 17983580706158217247
18186145 218 17967823712905885795
18335252 98 18338518647243069027
20197701 30 18128530664683826206
20511986 3 17917135170203438925
20554085 129 18059278981386368696
20645477 70 18409449150908454583
20691752 17 17532103695589420032
20775438 99 18337380621874150903
21033648 29 17168144495530721397
21120745 212 16381960459292642018
21403212 168 18411688903818747216
21452121 103 18335697221883247489
221357 26 17896040936909006895
22149856 69 17970094239499578217
22182313 1 18042426749049908435
23419403 2 17098865332737415678
23559900 14 18187098251575888806
2748010 2 17971502773043592978
3004659 81 17560803165419878079
3411729 13 18334007298550178480
34934 24 18342172306416062941
38695281 34 18272088339802568574
4093350 32 18343024350908146163
42630746 31 18408321077278505491
4340502 62 18187365458781862339
474 4 18336270144724602980
495365 180 18335423465020997786
5104073 3 18336837407753228369
5895379 119 16985485823272653953
59755656 215 18409170995888794188
70251023 43 18198067971321936023
7364860 26 18340492175328905566
7471813 234 18057328288517634946

>  <PUBCHEM_SHAPE_MULTIPOLES>  (1) 
495.55
11.86
3.17
1.51
17.99
1.4
0.22
-6.22
-1.88
-6.47
0.22
-0.15
0.3
0.66

>  <PUBCHEM_SHAPE_SELFOVERLAP>  (1) 
1069.341

>  <PUBCHEM_SHAPE_VOLUME>  (1) 
271.9

>  <PUBCHEM_COORDINATE_TYPE>  (1) 
2
5
10

$$$$
