41245
     RDKit          3D

 23 24  0  0  0  0  0  0  0  0999 V2000
   -0.5214   -3.4910   -0.8352 O   0  0  0  0  0  0  0  0  0  0  0  0
    4.1545    2.5068    0.5218 O   0  0  0  0  0  0  0  0  0  0  0  0
   -3.2430    0.1130   -0.1938 N   0  0  0  0  0  0  0  0  0  0  0  0
    0.1847   -1.2718   -0.7114 N   0  0  0  0  0  0  0  0  0  0  0  0
   -1.9349   -0.4182    0.1738 C   0  0  0  0  0  0  0  0  0  0  0  0
   -3.0980    1.3288   -0.9957 C   0  0  0  0  0  0  0  0  0  0  0  0
   -4.0425    0.3849    1.0017 C   0  0  0  0  0  0  0  0  0  0  0  0
   -1.1333   -0.7561   -1.0796 C   0  0  0  0  0  0  0  0  0  0  0  0
    1.2033   -0.3147   -0.3727 C   0  0  0  0  0  0  0  0  0  0  0  0
    2.1274   -1.8467    1.4420 C   0  0  0  0  0  0  0  0  0  0  0  0
    2.4688   -3.0945    0.6418 C   0  0  0  0  0  0  0  0  0  0  0  0
    2.1787   -0.5888    0.6128 C   0  0  0  0  0  0  0  0  0  0  0  0
    1.8271   -3.1367   -0.7342 C   0  0  0  0  0  0  0  0  0  0  0  0
    0.3862   -2.6608   -0.7369 C   0  0  0  0  0  0  0  0  0  0  0  0
   -2.3466    2.3969   -0.2061 C   0  0  0  0  0  0  0  0  0  0  0  0
   -4.4771    1.8270   -1.4164 C   0  0  0  0  0  0  0  0  0  0  0  0
   -3.3370    1.4069    1.8887 C   0  0  0  0  0  0  0  0  0  0  0  0
   -4.2881   -0.9182    1.7556 C   0  0  0  0  0  0  0  0  0  0  0  0
    1.2202    0.9436   -1.0013 C   0  0  0  0  0  0  0  0  0  0  0  0
    3.1706    0.3658    0.8956 C   0  0  0  0  0  0  0  0  0  0  0  0
    3.1893    1.5917    0.2351 C   0  0  0  0  0  0  0  0  0  0  0  0
    2.2092    1.8837   -0.7055 C   0  0  0  0  0  0  0  0  0  0  0  0
    4.1021    3.7481   -0.1801 C   0  0  0  0  0  0  0  0  0  0  0  0
  1 14  2  0
  2 21  1  0
  2 23  1  0
  3  5  1  0
  3  6  1  0
  3  7  1  0
  4  8  1  0
  4  9  1  0
  4 14  1  0
  5  8  1  0
  6 15  1  0
  6 16  1  0
  7 17  1  0
  7 18  1  0
  9 12  2  0
  9 19  1  0
 10 11  1  0
 10 12  1  0
 11 13  1  0
 12 20  1  0
 13 14  1  0
 19 22  2  0
 20 21  2  0
 21 22  1  0
M  END
>  <PUBCHEM_COMPOUND_CID>  (1) 
41245

>  <PUBCHEM_CONFORMER_RMSD>  (1) 
0.8

>  <PUBCHEM_CONFORMER_DIVERSEORDER>  (1) 
1
8
6
3
4
2
7
10
5
9

>  <PUBCHEM_MMFF94_PARTIAL_CHARGES>  (1) 
21
1 -0.57
10 0.14
12 -0.14
13 0.06
14 0.57
19 -0.15
2 -0.36
20 -0.15
21 0.08
22 -0.15
23 0.28
3 -0.81
4 -0.48
48 0.15
49 0.15
5 0.27
50 0.15
6 0.27
7 0.27
8 0.3
9 0.12

>  <PUBCHEM_EFFECTIVE_ROTOR_COUNT>  (1) 
6.8

>  <PUBCHEM_PHARMACOPHORE_FEATURES>  (1) 
7
1 1 acceptor
1 2 acceptor
1 3 cation
3 6 15 16 hydrophobe
3 7 17 18 hydrophobe
6 9 12 19 20 21 22 rings
7 4 9 10 11 12 13 14 rings

>  <PUBCHEM_HEAVY_ATOM_COUNT>  (1) 
23

>  <PUBCHEM_ATOM_DEF_STEREO_COUNT>  (1) 
0

>  <PUBCHEM_ATOM_UDEF_STEREO_COUNT>  (1) 
0

>  <PUBCHEM_BOND_DEF_STEREO_COUNT>  (1) 
0

>  <PUBCHEM_BOND_UDEF_STEREO_COUNT>  (1) 
0

>  <PUBCHEM_ISOTOPIC_ATOM_COUNT>  (1) 
0

>  <PUBCHEM_COMPONENT_COUNT>  (1) 
1

>  <PUBCHEM_CACTVS_TAUTO_COUNT>  (1) 
1

>  <PUBCHEM_CONFORMER_ID>  (1) 
0000A11D00000001

>  <PUBCHEM_MMFF94_ENERGY>  (1) 
107.0924

>  <PUBCHEM_FEATURE_SELFOVERLAP>  (1) 
35.534

>  <PUBCHEM_SHAPE_FINGERPRINT>  (1) 
10382601 240 18334011688275682762
11640471 11 18130779070829639543
12390115 104 18050861206205568356
12403259 327 17315906677075236659
12422481 6 18121187950214381426
12633257 1 17899978227480654699
12788726 201 17256822611686088566
12892183 10 17749103430574279705
13134695 92 17976814290226124774
13140716 1 18264492797782384299
13224815 77 18343022147373626069
13583140 156 18042401335955147507
14223421 5 18261681397984345035
14251764 38 18264762156725697781
14363568 33 18267038180090933854
14955137 171 18263921043547342250
15295992 7 17900832548395822425
15342168 16 18130516258171996185
15475509 84 16310508176454491594
1601671 61 18268430123357842342
18785283 64 18411144623708723218
20157964 124 18265879282298867117
20510252 161 17836359728746555998
20600515 1 17467929466757717302
20645477 70 18264195929505845365
20681677 76 18261672572026972767
20739085 24 18054228731153846994
21033648 29 17269165303886195923
21524375 3 18269558415023002566
21713013 43 12751235930644731981
21731228 192 18264210390602623994
21756936 100 17916028043487825024
21864079 5 17845665750382909305
23559900 14 18192707852568778343
2748010 2 17617623624710226310
283562 15 17762890366095136662
3610482 184 16522469743904986636
469060 322 18120371223306683903
474 4 18270108012092080895
49207404 50 18336278889705136451
5048184 11 18340198708497666364
5939293 188 18121207684971881606
59755656 520 18199200657699015084
6049 1 18043548122393042815
633830 44 17845950558111654253
7615 1 17416960626415698537
7808743 9 18124032601127447224
81228 2 17476083895886717966
9709674 26 18190456070035273709

>  <PUBCHEM_SHAPE_MULTIPOLES>  (1) 
451.63
8.37
4.27
1.49
5.4
0.53
0.38
-5.98
2.2
-4.92
-0.69
1.29
0.15
0.5

>  <PUBCHEM_SHAPE_SELFOVERLAP>  (1) 
930.893

>  <PUBCHEM_SHAPE_VOLUME>  (1) 
260.5

>  <PUBCHEM_COORDINATE_TYPE>  (1) 
2
5
10

$$$$
