41261
     RDKit          3D

 14 14  0  0  0  0  0  0  0  0999 V2000
   -3.6537   -0.1780   -0.2249 Si  0  0  0  0  0  4  0  0  0  0  0  0
    4.3652    0.1289   -0.4656 O   0  0  0  0  0  0  0  0  0  0  0  0
   -1.9649    0.1329   -0.2917 N   0  0  0  0  0  0  0  0  0  0  0  0
   -4.2199   -0.8050   -1.8952 C   0  0  0  0  0  0  0  0  0  0  0  0
   -4.5603    1.4043    0.1911 C   0  0  0  0  0  0  0  0  0  0  0  0
   -4.0051   -1.4712    1.0797 C   0  0  0  0  0  0  0  0  0  0  0  0
   -1.1122    0.3911    0.8609 C   0  0  0  0  0  0  0  0  0  0  0  0
    0.3454    0.3213    0.5083 C   0  0  0  0  0  0  0  0  0  0  0  0
    1.0066    1.4691    0.0874 C   0  0  0  0  0  0  0  0  0  0  0  0
    1.0186   -0.8907    0.6056 C   0  0  0  0  0  0  0  0  0  0  0  0
    2.3607    1.4037   -0.2409 C   0  0  0  0  0  0  0  0  0  0  0  0
    2.3728   -0.9558    0.2774 C   0  0  0  0  0  0  0  0  0  0  0  0
    3.0438    0.1913   -0.1459 C   0  0  0  0  0  0  0  0  0  0  0  0
    5.0029   -1.1419   -0.3463 C   0  0  0  0  0  0  0  0  0  0  0  0
  1  3  1  0
  1  4  1  0
  1  5  1  0
  1  6  1  0
  2 13  1  0
  2 14  1  0
  3  7  1  0
  7  8  1  0
  8  9  2  0
  8 10  1  0
  9 11  1  0
 10 12  2  0
 11 13  2  0
 12 13  1  0
M  END
>  <PUBCHEM_COMPOUND_CID>  (1) 
41261

>  <PUBCHEM_CONFORMER_RMSD>  (1) 
0.6

>  <PUBCHEM_CONFORMER_DIVERSEORDER>  (1) 
1
8
3
7
9
5
4
6
2

>  <PUBCHEM_MMFF94_PARTIAL_CHARGES>  (1) 
19
1 0.59
10 -0.15
11 -0.15
12 -0.15
13 0.08
14 0.28
15 0.36
2 -0.36
27 0.15
28 0.15
29 0.15
3 -0.98
30 0.15
4 -0.08
5 -0.08
6 -0.08
7 0.41
8 -0.14
9 -0.15

>  <PUBCHEM_EFFECTIVE_ROTOR_COUNT>  (1) 
4

>  <PUBCHEM_PHARMACOPHORE_FEATURES>  (1) 
2
1 2 acceptor
6 8 9 10 11 12 13 rings

>  <PUBCHEM_HEAVY_ATOM_COUNT>  (1) 
14

>  <PUBCHEM_ATOM_DEF_STEREO_COUNT>  (1) 
0

>  <PUBCHEM_ATOM_UDEF_STEREO_COUNT>  (1) 
0

>  <PUBCHEM_BOND_DEF_STEREO_COUNT>  (1) 
0

>  <PUBCHEM_BOND_UDEF_STEREO_COUNT>  (1) 
0

>  <PUBCHEM_ISOTOPIC_ATOM_COUNT>  (1) 
0

>  <PUBCHEM_COMPONENT_COUNT>  (1) 
1

>  <PUBCHEM_CACTVS_TAUTO_COUNT>  (1) 
1

>  <PUBCHEM_CONFORMER_ID>  (1) 
0000A12D00000001

>  <PUBCHEM_MMFF94_ENERGY>  (1) 
31.8942

>  <PUBCHEM_FEATURE_SELFOVERLAP>  (1) 
10.148

>  <PUBCHEM_SHAPE_FINGERPRINT>  (1) 
10498660 4 16153974812286231871
10680689 15 18060420222821011025
11046707 91 17203603813760670767
11401426 45 18410572881861937872
11471102 20 18334294279791052308
11796584 16 16845294895438855126
12251169 10 11312049959100699945
12346177 29 16271917234486306021
124424 183 14764343830228518035
12932764 1 17774719870296195785
13690532 89 18411422795823610026
13705890 14 18408324414657979160
14576447 43 18342166787019317998
14911166 2 18259709991068741362
15788980 27 18131350812744613589
17834072 33 17989204875922501628
18186145 218 17821723953391388297
18915474 69 17988072417563499775
1986462 14 17894632582519754075
200 152 18343585144144413417
20281475 54 18113611262177707043
20645477 56 16660636337813513087
20645477 70 18335426785378805714
21119208 17 18342738503027104149
221490 88 18190189077108030090
22485316 2 17489584558603461935
22854114 59 10159696897683903115
2306618 200 16917353628465815233
23402539 116 18411136918046433028
23402655 69 18335135337377413397
23532345 12 17917993879915189689
23557571 272 16950282910442767071
23559900 14 18187649124482011976
2838139 119 15213880336356296334
3268164 11 15719384079922786543
4214541 1 18408044000960300745
4990 188 18408611348638440726
5104073 3 18409168830845436993
58051976 100 18272080613725693013
633830 44 18260546749028738277
77779 3 18334861636365023713

>  <PUBCHEM_SHAPE_MULTIPOLES>  (1) 
295.48
10.69
1.5
1.12
1.46
0.16
-0.3
-2.26
-2.29
-0.21
0.1
-1.33
-0.32
-0.12

>  <PUBCHEM_SHAPE_SELFOVERLAP>  (1) 
570.341

>  <PUBCHEM_SHAPE_VOLUME>  (1) 
181.5

>  <PUBCHEM_COORDINATE_TYPE>  (1) 
2
5
10

$$$$
