41263
     RDKit          3D

 13 13  0  0  0  0  0  0  0  0999 V2000
    2.3354   -2.0727    0.0093 O   0  0  0  0  0  0  0  0  0  0  0  0
   -2.7274    0.5098    0.0939 O   0  0  0  0  0  0  0  0  0  0  0  0
   -2.9456   -1.7509   -0.3488 O   0  0  0  0  0  0  0  0  0  0  0  0
    2.5031    0.3704    0.4500 C   0  0  0  0  0  0  0  0  0  0  0  0
    2.4876    1.4196   -0.6811 C   0  0  0  0  0  0  0  0  0  0  0  0
    4.0419    0.3832    0.3367 C   0  0  0  0  0  0  0  0  0  0  0  0
    3.9112    1.8111   -0.2333 C   0  0  0  0  0  0  0  0  0  0  0  0
    1.7940   -0.9818    0.1578 C   0  0  0  0  0  0  0  0  0  0  0  0
    0.3537   -0.9025    0.0629 C   0  0  0  0  0  0  0  0  0  0  0  0
   -0.8427   -0.8359   -0.0155 C   0  0  0  0  0  0  0  0  0  0  0  0
   -4.1469    0.6761    0.0152 C   0  0  0  0  0  0  0  0  0  0  0  0
   -2.2769   -0.7566   -0.1097 C   0  0  0  0  0  0  0  0  0  0  0  0
   -4.4875    2.1303    0.2627 C   0  0  0  0  0  0  0  0  0  0  0  0
  1  8  2  0
  2 11  1  0
  2 12  1  0
  3 12  2  0
  4  5  1  0
  4  6  1  0
  4  8  1  0
  5  7  1  0
  6  7  1  0
  8  9  1  0
  9 10  3  0
 10 12  1  0
 11 13  1  0
M  END
>  <PUBCHEM_COMPOUND_CID>  (1) 
41263

>  <PUBCHEM_CONFORMER_RMSD>  (1) 
0.6

>  <PUBCHEM_CONFORMER_DIVERSEORDER>  (1) 
1
18
11
17
16
14
15
9
7
20
13
6
3
2
8
12
10
4
5
19

>  <PUBCHEM_MMFF94_PARTIAL_CHARGES>  (1) 
9
1 -0.57
10 -0.1
11 0.28
12 0.83
2 -0.43
3 -0.57
4 0.05
8 0.62
9 -0.1

>  <PUBCHEM_EFFECTIVE_ROTOR_COUNT>  (1) 
3.8

>  <PUBCHEM_PHARMACOPHORE_FEATURES>  (1) 
3
1 1 acceptor
1 3 acceptor
4 4 5 6 7 rings

>  <PUBCHEM_HEAVY_ATOM_COUNT>  (1) 
13

>  <PUBCHEM_ATOM_DEF_STEREO_COUNT>  (1) 
0

>  <PUBCHEM_ATOM_UDEF_STEREO_COUNT>  (1) 
0

>  <PUBCHEM_BOND_DEF_STEREO_COUNT>  (1) 
0

>  <PUBCHEM_BOND_UDEF_STEREO_COUNT>  (1) 
0

>  <PUBCHEM_ISOTOPIC_ATOM_COUNT>  (1) 
0

>  <PUBCHEM_COMPONENT_COUNT>  (1) 
1

>  <PUBCHEM_CACTVS_TAUTO_COUNT>  (1) 
2

>  <PUBCHEM_CONFORMER_ID>  (1) 
0000A12F00000001

>  <PUBCHEM_MMFF94_ENERGY>  (1) 
12.7492

>  <PUBCHEM_FEATURE_SELFOVERLAP>  (1) 
15.223

>  <PUBCHEM_SHAPE_FINGERPRINT>  (1) 
10465860 228 18408605838232186738
12162725 195 18261951959180196034
122479 349 18335987484900966531
12932764 1 17417805201216518387
14123255 52 18341048622496099432
14123260 362 18131079216477832553
14251710 61 8935000377975772073
14252887 29 12252176351813905520
14415576 193 18410857680985067054
14897335 6 18412261727221493039
15775835 57 18411983576243611785
1741750 31 18343867710333045427
17834072 32 18194682562831677909
18186145 218 18186798050067247518
19107657 9 18187369886661237596
20233049 118 18202559596965458192
20711983 171 18341611542189376172
212847 35 18201154339437413265
22485316 2 10231770980328270138
23380061 81 18337113358568688811
23402539 116 18131063883687224132
23402655 69 18342458149268953468
23557571 272 18130796706213367927
2916195 48 17915170442025505176
3545911 37 18412266129446855435
449060 50 18407762538683719631
474 4 18040436624202325341
633830 44 18334295400904214902
76465 3 10591771947897352780
8199 26 18411140242414748457

>  <PUBCHEM_SHAPE_MULTIPOLES>  (1) 
249.93
9.32
2.16
0.68
4.81
0.22
0.01
5.58
-0.36
0.38
0.12
-0.15
0.08
-0.62

>  <PUBCHEM_SHAPE_SELFOVERLAP>  (1) 
493.208

>  <PUBCHEM_SHAPE_VOLUME>  (1) 
148.5

>  <PUBCHEM_COORDINATE_TYPE>  (1) 
2
5
10

$$$$
