41274
     RDKit          3D

 22 24  0  0  1  0  0  0  0  0999 V2000
   -3.0850   -0.4612    1.6201 O   0  0  0  0  0  0  0  0  0  0  0  0
    0.6857    0.7867    0.0471 O   0  0  0  0  0  0  0  0  0  0  0  0
    4.8957    0.3098    0.1097 N   0  0  0  0  0  0  0  0  0  0  0  0
   -5.1555    1.3804   -1.3864 N   0  0  0  0  0  0  0  0  0  0  0  0
    0.2668   -1.4487   -0.6615 C   0  0  0  0  0  0  0  0  0  0  0  0
   -0.0274   -2.3215    0.5823 C   0  0  0  0  0  0  0  0  0  0  0  0
   -1.0085   -0.9343   -1.3717 C   0  0  0  0  0  0  0  0  0  0  0  0
   -0.9307   -1.6359    1.6291 C   0  0  0  0  0  0  0  0  0  0  0  0
   -2.0693   -0.5570   -0.3976 C   0  0  0  0  0  0  0  0  0  0  0  0
   -2.0074   -0.9047    0.9324 C   0  0  0  0  0  0  0  0  0  0  0  0
    1.1579   -0.3026   -0.2743 C   0  0  0  0  0  0  0  0  0  0  0  0
   -3.2862    0.1536   -0.5553 C   0  0  0  0  0  0  0  0  0  0  0  0
    2.6518   -0.5764   -0.3085 C   0  0  0  0  0  0  0  0  0  0  0  0
    3.4737    0.6292    0.1352 C   0  0  0  0  0  0  0  0  0  0  0  0
   -3.8719    0.1861    0.7099 C   0  0  0  0  0  0  0  0  0  0  0  0
   -3.9640    0.7705   -1.6082 C   0  0  0  0  0  0  0  0  0  0  0  0
    5.6912    1.4631    0.5346 C   0  0  0  0  0  0  0  0  0  0  0  0
    5.3036   -0.1224   -1.2284 C   0  0  0  0  0  0  0  0  0  0  0  0
   -5.0864    0.7976    0.9810 C   0  0  0  0  0  0  0  0  0  0  0  0
   -5.6727    1.3796   -0.1326 C   0  0  0  0  0  0  0  0  0  0  0  0
    5.2936    1.9242    1.8994 C   0  0  0  0  0  0  0  0  0  0  0  0
    6.7449   -0.5161   -1.2563 C   0  0  0  0  0  0  0  0  0  0  0  0
  1 10  1  0
  1 15  1  0
  2 11  2  0
  3 14  1  0
  3 17  1  0
  3 18  1  0
  4 16  2  0
  4 20  1  0
  5  6  1  0
  5  7  1  0
  5 11  1  0
  6  8  1  0
  7  9  1  0
  8 10  1  0
  9 10  2  0
  9 12  1  0
 11 13  1  0
 12 15  2  0
 12 16  1  0
 13 14  1  0
 15 19  1  0
 17 21  1  0
 18 22  1  0
 19 20  2  0
M  END
>  <PUBCHEM_COMPOUND_CID>  (1) 
41274

>  <PUBCHEM_CONFORMER_RMSD>  (1) 
0.8

>  <PUBCHEM_CONFORMER_DIVERSEORDER>  (1) 
2
131
130
82
53
134
154
144
138
112
122
8
79
98
7
61
31
114
151
140
57
78
42
127
142
84
36
88
132
83
25
55
95
62
117
3
119
141
146
54
40
26
23
106
87
81
128
16
52
121
90
96
70
149
105
129
18
152
47
17
58
39
143
113
46
136
19
118
123
137
10
101
29
15
11
67
89
75
37
86
49
100
109
85
41
97
21
9
35
20
1
71
43
76
32
4
91
24
111
63
103
139
126
135
12
73
99
92
110
28
34
104
125
120
65
102
124
22
93
66
108
51
74
59
153
69
77
72
33
148
6
48
115
27
133
60
64
94
145
13
5
150
68
56
116
14
45
50
80
38
44
30
107
147

>  <PUBCHEM_MMFF94_PARTIAL_CHARGES>  (1) 
21
1 -0.28
10 -0.04
11 0.45
13 0.06
14 0.27
15 0.14
16 0.16
17 0.27
18 0.27
19 -0.15
2 -0.57
20 0.16
3 -0.81
34 0.15
39 0.15
4 -0.62
40 0.15
5 0.06
7 0.18
8 0.18
9 -0.18

>  <PUBCHEM_EFFECTIVE_ROTOR_COUNT>  (1) 
6.8

>  <PUBCHEM_PHARMACOPHORE_FEATURES>  (1) 
7
1 1 acceptor
1 2 acceptor
1 3 cation
1 4 acceptor
5 1 9 10 12 15 rings
6 4 12 15 16 19 20 rings
6 5 6 7 8 9 10 rings

>  <PUBCHEM_HEAVY_ATOM_COUNT>  (1) 
22

>  <PUBCHEM_ATOM_DEF_STEREO_COUNT>  (1) 
0

>  <PUBCHEM_ATOM_UDEF_STEREO_COUNT>  (1) 
1

>  <PUBCHEM_BOND_DEF_STEREO_COUNT>  (1) 
0

>  <PUBCHEM_BOND_UDEF_STEREO_COUNT>  (1) 
0

>  <PUBCHEM_ISOTOPIC_ATOM_COUNT>  (1) 
0

>  <PUBCHEM_COMPONENT_COUNT>  (1) 
1

>  <PUBCHEM_CACTVS_TAUTO_COUNT>  (1) 
3

>  <PUBCHEM_CONFORMER_ID>  (1) 
0000A13A00000002

>  <PUBCHEM_MMFF94_ENERGY>  (1) 
36.7669

>  <PUBCHEM_FEATURE_SELFOVERLAP>  (1) 
35.724

>  <PUBCHEM_SHAPE_FINGERPRINT>  (1) 
10 15 16660370268346669605
10014705 185 18130503149641300930
10066227 112 18261401083166198244
10674148 151 17022910039399683074
11089746 13 17775004579409517366
11315181 36 15339122347100843198
12236239 1 16773799190534225621
12403259 415 18340492252358774802
12616971 3 15984839150504357786
12633257 1 17095526226880313812
12788726 201 18263361404565534152
12969540 114 18342449344364398854
13103583 49 14345797132513447281
13288520 33 11815893445042416287
13533116 47 18263361404813382570
13551218 46 13623520247429838240
13914758 101 17131559328068528934
14251758 9 18408042914338921228
14251764 18 16008753523997233371
14341114 328 15646772297326734304
14528608 73 16487253300972885888
15183329 4 17346602950410935236
17349148 13 14620523358629551842
17980427 23 16805613577181194015
1813 80 11530764756342942354
19377110 9 14345789496578631612
19784866 170 17675928668218887695
200 152 13973967597145864110
20374829 77 12679459768512087223
21033648 29 18335700581027753336
21267235 1 14045447957176589701
21637258 2 7853569085231558145
22224240 67 17967253100962780731
22950370 63 14273453695675116444
23198884 109 17561362877094285741
23559900 14 18114472158708800310
23622692 88 16588029025994183503
2838139 119 17988928833794649033
2916195 48 18411415133185242169
293599 30 18260831488148951950
29717793 49 16128662933976666348
3004659 81 15769780118161867246
34797466 226 11599719614951311922
5385378 56 18115029584732652267
56616090 284 14045739318255730415
59755656 520 18343025488716400959
7226269 152 18333170565859383860

>  <PUBCHEM_SHAPE_MULTIPOLES>  (1) 
431.05
15.39
1.77
1.61
14.12
0.11
0.17
8.49
-3.21
1.04
0.54
-0.73
-0.06
1.9

>  <PUBCHEM_SHAPE_SELFOVERLAP>  (1) 
915.385

>  <PUBCHEM_SHAPE_VOLUME>  (1) 
241.9

>  <PUBCHEM_COORDINATE_TYPE>  (1) 
2
5
10

$$$$
