41278
     RDKit          3D

 26 29  0  0  1  0  0  0  0  0999 V2000
    4.8946    3.6377    0.1131 F   0  0  0  0  0  0  0  0  0  0  0  0
   -3.1433    1.1441   -1.4278 O   0  0  0  0  0  0  0  0  0  0  0  0
    3.6522   -2.5115    0.1075 O   0  0  0  0  0  0  0  0  0  0  0  0
   -0.2472   -1.6538   -0.6782 N   0  0  0  0  0  0  0  0  0  0  0  0
   -1.1836   -0.0310   -2.3715 C   0  0  0  0  0  0  0  0  0  0  0  0
   -0.5302   -1.4231   -2.1183 C   0  0  0  0  0  0  0  0  0  0  0  0
   -1.4894   -1.7368    0.1341 C   0  0  0  0  0  0  0  0  0  0  0  0
   -2.3705   -0.5783   -0.1793 C   0  0  0  0  0  0  0  0  0  0  0  0
   -2.2225    0.1598   -1.3304 C   0  0  0  0  0  0  0  0  0  0  0  0
    0.5487   -2.8681   -0.4994 C   0  0  0  0  0  0  0  0  0  0  0  0
   -3.4773   -0.0100    0.5016 C   0  0  0  0  0  0  0  0  0  0  0  0
   -0.1471    1.0911   -2.3039 C   0  0  0  0  0  0  0  0  0  0  0  0
    0.9479   -3.0274    0.9691 C   0  0  0  0  0  0  0  0  0  0  0  0
   -3.9154    1.0433   -0.3041 C   0  0  0  0  0  0  0  0  0  0  0  0
    1.7794   -1.8460    1.4765 C   0  0  0  0  0  0  0  0  0  0  0  0
   -4.1635   -0.2657    1.7019 C   0  0  0  0  0  0  0  0  0  0  0  0
   -4.9956    1.8664    0.0103 C   0  0  0  0  0  0  0  0  0  0  0  0
   -5.2532    0.5473    2.0417 C   0  0  0  0  0  0  0  0  0  0  0  0
   -5.6595    1.5935    1.2098 C   0  0  0  0  0  0  0  0  0  0  0  0
    3.0410   -1.6006    0.6612 C   0  0  0  0  0  0  0  0  0  0  0  0
    3.5359   -0.2019    0.5150 C   0  0  0  0  0  0  0  0  0  0  0  0
    3.2920    0.6952    1.5306 C   0  0  0  0  0  0  0  0  0  0  0  0
    4.2189    0.1410   -0.6305 C   0  0  0  0  0  0  0  0  0  0  0  0
    3.7551    2.0038    1.3937 C   0  0  0  0  0  0  0  0  0  0  0  0
    4.6823    1.4496   -0.7675 C   0  0  0  0  0  0  0  0  0  0  0  0
    4.4503    2.3811    0.2447 C   0  0  0  0  0  0  0  0  0  0  0  0
  1 26  1  0
  2  9  1  0
  2 14  1  0
  3 20  2  0
  4  6  1  0
  4  7  1  0
  4 10  1  0
  5  6  1  0
  5  9  1  0
  5 12  1  0
  7  8  1  0
  8  9  2  0
  8 11  1  0
 10 13  1  0
 11 14  2  0
 11 16  1  0
 13 15  1  0
 14 17  1  0
 15 20  1  0
 16 18  2  0
 17 19  2  0
 18 19  1  0
 20 21  1  0
 21 22  2  0
 21 23  1  0
 22 24  1  0
 23 25  2  0
 24 26  2  0
 25 26  1  0
M  END
>  <PUBCHEM_COMPOUND_CID>  (1) 
41278

>  <PUBCHEM_CONFORMER_RMSD>  (1) 
0.8

>  <PUBCHEM_CONFORMER_DIVERSEORDER>  (1) 
1
27
129
45
72
132
160
91
197
95
117
23
124
202
87
178
118
165
6
93
97
147
109
85
149
2
159
29
200
106
9
60
201
20
158
113
92
94
78
16
38
146
99
74
184
174
37
100
62
133
181
102
90
63
34
121
57
137
177
76
101
134
75
203
52
77
13
66
71
24
83
170
142
39
43
172
59
176
136
69
104
17
185
127
193
151
79
42
48
115
73
26
140
122
198
120
84
180
18
128
108
4
186
68
192
199
169
183
148
110
8
116
190
98
166
67
40
5
123
21
194
86
22
139
7
168
47
96
46
88
126
143
55
171
56
54
58
61
144
189
28
14
167
30
188
32
3
53
131
36
164
173
31
81
11
12
51
119
49
196
161
125
33
145
10
187
64
44
135
154
25
15
111
19
141
191
35
157
105
179
112
155
182
50
80
114
41
153
195
150
138
65
89
156
103
107
175
152
82
130
70
162
163

>  <PUBCHEM_MMFF94_PARTIAL_CHARGES>  (1) 
31
1 -0.19
10 0.27
14 0.14
15 0.06
16 -0.15
17 -0.15
18 -0.15
19 -0.15
2 -0.28
20 0.42
21 0.09
22 -0.15
23 -0.15
24 -0.15
25 -0.15
26 0.19
3 -0.57
4 -0.81
41 0.15
42 0.15
43 0.15
44 0.15
45 0.15
46 0.15
47 0.15
48 0.15
5 0.18
6 0.27
7 0.45
8 -0.18
9 -0.04

>  <PUBCHEM_EFFECTIVE_ROTOR_COUNT>  (1) 
5.8

>  <PUBCHEM_PHARMACOPHORE_FEATURES>  (1) 
7
1 2 acceptor
1 3 acceptor
1 4 cation
5 2 8 9 11 14 rings
6 11 14 16 17 18 19 rings
6 21 22 23 24 25 26 rings
6 4 5 6 7 8 9 rings

>  <PUBCHEM_HEAVY_ATOM_COUNT>  (1) 
26

>  <PUBCHEM_ATOM_DEF_STEREO_COUNT>  (1) 
0

>  <PUBCHEM_ATOM_UDEF_STEREO_COUNT>  (1) 
1

>  <PUBCHEM_BOND_DEF_STEREO_COUNT>  (1) 
0

>  <PUBCHEM_BOND_UDEF_STEREO_COUNT>  (1) 
0

>  <PUBCHEM_ISOTOPIC_ATOM_COUNT>  (1) 
0

>  <PUBCHEM_COMPONENT_COUNT>  (1) 
1

>  <PUBCHEM_CACTVS_TAUTO_COUNT>  (1) 
2

>  <PUBCHEM_CONFORMER_ID>  (1) 
0000A13E00000001

>  <PUBCHEM_MMFF94_ENERGY>  (1) 
57.5362

>  <PUBCHEM_FEATURE_SELFOVERLAP>  (1) 
35.723

>  <PUBCHEM_SHAPE_FINGERPRINT>  (1) 
10165383 225 18041858241925815878
10305334 12 16886417991933529164
10670039 82 16128099932035205953
10674148 151 18059870433207015532
10763959 59 17842559539623357013
11045977 3 17897166819272275243
11112241 14 18260259776895029761
11135609 201 18124027103642791712
11578080 2 16843917276753925079
11720765 8 17631744768842011156
12596602 18 18343310292318756577
12633257 1 18189603965271502931
12655364 74 16165844323872147188
12925494 130 18044089056403127757
13583140 156 17025128775257814410
13828863 39 18337114569776015321
14251757 17 11599998838916772667
14251764 38 17981890735855028945
14251764 75 18342461486184768864
14429115 67 11386362634444321536
14508693 111 15142681477535886987
14765038 42 18044661030241002612
14848178 5 10809340061600605113
14950920 106 17604138225557666481
15163728 17 17203338801288039343
151778 21 18410852149172821178
15342168 16 18343016666826837167
17349148 13 11746938642189110889
18681886 176 16083090319440645198
19438510 23 17916298510806358304
20567600 234 18409730634881060641
20626108 58 13623543333132326199
20775438 99 9510018497972848813
21120745 212 17769087183838922175
21365058 113 17768831770491609758
21458453 9 17315658432076106553
21756936 100 18200308956792676114
21792934 111 17605013433890565289
21864079 5 18342726417089314666
22122407 14 18199757934169671657
23559900 14 16372693917011659415
23572383 38 10663813062266994420
312425 83 15482101812431835296
38570 142 18270975621582750348
392239 28 18189057512545441211
444735 79 17824558580330743875
469060 322 17097197574902184642
474 4 17703224001977529279
49207404 50 17894907395590900854
5252454 2 18336539521353011978
56638632 10 18338231699718933501
57724786 102 18272376338670973872
633830 44 18202280303536637254
6438754 60 10231767664439626557
6442390 28 17967258615342820674
7288768 16 18188484817305885698
7808743 9 18118401989423064040

>  <PUBCHEM_SHAPE_MULTIPOLES>  (1) 
511.07
12.14
3.25
2.1
3.36
0.29
-0.68
-10.09
5.31
-4.02
0.5
1.25
-0.11
-0.29

>  <PUBCHEM_SHAPE_SELFOVERLAP>  (1) 
1117.507

>  <PUBCHEM_SHAPE_VOLUME>  (1) 
279.9

>  <PUBCHEM_COORDINATE_TYPE>  (1) 
2
5
10

$$$$
