4127
     RDKit          3D

 19 20  0  0  1  0  0  0  0  0999 V2000
   -1.0280   -0.6226    2.0347 F   0  0  0  0  0  0  0  0  0  0  0  0
    5.1040   -0.1917   -0.2559 O   0  0  0  0  0  0  0  0  0  0  0  0
    3.2601   -1.5459    0.0107 O   0  0  0  0  0  0  0  0  0  0  0  0
    2.9918    0.8674   -0.2560 C   0  0  0  0  0  0  0  0  0  0  0  0
    1.4894    0.6392   -0.2281 C   0  0  0  0  0  0  0  0  0  0  0  0
   -1.2399    0.2245   -0.1775 C   0  0  0  0  0  0  0  0  0  0  0  0
    0.9152    0.1054    0.9085 C   0  0  0  0  0  0  0  0  0  0  0  0
    0.7415    0.9722   -1.3401 C   0  0  0  0  0  0  0  0  0  0  0  0
    3.4470    1.8625    0.8151 C   0  0  0  0  0  0  0  0  0  0  0  0
   -0.4638   -0.1042    0.9341 C   0  0  0  0  0  0  0  0  0  0  0  0
   -0.6372    0.7626   -1.3145 C   0  0  0  0  0  0  0  0  0  0  0  0
   -2.6703    0.0097   -0.1551 C   0  0  0  0  0  0  0  0  0  0  0  0
    3.7644   -0.4404   -0.1396 C   0  0  0  0  0  0  0  0  0  0  0  0
   -3.1998   -1.2069   -0.5861 C   0  0  0  0  0  0  0  0  0  0  0  0
   -3.5207    1.0186    0.2978 C   0  0  0  0  0  0  0  0  0  0  0  0
   -4.5790   -1.4144   -0.5644 C   0  0  0  0  0  0  0  0  0  0  0  0
   -4.8998    0.8110    0.3196 C   0  0  0  0  0  0  0  0  0  0  0  0
   -5.4289   -0.4056   -0.1115 C   0  0  0  0  0  0  0  0  0  0  0  0
    5.9542   -1.3413   -0.1919 C   0  0  0  0  0  0  0  0  0  0  0  0
  1 10  1  0
  2 13  1  0
  2 19  1  0
  3 13  2  0
  4  5  1  0
  4  9  1  0
  4 13  1  0
  5  7  2  0
  5  8  1  0
  6 10  2  0
  6 11  1  0
  6 12  1  0
  7 10  1  0
  8 11  2  0
 12 14  2  0
 12 15  1  0
 14 16  1  0
 15 17  2  0
 16 18  2  0
 17 18  1  0
M  END
>  <PUBCHEM_COMPOUND_CID>  (1) 
4127

>  <PUBCHEM_CONFORMER_RMSD>  (1) 
0.6

>  <PUBCHEM_CONFORMER_DIVERSEORDER>  (1) 
1
16
25
23
39
12
27
13
32
8
14
35
33
37
28
31
11
2
34
38
15
7
24
21
26
40
4
19
36
22
10
5
18
20
29
9
6
17
30
3

>  <PUBCHEM_MMFF94_PARTIAL_CHARGES>  (1) 
24
1 -0.19
10 0.19
11 -0.15
13 0.66
14 -0.15
15 -0.15
16 -0.15
17 -0.15
18 -0.15
19 0.28
2 -0.43
21 0.15
22 0.15
26 0.15
27 0.15
28 0.15
29 0.15
3 -0.57
30 0.15
31 0.15
4 0.2
5 -0.14
7 -0.15
8 -0.15

>  <PUBCHEM_EFFECTIVE_ROTOR_COUNT>  (1) 
4

>  <PUBCHEM_PHARMACOPHORE_FEATURES>  (1) 
4
1 3 acceptor
1 9 hydrophobe
6 12 14 15 16 17 18 rings
6 5 6 7 8 10 11 rings

>  <PUBCHEM_HEAVY_ATOM_COUNT>  (1) 
19

>  <PUBCHEM_ATOM_DEF_STEREO_COUNT>  (1) 
0

>  <PUBCHEM_ATOM_UDEF_STEREO_COUNT>  (1) 
1

>  <PUBCHEM_BOND_DEF_STEREO_COUNT>  (1) 
0

>  <PUBCHEM_BOND_UDEF_STEREO_COUNT>  (1) 
0

>  <PUBCHEM_ISOTOPIC_ATOM_COUNT>  (1) 
0

>  <PUBCHEM_COMPONENT_COUNT>  (1) 
1

>  <PUBCHEM_CACTVS_TAUTO_COUNT>  (1) 
1

>  <PUBCHEM_CONFORMER_ID>  (1) 
0000101F00000001

>  <PUBCHEM_MMFF94_ENERGY>  (1) 
53.2397

>  <PUBCHEM_FEATURE_SELFOVERLAP>  (1) 
20.297

>  <PUBCHEM_SHAPE_FINGERPRINT>  (1) 
10465860 250 17203328914299697505
106641 1 14476667654691651119
11405975 8 18202003248091726137
11796584 16 17988926673726922607
12107183 9 17695073197251611899
12236239 1 17632859720159693808
124424 183 17060336332033160349
12670543 26 16733255764232670062
12670546 56 18343860026583993697
13167823 11 18343862242602443775
13288520 33 18341895186462220367
13533116 47 13829863370496623900
13583140 156 17560509707299392321
13675066 3 18186804699240961725
13760787 19 17917148406812317845
13862211 1 17167856469821509968
14289901 80 18128814321002835017
14341114 176 18272373109103552089
14911166 2 16732702761433795766
15788980 27 17418372506382478325
15848700 24 17749104508795674532
15848702 151 18334857199489720783
16752209 62 16515670126952112796
16945 1 16660638578926864509
17834072 33 18341614840882677388
17844677 252 18272375286683762657
1813 80 17530965773947505020
18186145 218 17240759627161780789
18222031 100 17385436652509789405
19026448 5 18272372005196606749
19141452 34 18335421283293682007
19489759 90 17346881118109898881
19784866 240 18059583455870555878
200 152 18272370871441064274
20645477 70 18342460339997680166
21267235 1 17967258620127683259
21637258 2 18200863037259167534
22713019 99 17967250901364746074
23402539 116 18113898243154765549
23522609 53 18045530576418927316
23536379 177 18343302560992417201
23559900 14 18342733065530098392
23569943 247 17897158018499788778
26918003 58 17346599672770801807
3286 77 18341891900928562780
4072396 5 15769777926974165357
42 15 18343022194270204317
4214541 1 18343584023453627345
465052 167 18060423517066475110
4990 188 17967813838264375883
5104073 3 17988927816193121563
5374978 207 15698281127248573402
559249 180 18343300323472997399
59755656 215 18040711425353791719
633830 44 17458344165073226197
69090 78 18334010627044389515
7495541 125 17202760531228510041
77779 3 18343864446078831017
7970288 3 17621593243960745455
9971528 1 18187081793087501140
9981440 41 17109600216757229089

>  <PUBCHEM_SHAPE_MULTIPOLES>  (1) 
372
12.06
1.46
1.13
2.77
0.06
-0.14
3.72
0.23
0.67
0.01
-0.1
-0.12
-0.12

>  <PUBCHEM_SHAPE_SELFOVERLAP>  (1) 
798.668

>  <PUBCHEM_SHAPE_VOLUME>  (1) 
207.2

>  <PUBCHEM_COORDINATE_TYPE>  (1) 
2
5
10

$$$$
