41292
     RDKit          3D

 28 29  0  0  0  0  0  0  0  0999 V2000
   -0.1274    0.7704   -0.0351 O   0  0  0  0  0  0  0  0  0  0  0  0
    1.1989   -0.8753    1.4229 O   0  0  0  0  0  0  0  0  0  0  0  0
    0.6495   -0.5250   -1.7691 O   0  0  0  0  0  0  0  0  0  0  0  0
   -3.4376    2.3391   -0.8103 N   0  0  0  0  0  0  0  0  0  0  0  0
   -4.1502    1.0950   -1.1882 C   0  0  0  0  0  0  0  0  0  0  0  0
   -2.1762    2.0205    0.0050 C   0  0  0  0  0  0  0  0  0  0  0  0
   -4.5821    0.3647    0.0747 C   0  0  0  0  0  0  0  0  0  0  0  0
   -3.0115    3.1255   -2.0583 C   0  0  0  0  0  0  0  0  0  0  0  0
   -4.3373    3.2471    0.0403 C   0  0  0  0  0  0  0  0  0  0  0  0
   -5.2828   -0.9517   -0.2646 C   0  0  0  0  0  0  0  0  0  0  0  0
   -1.2807    1.0984   -0.7987 C   0  0  0  0  0  0  0  0  0  0  0  0
   -5.7524   -1.6743    0.9991 C   0  0  0  0  0  0  0  0  0  0  0  0
   -6.4821   -2.9733    0.6579 C   0  0  0  0  0  0  0  0  0  0  0  0
    1.9490   -0.3709    0.2991 C   0  0  0  0  0  0  0  0  0  0  0  0
    0.7804   -0.0646   -0.6411 C   0  0  0  0  0  0  0  0  0  0  0  0
   -6.9214   -3.7116    1.9124 C   0  0  0  0  0  0  0  0  0  0  0  0
    2.8686   -1.4688   -0.2400 C   0  0  0  0  0  0  0  0  0  0  0  0
    2.7556    0.8628    0.7118 C   0  0  0  0  0  0  0  0  0  0  0  0
    3.6423   -1.1965   -1.3447 C   0  0  0  0  0  0  0  0  0  0  0  0
    3.7140    0.7262    1.6893 C   0  0  0  0  0  0  0  0  0  0  0  0
    2.8863   -2.6865    0.4004 C   0  0  0  0  0  0  0  0  0  0  0  0
    2.4911    2.0609    0.0894 C   0  0  0  0  0  0  0  0  0  0  0  0
    4.4802   -2.1975   -1.8362 C   0  0  0  0  0  0  0  0  0  0  0  0
    4.4488    1.8506    2.0655 C   0  0  0  0  0  0  0  0  0  0  0  0
    3.7245   -3.6875   -0.0910 C   0  0  0  0  0  0  0  0  0  0  0  0
    3.2261    3.1852    0.4654 C   0  0  0  0  0  0  0  0  0  0  0  0
    4.5215   -3.4430   -1.2093 C   0  0  0  0  0  0  0  0  0  0  0  0
    4.2050    3.0800    1.4534 C   0  0  0  0  0  0  0  0  0  0  0  0
  1 11  1  0
  1 15  1  0
  2 14  1  0
  3 15  2  0
  4  5  1  0
  4  6  1  0
  4  8  1  0
  4  9  1  0
  5  7  1  0
  6 11  1  0
  7 10  1  0
 10 12  1  0
 12 13  1  0
 13 16  1  0
 14 15  1  0
 14 17  1  0
 14 18  1  0
 17 19  2  0
 17 21  1  0
 18 20  2  0
 18 22  1  0
 19 23  1  0
 20 24  1  0
 21 25  2  0
 22 26  2  0
 23 27  2  0
 24 28  2  0
 25 27  1  0
 26 28  1  0
M  CHG  1   4   1
M  END
>  <PUBCHEM_COMPOUND_CID>  (1) 
41292

>  <PUBCHEM_CONFORMER_RMSD>  (1) 
1.2

>  <PUBCHEM_CONFORMER_DIVERSEORDER>  (1) 
2
153
158
114
27
96
164
48
106
26
49
8
69
118
7
147
15
90
104
130
133
33
105
127
60
86
73
84
89
80
61
65
83
37
64
97
112
151
111
109
46
28
134
132
150
166
146
70
51
139
123
95
72
144
81
1
32
154
138
167
23
121
136
160
34
156
125
145
63
165
129
87
55
31
53
47
42
141
14
43
103
91
77
117
115
56
120
159
29
13
38
116
36
113
131
62
52
35
108
66
148
45
128
6
79
142
25
152
88
44
24
135
162
157
137
94
93
110
100
59
10
143
102
99
22
161
76
17
58
71
68
39
155
57
107
74
4
12
9
3
163
82
75
124
30
41
98
67
126
11
85
140
119
50
122
101
92
54
18
149
16
21
20
19
40
78
5

>  <PUBCHEM_MMFF94_PARTIAL_CHARGES>  (1) 
34
1 -0.43
11 0.28
14 0.63
15 0.66
17 -0.14
18 -0.14
19 -0.15
2 -0.68
20 -0.15
21 -0.15
22 -0.15
23 -0.15
24 -0.15
25 -0.15
26 -0.15
27 -0.15
28 -0.15
3 -0.57
4 -1.01
5 0.5
52 0.4
53 0.15
54 0.15
55 0.15
56 0.15
57 0.15
58 0.15
59 0.15
6 0.5
60 0.15
61 0.15
62 0.15
8 0.5
9 0.5

>  <PUBCHEM_EFFECTIVE_ROTOR_COUNT>  (1) 
12

>  <PUBCHEM_PHARMACOPHORE_FEATURES>  (1) 
8
1 16 hydrophobe
1 2 acceptor
1 2 donor
1 3 acceptor
1 4 cation
4 7 10 12 13 hydrophobe
6 17 19 21 23 25 27 rings
6 18 20 22 24 26 28 rings

>  <PUBCHEM_HEAVY_ATOM_COUNT>  (1) 
28

>  <PUBCHEM_ATOM_DEF_STEREO_COUNT>  (1) 
0

>  <PUBCHEM_ATOM_UDEF_STEREO_COUNT>  (1) 
0

>  <PUBCHEM_BOND_DEF_STEREO_COUNT>  (1) 
0

>  <PUBCHEM_BOND_UDEF_STEREO_COUNT>  (1) 
0

>  <PUBCHEM_ISOTOPIC_ATOM_COUNT>  (1) 
0

>  <PUBCHEM_COMPONENT_COUNT>  (1) 
1

>  <PUBCHEM_CACTVS_TAUTO_COUNT>  (1) 
1

>  <PUBCHEM_CONFORMER_ID>  (1) 
0000A14C00000002

>  <PUBCHEM_MMFF94_ENERGY>  (1) 
84.2828

>  <PUBCHEM_FEATURE_SELFOVERLAP>  (1) 
40.595

>  <PUBCHEM_SHAPE_FINGERPRINT>  (1) 
10169797 241 18410016550227208562
10369192 42 18267573788626310852
11405975 8 18199744739808571905
11421498 54 17339522267147785614
11796584 16 18048040666263475478
12342043 65 18341625780280801927
12623949 98 18270976725173295431
12717326 120 17967815006897051138
12730499 353 18271809072839591144
13540713 4 18410565159162885413
13583140 156 18194104240678095237
13835254 42 18340779234227292865
13911882 115 18410571829383817505
14950920 106 17988375780131219139
17349148 13 16153422844606923145
17492 89 18411417293833171863
17844677 252 18129938975548730629
17909252 39 18410303496780913315
17913733 40 17845359098386524266
1813 80 17414707667187716676
21315759 148 18412263956589094771
21585480 29 17912924174130196983
22149856 69 18267317585283720673
22393880 68 18116145572176410357
23424784 1240 18409451423109703875
23559900 14 18196924487797858509
4073 2 18409444752619467097
4144715 1 18339642222655096873
463206 1 17833266415785499691
484989 97 18339935827057275350
5104073 3 18272932679165599225
6371380 46 17834953075645109029
6823239 73 18338228242090106680
7495541 125 18269274565208984758
8863177 126 18411142398604479559
9841814 1 18053928577516911562

>  <PUBCHEM_SHAPE_MULTIPOLES>  (1) 
553.64
15.39
5.37
1.83
24.61
1.5
0.03
10.8
4.52
0.44
0.32
-0.59
-0.04
6.96

>  <PUBCHEM_SHAPE_SELFOVERLAP>  (1) 
1140.058

>  <PUBCHEM_SHAPE_VOLUME>  (1) 
318.8

>  <PUBCHEM_COORDINATE_TYPE>  (1) 
2
5
10

$$$$
