41308
     RDKit          3D

 17 19  0  0  1  0  0  0  0  0999 V2000
    1.1866    1.9262   -1.7683 O   0  0  0  0  0  0  0  0  0  0  0  0
   -2.0344    1.7760    0.8638 N   0  0  0  0  0  0  0  0  0  0  0  0
    3.5663   -1.6342   -0.1327 N   0  0  0  0  0  0  0  0  0  0  0  0
   -0.4683    0.8643   -0.4181 C   0  0  0  0  0  0  0  0  0  0  0  0
    0.7789    0.6728   -1.1859 C   0  0  0  0  0  0  0  0  0  0  0  0
   -1.5345   -0.0690   -0.2866 C   0  0  0  0  0  0  0  0  0  0  0  0
   -2.5038    0.5275    0.5226 C   0  0  0  0  0  0  0  0  0  0  0  0
   -0.8051    1.9885    0.3000 C   0  0  0  0  0  0  0  0  0  0  0  0
    1.9321    0.0808   -0.3726 C   0  0  0  0  0  0  0  0  0  0  0  0
   -1.7685   -1.3680   -0.7799 C   0  0  0  0  0  0  0  0  0  0  0  0
   -3.7001   -0.1128    0.8647 C   0  0  0  0  0  0  0  0  0  0  0  0
   -2.9607   -2.0206   -0.4459 C   0  0  0  0  0  0  0  0  0  0  0  0
   -3.9101   -1.4008    0.3641 C   0  0  0  0  0  0  0  0  0  0  0  0
    2.3339    0.7035    0.7784 C   0  0  0  0  0  0  0  0  0  0  0  0
    2.5434   -1.0595   -0.8043 C   0  0  0  0  0  0  0  0  0  0  0  0
    3.3835    0.1420    1.4971 C   0  0  0  0  0  0  0  0  0  0  0  0
    3.9607   -1.0169    1.0035 C   0  0  0  0  0  0  0  0  0  0  0  0
  1  5  1  0
  2  7  1  0
  2  8  1  0
  3 15  2  0
  3 17  1  0
  4  5  1  0
  4  6  1  0
  4  8  2  0
  5  9  1  0
  6  7  2  0
  6 10  1  0
  7 11  1  0
  9 14  2  0
  9 15  1  0
 10 12  2  0
 11 13  2  0
 12 13  1  0
 14 16  1  0
 16 17  2  0
M  END
>  <PUBCHEM_COMPOUND_CID>  (1) 
41308

>  <PUBCHEM_CONFORMER_RMSD>  (1) 
0.6

>  <PUBCHEM_CONFORMER_DIVERSEORDER>  (1) 
1
18
16
22
25
11
29
21
20
3
24
23
7
12
6
28
15
26
17
2
13
5
4
14
8
10
27
19
9

>  <PUBCHEM_MMFF94_PARTIAL_CHARGES>  (1) 
27
1 -0.68
10 -0.15
11 -0.15
12 -0.15
13 -0.15
14 -0.15
15 0.16
16 -0.15
17 0.16
19 0.15
2 0.03
20 0.27
21 0.15
22 0.15
23 0.15
24 0.15
25 0.15
26 0.15
27 0.4
28 0.15
29 0.15
3 -0.62
4 -0.18
5 0.6
7 -0.15
8 -0.3
9 -0.14

>  <PUBCHEM_EFFECTIVE_ROTOR_COUNT>  (1) 
2

>  <PUBCHEM_PHARMACOPHORE_FEATURES>  (1) 
8
1 1 acceptor
1 1 donor
1 2 cation
1 2 donor
1 3 acceptor
5 2 4 6 7 8 rings
6 3 9 14 15 16 17 rings
6 6 7 10 11 12 13 rings

>  <PUBCHEM_HEAVY_ATOM_COUNT>  (1) 
17

>  <PUBCHEM_ATOM_DEF_STEREO_COUNT>  (1) 
0

>  <PUBCHEM_ATOM_UDEF_STEREO_COUNT>  (1) 
1

>  <PUBCHEM_BOND_DEF_STEREO_COUNT>  (1) 
0

>  <PUBCHEM_BOND_UDEF_STEREO_COUNT>  (1) 
0

>  <PUBCHEM_ISOTOPIC_ATOM_COUNT>  (1) 
0

>  <PUBCHEM_COMPONENT_COUNT>  (1) 
1

>  <PUBCHEM_CACTVS_TAUTO_COUNT>  (1) 
1

>  <PUBCHEM_CONFORMER_ID>  (1) 
0000A15C00000001

>  <PUBCHEM_MMFF94_ENERGY>  (1) 
42.4405

>  <PUBCHEM_FEATURE_SELFOVERLAP>  (1) 
40.688

>  <PUBCHEM_SHAPE_FINGERPRINT>  (1) 
10366900 7 17703781544266119890
10618630 7 18409449206299845927
11046707 91 18261108535188499122
11132069 177 18202005421651197691
11578080 2 18115006606742664541
11769659 78 18333732442033557709
12251169 10 17917426544747093344
12346177 29 18261383400247464701
12363563 72 17240474797868197152
12382932 28 18131071558281955563
12500047 106 18123748656122210280
12553582 1 18127420157718428127
12633257 1 17561363984774037210
12707595 3 17022902367364057634
13296908 3 17822282483654611548
13581323 91 18272091590860286927
13693222 15 18131630105714427147
14178342 30 18266177240705665098
15309172 13 14908176469258863028
15342168 16 13686294712017695667
15375462 189 18194134138098273409
15653759 3 18131349674694344386
16945 1 18270964539918221844
17804303 29 18129393604785493870
17834072 14 18271229599962365981
1813 80 18040156206008985966
18186145 218 12107779696818458631
19049666 15 17343515396762989782
19107657 9 12679457616728106386
19862831 5 7925638803561307551
200 152 16009028350464803170
20291156 8 18261111872093238618
20361792 2 17458345221513829300
20442098 301 18342454837691146422
20559304 39 18340779254768510773
20645477 70 17677048087452707567
20671657 53 17313095380150411084
21065199 12 17988638571578406570
21501925 9 18339921614424209087
21650355 55 18343297055071353097
21713013 43 14129358264005698114
21731516 1 17676487224689589004
22112679 90 18188225212044559836
2255824 54 17823146781551325164
22646028 28 18186238433066320914
232386 152 18341335586335311695
23402539 116 17095804296792062018
23463225 33 18339652221375268015
23559900 14 17916885550761740564
23598291 2 17968395471457793733
2748010 2 17763484824117928669
4072396 5 18272382962438790323
58807428 26 18126583227775142747
90316 7 18341338820768004169

>  <PUBCHEM_SHAPE_MULTIPOLES>  (1) 
334.02
7.23
2.02
1.29
1.01
0.1
-0.13
-3.72
2.7
-0.67
-0.24
0.72
0.29
-0.46

>  <PUBCHEM_SHAPE_SELFOVERLAP>  (1) 
743.649

>  <PUBCHEM_SHAPE_VOLUME>  (1) 
178.1

>  <PUBCHEM_COORDINATE_TYPE>  (1) 
2
5
10

$$$$
