4132
     RDKit          3D

 36 40  0  0  1  0  0  0  0  0999 V2000
   -0.1033   -0.4893    1.1289 O   0  0  0  0  0  0  0  0  0  0  0  0
   -0.3992   -1.3112   -2.2770 O   0  0  0  0  0  0  0  0  0  0  0  0
   -0.5463    1.2699   -3.0089 O   0  0  0  0  0  0  0  0  0  0  0  0
   -1.9808    3.7435   -1.5841 O   0  0  0  0  0  0  0  0  0  0  0  0
   -3.4183   -1.5914   -2.0072 O   0  0  0  0  0  0  0  0  0  0  0  0
    0.2703    4.0563   -1.1700 O   0  0  0  0  0  0  0  0  0  0  0  0
   -4.1262   -2.6748    2.5925 O   0  0  0  0  0  0  0  0  0  0  0  0
    5.2701   -2.9368   -1.1351 O   0  0  0  0  0  0  0  0  0  0  0  0
    0.4197   -0.1290   -0.1948 C   0  0  0  0  0  0  0  0  0  0  0  0
   -0.7283   -0.4037   -1.2433 C   0  0  0  0  0  0  0  0  0  0  0  0
    0.5932    1.4364   -0.2054 C   0  0  0  0  0  0  0  0  0  0  0  0
   -1.1897    0.9683   -1.7724 C   0  0  0  0  0  0  0  0  0  0  0  0
   -0.7884    1.9541   -0.6642 C   0  0  0  0  0  0  0  0  0  0  0  0
   -1.7514   -1.0527   -0.3767 C   0  0  0  0  0  0  0  0  0  0  0  0
    1.7260   -0.8850   -0.4479 C   0  0  0  0  0  0  0  0  0  0  0  0
   -1.3267   -1.0623    0.9364 C   0  0  0  0  0  0  0  0  0  0  0  0
    1.1463    2.0191    1.0845 C   0  0  0  0  0  0  0  0  0  0  0  0
   -0.7410    3.3674   -1.1597 C   0  0  0  0  0  0  0  0  0  0  0  0
   -2.9829   -1.5897   -0.7206 C   0  0  0  0  0  0  0  0  0  0  0  0
    2.2190   -1.7699    0.5125 C   0  0  0  0  0  0  0  0  0  0  0  0
    2.4265   -0.6912   -1.6393 C   0  0  0  0  0  0  0  0  0  0  0  0
   -2.0972   -1.5942    1.9537 C   0  0  0  0  0  0  0  0  0  0  0  0
    0.2747    2.4398    2.0880 C   0  0  0  0  0  0  0  0  0  0  0  0
    2.5244    2.1323    1.2621 C   0  0  0  0  0  0  0  0  0  0  0  0
   -3.7783   -2.1375    0.2885 C   0  0  0  0  0  0  0  0  0  0  0  0
   -3.3372   -2.1393    1.6200 C   0  0  0  0  0  0  0  0  0  0  0  0
    3.4095   -2.4591    0.2819 C   0  0  0  0  0  0  0  0  0  0  0  0
    3.6169   -1.3804   -1.8700 C   0  0  0  0  0  0  0  0  0  0  0  0
    0.7827    2.9749    3.2717 C   0  0  0  0  0  0  0  0  0  0  0  0
    3.0321    2.6673    2.4459 C   0  0  0  0  0  0  0  0  0  0  0  0
    4.1087   -2.2644   -0.9094 C   0  0  0  0  0  0  0  0  0  0  0  0
    2.1614    3.0886    3.4507 C   0  0  0  0  0  0  0  0  0  0  0  0
   -2.0798    5.0802   -2.0857 C   0  0  0  0  0  0  0  0  0  0  0  0
   -4.7003   -2.1672   -2.2610 C   0  0  0  0  0  0  0  0  0  0  0  0
   -3.6220   -2.6441    3.9264 C   0  0  0  0  0  0  0  0  0  0  0  0
    5.7159   -3.8249   -0.1112 C   0  0  0  0  0  0  0  0  0  0  0  0
  1  9  1  0
  1 16  1  0
  2 10  1  0
  3 12  1  0
  4 18  1  0
  4 33  1  0
  5 19  1  0
  5 34  1  0
  6 18  2  0
  7 26  1  0
  7 35  1  0
  8 31  1  0
  8 36  1  0
  9 10  1  0
  9 11  1  0
  9 15  1  0
 10 12  1  0
 10 14  1  0
 11 13  1  0
 11 17  1  0
 12 13  1  0
 13 18  1  0
 14 16  2  0
 14 19  1  0
 15 20  2  0
 15 21  1  0
 16 22  1  0
 17 23  2  0
 17 24  1  0
 19 25  2  0
 20 27  1  0
 21 28  2  0
 22 26  2  0
 23 29  1  0
 24 30  2  0
 25 26  1  0
 27 31  2  0
 28 31  1  0
 29 32  2  0
 30 32  1  0
M  END
>  <PUBCHEM_COMPOUND_CID>  (1) 
4132

>  <PUBCHEM_CONFORMER_RMSD>  (1) 
1

>  <PUBCHEM_CONFORMER_DIVERSEORDER>  (1) 
1
16
47
57
51
37
12
4
28
70
27
36
61
64
46
44
52
55
32
23
67
65
35
25
10
41
22
62
21
18
6
33
58
24
69
66
20
72
17
50
63
14
9
68
54
34
2
43
60
30
29
53
13
42
59
3
71
15
49
8
31
26
19
38
48
45
7
5
40
39
56
11

>  <PUBCHEM_MMFF94_PARTIAL_CHARGES>  (1) 
49
1 -0.36
10 0.42
11 0.14
12 0.28
13 0.06
14 -0.14
15 -0.14
16 0.08
17 -0.14
18 0.66
19 0.08
2 -0.68
20 -0.15
21 -0.15
22 -0.15
23 -0.15
24 -0.15
25 -0.15
26 0.08
27 -0.15
28 -0.15
29 -0.15
3 -0.68
30 -0.15
31 0.08
32 -0.15
33 0.28
34 0.28
35 0.28
36 0.28
4 -0.43
40 0.4
41 0.4
42 0.15
43 0.15
44 0.15
45 0.15
46 0.15
47 0.15
48 0.15
49 0.15
5 -0.36
50 0.15
51 0.15
52 0.15
6 -0.57
7 -0.36
8 -0.36
9 0.42

>  <PUBCHEM_EFFECTIVE_ROTOR_COUNT>  (1) 
7.8

>  <PUBCHEM_PHARMACOPHORE_FEATURES>  (1) 
14
1 1 acceptor
1 2 acceptor
1 2 donor
1 3 acceptor
1 3 donor
1 5 acceptor
1 6 acceptor
1 7 acceptor
1 8 acceptor
5 1 9 10 14 16 rings
5 9 10 11 12 13 rings
6 14 16 19 22 25 26 rings
6 15 20 21 27 28 31 rings
6 17 23 24 29 30 32 rings

>  <PUBCHEM_HEAVY_ATOM_COUNT>  (1) 
36

>  <PUBCHEM_ATOM_DEF_STEREO_COUNT>  (1) 
0

>  <PUBCHEM_ATOM_UDEF_STEREO_COUNT>  (1) 
5

>  <PUBCHEM_BOND_DEF_STEREO_COUNT>  (1) 
0

>  <PUBCHEM_BOND_UDEF_STEREO_COUNT>  (1) 
0

>  <PUBCHEM_ISOTOPIC_ATOM_COUNT>  (1) 
0

>  <PUBCHEM_COMPONENT_COUNT>  (1) 
1

>  <PUBCHEM_CACTVS_TAUTO_COUNT>  (1) 
1

>  <PUBCHEM_CONFORMER_ID>  (1) 
0000102400000001

>  <PUBCHEM_MMFF94_ENERGY>  (1) 
155.6458

>  <PUBCHEM_FEATURE_SELFOVERLAP>  (1) 
71.769

>  <PUBCHEM_SHAPE_FINGERPRINT>  (1) 
10305334 12 16680274598157664225
11578080 2 18411704296053718385
12156800 1 17903888112129841587
12160290 23 17765179192505012678
12293681 160 17264387857344576304
12788726 201 18044367232601842047
13149001 5 17911210872551241700
133893 2 18055363693204177463
13583140 156 17628096786386934947
13965767 371 17271199654248538169
14415361 192 18339378452171968596
14856354 85 17029323563038150944
14955137 171 17270086909215125798
15775530 1 18197473208725296124
19319366 153 17179105320278049429
22440779 20 18264226762802029369
229495 10 17414681501693334429
23419403 2 18343582945058256953
23559900 14 17168687722467259722
244849 19 18263075673476647659
24941158 1 16815225670528013153
3380486 145 17988626490178086128
35225 105 17615160709462046578
3552219 110 17907624386375795222
42626532 9 17969242138629353771
469060 322 17826833397338534516
5171179 24 18200856431535785668
57527358 35 15479602695300247816
59444896 2 17044929996348329000
70251023 43 18341880892500589695

>  <PUBCHEM_SHAPE_MULTIPOLES>  (1) 
693.91
7.73
5.99
3.71
2.68
5.46
2.56
-11.72
0.36
2.07
-0.18
-2.48
1.54
5.09

>  <PUBCHEM_SHAPE_SELFOVERLAP>  (1) 
1537.32

>  <PUBCHEM_SHAPE_VOLUME>  (1) 
372.1

>  <PUBCHEM_COORDINATE_TYPE>  (1) 
2
5
10

$$$$
