41323
     RDKit          3D

 47 53  0  0  1  0  0  0  0  0999 V2000
    0.4629    0.7527    0.4829 O   0  0  0  0  0  0  0  0  0  0  0  0
   -0.3272    3.5175    0.5194 O   0  0  0  0  0  0  0  0  0  0  0  0
    0.1204    1.6480   -2.2339 O   0  0  0  0  0  0  0  0  0  0  0  0
    1.5559    5.4540    0.2707 O   0  0  0  0  0  0  0  0  0  0  0  0
    0.2005   -4.5159    0.7452 O   0  0  0  0  0  0  0  0  0  0  0  0
    1.6438   -6.2512   -0.7892 O   0  0  0  0  0  0  0  0  0  0  0  0
    4.6577   -0.1722    1.0372 N   0  0  0  0  0  0  0  0  0  0  0  0
   -5.6603    0.8561    0.5694 N   0  0  0  0  0  0  0  0  0  0  0  0
    3.1885   -0.0137    0.4952 C   0  0  0  0  0  0  0  0  0  0  0  0
   -4.3561    0.0304    0.8692 C   0  0  0  0  0  0  0  0  0  0  0  0
    5.5947    0.7621    0.2713 C   0  0  0  0  0  0  0  0  0  0  0  0
   -5.9112    0.8996   -0.9423 C   0  0  0  0  0  0  0  0  0  0  0  0
    2.7466    1.4491    0.3992 C   0  0  0  0  0  0  0  0  0  0  0  0
    5.1812    2.2185    0.4158 C   0  0  0  0  0  0  0  0  0  0  0  0
   -3.1703    0.5557    0.0783 C   0  0  0  0  0  0  0  0  0  0  0  0
    3.7018    2.4815    0.3244 C   0  0  0  0  0  0  0  0  0  0  0  0
    2.9773   -0.7150   -0.8826 C   0  0  0  0  0  0  0  0  0  0  0  0
   -4.7193    1.4514   -1.7227 C   0  0  0  0  0  0  0  0  0  0  0  0
    4.6811    0.1442    2.5464 C   0  0  0  0  0  0  0  0  0  0  0  0
    5.1940   -1.5998    0.9076 C   0  0  0  0  0  0  0  0  0  0  0  0
   -3.3495    1.1135   -1.1957 C   0  0  0  0  0  0  0  0  0  0  0  0
   -4.6059   -1.4920    0.6271 C   0  0  0  0  0  0  0  0  0  0  0  0
   -5.5183    2.2799    1.1356 C   0  0  0  0  0  0  0  0  0  0  0  0
   -6.8878    0.2451    1.2563 C   0  0  0  0  0  0  0  0  0  0  0  0
    1.3736    1.7895    0.3894 C   0  0  0  0  0  0  0  0  0  0  0  0
   -1.8751    0.4727    0.6176 C   0  0  0  0  0  0  0  0  0  0  0  0
    3.2795    3.8199    0.2632 C   0  0  0  0  0  0  0  0  0  0  0  0
    2.6164   -2.1871   -0.8362 C   0  0  0  0  0  0  0  0  0  0  0  0
   -2.2221    1.4806   -1.9488 C   0  0  0  0  0  0  0  0  0  0  0  0
   -0.7665    0.8859   -0.1217 C   0  0  0  0  0  0  0  0  0  0  0  0
   -3.3762   -2.3698    0.6659 C   0  0  0  0  0  0  0  0  0  0  0  0
    0.9747    3.1332    0.3698 C   0  0  0  0  0  0  0  0  0  0  0  0
   -0.9343    1.3409   -1.4287 C   0  0  0  0  0  0  0  0  0  0  0  0
    1.9270    4.1431    0.2904 C   0  0  0  0  0  0  0  0  0  0  0  0
    1.5635   -2.6549   -0.0380 C   0  0  0  0  0  0  0  0  0  0  0  0
    3.3041   -3.1064   -1.6432 C   0  0  0  0  0  0  0  0  0  0  0  0
   -2.8027   -2.8132   -0.5360 C   0  0  0  0  0  0  0  0  0  0  0  0
   -2.7699   -2.7127    1.8815 C   0  0  0  0  0  0  0  0  0  0  0  0
    1.2226   -4.0142   -0.0352 C   0  0  0  0  0  0  0  0  0  0  0  0
    2.9806   -4.4654   -1.6161 C   0  0  0  0  0  0  0  0  0  0  0  0
   -1.6205   -3.5483   -0.5275 C   0  0  0  0  0  0  0  0  0  0  0  0
   -1.5829   -3.4472    1.8939 C   0  0  0  0  0  0  0  0  0  0  0  0
   -0.9943   -3.8314    0.6884 C   0  0  0  0  0  0  0  0  0  0  0  0
    1.9467   -4.9239   -0.8034 C   0  0  0  0  0  0  0  0  0  0  0  0
   -0.7773    3.7661    1.8480 C   0  0  0  0  0  0  0  0  0  0  0  0
   -0.1809    2.1036   -3.5515 C   0  0  0  0  0  0  0  0  0  0  0  0
    1.3138    6.0396   -1.0069 C   0  0  0  0  0  0  0  0  0  0  0  0
  1 25  1  0
  1 30  1  0
  2 32  1  0
  2 45  1  0
  3 33  1  0
  3 46  1  0
  4 34  1  0
  4 47  1  0
  5 39  1  0
  5 43  1  0
  6 44  1  0
  7  9  1  0
  7 11  1  0
  7 19  1  0
  7 20  1  0
  8 10  1  0
  8 12  1  0
  8 23  1  0
  8 24  1  0
  9 13  1  0
  9 17  1  0
 10 15  1  0
 10 22  1  0
 11 14  1  0
 12 18  1  0
 13 16  2  0
 13 25  1  0
 14 16  1  0
 15 21  1  0
 15 26  2  0
 16 27  1  0
 17 28  1  0
 18 21  1  0
 21 29  2  0
 22 31  1  0
 25 32  2  0
 26 30  1  0
 27 34  2  0
 28 35  1  0
 28 36  2  0
 29 33  1  0
 30 33  2  0
 31 37  2  0
 31 38  1  0
 32 34  1  0
 35 39  2  0
 36 40  1  0
 37 41  1  0
 38 42  2  0
 39 44  1  0
 40 44  2  0
 41 43  2  0
 42 43  1  0
M  CHG  2   7   1   8   1
M  END
>  <PUBCHEM_COMPOUND_CID>  (1) 
41323

>  <PUBCHEM_CONFORMER_RMSD>  (1) 
1

>  <PUBCHEM_CONFORMER_DIVERSEORDER>  (1) 
6
4
28
26
19
15
22
14
13
10
5
24
8
23
17
27
20
3
12
11
21
7
18
2
25
9
16
1

>  <PUBCHEM_MMFF94_PARTIAL_CHARGES>  (1) 
58
1 -0.17
10 0.65
11 0.5
12 0.5
13 -0.14
14 0.14
15 -0.14
16 -0.14
17 0.14
18 0.14
19 0.5
2 -0.36
20 0.5
21 -0.14
22 0.14
23 0.5
24 0.5
25 0.08
26 -0.15
27 -0.15
28 -0.14
29 -0.15
3 -0.36
30 0.08
31 -0.14
32 0.08
33 0.08
34 0.08
35 -0.15
36 -0.15
37 -0.15
38 -0.15
39 0.08
4 -0.36
40 -0.15
41 -0.15
42 -0.15
43 0.08
44 0.08
45 0.28
46 0.28
47 0.28
5 -0.17
6 -0.53
7 -1.01
74 0.15
75 0.15
76 0.15
77 0.15
78 0.15
79 0.15
8 -1.01
80 0.15
81 0.15
82 0.15
83 0.15
9 0.65
93 0.45

>  <PUBCHEM_EFFECTIVE_ROTOR_COUNT>  (1) 
5

>  <PUBCHEM_PHARMACOPHORE_FEATURES>  (1) 
14
1 1 acceptor
1 2 acceptor
1 3 acceptor
1 4 acceptor
1 5 acceptor
1 6 donor
1 7 cation
1 8 cation
6 13 16 25 27 32 34 rings
6 15 21 26 29 30 33 rings
6 28 35 36 39 40 44 rings
6 31 37 38 41 42 43 rings
6 7 9 11 13 14 16 rings
6 8 10 12 15 18 21 rings

>  <PUBCHEM_HEAVY_ATOM_COUNT>  (1) 
47

>  <PUBCHEM_ATOM_DEF_STEREO_COUNT>  (1) 
0

>  <PUBCHEM_ATOM_UDEF_STEREO_COUNT>  (1) 
2

>  <PUBCHEM_BOND_DEF_STEREO_COUNT>  (1) 
0

>  <PUBCHEM_BOND_UDEF_STEREO_COUNT>  (1) 
0

>  <PUBCHEM_ISOTOPIC_ATOM_COUNT>  (1) 
0

>  <PUBCHEM_COMPONENT_COUNT>  (1) 
1

>  <PUBCHEM_CACTVS_TAUTO_COUNT>  (1) 
3

>  <PUBCHEM_CONFORMER_ID>  (1) 
0000A16B00000006

>  <PUBCHEM_MMFF94_ENERGY>  (1) 
221.7606

>  <PUBCHEM_FEATURE_SELFOVERLAP>  (1) 
71.1

>  <PUBCHEM_SHAPE_FINGERPRINT>  (1) 
10439779 11 18337946895820548938
10556698 54 17105048883237476069
10581848 31 18337967760976887885
10653451 467 18260551108979726107
10675989 125 17831843669208537581
11049842 53 17971783165967698213
11170278 133 17829902279798228444
11170278 61 18272928358887630311
11399939 17 17975142246736264797
11513181 2 17841159067243470190
12422481 6 18334573581140044594
12788726 201 16824452295873080781
13383668 90 14856085779508022194
140371 6 18412267211858300768
14725015 67 17905328429255065771
15001296 14 17688872355725227322
15264996 163 17183920068531720790
15320467 1 18340209604697593867
15351339 4 17829608358037649675
15968369 26 18119793726204053462
16112460 7 18410860970898497625
161222 619 18411980277946267950
20764821 26 18411692197441945470
21133410 38 18272655697094490719
354706 109 18051951895453080065
4112364 45 17412495467405388513
4403749 210 17980185702552524032
45266715 3 18335967732773738095
5265222 85 18121512498621582844
86090 222 18041572325757619179

>  <PUBCHEM_SHAPE_MULTIPOLES>  (1) 
922.06
11.44
8.43
2.01
8.07
2.98
-0.85
-2.75
3.46
-6.22
-1.15
0.33
-0.37
2.14

>  <PUBCHEM_SHAPE_SELFOVERLAP>  (1) 
2016.203

>  <PUBCHEM_SHAPE_VOLUME>  (1) 
500.6

>  <PUBCHEM_COORDINATE_TYPE>  (1) 
2
5
10

$$$$
