41331
     RDKit          3D

 10  9  0  0  0  0  0  0  0  0999 V2000
    1.9498   -0.4060   -0.0013 O   0  0  0  0  0  0  0  0  0  0  0  0
    1.0297    1.7134   -0.0004 O   0  0  0  0  0  0  0  0  0  0  0  0
   -3.8508    0.6114    0.0025 O   0  0  0  0  0  0  0  0  0  0  0  0
   -2.9484   -1.4771   -0.0007 O   0  0  0  0  0  0  0  0  0  0  0  0
    3.2674    0.1534    0.0016 C   0  0  0  0  0  0  0  0  0  0  0  0
    4.2807   -0.9712    0.0020 C   0  0  0  0  0  0  0  0  0  0  0  0
    0.9315    0.4964   -0.0019 C   0  0  0  0  0  0  0  0  0  0  0  0
   -0.3396   -0.2626   -0.0024 C   0  0  0  0  0  0  0  0  0  0  0  0
   -1.5008    0.4037   -0.0002 C   0  0  0  0  0  0  0  0  0  0  0  0
   -2.8196   -0.2614    0.0009 C   0  0  0  0  0  0  0  0  0  0  0  0
  1  5  1  0
  1  7  1  0
  2  7  2  0
  3 10  1  0
  4 10  2  0
  5  6  1  0
  7  8  1  0
  8  9  2  0
  9 10  1  0
M  END
>  <PUBCHEM_COMPOUND_CID>  (1) 
41331

>  <PUBCHEM_CONFORMER_RMSD>  (1) 
0.6

>  <PUBCHEM_CONFORMER_DIVERSEORDER>  (1) 
1
15
12
7
13
9
8
10
11
18
14
16
2
4
6
3
17
5
19

>  <PUBCHEM_MMFF94_PARTIAL_CHARGES>  (1) 
12
1 -0.43
10 0.71
16 0.15
17 0.15
18 0.5
2 -0.57
3 -0.65
4 -0.57
5 0.28
7 0.71
8 -0.14
9 -0.14

>  <PUBCHEM_EFFECTIVE_ROTOR_COUNT>  (1) 
4

>  <PUBCHEM_PHARMACOPHORE_FEATURES>  (1) 
4
1 2 acceptor
1 3 acceptor
1 4 acceptor
3 3 4 10 anion

>  <PUBCHEM_HEAVY_ATOM_COUNT>  (1) 
10

>  <PUBCHEM_ATOM_DEF_STEREO_COUNT>  (1) 
0

>  <PUBCHEM_ATOM_UDEF_STEREO_COUNT>  (1) 
0

>  <PUBCHEM_BOND_DEF_STEREO_COUNT>  (1) 
0

>  <PUBCHEM_BOND_UDEF_STEREO_COUNT>  (1) 
1

>  <PUBCHEM_ISOTOPIC_ATOM_COUNT>  (1) 
0

>  <PUBCHEM_COMPONENT_COUNT>  (1) 
1

>  <PUBCHEM_CACTVS_TAUTO_COUNT>  (1) 
1

>  <PUBCHEM_CONFORMER_ID>  (1) 
0000A17300000001

>  <PUBCHEM_MMFF94_ENERGY>  (1) 
14.446

>  <PUBCHEM_FEATURE_SELFOVERLAP>  (1) 
20.354

>  <PUBCHEM_SHAPE_FINGERPRINT>  (1) 
10219947 1 17704072897767766660
11062470 55 17775283854735315992
12032990 46 18412267224927415934
12932764 1 17168410645378369241
14325111 11 18410856606905561313
177051 138 18271806868930764879
20281407 28 18408605851095950754
21293036 1 12757154575660719590
22485316 2 18409163303575817530
23402539 116 18060412492238970741
3248919 1 16917083190932621077

>  <PUBCHEM_SHAPE_MULTIPOLES>  (1) 
182.32
7.39
1.2
0.58
1.69
0.09
0
-2.05
0.01
-0.03
0
0.04
0
0

>  <PUBCHEM_SHAPE_SELFOVERLAP>  (1) 
347.866

>  <PUBCHEM_SHAPE_VOLUME>  (1) 
111.4

>  <PUBCHEM_COORDINATE_TYPE>  (1) 
2
5
10

$$$$
