4133
     RDKit          3D

 11 11  0  0  0  0  0  0  0  0999 V2000
    2.1225    0.8667   -0.3113 O   0  0  0  0  0  0  0  0  0  0  0  0
   -0.5276   -2.2538   -0.2299 O   0  0  0  0  0  0  0  0  0  0  0  0
    1.8870   -1.2425    0.5802 O   0  0  0  0  0  0  0  0  0  0  0  0
   -0.0378    0.0737    0.0824 C   0  0  0  0  0  0  0  0  0  0  0  0
   -0.9503   -0.9641   -0.1065 C   0  0  0  0  0  0  0  0  0  0  0  0
   -0.4910    1.3872    0.2058 C   0  0  0  0  0  0  0  0  0  0  0  0
   -2.3161   -0.6885   -0.1722 C   0  0  0  0  0  0  0  0  0  0  0  0
   -1.8568    1.6627    0.1401 C   0  0  0  0  0  0  0  0  0  0  0  0
   -2.7694    0.6249   -0.0490 C   0  0  0  0  0  0  0  0  0  0  0  0
    1.3923   -0.1918    0.1539 C   0  0  0  0  0  0  0  0  0  0  0  0
    3.5470    0.7256   -0.2935 C   0  0  0  0  0  0  0  0  0  0  0  0
  1 10  1  0
  1 11  1  0
  2  5  1  0
  3 10  2  0
  4  5  2  0
  4  6  1  0
  4 10  1  0
  5  7  1  0
  6  8  2  0
  7  9  2  0
  8  9  1  0
M  END
>  <PUBCHEM_COMPOUND_CID>  (1) 
4133

>  <PUBCHEM_CONFORMER_RMSD>  (1) 
0.4

>  <PUBCHEM_CONFORMER_DIVERSEORDER>  (1) 
1
4
5
6
3
2

>  <PUBCHEM_MMFF94_PARTIAL_CHARGES>  (1) 
16
1 -0.43
10 0.63
11 0.28
12 0.15
13 0.15
14 0.15
15 0.15
16 0.45
2 -0.53
3 -0.57
4 0.09
5 0.08
6 -0.15
7 -0.15
8 -0.15
9 -0.15

>  <PUBCHEM_EFFECTIVE_ROTOR_COUNT>  (1) 
2

>  <PUBCHEM_PHARMACOPHORE_FEATURES>  (1) 
3
1 2 donor
1 3 acceptor
6 4 5 6 7 8 9 rings

>  <PUBCHEM_HEAVY_ATOM_COUNT>  (1) 
11

>  <PUBCHEM_ATOM_DEF_STEREO_COUNT>  (1) 
0

>  <PUBCHEM_ATOM_UDEF_STEREO_COUNT>  (1) 
0

>  <PUBCHEM_BOND_DEF_STEREO_COUNT>  (1) 
0

>  <PUBCHEM_BOND_UDEF_STEREO_COUNT>  (1) 
0

>  <PUBCHEM_ISOTOPIC_ATOM_COUNT>  (1) 
0

>  <PUBCHEM_COMPONENT_COUNT>  (1) 
1

>  <PUBCHEM_CACTVS_TAUTO_COUNT>  (1) 
4

>  <PUBCHEM_CONFORMER_ID>  (1) 
0000102500000001

>  <PUBCHEM_MMFF94_ENERGY>  (1) 
31.1415

>  <PUBCHEM_FEATURE_SELFOVERLAP>  (1) 
15.223

>  <PUBCHEM_SHAPE_FINGERPRINT>  (1) 
12716758 59 18343306989404256142
12897270 3 18411701027736060772
13024252 1 14201392807165267797
13380535 76 18411698777294666390
14325111 11 18410575041718921056
15775835 57 18336271154047166296
16945 1 18339073908038927137
20645464 45 17559937939862456626
20871998 184 18129668641543093247
21040471 1 18341044146907886603
23402539 116 18271798059910422357
23552423 10 18264767649550616587
23559900 14 18272655675882956364
241688 4 16466148909252812347
2748010 2 18338800005063107693
369184 2 16008742528548853985
5084963 1 18058444292545397467
528886 8 18411414012330581697
6333449 129 18341893038641130952
7364860 26 18270115696052408458

>  <PUBCHEM_SHAPE_MULTIPOLES>  (1) 
208.77
4.34
1.8
0.65
2.75
0.44
-0.01
-1.16
0.38
-0.49
-0.01
0.05
0
-0.31

>  <PUBCHEM_SHAPE_SELFOVERLAP>  (1) 
436.305

>  <PUBCHEM_SHAPE_VOLUME>  (1) 
119

>  <PUBCHEM_COORDINATE_TYPE>  (1) 
2
5
10

$$$$
