41346
     RDKit          3D

 31 34  0  0  1  0  0  0  0  0999 V2000
   -0.7536    1.4063   -0.5872 O   0  0  0  0  0  0  0  0  0  0  0  0
    0.2867    3.9799   -0.4137 O   0  0  0  0  0  0  0  0  0  0  0  0
   -0.1909   -1.4139   -1.0063 O   0  0  0  0  0  0  0  0  0  0  0  0
   -3.2561    2.0485    0.2944 O   0  0  0  0  0  0  0  0  0  0  0  0
   -4.4782   -2.6550    0.3081 O   0  0  0  0  0  0  0  0  0  0  0  0
   -6.1348   -0.7498    1.0133 O   0  0  0  0  0  0  0  0  0  0  0  0
    2.7678    1.2476   -0.7126 N   0  0  0  0  0  0  0  0  0  0  0  0
    1.9757    2.4126   -1.0826 C   0  0  0  0  0  0  0  0  0  0  0  0
    1.0488    2.8613    0.0495 C   0  0  0  0  0  0  0  0  0  0  0  0
    3.6471    1.5579    0.4167 C   0  0  0  0  0  0  0  0  0  0  0  0
    0.0826    1.7713    0.5083 C   0  0  0  0  0  0  0  0  0  0  0  0
    3.5558    0.7747   -1.8528 C   0  0  0  0  0  0  0  0  0  0  0  0
   -1.6756    0.4270   -0.3621 C   0  0  0  0  0  0  0  0  0  0  0  0
   -1.3841   -0.9201   -0.5703 C   0  0  0  0  0  0  0  0  0  0  0  0
   -2.2855   -1.9582   -0.3583 C   0  0  0  0  0  0  0  0  0  0  0  0
    4.4307    0.3530    0.8651 C   0  0  0  0  0  0  0  0  0  0  0  0
   -2.9675    0.7179    0.0888 C   0  0  0  0  0  0  0  0  0  0  0  0
   -3.9030   -0.2982    0.3141 C   0  0  0  0  0  0  0  0  0  0  0  0
   -3.5805   -1.6474    0.0957 C   0  0  0  0  0  0  0  0  0  0  0  0
    2.6638    0.4460   -3.0380 C   0  0  0  0  0  0  0  0  0  0  0  0
   -1.5863   -3.1495   -0.6882 C   0  0  0  0  0  0  0  0  0  0  0  0
   -0.3237   -2.7641   -1.0746 C   0  0  0  0  0  0  0  0  0  0  0  0
    3.9011   -0.4834    1.8380 C   0  0  0  0  0  0  0  0  0  0  0  0
    5.6717    0.0957    0.2996 C   0  0  0  0  0  0  0  0  0  0  0  0
   -5.2516    0.0666    0.7902 C   0  0  0  0  0  0  0  0  0  0  0  0
    0.8591   -3.5100   -1.5272 C   0  0  0  0  0  0  0  0  0  0  0  0
   -5.5042    1.5054    0.9930 C   0  0  0  0  0  0  0  0  0  0  0  0
    4.6272   -1.5994    2.2538 C   0  0  0  0  0  0  0  0  0  0  0  0
    6.3978   -1.0204    0.7153 C   0  0  0  0  0  0  0  0  0  0  0  0
   -4.5161    2.3657    0.7374 C   0  0  0  0  0  0  0  0  0  0  0  0
    5.8756   -1.8679    1.6924 C   0  0  0  0  0  0  0  0  0  0  0  0
  1 11  1  0
  1 13  1  0
  2  9  1  0
  3 14  1  0
  3 22  1  0
  4 17  1  0
  4 30  1  0
  5 19  1  0
  6 25  2  0
  7  8  1  0
  7 10  1  0
  7 12  1  0
  8  9  1  0
  9 11  1  0
 10 16  1  0
 12 20  1  0
 13 14  2  0
 13 17  1  0
 14 15  1  0
 15 19  2  0
 15 21  1  0
 16 23  2  0
 16 24  1  0
 17 18  2  0
 18 19  1  0
 18 25  1  0
 21 22  2  0
 22 26  1  0
 23 28  1  0
 24 29  2  0
 25 27  1  0
 27 30  2  0
 28 31  2  0
 29 31  1  0
M  END
>  <PUBCHEM_COMPOUND_CID>  (1) 
41346

>  <PUBCHEM_CONFORMER_RMSD>  (1) 
1

>  <PUBCHEM_CONFORMER_DIVERSEORDER>  (1) 
2
143
120
72
45
20
115
19
69
156
70
144
81
105
46
92
22
68
152
28
58
98
119
157
145
111
37
121
42
3
21
47
155
95
101
77
149
41
80
27
125
44
91
33
94
133
97
110
117
35
38
34
106
153
158
29
135
52
49
26
43
73
104
140
85
67
51
40
75
99
129
78
25
30
100
134
4
87
102
130
107
62
64
65
150
48
55
160
36
60
103
139
50
66
88
147
86
154
57
71
13
142
90
6
74
127
39
114
53
141
11
1
15
54
109
93
59
7
89
123
151
159
131
132
122
16
84
96
113
56
63
31
14
126
118
76
138
146
10
17
137
18
32
112
61
108
12
116
128
24
148
136
79
83
124
5
23
9
82
8

>  <PUBCHEM_MMFF94_PARTIAL_CHARGES>  (1) 
39
1 -0.36
10 0.41
11 0.28
12 0.27
13 0.08
14 0.14
16 -0.14
17 0.08
18 0.09
19 0.08
2 -0.68
21 -0.15
22 -0.04
23 -0.15
24 -0.15
25 0.47
26 0.18
27 -0.14
28 -0.15
29 -0.15
3 -0.28
30 -0.07
31 -0.15
4 -0.16
44 0.15
45 0.4
46 0.15
47 0.15
5 -0.53
51 0.15
52 0.15
53 0.15
54 0.15
55 0.45
56 0.15
6 -0.57
7 -0.81
8 0.27
9 0.28

>  <PUBCHEM_EFFECTIVE_ROTOR_COUNT>  (1) 
8

>  <PUBCHEM_PHARMACOPHORE_FEATURES>  (1) 
12
1 1 acceptor
1 2 acceptor
1 2 donor
1 3 acceptor
1 4 acceptor
1 5 donor
1 6 acceptor
1 7 cation
5 3 14 15 21 22 rings
6 13 14 15 17 18 19 rings
6 16 23 24 28 29 31 rings
6 4 17 18 25 27 30 rings

>  <PUBCHEM_HEAVY_ATOM_COUNT>  (1) 
31

>  <PUBCHEM_ATOM_DEF_STEREO_COUNT>  (1) 
0

>  <PUBCHEM_ATOM_UDEF_STEREO_COUNT>  (1) 
1

>  <PUBCHEM_BOND_DEF_STEREO_COUNT>  (1) 
0

>  <PUBCHEM_BOND_UDEF_STEREO_COUNT>  (1) 
0

>  <PUBCHEM_ISOTOPIC_ATOM_COUNT>  (1) 
0

>  <PUBCHEM_COMPONENT_COUNT>  (1) 
1

>  <PUBCHEM_CACTVS_TAUTO_COUNT>  (1) 
4

>  <PUBCHEM_CONFORMER_ID>  (1) 
0000A18200000002

>  <PUBCHEM_MMFF94_ENERGY>  (1) 
83.6313

>  <PUBCHEM_FEATURE_SELFOVERLAP>  (1) 
61.041

>  <PUBCHEM_SHAPE_FINGERPRINT>  (1) 
10939801 23 18410856607765976256
11112241 14 16271916134288902011
11135926 11 18190167079256620564
11991303 11 15505162745705283677
12107183 9 18409732842025421785
12422481 6 18336543807134359018
12633257 1 18342176708446370132
12839892 36 18413672413783281359
13726171 33 18055098672474524492
14279260 333 17606664839936052890
14394314 77 18408322203082878320
14420673 8 18410855425995562978
14466204 15 18343025475847180329
15264996 154 18114759148081225282
15403338 16 17604698976546218067
15444296 8 16299225692736785086
15537594 2 18113899351873376464
16110190 28 18411409640549707792
16728300 4 18042392539477029747
17818456 19 18341894125315459784
1813 80 17168136832929679316
19319366 153 17180258114937907445
20554085 129 17703222906850319169
21033648 29 16988849375434010304
21133410 171 16763897186948130086
21133410 221 16539005896180942642
21703447 108 17338142448505260377
21814621 53 15194467277509581607
229767 44 18340759369518362242
23559900 14 17916043385116470100
238918 7 18059009471866427182
3298306 158 18271258148810494845
338550 245 18408327687528664222
3680242 22 18409175410735028368
44880168 125 17989199310178013462
46194498 28 15430321360609995902
463206 1 18114461257981135010
495365 180 16559042579555156548
5104073 3 18271252736914727953
513202 73 17095516245619171197
56633871 153 18338789031680649010
6371009 1 18342735248111956421
6823239 73 17844271681550632524
7097593 13 18121487214597218428
7226269 152 17632576037200983304

>  <PUBCHEM_SHAPE_MULTIPOLES>  (1) 
597.77
13.85
3.95
1.84
3.13
0.33
0.62
1.82
-8.33
-1.33
0.98
2.73
0.43
-2.16

>  <PUBCHEM_SHAPE_SELFOVERLAP>  (1) 
1302.548

>  <PUBCHEM_SHAPE_VOLUME>  (1) 
327.1

>  <PUBCHEM_COORDINATE_TYPE>  (1) 
2
5
10

$$$$
