4134
     RDKit          3D

 25 26  0  0  0  0  0  0  0  0999 V2000
    0.8437   -0.1946    0.4230 O   0  0  0  0  0  0  0  0  0  0  0  0
   -1.3248   -0.3675    1.9725 O   0  0  0  0  0  0  0  0  0  0  0  0
   -0.2628   -1.9049   -0.6442 O   0  0  0  0  0  0  0  0  0  0  0  0
    4.5406   -0.3866   -0.0475 N   0  0  0  0  0  0  0  0  0  0  0  0
    3.2176    0.1572    0.4721 C   0  0  0  0  0  0  0  0  0  0  0  0
    4.7509   -1.7988    0.4795 C   0  0  0  0  0  0  0  0  0  0  0  0
    5.6775    0.5067    0.4275 C   0  0  0  0  0  0  0  0  0  0  0  0
    4.5166   -0.4114   -1.5690 C   0  0  0  0  0  0  0  0  0  0  0  0
    2.0855   -0.7179   -0.0290 C   0  0  0  0  0  0  0  0  0  0  0  0
    6.0675   -2.3336   -0.0402 C   0  0  0  0  0  0  0  0  0  0  0  0
    5.4629    1.9088   -0.0994 C   0  0  0  0  0  0  0  0  0  0  0  0
   -1.5454   -0.2014    0.5569 C   0  0  0  0  0  0  0  0  0  0  0  0
   -0.2789   -0.8902    0.0424 C   0  0  0  0  0  0  0  0  0  0  0  0
   -1.5875    1.2896    0.2144 C   0  0  0  0  0  0  0  0  0  0  0  0
   -2.8445   -0.8943    0.1387 C   0  0  0  0  0  0  0  0  0  0  0  0
   -2.0809    2.1670    1.1523 C   0  0  0  0  0  0  0  0  0  0  0  0
   -3.2050   -0.8712   -1.1888 C   0  0  0  0  0  0  0  0  0  0  0  0
   -1.1298    1.6954   -1.0180 C   0  0  0  0  0  0  0  0  0  0  0  0
   -3.6013   -1.5140    1.1061 C   0  0  0  0  0  0  0  0  0  0  0  0
   -2.1190    3.5260    0.8403 C   0  0  0  0  0  0  0  0  0  0  0  0
   -4.3887   -1.5028   -1.5703 C   0  0  0  0  0  0  0  0  0  0  0  0
   -1.1679    3.0545   -1.3299 C   0  0  0  0  0  0  0  0  0  0  0  0
   -4.7850   -2.1458    0.7247 C   0  0  0  0  0  0  0  0  0  0  0  0
   -1.6626    3.9698   -0.4006 C   0  0  0  0  0  0  0  0  0  0  0  0
   -5.1787   -2.1401   -0.6136 C   0  0  0  0  0  0  0  0  0  0  0  0
  1  9  1  0
  1 13  1  0
  2 12  1  0
  3 13  2  0
  4  5  1  0
  4  6  1  0
  4  7  1  0
  4  8  1  0
  5  9  1  0
  6 10  1  0
  7 11  1  0
 12 13  1  0
 12 14  1  0
 12 15  1  0
 14 16  2  0
 14 18  1  0
 15 17  2  0
 15 19  1  0
 16 20  1  0
 17 21  1  0
 18 22  2  0
 19 23  2  0
 20 24  2  0
 21 25  2  0
 22 24  1  0
 23 25  1  0
M  CHG  1   4   1
M  END
>  <PUBCHEM_COMPOUND_CID>  (1) 
4134

>  <PUBCHEM_CONFORMER_RMSD>  (1) 
1

>  <PUBCHEM_CONFORMER_DIVERSEORDER>  (1) 
1
63
44
32
105
77
22
36
60
51
18
21
16
85
9
76
26
80
34
39
57
113
72
24
112
37
64
108
95
25
5
73
3
97
110
107
19
50
59
53
14
4
67
71
17
101
111
69
100
84
70
75
30
38
86
104
99
56
66
94
46
13
43
41
90
31
61
98
15
47
10
88
8
12
45
49
52
54
62
28
6
48
74
40
7
103
82
109
2
42
87
96
65
102
92
89
106
78
35
29
11
58
33
20
23
83
79
27
91
55
68
93
81

>  <PUBCHEM_MMFF94_PARTIAL_CHARGES>  (1) 
34
1 -0.43
12 0.63
13 0.66
14 -0.14
15 -0.14
16 -0.15
17 -0.15
18 -0.15
19 -0.15
2 -0.68
20 -0.15
21 -0.15
22 -0.15
23 -0.15
24 -0.15
25 -0.15
3 -0.57
4 -1.01
43 0.15
44 0.15
45 0.15
46 0.15
47 0.4
48 0.15
49 0.15
5 0.5
50 0.15
51 0.15
52 0.15
53 0.15
6 0.5
7 0.5
8 0.5
9 0.28

>  <PUBCHEM_EFFECTIVE_ROTOR_COUNT>  (1) 
9

>  <PUBCHEM_PHARMACOPHORE_FEATURES>  (1) 
6
1 2 acceptor
1 2 donor
1 3 acceptor
1 4 cation
6 14 16 18 20 22 24 rings
6 15 17 19 21 23 25 rings

>  <PUBCHEM_HEAVY_ATOM_COUNT>  (1) 
25

>  <PUBCHEM_ATOM_DEF_STEREO_COUNT>  (1) 
0

>  <PUBCHEM_ATOM_UDEF_STEREO_COUNT>  (1) 
0

>  <PUBCHEM_BOND_DEF_STEREO_COUNT>  (1) 
0

>  <PUBCHEM_BOND_UDEF_STEREO_COUNT>  (1) 
0

>  <PUBCHEM_ISOTOPIC_ATOM_COUNT>  (1) 
0

>  <PUBCHEM_COMPONENT_COUNT>  (1) 
1

>  <PUBCHEM_CACTVS_TAUTO_COUNT>  (1) 
1

>  <PUBCHEM_CONFORMER_ID>  (1) 
0000102600000001

>  <PUBCHEM_MMFF94_ENERGY>  (1) 
87.5576

>  <PUBCHEM_FEATURE_SELFOVERLAP>  (1) 
30.446

>  <PUBCHEM_SHAPE_FINGERPRINT>  (1) 
10670039 82 18335436672989783188
11045515 52 18261668276985947461
11101153 10 18336834182038122892
11405975 8 18265615378043478240
11545043 162 18129934565144851722
11578080 2 16556814921990408113
12107183 9 17686897220904813090
12166972 35 17531250603209271262
12403259 226 18342733022875792048
12403260 363 18409163286691412354
12516196 113 18337390564643598479
12788726 201 18261661606680411883
12916754 54 18410293588749615066
13004483 165 18340479054008618183
13073987 5 18340764863330082082
13911987 19 18043262416357133495
14118638 360 18409165503290078642
14347332 77 18411413973818644962
14508225 48 18408877451996056869
14713325 29 18268991986066865649
14840074 17 18059017309828431575
14955137 171 18268153248364971835
15849732 13 18059861697217037839
16992727 255 18042109974512510925
17349148 13 17676215658223841222
17492 89 18339360765285412530
17844677 252 18411705357675011826
1813 80 18200606907316708127
200 152 18335979843785258371
20600515 1 18197798767451768935
21236236 1 18411981321443758241
21344244 246 17619899995551601869
22224240 67 9439411263720935271
23175994 123 18261954167447565911
23352939 185 18201440345256643625
23402539 116 18409449189484110147
23557571 272 18411699868221355271
23559900 14 17749948976659628978
283562 15 18408317774707260955
312423 11 18261683605877006150
3411729 13 10302444302634086591
44062 13 18196938769059834094
497634 4 17632589257400171520
5104073 3 18340200788005318634
5171179 24 17916284199970397585
5924683 9 18337390448552549652
59755656 520 18048029667057926093
6677587 24 15004953047932661965

>  <PUBCHEM_SHAPE_MULTIPOLES>  (1) 
491.9
12.88
3.91
1.34
18.51
4.17
-0.11
-8.62
-0.89
-3.07
-0.23
-0.91
0.05
-0.35

>  <PUBCHEM_SHAPE_SELFOVERLAP>  (1) 
1027.761

>  <PUBCHEM_SHAPE_VOLUME>  (1) 
279.7

>  <PUBCHEM_COORDINATE_TYPE>  (1) 
2
5
10

$$$$
