41348
     RDKit          3D

 33 36  0  0  1  0  0  0  0  0999 V2000
   -0.5414    0.4362    0.3194 O   0  0  0  0  0  0  0  0  0  0  0  0
   -1.4243    2.9285    1.1670 O   0  0  0  0  0  0  0  0  0  0  0  0
    5.8685    0.1200    0.3223 O   0  0  0  0  0  0  0  0  0  0  0  0
    2.0511   -2.3951   -1.3153 O   0  0  0  0  0  0  0  0  0  0  0  0
    4.8626   -2.1495   -1.0827 O   0  0  0  0  0  0  0  0  0  0  0  0
    1.6807    1.7810    1.1982 O   0  0  0  0  0  0  0  0  0  0  0  0
   -3.8072    0.9738   -0.8852 N   0  0  0  0  0  0  0  0  0  0  0  0
   -4.0975    1.9543   -1.9335 C   0  0  0  0  0  0  0  0  0  0  0  0
   -3.2363    1.6262    0.2853 C   0  0  0  0  0  0  0  0  0  0  0  0
   -1.9300    2.3538   -0.0414 C   0  0  0  0  0  0  0  0  0  0  0  0
   -5.0234    0.2408   -0.5267 C   0  0  0  0  0  0  0  0  0  0  0  0
   -0.8587    1.4385   -0.6299 C   0  0  0  0  0  0  0  0  0  0  0  0
   -5.1449    2.9528   -1.4486 C   0  0  0  0  0  0  0  0  0  0  0  0
   -4.5712    1.2298   -3.1894 C   0  0  0  0  0  0  0  0  0  0  0  0
   -4.7534   -0.8246    0.5024 C   0  0  0  0  0  0  0  0  0  0  0  0
    1.7495   -0.2935   -0.0530 C   0  0  0  0  0  0  0  0  0  0  0  0
    0.4102   -0.4240   -0.1720 C   0  0  0  0  0  0  0  0  0  0  0  0
    2.6403   -1.3186   -0.6460 C   0  0  0  0  0  0  0  0  0  0  0  0
    3.7931    0.8757    0.7160 C   0  0  0  0  0  0  0  0  0  0  0  0
   -4.4105   -2.1039    0.0877 C   0  0  0  0  0  0  0  0  0  0  0  0
   -4.8508   -0.5121    1.8512 C   0  0  0  0  0  0  0  0  0  0  0  0
    4.5375   -0.1371    0.1263 C   0  0  0  0  0  0  0  0  0  0  0  0
    2.3435    0.8919    0.6817 C   0  0  0  0  0  0  0  0  0  0  0  0
    3.9796   -1.2418   -0.5588 C   0  0  0  0  0  0  0  0  0  0  0  0
   -0.1451   -1.5558   -0.8735 C   0  0  0  0  0  0  0  0  0  0  0  0
    4.7109    1.7850    1.2931 C   0  0  0  0  0  0  0  0  0  0  0  0
    5.9596    1.2783    1.0249 C   0  0  0  0  0  0  0  0  0  0  0  0
   -4.1602   -3.0909    1.0410 C   0  0  0  0  0  0  0  0  0  0  0  0
   -4.6004   -1.4993    2.8045 C   0  0  0  0  0  0  0  0  0  0  0  0
    0.6795   -2.4657   -1.3995 C   0  0  0  0  0  0  0  0  0  0  0  0
   -4.2551   -2.7886    2.3993 C   0  0  0  0  0  0  0  0  0  0  0  0
    7.3189    1.7374    1.3441 C   0  0  0  0  0  0  0  0  0  0  0  0
    5.2248   -1.8036   -2.4089 C   0  0  0  0  0  0  0  0  0  0  0  0
  1 12  1  0
  1 17  1  0
  2 10  1  0
  3 22  1  0
  3 27  1  0
  4 18  1  0
  4 30  1  0
  5 24  1  0
  5 33  1  0
  6 23  2  0
  7  8  1  0
  7  9  1  0
  7 11  1  0
  8 13  1  0
  8 14  1  0
  9 10  1  0
 10 12  1  0
 11 15  1  0
 15 20  2  0
 15 21  1  0
 16 17  2  0
 16 18  1  0
 16 23  1  0
 17 25  1  0
 18 24  2  0
 19 22  2  0
 19 23  1  0
 19 26  1  0
 20 28  1  0
 21 29  2  0
 22 24  1  0
 25 30  2  0
 26 27  2  0
 27 32  1  0
 28 31  2  0
 29 31  1  0
M  END
>  <PUBCHEM_COMPOUND_CID>  (1) 
41348

>  <PUBCHEM_CONFORMER_RMSD>  (1) 
1

>  <PUBCHEM_CONFORMER_DIVERSEORDER>  (1) 
1
170
148
43
118
177
169
184
94
66
83
77
59
41
19
47
174
50
86
158
139
68
67
130
104
138
133
140
168
171
144
33
131
119
75
113
81
172
93
92
179
125
44
159
101
183
173
26
90
22
11
62
24
78
71
145
160
91
180
32
74
146
95
123
116
99
80
21
110
54
149
121
23
141
182
64
58
60
122
166
167
30
109
20
185
34
73
38
152
36
9
76
63
57
13
155
162
115
28
143
14
10
154
70
25
31
97
7
12
178
127
142
103
124
129
156
85
16
186
46
102
117
27
181
35
176
40
45
2
89
98
96
53
49
4
100
151
87
39
79
128
18
114
108
5
134
88
56
164
132
106
161
105
52
42
112
3
82
137
136
69
157
175
165
8
126
17
37
111
6
107
135
51
84
15
65
150
72
48
29
163
147
120
153
55
61

>  <PUBCHEM_MMFF94_PARTIAL_CHARGES>  (1) 
40
1 -0.36
10 0.28
11 0.41
12 0.28
15 -0.14
16 0.01
17 0.08
18 0.08
19 -0.09
2 -0.68
20 -0.15
21 -0.15
22 0.09
23 0.64
24 0.12
25 -0.15
26 -0.15
27 -0.04
28 -0.15
29 -0.15
3 -0.28
30 -0.07
31 -0.15
32 0.18
33 0.28
4 -0.15
48 0.4
49 0.15
5 -0.36
50 0.15
51 0.15
52 0.15
53 0.15
54 0.15
55 0.15
56 0.15
6 -0.57
7 -0.81
8 0.27
9 0.27

>  <PUBCHEM_EFFECTIVE_ROTOR_COUNT>  (1) 
9

>  <PUBCHEM_PHARMACOPHORE_FEATURES>  (1) 
13
1 1 acceptor
1 2 acceptor
1 2 donor
1 3 acceptor
1 4 acceptor
1 5 acceptor
1 6 acceptor
1 7 cation
3 8 13 14 hydrophobe
5 3 19 22 26 27 rings
6 15 20 21 28 29 31 rings
6 16 18 19 22 23 24 rings
6 4 16 17 18 25 30 rings

>  <PUBCHEM_HEAVY_ATOM_COUNT>  (1) 
33

>  <PUBCHEM_ATOM_DEF_STEREO_COUNT>  (1) 
0

>  <PUBCHEM_ATOM_UDEF_STEREO_COUNT>  (1) 
1

>  <PUBCHEM_BOND_DEF_STEREO_COUNT>  (1) 
0

>  <PUBCHEM_BOND_UDEF_STEREO_COUNT>  (1) 
0

>  <PUBCHEM_ISOTOPIC_ATOM_COUNT>  (1) 
0

>  <PUBCHEM_COMPONENT_COUNT>  (1) 
1

>  <PUBCHEM_CACTVS_TAUTO_COUNT>  (1) 
1

>  <PUBCHEM_CONFORMER_ID>  (1) 
0000A18400000001

>  <PUBCHEM_MMFF94_ENERGY>  (1) 
96.1624

>  <PUBCHEM_FEATURE_SELFOVERLAP>  (1) 
66.116

>  <PUBCHEM_SHAPE_FINGERPRINT>  (1) 
10 15 18339071705591357312
10675989 125 17325188647280100933
11007060 377 17202465857559271360
11135609 12 18188505648166419769
11370993 144 18129959883802773851
11434127 23 18335411344786838637
11488393 25 17416980421651695014
12422481 6 18200607976362923595
12616971 3 14779547846572909804
13402501 40 18411138048308777107
13782708 43 18338806607156413558
15081414 286 18060423534409913176
15183329 4 15554445206610584724
15463212 79 17313939698613637353
15484559 13 15827799980480563073
16067689 68 16588842643588015336
16993438 75 18410001157559674695
17349148 13 14201401564381940901
17913733 40 17846779645977251546
17980427 23 15502378898111774373
18608769 82 18270689770187254966
19611394 137 18262238945122441088
21033648 29 18334294245225566479
21623969 137 18272654575563849986
21792961 116 18272377460886221424
22182313 1 18413392042344186222
23559900 14 18337670810911210756
25223398 141 18261690194072677758
32027 91 17973718082847091914
335352 9 18130780133079076950
3380486 145 18270405009586871603
392239 28 18272937166999949161
4015057 19 18200295681460928805
4073 2 18408885109743293592
484989 97 18271259240107117606
5104073 3 18341616962860175418
77296 10 17749662996372943218

>  <PUBCHEM_SHAPE_MULTIPOLES>  (1) 
638.93
16.41
3.52
2.35
12.69
0.32
0.48
-1.49
-2.94
-4.01
0.1
-1.64
0.43
6.54

>  <PUBCHEM_SHAPE_SELFOVERLAP>  (1) 
1382.678

>  <PUBCHEM_SHAPE_VOLUME>  (1) 
352.1

>  <PUBCHEM_COORDINATE_TYPE>  (1) 
2
5
10

$$$$
