41352
     RDKit          3D

 26 28  0  0  1  0  0  0  0  0999 V2000
    0.2918    1.2693    0.4113 O   0  0  0  0  0  0  0  0  0  0  0  0
    0.7043   -1.6055    0.3018 O   0  0  0  0  0  0  0  0  0  0  0  0
    1.4164    3.8439    0.3161 O   0  0  0  0  0  0  0  0  0  0  0  0
   -2.2780    2.1581    0.1682 O   0  0  0  0  0  0  0  0  0  0  0  0
   -3.8414   -2.4233   -0.2608 O   0  0  0  0  0  0  0  0  0  0  0  0
   -5.4509   -0.3553   -0.3317 O   0  0  0  0  0  0  0  0  0  0  0  0
    3.7924    1.0377   -0.1156 N   0  0  0  0  0  0  0  0  0  0  0  0
    5.6287   -0.6229    0.0853 C   0  0  0  0  0  0  0  0  0  0  0  0
    2.0157    2.7452   -0.3767 C   0  0  0  0  0  0  0  0  0  0  0  0
    4.8379    0.5094    0.7501 C   0  0  0  0  0  0  0  0  0  0  0  0
    3.0821    2.1312    0.5335 C   0  0  0  0  0  0  0  0  0  0  0  0
    0.9185    1.7590   -0.7718 C   0  0  0  0  0  0  0  0  0  0  0  0
   -0.7303    0.3813    0.2476 C   0  0  0  0  0  0  0  0  0  0  0  0
   -0.5094   -0.9941    0.1975 C   0  0  0  0  0  0  0  0  0  0  0  0
   -1.5130   -1.9429    0.0313 C   0  0  0  0  0  0  0  0  0  0  0  0
   -2.0590    0.7994    0.1189 C   0  0  0  0  0  0  0  0  0  0  0  0
   -3.0970   -0.1239   -0.0497 C   0  0  0  0  0  0  0  0  0  0  0  0
    6.3166   -0.1092   -1.1801 C   0  0  0  0  0  0  0  0  0  0  0  0
    4.7305   -1.8141   -0.2560 C   0  0  0  0  0  0  0  0  0  0  0  0
   -2.8439   -1.5045   -0.0962 C   0  0  0  0  0  0  0  0  0  0  0  0
   -0.8574   -3.2027    0.0371 C   0  0  0  0  0  0  0  0  0  0  0  0
    0.4829   -2.9420    0.2033 C   0  0  0  0  0  0  0  0  0  0  0  0
   -4.4803    0.3737   -0.1800 C   0  0  0  0  0  0  0  0  0  0  0  0
    1.6698   -3.8042    0.2914 C   0  0  0  0  0  0  0  0  0  0  0  0
   -4.6551    1.8369   -0.1199 C   0  0  0  0  0  0  0  0  0  0  0  0
   -3.5719    2.5994    0.0449 C   0  0  0  0  0  0  0  0  0  0  0  0
  1 12  1  0
  1 13  1  0
  2 14  1  0
  2 22  1  0
  3  9  1  0
  4 16  1  0
  4 26  1  0
  5 20  1  0
  6 23  2  0
  7 10  1  0
  7 11  1  0
  8 10  1  0
  8 18  1  0
  8 19  1  0
  9 11  1  0
  9 12  1  0
 13 14  2  0
 13 16  1  0
 14 15  1  0
 15 20  2  0
 15 21  1  0
 16 17  2  0
 17 20  1  0
 17 23  1  0
 21 22  2  0
 22 24  1  0
 23 25  1  0
 25 26  2  0
M  END
>  <PUBCHEM_COMPOUND_CID>  (1) 
41352

>  <PUBCHEM_CONFORMER_RMSD>  (1) 
0.8

>  <PUBCHEM_CONFORMER_DIVERSEORDER>  (1) 
1
56
53
72
17
43
37
61
71
73
45
68
31
35
62
39
48
50
59
52
16
24
21
34
47
66
32
20
51
64
69
65
29
30
2
22
27
54
67
44
12
42
57
14
3
40
63
55
28
41
49
4
25
15
38
46
7
70
26
33
18
36
23
6
58
19
13
8
9
5
11
60
10

>  <PUBCHEM_MMFF94_PARTIAL_CHARGES>  (1) 
28
1 -0.36
10 0.27
11 0.27
12 0.28
13 0.08
14 0.14
16 0.08
17 0.09
2 -0.28
20 0.08
21 -0.15
22 -0.04
23 0.47
24 0.18
25 -0.14
26 -0.07
3 -0.68
33 0.36
4 -0.16
42 0.15
43 0.4
47 0.15
48 0.15
49 0.45
5 -0.53
6 -0.57
7 -0.9
9 0.28

>  <PUBCHEM_EFFECTIVE_ROTOR_COUNT>  (1) 
7

>  <PUBCHEM_PHARMACOPHORE_FEATURES>  (1) 
13
1 1 acceptor
1 2 acceptor
1 3 acceptor
1 3 donor
1 4 acceptor
1 5 donor
1 6 acceptor
1 7 cation
1 7 donor
3 8 18 19 hydrophobe
5 2 14 15 21 22 rings
6 13 14 15 16 17 20 rings
6 4 16 17 23 25 26 rings

>  <PUBCHEM_HEAVY_ATOM_COUNT>  (1) 
26

>  <PUBCHEM_ATOM_DEF_STEREO_COUNT>  (1) 
0

>  <PUBCHEM_ATOM_UDEF_STEREO_COUNT>  (1) 
1

>  <PUBCHEM_BOND_DEF_STEREO_COUNT>  (1) 
0

>  <PUBCHEM_BOND_UDEF_STEREO_COUNT>  (1) 
0

>  <PUBCHEM_ISOTOPIC_ATOM_COUNT>  (1) 
0

>  <PUBCHEM_COMPONENT_COUNT>  (1) 
1

>  <PUBCHEM_CACTVS_TAUTO_COUNT>  (1) 
4

>  <PUBCHEM_CONFORMER_ID>  (1) 
0000A18800000001

>  <PUBCHEM_MMFF94_ENERGY>  (1) 
54.8196

>  <PUBCHEM_FEATURE_SELFOVERLAP>  (1) 
66.114

>  <PUBCHEM_SHAPE_FINGERPRINT>  (1) 
10411042 1 17833833050900462955
1100329 8 18411138056112461867
11578080 2 16880177924369868935
12838862 33 18337090316876163192
13140716 1 18265905837775436411
13402501 40 18341051831464469198
138480 1 17977944588279490595
14466204 15 18409726240544246768
14790565 3 18337113363159132984
14840074 17 17530975665805683974
15042514 8 18192434301986434347
15196674 1 18338516443101582160
15256400 18 18410853295654776120
15420108 30 17410233710671035608
17492 89 18121500412641452074
19591789 44 18194400224318153331
19930381 70 18193555558812025266
20642791 178 18114761385668463676
20642791 35 17834964070301619110
21279426 13 18268148660964872916
21781051 124 17969804036527219035
23227448 37 18413669106179000558
23559900 14 18270677709713859800
3004659 81 18260551117902073956
3298306 158 18410852118838791180
335352 9 18410573998463933173
338550 245 18335143124173882468
350125 39 18409731755556340409
3680242 22 18191022309970788234
404807 14 17195748666242622790
437815 12 17917720067988245292
5265222 85 18335997462337258036
532947 4 18340491041120124358
59755656 215 18409444752788122885
6138700 20 18338800001401441822
9709674 26 18124034787143896852

>  <PUBCHEM_SHAPE_MULTIPOLES>  (1) 
494.87
11.54
4.44
0.75
8.84
0.93
0.06
-1.69
1.76
0.31
-0.29
0.54
-0.09
0

>  <PUBCHEM_SHAPE_SELFOVERLAP>  (1) 
1059.317

>  <PUBCHEM_SHAPE_VOLUME>  (1) 
276.6

>  <PUBCHEM_COORDINATE_TYPE>  (1) 
2
5
10

$$$$
