4135
     RDKit          3D

 31 32  0  0  0  0  0  0  0  0999 V2000
    1.5972   -2.1957   -0.2639 O   0  0  0  0  0  0  0  0  0  0  0  0
   -0.7216   -2.2664    1.3052 O   0  0  0  0  0  0  0  0  0  0  0  0
    5.0526   -1.1148   -1.0112 N   0  0  0  0  0  0  0  0  0  0  0  0
   -5.3785    0.8777    0.7814 C   0  0  0  0  0  0  0  0  0  0  0  0
   -5.1945    1.1864   -1.9446 C   0  0  0  0  0  0  0  0  0  0  0  0
   -5.3736    1.7776   -0.5074 C   0  0  0  0  0  0  0  0  0  0  0  0
   -4.1027    0.0235    0.9252 C   0  0  0  0  0  0  0  0  0  0  0  0
   -6.6862    0.0626    0.8658 C   0  0  0  0  0  0  0  0  0  0  0  0
   -5.4068    1.8399    2.0045 C   0  0  0  0  0  0  0  0  0  0  0  0
   -3.9037    0.3803   -2.1305 C   0  0  0  0  0  0  0  0  0  0  0  0
   -6.3979    0.3190   -2.3624 C   0  0  0  0  0  0  0  0  0  0  0  0
   -5.1459    2.3836   -2.9263 C   0  0  0  0  0  0  0  0  0  0  0  0
    3.5865   -0.9755   -0.8232 C   0  0  0  0  0  0  0  0  0  0  0  0
   -2.8926    0.6659    0.9498 C   0  0  0  0  0  0  0  0  0  0  0  0
    5.6730    0.2150   -1.4605 C   0  0  0  0  0  0  0  0  0  0  0  0
   -4.2434   -1.3359    1.0207 C   0  0  0  0  0  0  0  0  0  0  0  0
    5.7315   -1.5402    0.2979 C   0  0  0  0  0  0  0  0  0  0  0  0
    5.3665   -2.1729   -2.0777 C   0  0  0  0  0  0  0  0  0  0  0  0
   -1.7391   -0.1077    1.0796 C   0  0  0  0  0  0  0  0  0  0  0  0
    3.0055   -2.3135   -0.4104 C   0  0  0  0  0  0  0  0  0  0  0  0
   -3.0901   -2.1096    1.1506 C   0  0  0  0  0  0  0  0  0  0  0  0
   -1.8379   -1.4956    1.1799 C   0  0  0  0  0  0  0  0  0  0  0  0
    5.4956    1.3155   -0.4563 C   0  0  0  0  0  0  0  0  0  0  0  0
   -0.4072    0.5660    1.1112 C   0  0  0  0  0  0  0  0  0  0  0  0
    1.0084   -3.4313    0.1238 C   0  0  0  0  0  0  0  0  0  0  0  0
   -0.4868   -3.2371    0.2870 C   0  0  0  0  0  0  0  0  0  0  0  0
    4.3704    2.1301   -0.5190 C   0  0  0  0  0  0  0  0  0  0  0  0
    6.4576    1.5109    0.5285 C   0  0  0  0  0  0  0  0  0  0  0  0
    4.2052    3.1531    0.4146 C   0  0  0  0  0  0  0  0  0  0  0  0
    6.2923    2.5340    1.4623 C   0  0  0  0  0  0  0  0  0  0  0  0
    5.1661    3.3550    1.4052 C   0  0  0  0  0  0  0  0  0  0  0  0
  1 20  1  0
  1 25  1  0
  2 22  1  0
  2 26  1  0
  3 13  1  0
  3 15  1  0
  3 17  1  0
  3 18  1  0
  4  6  1  0
  4  7  1  0
  4  8  1  0
  4  9  1  0
  5  6  1  0
  5 10  1  0
  5 11  1  0
  5 12  1  0
  7 14  2  0
  7 16  1  0
 13 20  1  0
 14 19  1  0
 15 23  1  0
 16 21  2  0
 19 22  2  0
 19 24  1  0
 21 22  1  0
 23 27  2  0
 23 28  1  0
 25 26  1  0
 27 29  1  0
 28 30  2  0
 29 31  2  0
 30 31  1  0
M  CHG  1   3   1
M  END
>  <PUBCHEM_COMPOUND_CID>  (1) 
4135

>  <PUBCHEM_CONFORMER_RMSD>  (1) 
1.2

>  <PUBCHEM_CONFORMER_DIVERSEORDER>  (1) 
1
193
14
33
356
80
285
388
149
198
192
164
355
389
9
6
133
402
249
323
225
318
299
83
130
163
94
217
84
218
188
143
382
115
254
385
100
224
282
312
181
297
186
69
48
124
270
322
226
202
371
387
58
157
376
331
221
243
97
327
275
17
95
77
315
205
28
337
125
394
310
67
114
175
359
341
334
99
361
38
68
256
151
207
351
185
288
363
139
183
329
326
398
400
291
127
246
184
333
57
373
386
264
395
189
290
345
141
283
272
105
26
145
273
369
214
223
146
25
343
237
21
384
191
253
70
366
269
172
87
194
314
187
128
200
340
319
281
375
267
152
325
380
383
294
178
358
324
336
129
171
59
101
348
266
365
76
271
255
12
239
121
263
62
350
174
89
320
278
300
54
211
244
401
112
242
353
349
248
53
287
229
309
134
46
219
308
259
110
332
113
286
86
15
372
276
24
397
305
306
173
352
13
258
170
357
347
212
367
153
209
216
328
344
30
321
160
11
203
92
190
303
307
396
335
317
236
182
50
231
126
161
403
167
235
61
122
31
136
338
71
104
79
36
159
74
3
41
140
284
232
108
257
245
302
91
390
34
368
391
370
176
155
166
52
279
222
404
66
210
354
82
392
201
292
213
311
168
98
204
304
73
137
197
230
241
227
234
40
274
102
117
228
208
330
289
4
150
7
316
119
301
42
35
116
106
138
247
90
169
374
10
362
5
342
63
142
238
51
399
75
346
381
123
252
44
179
135
56
295
215
147
313
154
16
43
64
268
18
144
280
81
85
293
27
37
378
199
148
265
78
360
132
296
109
19
339
118
377
65
277
262
23
32
240
195
206
233
47
111
8
72
260
251
39
55
103
96
379
180
20
196
131
298
364
261
177
29
93
162
220
158
107
2
165
88
49
22
60
156
250
120
393
45

>  <PUBCHEM_MMFF94_PARTIAL_CHARGES>  (1) 
32
1 -0.56
13 0.5
14 -0.15
15 0.65
16 -0.15
17 0.5
18 0.5
19 -0.14
2 -0.36
20 0.28
21 -0.15
22 0.08
23 -0.14
24 0.14
25 0.28
26 0.28
27 -0.15
28 -0.15
29 -0.15
3 -1.01
30 -0.15
31 -0.15
4 0.14
51 0.15
54 0.15
63 0.15
7 -0.14
71 0.15
72 0.15
73 0.15
74 0.15
75 0.15

>  <PUBCHEM_EFFECTIVE_ROTOR_COUNT>  (1) 
12

>  <PUBCHEM_PHARMACOPHORE_FEATURES>  (1) 
7
1 1 acceptor
1 2 acceptor
1 3 cation
3 4 8 9 hydrophobe
4 5 10 11 12 hydrophobe
6 23 27 28 29 30 31 rings
6 7 14 16 19 21 22 rings

>  <PUBCHEM_HEAVY_ATOM_COUNT>  (1) 
31

>  <PUBCHEM_ATOM_DEF_STEREO_COUNT>  (1) 
0

>  <PUBCHEM_ATOM_UDEF_STEREO_COUNT>  (1) 
0

>  <PUBCHEM_BOND_DEF_STEREO_COUNT>  (1) 
0

>  <PUBCHEM_BOND_UDEF_STEREO_COUNT>  (1) 
0

>  <PUBCHEM_ISOTOPIC_ATOM_COUNT>  (1) 
0

>  <PUBCHEM_COMPONENT_COUNT>  (1) 
1

>  <PUBCHEM_CACTVS_TAUTO_COUNT>  (1) 
1

>  <PUBCHEM_CONFORMER_ID>  (1) 
0000102700000001

>  <PUBCHEM_MMFF94_ENERGY>  (1) 
127.3838

>  <PUBCHEM_FEATURE_SELFOVERLAP>  (1) 
35.525

>  <PUBCHEM_SHAPE_FINGERPRINT>  (1) 
12422481 6 17458623432352188670
13878862 14 18411130330357866278
13947947 63 15864334823182842789
14556957 393 16629980836032397290
14904385 31 18113614625369865036
15082195 135 18342447115234927439
15183329 4 18410582794277725000
15530120 55 16916777504951574244
15799311 1 13686031881367592046
16067689 134 17696781877145739320
16989378 47 14836111195740477385
1768 210 18341323474812367045
18470217 77 17532385351387125307
20715895 44 18343026610224695634
21033648 29 17821730528701436566
21859007 373 17968085392225491732
23559900 14 18413116069315637888
23569914 2 17900783232827242140
2748736 6 18412541011706769880
2838139 119 18340207384247279679
3459 39 17530679913819688422
4015057 19 18202566189297087464
4173938 306 18127948975941528760
4371632 12 17201344424528920624
437795 171 17834950146430206808
4403749 210 17625250198512884696
44249763 50 18261951942143102551
4918590 3 17060049384793893571
50009960 94 10806552663014006188
58902169 19 17346039952954560398
6371009 1 18342454786657727250
7918774 8 11095880492643607567

>  <PUBCHEM_SHAPE_MULTIPOLES>  (1) 
621.25
20.95
4.04
2.28
6.49
0.67
1.43
-12.99
4.14
5.19
-0.6
-3.22
-0.94
4.34

>  <PUBCHEM_SHAPE_SELFOVERLAP>  (1) 
1267.388

>  <PUBCHEM_SHAPE_VOLUME>  (1) 
363.9

>  <PUBCHEM_COORDINATE_TYPE>  (1) 
2
5
10

$$$$
