41361
     RDKit          3D

 15 16  0  0  0  0  0  0  0  0999 V2000
    0.4380   -2.2931   -0.5584 O   0  0  0  0  0  0  0  0  0  0  0  0
   -3.9293    0.9393    0.6489 O   0  0  0  0  0  0  0  0  0  0  0  0
   -1.1990    2.0322   -0.0252 N   0  0  0  0  0  0  0  0  0  0  0  0
    5.1383   -0.2850    1.1506 N   0  0  0  0  0  0  0  0  0  0  0  0
    0.5974    0.8258   -0.5195 C   0  0  0  0  0  0  0  0  0  0  0  0
    1.9809    0.4599   -0.8857 C   0  0  0  0  0  0  0  0  0  0  0  0
   -0.4812   -0.0666   -0.2644 C   0  0  0  0  0  0  0  0  0  0  0  0
   -1.5963    0.7159    0.0434 C   0  0  0  0  0  0  0  0  0  0  0  0
    2.8922    0.2775    0.3465 C   0  0  0  0  0  0  0  0  0  0  0  0
    0.1253    2.1087   -0.3647 C   0  0  0  0  0  0  0  0  0  0  0  0
   -0.6164   -1.4690   -0.2657 C   0  0  0  0  0  0  0  0  0  0  0  0
    4.3088   -0.1443   -0.0403 C   0  0  0  0  0  0  0  0  0  0  0  0
   -2.8447    0.1637    0.3511 C   0  0  0  0  0  0  0  0  0  0  0  0
   -1.8592   -2.0354    0.0400 C   0  0  0  0  0  0  0  0  0  0  0  0
   -2.9549   -1.2297    0.3434 C   0  0  0  0  0  0  0  0  0  0  0  0
  1 11  1  0
  2 13  1  0
  3  8  1  0
  3 10  1  0
  4 12  1  0
  5  6  1  0
  5  7  1  0
  5 10  2  0
  6  9  1  0
  7  8  2  0
  7 11  1  0
  8 13  1  0
  9 12  1  0
 11 14  2  0
 13 15  2  0
 14 15  1  0
M  END
>  <PUBCHEM_COMPOUND_CID>  (1) 
41361

>  <PUBCHEM_CONFORMER_RMSD>  (1) 
0.6

>  <PUBCHEM_CONFORMER_DIVERSEORDER>  (1) 
2
5
1
9
10
6
8
7
4
3

>  <PUBCHEM_MMFF94_PARTIAL_CHARGES>  (1) 
21
1 -0.53
10 -0.3
11 0.08
12 0.27
13 0.08
14 -0.15
15 -0.15
2 -0.53
20 0.15
21 0.27
24 0.15
25 0.15
26 0.36
27 0.36
28 0.45
29 0.45
3 0.03
4 -0.99
5 -0.18
6 0.18
8 -0.15

>  <PUBCHEM_EFFECTIVE_ROTOR_COUNT>  (1) 
3

>  <PUBCHEM_PHARMACOPHORE_FEATURES>  (1) 
8
1 1 donor
1 2 donor
1 3 cation
1 3 donor
1 4 cation
1 4 donor
5 3 5 7 8 10 rings
6 7 8 11 13 14 15 rings

>  <PUBCHEM_HEAVY_ATOM_COUNT>  (1) 
15

>  <PUBCHEM_ATOM_DEF_STEREO_COUNT>  (1) 
0

>  <PUBCHEM_ATOM_UDEF_STEREO_COUNT>  (1) 
0

>  <PUBCHEM_BOND_DEF_STEREO_COUNT>  (1) 
0

>  <PUBCHEM_BOND_UDEF_STEREO_COUNT>  (1) 
0

>  <PUBCHEM_ISOTOPIC_ATOM_COUNT>  (1) 
0

>  <PUBCHEM_COMPONENT_COUNT>  (1) 
1

>  <PUBCHEM_CACTVS_TAUTO_COUNT>  (1) 
32

>  <PUBCHEM_CONFORMER_ID>  (1) 
0000A19100000002

>  <PUBCHEM_MMFF94_ENERGY>  (1) 
18.8975

>  <PUBCHEM_FEATURE_SELFOVERLAP>  (1) 
40.69

>  <PUBCHEM_SHAPE_FINGERPRINT>  (1) 
10062212 137 18334858359120607307
11132069 177 18413113844158425342
12119455 92 17060337401068729652
12251169 10 18411698790453764376
12382932 28 18412834589685120443
124424 183 18040433317541497255
13140716 1 18339370789427540025
13380535 76 18411144619413567631
13862211 1 18410291449872167599
14420673 8 17977379435773439394
15209294 21 17845385353432265225
15375462 189 17967527987164305952
15536298 74 18200319805743351150
16945 1 18339662082720438797
17804303 29 18341336664625401276
1813 80 17168148889108490766
193761 8 17761502382993712405
19422 9 17968383471329263118
200 152 15285633279726244200
20510252 161 18200595778845908680
20645476 183 17534368874094104270
20871998 184 18342455950245633214
21501502 16 18123196959114915069
21637258 2 15792014536392427657
21650355 55 18410848884860656120
22182313 1 18046920272973840917
22959321 94 18334007303150970826
2297311 6 18342751710858654700
232386 152 18336271257416142348
2334 1 17979366570552507005
23366157 5 17826234283206774676
23402539 116 18343292665730769237
23419403 2 16267380765025715807
23463225 33 18334581260688898846
23552423 10 17542233805585322933
23559900 14 18200050498920459740
2748010 2 17976555909610012725
4072396 5 18335699395500663489
43471831 8 18262799562597623986
465052 167 17823716320295983987
474 4 13829838154796200610
53655031 270 18333452019186697634
53812653 166 18272094876847963073
58807428 26 18337963289742164907
90316 7 18333728005369835900

>  <PUBCHEM_SHAPE_MULTIPOLES>  (1) 
286.99
6.83
2.12
0.82
7.75
0.19
-0.03
0.89
-2.62
-1.17
0.24
0.41
0.02
-0.32

>  <PUBCHEM_SHAPE_SELFOVERLAP>  (1) 
614.526

>  <PUBCHEM_SHAPE_VOLUME>  (1) 
160.6

>  <PUBCHEM_COORDINATE_TYPE>  (1) 
2
5
10

$$$$
