41378
     RDKit          3D

 16 17  0  0  0  0  0  0  0  0999 V2000
    1.5382    3.7491    0.3927 N   0  0  0  0  0  0  0  0  0  0  0  0
   -0.0576    0.5812   -0.1807 C   0  0  0  0  0  0  0  0  0  0  0  0
   -1.4249    0.1000   -0.0592 C   0  0  0  0  0  0  0  0  0  0  0  0
    1.1370   -0.3111   -0.0468 C   0  0  0  0  0  0  0  0  0  0  0  0
    0.1528    1.9081   -0.4317 C   0  0  0  0  0  0  0  0  0  0  0  0
   -2.0512    0.0864    1.1870 C   0  0  0  0  0  0  0  0  0  0  0  0
    1.6305   -0.9189   -1.1762 C   0  0  0  0  0  0  0  0  0  0  0  0
   -2.1098   -0.3475   -1.1889 C   0  0  0  0  0  0  0  0  0  0  0  0
    1.6891   -0.4840    1.1995 C   0  0  0  0  0  0  0  0  0  0  0  0
    1.4514    2.6547   -0.5712 C   0  0  0  0  0  0  0  0  0  0  0  0
   -3.3627   -0.3745    1.3036 C   0  0  0  0  0  0  0  0  0  0  0  0
    2.7437   -1.7501   -1.0518 C   0  0  0  0  0  0  0  0  0  0  0  0
   -3.4212   -0.8084   -1.0725 C   0  0  0  0  0  0  0  0  0  0  0  0
    2.8025   -1.3151    1.3241 C   0  0  0  0  0  0  0  0  0  0  0  0
   -4.0475   -0.8219    0.1740 C   0  0  0  0  0  0  0  0  0  0  0  0
    3.3298   -1.9480    0.1985 C   0  0  0  0  0  0  0  0  0  0  0  0
  1 10  1  0
  2  3  1  0
  2  4  1  0
  2  5  2  3
  3  6  2  0
  3  8  1  0
  4  7  2  0
  4  9  1  0
  5 10  1  0
  6 11  1  0
  7 12  1  0
  8 13  2  0
  9 14  2  0
 11 15  2  0
 12 16  2  0
 13 15  1  0
 14 16  1  0
M  END
>  <PUBCHEM_COMPOUND_CID>  (1) 
41378

>  <PUBCHEM_CONFORMER_RMSD>  (1) 
0.6

>  <PUBCHEM_CONFORMER_DIVERSEORDER>  (1) 
1
4
2
3
6
5

>  <PUBCHEM_MMFF94_PARTIAL_CHARGES>  (1) 
29
1 -0.99
10 0.41
11 -0.15
12 -0.15
13 -0.15
14 -0.15
15 -0.15
16 -0.15
17 0.15
18 0.15
19 0.15
2 -0.06
20 0.15
21 0.15
24 0.15
25 0.15
26 0.15
27 0.15
28 0.15
29 0.15
3 0.03
30 0.36
31 0.36
4 0.03
5 -0.29
6 -0.15
7 -0.15
8 -0.15
9 -0.15

>  <PUBCHEM_EFFECTIVE_ROTOR_COUNT>  (1) 
3

>  <PUBCHEM_PHARMACOPHORE_FEATURES>  (1) 
4
1 1 cation
1 1 donor
6 3 6 8 11 13 15 rings
6 4 7 9 12 14 16 rings

>  <PUBCHEM_HEAVY_ATOM_COUNT>  (1) 
16

>  <PUBCHEM_ATOM_DEF_STEREO_COUNT>  (1) 
0

>  <PUBCHEM_ATOM_UDEF_STEREO_COUNT>  (1) 
0

>  <PUBCHEM_BOND_DEF_STEREO_COUNT>  (1) 
0

>  <PUBCHEM_BOND_UDEF_STEREO_COUNT>  (1) 
0

>  <PUBCHEM_ISOTOPIC_ATOM_COUNT>  (1) 
0

>  <PUBCHEM_COMPONENT_COUNT>  (1) 
1

>  <PUBCHEM_CACTVS_TAUTO_COUNT>  (1) 
1

>  <PUBCHEM_CONFORMER_ID>  (1) 
0000A1A200000001

>  <PUBCHEM_MMFF94_ENERGY>  (1) 
50.8909

>  <PUBCHEM_FEATURE_SELFOVERLAP>  (1) 
20.297

>  <PUBCHEM_SHAPE_FINGERPRINT>  (1) 
11578080 2 17313647275238146284
12251169 10 16200143275166234979
12326174 3 18263082269960533388
12363563 72 18262795168555767386
12553582 1 18337963280957109535
12644460 14 18269011927900733945
12707595 3 18260831483848898235
12759256 9 18339913917737391188
13296908 3 18335413530735125383
13681431 1 18407762542762825036
14181834 199 18264761228447707525
14787075 74 17968099763534080658
15501101 241 17703781488563615114
15906896 17 17540819390976285469
16945 1 18337953514401665660
1813 80 18271538493846900470
200 152 17531534170225736898
20097449 115 18335421227327186252
20339313 130 18412270518755738878
20361792 2 18409448046743111215
20369508 70 18187074066630986051
20559304 39 17632582694679418209
20645477 70 18263636415853568351
20671657 53 18261390027191929435
20711985 327 18412824659768211358
20711985 344 17905039257833428320
21061003 4 18334577902130072187
21296965 67 18335981965314096527
21524375 3 17690560105805117132
21731516 1 18335425621078593599
22112679 90 18123777286537742220
2255824 54 18341056318882282758
23402539 116 18189621536478394102
23419403 2 15005489806800581176
23557571 272 18122617259268697356
2748010 2 18195225768413919932
31174 14 18261401104134131769
3286 77 18040996259010836259
6049 1 17748826345644826909
6138700 20 18337399352822121220
6442390 28 16902724342068578368
7364860 26 18340491187111998076
74978 22 18335987544956960795
7615 1 17917715742634366273
81228 2 17905322927565138704
81539 233 17972036100517831620

>  <PUBCHEM_SHAPE_MULTIPOLES>  (1) 
324.29
6.15
2.7
1.38
3.72
3.64
-0.11
-4.1
-0.53
-2.86
0.1
0.12
-0.4
-0.11

>  <PUBCHEM_SHAPE_SELFOVERLAP>  (1) 
692.724

>  <PUBCHEM_SHAPE_VOLUME>  (1) 
178.3

>  <PUBCHEM_COORDINATE_TYPE>  (1) 
2
5
10

$$$$
