41376
     RDKit          3D

 22 23  0  0  0  0  0  0  0  0999 V2000
    3.2088    0.7388   -0.0271 S   0  0  0  0  0  0  0  0  0  0  0  0
    3.1886   -2.4119   -0.3097 N   0  0  0  0  0  0  0  0  0  0  0  0
   -3.9215    0.1265    0.5594 N   0  0  0  0  0  0  0  0  0  0  0  0
    0.8787   -2.5054    0.1200 N   0  0  0  0  0  0  0  0  0  0  0  0
    0.1260    4.0137    1.0027 N   0  0  0  0  0  0  0  0  0  0  0  0
   -0.0432    1.8124    0.7634 N   0  0  0  0  0  0  0  0  0  0  0  0
   -4.9852   -0.3638   -1.3274 N   0  0  0  0  0  0  0  0  0  0  0  0
    2.5002   -3.5686    1.5289 N   0  0  0  0  0  0  0  0  0  0  0  0
   -1.5417   -2.5731    0.4247 C   0  0  0  0  0  0  0  0  0  0  0  0
   -1.6983   -1.0499    0.3444 C   0  0  0  0  0  0  0  0  0  0  0  0
   -0.1871   -2.9896    0.9874 C   0  0  0  0  0  0  0  0  0  0  0  0
   -3.0667   -0.6619   -0.1581 C   0  0  0  0  0  0  0  0  0  0  0  0
    3.1072   -1.6131   -1.5092 C   0  0  0  0  0  0  0  0  0  0  0  0
    3.8752   -0.3058   -1.3592 C   0  0  0  0  0  0  0  0  0  0  0  0
    1.7557    1.3704   -0.8957 C   0  0  0  0  0  0  0  0  0  0  0  0
    0.9626    2.2977   -0.0343 C   0  0  0  0  0  0  0  0  0  0  0  0
    1.0863    3.6609    0.0968 C   0  0  0  0  0  0  0  0  0  0  0  0
    2.0991   -2.8188    0.4426 C   0  0  0  0  0  0  0  0  0  0  0  0
   -3.7454   -0.9522   -1.3182 C   0  0  0  0  0  0  0  0  0  0  0  0
    1.9869    4.6448   -0.5237 C   0  0  0  0  0  0  0  0  0  0  0  0
   -5.0599    0.2777   -0.1825 C   0  0  0  0  0  0  0  0  0  0  0  0
   -0.5262    2.8712    1.3747 C   0  0  0  0  0  0  0  0  0  0  0  0
  1 14  1  0
  1 15  1  0
  2 13  1  0
  2 18  1  0
  3 12  1  0
  3 21  1  0
  4 11  1  0
  4 18  2  0
  5 17  1  0
  5 22  1  0
  6 16  1  0
  6 22  2  0
  7 19  1  0
  7 21  2  0
  8 18  1  0
  9 10  1  0
  9 11  1  0
 10 12  1  0
 12 19  2  0
 13 14  1  0
 15 16  1  0
 16 17  2  0
 17 20  1  0
M  END
>  <PUBCHEM_COMPOUND_CID>  (1) 
41376

>  <PUBCHEM_CONFORMER_RMSD>  (1) 
1.2

>  <PUBCHEM_CONFORMER_DIVERSEORDER>  (1) 
1
15
172
83
95
165
91
164
228
176
291
305
192
294
10
23
243
52
268
112
233
82
36
191
160
143
121
300
16
90
133
245
100
135
109
150
130
216
162
124
244
253
281
301
75
65
114
210
257
5
161
53
148
63
289
120
248
117
178
101
49
187
166
29
208
78
27
297
170
247
293
80
209
171
118
85
212
18
304
60
239
221
31
303
108
278
184
74
196
242
246
296
62
4
88
201
255
269
67
96
55
285
144
69
35
202
226
61
19
28
229
17
44
157
215
156
41
21
270
113
70
188
30
86
115
45
299
126
99
134
127
97
259
25
190
51
64
119
307
145
273
249
183
175
154
58
47
14
223
98
272
203
179
258
149
42
107
234
173
79
169
271
3
6
276
13
110
218
254
146
199
50
32
77
211
159
237
54
252
11
235
7
224
128
123
189
279
220
84
102
9
306
227
152
116
34
92
298
26
103
158
240
138
33
81
260
48
231
38
163
131
37
280
105
72
194
94
136
222
20
286
261
140
265
193
46
214
264
302
153
207
12
39
205
40
68
56
168
177
206
197
167
282
174
147
251
198
139
267
59
142
151
24
288
8
230
195
155
73
284
22
225
129
232
275
241
290
87
43
186
217
141
283
263
93
89
250
277
132
213
57
71
137
2
181
236
182
122
292
287
185
76
66
262
204
125
238
180
111
274
219
295
200
256
266
106
104

>  <PUBCHEM_MMFF94_PARTIAL_CHARGES>  (1) 
29
1 -0.46
10 0.18
11 0.25
12 -0.33
13 0.37
14 0.23
15 0.41
16 0.05
17 -0.33
18 0.55
19 0.08
2 -0.82
20 0.18
21 0.04
22 0.04
3 0.03
35 0.4
36 0.27
37 0.15
38 0.27
4 -0.7
42 0.15
43 0.15
44 0.4
45 0.4
5 0.03
6 -0.57
7 -0.57
8 -0.85

>  <PUBCHEM_EFFECTIVE_ROTOR_COUNT>  (1) 
10

>  <PUBCHEM_PHARMACOPHORE_FEATURES>  (1) 
9
1 2 donor
1 3 donor
1 5 donor
1 8 donor
3 3 7 21 cation
3 5 6 22 cation
4 2 4 8 18 cation
5 3 7 12 19 21 rings
5 5 6 16 17 22 rings

>  <PUBCHEM_HEAVY_ATOM_COUNT>  (1) 
22

>  <PUBCHEM_ATOM_DEF_STEREO_COUNT>  (1) 
0

>  <PUBCHEM_ATOM_UDEF_STEREO_COUNT>  (1) 
0

>  <PUBCHEM_BOND_DEF_STEREO_COUNT>  (1) 
0

>  <PUBCHEM_BOND_UDEF_STEREO_COUNT>  (1) 
0

>  <PUBCHEM_ISOTOPIC_ATOM_COUNT>  (1) 
0

>  <PUBCHEM_COMPONENT_COUNT>  (1) 
1

>  <PUBCHEM_CACTVS_TAUTO_COUNT>  (1) 
12

>  <PUBCHEM_CONFORMER_ID>  (1) 
0000A1A000000001

>  <PUBCHEM_MMFF94_ENERGY>  (1) 
22.6433

>  <PUBCHEM_FEATURE_SELFOVERLAP>  (1) 
45.729

>  <PUBCHEM_SHAPE_FINGERPRINT>  (1) 
10871710 139 17979375074170826763
12553582 1 18268454419713217440
12788726 201 18197229048508284158
14464042 87 18198065776946627587
14931854 50 18337399252961259254
15210252 30 18334018285108371508
17093844 170 18412541037835562112
20621476 13 18268149945033636388
21344244 78 17754993346877168795
21860390 5 18343299305581378150
238 59 17624407975724049430
3014063 31 18339080363385381037
3524813 1 18113615677246111407
54672768 99 18048314736711169380
6443956 14 18410856551176787140
653340 110 17979624646731758882
7164475 11 17907294356135167198
7471813 234 18192699047628066718
9862522 239 16328797479262881204

>  <PUBCHEM_SHAPE_MULTIPOLES>  (1) 
421.73
7.87
6.1
1.32
9.99
2.65
0.12
-0.43
3.63
-6.11
-2.15
-0.11
-0.3
-0.01

>  <PUBCHEM_SHAPE_SELFOVERLAP>  (1) 
845.874

>  <PUBCHEM_SHAPE_VOLUME>  (1) 
249.7

>  <PUBCHEM_COORDINATE_TYPE>  (1) 
2
5
10

$$$$
