41382
     RDKit          3D

 20 21  0  0  0  0  0  0  0  0999 V2000
    3.7056    0.2823    0.5746 S   0  0  0  0  0  0  0  0  0  0  0  0
   -1.0681   -1.1452   -0.1158 O   0  0  0  0  0  0  0  0  0  0  0  0
    0.8750    0.8729    0.4730 O   0  0  0  0  0  0  0  0  0  0  0  0
    0.8526    1.5093   -1.7534 O   0  0  0  0  0  0  0  0  0  0  0  0
    2.8662    0.8426   -0.8090 N   0  0  0  0  0  0  0  0  0  0  0  0
    2.9825   -1.1683    0.9872 N   0  0  0  0  0  0  0  0  0  0  0  0
   -2.3317   -1.7551   -0.5082 C   0  0  0  0  0  0  0  0  0  0  0  0
   -3.4920   -0.8631   -0.0077 C   0  0  0  0  0  0  0  0  0  0  0  0
   -2.7487    0.3797    0.2988 C   0  0  0  0  0  0  0  0  0  0  0  0
   -1.3865    0.1387    0.2403 C   0  0  0  0  0  0  0  0  0  0  0  0
   -2.3336   -1.8789   -2.0372 C   0  0  0  0  0  0  0  0  0  0  0  0
   -2.3896   -3.1453    0.1268 C   0  0  0  0  0  0  0  0  0  0  0  0
   -3.2340    1.6259    0.6522 C   0  0  0  0  0  0  0  0  0  0  0  0
   -0.4576    1.1200    0.5292 C   0  0  0  0  0  0  0  0  0  0  0  0
   -2.3133    2.6366    0.9401 C   0  0  0  0  0  0  0  0  0  0  0  0
   -0.9331    2.3847    0.8797 C   0  0  0  0  0  0  0  0  0  0  0  0
    1.4928    1.1061   -0.7824 C   0  0  0  0  0  0  0  0  0  0  0  0
    3.6607    1.0296   -2.0145 C   0  0  0  0  0  0  0  0  0  0  0  0
    2.9922   -2.2589    0.0070 C   0  0  0  0  0  0  0  0  0  0  0  0
    3.2606   -1.7136    2.3193 C   0  0  0  0  0  0  0  0  0  0  0  0
  1  5  1  0
  1  6  1  0
  2  7  1  0
  2 10  1  0
  3 14  1  0
  3 17  1  0
  4 17  2  0
  5 17  1  0
  5 18  1  0
  6 19  1  0
  6 20  1  0
  7  8  1  0
  7 11  1  0
  7 12  1  0
  8  9  1  0
  9 10  2  0
  9 13  1  0
 10 14  1  0
 13 15  2  0
 14 16  2  0
 15 16  1  0
M  END
>  <PUBCHEM_COMPOUND_CID>  (1) 
41382

>  <PUBCHEM_CONFORMER_RMSD>  (1) 
0.8

>  <PUBCHEM_CONFORMER_DIVERSEORDER>  (1) 
1
114
77
43
102
84
79
119
115
118
125
81
101
73
45
123
78
111
83
93
88
82
126
62
92
67
50
87
112
95
120
108
58
49
21
94
18
66
113
116
16
17
51
96
44
35
63
107
61
31
41
124
65
29
64
30
19
11
72
109
46
34
26
97
42
100
106
74
23
38
20
15
56
33
4
28
32
40
39
24
121
9
76
54
91
69
57
7
53
52
68
71
13
89
60
75
37
90
22
110
122
25
86
10
99
36
70
85
80
59
103
8
55
5
48
3
14
6
47
117
2
105
98
12
27
104

>  <PUBCHEM_MMFF94_PARTIAL_CHARGES>  (1) 
21
1 0.03
10 0.08
13 -0.15
14 0.08
15 -0.15
16 -0.15
17 0.78
18 0.3
19 0.27
2 -0.36
20 0.27
29 0.15
3 -0.23
30 0.15
31 0.15
4 -0.57
5 -0.37
6 -0.56
7 0.28
8 0.14
9 -0.14

>  <PUBCHEM_EFFECTIVE_ROTOR_COUNT>  (1) 
5.6

>  <PUBCHEM_PHARMACOPHORE_FEATURES>  (1) 
5
1 2 acceptor
1 4 acceptor
3 7 11 12 hydrophobe
5 2 7 8 9 10 rings
6 9 10 13 14 15 16 rings

>  <PUBCHEM_HEAVY_ATOM_COUNT>  (1) 
20

>  <PUBCHEM_ATOM_DEF_STEREO_COUNT>  (1) 
0

>  <PUBCHEM_ATOM_UDEF_STEREO_COUNT>  (1) 
0

>  <PUBCHEM_BOND_DEF_STEREO_COUNT>  (1) 
0

>  <PUBCHEM_BOND_UDEF_STEREO_COUNT>  (1) 
0

>  <PUBCHEM_ISOTOPIC_ATOM_COUNT>  (1) 
0

>  <PUBCHEM_COMPONENT_COUNT>  (1) 
1

>  <PUBCHEM_CACTVS_TAUTO_COUNT>  (1) 
1

>  <PUBCHEM_CONFORMER_ID>  (1) 
0000A1A600000001

>  <PUBCHEM_MMFF94_ENERGY>  (1) 
60.5776

>  <PUBCHEM_FEATURE_SELFOVERLAP>  (1) 
25.472

>  <PUBCHEM_SHAPE_FINGERPRINT>  (1) 
10062212 137 18409441475611953435
10616163 171 18341618130880587910
114674 6 16605752358760209067
11578080 2 18044906117690447892
11725454 13 16268235909952138896
12403259 327 17415820428404667594
12553582 1 18198907109363688903
12633257 1 18057868174596767810
12788726 201 18341060695860067827
13083527 12 16625422454371354831
13140716 1 18057328507703457033
13583140 156 16915632862324032946
14081887 123 18059277838566053232
14178342 30 18410848876476294200
14251757 17 16953337305904204542
14787075 74 17693658525683508356
15669948 3 18342746220978015533
16752209 62 18272373040420660669
16945 1 18273221902136782281
1813 80 17533785897399362130
20442098 301 18342736287098357482
20645476 183 18188508937900391053
20645477 70 16588021338340301016
21452121 199 17698429272160080305
23184049 29 18128815429067616945
232386 152 18343014510494492890
23419403 2 17403675364429213512
23557571 272 17704070715665859114
23559900 14 17917160403310499580
23598288 3 18336560356170806427
23598291 2 18188220796875889748
23598294 1 18272381883441779625
23728640 28 18342452591592088563
2748010 2 17912388454105141869
58807428 26 17910398286381915425
603831 33 18336834194537668972
6992083 37 18189619345427823177
7097593 13 18336825278253913432
77492 1 18260554411203162040
81228 2 18130522910854726697
9709674 26 18273498948886055846

>  <PUBCHEM_SHAPE_MULTIPOLES>  (1) 
387.87
7.04
3.2
1.71
4.13
0.93
0.37
1.57
-0.39
-2.01
-0.37
1.58
0.23
-2.43

>  <PUBCHEM_SHAPE_SELFOVERLAP>  (1) 
794.458

>  <PUBCHEM_SHAPE_VOLUME>  (1) 
230

>  <PUBCHEM_COORDINATE_TYPE>  (1) 
2
5
10

$$$$
