41389
     RDKit          3D

 16 17  0  0  0  0  0  0  0  0999 V2000
    4.9718    1.1765    0.0061 Cl  0  0  0  0  0  0  0  0  0  0  0  0
    0.9001   -1.0510   -2.0594 O   0  0  0  0  0  0  0  0  0  0  0  0
   -0.6511   -2.2653    0.6732 O   0  0  0  0  0  0  0  0  0  0  0  0
    0.8354   -0.5041    0.2743 C   0  0  0  0  0  0  0  0  0  0  0  0
   -1.7345   -0.2528    0.1762 C   0  0  0  0  0  0  0  0  0  0  0  0
   -0.5457   -1.0632    0.3874 C   0  0  0  0  0  0  0  0  0  0  0  0
    1.4797   -0.5302   -0.9410 C   0  0  0  0  0  0  0  0  0  0  0  0
    1.4102    0.0186    1.4108 C   0  0  0  0  0  0  0  0  0  0  0  0
   -1.6091    1.0987   -0.1455 C   0  0  0  0  0  0  0  0  0  0  0  0
   -3.0003   -0.8269    0.2950 C   0  0  0  0  0  0  0  0  0  0  0  0
    2.7692   -0.0051   -1.0256 C   0  0  0  0  0  0  0  0  0  0  0  0
    2.6997    0.5439    1.3262 C   0  0  0  0  0  0  0  0  0  0  0  0
    3.3793    0.5319    0.1080 C   0  0  0  0  0  0  0  0  0  0  0  0
   -2.7493    1.8762   -0.3484 C   0  0  0  0  0  0  0  0  0  0  0  0
   -4.1405   -0.0493    0.0921 C   0  0  0  0  0  0  0  0  0  0  0  0
   -4.0149    1.3022   -0.2296 C   0  0  0  0  0  0  0  0  0  0  0  0
  1 13  1  0
  2  7  1  0
  3  6  2  0
  4  6  1  0
  4  7  2  0
  4  8  1  0
  5  6  1  0
  5  9  2  0
  5 10  1  0
  7 11  1  0
  8 12  2  0
  9 14  1  0
 10 15  2  0
 11 13  2  0
 12 13  1  0
 14 16  2  0
 15 16  1  0
M  END
>  <PUBCHEM_COMPOUND_CID>  (1) 
41389

>  <PUBCHEM_CONFORMER_RMSD>  (1) 
0.6

>  <PUBCHEM_CONFORMER_DIVERSEORDER>  (1) 
1
2

>  <PUBCHEM_MMFF94_PARTIAL_CHARGES>  (1) 
25
1 -0.18
10 -0.15
11 -0.15
12 -0.15
13 0.18
14 -0.15
15 -0.15
16 -0.15
17 0.15
18 0.15
19 0.15
2 -0.53
20 0.15
21 0.15
22 0.15
23 0.15
24 0.15
25 0.45
3 -0.57
4 0.09
5 0.09
6 0.4
7 0.08
8 -0.15
9 -0.15

>  <PUBCHEM_EFFECTIVE_ROTOR_COUNT>  (1) 
2

>  <PUBCHEM_PHARMACOPHORE_FEATURES>  (1) 
4
1 2 donor
1 3 acceptor
6 4 7 8 11 12 13 rings
6 5 9 10 14 15 16 rings

>  <PUBCHEM_HEAVY_ATOM_COUNT>  (1) 
16

>  <PUBCHEM_ATOM_DEF_STEREO_COUNT>  (1) 
0

>  <PUBCHEM_ATOM_UDEF_STEREO_COUNT>  (1) 
0

>  <PUBCHEM_BOND_DEF_STEREO_COUNT>  (1) 
0

>  <PUBCHEM_BOND_UDEF_STEREO_COUNT>  (1) 
0

>  <PUBCHEM_ISOTOPIC_ATOM_COUNT>  (1) 
0

>  <PUBCHEM_COMPONENT_COUNT>  (1) 
1

>  <PUBCHEM_CACTVS_TAUTO_COUNT>  (1) 
5

>  <PUBCHEM_CONFORMER_ID>  (1) 
0000A1AD00000001

>  <PUBCHEM_MMFF94_ENERGY>  (1) 
50.85

>  <PUBCHEM_FEATURE_SELFOVERLAP>  (1) 
20.297

>  <PUBCHEM_SHAPE_FINGERPRINT>  (1) 
10498660 4 18336263427807494653
10646746 165 18335138674471848868
11031198 65 17561365071437432532
11132069 177 18040156184729471141
12119455 92 17917988386978715054
12236239 1 17167859789731035315
12251169 10 14707213222791322369
12730499 353 17917717885680648151
12788726 201 16665458993012864618
13538477 17 17531250620505321027
13764800 53 18260841362684902193
13965767 371 17244140419095887989
14739800 52 18190165979687269528
14911166 2 16487262105798156976
15209294 21 17603861247960502440
15219456 202 18202568349665461550
15375462 478 16226043371064455701
15775835 57 17822010891228993233
16945 1 18338225080698823067
17357779 13 16340291576103431575
17357990 137 17168726161933669543
18186145 218 18201731599915727499
19862831 5 14405183975642495352
200 152 14692577623804133282
20344682 1 18060140972120512173
20510252 161 18410578370719580425
20645477 56 18336549408188528848
20645477 70 17274554152439967838
21119208 17 14117520947564679568
21713013 43 15553864673045248981
23114952 82 17773324434714934740
231179 274 18201999941341408936
23227448 37 18192992853576917796
23402539 116 18410285947491131726
23402655 69 16773801359455942945
23557571 272 18271250525032612231
23559900 14 18412549782599934166
25 1 17346602962800133478
26918003 58 13479132393581970541
3060560 45 16773789290724448212
3472631 163 18334574616675802773
474 4 16589160518222966716
7364860 26 18050281475493226731
77492 1 17095242544338009251

>  <PUBCHEM_SHAPE_MULTIPOLES>  (1) 
319.4
8.01
1.59
1.22
1.3
0.06
0.24
-3.87
-0.05
-0.92
0
0.9
0.24
0.5

>  <PUBCHEM_SHAPE_SELFOVERLAP>  (1) 
687.965

>  <PUBCHEM_SHAPE_VOLUME>  (1) 
177.3

>  <PUBCHEM_COORDINATE_TYPE>  (1) 
2
5
10

$$$$
