41401
     RDKit          3D

  8  7  0  0  0  0  0  0  0  0999 V2000
   -2.6040   -0.0068   -1.1648 O   0  0  0  0  0  0  0  0  0  0  0  0
   -2.5542   -0.1998    1.1671 O   0  0  0  0  0  0  0  0  0  0  0  0
    2.8657    0.8966    0.0686 O   0  0  0  0  0  0  0  0  0  0  0  0
    2.1690   -1.2693   -0.1020 O   0  0  0  0  0  0  0  0  0  0  0  0
   -1.8963    0.3324    0.0230 C   0  0  0  0  0  0  0  0  0  0  0  0
   -0.5031   -0.2215   -0.0216 C   0  0  0  0  0  0  0  0  0  0  0  0
    0.5935    0.5458    0.0388 C   0  0  0  0  0  0  0  0  0  0  0  0
    1.9293   -0.0774   -0.0090 C   0  0  0  0  0  0  0  0  0  0  0  0
  1  5  1  0
  2  5  1  0
  3  8  1  0
  4  8  2  0
  5  6  1  0
  6  7  2  0
  7  8  1  0
M  END
>  <PUBCHEM_COMPOUND_CID>  (1) 
41401

>  <PUBCHEM_CONFORMER_RMSD>  (1) 
0.4

>  <PUBCHEM_CONFORMER_DIVERSEORDER>  (1) 
1
2

>  <PUBCHEM_MMFF94_PARTIAL_CHARGES>  (1) 
13
1 -0.68
10 0.15
11 0.15
12 0.4
13 0.4
14 0.5
2 -0.68
3 -0.65
4 -0.57
5 0.7
6 -0.29
7 -0.14
8 0.71

>  <PUBCHEM_EFFECTIVE_ROTOR_COUNT>  (1) 
2

>  <PUBCHEM_PHARMACOPHORE_FEATURES>  (1) 
7
1 1 acceptor
1 1 donor
1 2 acceptor
1 2 donor
1 3 acceptor
1 4 acceptor
3 3 4 8 anion

>  <PUBCHEM_HEAVY_ATOM_COUNT>  (1) 
8

>  <PUBCHEM_ATOM_DEF_STEREO_COUNT>  (1) 
0

>  <PUBCHEM_ATOM_UDEF_STEREO_COUNT>  (1) 
0

>  <PUBCHEM_BOND_DEF_STEREO_COUNT>  (1) 
0

>  <PUBCHEM_BOND_UDEF_STEREO_COUNT>  (1) 
1

>  <PUBCHEM_ISOTOPIC_ATOM_COUNT>  (1) 
0

>  <PUBCHEM_COMPONENT_COUNT>  (1) 
1

>  <PUBCHEM_CACTVS_TAUTO_COUNT>  (1) 
1

>  <PUBCHEM_CONFORMER_ID>  (1) 
0000A1B900000001

>  <PUBCHEM_MMFF94_ENERGY>  (1) 
3.9447

>  <PUBCHEM_FEATURE_SELFOVERLAP>  (1) 
35.662

>  <PUBCHEM_SHAPE_FINGERPRINT>  (1) 
10857977 72 17240767336443512777
12932741 1 17821729416246780447
12932764 1 17775567528640473208
14390081 3 17095514080897560181
29004967 10 18260271849646925392
3248919 1 18113335301680541204
5460574 1 9079118855816962216

>  <PUBCHEM_SHAPE_MULTIPOLES>  (1) 
141.16
4.45
0.89
0.85
0.05
0.1
0
-0.07
-0.02
-0.59
0
0.73
0.03
0.06

>  <PUBCHEM_SHAPE_SELFOVERLAP>  (1) 
265.673

>  <PUBCHEM_SHAPE_VOLUME>  (1) 
86.7

>  <PUBCHEM_COORDINATE_TYPE>  (1) 
2
5
10

$$$$
