41406
     RDKit          3D

  9  8  0  0  0  0  0  0  0  0999 V2000
   -3.4150   -0.9713   -0.0165 O   0  0  0  0  0  0  0  0  0  0  0  0
    1.8751   -0.0467    0.0116 C   0  0  0  0  0  0  0  0  0  0  0  0
    0.5851    0.8135    0.0944 C   0  0  0  0  0  0  0  0  0  0  0  0
   -0.7387    0.0407   -0.0063 C   0  0  0  0  0  0  0  0  0  0  0  0
    1.9495   -1.0492    1.1752 C   0  0  0  0  0  0  0  0  0  0  0  0
    3.1355    0.8335    0.0193 C   0  0  0  0  0  0  0  0  0  0  0  0
    1.8399   -0.8372   -1.3115 C   0  0  0  0  0  0  0  0  0  0  0  0
   -1.9522    0.9696    0.0257 C   0  0  0  0  0  0  0  0  0  0  0  0
   -3.2792    0.2471    0.0080 C   0  0  0  0  0  0  0  0  0  0  0  0
  1  9  2  0
  2  3  1  0
  2  5  1  0
  2  6  1  0
  2  7  1  0
  3  4  1  0
  4  8  1  0
  8  9  1  0
M  END
>  <PUBCHEM_COMPOUND_CID>  (1) 
41406

>  <PUBCHEM_CONFORMER_RMSD>  (1) 
0.6

>  <PUBCHEM_CONFORMER_DIVERSEORDER>  (1) 
1
5
6
4
3
2

>  <PUBCHEM_MMFF94_PARTIAL_CHARGES>  (1) 
4
1 -0.57
25 0.06
8 0.06
9 0.45

>  <PUBCHEM_EFFECTIVE_ROTOR_COUNT>  (1) 
4

>  <PUBCHEM_PHARMACOPHORE_FEATURES>  (1) 
3
1 1 acceptor
4 2 3 4 8 hydrophobe
4 2 5 6 7 hydrophobe

>  <PUBCHEM_HEAVY_ATOM_COUNT>  (1) 
9

>  <PUBCHEM_ATOM_DEF_STEREO_COUNT>  (1) 
0

>  <PUBCHEM_ATOM_UDEF_STEREO_COUNT>  (1) 
0

>  <PUBCHEM_BOND_DEF_STEREO_COUNT>  (1) 
0

>  <PUBCHEM_BOND_UDEF_STEREO_COUNT>  (1) 
0

>  <PUBCHEM_ISOTOPIC_ATOM_COUNT>  (1) 
0

>  <PUBCHEM_COMPONENT_COUNT>  (1) 
1

>  <PUBCHEM_CACTVS_TAUTO_COUNT>  (1) 
2

>  <PUBCHEM_CONFORMER_ID>  (1) 
0000A1BE00000001

>  <PUBCHEM_MMFF94_ENERGY>  (1) 
14.1948

>  <PUBCHEM_FEATURE_SELFOVERLAP>  (1) 
15.26

>  <PUBCHEM_SHAPE_FINGERPRINT>  (1) 
10857977 72 17989198248808829129
11062470 55 17967531285425005717
12932764 1 18114469946367710293
14325111 11 18408885118375211569
170605 34 18411702127522053548
20201158 50 18272934929453999327
20645477 70 18338229363192907767
23235685 24 17703785937985976164
29004967 10 17632293445521874736
3248919 1 17988074492027487009
8030462 33 17676778565011064585

>  <PUBCHEM_SHAPE_MULTIPOLES>  (1) 
179.35
5.68
1.16
0.96
3.91
0.05
-0.07
0.26
0.04
-0.16
0.05
-0.68
0.31
-0.05

>  <PUBCHEM_SHAPE_SELFOVERLAP>  (1) 
324.875

>  <PUBCHEM_SHAPE_VOLUME>  (1) 
116.1

>  <PUBCHEM_COORDINATE_TYPE>  (1) 
2
5
10

$$$$
