4141
     RDKit          3D

 11 11  0  0  0  0  0  0  0  0999 V2000
    1.1013   -0.6859    0.4407 O   0  0  0  0  0  0  0  0  0  0  0  0
   -2.0556   -0.1562   -0.0819 N   0  0  0  0  0  0  0  0  0  0  0  0
   -1.0612    0.1882    1.0176 C   0  0  0  0  0  0  0  0  0  0  0  0
   -1.6117   -1.4300   -0.7867 C   0  0  0  0  0  0  0  0  0  0  0  0
   -3.4335   -0.3682    0.5288 C   0  0  0  0  0  0  0  0  0  0  0  0
   -2.1163    0.9849   -1.0870 C   0  0  0  0  0  0  0  0  0  0  0  0
    0.3244    0.4125    0.4936 C   0  0  0  0  0  0  0  0  0  0  0  0
    0.9647    1.5239    0.0533 C   0  0  0  0  0  0  0  0  0  0  0  0
    2.2942   -0.2642   -0.0553 C   0  0  0  0  0  0  0  0  0  0  0  0
    2.2611    1.0871   -0.3098 C   0  0  0  0  0  0  0  0  0  0  0  0
    3.3325   -1.2922   -0.2132 C   0  0  0  0  0  0  0  0  0  0  0  0
  1  7  1  0
  1  9  1  0
  2  3  1  0
  2  4  1  0
  2  5  1  0
  2  6  1  0
  3  7  1  0
  7  8  2  0
  8 10  1  0
  9 10  2  0
  9 11  1  0
M  CHG  1   2   1
M  END
>  <PUBCHEM_COMPOUND_CID>  (1) 
4141

>  <PUBCHEM_CONFORMER_RMSD>  (1) 
0.4

>  <PUBCHEM_CONFORMER_DIVERSEORDER>  (1) 
2
1
8
7
3
5
4
6

>  <PUBCHEM_MMFF94_PARTIAL_CHARGES>  (1) 
13
1 -0.28
10 -0.15
11 0.18
2 -1.01
23 0.15
24 0.15
3 0.68
4 0.5
5 0.5
6 0.5
7 -0.04
8 -0.15
9 -0.04

>  <PUBCHEM_EFFECTIVE_ROTOR_COUNT>  (1) 
2

>  <PUBCHEM_PHARMACOPHORE_FEATURES>  (1) 
3
1 1 acceptor
1 2 cation
5 1 7 8 9 10 rings

>  <PUBCHEM_HEAVY_ATOM_COUNT>  (1) 
11

>  <PUBCHEM_ATOM_DEF_STEREO_COUNT>  (1) 
0

>  <PUBCHEM_ATOM_UDEF_STEREO_COUNT>  (1) 
0

>  <PUBCHEM_BOND_DEF_STEREO_COUNT>  (1) 
0

>  <PUBCHEM_BOND_UDEF_STEREO_COUNT>  (1) 
0

>  <PUBCHEM_ISOTOPIC_ATOM_COUNT>  (1) 
0

>  <PUBCHEM_COMPONENT_COUNT>  (1) 
1

>  <PUBCHEM_CACTVS_TAUTO_COUNT>  (1) 
1

>  <PUBCHEM_CONFORMER_ID>  (1) 
0000102D00000002

>  <PUBCHEM_MMFF94_ENERGY>  (1) 
21.5717

>  <PUBCHEM_FEATURE_SELFOVERLAP>  (1) 
15.223

>  <PUBCHEM_SHAPE_FINGERPRINT>  (1) 
10857977 72 13110954340509037184
11062470 55 11023828357920517451
12897270 3 17967526900252652101
12932764 1 18409163341840061600
14128692 85 18343582958264574318
15310529 11 18259984894249623533
15775835 57 18339368581370997813
16945 1 18201715154480695784
17844478 74 17895202120789535641
18619055 16 18343579655134127892
19422 9 18341341079909868963
20528008 55 11095884852256887377
20653085 51 18113620053928535669
22802520 49 17895468124903760156
23552423 10 18269271446624903606
3248919 1 16845577534172224332
369184 2 10663827373103091309
5084963 1 18259988188505513281
9939556 21 18271809068054019901

>  <PUBCHEM_SHAPE_MULTIPOLES>  (1) 
215.52
5.05
1.46
0.95
0.17
0.01
-0.05
1.36
-0.27
-0.5
-0.27
0.48
-0.05
0.07

>  <PUBCHEM_SHAPE_SELFOVERLAP>  (1) 
428.89

>  <PUBCHEM_SHAPE_VOLUME>  (1) 
132.9

>  <PUBCHEM_COORDINATE_TYPE>  (1) 
2
5
10

$$$$
