41412
     RDKit          3D

 20 20  0  0  1  0  0  0  0  0999 V2000
   -2.4726    4.5957    0.3099 Cl  0  0  0  0  0  0  0  0  0  0  0  0
    2.2791   -0.3126   -0.1176 O   0  0  0  0  0  0  0  0  0  0  0  0
    0.1444   -3.9594   -0.7334 O   0  0  0  0  0  0  0  0  0  0  0  0
   -1.8678   -4.2103    0.2659 O   0  0  0  0  0  0  0  0  0  0  0  0
    1.0455   -0.6454    1.7909 O   0  0  0  0  0  0  0  0  0  0  0  0
    0.3047   -1.3875   -0.2786 N   0  0  0  0  0  0  0  0  0  0  0  0
   -0.9435   -1.9783    0.1461 C   0  0  0  0  0  0  0  0  0  0  0  0
   -2.1343   -1.3315   -0.5730 C   0  0  0  0  0  0  0  0  0  0  0  0
    4.4216    0.7982   -0.2725 C   0  0  0  0  0  0  0  0  0  0  0  0
    3.2811    0.3477    0.6445 C   0  0  0  0  0  0  0  0  0  0  0  0
   -2.2183    0.1593   -0.3499 C   0  0  0  0  0  0  0  0  0  0  0  0
    3.9266    1.7811   -1.3357 C   0  0  0  0  0  0  0  0  0  0  0  0
    5.5477    1.4252    0.5466 C   0  0  0  0  0  0  0  0  0  0  0  0
   -0.9476   -3.4814   -0.0899 C   0  0  0  0  0  0  0  0  0  0  0  0
    1.1916   -0.7721    0.5796 C   0  0  0  0  0  0  0  0  0  0  0  0
   -2.9462    0.6455    0.7244 C   0  0  0  0  0  0  0  0  0  0  0  0
   -1.5670    1.0145   -1.2246 C   0  0  0  0  0  0  0  0  0  0  0  0
   -3.0248    2.0230    0.9294 C   0  0  0  0  0  0  0  0  0  0  0  0
   -1.6456    2.3920   -1.0195 C   0  0  0  0  0  0  0  0  0  0  0  0
   -2.3745    2.8962    0.0575 C   0  0  0  0  0  0  0  0  0  0  0  0
  1 20  1  0
  2 10  1  0
  2 15  1  0
  3 14  1  0
  4 14  2  0
  5 15  2  0
  6  7  1  0
  6 15  1  0
  7  8  1  0
  7 14  1  0
  8 11  1  0
  9 10  1  0
  9 12  1  0
  9 13  1  0
 11 16  2  0
 11 17  1  0
 16 18  1  0
 17 19  2  0
 18 20  2  0
 19 20  1  0
M  END
>  <PUBCHEM_COMPOUND_CID>  (1) 
41412

>  <PUBCHEM_CONFORMER_RMSD>  (1) 
0.8

>  <PUBCHEM_CONFORMER_DIVERSEORDER>  (1) 
1
141
115
153
63
195
42
64
61
138
102
139
107
45
166
185
21
121
62
116
14
90
70
163
196
181
81
122
101
57
167
205
117
189
145
212
180
200
12
112
186
172
114
199
96
155
183
201
5
77
147
152
169
158
82
110
142
65
94
143
10
36
206
11
95
105
197
4
151
72
38
30
19
193
209
176
84
162
171
161
44
213
20
80
92
120
47
188
2
49
37
79
204
69
175
43
135
34
68
149
159
66
128
32
132
25
78
174
154
73
89
124
207
50
16
144
93
198
131
52
75
190
58
100
35
83
6
127
182
150
148
27
40
106
130
41
136
46
178
203
55
111
15
53
137
118
164
3
104
88
22
24
108
74
119
18
191
60
192
31
33
184
86
54
17
210
28
91
140
87
160
23
157
85
9
194
103
7
98
168
59
56
13
26
187
129
109
8
146
134
113
76
179
39
177
208
211
123
99
173
126
156
48
125
97
71
165
29
133
51
170
202
67

>  <PUBCHEM_MMFF94_PARTIAL_CHARGES>  (1) 
23
1 -0.18
10 0.28
11 -0.14
14 0.66
15 0.78
16 -0.15
17 -0.15
18 -0.15
19 -0.15
2 -0.43
20 0.18
27 0.37
3 -0.65
34 0.15
35 0.15
36 0.15
37 0.15
38 0.5
4 -0.57
5 -0.57
6 -0.73
7 0.36
8 0.14

>  <PUBCHEM_EFFECTIVE_ROTOR_COUNT>  (1) 
8

>  <PUBCHEM_PHARMACOPHORE_FEATURES>  (1) 
7
1 3 acceptor
1 4 acceptor
1 5 acceptor
1 6 donor
3 3 4 14 anion
3 9 12 13 hydrophobe
6 11 16 17 18 19 20 rings

>  <PUBCHEM_HEAVY_ATOM_COUNT>  (1) 
20

>  <PUBCHEM_ATOM_DEF_STEREO_COUNT>  (1) 
0

>  <PUBCHEM_ATOM_UDEF_STEREO_COUNT>  (1) 
1

>  <PUBCHEM_BOND_DEF_STEREO_COUNT>  (1) 
0

>  <PUBCHEM_BOND_UDEF_STEREO_COUNT>  (1) 
0

>  <PUBCHEM_ISOTOPIC_ATOM_COUNT>  (1) 
0

>  <PUBCHEM_COMPONENT_COUNT>  (1) 
1

>  <PUBCHEM_CACTVS_TAUTO_COUNT>  (1) 
2

>  <PUBCHEM_CONFORMER_ID>  (1) 
0000A1C400000001

>  <PUBCHEM_MMFF94_ENERGY>  (1) 
35.5974

>  <PUBCHEM_FEATURE_SELFOVERLAP>  (1) 
35.582

>  <PUBCHEM_SHAPE_FINGERPRINT>  (1) 
10165383 225 18272664410902003057
10937287 8 18267021652667109700
1100329 8 18048885388179002379
12107183 9 18191290591219156082
12173636 292 18412260605924013549
12788726 201 18267844220793190943
13134695 92 16752400186297646831
138480 1 17042043464475844989
14508225 48 17838321235794431495
14713325 29 18339084907914779138
14955137 171 17904218262314601299
15961568 22 17547279464883868464
1741750 31 18411979161486665090
18785283 64 17832714465321730379
20600515 1 17911538780603875815
20671657 1 17691688887861323213
21304253 13 17979924027454110739
23419403 2 16910933553721698399
23557571 272 18196093476483024430
23558518 356 17906717117595490703
23559900 14 17400924094906742705
27216 239 18261678077822131833
6287921 2 18119830026734798285
81228 2 18124577924339842147
9981440 41 18265328413502886929

>  <PUBCHEM_SHAPE_MULTIPOLES>  (1) 
385
7.63
5.51
1.14
12.54
2.95
-0.02
-8.16
-0.6
-4.77
0.27
0.18
-0.31
-0.56

>  <PUBCHEM_SHAPE_SELFOVERLAP>  (1) 
771.59

>  <PUBCHEM_SHAPE_VOLUME>  (1) 
226.5

>  <PUBCHEM_COORDINATE_TYPE>  (1) 
2
5
10

$$$$
