41421
     RDKit          3D

 15 17  0  0  0  0  0  0  0  0999 V2000
    3.1718    0.2695   -0.5223 N   0  0  0  0  0  0  0  0  0  0  0  0
   -2.3530    1.8784    0.5104 N   0  0  0  0  0  0  0  0  0  0  0  0
    4.1536   -0.0436    0.5060 C   0  0  0  0  0  0  0  0  0  0  0  0
    5.6001   -0.2376    0.1395 C   0  0  0  0  0  0  0  0  0  0  0  0
    4.7735   -1.4134    0.5709 C   0  0  0  0  0  0  0  0  0  0  0  0
    1.8395    0.4070    0.0561 C   0  0  0  0  0  0  0  0  0  0  0  0
    0.7855    0.7853   -1.0021 C   0  0  0  0  0  0  0  0  0  0  0  0
   -0.5629    0.9568   -0.4241 C   0  0  0  0  0  0  0  0  0  0  0  0
   -1.5544   -0.0524   -0.2713 C   0  0  0  0  0  0  0  0  0  0  0  0
   -2.6672    0.5520    0.3172 C   0  0  0  0  0  0  0  0  0  0  0  0
   -1.0835    2.1326    0.0654 C   0  0  0  0  0  0  0  0  0  0  0  0
   -1.6120   -1.4265   -0.5781 C   0  0  0  0  0  0  0  0  0  0  0  0
   -3.8395   -0.1517    0.6155 C   0  0  0  0  0  0  0  0  0  0  0  0
   -2.7780   -2.1431   -0.2854 C   0  0  0  0  0  0  0  0  0  0  0  0
   -3.8734   -1.5135    0.3023 C   0  0  0  0  0  0  0  0  0  0  0  0
  1  3  1  0
  1  6  1  0
  2 10  1  0
  2 11  1  0
  3  4  1  0
  3  5  1  0
  4  5  1  0
  6  7  1  0
  7  8  1  0
  8  9  1  0
  8 11  2  0
  9 10  2  0
  9 12  1  0
 10 13  1  0
 12 14  2  0
 13 15  2  0
 14 15  1  0
M  END
>  <PUBCHEM_COMPOUND_CID>  (1) 
41421

>  <PUBCHEM_CONFORMER_RMSD>  (1) 
0.6

>  <PUBCHEM_CONFORMER_DIVERSEORDER>  (1) 
2
7
17
26
13
20
5
15
22
24
8
25
16
19
11
28
1
9
27
29
3
14
4
6
30
10
18
23
12
21

>  <PUBCHEM_MMFF94_PARTIAL_CHARGES>  (1) 
26
1 -0.79
10 -0.15
11 -0.3
12 -0.15
13 -0.15
14 -0.15
15 -0.15
16 0.1
17 0.1
18 0.1
19 0.1
2 0.03
20 0.1
21 0.36
26 0.15
27 0.27
28 0.15
29 0.15
3 0.06
30 0.15
31 0.15
4 -0.2
5 -0.2
6 0.27
7 0.18
8 -0.18

>  <PUBCHEM_EFFECTIVE_ROTOR_COUNT>  (1) 
4.6

>  <PUBCHEM_PHARMACOPHORE_FEATURES>  (1) 
6
1 1 cation
1 1 donor
1 2 cation
1 2 donor
5 2 8 9 10 11 rings
6 9 10 12 13 14 15 rings

>  <PUBCHEM_HEAVY_ATOM_COUNT>  (1) 
15

>  <PUBCHEM_ATOM_DEF_STEREO_COUNT>  (1) 
0

>  <PUBCHEM_ATOM_UDEF_STEREO_COUNT>  (1) 
0

>  <PUBCHEM_BOND_DEF_STEREO_COUNT>  (1) 
0

>  <PUBCHEM_BOND_UDEF_STEREO_COUNT>  (1) 
0

>  <PUBCHEM_ISOTOPIC_ATOM_COUNT>  (1) 
0

>  <PUBCHEM_COMPONENT_COUNT>  (1) 
1

>  <PUBCHEM_CACTVS_TAUTO_COUNT>  (1) 
1

>  <PUBCHEM_CONFORMER_ID>  (1) 
0000A1CD00000002

>  <PUBCHEM_MMFF94_ENERGY>  (1) 
21.2374

>  <PUBCHEM_FEATURE_SELFOVERLAP>  (1) 
30.538

>  <PUBCHEM_SHAPE_FINGERPRINT>  (1) 
10616163 171 18411138030812741022
11046707 91 18334292076235303236
11357001 24 18412545388305129665
11578080 2 17969201486321831557
12251169 10 18343303669320865348
12633257 1 17346046670025045955
13167823 11 18335138666377715146
13288520 33 18408604760179558238
13551218 46 18339364071634867922
13862211 1 18341333405241524655
1420 369 18333452058158265138
14420673 8 17980485560174144102
17780758 139 18267852901338489938
17804303 29 18343304790091032152
17834072 33 18260834826056037316
17977361 122 18335136513934779795
1813 80 17531257123481323038
18186145 218 13406795549186286004
193927 3 18041290936331977650
19422 9 18333455348166277100
200 152 16588022407481144020
20645477 70 14635139081088480824
21065199 12 18201432563455975616
21650355 55 18342459248738714489
21673915 165 18408601444766031890
22079108 93 13830131728089233319
22646028 28 18186519917033697698
2297311 6 18202015317445758532
23366157 5 17904207271287568829
23402539 116 18202275901680429533
23559900 14 18339633542531258328
24859131 72 18343584048806687079
2748010 2 17980509792484350245
2838139 119 13540804997411551467
351380 3 18040997345484620674
4214541 1 18411417272511537072
5104073 3 18342182214457352401
559249 180 18114737118886878610
573450 72 18336261258832575344
58807428 26 18196953097112892851
5924683 9 17703215317084256343
76465 3 18198337553993068727
90316 7 18411427197864934157

>  <PUBCHEM_SHAPE_MULTIPOLES>  (1) 
298.73
10.13
2
0.83
14.96
0.04
0.05
4.47
-2.29
-1.75
-0.02
0.01
-0.01
-0.57

>  <PUBCHEM_SHAPE_SELFOVERLAP>  (1) 
636.493

>  <PUBCHEM_SHAPE_VOLUME>  (1) 
169.4

>  <PUBCHEM_COORDINATE_TYPE>  (1) 
2
5
10

$$$$
