4142
     RDKit          3D

 19 20  0  0  0  0  0  0  0  0999 V2000
    3.1310    1.6706   -0.5217 S   0  0  0  0  0  0  0  0  0  0  0  0
   -5.6051   -0.0261    1.2182 O   0  0  0  0  0  0  0  0  0  0  0  0
   -6.4746   -2.1047   -0.2507 O   0  0  0  0  0  0  0  0  0  0  0  0
   -5.2102   -1.5404   -0.4741 N   0  0  0  0  0  0  0  0  0  0  0  0
    0.3391    1.8178   -0.5170 C   0  0  0  0  0  0  0  0  0  0  0  0
   -1.0102    1.2222   -0.2959 C   0  0  0  0  0  0  0  0  0  0  0  0
    1.5200    0.8699   -0.2493 C   0  0  0  0  0  0  0  0  0  0  0  0
   -1.6120    1.3065    0.9596 C   0  0  0  0  0  0  0  0  0  0  0  0
   -1.6708    0.5818   -1.3443 C   0  0  0  0  0  0  0  0  0  0  0  0
   -3.5350    0.1102    0.1184 C   0  0  0  0  0  0  0  0  0  0  0  0
   -2.8745    0.7503    1.1668 C   0  0  0  0  0  0  0  0  0  0  0  0
   -2.9332    0.0259   -1.1372 C   0  0  0  0  0  0  0  0  0  0  0  0
    4.2564    0.3351   -0.1350 C   0  0  0  0  0  0  0  0  0  0  0  0
   -4.8505   -0.4713    0.3342 C   0  0  0  0  0  0  0  0  0  0  0  0
    4.6709   -0.5329   -1.1409 C   0  0  0  0  0  0  0  0  0  0  0  0
    4.7118    0.1714    1.1698 C   0  0  0  0  0  0  0  0  0  0  0  0
    5.5488   -1.5741   -0.8392 C   0  0  0  0  0  0  0  0  0  0  0  0
    5.5898   -0.8697    1.4715 C   0  0  0  0  0  0  0  0  0  0  0  0
    6.0081   -1.7425    0.4670 C   0  0  0  0  0  0  0  0  0  0  0  0
  1  7  1  0
  1 13  1  0
  2 14  2  0
  3  4  1  0
  4 14  1  0
  5  6  1  0
  5  7  1  0
  6  8  2  0
  6  9  1  0
  8 11  1  0
  9 12  2  0
 10 11  2  0
 10 12  1  0
 10 14  1  0
 13 15  2  0
 13 16  1  0
 15 17  1  0
 16 18  2  0
 17 19  2  0
 18 19  1  0
M  END
>  <PUBCHEM_COMPOUND_CID>  (1) 
4142

>  <PUBCHEM_CONFORMER_RMSD>  (1) 
0.8

>  <PUBCHEM_CONFORMER_DIVERSEORDER>  (1) 
2
28
38
3
29
18
27
37
30
21
26
31
32
1
16
17
19
35
4
9
6
39
36
33
11
34
10
5
40
43
41
25
12
14
24
15
22
42
8
13
23
20
7

>  <PUBCHEM_MMFF94_PARTIAL_CHARGES>  (1) 
30
1 -0.33
10 0.09
11 -0.15
12 -0.15
13 0.1
14 0.54
15 -0.15
16 -0.15
17 -0.15
18 -0.15
19 -0.15
2 -0.57
24 0.15
25 0.15
26 0.15
27 0.15
28 0.15
29 0.15
3 -0.44
30 0.15
31 0.15
32 0.15
33 0.37
34 0.4
4 -0.39
5 0.14
6 -0.14
7 0.23
8 -0.15
9 -0.15

>  <PUBCHEM_EFFECTIVE_ROTOR_COUNT>  (1) 
6

>  <PUBCHEM_PHARMACOPHORE_FEATURES>  (1) 
4
1 2 acceptor
1 4 donor
6 13 15 16 17 18 19 rings
6 6 8 9 10 11 12 rings

>  <PUBCHEM_HEAVY_ATOM_COUNT>  (1) 
19

>  <PUBCHEM_ATOM_DEF_STEREO_COUNT>  (1) 
0

>  <PUBCHEM_ATOM_UDEF_STEREO_COUNT>  (1) 
0

>  <PUBCHEM_BOND_DEF_STEREO_COUNT>  (1) 
0

>  <PUBCHEM_BOND_UDEF_STEREO_COUNT>  (1) 
0

>  <PUBCHEM_ISOTOPIC_ATOM_COUNT>  (1) 
0

>  <PUBCHEM_COMPONENT_COUNT>  (1) 
1

>  <PUBCHEM_CACTVS_TAUTO_COUNT>  (1) 
3

>  <PUBCHEM_CONFORMER_ID>  (1) 
0000102E00000002

>  <PUBCHEM_MMFF94_ENERGY>  (1) 
52.8324

>  <PUBCHEM_FEATURE_SELFOVERLAP>  (1) 
20.297

>  <PUBCHEM_SHAPE_FINGERPRINT>  (1) 
10 15 15769774675615292105
10014705 185 9367337137472962180
10319926 262 17131847425294213205
10378564 45 11746929859856462968
10498660 4 10737296727560877916
10753850 27 18335137622420931379
12555020 224 17603304881991356507
12596602 18 17703791426869940874
12633257 1 15482661399346663912
12670543 26 16009021787733812205
13533116 47 18338238266512536160
13551218 46 18272654523681656534
13668630 136 18040158388190268138
13862211 1 18334293179973527955
13914758 101 18342735188146210797
13955234 65 18191309480106365920
14123256 34 18334303037324333898
1420 369 18410573968520312164
14211702 104 18264775539722459907
14251740 57 18129952178763612638
14251752 14 17604143736465131797
14251764 75 13541028391762030106
14341114 176 16630806595794295552
14528608 73 11458426847137726140
15183329 4 14490183891033643959
15188451 53 18272082790556732488
15210252 30 9655282745141738198
15342168 16 10807935968336141272
15348495 7 16988555836010229338
15475509 8 16443338768031486133
15575132 122 8286215945847609743
17857418 61 18334295366264648106
17870717 6 15936412243206475065
1813 80 18335990804858601812
18222031 100 18260270741914875108
193927 3 18261118448147176008
19784866 240 18333454257202418477
20028762 73 18413670227403146886
20645477 70 18040154029009511284
21637258 2 18410849997473099797
22061861 79 17022619784212035526
2215653 11 16515402984201848477
22224240 67 14117806830158797333
22289505 5 12179850490172037214
22849339 104 14851900195816637929
23522609 53 17972634084388274020
23559900 14 15792023323653168812
25122255 55 18261118516692800779
270888 7 9799684905440505350
2767999 5 10879990237857865866
2838139 119 9439133017636386787
2916195 48 13039194693116839945
3004659 81 15864066547447741016
3014063 24 18412258467394349015
312425 54 17775293720170077043
3472631 163 8214136361439307512
34797466 226 14418148330320297862
351380 3 18335138683251544622
4259306 186 17458345221672097664
465052 167 18335145284832550158
5104073 3 17631461218953037321
559249 180 18412262835971797967
5924683 9 15840969157341840077
59682541 52 14490460976933599562
7970288 3 18335419020273470714
960060 61 16008752399095713764

>  <PUBCHEM_SHAPE_MULTIPOLES>  (1) 
378.14
17.22
1.87
1.33
0.2
0.29
0.13
12.6
2.2
-0.09
-0.22
-0.43
0.03
-0.6

>  <PUBCHEM_SHAPE_SELFOVERLAP>  (1) 
782.287

>  <PUBCHEM_SHAPE_VOLUME>  (1) 
216.9

>  <PUBCHEM_COORDINATE_TYPE>  (1) 
2
5
10

$$$$
