41432
     RDKit          3D

 12 12  0  0  1  0  0  0  0  0999 V2000
   -3.1770   -0.3113    0.8290 O   0  0  0  0  0  0  0  0  0  0  0  0
    3.5450    0.4160   -0.0909 O   0  0  0  0  0  0  0  0  0  0  0  0
   -1.3595   -0.0957   -0.1784 N   0  0  0  0  0  0  0  0  0  0  0  0
    1.5434   -0.1245    0.1338 N   0  0  0  0  0  0  0  0  0  0  0  0
   -2.0393    0.1606    0.9192 N   0  0  0  0  0  0  0  0  0  0  0  0
    2.7257   -0.0644    0.6985 N   0  0  0  0  0  0  0  0  0  0  0  0
   -0.6095   -1.3716   -0.1413 C   0  0  0  0  0  0  0  0  0  0  0  0
   -0.5168    1.0215   -0.6605 C   0  0  0  0  0  0  0  0  0  0  0  0
    0.7209   -1.2333    0.6320 C   0  0  0  0  0  0  0  0  0  0  0  0
    0.8021    1.1451    0.1318 C   0  0  0  0  0  0  0  0  0  0  0  0
   -0.3828   -1.9132   -1.5619 C   0  0  0  0  0  0  0  0  0  0  0  0
   -1.2523    2.3707   -0.7113 C   0  0  0  0  0  0  0  0  0  0  0  0
  1  5  2  0
  2  6  2  0
  3  5  1  0
  3  7  1  0
  3  8  1  0
  4  6  1  0
  4  9  1  0
  4 10  1  0
  7  9  1  0
  7 11  1  0
  8 10  1  0
  8 12  1  0
M  END
>  <PUBCHEM_COMPOUND_CID>  (1) 
41432

>  <PUBCHEM_CONFORMER_RMSD>  (1) 
0.6

>  <PUBCHEM_CONFORMER_DIVERSEORDER>  (1) 
2
20
15
22
32
14
12
30
23
33
29
21
27
25
11
4
18
24
26
31
17
28
16
36
35
7
19
34
8
13
5
1
3
10
6
9

>  <PUBCHEM_MMFF94_PARTIAL_CHARGES>  (1) 
10
1 -0.16
10 0.27
2 -0.16
3 -0.36
4 -0.36
5 -0.01
6 -0.01
7 0.27
8 0.27
9 0.27

>  <PUBCHEM_EFFECTIVE_ROTOR_COUNT>  (1) 
3.2

>  <PUBCHEM_PHARMACOPHORE_FEATURES>  (1) 
1
6 3 4 7 8 9 10 rings

>  <PUBCHEM_HEAVY_ATOM_COUNT>  (1) 
12

>  <PUBCHEM_ATOM_DEF_STEREO_COUNT>  (1) 
0

>  <PUBCHEM_ATOM_UDEF_STEREO_COUNT>  (1) 
2

>  <PUBCHEM_BOND_DEF_STEREO_COUNT>  (1) 
0

>  <PUBCHEM_BOND_UDEF_STEREO_COUNT>  (1) 
0

>  <PUBCHEM_ISOTOPIC_ATOM_COUNT>  (1) 
0

>  <PUBCHEM_COMPONENT_COUNT>  (1) 
1

>  <PUBCHEM_CACTVS_TAUTO_COUNT>  (1) 
1

>  <PUBCHEM_CONFORMER_ID>  (1) 
0000A1D800000002

>  <PUBCHEM_MMFF94_ENERGY>  (1) 
27.2083

>  <PUBCHEM_FEATURE_SELFOVERLAP>  (1) 
5.074

>  <PUBCHEM_SHAPE_FINGERPRINT>  (1) 
10219947 1 18409175423978671843
12423570 1 14454513900183776455
12932764 1 18341599435314813848
13024252 1 17240752999879491462
13380535 76 17903059050224211509
14993402 34 18341326799027552351
16945 1 18334857216447991690
18185500 45 17906442582372872023
20511035 2 17760902083856894618
20871998 184 18410571764669436981
21040471 1 18122884478879836792
23235685 24 17775286053726929666
2748010 2 18123182412081470684
3250762 1 17834403315313797983
369184 2 15068609475211511648
5084963 1 18413665820454561770
68250623 7 17898567570841374867

>  <PUBCHEM_SHAPE_MULTIPOLES>  (1) 
215.29
3.6
2.03
1.08
1.93
0.33
-0.22
0.56
1.11
-0.71
-0.83
-0.37
-0.35
0.13

>  <PUBCHEM_SHAPE_SELFOVERLAP>  (1) 
423.244

>  <PUBCHEM_SHAPE_VOLUME>  (1) 
129.3

>  <PUBCHEM_COORDINATE_TYPE>  (1) 
2
5
10

$$$$
