41449
     RDKit          3D

 26 28  0  0  1  0  0  0  0  0999 V2000
    3.2636   -1.6738    0.2731 O   0  0  0  0  0  0  0  0  0  0  0  0
    5.9937   -2.1391    0.7596 O   0  0  0  0  0  0  0  0  0  0  0  0
   -2.6978    0.2315    0.6945 O   0  0  0  0  0  0  0  0  0  0  0  0
   -5.0679   -1.0438   -2.3613 O   0  0  0  0  0  0  0  0  0  0  0  0
    5.0495    1.3903    0.1615 N   0  0  0  0  0  0  0  0  0  0  0  0
    5.5859    0.0620   -0.1025 C   0  0  0  0  0  0  0  0  0  0  0  0
    5.3849   -0.8855    1.0824 C   0  0  0  0  0  0  0  0  0  0  0  0
    5.3038    2.2870   -0.9580 C   0  0  0  0  0  0  0  0  0  0  0  0
    3.9153   -1.1279    1.4192 C   0  0  0  0  0  0  0  0  0  0  0  0
    6.8051    2.4248   -1.1950 C   0  0  0  0  0  0  0  0  0  0  0  0
    4.6665    3.6440   -0.6765 C   0  0  0  0  0  0  0  0  0  0  0  0
    1.9383   -1.4026    0.1263 C   0  0  0  0  0  0  0  0  0  0  0  0
   -0.7837   -0.8454   -0.1767 C   0  0  0  0  0  0  0  0  0  0  0  0
   -2.1900   -0.5572   -0.3323 C   0  0  0  0  0  0  0  0  0  0  0  0
    1.3804   -1.3225   -1.1497 C   0  0  0  0  0  0  0  0  0  0  0  0
    1.1374   -1.2047    1.2512 C   0  0  0  0  0  0  0  0  0  0  0  0
    0.0220   -1.0444   -1.3009 C   0  0  0  0  0  0  0  0  0  0  0  0
   -0.2211   -0.9265    1.0999 C   0  0  0  0  0  0  0  0  0  0  0  0
   -4.8913    0.1770   -0.3467 C   0  0  0  0  0  0  0  0  0  0  0  0
   -4.0244    0.5787    0.6672 C   0  0  0  0  0  0  0  0  0  0  0  0
   -2.9329   -1.0027   -1.3600 C   0  0  0  0  0  0  0  0  0  0  0  0
   -4.3659   -0.6562   -1.4376 C   0  0  0  0  0  0  0  0  0  0  0  0
   -6.2340    0.5609   -0.3227 C   0  0  0  0  0  0  0  0  0  0  0  0
   -4.4967    1.3694    1.7150 C   0  0  0  0  0  0  0  0  0  0  0  0
   -6.7037    1.3516    0.7265 C   0  0  0  0  0  0  0  0  0  0  0  0
   -5.8371    1.7552    1.7434 C   0  0  0  0  0  0  0  0  0  0  0  0
  1  9  1  0
  1 12  1  0
  2  7  1  0
  3 14  1  0
  3 20  1  0
  4 22  2  0
  5  6  1  0
  5  8  1  0
  6  7  1  0
  7  9  1  0
  8 10  1  0
  8 11  1  0
 12 15  2  0
 12 16  1  0
 13 14  1  0
 13 17  2  0
 13 18  1  0
 14 21  2  0
 15 17  1  0
 16 18  2  0
 19 20  2  0
 19 22  1  0
 19 23  1  0
 20 24  1  0
 21 22  1  0
 23 25  2  0
 24 26  2  0
 25 26  1  0
M  END
>  <PUBCHEM_COMPOUND_CID>  (1) 
41449

>  <PUBCHEM_CONFORMER_RMSD>  (1) 
0.8

>  <PUBCHEM_CONFORMER_DIVERSEORDER>  (1) 
2
58
138
201
4
107
119
214
141
216
174
116
157
115
59
51
198
38
126
123
212
35
181
142
13
196
164
213
22
110
187
190
82
137
12
114
25
60
10
153
173
130
170
171
199
31
94
143
189
41
129
159
7
166
100
50
177
106
79
81
45
75
162
105
183
96
90
194
117
33
72
83
15
155
43
80
49
184
208
149
95
150
98
74
207
185
70
193
104
139
203
54
161
55
6
63
128
121
191
151
48
21
160
182
73
175
102
140
146
93
120
168
165
16
154
65
132
44
158
133
56
77
127
211
178
87
37
78
40
11
176
188
163
53
89
135
112
204
147
19
46
195
131
47
57
91
62
42
71
209
152
179
30
36
180
66
34
215
14
148
97
134
200
92
136
68
18
111
26
124
205
8
69
103
197
145
206
20
76
113
167
39
118
144
210
1
52
85
32
108
202
23
84
5
99
122
88
156
9
3
125
17
86
29
67
61
109
101
186
64
24
28
172
169
192
27

>  <PUBCHEM_MMFF94_PARTIAL_CHARGES>  (1) 
35
1 -0.36
12 0.08
13 0.03
14 0.05
15 -0.15
16 -0.15
17 -0.15
18 -0.15
19 0.09
2 -0.68
20 0.08
21 -0.14
22 0.47
23 -0.15
24 -0.15
25 -0.15
26 -0.15
3 -0.16
31 0.36
4 -0.57
40 0.4
41 0.15
42 0.15
43 0.15
44 0.15
45 0.15
46 0.15
47 0.15
48 0.15
49 0.15
5 -0.9
6 0.27
7 0.28
8 0.27
9 0.28

>  <PUBCHEM_EFFECTIVE_ROTOR_COUNT>  (1) 
7

>  <PUBCHEM_PHARMACOPHORE_FEATURES>  (1) 
11
1 1 acceptor
1 2 acceptor
1 2 donor
1 3 acceptor
1 4 acceptor
1 5 cation
1 5 donor
3 8 10 11 hydrophobe
6 12 13 15 16 17 18 rings
6 19 20 23 24 25 26 rings
6 3 14 19 20 21 22 rings

>  <PUBCHEM_HEAVY_ATOM_COUNT>  (1) 
26

>  <PUBCHEM_ATOM_DEF_STEREO_COUNT>  (1) 
0

>  <PUBCHEM_ATOM_UDEF_STEREO_COUNT>  (1) 
1

>  <PUBCHEM_BOND_DEF_STEREO_COUNT>  (1) 
0

>  <PUBCHEM_BOND_UDEF_STEREO_COUNT>  (1) 
0

>  <PUBCHEM_ISOTOPIC_ATOM_COUNT>  (1) 
0

>  <PUBCHEM_COMPONENT_COUNT>  (1) 
1

>  <PUBCHEM_CACTVS_TAUTO_COUNT>  (1) 
1

>  <PUBCHEM_CONFORMER_ID>  (1) 
0000A1E900000002

>  <PUBCHEM_MMFF94_ENERGY>  (1) 
71.0616

>  <PUBCHEM_FEATURE_SELFOVERLAP>  (1) 
55.852

>  <PUBCHEM_SHAPE_FINGERPRINT>  (1) 
10 15 15502382248592479390
10319926 262 14562529579078176093
10411042 1 17057212719069537319
10554248 39 17701528507755016183
10638233 991 18411136956606433516
10670039 82 17203060603461488328
10675989 125 18263364862547548196
10906281 52 18201166489863060879
11273773 42 18339647853473058580
12236239 1 18341889676014203471
12596602 18 18186804681881621755
12616971 3 18410289190376199138
13955234 65 17604418601703790186
14251740 57 11458687401893747720
14251764 75 17971483038233610836
14840074 17 18409168826587678205
15183329 4 17632301189532896176
15348495 7 17749113300577866522
15475509 35 10881681355988630076
1577012 14 18343301483251057468
1768 23 18058469671597269145
21033648 29 16515395270614626087
21267235 1 13479713988442007131
21298829 104 18340769351455433288
21315764 119 17346330288918106468
21641784 216 16773807947745891425
21792934 111 16370447727379564805
22122407 14 18337966652775547352
23081809 10 18272923925584568422
23522609 53 18271820011610104641
249057 25 18342442756048272214
2838139 119 18409166623427593804
3004659 81 17345474791294110686
328310 630 18411136944148734845
3545911 37 16558458713538628507
3882209 13 11289444326778091675
394071 54 17894912958148621124
397830 11 17531540874331615291
4258327 124 18343868819067915729
445580 37 17489592259922974329
5104073 3 17749668597268987498
513532 50 17131831023900943112
5364581 5 15937268844026175701
57724786 102 18261115201294370596
58902169 19 18343580733804032798
5911458 16 18343030985889599856
6608658 132 17917444106805902024

>  <PUBCHEM_SHAPE_MULTIPOLES>  (1) 
506.61
19.54
2.67
1.73
4
2.29
-0.17
11.83
0.54
5.27
-0.27
-1.48
-0.15
-4.46

>  <PUBCHEM_SHAPE_SELFOVERLAP>  (1) 
1083.448

>  <PUBCHEM_SHAPE_VOLUME>  (1) 
281.3

>  <PUBCHEM_COORDINATE_TYPE>  (1) 
2
5
10

$$$$
