41459
     RDKit          3D

 20 22  0  0  0  0  0  0  0  0999 V2000
    4.9578    0.2775    0.9294 N   0  0  0  0  0  0  0  0  0  0  0  0
    2.2268    0.0151   -2.5931 N   0  0  0  0  0  0  0  0  0  0  0  0
   -0.6382    1.2049    0.2957 C   0  0  0  0  0  0  0  0  0  0  0  0
   -0.4975   -1.2412    0.3082 C   0  0  0  0  0  0  0  0  0  0  0  0
    0.0978    0.0210    0.4703 C   0  0  0  0  0  0  0  0  0  0  0  0
   -2.0049    1.1245   -0.0501 C   0  0  0  0  0  0  0  0  0  0  0  0
   -1.8643   -1.3215   -0.0378 C   0  0  0  0  0  0  0  0  0  0  0  0
   -2.6002   -0.1376   -0.2125 C   0  0  0  0  0  0  0  0  0  0  0  0
   -0.0437    2.4673    0.4576 C   0  0  0  0  0  0  0  0  0  0  0  0
    0.2377   -2.4255    0.4826 C   0  0  0  0  0  0  0  0  0  0  0  0
   -2.7402    2.3089   -0.2246 C   0  0  0  0  0  0  0  0  0  0  0  0
   -2.4587   -2.5840   -0.2001 C   0  0  0  0  0  0  0  0  0  0  0  0
    1.5210    0.1046    0.8301 C   0  0  0  0  0  0  0  0  0  0  0  0
   -0.7881    3.6339    0.2809 C   0  0  0  0  0  0  0  0  0  0  0  0
   -0.3679   -3.6715    0.3178 C   0  0  0  0  0  0  0  0  0  0  0  0
   -2.1345    3.5548   -0.0598 C   0  0  0  0  0  0  0  0  0  0  0  0
   -1.7143   -3.7507   -0.0232 C   0  0  0  0  0  0  0  0  0  0  0  0
    2.5576    0.1360   -0.0292 C   0  0  0  0  0  0  0  0  0  0  0  0
    3.8811    0.2137    0.5008 C   0  0  0  0  0  0  0  0  0  0  0  0
    2.3727    0.0697   -1.4430 C   0  0  0  0  0  0  0  0  0  0  0  0
  1 19  3  0
  2 20  3  0
  3  5  2  0
  3  6  1  0
  3  9  1  0
  4  5  1  0
  4  7  2  0
  4 10  1  0
  5 13  1  0
  6  8  2  0
  6 11  1  0
  7  8  1  0
  7 12  1  0
  9 14  2  0
 10 15  2  0
 11 16  2  0
 12 17  2  0
 13 18  2  3
 14 16  1  0
 15 17  1  0
 18 19  1  0
 18 20  1  0
M  END
>  <PUBCHEM_COMPOUND_CID>  (1) 
41459

>  <PUBCHEM_CONFORMER_RMSD>  (1) 
0.6

>  <PUBCHEM_CONFORMER_DIVERSEORDER>  (1) 
1

>  <PUBCHEM_MMFF94_PARTIAL_CHARGES>  (1) 
26
1 -0.56
10 -0.15
11 -0.15
12 -0.15
13 -0.18
14 -0.15
15 -0.15
16 -0.15
17 -0.15
18 0.13
19 0.49
2 -0.56
20 0.49
21 0.15
22 0.15
23 0.15
24 0.15
25 0.15
26 0.15
27 0.15
28 0.15
29 0.15
30 0.15
5 0.03
8 -0.15
9 -0.15

>  <PUBCHEM_EFFECTIVE_ROTOR_COUNT>  (1) 
1

>  <PUBCHEM_PHARMACOPHORE_FEATURES>  (1) 
5
1 1 acceptor
1 2 acceptor
6 3 4 5 6 7 8 rings
6 3 6 9 11 14 16 rings
6 4 7 10 12 15 17 rings

>  <PUBCHEM_HEAVY_ATOM_COUNT>  (1) 
20

>  <PUBCHEM_ATOM_DEF_STEREO_COUNT>  (1) 
0

>  <PUBCHEM_ATOM_UDEF_STEREO_COUNT>  (1) 
0

>  <PUBCHEM_BOND_DEF_STEREO_COUNT>  (1) 
0

>  <PUBCHEM_BOND_UDEF_STEREO_COUNT>  (1) 
0

>  <PUBCHEM_ISOTOPIC_ATOM_COUNT>  (1) 
0

>  <PUBCHEM_COMPONENT_COUNT>  (1) 
1

>  <PUBCHEM_CACTVS_TAUTO_COUNT>  (1) 
1

>  <PUBCHEM_CONFORMER_ID>  (1) 
0000A1F300000001

>  <PUBCHEM_MMFF94_ENERGY>  (1) 
62.3128

>  <PUBCHEM_FEATURE_SELFOVERLAP>  (1) 
25.423

>  <PUBCHEM_SHAPE_FINGERPRINT>  (1) 
10319926 262 18197750333896565232
10411042 1 18049998102009271482
10967382 1 18338791222282222827
1100329 8 18266456684632252345
11582403 64 16838481170695269504
11640471 11 17604732030962557748
11725454 13 17271969174822381840
12173636 292 18266454304619464396
12553582 1 18122359131085926382
12788726 201 18190480417798523958
13140716 1 18194404618132767107
13583140 156 17845630643963505018
138480 1 16682312912289756793
14181834 199 17256811087935320877
14790565 3 18411144628083331689
15042514 8 18408885169725259771
15475509 8 17839504203533187455
16945 1 18410578396415199499
17921350 177 16617222202357372719
19591789 44 18410862053594135793
20510252 161 18342736278091841369
20600515 1 18198628924088775433
20671657 1 17331682345303929585
21650355 55 18338789143301780306
22149856 69 17833845876654030201
23184049 29 18121497122669973688
2334 1 17905885139131857659
23402539 116 18270949241255204542
23419403 2 17414977321770902729
23557571 272 18201167636814449412
23559900 14 18272087138076570362
2748010 2 18341899648669490411
3071541 12 17403451875779456217
3091708 16 9561413029970967771
350125 39 17977955579142667865
6992083 37 17895188870936636414
7364860 26 17330270572125646697
81228 2 18198363903089798619
84936 182 17622995807957875616
9709674 26 18272088280179382878
9981440 41 18121207688950507560

>  <PUBCHEM_SHAPE_MULTIPOLES>  (1) 
401.63
5.15
4.89
1.12
6.44
1.7
0.77
-2.03
-0.11
-4.66
-0.5
1.09
-0.1
0.01

>  <PUBCHEM_SHAPE_SELFOVERLAP>  (1) 
899.489

>  <PUBCHEM_SHAPE_VOLUME>  (1) 
208.3

>  <PUBCHEM_COORDINATE_TYPE>  (1) 
2
5
10

$$$$
