41450
     RDKit          3D

 27 29  0  0  1  0  0  0  0  0999 V2000
    5.6238   -2.6279   -0.7284 O   0  0  0  0  0  0  0  0  0  0  0  0
    2.9721   -1.6923   -0.7375 O   0  0  0  0  0  0  0  0  0  0  0  0
   -3.1670   -0.8388    0.2277 O   0  0  0  0  0  0  0  0  0  0  0  0
   -4.5510    2.7887   -0.9997 O   0  0  0  0  0  0  0  0  0  0  0  0
    5.0559    0.6010    0.9914 N   0  0  0  0  0  0  0  0  0  0  0  0
    5.3957    1.9695    0.6261 C   0  0  0  0  0  0  0  0  0  0  0  0
    5.4669   -0.3328   -0.0482 C   0  0  0  0  0  0  0  0  0  0  0  0
    5.1312   -1.7813    0.3142 C   0  0  0  0  0  0  0  0  0  0  0  0
    4.9509    2.9020    1.7579 C   0  0  0  0  0  0  0  0  0  0  0  0
    6.9133    2.0612    0.4352 C   0  0  0  0  0  0  0  0  0  0  0  0
    4.6773    2.3418   -0.6763 C   0  0  0  0  0  0  0  0  0  0  0  0
    3.6339   -2.0308    0.4805 C   0  0  0  0  0  0  0  0  0  0  0  0
    1.6862   -1.2573   -0.6436 C   0  0  0  0  0  0  0  0  0  0  0  0
   -0.9547   -0.3628   -0.4518 C   0  0  0  0  0  0  0  0  0  0  0  0
    1.1843   -0.3576   -1.5841 C   0  0  0  0  0  0  0  0  0  0  0  0
    0.8697   -1.7107    0.3927 C   0  0  0  0  0  0  0  0  0  0  0  0
   -2.3192    0.0991   -0.3516 C   0  0  0  0  0  0  0  0  0  0  0  0
   -0.1337    0.0889   -1.4883 C   0  0  0  0  0  0  0  0  0  0  0  0
   -0.4483   -1.2641    0.4884 C   0  0  0  0  0  0  0  0  0  0  0  0
   -5.0333    0.6962   -0.0159 C   0  0  0  0  0  0  0  0  0  0  0  0
   -4.4932   -0.5250    0.3819 C   0  0  0  0  0  0  0  0  0  0  0  0
   -2.7298    1.3075   -0.7730 C   0  0  0  0  0  0  0  0  0  0  0  0
   -4.1469    1.6955   -0.6288 C   0  0  0  0  0  0  0  0  0  0  0  0
   -6.3926    0.9611    0.1659 C   0  0  0  0  0  0  0  0  0  0  0  0
   -5.3120   -1.4918    0.9658 C   0  0  0  0  0  0  0  0  0  0  0  0
   -7.2093   -0.0077    0.7501 C   0  0  0  0  0  0  0  0  0  0  0  0
   -6.6703   -1.2318    1.1493 C   0  0  0  0  0  0  0  0  0  0  0  0
  1  8  1  0
  2 12  1  0
  2 13  1  0
  3 17  1  0
  3 21  1  0
  4 23  2  0
  5  6  1  0
  5  7  1  0
  6  9  1  0
  6 10  1  0
  6 11  1  0
  7  8  1  0
  8 12  1  0
 13 15  2  0
 13 16  1  0
 14 17  1  0
 14 18  2  0
 14 19  1  0
 15 18  1  0
 16 19  2  0
 17 22  2  0
 20 21  2  0
 20 23  1  0
 20 24  1  0
 21 25  1  0
 22 23  1  0
 24 26  2  0
 25 27  2  0
 26 27  1  0
M  END
>  <PUBCHEM_COMPOUND_CID>  (1) 
41450

>  <PUBCHEM_CONFORMER_RMSD>  (1) 
0.8

>  <PUBCHEM_CONFORMER_DIVERSEORDER>  (1) 
1
38
30
116
89
77
85
130
18
71
107
24
78
106
65
57
48
97
105
54
124
114
68
109
102
84
86
81
53
101
56
16
96
34
33
112
129
31
73
94
61
7
44
98
123
131
121
10
125
51
17
74
47
75
4
132
80
110
14
92
19
119
59
43
41
58
15
42
27
127
111
128
120
72
103
93
108
29
100
12
50
39
62
83
3
76
64
88
8
66
26
46
55
122
67
91
5
9
126
87
40
90
32
99
82
37
79
104
118
6
22
69
113
36
52
45
115
63
21
49
28
70
13
95
35
23
117
25
11
20
2
60

>  <PUBCHEM_MMFF94_PARTIAL_CHARGES>  (1) 
35
1 -0.68
12 0.28
13 0.08
14 0.03
15 -0.15
16 -0.15
17 0.05
18 -0.15
19 -0.15
2 -0.36
20 0.09
21 0.08
22 -0.14
23 0.47
24 -0.15
25 -0.15
26 -0.15
27 -0.15
28 0.36
3 -0.16
4 -0.57
43 0.4
44 0.15
45 0.15
46 0.15
47 0.15
48 0.15
49 0.15
5 -0.9
50 0.15
51 0.15
52 0.15
6 0.27
7 0.27
8 0.28

>  <PUBCHEM_EFFECTIVE_ROTOR_COUNT>  (1) 
7

>  <PUBCHEM_PHARMACOPHORE_FEATURES>  (1) 
11
1 1 acceptor
1 1 donor
1 2 acceptor
1 3 acceptor
1 4 acceptor
1 5 cation
1 5 donor
4 6 9 10 11 hydrophobe
6 13 14 15 16 18 19 rings
6 20 21 24 25 26 27 rings
6 3 17 20 21 22 23 rings

>  <PUBCHEM_HEAVY_ATOM_COUNT>  (1) 
27

>  <PUBCHEM_ATOM_DEF_STEREO_COUNT>  (1) 
0

>  <PUBCHEM_ATOM_UDEF_STEREO_COUNT>  (1) 
1

>  <PUBCHEM_BOND_DEF_STEREO_COUNT>  (1) 
0

>  <PUBCHEM_BOND_UDEF_STEREO_COUNT>  (1) 
0

>  <PUBCHEM_ISOTOPIC_ATOM_COUNT>  (1) 
0

>  <PUBCHEM_COMPONENT_COUNT>  (1) 
1

>  <PUBCHEM_CACTVS_TAUTO_COUNT>  (1) 
1

>  <PUBCHEM_CONFORMER_ID>  (1) 
0000A1EA00000001

>  <PUBCHEM_MMFF94_ENERGY>  (1) 
79.6637

>  <PUBCHEM_FEATURE_SELFOVERLAP>  (1) 
55.852

>  <PUBCHEM_SHAPE_FINGERPRINT>  (1) 
10 15 18334293192826573666
10165383 225 18260272980368095230
10638233 991 17418376904349914145
11991303 11 17203602722485960071
125118 31 18272092656434618169
12596602 18 18335984186028518923
12616971 3 17917982863561342342
12925494 130 18265605481896645917
13533116 47 18412827976121293278
13914758 101 14345783951786122727
14251732 16 18409450306128075923
14251764 75 18055348309148742672
14341114 176 18410576179885020656
14347332 77 7997701890931394663
14461889 52 18114467854544772394
14840074 17 16917067771958278849
14933364 13 18410576171506258106
15183329 4 16200152114156059680
15348495 7 18408885118259427050
15475509 35 17168410560249683890
15510800 12 11170176628638670904
16760501 71 18411418444663107908
17844677 252 18340210682829382382
20511986 3 17458614572394183043
20567600 234 18334576879748501220
21130935 74 18335145259063480723
21267235 1 17822590317589682383
21641784 216 15985115080192941522
21792934 111 18114469990293530693
21859007 373 17096069296089700933
23198884 109 8502653710643320463
23559900 14 18122341276906980943
23569914 2 17614791423906518884
249057 3 17917712379997253670
2747138 104 17895489093646243115
2838139 119 18059563711616200484
3383291 50 17168719634528067915
3411729 13 18408885174927139812
34797466 226 18131356284369821486
397830 11 18409449202189559991
4093350 32 17704079490880105060
4144715 1 18337399248692515563
44317340 157 18202561787430271258
5104073 3 18261674770786549561
5364581 5 18335422430324328121
552612 73 18199744911216646851
6438161 24 10303824146719308852
67856867 119 17822304504331668845
68570916 9 18201716288584690487

>  <PUBCHEM_SHAPE_MULTIPOLES>  (1) 
527.19
20.52
2.9
1.25
3.66
0.9
0.02
5.82
-6.62
-4.35
-0.26
-0.33
0.3
2.74

>  <PUBCHEM_SHAPE_SELFOVERLAP>  (1) 
1128.241

>  <PUBCHEM_SHAPE_VOLUME>  (1) 
293.4

>  <PUBCHEM_COORDINATE_TYPE>  (1) 
2
5
10

$$$$
