41466
     RDKit          3D

  9  9  0  0  1  0  0  0  0  0999 V2000
   -2.2661    1.6530    0.1366 O   0  0  0  0  0  0  0  0  0  0  0  0
    2.7397    0.8659   -0.4445 O   0  0  0  0  0  0  0  0  0  0  0  0
    0.9701   -0.1659   -0.0518 N   0  0  0  0  0  0  0  0  0  0  0  0
    2.1956    0.0861    0.3435 N   0  0  0  0  0  0  0  0  0  0  0  0
   -1.3511    0.6662   -0.3275 C   0  0  0  0  0  0  0  0  0  0  0  0
   -1.9010   -0.7101    0.0300 C   0  0  0  0  0  0  0  0  0  0  0  0
   -0.8865   -1.7913   -0.3144 C   0  0  0  0  0  0  0  0  0  0  0  0
    0.0236    0.8959    0.3086 C   0  0  0  0  0  0  0  0  0  0  0  0
    0.4757   -1.4998    0.3195 C   0  0  0  0  0  0  0  0  0  0  0  0
  1  5  1  0
  2  4  2  0
  3  4  1  0
  3  8  1  0
  3  9  1  0
  5  6  1  0
  5  8  1  0
  6  7  1  0
  7  9  1  0
M  END
>  <PUBCHEM_COMPOUND_CID>  (1) 
41466

>  <PUBCHEM_CONFORMER_RMSD>  (1) 
0.4

>  <PUBCHEM_CONFORMER_DIVERSEORDER>  (1) 
2
8
13
14
11
12
6
1
3
10
4
5
7
9
15

>  <PUBCHEM_MMFF94_PARTIAL_CHARGES>  (1) 
8
1 -0.68
19 0.4
2 -0.16
3 -0.36
4 -0.01
5 0.28
8 0.27
9 0.27

>  <PUBCHEM_EFFECTIVE_ROTOR_COUNT>  (1) 
2.2

>  <PUBCHEM_PHARMACOPHORE_FEATURES>  (1) 
3
1 1 acceptor
1 1 donor
6 3 5 6 7 8 9 rings

>  <PUBCHEM_HEAVY_ATOM_COUNT>  (1) 
9

>  <PUBCHEM_ATOM_DEF_STEREO_COUNT>  (1) 
0

>  <PUBCHEM_ATOM_UDEF_STEREO_COUNT>  (1) 
1

>  <PUBCHEM_BOND_DEF_STEREO_COUNT>  (1) 
0

>  <PUBCHEM_BOND_UDEF_STEREO_COUNT>  (1) 
0

>  <PUBCHEM_ISOTOPIC_ATOM_COUNT>  (1) 
0

>  <PUBCHEM_COMPONENT_COUNT>  (1) 
1

>  <PUBCHEM_CACTVS_TAUTO_COUNT>  (1) 
1

>  <PUBCHEM_CONFORMER_ID>  (1) 
0000A1FA00000002

>  <PUBCHEM_MMFF94_ENERGY>  (1) 
10.4224

>  <PUBCHEM_FEATURE_SELFOVERLAP>  (1) 
15.223

>  <PUBCHEM_SHAPE_FINGERPRINT>  (1) 
100427 49 17474955805562034135
12716758 59 18343302574188522850
16714656 1 18339363096697858031
18185500 45 18191861438599419823
20653085 51 18335437758951512732
21040471 1 18340480075931097243
23552423 10 18334011670848328802
29004967 10 14707201119763321092
5084963 1 18129945692587086946

>  <PUBCHEM_SHAPE_MULTIPOLES>  (1) 
163.52
3.06
1.79
0.66
1.47
0.31
0
-1.09
0.2
-0.76
0
0.02
0.02
-0.19

>  <PUBCHEM_SHAPE_SELFOVERLAP>  (1) 
318.975

>  <PUBCHEM_SHAPE_VOLUME>  (1) 
98.7

>  <PUBCHEM_COORDINATE_TYPE>  (1) 
2
5
10

$$$$
