4146
     RDKit          3D

 28 30  0  0  0  0  0  0  0  0999 V2000
    1.8138   -3.6252   -0.2535 S   0  0  0  0  0  0  0  0  0  0  0  0
    2.9218   -4.3635    0.3232 O   0  0  0  0  0  0  0  0  0  0  0  0
    1.3751   -3.9222   -1.6035 O   0  0  0  0  0  0  0  0  0  0  0  0
   -6.7157    1.2408   -1.1887 O   0  0  0  0  0  0  0  0  0  0  0  0
   -6.8986    3.5467    0.2485 O   0  0  0  0  0  0  0  0  0  0  0  0
    0.4753   -3.6867    0.8291 N   0  0  0  0  0  0  0  0  0  0  0  0
   -5.8412    2.6459    0.4318 N   0  0  0  0  0  0  0  0  0  0  0  0
    2.2528   -1.9116   -0.1927 C   0  0  0  0  0  0  0  0  0  0  0  0
    2.9387    0.7663   -0.0974 C   0  0  0  0  0  0  0  0  0  0  0  0
    3.1724   -1.4847    0.7480 C   0  0  0  0  0  0  0  0  0  0  0  0
    1.6672   -1.0340   -1.0871 C   0  0  0  0  0  0  0  0  0  0  0  0
    3.5183   -0.1343    0.7962 C   0  0  0  0  0  0  0  0  0  0  0  0
    2.0132    0.3165   -1.0391 C   0  0  0  0  0  0  0  0  0  0  0  0
    3.2981    2.1669   -0.0481 C   0  0  0  0  0  0  0  0  0  0  0  0
   -0.6158   -2.7881    0.6256 C   0  0  0  0  0  0  0  0  0  0  0  0
    2.5758    3.0444    0.7605 C   0  0  0  0  0  0  0  0  0  0  0  0
    4.3671    2.6398   -0.8092 C   0  0  0  0  0  0  0  0  0  0  0  0
   -0.9648   -1.8773    1.6228 C   0  0  0  0  0  0  0  0  0  0  0  0
   -1.3332   -2.8220   -0.5701 C   0  0  0  0  0  0  0  0  0  0  0  0
   -2.0313   -1.0003    1.4242 C   0  0  0  0  0  0  0  0  0  0  0  0
   -2.3996   -1.9450   -0.7688 C   0  0  0  0  0  0  0  0  0  0  0  0
    2.9224    4.3947    0.8082 C   0  0  0  0  0  0  0  0  0  0  0  0
    4.7138    3.9901   -0.7615 C   0  0  0  0  0  0  0  0  0  0  0  0
   -2.7486   -1.0342    0.2285 C   0  0  0  0  0  0  0  0  0  0  0  0
    3.9915    4.8675    0.0472 C   0  0  0  0  0  0  0  0  0  0  0  0
   -3.8411   -0.1359    0.0249 C   0  0  0  0  0  0  0  0  0  0  0  0
   -4.7609    0.6200   -0.1459 C   0  0  0  0  0  0  0  0  0  0  0  0
   -5.8667    1.5254   -0.3530 C   0  0  0  0  0  0  0  0  0  0  0  0
  1  2  2  0
  1  3  2  0
  1  6  1  0
  1  8  1  0
  4 28  2  0
  5  7  1  0
  6 15  1  0
  7 28  1  0
  8 10  2  0
  8 11  1  0
  9 12  2  0
  9 13  1  0
  9 14  1  0
 10 12  1  0
 11 13  2  0
 14 16  2  0
 14 17  1  0
 15 18  2  0
 15 19  1  0
 16 22  1  0
 17 23  2  0
 18 20  1  0
 19 21  2  0
 20 24  2  0
 21 24  1  0
 22 25  2  0
 23 25  1  0
 24 26  1  0
 26 27  3  0
 27 28  1  0
M  END
>  <PUBCHEM_COMPOUND_CID>  (1) 
4146

>  <PUBCHEM_CONFORMER_RMSD>  (1) 
0.8

>  <PUBCHEM_CONFORMER_DIVERSEORDER>  (1) 
1
17
18
4
2
12
3
16
10
13
6
11
9
19
14
7
5
8
15

>  <PUBCHEM_MMFF94_PARTIAL_CHARGES>  (1) 
42
1 1.45
10 -0.15
11 -0.15
12 -0.15
13 -0.15
15 0.2
16 -0.15
17 -0.15
18 -0.15
19 -0.15
2 -0.65
20 -0.15
21 -0.15
22 -0.15
23 -0.15
24 0.07
25 -0.15
26 -0.07
27 -0.1
28 0.74
29 0.15
3 -0.65
30 0.15
31 0.15
32 0.15
33 0.42
34 0.15
35 0.15
36 0.15
37 0.15
38 0.15
39 0.15
4 -0.57
40 0.15
41 0.15
42 0.15
43 0.37
44 0.4
5 -0.44
6 -0.76
7 -0.39
8 -0.01

>  <PUBCHEM_EFFECTIVE_ROTOR_COUNT>  (1) 
5

>  <PUBCHEM_PHARMACOPHORE_FEATURES>  (1) 
8
1 2 acceptor
1 3 acceptor
1 4 acceptor
1 6 donor
1 7 donor
6 14 16 17 22 23 25 rings
6 15 18 19 20 21 24 rings
6 8 9 10 11 12 13 rings

>  <PUBCHEM_HEAVY_ATOM_COUNT>  (1) 
28

>  <PUBCHEM_ATOM_DEF_STEREO_COUNT>  (1) 
0

>  <PUBCHEM_ATOM_UDEF_STEREO_COUNT>  (1) 
0

>  <PUBCHEM_BOND_DEF_STEREO_COUNT>  (1) 
0

>  <PUBCHEM_BOND_UDEF_STEREO_COUNT>  (1) 
0

>  <PUBCHEM_ISOTOPIC_ATOM_COUNT>  (1) 
0

>  <PUBCHEM_COMPONENT_COUNT>  (1) 
1

>  <PUBCHEM_CACTVS_TAUTO_COUNT>  (1) 
3

>  <PUBCHEM_CONFORMER_ID>  (1) 
0000103200000001

>  <PUBCHEM_MMFF94_ENERGY>  (1) 
65.0811

>  <PUBCHEM_FEATURE_SELFOVERLAP>  (1) 
40.615

>  <PUBCHEM_SHAPE_FINGERPRINT>  (1) 
10439779 11 18267575810853579512
10675989 125 18411420570756991561
10937287 8 18338796852515141654
11059845 2 17979325863338234416
11386260 185 18052813646961701319
11477941 20 16541867439346843028
11479125 193 18411709794382180065
12107183 9 18190725605382619176
13590594 115 17618797859445931835
13944108 23 18264496078916502356
13965767 371 17968366940153323366
14114206 34 16772416069199248697
14223995 32 18269548519952142280
14251764 75 18340215162987181313
14468879 13 18189339137756375523
15198563 99 17693401962049742198
15326921 28 17765702917181977040
15400415 2 18338516473114872397
155225 5 17618223253078479928
16067690 210 16464146252166363184
16988056 13 18267590104821186678
1768 85 18337118882651038145
17980427 23 18123436519696208178
20715895 44 18341045203949889587
21033648 29 18052818340992554184
21388113 180 18409451418661976425
21987440 362 18337399365379800556
23466295 7 9618991709523379731
2818148 4 9150633342830224642
3103668 31 17042052265101348334
376196 1 18335420213672986042
469060 322 16749327665595018050
508706 21 17549824829647921664
53794403 172 18410577266828231877
5951187 136 18271817769853135901
6036956 94 17397544685604998573
7288768 16 17823694355442900427
9849439 229 18262240040048716901
9981440 41 18192428803911363690

>  <PUBCHEM_SHAPE_MULTIPOLES>  (1) 
546.64
12.79
7.34
1.2
18.38
1.18
-0.05
22.29
1.71
-3.81
-0.09
0
-0.43
0.25

>  <PUBCHEM_SHAPE_SELFOVERLAP>  (1) 
1172.463

>  <PUBCHEM_SHAPE_VOLUME>  (1) 
299.7

>  <PUBCHEM_COORDINATE_TYPE>  (1) 
2
5
10

$$$$
