41465
     RDKit          3D

 18 17  0  0  1  0  0  0  0  0999 V2000
   -5.7779   -1.3303    0.6618 O   0  0  0  0  0  0  0  0  0  0  0  0
   -5.9997   -0.6623   -1.5338 O   0  0  0  0  0  0  0  0  0  0  0  0
    1.0383    0.4371    0.6535 C   0  0  0  0  0  0  0  0  0  0  0  0
   -0.2797    0.3152   -0.1136 C   0  0  0  0  0  0  0  0  0  0  0  0
    2.2336    0.1012   -0.2412 C   0  0  0  0  0  0  0  0  0  0  0  0
   -1.5132    0.6328    0.7376 C   0  0  0  0  0  0  0  0  0  0  0  0
    3.5499    0.1907    0.5330 C   0  0  0  0  0  0  0  0  0  0  0  0
   -2.8608    0.5803    0.0083 C   0  0  0  0  0  0  0  0  0  0  0  0
    4.7475   -0.1130   -0.3686 C   0  0  0  0  0  0  0  0  0  0  0  0
   -4.0500    0.9366    0.9085 C   0  0  0  0  0  0  0  0  0  0  0  0
    6.0657    0.0089    0.3977 C   0  0  0  0  0  0  0  0  0  0  0  0
   -5.4113    0.9538    0.1925 C   0  0  0  0  0  0  0  0  0  0  0  0
    7.2615   -0.3273   -0.4947 C   0  0  0  0  0  0  0  0  0  0  0  0
    8.5806   -0.1737    0.2621 C   0  0  0  0  0  0  0  0  0  0  0  0
   -5.4943    2.0184   -0.9004 C   0  0  0  0  0  0  0  0  0  0  0  0
   -5.7639   -0.4202   -0.3571 C   0  0  0  0  0  0  0  0  0  0  0  0
    9.7735   -0.4751   -0.6309 C   0  0  0  0  0  0  0  0  0  0  0  0
   -6.0998   -2.6730    0.2853 C   0  0  0  0  0  0  0  0  0  0  0  0
  1 16  1  0
  1 18  1  0
  2 16  2  0
  3  4  1  0
  3  5  1  0
  4  6  1  0
  5  7  1  0
  6  8  1  0
  7  9  1  0
  8 10  1  0
  9 11  1  0
 10 12  1  0
 11 13  1  0
 12 15  1  0
 12 16  1  0
 13 14  1  0
 14 17  1  0
M  END
>  <PUBCHEM_COMPOUND_CID>  (1) 
41465

>  <PUBCHEM_CONFORMER_RMSD>  (1) 
1.4

>  <PUBCHEM_CONFORMER_DIVERSEORDER>  (1) 
1
22
11
4
83
56
20
8
6
80
89
54
92
34
16
90
12
7
17
46
32
64
61
19
10
29
38
71
9
39
53
73
28
36
70
57
35
3
79
78
48
18
21
37
58
67
41
31
13
62
55
47
69
25
30
59
74
14
86
5
42
15
87
60
2
84
43
77
49
27
33
81
50
88
24
82
66
63
51
65
91
76
45
68
26
40
72
75
52
44
23
85

>  <PUBCHEM_MMFF94_PARTIAL_CHARGES>  (1) 
5
1 -0.43
12 0.06
16 0.66
18 0.28
2 -0.57

>  <PUBCHEM_EFFECTIVE_ROTOR_COUNT>  (1) 
13

>  <PUBCHEM_PHARMACOPHORE_FEATURES>  (1) 
3
1 15 hydrophobe
1 17 hydrophobe
1 2 acceptor

>  <PUBCHEM_HEAVY_ATOM_COUNT>  (1) 
18

>  <PUBCHEM_ATOM_DEF_STEREO_COUNT>  (1) 
0

>  <PUBCHEM_ATOM_UDEF_STEREO_COUNT>  (1) 
1

>  <PUBCHEM_BOND_DEF_STEREO_COUNT>  (1) 
0

>  <PUBCHEM_BOND_UDEF_STEREO_COUNT>  (1) 
0

>  <PUBCHEM_ISOTOPIC_ATOM_COUNT>  (1) 
0

>  <PUBCHEM_COMPONENT_COUNT>  (1) 
1

>  <PUBCHEM_CACTVS_TAUTO_COUNT>  (1) 
1

>  <PUBCHEM_CONFORMER_ID>  (1) 
0000A1F900000001

>  <PUBCHEM_MMFF94_ENERGY>  (1) 
6.5469

>  <PUBCHEM_FEATURE_SELFOVERLAP>  (1) 
15.223

>  <PUBCHEM_SHAPE_FINGERPRINT>  (1) 
10066227 49 18058454214901748102
11315181 36 18413110559046800281
12091667 2 17748830700567773617
125118 31 9007051362782081734
13885169 127 18408323272507862736
14251764 18 18335417955348031946
14251764 46 17132114628252705384
14428016 248 12031783691845177642
14729087 3 11674876701870917966
15152005 1 17835803380671104751
15461852 350 18261117383100548046
15716309 27 17632296795970788601
17093844 174 16558753395623897785
20621476 8 11097851887871645520
21150785 3 17676206883753114458
21315763 28 18411983551460472616
21360442 43 17676774261934643003
220451 1 18187644674574198729
22224240 67 18186519909066307586
23402539 116 18186518791968810437
23521765 1 18342459223606915352
246663 6 17274825749329175876
28498 318 14201397158916509968
33532 11 18131071481948841486
33684 2 17632577124576456936
59682541 35 17847057801550514098
67123 10 18412265048091055864
8209 1 18060138722523077848

>  <PUBCHEM_SHAPE_MULTIPOLES>  (1) 
358.69
29.62
1.53
0.96
52.87
0.78
0.12
7.63
5.1
-4.96
0.03
-0.75
-0.05
0.63

>  <PUBCHEM_SHAPE_SELFOVERLAP>  (1) 
656.277

>  <PUBCHEM_SHAPE_VOLUME>  (1) 
228.4

>  <PUBCHEM_COORDINATE_TYPE>  (1) 
2
5
10

$$$$
