41470
     RDKit          3D

  8  8  0  0  0  0  0  0  0  0999 V2000
   -2.6474   -0.3090   -0.4670 O   0  0  0  0  0  0  0  0  0  0  0  0
   -0.6576    0.1575   -0.0538 N   0  0  0  0  0  0  0  0  0  0  0  0
   -1.9139    0.3793    0.2494 N   0  0  0  0  0  0  0  0  0  0  0  0
   -0.0887   -1.0683    0.5209 C   0  0  0  0  0  0  0  0  0  0  0  0
    1.2796   -1.3808   -0.1047 C   0  0  0  0  0  0  0  0  0  0  0  0
    0.2082    1.3258    0.1774 C   0  0  0  0  0  0  0  0  0  0  0  0
    2.1543   -0.1713   -0.2343 C   0  0  0  0  0  0  0  0  0  0  0  0
    1.6655    1.0668   -0.0879 C   0  0  0  0  0  0  0  0  0  0  0  0
  1  3  2  0
  2  3  1  0
  2  4  1  0
  2  6  1  0
  4  5  1  0
  5  7  1  0
  6  8  1  0
  7  8  2  0
M  END
>  <PUBCHEM_COMPOUND_CID>  (1) 
41470

>  <PUBCHEM_CONFORMER_RMSD>  (1) 
0.4

>  <PUBCHEM_CONFORMER_DIVERSEORDER>  (1) 
1
5
2
6
3
4

>  <PUBCHEM_MMFF94_PARTIAL_CHARGES>  (1) 
10
1 -0.16
15 0.15
16 0.15
2 -0.36
3 -0.01
4 0.27
5 0.14
6 0.41
7 -0.29
8 -0.29

>  <PUBCHEM_EFFECTIVE_ROTOR_COUNT>  (1) 
1.8

>  <PUBCHEM_PHARMACOPHORE_FEATURES>  (1) 
1
6 2 4 5 6 7 8 rings

>  <PUBCHEM_HEAVY_ATOM_COUNT>  (1) 
8

>  <PUBCHEM_ATOM_DEF_STEREO_COUNT>  (1) 
0

>  <PUBCHEM_ATOM_UDEF_STEREO_COUNT>  (1) 
0

>  <PUBCHEM_BOND_DEF_STEREO_COUNT>  (1) 
0

>  <PUBCHEM_BOND_UDEF_STEREO_COUNT>  (1) 
0

>  <PUBCHEM_ISOTOPIC_ATOM_COUNT>  (1) 
0

>  <PUBCHEM_COMPONENT_COUNT>  (1) 
1

>  <PUBCHEM_CACTVS_TAUTO_COUNT>  (1) 
1

>  <PUBCHEM_CONFORMER_ID>  (1) 
0000A1FE00000001

>  <PUBCHEM_MMFF94_ENERGY>  (1) 
9.7321

>  <PUBCHEM_FEATURE_SELFOVERLAP>  (1) 
5.074

>  <PUBCHEM_SHAPE_FINGERPRINT>  (1) 
12897270 3 18410291419442977567
18185500 45 17977104556926627786
20096714 4 18409452526467632954
21040471 1 18265054824106911744
23552423 10 18190750721523209926
29004967 10 18409173194521360608

>  <PUBCHEM_SHAPE_MULTIPOLES>  (1) 
148.8
2.93
1.44
0.66
1.41
0.03
0.02
0.05
-0.47
-0.49
0.08
0.02
0.04
-0.02

>  <PUBCHEM_SHAPE_SELFOVERLAP>  (1) 
291.813

>  <PUBCHEM_SHAPE_VOLUME>  (1) 
89.7

>  <PUBCHEM_COORDINATE_TYPE>  (1) 
2
5
10

$$$$
