41472
     RDKit          3D

 11 11  0  0  1  0  0  0  0  0999 V2000
    3.3276   -0.6857    0.3776 O   0  0  0  0  0  0  0  0  0  0  0  0
   -3.5321    0.3279   -0.4218 O   0  0  0  0  0  0  0  0  0  0  0  0
    1.3288   -0.2023    0.0135 N   0  0  0  0  0  0  0  0  0  0  0  0
   -1.5741   -0.2873   -0.0511 N   0  0  0  0  0  0  0  0  0  0  0  0
    2.5587   -0.1902   -0.4522 N   0  0  0  0  0  0  0  0  0  0  0  0
   -2.8192   -0.3075    0.3614 N   0  0  0  0  0  0  0  0  0  0  0  0
    0.5461    1.0086   -0.3138 C   0  0  0  0  0  0  0  0  0  0  0  0
   -0.8639    0.9408    0.3186 C   0  0  0  0  0  0  0  0  0  0  0  0
    0.5938   -1.4294   -0.3304 C   0  0  0  0  0  0  0  0  0  0  0  0
   -0.7934   -1.4715    0.3156 C   0  0  0  0  0  0  0  0  0  0  0  0
    1.2277    2.2965    0.1826 C   0  0  0  0  0  0  0  0  0  0  0  0
  1  5  2  0
  2  6  2  0
  3  5  1  0
  3  7  1  0
  3  9  1  0
  4  6  1  0
  4  8  1  0
  4 10  1  0
  7  8  1  0
  7 11  1  0
  9 10  1  0
M  END
>  <PUBCHEM_COMPOUND_CID>  (1) 
41472

>  <PUBCHEM_CONFORMER_RMSD>  (1) 
0.6

>  <PUBCHEM_CONFORMER_DIVERSEORDER>  (1) 
1
26
8
19
32
37
28
38
21
22
25
4
16
34
23
39
27
29
18
24
20
3
14
33
15
36
6
17
10
30
31
13
35
5
7
9
11
12
2

>  <PUBCHEM_MMFF94_PARTIAL_CHARGES>  (1) 
10
1 -0.16
10 0.27
2 -0.16
3 -0.36
4 -0.36
5 -0.01
6 -0.01
7 0.27
8 0.27
9 0.27

>  <PUBCHEM_EFFECTIVE_ROTOR_COUNT>  (1) 
3.2

>  <PUBCHEM_PHARMACOPHORE_FEATURES>  (1) 
1
6 3 4 7 8 9 10 rings

>  <PUBCHEM_HEAVY_ATOM_COUNT>  (1) 
11

>  <PUBCHEM_ATOM_DEF_STEREO_COUNT>  (1) 
0

>  <PUBCHEM_ATOM_UDEF_STEREO_COUNT>  (1) 
1

>  <PUBCHEM_BOND_DEF_STEREO_COUNT>  (1) 
0

>  <PUBCHEM_BOND_UDEF_STEREO_COUNT>  (1) 
0

>  <PUBCHEM_ISOTOPIC_ATOM_COUNT>  (1) 
0

>  <PUBCHEM_COMPONENT_COUNT>  (1) 
1

>  <PUBCHEM_CACTVS_TAUTO_COUNT>  (1) 
1

>  <PUBCHEM_CONFORMER_ID>  (1) 
0000A20000000001

>  <PUBCHEM_MMFF94_ENERGY>  (1) 
23.0509

>  <PUBCHEM_FEATURE_SELFOVERLAP>  (1) 
5.074

>  <PUBCHEM_SHAPE_FINGERPRINT>  (1) 
10130415 120 18260546706189718362
10219947 1 18342458123261818214
14325111 11 18338237188622963501
14993402 34 18412831287118981638
16945 1 18341624706269536367
193761 8 17907016531848418454
20201158 50 18410293584159430495
20511035 2 18193563495552547990
21040471 1 18050572042699015813
21501502 16 18123471841279779479
23235685 24 18411416198257945135
23402655 69 18194667191407255901
23552423 10 17974010844812388822
241688 4 17908155273659925650
2748010 2 18122632913775774719
5084963 1 18131071541080909609

>  <PUBCHEM_SHAPE_MULTIPOLES>  (1) 
194.71
4.22
1.83
0.66
1.24
0.64
0
-0.35
0.06
-0.71
-0.1
0
0
0.09

>  <PUBCHEM_SHAPE_SELFOVERLAP>  (1) 
382.791

>  <PUBCHEM_SHAPE_VOLUME>  (1) 
116.5

>  <PUBCHEM_COORDINATE_TYPE>  (1) 
2
5
10

$$$$
