41487
     RDKit          3D

 21 22  0  0  1  0  0  0  0  0999 V2000
   -5.0252    0.3873   -0.7852 O   0  0  0  0  0  0  0  0  0  0  0  0
   -5.1894   -0.3527    1.3521 O   0  0  0  0  0  0  0  0  0  0  0  0
    5.6203    0.4618    0.0836 O   0  0  0  0  0  0  0  0  0  0  0  0
   -2.2240   -0.2708   -0.5654 C   0  0  0  0  0  0  0  0  0  0  0  0
   -3.0311    0.4947    0.5413 C   0  0  0  0  0  0  0  0  0  0  0  0
   -0.7597    0.0487   -0.5261 C   0  0  0  0  0  0  0  0  0  0  0  0
   -2.4333   -1.8038   -0.5193 C   0  0  0  0  0  0  0  0  0  0  0  0
   -0.3047    1.2270   -1.3520 C   0  0  0  0  0  0  0  0  0  0  0  0
   -2.9302    2.0247    0.3529 C   0  0  0  0  0  0  0  0  0  0  0  0
   -2.5318    0.1622    1.9630 C   0  0  0  0  0  0  0  0  0  0  0  0
    1.0075    1.8511   -0.8612 C   0  0  0  0  0  0  0  0  0  0  0  0
    0.1128   -0.6922    0.1786 C   0  0  0  0  0  0  0  0  0  0  0  0
    2.0027    0.8266   -0.3814 C   0  0  0  0  0  0  0  0  0  0  0  0
   -4.5181    0.1252    0.4475 C   0  0  0  0  0  0  0  0  0  0  0  0
    1.5487   -0.3931    0.1520 C   0  0  0  0  0  0  0  0  0  0  0  0
   -1.8165   -2.5285   -1.7123 C   0  0  0  0  0  0  0  0  0  0  0  0
    3.3735    1.1130   -0.3883 C   0  0  0  0  0  0  0  0  0  0  0  0
    2.4730   -1.3122    0.6629 C   0  0  0  0  0  0  0  0  0  0  0  0
    4.2874    0.1870    0.1138 C   0  0  0  0  0  0  0  0  0  0  0  0
    3.8380   -1.0231    0.6384 C   0  0  0  0  0  0  0  0  0  0  0  0
    6.5001   -0.5328    0.6051 C   0  0  0  0  0  0  0  0  0  0  0  0
  1 14  1  0
  2 14  2  0
  3 19  1  0
  3 21  1  0
  4  5  1  0
  4  6  1  0
  4  7  1  0
  5  9  1  0
  5 10  1  0
  5 14  1  0
  6  8  1  0
  6 12  2  0
  7 16  1  0
  8 11  1  0
 11 13  1  0
 12 15  1  0
 13 15  2  0
 13 17  1  0
 15 18  1  0
 17 19  2  0
 18 20  2  0
 19 20  1  0
M  END
>  <PUBCHEM_COMPOUND_CID>  (1) 
41487

>  <PUBCHEM_CONFORMER_RMSD>  (1) 
0.8

>  <PUBCHEM_CONFORMER_DIVERSEORDER>  (1) 
1
12
9
11
2
6
8
5
14
4
15
3
13
7
10

>  <PUBCHEM_MMFF94_PARTIAL_CHARGES>  (1) 
22
1 -0.65
11 0.14
12 -0.18
13 -0.14
14 0.66
15 0.03
17 -0.15
18 -0.15
19 0.08
2 -0.57
20 -0.15
21 0.28
3 -0.36
35 0.15
39 0.15
4 0.14
40 0.15
41 0.15
42 0.5
5 0.06
6 -0.28
8 0.14

>  <PUBCHEM_EFFECTIVE_ROTOR_COUNT>  (1) 
5.4

>  <PUBCHEM_PHARMACOPHORE_FEATURES>  (1) 
8
1 1 acceptor
1 16 hydrophobe
1 2 acceptor
1 3 acceptor
3 1 2 14 anion
3 5 9 10 hydrophobe
6 13 15 17 18 19 20 rings
6 6 8 11 12 13 15 rings

>  <PUBCHEM_HEAVY_ATOM_COUNT>  (1) 
21

>  <PUBCHEM_ATOM_DEF_STEREO_COUNT>  (1) 
0

>  <PUBCHEM_ATOM_UDEF_STEREO_COUNT>  (1) 
1

>  <PUBCHEM_BOND_DEF_STEREO_COUNT>  (1) 
0

>  <PUBCHEM_BOND_UDEF_STEREO_COUNT>  (1) 
0

>  <PUBCHEM_ISOTOPIC_ATOM_COUNT>  (1) 
0

>  <PUBCHEM_COMPONENT_COUNT>  (1) 
1

>  <PUBCHEM_CACTVS_TAUTO_COUNT>  (1) 
1

>  <PUBCHEM_CONFORMER_ID>  (1) 
0000A20F00000001

>  <PUBCHEM_MMFF94_ENERGY>  (1) 
65.7965

>  <PUBCHEM_FEATURE_SELFOVERLAP>  (1) 
40.677

>  <PUBCHEM_SHAPE_FINGERPRINT>  (1) 
10366900 7 16773790398551677827
11089746 13 18131062744919666280
11315181 36 17917426566369642354
11578080 2 18052787468625277061
12107183 9 17689716363779534472
12236239 1 18413389851789441786
12251169 10 18411419513919898341
12507557 5 18260551125880150113
12553582 1 18040983060491653826
12596602 18 18131351946621268050
12616971 3 18187922915656806590
12633257 1 17846785130397209409
12714826 92 14201392802806893215
13140716 1 18266181818940368480
13214271 11 17894349969054885095
13533116 47 17059778806080739022
13583140 156 17967813864762088967
13675066 3 18113054956417464061
13760787 5 17822007657719662134
14386348 63 16877665660242778584
15375462 189 18260542325407452848
15527383 91 18260548935330791140
15788980 27 17749103396710160070
1813 80 17603877658914223838
19141452 34 18342736334369579766
19489759 90 16989124253256330803
200 152 18335698352076772613
20261772 1 18410295825894780758
20600515 1 17489041451763510425
20645477 56 17989205949405628907
21033648 29 18059278877848431937
21267235 1 18187372012828115938
23184049 59 18408042892278379295
23402539 116 18113892776083410086
23557571 272 15769496529755226487
23559900 14 17203341017649432828
23622692 88 18413390946974499541
25147074 1 18267026252549982956
26918003 58 17095243614011667376
34797466 226 17203336658458580612
34934 24 18114734941296190014
3545911 37 18060421309279120186
3633792 109 17986950756984466053
5104073 3 18268423706581400018
542803 24 16845574214326002528
6992083 37 18410858771795990645

>  <PUBCHEM_SHAPE_MULTIPOLES>  (1) 
414.56
11.5
1.85
1.31
8.86
0.39
-0.1
0.29
-3.35
-0.78
0.72
-1.08
0.19
-1.05

>  <PUBCHEM_SHAPE_SELFOVERLAP>  (1) 
869.465

>  <PUBCHEM_SHAPE_VOLUME>  (1) 
233.9

>  <PUBCHEM_COORDINATE_TYPE>  (1) 
2
5
10

$$$$
