41483
     RDKit          3D

 12 11  0  0  0  0  0  0  0  0999 V2000
    0.4731   -0.0793    0.0762 O   0  0  0  0  0  0  0  0  0  0  0  0
   -0.6441    1.9026    0.3289 O   0  0  0  0  0  0  0  0  0  0  0  0
   -2.8131   -2.1430    0.0704 O   0  0  0  0  0  0  0  0  0  0  0  0
   -1.8371   -0.0846    0.2098 N   0  0  0  0  0  0  0  0  0  0  0  0
   -1.7227   -1.5615    0.0626 N   0  0  0  0  0  0  0  0  0  0  0  0
    2.8440   -0.3702   -0.0901 C   0  0  0  0  0  0  0  0  0  0  0  0
    4.2042    0.3218   -0.0882 C   0  0  0  0  0  0  0  0  0  0  0  0
    1.7057    0.6274    0.0708 C   0  0  0  0  0  0  0  0  0  0  0  0
    5.3400   -0.6820   -0.2057 C   0  0  0  0  0  0  0  0  0  0  0  0
   -3.1548    0.5175    0.3424 C   0  0  0  0  0  0  0  0  0  0  0  0
   -0.6687    0.6783    0.2146 C   0  0  0  0  0  0  0  0  0  0  0  0
   -3.7265    0.8730   -0.9917 C   0  0  0  0  0  0  0  0  0  0  0  0
  1  8  1  0
  1 11  1  0
  2 11  2  0
  3  5  2  0
  4  5  1  0
  4 10  1  0
  4 11  1  0
  6  7  1  0
  6  8  1  0
  7  9  1  0
 10 12  1  0
M  END
>  <PUBCHEM_COMPOUND_CID>  (1) 
41483

>  <PUBCHEM_CONFORMER_RMSD>  (1) 
0.8

>  <PUBCHEM_CONFORMER_DIVERSEORDER>  (1) 
1
89
55
69
86
29
10
48
88
73
12
85
53
5
30
66
15
33
92
44
72
102
58
70
79
47
75
43
13
36
83
35
28
100
74
6
68
22
40
84
99
4
41
103
24
98
87
11
45
104
71
49
50
8
62
64
82
80
91
14
20
63
19
34
56
42
60
78
94
17
97
67
90
65
38
93
95
101
61
76
25
96
16
9
57
7
105
21
26
18
37
32
39
46
52
31
3
54
59
77
81
2
27
23
51

>  <PUBCHEM_MMFF94_PARTIAL_CHARGES>  (1) 
8
1 -0.43
10 0.3
11 0.78
2 -0.57
3 -0.16
4 -0.18
5 -0.02
8 0.28

>  <PUBCHEM_EFFECTIVE_ROTOR_COUNT>  (1) 
7

>  <PUBCHEM_PHARMACOPHORE_FEATURES>  (1) 
2
1 2 acceptor
1 9 hydrophobe

>  <PUBCHEM_HEAVY_ATOM_COUNT>  (1) 
12

>  <PUBCHEM_ATOM_DEF_STEREO_COUNT>  (1) 
0

>  <PUBCHEM_ATOM_UDEF_STEREO_COUNT>  (1) 
0

>  <PUBCHEM_BOND_DEF_STEREO_COUNT>  (1) 
0

>  <PUBCHEM_BOND_UDEF_STEREO_COUNT>  (1) 
0

>  <PUBCHEM_ISOTOPIC_ATOM_COUNT>  (1) 
0

>  <PUBCHEM_COMPONENT_COUNT>  (1) 
1

>  <PUBCHEM_CACTVS_TAUTO_COUNT>  (1) 
1

>  <PUBCHEM_CONFORMER_ID>  (1) 
0000A20B00000001

>  <PUBCHEM_MMFF94_ENERGY>  (1) 
9.4371

>  <PUBCHEM_FEATURE_SELFOVERLAP>  (1) 
10.148

>  <PUBCHEM_SHAPE_FINGERPRINT>  (1) 
10014705 185 18114177557620728812
11062470 55 17167865248998621132
12932764 1 17531232981053511104
14123238 8 7925623410925967900
14911166 2 18411129226103085813
17834072 33 18260838129017665940
17834074 16 18271813380739632206
18186145 218 14562813295985734012
187816 3 18271237240825509229
200 152 17060333007348821084
20201158 50 18202285779656739166
20279233 1 18060426798205100742
20645477 70 16988285253603163046
20828058 44 18342177765493523770
20871999 31 18261105309694381759
21119208 17 18113618967465067316
22485316 2 18335136488739469274
22959321 105 18334858354904618580
23402539 116 18272927190097265269
23402655 69 18040999514664482212
23559900 14 18413385445870544424
3312278 4 18409731763608308906
4175511 318 18187362108327563741
58051976 100 18113616811096189631
58051976 378 18343304730636671566

>  <PUBCHEM_SHAPE_MULTIPOLES>  (1) 
219.38
9.22
1.54
0.7
9.84
0.57
0.09
1.16
1.51
-1.46
-0.08
-0.32
-0.1
0.28

>  <PUBCHEM_SHAPE_SELFOVERLAP>  (1) 
402.775

>  <PUBCHEM_SHAPE_VOLUME>  (1) 
138.7

>  <PUBCHEM_COORDINATE_TYPE>  (1) 
2
5
10

$$$$
