41495
     RDKit          3D

 23 23  0  0  1  0  0  0  0  0999 V2000
   -0.9759   -1.7465    0.0165 O   0  0  0  0  0  0  0  0  0  0  0  0
   -3.6594   -0.7871    1.1288 O   0  0  0  0  0  0  0  0  0  0  0  0
    0.9681    2.5779   -0.3127 O   0  0  0  0  0  0  0  0  0  0  0  0
   -4.3236   -1.3309   -1.0159 O   0  0  0  0  0  0  0  0  0  0  0  0
    3.6583   -0.0558    0.4121 O   0  0  0  0  0  0  0  0  0  0  0  0
    2.4543    0.5915    0.2117 N   0  0  0  0  0  0  0  0  0  0  0  0
   -2.5572    1.5485   -0.1830 C   0  0  0  0  0  0  0  0  0  0  0  0
   -2.3992    0.0768   -0.6482 C   0  0  0  0  0  0  0  0  0  0  0  0
   -1.3730    2.3789   -0.7247 C   0  0  0  0  0  0  0  0  0  0  0  0
   -3.8504    2.1569   -0.7724 C   0  0  0  0  0  0  0  0  0  0  0  0
   -2.6330    1.6749    1.3542 C   0  0  0  0  0  0  0  0  0  0  0  0
   -1.0764   -0.5421   -0.2143 C   0  0  0  0  0  0  0  0  0  0  0  0
   -0.0093    1.8328   -0.3641 C   0  0  0  0  0  0  0  0  0  0  0  0
    0.1059    0.3648   -0.1390 C   0  0  0  0  0  0  0  0  0  0  0  0
   -3.5742   -0.7645   -0.2318 C   0  0  0  0  0  0  0  0  0  0  0  0
    1.3082   -0.1554    0.1432 C   0  0  0  0  0  0  0  0  0  0  0  0
    1.4638   -1.6433    0.3781 C   0  0  0  0  0  0  0  0  0  0  0  0
    1.7185   -2.4104   -0.9225 C   0  0  0  0  0  0  0  0  0  0  0  0
    1.8462   -3.9048   -0.6694 C   0  0  0  0  0  0  0  0  0  0  0  0
   -4.7407   -1.5564    1.6646 C   0  0  0  0  0  0  0  0  0  0  0  0
    4.6547    0.9595    0.4389 C   0  0  0  0  0  0  0  0  0  0  0  0
    5.9861    0.3196    0.6537 C   0  0  0  0  0  0  0  0  0  0  0  0
    7.0079    0.4150   -0.2039 C   0  0  0  0  0  0  0  0  0  0  0  0
  1 12  2  0
  2 15  1  0
  2 20  1  0
  3 13  2  0
  4 15  2  0
  5  6  1  0
  5 21  1  0
  6 16  1  0
  7  8  1  0
  7  9  1  0
  7 10  1  0
  7 11  1  0
  8 12  1  0
  8 15  1  0
  9 13  1  0
 12 14  1  0
 13 14  1  0
 14 16  2  0
 16 17  1  0
 17 18  1  0
 18 19  1  0
 21 22  1  0
 22 23  2  0
M  END
>  <PUBCHEM_COMPOUND_CID>  (1) 
41495

>  <PUBCHEM_CONFORMER_RMSD>  (1) 
0.8

>  <PUBCHEM_CONFORMER_DIVERSEORDER>  (1) 
1
56
43
34
50
112
76
60
79
26
94
62
53
40
81
115
85
111
107
71
20
65
93
24
104
121
38
70
120
44
77
102
74
117
97
73
108
67
15
99
63
116
84
41
61
106
23
90
42
88
98
72
59
12
49
69
113
10
13
19
95
18
68
87
8
80
5
21
101
109
96
54
31
29
64
37
4
105
52
48
22
66
28
55
46
36
82
39
35
86
118
27
30
110
16
92
103
75
78
122
47
25
33
57
114
83
100
14
58
89
45
91
11
2
3
32
119
7
9
6
17
51

>  <PUBCHEM_MMFF94_PARTIAL_CHARGES>  (1) 
22
1 -0.57
12 0.49
13 0.49
14 0.03
15 0.66
16 -0.04
17 0.14
2 -0.43
20 0.28
21 0.42
22 -0.29
23 -0.3
3 -0.57
37 0.4
4 -0.57
46 0.15
47 0.15
48 0.15
5 -0.26
6 -0.52
8 0.12
9 0.06

>  <PUBCHEM_EFFECTIVE_ROTOR_COUNT>  (1) 
8.6

>  <PUBCHEM_PHARMACOPHORE_FEATURES>  (1) 
9
1 1 acceptor
1 14 anion
1 19 hydrophobe
1 23 hydrophobe
1 3 acceptor
1 4 acceptor
1 8 anion
3 7 10 11 hydrophobe
6 7 8 9 12 13 14 rings

>  <PUBCHEM_HEAVY_ATOM_COUNT>  (1) 
23

>  <PUBCHEM_ATOM_DEF_STEREO_COUNT>  (1) 
0

>  <PUBCHEM_ATOM_UDEF_STEREO_COUNT>  (1) 
1

>  <PUBCHEM_BOND_DEF_STEREO_COUNT>  (1) 
0

>  <PUBCHEM_BOND_UDEF_STEREO_COUNT>  (1) 
1

>  <PUBCHEM_ISOTOPIC_ATOM_COUNT>  (1) 
0

>  <PUBCHEM_COMPONENT_COUNT>  (1) 
1

>  <PUBCHEM_CACTVS_TAUTO_COUNT>  (1) 
32

>  <PUBCHEM_CONFORMER_ID>  (1) 
0000A21700000001

>  <PUBCHEM_MMFF94_ENERGY>  (1) 
66.8599

>  <PUBCHEM_FEATURE_SELFOVERLAP>  (1) 
45.685

>  <PUBCHEM_SHAPE_FINGERPRINT>  (1) 
10411042 1 17904761433495328662
10906281 52 18261405445982214013
11315181 36 17240481429456275872
11680986 33 18267024955759983469
12403259 415 18201148936769592000
12596602 18 17167576112238026872
12839892 36 18267846342792027698
13140716 1 18051137191886825915
13214271 11 18335978701218365341
13540713 4 18192722154699325223
13862211 1 18337101363136526514
14223421 5 18410296887152713995
14790565 3 18411139173569538308
15042514 8 18122061163741014010
15196674 1 18337947896874332926
16945 1 18338239379203899783
17980427 23 17748832908043814308
19591789 44 18339919428586808580
19784866 170 18410572851686422812
200 152 18272078436071843765
20028762 73 17986949850478069302
21033648 29 18129362934914981832
21236236 1 18410853265737769512
21267235 1 18335704987136522224
221490 88 18195532493619726582
22182313 1 18340215085097086127
2334 1 18337955589044897511
23366157 5 17972319517336841358
23402539 116 18339632429796650990
23559900 14 17908695138723839158
2748010 2 18266739091347905871
335352 9 18335977649573766445
34934 24 18263073323781208061
350125 39 18337956804151838320
474229 33 18409445912576881582
5104073 3 18337950078744152410
59755656 215 18411697677513955063
9709674 26 18122900937009983439

>  <PUBCHEM_SHAPE_MULTIPOLES>  (1) 
439
11.26
3.22
1.08
16.22
1.83
-0.26
-1.18
-2.24
-0.39
0.78
-1.02
0.19
1.16

>  <PUBCHEM_SHAPE_SELFOVERLAP>  (1) 
891.61

>  <PUBCHEM_SHAPE_VOLUME>  (1) 
252.7

>  <PUBCHEM_COORDINATE_TYPE>  (1) 
2
5
10

$$$$
