41499
     RDKit          3D

 20 22  0  0  0  0  0  0  0  0999 V2000
    1.0464   -1.9688   -0.4403 O   0  0  0  0  0  0  0  0  0  0  0  0
    0.4859    0.2627    0.0283 N   0  0  0  0  0  0  0  0  0  0  0  0
    2.1650    1.7867    0.2942 N   0  0  0  0  0  0  0  0  0  0  0  0
   -5.1447   -0.1095   -0.0078 N   0  0  0  0  0  0  0  0  0  0  0  0
    0.9448    1.5433    0.2299 N   0  0  0  0  0  0  0  0  0  0  0  0
    4.5374    1.2497    0.3484 C   0  0  0  0  0  0  0  0  0  0  0  0
    3.1024    0.8030    0.1894 C   0  0  0  0  0  0  0  0  0  0  0  0
    5.5879    0.2532   -0.1713 C   0  0  0  0  0  0  0  0  0  0  0  0
    2.8002   -0.4809   -0.0351 C   0  0  0  0  0  0  0  0  0  0  0  0
    1.3580   -0.8123   -0.1630 C   0  0  0  0  0  0  0  0  0  0  0  0
    5.1216   -1.1718   -0.1961 C   0  0  0  0  0  0  0  0  0  0  0  0
    3.8240   -1.4980   -0.1260 C   0  0  0  0  0  0  0  0  0  0  0  0
   -0.9537    0.1676    0.0192 C   0  0  0  0  0  0  0  0  0  0  0  0
   -3.7376   -0.0164    0.0016 C   0  0  0  0  0  0  0  0  0  0  0  0
   -1.5775   -1.0102    0.4306 C   0  0  0  0  0  0  0  0  0  0  0  0
   -1.7220    1.2534   -0.4013 C   0  0  0  0  0  0  0  0  0  0  0  0
   -2.9694   -1.1022    0.4218 C   0  0  0  0  0  0  0  0  0  0  0  0
   -3.1138    1.1615   -0.4100 C   0  0  0  0  0  0  0  0  0  0  0  0
   -5.8026   -1.3292    0.4171 C   0  0  0  0  0  0  0  0  0  0  0  0
   -5.9522    1.0181   -0.4295 C   0  0  0  0  0  0  0  0  0  0  0  0
  1 10  2  0
  2  5  1  0
  2 10  1  0
  2 13  1  0
  3  5  2  0
  3  7  1  0
  4 14  1  0
  4 19  1  0
  4 20  1  0
  6  7  1  0
  6  8  1  0
  7  9  2  0
  8 11  1  0
  9 10  1  0
  9 12  1  0
 11 12  2  0
 13 15  2  0
 13 16  1  0
 14 17  2  0
 14 18  1  0
 15 17  1  0
 16 18  2  0
M  END
>  <PUBCHEM_COMPOUND_CID>  (1) 
41499

>  <PUBCHEM_CONFORMER_RMSD>  (1) 
0.6

>  <PUBCHEM_CONFORMER_DIVERSEORDER>  (1) 
1
2

>  <PUBCHEM_MMFF94_PARTIAL_CHARGES>  (1) 
26
1 -0.57
10 0.62
11 -0.29
12 -0.15
13 0.12
14 0.1
15 -0.15
16 -0.15
17 -0.15
18 -0.15
19 0.37
2 -0.11
20 0.37
25 0.15
26 0.15
27 0.15
28 0.15
29 0.15
3 -0.17
30 0.15
4 -0.84
5 -0.06
6 0.14
7 0.03
8 0.14
9 0.01

>  <PUBCHEM_EFFECTIVE_ROTOR_COUNT>  (1) 
2.4

>  <PUBCHEM_PHARMACOPHORE_FEATURES>  (1) 
5
1 1 acceptor
1 4 cation
6 13 14 15 16 17 18 rings
6 2 3 5 7 9 10 rings
6 6 7 8 9 11 12 rings

>  <PUBCHEM_HEAVY_ATOM_COUNT>  (1) 
20

>  <PUBCHEM_ATOM_DEF_STEREO_COUNT>  (1) 
0

>  <PUBCHEM_ATOM_UDEF_STEREO_COUNT>  (1) 
0

>  <PUBCHEM_BOND_DEF_STEREO_COUNT>  (1) 
0

>  <PUBCHEM_BOND_UDEF_STEREO_COUNT>  (1) 
0

>  <PUBCHEM_ISOTOPIC_ATOM_COUNT>  (1) 
0

>  <PUBCHEM_COMPONENT_COUNT>  (1) 
1

>  <PUBCHEM_CACTVS_TAUTO_COUNT>  (1) 
1

>  <PUBCHEM_CONFORMER_ID>  (1) 
0000A21B00000001

>  <PUBCHEM_MMFF94_ENERGY>  (1) 
78.9912

>  <PUBCHEM_FEATURE_SELFOVERLAP>  (1) 
25.397

>  <PUBCHEM_SHAPE_FINGERPRINT>  (1) 
10 15 18337100285653812224
11471102 20 18413670210180176448
12011746 2 18411423903846051246
12107183 9 17621043057873355707
12236239 1 17060621100759287081
12403259 415 18335974311704039389
13288520 33 18410013217505626957
13402501 40 18409167709784806887
13533116 47 13686029661375921860
13862211 1 18411978048715848774
1420 363 18334862722939080011
14251764 18 18333728035945679922
14341114 176 18410860966281516521
14386348 63 18407762542604212075
15196674 1 18410573976577353809
17834072 33 18201717375036855679
19141452 34 18341612654966025743
19489759 90 16950280702887345581
200 152 18060699490073787753
20645477 70 18343303626672087246
21267235 1 18411990151912362518
21279426 13 18265331698878275628
21682296 61 18058459703242126894
221357 26 18413105035180891012
2215653 11 18411695474438162917
23402539 116 18333445456940938583
23522609 53 18194152704878852077
23557571 272 17676768669380177965
23559900 14 18409162238334419865
239999 70 18412266125769359046
26918003 58 18413671314060572763
2871803 45 18334575711796854674
29717793 49 17561367248949012964
3004659 81 18187085010592719554
335352 9 18411418401497066615
33824 294 18411136918479378482
350125 39 18410294709251302325
351380 180 18409165519499308931
3545911 37 18410575097938390412
4073 2 18041565831413542419
4214541 1 18410012113715135385
4340502 62 17022618681033201546
4463277 17 18409730651454437117
465052 167 18343587330705150086
5104073 3 18411981325728196401
542803 24 16272210794815120073
59755656 215 18408887304329247958
9709674 26 18262521527636159179
9999458 23 18187082888736171428

>  <PUBCHEM_SHAPE_MULTIPOLES>  (1) 
385.8
13.67
1.76
0.68
5.81
0.04
0
0.84
-0.28
-0.37
0
0.08
0.01
0.88

>  <PUBCHEM_SHAPE_SELFOVERLAP>  (1) 
834.595

>  <PUBCHEM_SHAPE_VOLUME>  (1) 
209.4

>  <PUBCHEM_COORDINATE_TYPE>  (1) 
2
5
10

$$$$
