41504
     RDKit          3D

 12 13  0  0  0  0  0  0  0  0999 V2000
    0.8281   -0.5389   -0.3312 N   0  0  0  0  0  0  0  0  0  0  0  0
   -0.7059   -2.0788    0.1331 N   0  0  0  0  0  0  0  0  0  0  0  0
    4.2001    0.9411    0.2732 N   0  0  0  0  0  0  0  0  0  0  0  0
    2.1231    0.0226   -0.6371 C   0  0  0  0  0  0  0  0  0  0  0  0
   -0.3498    0.1489   -0.1898 C   0  0  0  0  0  0  0  0  0  0  0  0
   -1.2920   -0.8342    0.0996 C   0  0  0  0  0  0  0  0  0  0  0  0
    2.8918    0.4036    0.6249 C   0  0  0  0  0  0  0  0  0  0  0  0
    0.5640   -1.8650   -0.1292 C   0  0  0  0  0  0  0  0  0  0  0  0
   -0.6624    1.5052   -0.2872 C   0  0  0  0  0  0  0  0  0  0  0  0
   -2.6304   -0.4602    0.3072 C   0  0  0  0  0  0  0  0  0  0  0  0
   -1.9992    1.8597   -0.0778 C   0  0  0  0  0  0  0  0  0  0  0  0
   -2.9673    0.8960    0.2143 C   0  0  0  0  0  0  0  0  0  0  0  0
  1  4  1  0
  1  5  1  0
  1  8  1  0
  2  6  1  0
  2  8  2  0
  3  7  1  0
  4  7  1  0
  5  6  2  0
  5  9  1  0
  6 10  1  0
  9 11  2  0
 10 12  2  0
 11 12  1  0
M  END
>  <PUBCHEM_COMPOUND_CID>  (1) 
41504

>  <PUBCHEM_CONFORMER_RMSD>  (1) 
0.6

>  <PUBCHEM_CONFORMER_DIVERSEORDER>  (1) 
1
5
4
3
2

>  <PUBCHEM_MMFF94_PARTIAL_CHARGES>  (1) 
19
1 0.05
10 -0.15
11 -0.15
12 -0.15
17 0.15
18 0.15
19 0.15
2 -0.57
20 0.15
21 0.15
22 0.36
23 0.36
3 -0.99
4 0.26
5 -0.15
6 0.23
7 0.27
8 0.04
9 -0.15

>  <PUBCHEM_EFFECTIVE_ROTOR_COUNT>  (1) 
2

>  <PUBCHEM_PHARMACOPHORE_FEATURES>  (1) 
5
1 3 cation
1 3 donor
3 1 2 8 cation
5 1 2 5 6 8 rings
6 5 6 9 10 11 12 rings

>  <PUBCHEM_HEAVY_ATOM_COUNT>  (1) 
12

>  <PUBCHEM_ATOM_DEF_STEREO_COUNT>  (1) 
0

>  <PUBCHEM_ATOM_UDEF_STEREO_COUNT>  (1) 
0

>  <PUBCHEM_BOND_DEF_STEREO_COUNT>  (1) 
0

>  <PUBCHEM_BOND_UDEF_STEREO_COUNT>  (1) 
0

>  <PUBCHEM_ISOTOPIC_ATOM_COUNT>  (1) 
0

>  <PUBCHEM_COMPONENT_COUNT>  (1) 
1

>  <PUBCHEM_CACTVS_TAUTO_COUNT>  (1) 
1

>  <PUBCHEM_CONFORMER_ID>  (1) 
0000A22000000001

>  <PUBCHEM_MMFF94_ENERGY>  (1) 
13.5933

>  <PUBCHEM_FEATURE_SELFOVERLAP>  (1) 
25.479

>  <PUBCHEM_SHAPE_FINGERPRINT>  (1) 
11132069 177 18410295813157786317
13024252 1 13623518065612474279
13380535 76 18410853239635643398
14325111 11 18411138000504798652
14614273 12 18188484671224438157
15219456 202 18202008694384557502
15775835 57 18409166597720762344
16945 1 18335714857303755855
17846911 113 18411976957709649241
20510252 161 18342742922443138984
20645464 45 18201723959321797756
20871998 184 18198911489971783711
21028194 46 18340772546308883252
21040471 1 18336557018564713247
23402539 116 18270108153852616151
23552423 10 17900553285020995887
23559900 14 18271816696912866230
2748010 2 18191881024008856039
305870 269 18261951821799362458
53812653 166 18343021068983686441
6333449 129 18341891921938902677
7364860 26 17981888549215144886

>  <PUBCHEM_SHAPE_MULTIPOLES>  (1) 
232.01
4.97
1.94
0.71
4.03
0.42
0
-2.31
-0.86
-0.55
0.02
0.15
-0.04
0.25

>  <PUBCHEM_SHAPE_SELFOVERLAP>  (1) 
496.722

>  <PUBCHEM_SHAPE_VOLUME>  (1) 
130.1

>  <PUBCHEM_COORDINATE_TYPE>  (1) 
2
5
10

$$$$
