41509
     RDKit          3D

  9  8  0  0  0  0  0  0  0  0999 V2000
   -0.8582    0.0520   -0.3831 O   0  0  0  0  0  0  0  0  0  0  0  0
   -2.5415   -0.4052    1.1317 O   0  0  0  0  0  0  0  0  0  0  0  0
    2.0423    0.8497   -0.4557 C   0  0  0  0  0  0  0  0  0  0  0  0
    1.4566   -0.5129   -0.1657 C   0  0  0  0  0  0  0  0  0  0  0  0
    0.0927   -0.5748    0.4671 C   0  0  0  0  0  0  0  0  0  0  0  0
    2.8533    1.4036    0.7078 C   0  0  0  0  0  0  0  0  0  0  0  0
    2.1350   -1.6347   -0.4562 C   0  0  0  0  0  0  0  0  0  0  0  0
   -2.1472    0.0666    0.0738 C   0  0  0  0  0  0  0  0  0  0  0  0
   -3.0329    0.7557   -0.9196 C   0  0  0  0  0  0  0  0  0  0  0  0
  1  5  1  0
  1  8  1  0
  2  8  2  0
  3  4  1  0
  3  6  1  0
  4  5  1  0
  4  7  2  0
  8  9  1  0
M  END
>  <PUBCHEM_COMPOUND_CID>  (1) 
41509

>  <PUBCHEM_CONFORMER_RMSD>  (1) 
0.6

>  <PUBCHEM_CONFORMER_DIVERSEORDER>  (1) 
2
42
56
17
3
62
61
35
60
1
39
38
12
9
36
49
31
15
20
4
29
37
18
50
32
7
24
54
46
6
23
40
30
21
48
11
55
44
34
53
28
47
51
10
58
8
27
22
41
19
52
25
13
16
57
5
33
45
14
43
59
26

>  <PUBCHEM_MMFF94_PARTIAL_CHARGES>  (1) 
10
1 -0.43
17 0.15
18 0.15
2 -0.57
3 0.14
4 -0.28
5 0.42
7 -0.3
8 0.66
9 0.06

>  <PUBCHEM_EFFECTIVE_ROTOR_COUNT>  (1) 
4

>  <PUBCHEM_PHARMACOPHORE_FEATURES>  (1) 
3
1 2 acceptor
1 6 hydrophobe
1 7 hydrophobe

>  <PUBCHEM_HEAVY_ATOM_COUNT>  (1) 
9

>  <PUBCHEM_ATOM_DEF_STEREO_COUNT>  (1) 
0

>  <PUBCHEM_ATOM_UDEF_STEREO_COUNT>  (1) 
0

>  <PUBCHEM_BOND_DEF_STEREO_COUNT>  (1) 
0

>  <PUBCHEM_BOND_UDEF_STEREO_COUNT>  (1) 
0

>  <PUBCHEM_ISOTOPIC_ATOM_COUNT>  (1) 
0

>  <PUBCHEM_COMPONENT_COUNT>  (1) 
1

>  <PUBCHEM_CACTVS_TAUTO_COUNT>  (1) 
1

>  <PUBCHEM_CONFORMER_ID>  (1) 
0000A22500000002

>  <PUBCHEM_MMFF94_ENERGY>  (1) 
5.6691

>  <PUBCHEM_FEATURE_SELFOVERLAP>  (1) 
15.223

>  <PUBCHEM_SHAPE_FINGERPRINT>  (1) 
10857977 72 17531255001545704713
12932741 1 18187089416574940135
12932764 1 18261401026619310379
14390081 3 18187641384444717669
19973954 147 18261117339650059429
20645464 45 18040149617518552265
20653085 51 18197494022537433909
20711985 344 16829827816374018670
20715346 28 18259709994925969231
230 275 18412826910679409480
23552423 10 16056334812179394751
3248919 1 17132115714889961527
8030462 33 16773793692965511143

>  <PUBCHEM_SHAPE_MULTIPOLES>  (1) 
173.48
5.09
1.38
0.95
2.12
0.1
0.07
-1.35
-0.15
-1.36
-0.05
0.36
-0.05
0.69

>  <PUBCHEM_SHAPE_SELFOVERLAP>  (1) 
319.763

>  <PUBCHEM_SHAPE_VOLUME>  (1) 
110.2

>  <PUBCHEM_COORDINATE_TYPE>  (1) 
2
5
10

$$$$
