41501
     RDKit          3D

 18 19  0  0  0  0  0  0  0  0999 V2000
   -0.6887   -2.2858    0.3526 O   0  0  0  0  0  0  0  0  0  0  0  0
   -2.4808   -0.4260    1.8985 O   0  0  0  0  0  0  0  0  0  0  0  0
    1.5151    1.7351    0.1619 N   0  0  0  0  0  0  0  0  0  0  0  0
   -2.8869   -0.3221   -0.4124 N   0  0  0  0  0  0  0  0  0  0  0  0
    1.7107   -0.4804   -0.0120 C   0  0  0  0  0  0  0  0  0  0  0  0
    2.4174    0.7226   -0.0745 C   0  0  0  0  0  0  0  0  0  0  0  0
    0.3547   -0.1540    0.2698 C   0  0  0  0  0  0  0  0  0  0  0  0
    0.2658    1.2152    0.3711 C   0  0  0  0  0  0  0  0  0  0  0  0
   -4.2503    0.1535   -0.3872 C   0  0  0  0  0  0  0  0  0  0  0  0
   -0.7571   -1.0477    0.4294 C   0  0  0  0  0  0  0  0  0  0  0  0
    2.4071   -1.6874   -0.2204 C   0  0  0  0  0  0  0  0  0  0  0  0
    3.7908    0.7790   -0.3361 C   0  0  0  0  0  0  0  0  0  0  0  0
    1.8251    3.1483    0.1892 C   0  0  0  0  0  0  0  0  0  0  0  0
   -2.1564   -0.5581    0.7295 C   0  0  0  0  0  0  0  0  0  0  0  0
    3.7812   -1.6463   -0.4829 C   0  0  0  0  0  0  0  0  0  0  0  0
    4.4604   -0.4310   -0.5395 C   0  0  0  0  0  0  0  0  0  0  0  0
   -5.0231   -0.3915   -1.5814 C   0  0  0  0  0  0  0  0  0  0  0  0
   -4.2849    1.6764   -0.3556 C   0  0  0  0  0  0  0  0  0  0  0  0
  1 10  2  0
  2 14  2  0
  3  6  1  0
  3  8  1  0
  3 13  1  0
  4  9  1  0
  4 14  1  0
  5  6  2  0
  5  7  1  0
  5 11  1  0
  6 12  1  0
  7  8  2  0
  7 10  1  0
  9 17  1  0
  9 18  1  0
 10 14  1  0
 11 15  2  0
 12 16  2  0
 15 16  1  0
M  END
>  <PUBCHEM_COMPOUND_CID>  (1) 
41501

>  <PUBCHEM_CONFORMER_RMSD>  (1) 
0.6

>  <PUBCHEM_CONFORMER_DIVERSEORDER>  (1) 
1
41
33
20
3
34
16
25
43
19
7
24
13
17
32
42
37
15
8
21
23
12
14
38
11
22
39
18
26
5
40
4
2
6
30
29
9
36
35
10
31
28
27

>  <PUBCHEM_MMFF94_PARTIAL_CHARGES>  (1) 
21
1 -0.57
10 0.66
11 -0.15
12 -0.15
13 0.26
14 0.63
15 -0.15
16 -0.15
19 0.15
2 -0.57
21 0.15
22 0.15
26 0.37
27 0.15
28 0.15
3 0.05
4 -0.73
6 -0.15
7 -0.09
8 -0.3
9 0.3

>  <PUBCHEM_EFFECTIVE_ROTOR_COUNT>  (1) 
4

>  <PUBCHEM_PHARMACOPHORE_FEATURES>  (1) 
7
1 1 acceptor
1 2 acceptor
1 3 cation
1 4 donor
3 9 17 18 hydrophobe
5 3 5 6 7 8 rings
6 5 6 11 12 15 16 rings

>  <PUBCHEM_HEAVY_ATOM_COUNT>  (1) 
18

>  <PUBCHEM_ATOM_DEF_STEREO_COUNT>  (1) 
0

>  <PUBCHEM_ATOM_UDEF_STEREO_COUNT>  (1) 
0

>  <PUBCHEM_BOND_DEF_STEREO_COUNT>  (1) 
0

>  <PUBCHEM_BOND_UDEF_STEREO_COUNT>  (1) 
0

>  <PUBCHEM_ISOTOPIC_ATOM_COUNT>  (1) 
0

>  <PUBCHEM_COMPONENT_COUNT>  (1) 
1

>  <PUBCHEM_CACTVS_TAUTO_COUNT>  (1) 
2

>  <PUBCHEM_CONFORMER_ID>  (1) 
0000A21D00000001

>  <PUBCHEM_MMFF94_ENERGY>  (1) 
25.6015

>  <PUBCHEM_FEATURE_SELFOVERLAP>  (1) 
35.613

>  <PUBCHEM_SHAPE_FINGERPRINT>  (1) 
10498660 4 17168971314989299293
10608611 8 18263927815892843521
11471102 20 18411138047944500878
116883 192 18126291831154809828
12236239 1 17418375787479029511
12403259 415 17967811674365730381
124424 183 18260552220801249274
12553582 1 18269295524807612034
12654215 9 18334579053371062156
12730499 353 18114181909319372475
13134695 92 18412825781087238556
13464514 151 18116995477627269337
13571099 22 18342177765018776570
14911166 2 18409732858993787326
15099037 51 18408886209064874222
15375358 24 18408886252425925874
15848700 24 18343581811629606212
16945 1 18340219582391880112
17349148 13 17561369478163756895
18186145 218 18342179981438185827
19050596 39 8214142967072654263
200 152 17918273147373356811
20233049 118 18187366515095968804
20645477 70 18412266103809414414
21029758 11 18342459218784615880
21069387 34 17704081693560329518
21637258 2 15625672596781866036
221357 26 18410846639014890277
221490 88 18267025144628170795
22289505 5 18336819801770002964
22892500 29 18409725196798466308
231179 274 17240757372230006471
23402539 116 18272367517024133422
23402655 69 18341610378612103997
23493267 7 17385730209202922313
23557571 272 17604997103516953035
23559900 14 18341894130237934176
25 1 18188206507683271715
2748010 2 17907310097564138976
34934 24 18411415133797269146
4028521 119 17895463761955420389
4072396 5 18336250298508604786
4463277 69 17059503902888963510
495365 180 18058437867564674600
5281201 14 18410292523539885525
59027123 10 18272364291841544797
6049 1 17896055397594420017
7471813 234 17632572760151596080
74978 22 18340210798724986250
7615 1 17346331409303456729
9709674 26 18265332983342717035
9971528 1 18272084989996894864

>  <PUBCHEM_SHAPE_MULTIPOLES>  (1) 
348.73
9.23
2.31
1.02
6.79
1.32
-0.11
-0.3
3.66
-1.45
-0.11
1.07
-0.19
0.36

>  <PUBCHEM_SHAPE_SELFOVERLAP>  (1) 
742.636

>  <PUBCHEM_SHAPE_VOLUME>  (1) 
196.9

>  <PUBCHEM_COORDINATE_TYPE>  (1) 
2
5
10

$$$$
