41515
     RDKit          3D

 13 14  0  0  1  0  0  0  0  0999 V2000
    1.6053    1.4136   -0.1702 C   0  0  0  0  0  0  0  0  0  0  0  0
    0.1906    0.8659   -0.1494 C   0  0  0  0  0  0  0  0  0  0  0  0
    2.5823    0.4024   -0.7918 C   0  0  0  0  0  0  0  0  0  0  0  0
   -0.0381   -0.5234   -0.0259 C   0  0  0  0  0  0  0  0  0  0  0  0
    1.1161   -1.4558    0.0232 C   0  0  0  0  0  0  0  0  0  0  0  0
    2.3288   -1.0076   -0.3484 C   0  0  0  0  0  0  0  0  0  0  0  0
    2.0354    1.8058    1.2489 C   0  0  0  0  0  0  0  0  0  0  0  0
   -0.8945    1.7560   -0.2017 C   0  0  0  0  0  0  0  0  0  0  0  0
   -1.3644   -0.9789    0.0477 C   0  0  0  0  0  0  0  0  0  0  0  0
   -2.4357   -0.0838   -0.0091 C   0  0  0  0  0  0  0  0  0  0  0  0
   -2.2016    1.2813   -0.1352 C   0  0  0  0  0  0  0  0  0  0  0  0
    0.9112   -2.8811    0.4460 C   0  0  0  0  0  0  0  0  0  0  0  0
   -3.8357   -0.5944    0.0659 C   0  0  0  0  0  0  0  0  0  0  0  0
  1  2  1  0
  1  3  1  0
  1  7  1  0
  2  4  2  0
  2  8  1  0
  3  6  1  0
  4  5  1  0
  4  9  1  0
  5  6  2  0
  5 12  1  0
  8 11  2  0
  9 10  2  0
 10 11  1  0
 10 13  1  0
M  END
>  <PUBCHEM_COMPOUND_CID>  (1) 
41515

>  <PUBCHEM_CONFORMER_RMSD>  (1) 
0.4

>  <PUBCHEM_CONFORMER_DIVERSEORDER>  (1) 
1
2

>  <PUBCHEM_MMFF94_PARTIAL_CHARGES>  (1) 
16
1 0.14
10 -0.14
11 -0.15
12 0.14
13 0.14
17 0.15
2 -0.14
21 0.15
22 0.15
23 0.15
3 0.14
4 0.03
5 -0.17
6 -0.29
8 -0.15
9 -0.15

>  <PUBCHEM_EFFECTIVE_ROTOR_COUNT>  (1) 
0.4

>  <PUBCHEM_PHARMACOPHORE_FEATURES>  (1) 
2
6 1 2 3 4 5 6 rings
6 2 4 8 9 10 11 rings

>  <PUBCHEM_HEAVY_ATOM_COUNT>  (1) 
13

>  <PUBCHEM_ATOM_DEF_STEREO_COUNT>  (1) 
0

>  <PUBCHEM_ATOM_UDEF_STEREO_COUNT>  (1) 
1

>  <PUBCHEM_BOND_DEF_STEREO_COUNT>  (1) 
0

>  <PUBCHEM_BOND_UDEF_STEREO_COUNT>  (1) 
0

>  <PUBCHEM_ISOTOPIC_ATOM_COUNT>  (1) 
0

>  <PUBCHEM_COMPONENT_COUNT>  (1) 
1

>  <PUBCHEM_CACTVS_TAUTO_COUNT>  (1) 
1

>  <PUBCHEM_CONFORMER_ID>  (1) 
0000A22B00000001

>  <PUBCHEM_MMFF94_ENERGY>  (1) 
32.1599

>  <PUBCHEM_FEATURE_SELFOVERLAP>  (1) 
10.172

>  <PUBCHEM_SHAPE_FINGERPRINT>  (1) 
10967382 1 18409451418271352423
11471102 20 18409446981949703597
12423570 1 10101812932341751864
12897270 3 18408606959055114381
13140716 1 18338516464249774171
13380535 76 18197494245685627804
14251717 144 18339075012309908375
15001771 113 17762908662560384750
15775835 57 18271814569759485036
161256 15 18411981355835203629
16945 1 18337673018487328053
17990270 104 18265333897943956199
193761 8 18120654630475261365
20201158 50 18334579018758363083
20559304 39 18337951173438825995
20645477 70 18343016684391828695
21040471 1 18193277622761369724
21501502 16 18264774263963555357
2334 1 18050006885164215295
23419403 2 16168554147418081510
23552423 10 18261961730246495447
2748010 2 18193284219541304335
5084963 1 18342185487243497628
5255222 1 18264768744635486349
528886 8 18336829800442999738
53812653 166 18341895237943922520
5493415 88 18265328400512333498
581208 293 18340482391245647325
63268167 104 18266183820463654833
7364860 26 18342453690897948618
81228 2 17473540734065912338

>  <PUBCHEM_SHAPE_MULTIPOLES>  (1) 
267.53
4.39
2.46
0.82
3.09
0.95
0.11
-0.06
-0.14
-1.05
0.47
-0.4
-0.19
0.3

>  <PUBCHEM_SHAPE_SELFOVERLAP>  (1) 
566.971

>  <PUBCHEM_SHAPE_VOLUME>  (1) 
145.2

>  <PUBCHEM_COORDINATE_TYPE>  (1) 
2
5
10

$$$$
