41524
     RDKit          3D

 22 23  0  0  0  0  0  0  0  0999 V2000
    3.4949   -2.0017    0.1353 O   0  0  0  0  0  0  0  0  0  0  0  0
    1.6022    2.4023   -0.0890 O   0  0  0  0  0  0  0  0  0  0  0  0
    4.9371    0.2187   -0.0712 O   0  0  0  0  0  0  0  0  0  0  0  0
   -4.1136    0.7656    0.1539 N   0  0  0  0  0  0  0  0  0  0  0  0
   -3.8377   -1.0918   -1.3565 N   0  0  0  0  0  0  0  0  0  0  0  0
   -2.6570    1.0251    2.0073 N   0  0  0  0  0  0  0  0  0  0  0  0
   -5.5419    0.4869   -1.6867 N   0  0  0  0  0  0  0  0  0  0  0  0
    0.1199   -0.8015    0.8505 C   0  0  0  0  0  0  0  0  0  0  0  0
   -1.1945   -1.3432    1.3005 C   0  0  0  0  0  0  0  0  0  0  0  0
    2.5798    0.2130    0.0118 C   0  0  0  0  0  0  0  0  0  0  0  0
    1.2114   -1.6564    0.6976 C   0  0  0  0  0  0  0  0  0  0  0  0
    0.2583    0.5606    0.5840 C   0  0  0  0  0  0  0  0  0  0  0  0
   -2.3772   -0.8256    0.5067 C   0  0  0  0  0  0  0  0  0  0  0  0
    2.4413   -1.1492    0.2782 C   0  0  0  0  0  0  0  0  0  0  0  0
    1.4882    1.0680    0.1646 C   0  0  0  0  0  0  0  0  0  0  0  0
   -3.0600    0.3018    0.8577 C   0  0  0  0  0  0  0  0  0  0  0  0
    3.8656    0.7436   -0.4269 C   0  0  0  0  0  0  0  0  0  0  0  0
   -2.7925   -1.4985   -0.6063 C   0  0  0  0  0  0  0  0  0  0  0  0
    3.9189    1.9629   -1.3376 C   0  0  0  0  0  0  0  0  0  0  0  0
   -4.4436    0.0311   -0.9256 C   0  0  0  0  0  0  0  0  0  0  0  0
    3.6669   -2.6100   -1.1428 C   0  0  0  0  0  0  0  0  0  0  0  0
    0.4335    3.1984    0.0946 C   0  0  0  0  0  0  0  0  0  0  0  0
  1 14  1  0
  1 21  1  0
  2 15  1  0
  2 22  1  0
  3 17  2  0
  4 16  2  0
  4 20  1  0
  5 18  1  0
  5 20  2  0
  6 16  1  0
  7 20  1  0
  8  9  1  0
  8 11  2  0
  8 12  1  0
  9 13  1  0
 10 14  2  0
 10 15  1  0
 10 17  1  0
 11 14  1  0
 12 15  2  0
 13 16  1  0
 13 18  2  0
 17 19  1  0
M  END
>  <PUBCHEM_COMPOUND_CID>  (1) 
41524

>  <PUBCHEM_CONFORMER_RMSD>  (1) 
0.8

>  <PUBCHEM_CONFORMER_DIVERSEORDER>  (1) 
13
19
1
20
11
14
17
16
12
10
18
21
8
9
4
15
5
3
7
2
6

>  <PUBCHEM_MMFF94_PARTIAL_CHARGES>  (1) 
29
1 -0.36
10 0.09
11 -0.15
12 -0.15
13 -0.14
14 0.08
15 0.08
16 0.41
17 0.42
18 0.16
19 0.06
2 -0.36
20 0.72
21 0.28
22 0.28
25 0.15
26 0.15
27 0.15
3 -0.57
31 0.4
32 0.4
39 0.4
4 -0.62
40 0.4
5 -0.62
6 -0.9
7 -0.9
8 -0.14
9 0.29

>  <PUBCHEM_EFFECTIVE_ROTOR_COUNT>  (1) 
5

>  <PUBCHEM_PHARMACOPHORE_FEATURES>  (1) 
8
1 1 acceptor
1 2 acceptor
1 3 acceptor
1 6 donor
1 7 donor
4 4 5 7 20 cation
6 4 5 13 16 18 20 rings
6 8 10 11 12 14 15 rings

>  <PUBCHEM_HEAVY_ATOM_COUNT>  (1) 
22

>  <PUBCHEM_ATOM_DEF_STEREO_COUNT>  (1) 
0

>  <PUBCHEM_ATOM_UDEF_STEREO_COUNT>  (1) 
0

>  <PUBCHEM_BOND_DEF_STEREO_COUNT>  (1) 
0

>  <PUBCHEM_BOND_UDEF_STEREO_COUNT>  (1) 
0

>  <PUBCHEM_ISOTOPIC_ATOM_COUNT>  (1) 
0

>  <PUBCHEM_COMPONENT_COUNT>  (1) 
1

>  <PUBCHEM_CACTVS_TAUTO_COUNT>  (1) 
18

>  <PUBCHEM_CONFORMER_ID>  (1) 
0000A2340000000D

>  <PUBCHEM_MMFF94_ENERGY>  (1) 
100.9596

>  <PUBCHEM_FEATURE_SELFOVERLAP>  (1) 
40.605

>  <PUBCHEM_SHAPE_FINGERPRINT>  (1) 
10498660 4 17168131348213828799
10906281 52 18262534679622636920
116883 192 18196095447920271574
11796584 16 14907080179041260228
12236239 1 18130510743528524657
12553582 1 18338249218689528192
12730499 353 17821728304626074995
14713325 29 15220656802343107868
15081414 286 18335995215510289888
15163728 17 16300384771634942590
15210252 30 17603586318139769228
17357779 13 18187644674052290277
18186145 218 17894921710711857778
18219364 16 17894640283206095259
18335252 114 18267571439600719773
19862831 5 18411697707837019899
200 152 18131632313417314131
20612939 158 18334579023222096622
20645477 70 18410018714842817418
221357 26 18335691716363110157
22289505 5 18334848411844318980
231179 274 17458340870732940432
23402539 116 18413390947512504392
23402655 69 18410007728468837821
23559900 14 17916572262761535578
23598291 2 18129951074307910787
25 1 18114179760959888346
2748010 2 17544773673419485104
2838139 119 17098028591735307493
350125 39 17899430954121219851
392239 28 10811357648621429301
4072396 5 18261939826693943024
4280585 95 17914068495088469478
465052 167 12103850081137272956
474 4 18259985993687560851
59682541 52 18340468024938596335
633830 44 18187933841521039467
9971528 1 18341607084467250450
9981440 41 17548683531977556913

>  <PUBCHEM_SHAPE_MULTIPOLES>  (1) 
415.22
9.75
2.66
1.35
4.59
0.83
0.07
0
4.65
-2.59
0.33
1.22
-0.05
-0.32

>  <PUBCHEM_SHAPE_SELFOVERLAP>  (1) 
888.781

>  <PUBCHEM_SHAPE_VOLUME>  (1) 
229

>  <PUBCHEM_COORDINATE_TYPE>  (1) 
2
5
10

$$$$
