41525
     RDKit          3D

 22 23  0  0  1  0  0  0  0  0999 V2000
    2.7364   -2.1717    0.0852 O   0  0  0  0  0  0  0  0  0  0  0  0
    2.2869    2.6024    0.0776 O   0  0  0  0  0  0  0  0  0  0  0  0
    4.8918   -0.1734   -0.1496 O   0  0  0  0  0  0  0  0  0  0  0  0
   -4.4937    0.5603    0.2018 N   0  0  0  0  0  0  0  0  0  0  0  0
   -3.4682   -1.4375    1.0762 N   0  0  0  0  0  0  0  0  0  0  0  0
   -3.4827    1.7348   -1.5933 N   0  0  0  0  0  0  0  0  0  0  0  0
   -5.4742   -0.6193    1.9773 N   0  0  0  0  0  0  0  0  0  0  0  0
    2.5416    0.2181    0.0953 C   0  0  0  0  0  0  0  0  0  0  0  0
    0.0264   -0.0206   -1.0883 C   0  0  0  0  0  0  0  0  0  0  0  0
    3.8893    0.3460    0.7295 C   0  0  0  0  0  0  0  0  0  0  0  0
   -1.3180   -0.1482   -1.7209 C   0  0  0  0  0  0  0  0  0  0  0  0
    2.0259   -1.0443   -0.1986 C   0  0  0  0  0  0  0  0  0  0  0  0
    1.7996    1.3611   -0.2027 C   0  0  0  0  0  0  0  0  0  0  0  0
    0.7684   -1.1635   -0.7904 C   0  0  0  0  0  0  0  0  0  0  0  0
    0.5421    1.2417   -0.7945 C   0  0  0  0  0  0  0  0  0  0  0  0
   -2.4575   -0.2538   -0.7273 C   0  0  0  0  0  0  0  0  0  0  0  0
    3.9817   -0.3887    2.0688 C   0  0  0  0  0  0  0  0  0  0  0  0
   -3.4777    0.6505   -0.6815 C   0  0  0  0  0  0  0  0  0  0  0  0
   -2.4837   -1.2859    0.1661 C   0  0  0  0  0  0  0  0  0  0  0  0
    3.6109   -2.6592   -0.9303 C   0  0  0  0  0  0  0  0  0  0  0  0
    1.9816    3.1437    1.3611 C   0  0  0  0  0  0  0  0  0  0  0  0
   -4.4269   -0.4926    1.0388 C   0  0  0  0  0  0  0  0  0  0  0  0
  1 12  1  0
  1 20  1  0
  2 13  1  0
  2 21  1  0
  3 10  1  0
  4 18  2  0
  4 22  1  0
  5 19  1  0
  5 22  2  0
  6 18  1  0
  7 22  1  0
  8 10  1  0
  8 12  2  0
  8 13  1  0
  9 11  1  0
  9 14  2  0
  9 15  1  0
 10 17  1  0
 11 16  1  0
 12 14  1  0
 13 15  2  0
 16 18  1  0
 16 19  2  0
M  END
>  <PUBCHEM_COMPOUND_CID>  (1) 
41525

>  <PUBCHEM_CONFORMER_RMSD>  (1) 
0.8

>  <PUBCHEM_CONFORMER_DIVERSEORDER>  (1) 
10
29
28
7
16
22
24
18
15
27
20
5
25
2
26
3
19
23
11
13
4
21
9
1
6
14
17
12
8

>  <PUBCHEM_MMFF94_PARTIAL_CHARGES>  (1) 
29
1 -0.36
10 0.42
11 0.29
12 0.08
13 0.08
14 -0.15
15 -0.15
16 -0.14
18 0.41
19 0.16
2 -0.36
20 0.28
21 0.28
22 0.72
26 0.15
27 0.15
3 -0.68
31 0.15
32 0.4
39 0.4
4 -0.62
40 0.4
41 0.4
42 0.4
5 -0.62
6 -0.9
7 -0.9
8 -0.14
9 -0.14

>  <PUBCHEM_EFFECTIVE_ROTOR_COUNT>  (1) 
5

>  <PUBCHEM_PHARMACOPHORE_FEATURES>  (1) 
9
1 1 acceptor
1 2 acceptor
1 3 acceptor
1 3 donor
1 6 donor
1 7 donor
4 4 5 7 22 cation
6 4 5 16 18 19 22 rings
6 8 9 12 13 14 15 rings

>  <PUBCHEM_HEAVY_ATOM_COUNT>  (1) 
22

>  <PUBCHEM_ATOM_DEF_STEREO_COUNT>  (1) 
0

>  <PUBCHEM_ATOM_UDEF_STEREO_COUNT>  (1) 
1

>  <PUBCHEM_BOND_DEF_STEREO_COUNT>  (1) 
0

>  <PUBCHEM_BOND_UDEF_STEREO_COUNT>  (1) 
0

>  <PUBCHEM_ISOTOPIC_ATOM_COUNT>  (1) 
0

>  <PUBCHEM_COMPONENT_COUNT>  (1) 
1

>  <PUBCHEM_CACTVS_TAUTO_COUNT>  (1) 
9

>  <PUBCHEM_CONFORMER_ID>  (1) 
0000A2350000000A

>  <PUBCHEM_MMFF94_ENERGY>  (1) 
104.8921

>  <PUBCHEM_FEATURE_SELFOVERLAP>  (1) 
45.673

>  <PUBCHEM_SHAPE_FINGERPRINT>  (1) 
10366900 7 18334292114916441303
10498660 4 13973975302681216387
11089746 13 16343691137112328642
11370993 144 18338521837691275709
11552529 35 18058172915538641671
11578080 2 13985486158262999135
11640471 11 16845286176681409727
11796584 16 16589412108595451682
12251169 10 18411981381768498959
12507560 40 18410014295516142199
12633257 1 18409729607714204515
12670546 177 9655577392365725545
13140716 1 18124016078503563448
13583140 156 18410287013186288245
13675066 3 18410006615718919543
14252887 29 18410571760833450870
14341114 176 18340780268612803651
14790565 3 18269271434542614964
14866123 147 16971396535330053970
15081414 286 18201721739340858748
15209289 33 17022901263663016555
15238133 3 18058469671797761329
15475509 8 17631473266616435596
15475509 84 17415846795351101968
15527383 91 18408044030386761805
1601671 61 18342173376126611676
16945 1 18198600268721013422
17804303 29 18041573442517544879
1813 80 16588032307312320143
18785283 64 18190744322370488380
20739085 24 18059584529491008526
21033648 29 18200298940733958137
21041028 32 18128254485290826958
21065199 12 18334297591305750569
21503847 285 17846222197850504016
21864079 5 16772963665040504209
22182313 1 18054207866402618188
23503953 91 18272933864423474859
23503958 8 16950278490710435857
23559900 14 18041001735035818133
38570 142 17769957971072769952
4028521 119 12823301178477456955
5104073 3 18188769435766146689
602551 16 16950281823219805858
6049 1 18259987059171753477
7495541 125 17458059387551663852

>  <PUBCHEM_SHAPE_MULTIPOLES>  (1) 
415.22
10.04
2.48
1.62
6.64
0.99
-0.44
-1.57
-4.48
-2.7
-0.11
0.93
0.04
1.5

>  <PUBCHEM_SHAPE_SELFOVERLAP>  (1) 
881.853

>  <PUBCHEM_SHAPE_VOLUME>  (1) 
229.7

>  <PUBCHEM_COORDINATE_TYPE>  (1) 
2
5
10

$$$$
