41527
     RDKit          3D

 17 18  0  0  0  0  0  0  0  0999 V2000
   -1.0775   -3.1226   -0.7579 Br  0  0  0  0  0  0  0  0  0  0  0  0
   -1.4520    3.3922    0.0102 Br  0  0  0  0  0  0  0  0  0  0  0  0
    1.7313   -2.9015    0.7339 Br  0  0  0  0  0  0  0  0  0  0  0  0
   -3.9038   -1.7942    0.1854 Br  0  0  0  0  0  0  0  0  0  0  0  0
   -4.1615    1.4982    0.0359 Br  0  0  0  0  0  0  0  0  0  0  0  0
    4.3102   -1.0877   -0.1522 Br  0  0  0  0  0  0  0  0  0  0  0  0
    3.9190    2.2611   -0.0518 Br  0  0  0  0  0  0  0  0  0  0  0  0
    0.1207   -0.5298    0.0005 C   0  0  0  0  0  0  0  0  0  0  0  0
    0.0061    0.8808   -0.0012 C   0  0  0  0  0  0  0  0  0  0  0  0
   -1.0445   -1.3136    0.0154 C   0  0  0  0  0  0  0  0  0  0  0  0
   -1.2706    1.4661    0.0121 C   0  0  0  0  0  0  0  0  0  0  0  0
    1.3973   -1.1152   -0.0128 C   0  0  0  0  0  0  0  0  0  0  0  0
    1.1713    1.6645   -0.0161 C   0  0  0  0  0  0  0  0  0  0  0  0
   -2.3046   -0.7152    0.0285 C   0  0  0  0  0  0  0  0  0  0  0  0
   -2.4175    0.6719    0.0268 C   0  0  0  0  0  0  0  0  0  0  0  0
    2.5444   -0.3211   -0.0276 C   0  0  0  0  0  0  0  0  0  0  0  0
    2.4316    1.0660   -0.0293 C   0  0  0  0  0  0  0  0  0  0  0  0
  1 10  1  0
  2 11  1  0
  3 12  1  0
  4 14  1  0
  5 15  1  0
  6 16  1  0
  7 17  1  0
  8  9  1  0
  8 10  2  0
  8 12  1  0
  9 11  2  0
  9 13  1  0
 10 14  1  0
 11 15  1  0
 12 16  2  0
 13 17  2  0
 14 15  2  0
 16 17  1  0
M  END
>  <PUBCHEM_COMPOUND_CID>  (1) 
41527

>  <PUBCHEM_CONFORMER_RMSD>  (1) 
0.4

>  <PUBCHEM_CONFORMER_DIVERSEORDER>  (1) 
1

>  <PUBCHEM_MMFF94_PARTIAL_CHARGES>  (1) 
16
1 -0.11
10 0.11
11 0.11
12 0.11
13 -0.15
14 0.11
15 0.11
16 0.11
17 0.11
18 0.15
2 -0.11
3 -0.11
4 -0.11
5 -0.11
6 -0.11
7 -0.11

>  <PUBCHEM_EFFECTIVE_ROTOR_COUNT>  (1) 
0

>  <PUBCHEM_PHARMACOPHORE_FEATURES>  (1) 
9
1 1 hydrophobe
1 2 hydrophobe
1 3 hydrophobe
1 4 hydrophobe
1 5 hydrophobe
1 6 hydrophobe
1 7 hydrophobe
6 8 9 10 11 14 15 rings
6 8 9 12 13 16 17 rings

>  <PUBCHEM_HEAVY_ATOM_COUNT>  (1) 
17

>  <PUBCHEM_ATOM_DEF_STEREO_COUNT>  (1) 
0

>  <PUBCHEM_ATOM_UDEF_STEREO_COUNT>  (1) 
0

>  <PUBCHEM_BOND_DEF_STEREO_COUNT>  (1) 
0

>  <PUBCHEM_BOND_UDEF_STEREO_COUNT>  (1) 
0

>  <PUBCHEM_ISOTOPIC_ATOM_COUNT>  (1) 
0

>  <PUBCHEM_COMPONENT_COUNT>  (1) 
1

>  <PUBCHEM_CACTVS_TAUTO_COUNT>  (1) 
1

>  <PUBCHEM_CONFORMER_ID>  (1) 
0000A23700000001

>  <PUBCHEM_MMFF94_ENERGY>  (1) 
85.4864

>  <PUBCHEM_FEATURE_SELFOVERLAP>  (1) 
45.704

>  <PUBCHEM_SHAPE_FINGERPRINT>  (1) 
10608611 8 18411135827288601412
10616163 171 18339081488904345191
10967382 1 18410572902824967297
1100329 8 18411134706402006946
11578080 2 16734943411808209166
12553582 1 18051969517783276111
13140716 1 18410013242837626561
14178342 30 18053366988398158240
14790565 3 18265909136258247441
15042514 8 18410576184454872739
15196674 1 18410575110438261377
15442244 35 18049157770050376122
15536298 74 18341896316128341772
16945 1 18337387128284230608
17804303 29 18413674595500008772
193761 8 18265894661727044041
19591789 44 18338801216339194331
20510252 161 18342461481905378889
20645477 70 18342737394846407943
21267235 1 18410302427376078939
21501502 16 18411417319165203688
21524375 3 18263086509024448844
221490 88 18408892836436847250
2334 1 18194119848325328704
23366157 5 18040999497347527810
23402539 116 18272643554588279679
23463225 33 18120373159624797403
23557571 272 18128831917710934036
23558518 356 18334584507721552560
23559900 14 18343300345633207206
238 59 16598681932099806589
2748010 2 18411420622511993077
2871803 45 18336260240693490335
335352 9 18338517426279815236
34934 24 18267860777649361207
350125 39 18338240345213403712
352729 6 18268427941213489781
43471831 8 18334852861704731106
5104073 3 18410575101885257504
58051976 100 18336265643640782662
58051976 378 18269271274820852806
7364860 26 18339359639734520442
8809292 202 18334019371471145379
9709674 26 18269557135059568343

>  <PUBCHEM_SHAPE_MULTIPOLES>  (1) 
391.45
7.16
4.06
0.75
1.1
0.02
0
-1
-0.08
-0.53
0.06
0.02
0.24
-0.34

>  <PUBCHEM_SHAPE_SELFOVERLAP>  (1) 
746.286

>  <PUBCHEM_SHAPE_VOLUME>  (1) 
244.9

>  <PUBCHEM_COORDINATE_TYPE>  (1) 
2
5
10

$$$$
