41522
     RDKit          3D

 19 21  0  0  0  0  0  0  0  0999 V2000
   -0.5164    2.8932   -0.3758 Cl  0  0  0  0  0  0  0  0  0  0  0  0
   -2.8716   -2.8736    0.0132 Cl  0  0  0  0  0  0  0  0  0  0  0  0
    2.2682    2.4243    0.3728 Cl  0  0  0  0  0  0  0  0  0  0  0  0
   -3.5541    2.5509    0.0350 Cl  0  0  0  0  0  0  0  0  0  0  0  0
   -4.7896   -0.3215    0.0401 Cl  0  0  0  0  0  0  0  0  0  0  0  0
    5.0365    1.0214   -0.0197 Cl  0  0  0  0  0  0  0  0  0  0  0  0
    0.0693   -2.0390   -0.0093 O   0  0  0  0  0  0  0  0  0  0  0  0
   -0.2749    0.1961    0.0029 C   0  0  0  0  0  0  0  0  0  0  0  0
    1.1306   -0.0420   -0.0102 C   0  0  0  0  0  0  0  0  0  0  0  0
   -0.8763   -1.0587    0.0028 C   0  0  0  0  0  0  0  0  0  0  0  0
    1.2851   -1.4248   -0.0174 C   0  0  0  0  0  0  0  0  0  0  0  0
   -1.1023    1.3342    0.0149 C   0  0  0  0  0  0  0  0  0  0  0  0
    2.2866    0.7602   -0.0166 C   0  0  0  0  0  0  0  0  0  0  0  0
   -2.2548   -1.2651    0.0139 C   0  0  0  0  0  0  0  0  0  0  0  0
    2.5186   -2.0736   -0.0309 C   0  0  0  0  0  0  0  0  0  0  0  0
   -2.4926    1.1581    0.0259 C   0  0  0  0  0  0  0  0  0  0  0  0
   -3.0562   -0.1199    0.0256 C   0  0  0  0  0  0  0  0  0  0  0  0
    3.5412    0.1360   -0.0300 C   0  0  0  0  0  0  0  0  0  0  0  0
    3.6526   -1.2561   -0.0372 C   0  0  0  0  0  0  0  0  0  0  0  0
  1 12  1  0
  2 14  1  0
  3 13  1  0
  4 16  1  0
  5 17  1  0
  6 18  1  0
  7 10  1  0
  7 11  1  0
  8  9  1  0
  8 10  2  0
  8 12  1  0
  9 11  2  0
  9 13  1  0
 10 14  1  0
 11 15  1  0
 12 16  2  0
 13 18  2  0
 14 17  2  0
 15 19  2  0
 16 17  1  0
 18 19  1  0
M  END
>  <PUBCHEM_COMPOUND_CID>  (1) 
41522

>  <PUBCHEM_CONFORMER_RMSD>  (1) 
0.4

>  <PUBCHEM_CONFORMER_DIVERSEORDER>  (1) 
1

>  <PUBCHEM_MMFF94_PARTIAL_CHARGES>  (1) 
19
1 -0.18
10 0.14
11 0.14
12 0.18
13 0.18
14 0.18
15 -0.15
16 0.18
17 0.18
18 0.18
19 -0.15
2 -0.18
20 0.15
21 0.15
3 -0.18
4 -0.18
5 -0.18
6 -0.18
7 -0.28

>  <PUBCHEM_EFFECTIVE_ROTOR_COUNT>  (1) 
0

>  <PUBCHEM_PHARMACOPHORE_FEATURES>  (1) 
4
1 7 acceptor
5 7 8 9 10 11 rings
6 8 10 12 14 16 17 rings
6 9 11 13 15 18 19 rings

>  <PUBCHEM_HEAVY_ATOM_COUNT>  (1) 
19

>  <PUBCHEM_ATOM_DEF_STEREO_COUNT>  (1) 
0

>  <PUBCHEM_ATOM_UDEF_STEREO_COUNT>  (1) 
0

>  <PUBCHEM_BOND_DEF_STEREO_COUNT>  (1) 
0

>  <PUBCHEM_BOND_UDEF_STEREO_COUNT>  (1) 
0

>  <PUBCHEM_ISOTOPIC_ATOM_COUNT>  (1) 
0

>  <PUBCHEM_COMPONENT_COUNT>  (1) 
1

>  <PUBCHEM_CACTVS_TAUTO_COUNT>  (1) 
1

>  <PUBCHEM_CONFORMER_ID>  (1) 
0000A23200000001

>  <PUBCHEM_MMFF94_ENERGY>  (1) 
59.9106

>  <PUBCHEM_FEATURE_SELFOVERLAP>  (1) 
20.499

>  <PUBCHEM_SHAPE_FINGERPRINT>  (1) 
10493431 412 18269283374493377121
10498660 4 18336548209650281188
10608611 8 18411134714712444376
10616163 171 18339927111798062990
10967382 1 18410573998036359526
11132069 177 18410852183099802616
11471102 20 18411416211269545078
11578080 2 17096910396446009678
11680986 33 18266177421410698745
12173636 292 18193554472095564061
12390115 104 18128554690472820241
12403259 226 18337948974526242748
13140716 1 18410572902856629194
14223421 5 18411418457326236379
14790565 3 17908148672486063609
15196674 1 18338798914167918020
15442244 35 18193837046589189850
15536298 74 18342176639979977126
16945 1 18265891367476805835
17804303 29 18339084770180023846
19591789 44 18339643326133864429
200 152 17988921197643243031
20510252 161 18270401586060171529
21029758 11 18341607119001113845
21267235 1 18410583867897988758
21421861 104 17969496009830504858
21501502 16 18410290277002964034
221490 88 18338242660374752210
23227448 37 18412543210677303861
2334 1 18338516468422954038
23402539 116 18341044232949982326
23463225 33 18408886234971613596
23557571 272 18272097080139786380
23558518 356 18261113036050397008
23559900 14 18340762749462432240
238 59 16021099630607106237
2748010 2 18339078297400447671
335352 9 18122626050417951606
34934 24 18409162225439020275
350125 39 18410859901156442688
3545911 37 18411139151455813694
474 4 17603876641033451940
5104073 3 18337954480605498496
58051976 378 18413107290128054638
59755656 215 18410293605834688398
69090 78 18412542089954875695
7097593 13 17826495683569524330
7364860 26 18342175587765691632
7832392 63 18339641144559542382
8809292 202 18334298694817271603
9709674 26 18341616983887125151

>  <PUBCHEM_SHAPE_MULTIPOLES>  (1) 
396.36
8.12
3.23
0.64
1.75
0.52
0
0.47
0.12
-1.27
-0.05
0.01
0.06
0.15

>  <PUBCHEM_SHAPE_SELFOVERLAP>  (1) 
836.507

>  <PUBCHEM_SHAPE_VOLUME>  (1) 
229.2

>  <PUBCHEM_COORDINATE_TYPE>  (1) 
2
5
10

$$$$
