41536
     RDKit          3D

 27 29  0  0  0  0  0  0  0  0999 V2000
   -8.5993   -0.9937    1.1714 Cl  0  0  0  0  0  0  0  0  0  0  0  0
    6.3855   -3.8375    0.1914 F   0  0  0  0  0  0  0  0  0  0  0  0
   -2.5358   -1.5798   -1.5325 O   0  0  0  0  0  0  0  0  0  0  0  0
    5.1694    2.3044   -0.1989 O   0  0  0  0  0  0  0  0  0  0  0  0
    0.0842    1.9982    0.2944 N   0  0  0  0  0  0  0  0  0  0  0  0
   -2.2801    0.6609   -0.7879 C   0  0  0  0  0  0  0  0  0  0  0  0
   -0.9018    0.5270   -1.4331 C   0  0  0  0  0  0  0  0  0  0  0  0
   -2.1419    0.9973    0.6957 C   0  0  0  0  0  0  0  0  0  0  0  0
   -0.0350    1.7552   -1.1500 C   0  0  0  0  0  0  0  0  0  0  0  0
   -1.2344    2.2106    0.9071 C   0  0  0  0  0  0  0  0  0  0  0  0
    0.9575    3.1434    0.5500 C   0  0  0  0  0  0  0  0  0  0  0  0
   -3.0413   -0.6169   -0.9604 C   0  0  0  0  0  0  0  0  0  0  0  0
    2.3595    2.8725    0.0006 C   0  0  0  0  0  0  0  0  0  0  0  0
    3.0061    1.6407    0.6403 C   0  0  0  0  0  0  0  0  0  0  0  0
   -4.4295   -0.7110   -0.4267 C   0  0  0  0  0  0  0  0  0  0  0  0
    4.4319    1.3930    0.1687 C   0  0  0  0  0  0  0  0  0  0  0  0
   -5.1953    0.4322   -0.3708 C   0  0  0  0  0  0  0  0  0  0  0  0
   -4.8968   -1.9380   -0.0106 C   0  0  0  0  0  0  0  0  0  0  0  0
    4.9535   -0.0036    0.1748 C   0  0  0  0  0  0  0  0  0  0  0  0
   -6.4952    0.3441    0.1271 C   0  0  0  0  0  0  0  0  0  0  0  0
   -6.1967   -2.0262    0.4873 C   0  0  0  0  0  0  0  0  0  0  0  0
   -6.9961   -0.8851    0.5561 C   0  0  0  0  0  0  0  0  0  0  0  0
    4.4684   -0.8863    1.1137 C   0  0  0  0  0  0  0  0  0  0  0  0
    5.9011   -0.3593   -0.7590 C   0  0  0  0  0  0  0  0  0  0  0  0
    4.9564   -2.1930    1.1192 C   0  0  0  0  0  0  0  0  0  0  0  0
    6.3891   -1.6660   -0.7534 C   0  0  0  0  0  0  0  0  0  0  0  0
    5.9167   -2.5830    0.1856 C   0  0  0  0  0  0  0  0  0  0  0  0
  1 22  1  0
  2 27  1  0
  3 12  2  0
  4 16  2  0
  5  9  1  0
  5 10  1  0
  5 11  1  0
  6  7  1  0
  6  8  1  0
  6 12  1  0
  7  9  1  0
  8 10  1  0
 11 13  1  0
 12 15  1  0
 13 14  1  0
 14 16  1  0
 15 17  2  0
 15 18  1  0
 16 19  1  0
 17 20  1  0
 18 21  2  0
 19 23  2  0
 19 24  1  0
 20 22  2  0
 21 22  1  0
 23 25  1  0
 24 26  2  0
 25 27  2  0
 26 27  1  0
M  END
>  <PUBCHEM_COMPOUND_CID>  (1) 
41536

>  <PUBCHEM_CONFORMER_RMSD>  (1) 
1

>  <PUBCHEM_CONFORMER_DIVERSEORDER>  (1) 
1
442
170
239
212
30
392
123
461
76
475
382
2
94
153
228
185
468
316
300
36
102
271
346
423
435
363
5
315
74
411
261
13
270
175
436
21
220
168
63
73
285
165
125
404
6
287
187
297
159
195
238
357
420
348
370
288
295
14
262
179
365
151
37
33
455
283
75
483
329
391
398
325
158
242
387
40
473
438
347
386
28
46
190
323
122
354
318
157
467
406
61
85
366
481
118
487
226
256
291
91
38
422
429
427
186
255
124
47
200
143
430
98
374
282
167
332
331
27
127
12
215
18
425
129
214
457
383
440
3
116
338
93
208
439
450
59
77
225
181
218
92
48
43
466
361
53
292
345
395
389
265
64
444
19
464
172
20
182
205
415
206
148
104
211
373
133
308
70
306
458
115
320
275
83
372
360
69
273
131
4
147
128
193
42
32
381
416
279
188
350
198
134
448
106
135
160
322
189
232
476
491
310
56
243
117
452
384
95
333
307
249
60
317
493
454
141
304
50
235
401
359
267
407
276
453
79
144
472
65
405
229
217
113
290
174
223
278
166
402
277
197
142
477
488
11
154
451
441
269
202
302
180
173
459
251
231
254
34
89
100
58
72
484
138
112
136
201
443
86
161
394
97
344
52
339
183
417
301
340
284
121
474
82
140
433
236
445
471
335
150
479
31
489
428
319
351
252
110
470
305
434
203
293
108
22
463
96
137
237
246
371
486
230
15
210
410
41
326
349
478
408
431
149
298
156
71
355
437
114
119
103
221
10
7
26
396
258
356
29
250
456
379
268
364
247
393
24
460
327
234
216
209
485
213
324
222
376
272
162
312
84
35
17
299
244
25
313
342
80
99
120
289
101
62
369
367
260
414
419
145
259
378
199
81
432
192
418
426
353
16
286
245
330
132
447
294
314
87
296
368
67
191
281
90
309
152
171
336
413
462
57
55
321
240
54
177
400
280
176
446
303
204
66
9
227
490
482
164
397
377
399
169
233
274
146
248
375
264
390
465
45
130
109
362
219
155
184
409
8
424
241
328
403
49
421
107
23
88
469
343
337
412
105
266
263
257
492
126
311
194
449
358
196
39
388
139
224
334
253
78
352
341
385
178
380
207
44
68
51
480
111
163

>  <PUBCHEM_MMFF94_PARTIAL_CHARGES>  (1) 
32
1 -0.18
10 0.27
11 0.27
12 0.42
14 0.06
15 0.09
16 0.42
17 -0.15
18 -0.15
19 0.09
2 -0.19
20 -0.15
21 -0.15
22 0.18
23 -0.15
24 -0.15
25 -0.15
26 -0.15
27 0.19
3 -0.57
4 -0.57
43 0.15
44 0.15
45 0.15
46 0.15
47 0.15
48 0.15
49 0.15
5 -0.81
50 0.15
6 0.06
9 0.27

>  <PUBCHEM_EFFECTIVE_ROTOR_COUNT>  (1) 
8.2

>  <PUBCHEM_PHARMACOPHORE_FEATURES>  (1) 
6
1 3 acceptor
1 4 acceptor
1 5 cation
6 15 17 18 20 21 22 rings
6 19 23 24 25 26 27 rings
6 5 6 7 8 9 10 rings

>  <PUBCHEM_HEAVY_ATOM_COUNT>  (1) 
27

>  <PUBCHEM_ATOM_DEF_STEREO_COUNT>  (1) 
0

>  <PUBCHEM_ATOM_UDEF_STEREO_COUNT>  (1) 
0

>  <PUBCHEM_BOND_DEF_STEREO_COUNT>  (1) 
0

>  <PUBCHEM_BOND_UDEF_STEREO_COUNT>  (1) 
0

>  <PUBCHEM_ISOTOPIC_ATOM_COUNT>  (1) 
0

>  <PUBCHEM_COMPONENT_COUNT>  (1) 
1

>  <PUBCHEM_CACTVS_TAUTO_COUNT>  (1) 
4

>  <PUBCHEM_CONFORMER_ID>  (1) 
0000A24000000001

>  <PUBCHEM_MMFF94_ENERGY>  (1) 
61.0972

>  <PUBCHEM_FEATURE_SELFOVERLAP>  (1) 
30.447

>  <PUBCHEM_SHAPE_FINGERPRINT>  (1) 
10692045 39 17846787308272702047
10917259 128 16557922100788514289
11135926 11 18196355143366491364
11211813 74 9511193923985948939
11273773 46 18264764368358951239
11456790 92 17917164879314769027
117089 54 17983302526281733846
11991303 11 17389371620269911813
12107183 9 18131073774986331177
12166972 35 18040157292915384438
12422481 6 17203329996209872669
12592606 108 18342736347681710415
12633257 1 15410599424684908024
12821665 9 8646480813787680313
13533116 47 18411418457643267296
1361 4 18336265759721184539
13673619 4 18113896074365391477
13782708 43 18186793717014633303
13785724 45 18342182154665556276
13911987 19 12685089277063775561
14216079 64 18410855460523924135
14251764 30 18407757040740478350
14347424 109 17846215591821830256
14400156 162 18334303059405715747
14420673 8 18410293610367246543
14556957 393 12829748731748257455
14565420 104 11383837052014959668
14767858 380 12396292686572176189
15352257 5 18113619010335840067
15721738 202 18060139830302763986
15728490 83 18122903127902883306
15927050 60 17838333343760438756
16120349 189 9655277264609838186
16120349 21 18200319810011886209
16728300 4 18272086055048349909
17134984 74 17530964683695770298
19301679 30 18201446839268176709
1979834 28 17131838655477034044
19841028 212 18335701624794600906
20554085 129 15123518008272263655
208703 8 18266172843297931666
21130935 74 18197499730870672051
21150785 3 12035723250264850841
21344244 181 18040437702292209554
21362857 166 13912587364815144584
21585482 57 9439112123058082299
21641784 216 14635135807706320565
21682296 61 18408604777728796483
22223350 30 17487604463006747467
25269216 80 15864074256702917287
2748736 6 9079111146614695874
2838139 119 9943541707967212425
328310 630 10953726778263294991
345986 75 17846780719656077680
34797466 226 16588024666512863324
3680242 22 18343024414562626478
3886686 26 17338171701463962788
4072396 5 17060066990329187277
4073 2 18048034365504046177
4107672 100 17531804633111893373
437795 51 17967534592739981763
439807 62 18334013861407971054
4435113 14 17968670439380067067
4461854 278 17847056680554559838
46194498 28 17458901652029253388
465052 167 18343303682364211340
474113 269 18201145673048381415
5104073 3 17917427605989716128
513202 73 18334577919690301761
54039377 194 18340488873084916542
56633871 153 18130498669811492486
57634706 306 11024107621031573873
58260988 647 18333736814389581921
6327066 14 8934703510347676802
6697151 62 18128230385919086733
6898599 12 11098155365001054032
7970288 3 18267580218160281930
9831232 110 18040712571540178647
9849439 229 9943509827000052168

>  <PUBCHEM_SHAPE_MULTIPOLES>  (1) 
533.52
22.46
3.56
1.18
12.55
0.22
-0.13
18.56
4.2
-5.91
0.59
0.29
0.1
0.05

>  <PUBCHEM_SHAPE_SELFOVERLAP>  (1) 
1126.65

>  <PUBCHEM_SHAPE_VOLUME>  (1) 
299.8

>  <PUBCHEM_COORDINATE_TYPE>  (1) 
2
5
10

$$$$
