41539
     RDKit          3D

 12 12  0  0  1  0  0  0  0  0999 V2000
    3.9845   -1.0251    0.7909 Cl  0  0  0  0  0  0  0  0  0  0  0  0
    2.9226    0.6208   -1.4176 Cl  0  0  0  0  0  0  0  0  0  0  0  0
   -3.4733   -0.2581    0.6197 O   0  0  0  0  0  0  0  0  0  0  0  0
   -2.4233   -1.5356   -0.9589 O   0  0  0  0  0  0  0  0  0  0  0  0
   -0.5170    1.0077    0.1402 C   0  0  0  0  0  0  0  0  0  0  0  0
    0.0970   -0.2843   -0.2763 C   0  0  0  0  0  0  0  0  0  0  0  0
   -1.1224   -0.2928    0.5808 C   0  0  0  0  0  0  0  0  0  0  0  0
   -1.1972    1.8039   -0.9224 C   0  0  0  0  0  0  0  0  0  0  0  0
    0.1308    1.8542    1.1850 C   0  0  0  0  0  0  0  0  0  0  0  0
    1.3709   -0.7195    0.3301 C   0  0  0  0  0  0  0  0  0  0  0  0
   -2.3872   -0.7674   -0.0095 C   0  0  0  0  0  0  0  0  0  0  0  0
    2.6145   -0.4039   -0.0621 C   0  0  0  0  0  0  0  0  0  0  0  0
  1 12  1  0
  2 12  1  0
  3 11  1  0
  4 11  2  0
  5  6  1  0
  5  7  1  0
  5  8  1  0
  5  9  1  0
  6  7  1  0
  6 10  1  0
  7 11  1  0
 10 12  2  3
M  END
>  <PUBCHEM_COMPOUND_CID>  (1) 
41539

>  <PUBCHEM_CONFORMER_RMSD>  (1) 
0.6

>  <PUBCHEM_CONFORMER_DIVERSEORDER>  (1) 
1
5
6
8
3
2
7
4

>  <PUBCHEM_MMFF94_PARTIAL_CHARGES>  (1) 
16
1 -0.14
10 -0.19
11 0.72
12 0.28
13 0.1
14 0.1
2 -0.14
21 0.15
22 0.5
3 -0.65
4 -0.57
5 -0.19
6 -0.06
7 -0.1
8 0.09
9 0.09

>  <PUBCHEM_EFFECTIVE_ROTOR_COUNT>  (1) 
2.6

>  <PUBCHEM_PHARMACOPHORE_FEATURES>  (1) 
4
1 3 acceptor
1 4 acceptor
3 3 4 11 anion
3 5 8 9 hydrophobe

>  <PUBCHEM_HEAVY_ATOM_COUNT>  (1) 
12

>  <PUBCHEM_ATOM_DEF_STEREO_COUNT>  (1) 
2

>  <PUBCHEM_ATOM_UDEF_STEREO_COUNT>  (1) 
0

>  <PUBCHEM_BOND_DEF_STEREO_COUNT>  (1) 
0

>  <PUBCHEM_BOND_UDEF_STEREO_COUNT>  (1) 
0

>  <PUBCHEM_ISOTOPIC_ATOM_COUNT>  (1) 
0

>  <PUBCHEM_COMPONENT_COUNT>  (1) 
1

>  <PUBCHEM_CACTVS_TAUTO_COUNT>  (1) 
1

>  <PUBCHEM_CONFORMER_ID>  (1) 
0000A24300000001

>  <PUBCHEM_MMFF94_ENERGY>  (1) 
21.823

>  <PUBCHEM_FEATURE_SELFOVERLAP>  (1) 
20.352

>  <PUBCHEM_SHAPE_FINGERPRINT>  (1) 
10857977 72 17775564247469990874
11132069 177 18202563977489162770
12932764 1 18412263939113715750
13024252 1 16950853496436427937
13214271 11 16271917229679674586
14128692 85 18128542750262705469
161256 15 18267856358159740065
16945 1 18408603686179258381
18186145 218 15285354028819796014
19837323 101 17415280516386945696
20653085 51 14779548971812182511
20711985 327 18060131085163753968
21061003 4 17846770806670532920
228727 97 18264230121840799980
23552423 10 18115592521948890306
23557571 272 18060142003519304872
25610 137 17822588199215646644
369184 2 17168436982028190040
5084963 1 18260269603732301520
59915604 170 16950852525758261284
8030462 33 17603884281811796598
81228 2 18058185937330402672

>  <PUBCHEM_SHAPE_MULTIPOLES>  (1) 
238.96
5.47
1.68
1.17
2.71
0.62
-0.08
-2.3
-0.06
-0.46
-0.03
0.32
0.31
-0.62

>  <PUBCHEM_SHAPE_SELFOVERLAP>  (1) 
463.036

>  <PUBCHEM_SHAPE_VOLUME>  (1) 
147.5

>  <PUBCHEM_COORDINATE_TYPE>  (1) 
2
5
10

$$$$
