41532
     RDKit          3D

 22 24  0  0  1  0  0  0  0  0999 V2000
   -6.2226    1.8036   -0.6111 Cl  0  0  0  0  0  0  0  0  0  0  0  0
   -0.2842    1.4093    0.0961 O   0  0  0  0  0  0  0  0  0  0  0  0
   -1.5349   -2.6442    0.7720 O   0  0  0  0  0  0  0  0  0  0  0  0
    6.1681    1.0241    0.1607 O   0  0  0  0  0  0  0  0  0  0  0  0
    4.2860    1.1529    1.4166 O   0  0  0  0  0  0  0  0  0  0  0  0
    2.7859   -0.4488   -0.3627 C   0  0  0  0  0  0  0  0  0  0  0  0
    4.2115   -0.1300   -0.6606 C   0  0  0  0  0  0  0  0  0  0  0  0
    0.0833   -1.0375    0.1859 C   0  0  0  0  0  0  0  0  0  0  0  0
    0.5002    0.2912    0.0213 C   0  0  0  0  0  0  0  0  0  0  0  0
   -2.5179    0.7126    0.4760 C   0  0  0  0  0  0  0  0  0  0  0  0
   -2.5022   -0.6422    0.1361 C   0  0  0  0  0  0  0  0  0  0  0  0
    1.8441    0.5725   -0.2727 C   0  0  0  0  0  0  0  0  0  0  0  0
   -1.3107    1.3532    1.0792 C   0  0  0  0  0  0  0  0  0  0  0  0
   -1.3227   -1.4932    0.3950 C   0  0  0  0  0  0  0  0  0  0  0  0
    2.3898   -1.7650   -0.1698 C   0  0  0  0  0  0  0  0  0  0  0  0
    1.0508   -2.0573    0.0977 C   0  0  0  0  0  0  0  0  0  0  0  0
    4.4277    0.5557   -2.0253 C   0  0  0  0  0  0  0  0  0  0  0  0
   -3.6775    1.4638    0.2364 C   0  0  0  0  0  0  0  0  0  0  0  0
   -3.6422   -1.2425   -0.4171 C   0  0  0  0  0  0  0  0  0  0  0  0
    4.8644    0.7396    0.4199 C   0  0  0  0  0  0  0  0  0  0  0  0
   -4.8072    0.8676   -0.3242 C   0  0  0  0  0  0  0  0  0  0  0  0
   -4.7897   -0.4855   -0.6496 C   0  0  0  0  0  0  0  0  0  0  0  0
  1 21  1  0
  2  9  1  0
  2 13  1  0
  3 14  2  0
  4 20  1  0
  5 20  2  0
  6  7  1  0
  6 12  2  0
  6 15  1  0
  7 17  1  0
  7 20  1  0
  8  9  2  0
  8 14  1  0
  8 16  1  0
  9 12  1  0
 10 11  2  0
 10 13  1  0
 10 18  1  0
 11 14  1  0
 11 19  1  0
 15 16  2  0
 18 21  2  0
 19 22  2  0
 21 22  1  0
M  END
>  <PUBCHEM_COMPOUND_CID>  (1) 
41532

>  <PUBCHEM_CONFORMER_RMSD>  (1) 
0.6

>  <PUBCHEM_CONFORMER_DIVERSEORDER>  (1) 
1
6
3
9
7
2
5
4
8

>  <PUBCHEM_MMFF94_PARTIAL_CHARGES>  (1) 
28
1 -0.18
10 -0.14
11 0.09
12 -0.15
13 0.42
14 0.4
15 -0.15
16 -0.15
18 -0.15
19 -0.15
2 -0.36
20 0.66
21 0.18
22 -0.15
24 0.15
27 0.15
28 0.15
3 -0.57
32 0.15
33 0.15
34 0.15
35 0.5
4 -0.65
5 -0.57
6 -0.14
7 0.2
8 0.09
9 0.08

>  <PUBCHEM_EFFECTIVE_ROTOR_COUNT>  (1) 
2.4

>  <PUBCHEM_PHARMACOPHORE_FEATURES>  (1) 
9
1 17 hydrophobe
1 2 acceptor
1 3 acceptor
1 4 acceptor
1 5 acceptor
3 4 5 20 anion
6 10 11 18 19 21 22 rings
6 6 8 9 12 15 16 rings
7 2 8 9 10 11 13 14 rings

>  <PUBCHEM_HEAVY_ATOM_COUNT>  (1) 
22

>  <PUBCHEM_ATOM_DEF_STEREO_COUNT>  (1) 
0

>  <PUBCHEM_ATOM_UDEF_STEREO_COUNT>  (1) 
1

>  <PUBCHEM_BOND_DEF_STEREO_COUNT>  (1) 
0

>  <PUBCHEM_BOND_UDEF_STEREO_COUNT>  (1) 
0

>  <PUBCHEM_ISOTOPIC_ATOM_COUNT>  (1) 
0

>  <PUBCHEM_COMPONENT_COUNT>  (1) 
1

>  <PUBCHEM_CACTVS_TAUTO_COUNT>  (1) 
1

>  <PUBCHEM_CONFORMER_ID>  (1) 
0000A23C00000001

>  <PUBCHEM_MMFF94_ENERGY>  (1) 
75.0841

>  <PUBCHEM_FEATURE_SELFOVERLAP>  (1) 
45.749

>  <PUBCHEM_SHAPE_FINGERPRINT>  (1) 
10366900 7 17847063285590923880
10411042 1 17689436405249181867
10498660 4 18342461426070446528
10906281 52 18341348733240981409
11128504 68 13182737087274407378
11315181 36 17989211464602722544
12011746 2 18273494580962299144
12236239 1 17676203611283297688
12293681 160 18201717315376812625
12403814 3 17312817191082203495
12969540 114 18060125544561016437
13288520 33 9727637211001403939
13402501 40 18059285569850610176
13533116 47 18339636733960971738
14528608 73 18273493472575750748
14790565 3 17839751366132410129
15196674 1 18411136905372781043
15375358 24 18412546526360608874
17349148 13 18408880759062377986
173720 79 18041267812016845202
18222031 100 11023818470805653107
18608769 82 18337393846652643235
18769570 83 16660639614462610437
200 152 16558754511529339331
20511986 3 18263064591795950287
20645477 70 16988575563422553518
20715895 44 18260828180866210068
21029758 11 18202563986248058721
22182313 1 18267893672661969655
22950370 63 10447934975023200044
23402539 116 18413101783921874447
23402655 69 18341611478266085103
23559900 14 18201434796417236368
23569914 152 16980130007723384029
2838139 119 16226308366900693839
293599 30 18335984190639912365
300161 21 18410289182013033557
3004659 81 18263645074249258382
335352 9 18336549313952787502
34797466 226 17131835386516654917
34934 24 18411132528547859867
350125 39 18263642871289621190
3545911 37 18411422799707068639
3759504 43 17749116607998343083
4028521 119 18342177756386624463
4072396 5 18261662702123581018
465052 167 9943514241619972189
474 4 18040443178380454286
5104073 3 18336551521106996795
5283173 99 18271522018342284129
57724786 102 16153721954739957292
67856867 119 18338508626098209994
8863177 126 12318582529152750813
9709674 26 18343311357201899766
9981440 41 18334015007763962819

>  <PUBCHEM_SHAPE_MULTIPOLES>  (1) 
431.14
12.64
2.09
1.06
0.95
0.85
0.23
-6.74
2.73
-0.94
-0.3
0.87
-0.26
0.32

>  <PUBCHEM_SHAPE_SELFOVERLAP>  (1) 
940.209

>  <PUBCHEM_SHAPE_VOLUME>  (1) 
233.5

>  <PUBCHEM_COORDINATE_TYPE>  (1) 
2
5
10

$$$$
