41550
     RDKit          3D

 20 21  0  0  0  0  0  0  0  0999 V2000
    0.1261    0.7775   -0.9692 O   0  0  0  0  0  0  0  0  0  0  0  0
    0.2663   -1.3806    0.0497 N   0  0  0  0  0  0  0  0  0  0  0  0
    2.9720    0.1953   -0.0043 N   0  0  0  0  0  0  0  0  0  0  0  0
   -1.1349   -1.3428    0.4912 C   0  0  0  0  0  0  0  0  0  0  0  0
   -1.8107   -2.5719   -0.1428 C   0  0  0  0  0  0  0  0  0  0  0  0
   -1.1003   -1.5066    2.0213 C   0  0  0  0  0  0  0  0  0  0  0  0
   -1.8775   -0.0804    0.1133 C   0  0  0  0  0  0  0  0  0  0  0  0
   -1.2143    0.9173   -0.5971 C   0  0  0  0  0  0  0  0  0  0  0  0
    0.7611   -0.3919   -0.6001 C   0  0  0  0  0  0  0  0  0  0  0  0
    2.1809   -0.3862   -1.0712 C   0  0  0  0  0  0  0  0  0  0  0  0
   -1.7952   -2.4794   -1.6520 C   0  0  0  0  0  0  0  0  0  0  0  0
   -0.4334   -0.3187    2.6775 C   0  0  0  0  0  0  0  0  0  0  0  0
   -3.2227    0.1364    0.4483 C   0  0  0  0  0  0  0  0  0  0  0  0
   -1.8497    2.1023   -0.9730 C   0  0  0  0  0  0  0  0  0  0  0  0
    2.5311    1.5633    0.2886 C   0  0  0  0  0  0  0  0  0  0  0  0
    4.3981    0.1915   -0.3481 C   0  0  0  0  0  0  0  0  0  0  0  0
   -3.8710    1.3181    0.0783 C   0  0  0  0  0  0  0  0  0  0  0  0
   -3.1844    2.3004   -0.6322 C   0  0  0  0  0  0  0  0  0  0  0  0
    3.3563    2.1787    1.4060 C   0  0  0  0  0  0  0  0  0  0  0  0
    4.9021   -1.2221   -0.5842 C   0  0  0  0  0  0  0  0  0  0  0  0
  1  8  1  0
  1  9  1  0
  2  4  1  0
  2  9  2  0
  3 10  1  0
  3 15  1  0
  3 16  1  0
  4  5  1  0
  4  6  1  0
  4  7  1  0
  5 11  1  0
  6 12  1  0
  7  8  2  0
  7 13  1  0
  8 14  1  0
  9 10  1  0
 13 17  2  0
 14 18  2  0
 15 19  1  0
 16 20  1  0
 17 18  1  0
M  END
>  <PUBCHEM_COMPOUND_CID>  (1) 
41550

>  <PUBCHEM_CONFORMER_RMSD>  (1) 
0.8

>  <PUBCHEM_CONFORMER_DIVERSEORDER>  (1) 
1
16
9
11
10
6
14
3
7
15
4
12
5
2
13
8

>  <PUBCHEM_MMFF94_PARTIAL_CHARGES>  (1) 
18
1 -0.23
10 0.33
13 -0.15
14 -0.15
15 0.27
16 0.27
17 -0.15
18 -0.15
2 -0.7
3 -0.81
33 0.15
34 0.15
39 0.15
4 0.39
40 0.15
7 -0.14
8 0.08
9 0.54

>  <PUBCHEM_EFFECTIVE_ROTOR_COUNT>  (1) 
6.4

>  <PUBCHEM_PHARMACOPHORE_FEATURES>  (1) 
5
1 11 hydrophobe
1 12 hydrophobe
1 3 cation
6 1 2 4 7 8 9 rings
6 7 8 13 14 17 18 rings

>  <PUBCHEM_HEAVY_ATOM_COUNT>  (1) 
20

>  <PUBCHEM_ATOM_DEF_STEREO_COUNT>  (1) 
0

>  <PUBCHEM_ATOM_UDEF_STEREO_COUNT>  (1) 
0

>  <PUBCHEM_BOND_DEF_STEREO_COUNT>  (1) 
0

>  <PUBCHEM_BOND_UDEF_STEREO_COUNT>  (1) 
0

>  <PUBCHEM_ISOTOPIC_ATOM_COUNT>  (1) 
0

>  <PUBCHEM_COMPONENT_COUNT>  (1) 
1

>  <PUBCHEM_CACTVS_TAUTO_COUNT>  (1) 
1

>  <PUBCHEM_CONFORMER_ID>  (1) 
0000A24E00000001

>  <PUBCHEM_MMFF94_ENERGY>  (1) 
54.6696

>  <PUBCHEM_FEATURE_SELFOVERLAP>  (1) 
25.397

>  <PUBCHEM_SHAPE_FINGERPRINT>  (1) 
11578080 2 17630879606723123657
12035759 4 18192121933315108751
12403814 3 18127696135163451419
12422481 6 18196115406897495547
12500047 106 18410009914564987254
12507557 5 17846781849579999056
13004483 165 17912629504264743855
13140716 1 18043550493056935905
15042514 8 18188786040743046619
15295992 7 18342462534330641472
16945 1 18041860457964838535
17804303 29 18336272275465887708
18186145 218 18130509621888198509
200 152 16487254340027631684
20602899 9 17703790280267017263
20681677 76 18058159704108001548
21524375 3 18189618241842423525
229495 10 17200218541633121764
2306618 200 18059584606436585434
23402539 116 18410011061696113591
23419403 2 17110212184876403187
23558518 356 18042684090673681276
23559900 14 18412265017836374508
23728640 28 18260556631601183210
2748010 2 18044105548976317253
298252 57 18337673001703312123
539174 4 16735199696527402832
69090 78 18412262822480325799
7364860 26 17759236293908053975
81228 2 18042397109337848749

>  <PUBCHEM_SHAPE_MULTIPOLES>  (1) 
395.76
7.17
2.69
1.69
7.78
0.19
-1.14
-2.1
0.91
-1.45
0.42
-0.25
0.41
1.08

>  <PUBCHEM_SHAPE_SELFOVERLAP>  (1) 
818.205

>  <PUBCHEM_SHAPE_VOLUME>  (1) 
226

>  <PUBCHEM_COORDINATE_TYPE>  (1) 
2
5
10

$$$$
