41551
     RDKit          3D

 15 16  0  0  0  0  0  0  0  0999 V2000
    0.5718    2.5345   -0.5010 Cl  0  0  0  0  0  0  0  0  0  0  0  0
   -4.0796   -0.6389   -1.9946 Cl  0  0  0  0  0  0  0  0  0  0  0  0
    5.0731   -0.3951   -0.2836 Cl  0  0  0  0  0  0  0  0  0  0  0  0
    0.5872   -0.1239    0.1510 C   0  0  0  0  0  0  0  0  0  0  0  0
   -0.8508   -0.0824    0.3012 C   0  0  0  0  0  0  0  0  0  0  0  0
    1.3266    1.0056   -0.2093 C   0  0  0  0  0  0  0  0  0  0  0  0
    1.2422   -1.3369    0.3762 C   0  0  0  0  0  0  0  0  0  0  0  0
   -1.6748   -0.3495   -0.7922 C   0  0  0  0  0  0  0  0  0  0  0  0
   -1.4135    0.2244    1.5402 C   0  0  0  0  0  0  0  0  0  0  0  0
    2.7125    0.9221   -0.3437 C   0  0  0  0  0  0  0  0  0  0  0  0
    2.6279   -1.4204    0.2418 C   0  0  0  0  0  0  0  0  0  0  0  0
   -3.0616   -0.3098   -0.6464 C   0  0  0  0  0  0  0  0  0  0  0  0
   -2.8001    0.2642    1.6859 C   0  0  0  0  0  0  0  0  0  0  0  0
    3.3632   -0.2909   -0.1181 C   0  0  0  0  0  0  0  0  0  0  0  0
   -3.6241   -0.0030    0.5927 C   0  0  0  0  0  0  0  0  0  0  0  0
  1  6  1  0
  2 12  1  0
  3 14  1  0
  4  5  1  0
  4  6  2  0
  4  7  1  0
  5  8  2  0
  5  9  1  0
  6 10  1  0
  7 11  2  0
  8 12  1  0
  9 13  2  0
 10 14  2  0
 11 14  1  0
 12 15  2  0
 13 15  1  0
M  END
>  <PUBCHEM_COMPOUND_CID>  (1) 
41551

>  <PUBCHEM_CONFORMER_RMSD>  (1) 
0.4

>  <PUBCHEM_CONFORMER_DIVERSEORDER>  (1) 
1
6
3
4
5
2

>  <PUBCHEM_MMFF94_PARTIAL_CHARGES>  (1) 
20
1 -0.18
10 -0.15
11 -0.15
12 0.18
13 -0.15
14 0.18
15 -0.15
16 0.15
17 0.15
18 0.15
19 0.15
2 -0.18
20 0.15
21 0.15
22 0.15
3 -0.18
6 0.18
7 -0.15
8 -0.15
9 -0.15

>  <PUBCHEM_EFFECTIVE_ROTOR_COUNT>  (1) 
1

>  <PUBCHEM_PHARMACOPHORE_FEATURES>  (1) 
2
6 4 6 7 10 11 14 rings
6 5 8 9 12 13 15 rings

>  <PUBCHEM_HEAVY_ATOM_COUNT>  (1) 
15

>  <PUBCHEM_ATOM_DEF_STEREO_COUNT>  (1) 
0

>  <PUBCHEM_ATOM_UDEF_STEREO_COUNT>  (1) 
0

>  <PUBCHEM_BOND_DEF_STEREO_COUNT>  (1) 
0

>  <PUBCHEM_BOND_UDEF_STEREO_COUNT>  (1) 
0

>  <PUBCHEM_ISOTOPIC_ATOM_COUNT>  (1) 
0

>  <PUBCHEM_COMPONENT_COUNT>  (1) 
1

>  <PUBCHEM_CACTVS_TAUTO_COUNT>  (1) 
1

>  <PUBCHEM_CONFORMER_ID>  (1) 
0000A24F00000001

>  <PUBCHEM_MMFF94_ENERGY>  (1) 
41.8344

>  <PUBCHEM_FEATURE_SELFOVERLAP>  (1) 
10.149

>  <PUBCHEM_SHAPE_FINGERPRINT>  (1) 
11471102 20 18260830414734091140
11578080 2 17772156822281529097
12236239 1 18060142033082929147
124424 183 17458058266164019656
12500047 106 16343428284823526667
13134695 92 18333728026891970044
13581323 91 16487534745262177382
13760787 5 18334583434443439094
14115302 16 17917137425145496455
14576447 43 18270951431762781478
14993402 34 18413666920103541054
15219456 202 17313391170284780684
15653759 3 16443350900591208632
16945 1 18334861640348774152
17357779 13 18186796959361800196
17834072 33 17417811773054207176
18186145 218 18187081775775308171
19026448 4 16153432761712263466
19026448 5 17418380194590098904
19049666 15 17168419359793127497
19422 9 17775569740633026694
200 152 18413103957323064459
20201158 50 17821451244231854370
20279233 1 17240768375730724483
20645477 56 15213298599930805551
20645477 70 17968652714281982154
21639500 275 18263646336642485381
22112679 90 17631747052957815961
22926399 65 15502367911738353487
23175994 123 17894922810260155348
232386 152 17060336366181967165
23402539 116 18341331115443180902
23402655 69 18261945254947250573
23419403 2 15438686345788656122
23493267 7 16008743606548780497
23526113 38 17604416406199456243
23557571 272 15123519090187108841
23559900 14 15482123665462553916
23598291 2 18130794494126135301
25 1 17603857858988349043
2748010 2 18047751491069240094
474 4 17984693674482923912
77492 1 18060144240674948827
81228 2 17825388483918600340

>  <PUBCHEM_SHAPE_MULTIPOLES>  (1) 
314.3
7.94
1.52
1.4
2.56
0.89
0
-2.04
-1.9
0.89
-0.25
-2.02
-0.07
-0.74

>  <PUBCHEM_SHAPE_SELFOVERLAP>  (1) 
654.564

>  <PUBCHEM_SHAPE_VOLUME>  (1) 
172.3

>  <PUBCHEM_COORDINATE_TYPE>  (1) 
2
5
10

$$$$
