41554
     RDKit          3D

 11 10  0  0  1  0  0  0  0  0999 V2000
   -1.7359    0.6365    0.3404 O   0  0  0  0  0  0  0  0  0  0  0  0
    2.4546   -1.8143   -0.6382 O   0  0  0  0  0  0  0  0  0  0  0  0
    3.4862   -0.6876    1.0383 O   0  0  0  0  0  0  0  0  0  0  0  0
    2.8808    1.6735   -0.2828 N   0  0  0  0  0  0  0  0  0  0  0  0
   -5.1183   -0.7139   -0.1575 N   0  0  0  0  0  0  0  0  0  0  0  0
    1.9925    0.5252   -0.4595 C   0  0  0  0  0  0  0  0  0  0  0  0
   -2.7539   -0.1003   -0.3162 C   0  0  0  0  0  0  0  0  0  0  0  0
    0.6612    0.6095    0.2375 C   0  0  0  0  0  0  0  0  0  0  0  0
   -4.0378    0.0150    0.4899 C   0  0  0  0  0  0  0  0  0  0  0  0
   -0.5479    0.5494   -0.3356 C   0  0  0  0  0  0  0  0  0  0  0  0
    2.7185   -0.6929    0.0838 C   0  0  0  0  0  0  0  0  0  0  0  0
  1  7  1  0
  1 10  1  0
  2 11  1  0
  3 11  2  0
  4  6  1  0
  5  9  1  0
  6  8  1  0
  6 11  1  0
  7  9  1  0
  8 10  2  0
M  END
>  <PUBCHEM_COMPOUND_CID>  (1) 
41554

>  <PUBCHEM_CONFORMER_RMSD>  (1) 
0.6

>  <PUBCHEM_CONFORMER_DIVERSEORDER>  (1) 
1
112
90
105
42
55
25
57
44
10
108
87
15
73
110
26
60
17
100
77
116
106
62
81
80
93
113
95
5
34
9
64
21
120
51
107
50
45
68
3
103
114
78
31
94
40
115
4
33
96
67
111
119
12
85
18
86
52
53
8
88
41
89
59
66
13
98
27
92
61
6
24
99
29
109
72
97
35
49
101
7
84
79
71
38
43
37
39
46
65
30
118
54
11
102
48
36
70
83
82
63
91
16
22
20
2
19
117
14
56
28
23
69
47
74
104
76
75
32
58

>  <PUBCHEM_MMFF94_PARTIAL_CHARGES>  (1) 
18
1 -0.36
10 -0.07
11 0.66
15 0.15
18 0.15
19 0.36
2 -0.65
20 0.36
21 0.36
22 0.36
23 0.5
3 -0.57
4 -0.99
5 -0.99
6 0.47
7 0.28
8 -0.29
9 0.27

>  <PUBCHEM_EFFECTIVE_ROTOR_COUNT>  (1) 
5

>  <PUBCHEM_PHARMACOPHORE_FEATURES>  (1) 
8
1 1 acceptor
1 2 acceptor
1 3 acceptor
1 4 cation
1 4 donor
1 5 cation
1 5 donor
3 2 3 11 anion

>  <PUBCHEM_HEAVY_ATOM_COUNT>  (1) 
11

>  <PUBCHEM_ATOM_DEF_STEREO_COUNT>  (1) 
0

>  <PUBCHEM_ATOM_UDEF_STEREO_COUNT>  (1) 
1

>  <PUBCHEM_BOND_DEF_STEREO_COUNT>  (1) 
0

>  <PUBCHEM_BOND_UDEF_STEREO_COUNT>  (1) 
1

>  <PUBCHEM_ISOTOPIC_ATOM_COUNT>  (1) 
0

>  <PUBCHEM_COMPONENT_COUNT>  (1) 
1

>  <PUBCHEM_CACTVS_TAUTO_COUNT>  (1) 
1

>  <PUBCHEM_CONFORMER_ID>  (1) 
0000A25200000001

>  <PUBCHEM_MMFF94_ENERGY>  (1) 
13.9756

>  <PUBCHEM_FEATURE_SELFOVERLAP>  (1) 
40.655

>  <PUBCHEM_SHAPE_FINGERPRINT>  (1) 
11987891 38 18410577305820833267
12346645 6 18410014372804597364
12932764 1 17274814757732847133
14251717 144 18411136926852983231
14252887 29 18343303630682100898
14325111 11 18409451388459762925
15477762 27 18408606929259459494
177051 138 18271810090245738807
190213 19 18272932700555662385
20279233 1 17095528417340197185
20645477 70 18335137587887405535
20871998 22 18267868277068240646
21119208 17 13479134579524983115
21501925 9 18410568466303215664
22485316 2 18409165550054502061
3060560 45 12179844979164299616
581208 293 18413107264247591254

>  <PUBCHEM_SHAPE_MULTIPOLES>  (1) 
198.8
8.57
1.29
0.77
9.34
0.12
0.06
2.19
0.65
-1.34
-0.17
-0.25
0.08
-0.2

>  <PUBCHEM_SHAPE_SELFOVERLAP>  (1) 
372.327

>  <PUBCHEM_SHAPE_VOLUME>  (1) 
123.6

>  <PUBCHEM_COORDINATE_TYPE>  (1) 
2
5
10

$$$$
