41568
     RDKit          3D

 10  9  0  0  1  0  0  0  0  0999 V2000
    0.1589   -0.0402    0.1470 O   0  0  0  0  0  0  0  0  0  0  0  0
    2.6846    1.0121   -0.2916 O   0  0  0  0  0  0  0  0  0  0  0  0
   -4.5987    0.9369    0.2205 N   0  0  0  0  0  0  0  0  0  0  0  0
    1.2144   -0.8838   -0.2934 C   0  0  0  0  0  0  0  0  0  0  0  0
   -1.1037   -0.4984   -0.3182 C   0  0  0  0  0  0  0  0  0  0  0  0
   -2.1857    0.4477    0.1882 C   0  0  0  0  0  0  0  0  0  0  0  0
    2.5303   -0.3092    0.2156 C   0  0  0  0  0  0  0  0  0  0  0  0
    0.9769   -2.2883    0.2405 C   0  0  0  0  0  0  0  0  0  0  0  0
   -3.5849    0.0302   -0.2447 C   0  0  0  0  0  0  0  0  0  0  0  0
    3.9081    1.5930    0.1361 C   0  0  0  0  0  0  0  0  0  0  0  0
  1  4  1  0
  1  5  1  0
  2  7  1  0
  2 10  1  0
  3  9  1  0
  4  7  1  0
  4  8  1  0
  5  6  1  0
  6  9  1  0
M  END
>  <PUBCHEM_COMPOUND_CID>  (1) 
41568

>  <PUBCHEM_CONFORMER_RMSD>  (1) 
0.6

>  <PUBCHEM_CONFORMER_DIVERSEORDER>  (1) 
1
144
135
33
48
129
49
121
87
42
27
111
26
149
75
3
46
134
127
142
28
97
132
146
85
124
117
139
29
137
140
51
91
89
77
120
17
60
119
147
108
25
110
12
138
148
133
71
63
131
93
99
6
101
81
122
141
34
73
61
37
79
86
80
57
102
88
36
72
7
50
105
116
39
95
65
107
21
53
76
5
31
96
104
38
55
54
109
59
8
130
94
52
56
66
67
43
14
58
82
92
123
84
113
40
74
103
16
18
22
23
32
68
143
115
78
125
106
70
30
98
62
136
15
47
19
41
10
100
126
11
83
35
45
24
2
13
64
44
69
128
9
112
20
90
145
4
118
114

>  <PUBCHEM_MMFF94_PARTIAL_CHARGES>  (1) 
10
1 -0.56
10 0.28
2 -0.56
23 0.36
24 0.36
3 -0.99
4 0.28
5 0.28
7 0.28
9 0.27

>  <PUBCHEM_EFFECTIVE_ROTOR_COUNT>  (1) 
6

>  <PUBCHEM_PHARMACOPHORE_FEATURES>  (1) 
4
1 1 acceptor
1 2 acceptor
1 3 cation
1 3 donor

>  <PUBCHEM_HEAVY_ATOM_COUNT>  (1) 
10

>  <PUBCHEM_ATOM_DEF_STEREO_COUNT>  (1) 
0

>  <PUBCHEM_ATOM_UDEF_STEREO_COUNT>  (1) 
1

>  <PUBCHEM_BOND_DEF_STEREO_COUNT>  (1) 
0

>  <PUBCHEM_BOND_UDEF_STEREO_COUNT>  (1) 
0

>  <PUBCHEM_ISOTOPIC_ATOM_COUNT>  (1) 
0

>  <PUBCHEM_COMPONENT_COUNT>  (1) 
1

>  <PUBCHEM_CACTVS_TAUTO_COUNT>  (1) 
1

>  <PUBCHEM_CONFORMER_ID>  (1) 
0000A26000000001

>  <PUBCHEM_MMFF94_ENERGY>  (1) 
15.2512

>  <PUBCHEM_FEATURE_SELFOVERLAP>  (1) 
20.302

>  <PUBCHEM_SHAPE_FINGERPRINT>  (1) 
122479 349 18191869131365778000
12932764 1 17823135636201148407
14325111 11 18410292535965844686
14390081 3 18412263938818381645
14897335 6 18412259562331304478
15775835 57 18343020025232682892
170605 34 18413109454770609030
18342897 55 18411411830387066167
20645477 70 18268707213146609319
21499 59 18410568526300902150
23532345 1 18336265652705366897
449060 50 18408608054699062093
449060 62 18341614797827554737
81539 233 18334293158530320638

>  <PUBCHEM_SHAPE_MULTIPOLES>  (1) 
189.08
7.57
1.73
0.64
4.82
0.69
-0.01
-4.87
0.31
-1.49
0.13
0
0.03
-0.17

>  <PUBCHEM_SHAPE_SELFOVERLAP>  (1) 
337.82

>  <PUBCHEM_SHAPE_VOLUME>  (1) 
123.9

>  <PUBCHEM_COORDINATE_TYPE>  (1) 
2
5
10

$$$$
