41563
     RDKit          3D

 30 31  0  0  1  0  0  0  0  0999 V2000
   -6.3549    0.7232   -0.9276 O   0  0  0  0  0  0  0  0  0  0  0  0
   -5.4672    0.8665    1.9347 O   0  0  0  0  0  0  0  0  0  0  0  0
   -8.7976   -0.0278    0.8844 O   0  0  0  0  0  0  0  0  0  0  0  0
   -6.6068    3.4474   -1.4537 O   0  0  0  0  0  0  0  0  0  0  0  0
   -5.0138   -2.9529    0.1243 O   0  0  0  0  0  0  0  0  0  0  0  0
    0.0638    0.4711    0.2285 O   0  0  0  0  0  0  0  0  0  0  0  0
   -4.6353   -0.6979   -0.2086 N   0  0  0  0  0  0  0  0  0  0  0  0
   -2.8621   -2.3098   -0.2247 N   0  0  0  0  0  0  0  0  0  0  0  0
   -0.7177   -1.5666   -0.5853 N   0  0  0  0  0  0  0  0  0  0  0  0
   -6.4419    0.0245    1.3301 C   0  0  0  0  0  0  0  0  0  0  0  0
   -7.6839    0.8460    1.0549 C   0  0  0  0  0  0  0  0  0  0  0  0
   -6.0260   -0.3816   -0.0752 C   0  0  0  0  0  0  0  0  0  0  0  0
   -7.3820    1.5100   -0.2897 C   0  0  0  0  0  0  0  0  0  0  0  0
   -6.8627    2.9347   -0.1576 C   0  0  0  0  0  0  0  0  0  0  0  0
   -3.7298    0.3148   -0.4500 C   0  0  0  0  0  0  0  0  0  0  0  0
   -4.2154   -2.0393   -0.0909 C   0  0  0  0  0  0  0  0  0  0  0  0
    6.7091   -0.5289   -0.1520 C   0  0  0  0  0  0  0  0  0  0  0  0
    7.8133    0.4745    0.1908 C   0  0  0  0  0  0  0  0  0  0  0  0
    5.3228    0.1015    0.0059 C   0  0  0  0  0  0  0  0  0  0  0  0
    9.2260   -0.0989    0.0432 C   0  0  0  0  0  0  0  0  0  0  0  0
    4.1743   -0.8678   -0.2910 C   0  0  0  0  0  0  0  0  0  0  0  0
   10.3745    0.8665    0.3514 C   0  0  0  0  0  0  0  0  0  0  0  0
    2.7879   -0.2409   -0.1081 C   0  0  0  0  0  0  0  0  0  0  0  0
   -2.4236    0.0825   -0.5835 C   0  0  0  0  0  0  0  0  0  0  0  0
   11.7596    0.2548    0.1321 C   0  0  0  0  0  0  0  0  0  0  0  0
   -2.0481   -1.3328   -0.4503 C   0  0  0  0  0  0  0  0  0  0  0  0
    1.6625   -1.2089   -0.4740 C   0  0  0  0  0  0  0  0  0  0  0  0
   12.8637    1.2869    0.3658 C   0  0  0  0  0  0  0  0  0  0  0  0
    0.2700   -0.6467   -0.2366 C   0  0  0  0  0  0  0  0  0  0  0  0
   14.2414    0.6956    0.1127 C   0  0  0  0  0  0  0  0  0  0  0  0
  1 12  1  0
  1 13  1  0
  2 10  1  0
  3 11  1  0
  4 14  1  0
  5 16  2  0
  6 29  2  0
  7 12  1  0
  7 15  1  0
  7 16  1  0
  8 16  1  0
  8 26  2  0
  9 26  1  0
  9 29  1  0
 10 11  1  0
 10 12  1  0
 11 13  1  0
 13 14  1  0
 15 24  2  0
 17 18  1  0
 17 19  1  0
 18 20  1  0
 19 21  1  0
 20 22  1  0
 21 23  1  0
 22 25  1  0
 23 27  1  0
 24 26  1  0
 25 28  1  0
 27 29  1  0
 28 30  1  0
M  END
>  <PUBCHEM_COMPOUND_CID>  (1) 
41563

>  <PUBCHEM_CONFORMER_RMSD>  (1) 
1.2

>  <PUBCHEM_CONFORMER_DIVERSEORDER>  (1) 
1
117
59
116
70
83
97
27
73
94
75
63
119
92
89
95
37
65
44
76
72
122
120
4
64
15
90
6
121
101
69
57
46
52
85
13
53
107
21
18
96
51
26
34
74
109
126
32
123
17
82
7
113
110
111
24
98
48
118
16
55
91
49
41
127
114
99
33
43
66
104
38
5
20
3
31
2
102
9
60
50
30
103
11
87
125
78
129
100
12
25
80
35
10
62
54
86
47
105
40
22
45
29
93
115
88
81
79
71
84
39
8
67
14
108
19
56
128
36
77
61
68
58
112
106
28
42
23
124

>  <PUBCHEM_MMFF94_PARTIAL_CHARGES>  (1) 
26
1 -0.56
10 0.28
11 0.28
12 0.58
13 0.28
14 0.28
15 -0.04
16 0.84
2 -0.68
24 -0.14
26 0.5
27 0.06
29 0.57
3 -0.68
37 0.4
38 0.4
39 0.15
4 -0.68
5 -0.57
54 0.4
55 0.15
6 -0.57
62 0.37
7 -0.47
8 -0.66
9 -0.49

>  <PUBCHEM_EFFECTIVE_ROTOR_COUNT>  (1) 
15

>  <PUBCHEM_PHARMACOPHORE_FEATURES>  (1) 
14
1 1 acceptor
1 2 acceptor
1 2 donor
1 3 acceptor
1 3 donor
1 30 hydrophobe
1 4 acceptor
1 4 donor
1 5 acceptor
1 6 acceptor
1 8 donor
1 9 donor
5 1 10 11 12 13 rings
6 7 8 15 16 24 26 rings

>  <PUBCHEM_HEAVY_ATOM_COUNT>  (1) 
30

>  <PUBCHEM_ATOM_DEF_STEREO_COUNT>  (1) 
4

>  <PUBCHEM_ATOM_UDEF_STEREO_COUNT>  (1) 
0

>  <PUBCHEM_BOND_DEF_STEREO_COUNT>  (1) 
0

>  <PUBCHEM_BOND_UDEF_STEREO_COUNT>  (1) 
0

>  <PUBCHEM_ISOTOPIC_ATOM_COUNT>  (1) 
0

>  <PUBCHEM_COMPONENT_COUNT>  (1) 
1

>  <PUBCHEM_CACTVS_TAUTO_COUNT>  (1) 
4

>  <PUBCHEM_CONFORMER_ID>  (1) 
0000A25B00000001

>  <PUBCHEM_MMFF94_ENERGY>  (1) 
62.6262

>  <PUBCHEM_FEATURE_SELFOVERLAP>  (1) 
71.107

>  <PUBCHEM_SHAPE_FINGERPRINT>  (1) 
10 15 18261112954841767611
10674148 151 18333449855235220456
11061554 47 18341894083231151396
11211813 89 17989488528800968792
11315181 36 17632296774796885819
12089408 11 18260828237934959766
12498461 61 15357987793554056641
12522641 33 16845577509732048942
12559415 86 18340495479102937204
12664476 115 17632574951824360520
13165054 146 18336814331352773047
14251764 46 18201720661488573326
15247644 1 11386365938198261232
15461852 350 16702015409483519823
15510794 2 18060706096103449758
155225 1 18131351913110848712
16728433 110 13190341293441126366
17093844 174 18341614832715093251
1754911 235 16343982521021579244
20737093 207 13479435868843487001
21026386 39 14562823180051207561
21026386 80 17346884412772088364
21057603 285 13480276874113943165
21362267 2 17202750619573672464
21362267 20 14201402716241111408
21362267 313 18337103477289130282
232437 2 18187079578208143922
23528940 14 15864079814601420683
3711267 37 18410022035411933820
4017518 198 13542464276417117084
57828716 8 15575002814992466155
59520647 208 15574982928586789952
59521270 166 18413386545503732174
59521506 201 17317589991631110037
59521660 218 13984959449860617998
59584819 82 13623821566152775225
636775 72 18341894074177116465
67123 10 18335980948857651054
9663363 56 16153421757695153047

>  <PUBCHEM_SHAPE_MULTIPOLES>  (1) 
567.23
48.3
2.26
0.96
181.31
0.59
0.19
26.31
7.78
-6.55
-0.56
-1.96
0.34
1.21

>  <PUBCHEM_SHAPE_SELFOVERLAP>  (1) 
1139.962

>  <PUBCHEM_SHAPE_VOLUME>  (1) 
331.9

>  <PUBCHEM_COORDINATE_TYPE>  (1) 
2
5
10

$$$$
