41561
     RDKit          3D

  9  8  0  0  0  0  0  0  0  0999 V2000
    2.0681    0.4600    1.3430 O   0  0  0  0  0  0  0  0  0  0  0  0
   -3.0005    0.4518    0.1114 O   0  0  0  0  0  0  0  0  0  0  0  0
    1.9580   -0.0065   -0.0034 C   0  0  0  0  0  0  0  0  0  0  0  0
    0.5772   -0.6713   -0.1755 C   0  0  0  0  0  0  0  0  0  0  0  0
   -0.6124    0.2586    0.0831 C   0  0  0  0  0  0  0  0  0  0  0  0
    2.1562    1.1825   -0.9460 C   0  0  0  0  0  0  0  0  0  0  0  0
    3.0607   -1.0453   -0.2331 C   0  0  0  0  0  0  0  0  0  0  0  0
   -1.9384   -0.4617   -0.1274 C   0  0  0  0  0  0  0  0  0  0  0  0
   -4.2689   -0.1681   -0.0520 C   0  0  0  0  0  0  0  0  0  0  0  0
  1  3  1  0
  2  8  1  0
  2  9  1  0
  3  4  1  0
  3  6  1  0
  3  7  1  0
  4  5  1  0
  5  8  1  0
M  END
>  <PUBCHEM_COMPOUND_CID>  (1) 
41561

>  <PUBCHEM_CONFORMER_RMSD>  (1) 
0.6

>  <PUBCHEM_CONFORMER_DIVERSEORDER>  (1) 
1
16
5
14
9
18
11
19
15
17
13
2
12
6
10
8
3
7
4

>  <PUBCHEM_MMFF94_PARTIAL_CHARGES>  (1) 
6
1 -0.68
2 -0.56
22 0.4
3 0.28
8 0.28
9 0.28

>  <PUBCHEM_EFFECTIVE_ROTOR_COUNT>  (1) 
4

>  <PUBCHEM_PHARMACOPHORE_FEATURES>  (1) 
4
1 1 acceptor
1 1 donor
1 2 acceptor
3 3 6 7 hydrophobe

>  <PUBCHEM_HEAVY_ATOM_COUNT>  (1) 
9

>  <PUBCHEM_ATOM_DEF_STEREO_COUNT>  (1) 
0

>  <PUBCHEM_ATOM_UDEF_STEREO_COUNT>  (1) 
0

>  <PUBCHEM_BOND_DEF_STEREO_COUNT>  (1) 
0

>  <PUBCHEM_BOND_UDEF_STEREO_COUNT>  (1) 
0

>  <PUBCHEM_ISOTOPIC_ATOM_COUNT>  (1) 
0

>  <PUBCHEM_COMPONENT_COUNT>  (1) 
1

>  <PUBCHEM_CACTVS_TAUTO_COUNT>  (1) 
1

>  <PUBCHEM_CONFORMER_ID>  (1) 
0000A25900000001

>  <PUBCHEM_MMFF94_ENERGY>  (1) 
17.3158

>  <PUBCHEM_FEATURE_SELFOVERLAP>  (1) 
20.297

>  <PUBCHEM_SHAPE_FINGERPRINT>  (1) 
11062470 55 8718824288858288271
12932764 1 17775565351440012333
14325111 11 18408044030766511439
14344429 50 17489869345427290720
14390081 3 17846214462535094161
170605 34 17604718905405266316
18186145 218 17313101956225259197
190213 19 18409446990555462223
3248919 1 18334571378074723575
5084963 1 18411703149444441824

>  <PUBCHEM_SHAPE_MULTIPOLES>  (1) 
173.48
6.53
1.02
0.86
6.68
0.12
-0.18
-0.35
0.27
-0.74
0.19
-0.51
0.1
-0.09

>  <PUBCHEM_SHAPE_SELFOVERLAP>  (1) 
311.291

>  <PUBCHEM_SHAPE_VOLUME>  (1) 
114.1

>  <PUBCHEM_COORDINATE_TYPE>  (1) 
2
5
10

$$$$
