41576
     RDKit          3D

 15 15  0  0  0  0  0  0  0  0999 V2000
   -0.7464   -1.5096   -0.0005 O   0  0  0  0  0  0  0  0  0  0  0  0
    5.0823    1.6463    0.0007 O   0  0  0  0  0  0  0  0  0  0  0  0
    0.4092    0.5353   -0.0049 N   0  0  0  0  0  0  0  0  0  0  0  0
   -3.2539   -0.2966   -0.0070 C   0  0  0  0  0  0  0  0  0  0  0  0
   -4.5107    0.5737    0.0283 C   0  0  0  0  0  0  0  0  0  0  0  0
   -1.9869    0.5558   -0.0075 C   0  0  0  0  0  0  0  0  0  0  0  0
   -5.7786   -0.2790   -0.0052 C   0  0  0  0  0  0  0  0  0  0  0  0
   -0.7166   -0.2834   -0.0042 C   0  0  0  0  0  0  0  0  0  0  0  0
   -7.0304    0.5836   -0.0043 C   0  0  0  0  0  0  0  0  0  0  0  0
    1.7667    0.1354   -0.0025 C   0  0  0  0  0  0  0  0  0  0  0  0
    2.7582    1.1025   -0.0027 C   0  0  0  0  0  0  0  0  0  0  0  0
    2.0749   -1.2149    0.0010 C   0  0  0  0  0  0  0  0  0  0  0  0
    4.0960    0.7081    0.0006 C   0  0  0  0  0  0  0  0  0  0  0  0
    3.4128   -1.6092    0.0042 C   0  0  0  0  0  0  0  0  0  0  0  0
    4.4233   -0.6479    0.0040 C   0  0  0  0  0  0  0  0  0  0  0  0
  1  8  2  0
  2 13  1  0
  3  8  1  0
  3 10  1  0
  4  5  1  0
  4  6  1  0
  5  7  1  0
  6  8  1  0
  7  9  1  0
 10 11  2  0
 10 12  1  0
 11 13  1  0
 12 14  2  0
 13 15  2  0
 14 15  1  0
M  END
>  <PUBCHEM_COMPOUND_CID>  (1) 
41576

>  <PUBCHEM_CONFORMER_RMSD>  (1) 
0.6

>  <PUBCHEM_CONFORMER_DIVERSEORDER>  (1) 
1
101
141
144
93
4
147
43
140
62
56
103
110
145
45
57
26
133
94
38
30
81
67
85
121
5
105
88
15
96
92
138
146
106
55
143
127
119
95
86
18
13
104
40
139
68
79
107
52
123
14
142
84
102
54
87
46
82
12
108
11
74
109
126
128
2
134
29
8
91
120
37
124
39
117
75
112
16
129
41
50
7
65
64
114
89
3
76
100
78
58
25
122
132
20
28
130
113
9
116
99
6
66
125
90
70
63
10
83
49
98
60
97
33
69
48
72
31
136
34
61
137
80
111
22
135
35
53
19
131
36
115
42
118
47
24
23
77
71
17
21
73
59
32
27
44
51

>  <PUBCHEM_MMFF94_PARTIAL_CHARGES>  (1) 
17
1 -0.57
10 0.12
11 -0.15
12 -0.15
13 0.08
14 -0.15
15 -0.15
2 -0.53
27 0.37
28 0.15
29 0.15
3 -0.55
30 0.15
31 0.15
32 0.45
6 0.06
8 0.57

>  <PUBCHEM_EFFECTIVE_ROTOR_COUNT>  (1) 
6

>  <PUBCHEM_PHARMACOPHORE_FEATURES>  (1) 
6
1 1 acceptor
1 2 donor
1 3 donor
1 9 hydrophobe
4 4 5 6 7 hydrophobe
6 10 11 12 13 14 15 rings

>  <PUBCHEM_HEAVY_ATOM_COUNT>  (1) 
15

>  <PUBCHEM_ATOM_DEF_STEREO_COUNT>  (1) 
0

>  <PUBCHEM_ATOM_UDEF_STEREO_COUNT>  (1) 
0

>  <PUBCHEM_BOND_DEF_STEREO_COUNT>  (1) 
0

>  <PUBCHEM_BOND_UDEF_STEREO_COUNT>  (1) 
0

>  <PUBCHEM_ISOTOPIC_ATOM_COUNT>  (1) 
0

>  <PUBCHEM_COMPONENT_COUNT>  (1) 
1

>  <PUBCHEM_CACTVS_TAUTO_COUNT>  (1) 
13

>  <PUBCHEM_CONFORMER_ID>  (1) 
0000A26800000001

>  <PUBCHEM_MMFF94_ENERGY>  (1) 
27.8713

>  <PUBCHEM_FEATURE_SELFOVERLAP>  (1) 
30.446

>  <PUBCHEM_SHAPE_FINGERPRINT>  (1) 
10912923 1 18060702767244747555
11287383 113 18260268568508085171
11471102 20 18411419510157622346
12107183 9 17549830984398977571
12236239 1 18131632275348092773
12916748 109 17313103034130428613
13167372 99 18270966726710995705
13533116 47 18060138700067358370
14123238 8 17632858620790451797
1420 363 17894636946459617595
14251732 16 18338518646667802867
15048467 5 18412262865087431912
15242433 33 18343582953874830559
17834072 33 18272367590165210375
17834076 25 15554447392547971397
19427546 62 18262802990134013154
200 152 18130786746416199993
20281389 69 18334013857593408845
20645477 70 18340206284851858982
21267235 1 18340210691899475382
212847 35 18201717349124601272
220451 1 17489587866477535279
23402539 116 18060413621704262117
23402655 69 18272086119151196742
23536379 177 18412826859503500153
23557571 272 16878224147656848287
29717793 49 17632301146598592876
300161 21 18272927245799568367
33824 294 18334011666643064994
3545911 37 18409450297226677508
4047638 21 18334576850089808074
42630746 31 18342739585295923190
42788 4 18410575072511426021
4340502 62 16950000326958299579
4463277 17 18411138022512599433
449060 50 18334294296817908460
522135 26 18411419492782730242
5374978 207 18408316679543250536
542803 24 17346882243523205721
6025842 7 18342741797731588510
69090 78 18411416219706719703
8272917 22 18272092660566120086

>  <PUBCHEM_SHAPE_MULTIPOLES>  (1) 
291.97
14.71
1.39
0.6
20.97
0.14
0
-2.87
0.01
-1.73
0
0.03
0
-0.01

>  <PUBCHEM_SHAPE_SELFOVERLAP>  (1) 
585.941

>  <PUBCHEM_SHAPE_VOLUME>  (1) 
171.6

>  <PUBCHEM_COORDINATE_TYPE>  (1) 
2
5
10

$$$$
