41579
     RDKit          3D

 14 14  0  0  0  0  0  0  0  0999 V2000
   -4.4386    1.5418    0.2201 O   0  0  0  0  0  0  0  0  0  0  0  0
    1.4690   -1.4111   -0.3323 O   0  0  0  0  0  0  0  0  0  0  0  0
    0.2550    0.5913   -0.1530 N   0  0  0  0  0  0  0  0  0  0  0  0
   -1.0866    0.1452   -0.0699 C   0  0  0  0  0  0  0  0  0  0  0  0
    3.8436    0.2978    0.0952 C   0  0  0  0  0  0  0  0  0  0  0  0
   -2.1045    1.0777    0.0354 C   0  0  0  0  0  0  0  0  0  0  0  0
   -1.3502   -1.2138   -0.0968 C   0  0  0  0  0  0  0  0  0  0  0  0
    2.6194    0.6667   -0.3236 C   0  0  0  0  0  0  0  0  0  0  0  0
    1.3974   -0.1908   -0.2632 C   0  0  0  0  0  0  0  0  0  0  0  0
   -3.4257    0.6382    0.1163 C   0  0  0  0  0  0  0  0  0  0  0  0
   -2.6715   -1.6534   -0.0158 C   0  0  0  0  0  0  0  0  0  0  0  0
   -3.7093   -0.7274    0.0906 C   0  0  0  0  0  0  0  0  0  0  0  0
    4.9974    1.2598   -0.0213 C   0  0  0  0  0  0  0  0  0  0  0  0
    4.2047   -1.0218    0.7183 C   0  0  0  0  0  0  0  0  0  0  0  0
  1 10  1  0
  2  9  2  0
  3  4  1  0
  3  9  1  0
  4  6  2  0
  4  7  1  0
  5  8  2  3
  5 13  1  0
  5 14  1  0
  6 10  1  0
  7 11  2  0
  8  9  1  0
 10 12  2  0
 11 12  1  0
M  END
>  <PUBCHEM_COMPOUND_CID>  (1) 
41579

>  <PUBCHEM_CONFORMER_RMSD>  (1) 
0.6

>  <PUBCHEM_CONFORMER_DIVERSEORDER>  (1) 
1
11
8
9
4
5
7
12
10
2
3
6

>  <PUBCHEM_MMFF94_PARTIAL_CHARGES>  (1) 
21
1 -0.53
10 0.08
11 -0.15
12 -0.15
13 0.14
14 0.14
15 0.37
16 0.15
17 0.15
18 0.15
19 0.15
2 -0.57
20 0.15
27 0.45
3 -0.55
4 0.12
5 -0.28
6 -0.15
7 -0.15
8 -0.14
9 0.62

>  <PUBCHEM_EFFECTIVE_ROTOR_COUNT>  (1) 
3

>  <PUBCHEM_PHARMACOPHORE_FEATURES>  (1) 
5
1 1 donor
1 2 acceptor
1 3 donor
3 5 13 14 hydrophobe
6 4 6 7 10 11 12 rings

>  <PUBCHEM_HEAVY_ATOM_COUNT>  (1) 
14

>  <PUBCHEM_ATOM_DEF_STEREO_COUNT>  (1) 
0

>  <PUBCHEM_ATOM_UDEF_STEREO_COUNT>  (1) 
0

>  <PUBCHEM_BOND_DEF_STEREO_COUNT>  (1) 
0

>  <PUBCHEM_BOND_UDEF_STEREO_COUNT>  (1) 
0

>  <PUBCHEM_ISOTOPIC_ATOM_COUNT>  (1) 
0

>  <PUBCHEM_COMPONENT_COUNT>  (1) 
1

>  <PUBCHEM_CACTVS_TAUTO_COUNT>  (1) 
13

>  <PUBCHEM_CONFORMER_ID>  (1) 
0000A26B00000001

>  <PUBCHEM_MMFF94_ENERGY>  (1) 
37.349

>  <PUBCHEM_FEATURE_SELFOVERLAP>  (1) 
25.371

>  <PUBCHEM_SHAPE_FINGERPRINT>  (1) 
10014705 185 18335416859735778021
11132069 177 18410295808715028636
12251169 10 18261110798673090068
12500047 106 18342452643094441139
13167823 11 18334292076494104082
13214271 11 18342455971599111357
13380535 76 18412827966967233215
13675066 3 17530686485035235752
13760787 19 18408604773254474578
14325111 11 18410292527876842662
14445660 50 18409169908987520952
14897335 6 18341049636087269399
15196674 1 18410575089206206410
15219456 202 18130234773940608927
15375358 24 18130791135471992967
15536298 74 18342178813101975926
18186145 218 17821443552214575750
19050596 39 18334572439047605954
200 152 18201429320608032767
20279233 1 17917999373093725119
20645477 56 18411422787223301245
20645477 70 16845021104422147494
22485316 2 18335136505586977088
23402539 116 18341886390237491893
23463225 33 18334575750425199614
23559900 14 18201160949629503966
300161 21 18334850632669464708
42 15 18186800262449801394
4214541 1 18410011039714699112
449060 50 18413112753268465205
5104073 3 18409166614810818418
573450 72 18336255799581125546
69090 78 18412259515397848679
7364860 26 18198343949004511870
77779 3 18410012152337919722
9709674 26 18411989069591705782

>  <PUBCHEM_SHAPE_MULTIPOLES>  (1) 
271.39
9.85
1.57
0.66
5.63
0.18
-0.02
-2.19
-1.15
-0.63
-0.04
0.18
0.04
-0.39

>  <PUBCHEM_SHAPE_SELFOVERLAP>  (1) 
557.739

>  <PUBCHEM_SHAPE_VOLUME>  (1) 
155.9

>  <PUBCHEM_COORDINATE_TYPE>  (1) 
2
5
10

$$$$
