41587
     RDKit          3D

 21 22  0  0  0  0  0  0  0  0999 V2000
    0.9469    1.0453    0.0087 O   0  0  0  0  0  0  0  0  0  0  0  0
   -0.4561   -0.7199    0.3906 O   0  0  0  0  0  0  0  0  0  0  0  0
   -5.1290   -1.3757    0.4525 O   0  0  0  0  0  0  0  0  0  0  0  0
    4.5188    0.1829    0.2989 N   0  0  0  0  0  0  0  0  0  0  0  0
   -1.2634    1.4171   -0.1212 N   0  0  0  0  0  0  0  0  0  0  0  0
    5.7388    1.0016    0.2618 C   0  0  0  0  0  0  0  0  0  0  0  0
    4.5821   -0.9095   -0.6821 C   0  0  0  0  0  0  0  0  0  0  0  0
    6.9796    0.1565    0.5545 C   0  0  0  0  0  0  0  0  0  0  0  0
    5.7851   -1.8170   -0.4205 C   0  0  0  0  0  0  0  0  0  0  0  0
    7.0863   -1.0227   -0.4056 C   0  0  0  0  0  0  0  0  0  0  0  0
    3.3379    1.0134    0.0641 C   0  0  0  0  0  0  0  0  0  0  0  0
    2.0661    0.1968    0.2283 C   0  0  0  0  0  0  0  0  0  0  0  0
   -0.2932    0.4634    0.1190 C   0  0  0  0  0  0  0  0  0  0  0  0
   -2.6671    1.2525   -0.1109 C   0  0  0  0  0  0  0  0  0  0  0  0
   -3.2030    0.0054    0.1684 C   0  0  0  0  0  0  0  0  0  0  0  0
   -3.4804    2.3420   -0.3794 C   0  0  0  0  0  0  0  0  0  0  0  0
   -4.5883   -0.1566    0.1796 C   0  0  0  0  0  0  0  0  0  0  0  0
   -5.4198    0.9308   -0.0890 C   0  0  0  0  0  0  0  0  0  0  0  0
   -4.8658    2.1800   -0.3684 C   0  0  0  0  0  0  0  0  0  0  0  0
   -4.3655   -2.5223    0.0813 C   0  0  0  0  0  0  0  0  0  0  0  0
   -5.3098   -3.6637   -0.2304 C   0  0  0  0  0  0  0  0  0  0  0  0
  1 12  1  0
  1 13  1  0
  2 13  2  0
  3 17  1  0
  3 20  1  0
  4  6  1  0
  4  7  1  0
  4 11  1  0
  5 13  1  0
  5 14  1  0
  6  8  1  0
  7  9  1  0
  8 10  1  0
  9 10  1  0
 11 12  1  0
 14 15  2  0
 14 16  1  0
 15 17  1  0
 16 19  2  0
 17 18  2  0
 18 19  1  0
 20 21  1  0
M  END
>  <PUBCHEM_COMPOUND_CID>  (1) 
41587

>  <PUBCHEM_CONFORMER_RMSD>  (1) 
0.8

>  <PUBCHEM_CONFORMER_DIVERSEORDER>  (1) 
1
181
6
177
31
95
193
202
143
219
188
167
236
149
139
163
33
222
189
183
208
245
138
246
239
243
5
125
99
81
73
210
74
156
82
200
103
36
132
88
174
8
136
126
195
249
17
247
184
122
234
256
201
44
144
204
22
175
187
40
75
225
135
129
32
111
190
255
228
76
120
50
248
170
18
110
78
191
107
162
253
109
52
238
11
116
205
155
161
16
4
257
226
65
23
244
160
186
148
250
252
147
49
213
34
64
119
35
71
211
215
113
72
79
67
217
150
104
199
43
209
41
240
134
230
176
62
30
131
152
182
141
51
173
19
112
130
57
197
157
28
12
171
84
13
77
46
212
233
207
178
158
216
90
94
66
203
100
232
29
237
89
70
15
91
166
231
26
221
185
192
83
68
151
180
251
154
115
80
27
106
101
168
9
96
196
227
102
123
47
142
10
165
24
86
69
254
45
42
220
206
153
235
93
56
146
128
38
54
25
60
133
63
108
159
61
105
121
229
179
218
39
127
172
53
137
55
85
2
198
58
124
114
48
21
97
224
241
242
214
92
140
169
118
87
223
14
37
98
117
7
164
3
20
145
59
194

>  <PUBCHEM_MMFF94_PARTIAL_CHARGES>  (1) 
22
1 -0.43
11 0.27
12 0.28
13 0.78
14 0.12
15 -0.15
16 -0.15
17 0.08
18 -0.15
19 -0.15
2 -0.57
20 0.28
3 -0.36
36 0.37
37 0.15
38 0.15
39 0.15
4 -0.81
40 0.15
5 -0.55
6 0.27
7 0.27

>  <PUBCHEM_EFFECTIVE_ROTOR_COUNT>  (1) 
9.2

>  <PUBCHEM_PHARMACOPHORE_FEATURES>  (1) 
6
1 2 acceptor
1 3 acceptor
1 4 cation
1 5 donor
6 14 15 16 17 18 19 rings
6 4 6 7 8 9 10 rings

>  <PUBCHEM_HEAVY_ATOM_COUNT>  (1) 
21

>  <PUBCHEM_ATOM_DEF_STEREO_COUNT>  (1) 
0

>  <PUBCHEM_ATOM_UDEF_STEREO_COUNT>  (1) 
0

>  <PUBCHEM_BOND_DEF_STEREO_COUNT>  (1) 
0

>  <PUBCHEM_BOND_UDEF_STEREO_COUNT>  (1) 
0

>  <PUBCHEM_ISOTOPIC_ATOM_COUNT>  (1) 
0

>  <PUBCHEM_COMPONENT_COUNT>  (1) 
1

>  <PUBCHEM_CACTVS_TAUTO_COUNT>  (1) 
2

>  <PUBCHEM_CONFORMER_ID>  (1) 
0000A27300000001

>  <PUBCHEM_MMFF94_ENERGY>  (1) 
43.8457

>  <PUBCHEM_FEATURE_SELFOVERLAP>  (1) 
30.446

>  <PUBCHEM_SHAPE_FINGERPRINT>  (1) 
10411042 1 18120936364157916147
11315181 36 18413393124534026705
11393246 34 18201437008700200239
11524674 6 17275385409005788167
11545043 162 18271803540367969313
11796584 16 18340768139741223714
12091667 2 17022624152141463217
13288520 33 18409449185236609005
13631057 29 18411133680189913179
14211702 104 18340778112639980590
14251732 16 18340768230294285096
14251751 18 18341617044127066750
14461889 52 18340760555482899570
14933364 13 18411420592468782160
15183329 4 18261955150662488258
15348495 7 18272647978293935312
15778101 99 18338237046989977713
17093844 174 18335136479838746777
17780758 139 17918283060685455803
17844677 252 18410863157042554232
18927931 339 18260552238534941355
19489759 90 18040999522663793857
21054139 6 18040994068450993146
21236236 1 18410293631588810555
21267235 1 18260553351168783025
21623969 137 17561087999219101006
21709351 56 17821444668674075109
220451 1 18040718013633085768
2303208 19 18131074844211394934
23035841 295 18335703819269616177
23081809 10 17385725781830254320
23402539 116 18334010596816231245
23536379 177 18340768148537049152
23559900 14 18412536635346773889
3004659 81 18334016056721756696
397830 11 18058156392809432376
4073 2 18260271863006685242
4214541 1 18409449172151325009
5104073 3 18201718444742136920
59755656 215 18337390426866703862
7495541 125 18059575844903878760
7970288 3 17979633769428015951
9996256 80 18410011052752627378

>  <PUBCHEM_SHAPE_MULTIPOLES>  (1) 
404.6
20.38
2.83
0.7
23.73
2.34
0.02
6.68
0.45
-6.15
0.35
0.23
0.03
1.05

>  <PUBCHEM_SHAPE_SELFOVERLAP>  (1) 
823.792

>  <PUBCHEM_SHAPE_VOLUME>  (1) 
234.7

>  <PUBCHEM_COORDINATE_TYPE>  (1) 
2
5
10

$$$$
