41599
     RDKit          3D

 23 24  0  0  0  0  0  0  0  0999 V2000
    2.1500    0.7384    0.2157 O   0  0  0  0  0  0  0  0  0  0  0  0
   -5.5476    0.6097   -0.5994 O   0  0  0  0  0  0  0  0  0  0  0  0
    0.7677   -1.0005   -0.3280 O   0  0  0  0  0  0  0  0  0  0  0  0
    5.7109   -0.2000    0.3775 N   0  0  0  0  0  0  0  0  0  0  0  0
   -0.0529    1.1520    0.0890 N   0  0  0  0  0  0  0  0  0  0  0  0
    6.8146    0.3844    1.1522 C   0  0  0  0  0  0  0  0  0  0  0  0
    6.1061   -0.4311   -1.0190 C   0  0  0  0  0  0  0  0  0  0  0  0
    8.0421   -0.5280    1.1388 C   0  0  0  0  0  0  0  0  0  0  0  0
    7.3104   -1.3699   -1.1036 C   0  0  0  0  0  0  0  0  0  0  0  0
    8.4838   -0.8420   -0.2860 C   0  0  0  0  0  0  0  0  0  0  0  0
    4.5302    0.6611    0.4393 C   0  0  0  0  0  0  0  0  0  0  0  0
    3.2708   -0.1315    0.1276 C   0  0  0  0  0  0  0  0  0  0  0  0
    0.9203    0.1800   -0.0386 C   0  0  0  0  0  0  0  0  0  0  0  0
   -7.5565   -0.4621    0.1566 C   0  0  0  0  0  0  0  0  0  0  0  0
   -8.2257   -1.7870    0.5110 C   0  0  0  0  0  0  0  0  0  0  0  0
   -6.1182   -0.6632   -0.2991 C   0  0  0  0  0  0  0  0  0  0  0  0
   -1.4489    1.0140   -0.0844 C   0  0  0  0  0  0  0  0  0  0  0  0
   -4.2038    0.7419   -0.4291 C   0  0  0  0  0  0  0  0  0  0  0  0
   -9.6476   -1.5780    1.0066 C   0  0  0  0  0  0  0  0  0  0  0  0
   -2.2856    2.1168    0.0875 C   0  0  0  0  0  0  0  0  0  0  0  0
   -1.9898   -0.2248   -0.4288 C   0  0  0  0  0  0  0  0  0  0  0  0
   -3.6630    1.9808   -0.0849 C   0  0  0  0  0  0  0  0  0  0  0  0
   -3.3672   -0.3609   -0.6010 C   0  0  0  0  0  0  0  0  0  0  0  0
  1 12  1  0
  1 13  1  0
  2 16  1  0
  2 18  1  0
  3 13  2  0
  4  6  1  0
  4  7  1  0
  4 11  1  0
  5 13  1  0
  5 17  1  0
  6  8  1  0
  7  9  1  0
  8 10  1  0
  9 10  1  0
 11 12  1  0
 14 15  1  0
 14 16  1  0
 15 19  1  0
 17 20  2  0
 17 21  1  0
 18 22  2  0
 18 23  1  0
 20 22  1  0
 21 23  2  0
M  END
>  <PUBCHEM_COMPOUND_CID>  (1) 
41599

>  <PUBCHEM_CONFORMER_RMSD>  (1) 
1

>  <PUBCHEM_CONFORMER_DIVERSEORDER>  (1) 
1
21
27
14
24
53
42
34
43
20
9
28
45
30
50
33
62
41
29
48
37
46
22
60
58
19
59
32
55
36
47
13
40
12
56
61
25
23
16
51
5
38
39
8
31
15
44
18
10
49
11
35
7
17
6
4
3
54
57
52
2
26

>  <PUBCHEM_MMFF94_PARTIAL_CHARGES>  (1) 
22
1 -0.43
11 0.27
12 0.28
13 0.78
16 0.28
17 0.12
18 0.08
2 -0.36
20 -0.15
21 -0.15
22 -0.15
23 -0.15
3 -0.57
4 -0.81
44 0.37
48 0.15
49 0.15
5 -0.55
50 0.15
51 0.15
6 0.27
7 0.27

>  <PUBCHEM_EFFECTIVE_ROTOR_COUNT>  (1) 
11.2

>  <PUBCHEM_PHARMACOPHORE_FEATURES>  (1) 
7
1 19 hydrophobe
1 2 acceptor
1 3 acceptor
1 4 cation
1 5 donor
6 17 18 20 21 22 23 rings
6 4 6 7 8 9 10 rings

>  <PUBCHEM_HEAVY_ATOM_COUNT>  (1) 
23

>  <PUBCHEM_ATOM_DEF_STEREO_COUNT>  (1) 
0

>  <PUBCHEM_ATOM_UDEF_STEREO_COUNT>  (1) 
0

>  <PUBCHEM_BOND_DEF_STEREO_COUNT>  (1) 
0

>  <PUBCHEM_BOND_UDEF_STEREO_COUNT>  (1) 
0

>  <PUBCHEM_ISOTOPIC_ATOM_COUNT>  (1) 
0

>  <PUBCHEM_COMPONENT_COUNT>  (1) 
1

>  <PUBCHEM_CACTVS_TAUTO_COUNT>  (1) 
2

>  <PUBCHEM_CONFORMER_ID>  (1) 
0000A27F00000001

>  <PUBCHEM_MMFF94_ENERGY>  (1) 
41.2143

>  <PUBCHEM_FEATURE_SELFOVERLAP>  (1) 
35.52

>  <PUBCHEM_SHAPE_FINGERPRINT>  (1) 
10162869 55 16443065015574511482
10299344 5 17676205758239535346
11315181 36 12973892485624763661
11463208 3 18408608049967414450
11524674 6 15913322507117099636
12539745 222 18201725047051512737
13685833 64 17989204837631571932
14202775 3 18335704906488017434
14251764 18 17531245041648511714
14251764 46 18410572885645104631
14344974 52 7997964653901018163
14429380 56 14996289136955680238
15183329 4 17894352147289106404
15461852 350 16226044492589217575
15510794 2 18273215275439711527
15690457 1 17821723944548213890
15716309 27 17203322317156298740
1754911 235 12901543550996470851
1818759 1 18261115183935179499
18335252 98 18410858750337406811
21095086 128 17385721387862647210
21150785 3 16008466534061039899
21267235 1 18411420618159302285
21315759 40 17603584102405420968
21315763 28 18113334206522189116
23035841 295 18410571786133476852
23559900 14 18129648811853310336
23569943 247 17831581977579446410
23576562 1 12902127439105468035
246663 6 18408605872797763923
3178227 256 17346598594934334090
328311 84 18201720639544238582
3383291 50 18410856585795417179
54039377 194 17968381238875047883
59682541 35 18272366503137558242
636775 8 18261117387290403367
67123 10 18186801392279440284
9953998 17 16845570942315394583

>  <PUBCHEM_SHAPE_MULTIPOLES>  (1) 
445.76
31.31
1.64
0.96
1.16
0.34
-0.06
-18.7
-5.63
2.58
-0.06
-0.99
-0.19
1.77

>  <PUBCHEM_SHAPE_SELFOVERLAP>  (1) 
898.233

>  <PUBCHEM_SHAPE_VOLUME>  (1) 
260.9

>  <PUBCHEM_COORDINATE_TYPE>  (1) 
2
5
10

$$$$
