41595
     RDKit          3D

 23 24  0  0  0  0  0  0  0  0999 V2000
    0.9813   -0.2244   -0.0576 O   0  0  0  0  0  0  0  0  0  0  0  0
   -3.6068    0.5854   -0.8985 O   0  0  0  0  0  0  0  0  0  0  0  0
    0.3059   -2.2996    0.6259 O   0  0  0  0  0  0  0  0  0  0  0  0
    4.6202    0.3038    0.1998 N   0  0  0  0  0  0  0  0  0  0  0  0
   -1.2124   -0.6931   -0.1451 N   0  0  0  0  0  0  0  0  0  0  0  0
    5.3913    1.5414    0.3839 C   0  0  0  0  0  0  0  0  0  0  0  0
    5.2006   -0.5308   -0.8615 C   0  0  0  0  0  0  0  0  0  0  0  0
    6.8459    1.2366    0.7457 C   0  0  0  0  0  0  0  0  0  0  0  0
    6.6489   -0.9032   -0.5407 C   0  0  0  0  0  0  0  0  0  0  0  0
    7.5000    0.3380   -0.2975 C   0  0  0  0  0  0  0  0  0  0  0  0
    3.2219    0.6119   -0.0988 C   0  0  0  0  0  0  0  0  0  0  0  0
    2.3288   -0.5733    0.2311 C   0  0  0  0  0  0  0  0  0  0  0  0
    0.0337   -1.1896    0.1850 C   0  0  0  0  0  0  0  0  0  0  0  0
   -3.6728    2.9144   -0.3299 C   0  0  0  0  0  0  0  0  0  0  0  0
   -4.3458    1.5593   -0.1647 C   0  0  0  0  0  0  0  0  0  0  0  0
   -4.4053    4.0056    0.4457 C   0  0  0  0  0  0  0  0  0  0  0  0
   -2.4622   -1.3468   -0.0528 C   0  0  0  0  0  0  0  0  0  0  0  0
   -3.6358   -0.6948   -0.4314 C   0  0  0  0  0  0  0  0  0  0  0  0
   -3.7056    5.3488    0.3131 C   0  0  0  0  0  0  0  0  0  0  0  0
   -2.5148   -2.6573    0.4226 C   0  0  0  0  0  0  0  0  0  0  0  0
   -4.8618   -1.3533   -0.3346 C   0  0  0  0  0  0  0  0  0  0  0  0
   -3.7408   -3.3155    0.5194 C   0  0  0  0  0  0  0  0  0  0  0  0
   -4.9142   -2.6636    0.1409 C   0  0  0  0  0  0  0  0  0  0  0  0
  1 12  1  0
  1 13  1  0
  2 15  1  0
  2 18  1  0
  3 13  2  0
  4  6  1  0
  4  7  1  0
  4 11  1  0
  5 13  1  0
  5 17  1  0
  6  8  1  0
  7  9  1  0
  8 10  1  0
  9 10  1  0
 11 12  1  0
 14 15  1  0
 14 16  1  0
 16 19  1  0
 17 18  2  0
 17 20  1  0
 18 21  1  0
 20 22  2  0
 21 23  2  0
 22 23  1  0
M  END
>  <PUBCHEM_COMPOUND_CID>  (1) 
41595

>  <PUBCHEM_CONFORMER_RMSD>  (1) 
1

>  <PUBCHEM_CONFORMER_DIVERSEORDER>  (1) 
1
26
59
14
40
61
39
37
48
66
19
24
70
46
22
57
32
51
11
33
67
55
53
25
60
64
9
69
28
12
35
17
23
49
42
27
29
54
56
65
58
41
43
45
62
10
63
18
52
68
20
50
47
36
21
34
38
2
16
8
31
5
13
44
15
30
7
6
4
3

>  <PUBCHEM_MMFF94_PARTIAL_CHARGES>  (1) 
22
1 -0.43
11 0.27
12 0.28
13 0.78
15 0.28
17 0.12
18 0.08
2 -0.36
20 -0.15
21 -0.15
22 -0.15
23 -0.15
3 -0.57
4 -0.81
44 0.37
48 0.15
49 0.15
5 -0.55
50 0.15
51 0.15
6 0.27
7 0.27

>  <PUBCHEM_EFFECTIVE_ROTOR_COUNT>  (1) 
11.2

>  <PUBCHEM_PHARMACOPHORE_FEATURES>  (1) 
7
1 19 hydrophobe
1 2 acceptor
1 3 acceptor
1 4 cation
1 5 donor
6 17 18 20 21 22 23 rings
6 4 6 7 8 9 10 rings

>  <PUBCHEM_HEAVY_ATOM_COUNT>  (1) 
23

>  <PUBCHEM_ATOM_DEF_STEREO_COUNT>  (1) 
0

>  <PUBCHEM_ATOM_UDEF_STEREO_COUNT>  (1) 
0

>  <PUBCHEM_BOND_DEF_STEREO_COUNT>  (1) 
0

>  <PUBCHEM_BOND_UDEF_STEREO_COUNT>  (1) 
0

>  <PUBCHEM_ISOTOPIC_ATOM_COUNT>  (1) 
0

>  <PUBCHEM_COMPONENT_COUNT>  (1) 
1

>  <PUBCHEM_CACTVS_TAUTO_COUNT>  (1) 
2

>  <PUBCHEM_CONFORMER_ID>  (1) 
0000A27B00000001

>  <PUBCHEM_MMFF94_ENERGY>  (1) 
42.4251

>  <PUBCHEM_FEATURE_SELFOVERLAP>  (1) 
35.52

>  <PUBCHEM_SHAPE_FINGERPRINT>  (1) 
100830 39 18410575072063578864
10291535 26 18411419510258050737
10411042 1 18121781905611006283
10670039 82 18408034113396985036
10937287 8 17978226063868364777
11315181 36 17822290248760576711
12107183 9 17973995155408179170
12390115 104 18338804399289495937
13073987 5 18335416872763312618
13533116 47 15410632376233322254
13885169 127 18410011044795669434
14251764 75 17838059209005195817
14790565 3 17834397813592989233
14933364 13 18411139182048170398
15183329 4 17822005424548112522
15419008 42 17916027846230417254
15419008 47 18129660932050384721
155225 5 18267866090540542737
15778101 99 18410857629324224501
16126227 98 18269561546714337065
17844677 252 18336834194716763564
19489759 90 18114178687344982922
21033650 10 18190486946359953510
21236236 1 18411138043217003845
21279426 13 18341897338573236086
21304253 13 18267309914915605003
21315763 129 18338797918268255460
23081809 10 17458059387847036850
23559900 14 18265607874044872819
283562 15 18335415769389390027
3418910 222 17970640811994496708
441001 317 18410290315446452236
445580 37 18335991938961524132
5104073 3 18040995094668706330
5283173 99 18413670206170338336
531348 171 18130784529712584958
6327066 14 18190736428553076989
7288768 16 17969510303819204265
7808743 9 18338514132483471913

>  <PUBCHEM_SHAPE_MULTIPOLES>  (1) 
445.76
19.04
5.06
0.78
36.8
7.11
-0.02
5.06
-0.82
-13.55
1.07
0.21
-0.01
0.71

>  <PUBCHEM_SHAPE_SELFOVERLAP>  (1) 
898.434

>  <PUBCHEM_SHAPE_VOLUME>  (1) 
261.1

>  <PUBCHEM_COORDINATE_TYPE>  (1) 
2
5
10

$$$$
