41591
     RDKit          3D

 22 23  0  0  0  0  0  0  0  0999 V2000
    0.8122   -0.0311   -0.0464 O   0  0  0  0  0  0  0  0  0  0  0  0
   -3.7180    1.0910   -0.8415 O   0  0  0  0  0  0  0  0  0  0  0  0
    0.0088   -2.0788    0.5793 O   0  0  0  0  0  0  0  0  0  0  0  0
    4.4779    0.2586    0.2091 N   0  0  0  0  0  0  0  0  0  0  0  0
   -1.4071   -0.3577   -0.1371 N   0  0  0  0  0  0  0  0  0  0  0  0
    5.0012   -0.5794   -0.8789 C   0  0  0  0  0  0  0  0  0  0  0  0
    5.3262    1.4389    0.4258 C   0  0  0  0  0  0  0  0  0  0  0  0
    6.4240   -1.0517   -0.5760 C   0  0  0  0  0  0  0  0  0  0  0  0
    6.7597    1.0324    0.7716 C   0  0  0  0  0  0  0  0  0  0  0  0
    7.3526    0.1255   -0.3007 C   0  0  0  0  0  0  0  0  0  0  0  0
    3.1010    0.6630   -0.0738 C   0  0  0  0  0  0  0  0  0  0  0  0
    2.1357   -0.4729    0.2257 C   0  0  0  0  0  0  0  0  0  0  0  0
   -0.1939   -0.9414    0.1724 C   0  0  0  0  0  0  0  0  0  0  0  0
   -2.6955   -0.9337   -0.0581 C   0  0  0  0  0  0  0  0  0  0  0  0
   -3.8266   -0.1980   -0.4117 C   0  0  0  0  0  0  0  0  0  0  0  0
   -4.3918    2.0875   -0.0759 C   0  0  0  0  0  0  0  0  0  0  0  0
   -3.6361    3.4012   -0.2050 C   0  0  0  0  0  0  0  0  0  0  0  0
   -2.8294   -2.2516    0.3790 C   0  0  0  0  0  0  0  0  0  0  0  0
   -5.0915   -0.7804   -0.3285 C   0  0  0  0  0  0  0  0  0  0  0  0
   -4.0943   -2.8337    0.4624 C   0  0  0  0  0  0  0  0  0  0  0  0
   -5.2252   -2.0981    0.1087 C   0  0  0  0  0  0  0  0  0  0  0  0
   -4.2900    4.5103    0.5995 C   0  0  0  0  0  0  0  0  0  0  0  0
  1 12  1  0
  1 13  1  0
  2 15  1  0
  2 16  1  0
  3 13  2  0
  4  6  1  0
  4  7  1  0
  4 11  1  0
  5 13  1  0
  5 14  1  0
  6  8  1  0
  7  9  1  0
  8 10  1  0
  9 10  1  0
 11 12  1  0
 14 15  2  0
 14 18  1  0
 15 19  1  0
 16 17  1  0
 17 22  1  0
 18 20  2  0
 19 21  2  0
 20 21  1  0
M  END
>  <PUBCHEM_COMPOUND_CID>  (1) 
41591

>  <PUBCHEM_CONFORMER_RMSD>  (1) 
1

>  <PUBCHEM_CONFORMER_DIVERSEORDER>  (1) 
1
32
28
7
23
36
27
25
37
16
10
15
19
26
34
6
40
8
39
35
14
12
41
44
11
4
17
31
30
38
9
45
24
3
29
18
42
46
22
5
20
21
43
13
2
33

>  <PUBCHEM_MMFF94_PARTIAL_CHARGES>  (1) 
22
1 -0.43
11 0.27
12 0.28
13 0.78
14 0.12
15 0.08
16 0.28
18 -0.15
19 -0.15
2 -0.36
20 -0.15
21 -0.15
3 -0.57
37 0.37
4 -0.81
42 0.15
43 0.15
44 0.15
45 0.15
5 -0.55
6 0.27
7 0.27

>  <PUBCHEM_EFFECTIVE_ROTOR_COUNT>  (1) 
10.2

>  <PUBCHEM_PHARMACOPHORE_FEATURES>  (1) 
7
1 2 acceptor
1 22 hydrophobe
1 3 acceptor
1 4 cation
1 5 donor
6 14 15 18 19 20 21 rings
6 4 6 7 8 9 10 rings

>  <PUBCHEM_HEAVY_ATOM_COUNT>  (1) 
22

>  <PUBCHEM_ATOM_DEF_STEREO_COUNT>  (1) 
0

>  <PUBCHEM_ATOM_UDEF_STEREO_COUNT>  (1) 
0

>  <PUBCHEM_BOND_DEF_STEREO_COUNT>  (1) 
0

>  <PUBCHEM_BOND_UDEF_STEREO_COUNT>  (1) 
0

>  <PUBCHEM_ISOTOPIC_ATOM_COUNT>  (1) 
0

>  <PUBCHEM_COMPONENT_COUNT>  (1) 
1

>  <PUBCHEM_CACTVS_TAUTO_COUNT>  (1) 
2

>  <PUBCHEM_CONFORMER_ID>  (1) 
0000A27700000001

>  <PUBCHEM_MMFF94_ENERGY>  (1) 
42.6611

>  <PUBCHEM_FEATURE_SELFOVERLAP>  (1) 
35.52

>  <PUBCHEM_SHAPE_FINGERPRINT>  (1) 
100830 39 18410292480442928448
10411042 1 18049442836638585251
10638233 991 16081092619188131278
10670039 82 18335977605901523348
11315181 36 17894911875220613719
12107183 9 17901938647891345666
12390115 104 18339367345016703689
13073987 5 18335699434276974450
13533116 47 15338852945694232534
13885169 127 18410011031863223338
14251764 75 17766565651610816129
14933364 13 18411983589719117006
15183329 4 17894628150298328698
15419008 42 17915181209307621390
15419008 47 18130222760880438577
155225 5 18268147548258366905
15778101 99 18339362968181362873
16126227 98 18270124488157055561
17844677 252 18337397131701081812
19489759 90 18186518838543498682
21033648 29 17917134079038892928
21236236 1 18411418401676596173
21267235 1 18115029740174771083
21279426 13 18270121206547917694
21315759 40 16877935075373698530
21315763 129 18411136974324256044
2297311 6 18336548317515034731
23081809 10 13183022926206876774
23559900 14 18266169707475342395
283562 15 18335698335335117291
328310 18 17203050673518381025
4073 2 18113622339510695994
441001 317 18410571777643983397
445580 37 18336274500501800052
5104073 3 18041559131106266346
5283173 99 18413389822057311584
531348 171 18130784521275507711
5969126 39 18271517702500915071
6327066 14 18118115876035207141
7808743 9 18337951178272084561

>  <PUBCHEM_SHAPE_MULTIPOLES>  (1) 
425.18
19.3
3.77
0.78
31.92
4.42
-0.02
3.01
-0.67
-9.61
0.76
0.26
0.03
0.87

>  <PUBCHEM_SHAPE_SELFOVERLAP>  (1) 
860.575

>  <PUBCHEM_SHAPE_VOLUME>  (1) 
248

>  <PUBCHEM_COORDINATE_TYPE>  (1) 
2
5
10

$$$$
