41605
     RDKit          3D

 25 26  0  0  0  0  0  0  0  0999 V2000
    0.7000    2.0255    0.5939 O   0  0  0  0  0  0  0  0  0  0  0  0
   -2.7835   -1.1440    0.9753 O   0  0  0  0  0  0  0  0  0  0  0  0
   -0.8340    3.3372   -0.4815 O   0  0  0  0  0  0  0  0  0  0  0  0
    3.4500    1.3533    0.4055 N   0  0  0  0  0  0  0  0  0  0  0  0
   -1.3801    1.2058    0.3293 N   0  0  0  0  0  0  0  0  0  0  0  0
    4.3766    0.6338    1.2908 C   0  0  0  0  0  0  0  0  0  0  0  0
    4.0741    1.6444   -0.8929 C   0  0  0  0  0  0  0  0  0  0  0  0
    4.8287   -0.6852    0.6620 C   0  0  0  0  0  0  0  0  0  0  0  0
    4.5164    0.3586   -1.5930 C   0  0  0  0  0  0  0  0  0  0  0  0
    5.4523   -0.4598   -0.7107 C   0  0  0  0  0  0  0  0  0  0  0  0
    2.9906    2.5881    1.0405 C   0  0  0  0  0  0  0  0  0  0  0  0
    1.6819    3.0545    0.4232 C   0  0  0  0  0  0  0  0  0  0  0  0
   -0.9354   -3.1147   -0.0476 C   0  0  0  0  0  0  0  0  0  0  0  0
    0.2377   -4.0913    0.0754 C   0  0  0  0  0  0  0  0  0  0  0  0
   -2.0954   -3.4370    0.8930 C   0  0  0  0  0  0  0  0  0  0  0  0
    1.4088   -3.7544   -0.8484 C   0  0  0  0  0  0  0  0  0  0  0  0
   -3.2497   -2.4600    0.7115 C   0  0  0  0  0  0  0  0  0  0  0  0
   -0.5444    2.2922    0.0882 C   0  0  0  0  0  0  0  0  0  0  0  0
    2.5156   -4.7926   -0.7413 C   0  0  0  0  0  0  0  0  0  0  0  0
   -2.7251    1.0492   -0.0133 C   0  0  0  0  0  0  0  0  0  0  0  0
   -3.4108   -0.1211    0.3125 C   0  0  0  0  0  0  0  0  0  0  0  0
   -4.7539   -0.2626   -0.0363 C   0  0  0  0  0  0  0  0  0  0  0  0
   -3.3828    2.0778   -0.6880 C   0  0  0  0  0  0  0  0  0  0  0  0
   -5.4114    0.7660   -0.7112 C   0  0  0  0  0  0  0  0  0  0  0  0
   -4.7260    1.9362   -1.0369 C   0  0  0  0  0  0  0  0  0  0  0  0
  1 12  1  0
  1 18  1  0
  2 17  1  0
  2 21  1  0
  3 18  2  0
  4  6  1  0
  4  7  1  0
  4 11  1  0
  5 18  1  0
  5 20  1  0
  6  8  1  0
  7  9  1  0
  8 10  1  0
  9 10  1  0
 11 12  1  0
 13 14  1  0
 13 15  1  0
 14 16  1  0
 15 17  1  0
 16 19  1  0
 20 21  2  0
 20 23  1  0
 21 22  1  0
 22 24  2  0
 23 25  2  0
 24 25  1  0
M  END
>  <PUBCHEM_COMPOUND_CID>  (1) 
41605

>  <PUBCHEM_CONFORMER_RMSD>  (1) 
1.2

>  <PUBCHEM_CONFORMER_DIVERSEORDER>  (1) 
2
52
16
35
41
46
10
34
48
6
29
44
27
21
4
23
50
24
43
11
22
9
12
45
36
28
26
39
33
7
47
32
31
13
5
18
51
38
19
40
1
17
20
37
30
8
49
42
15
3
14
25

>  <PUBCHEM_MMFF94_PARTIAL_CHARGES>  (1) 
22
1 -0.43
11 0.27
12 0.28
17 0.28
18 0.78
2 -0.36
20 0.12
21 0.08
22 -0.15
23 -0.15
24 -0.15
25 -0.15
3 -0.57
4 -0.81
5 -0.55
53 0.37
54 0.15
55 0.15
56 0.15
57 0.15
6 0.27
7 0.27

>  <PUBCHEM_EFFECTIVE_ROTOR_COUNT>  (1) 
13.2

>  <PUBCHEM_PHARMACOPHORE_FEATURES>  (1) 
8
1 19 hydrophobe
1 2 acceptor
1 3 acceptor
1 4 cation
1 5 donor
4 13 14 15 16 hydrophobe
6 20 21 22 23 24 25 rings
6 4 6 7 8 9 10 rings

>  <PUBCHEM_HEAVY_ATOM_COUNT>  (1) 
25

>  <PUBCHEM_ATOM_DEF_STEREO_COUNT>  (1) 
0

>  <PUBCHEM_ATOM_UDEF_STEREO_COUNT>  (1) 
0

>  <PUBCHEM_BOND_DEF_STEREO_COUNT>  (1) 
0

>  <PUBCHEM_BOND_UDEF_STEREO_COUNT>  (1) 
0

>  <PUBCHEM_ISOTOPIC_ATOM_COUNT>  (1) 
0

>  <PUBCHEM_COMPONENT_COUNT>  (1) 
1

>  <PUBCHEM_CACTVS_TAUTO_COUNT>  (1) 
2

>  <PUBCHEM_CONFORMER_ID>  (1) 
0000A28500000002

>  <PUBCHEM_MMFF94_ENERGY>  (1) 
42.2061

>  <PUBCHEM_FEATURE_SELFOVERLAP>  (1) 
40.594

>  <PUBCHEM_SHAPE_FINGERPRINT>  (1) 
107951 10 17530965795881251523
11014199 57 16754375536257134266
13402501 40 18412263926207838358
14251757 5 18120389897623910166
20621476 13 18411700941826633006
21344244 246 18340189831623328775
23559900 14 17979060592565657619
238918 7 18272650152069886086
3004659 81 18040995125282232848
3027735 51 18270402663912716889
325973 47 18195249919094367298
3298306 158 18411413986481734639
373842 8 18121212083562400586
44062 13 18334857276867723337
474144 1 17677597675857798106
508706 21 18337954618150459527
5265222 85 18263936603443832964
532947 4 18266735797318966647
6433294 58 18339081484683185458

>  <PUBCHEM_SHAPE_MULTIPOLES>  (1) 
486.92
11.88
6.12
1.16
2.28
7.32
0.09
-3.7
2.03
1.53
0.33
0.76
-0.05
2.19

>  <PUBCHEM_SHAPE_SELFOVERLAP>  (1) 
975.618

>  <PUBCHEM_SHAPE_VOLUME>  (1) 
286.3

>  <PUBCHEM_COORDINATE_TYPE>  (1) 
2
5
10

$$$$
