41619
     RDKit          3D

 27 28  0  0  0  0  0  0  0  0999 V2000
    3.9215   -0.3329   -0.1331 O   0  0  0  0  0  0  0  0  0  0  0  0
   -3.0989   -0.2134   -0.0177 O   0  0  0  0  0  0  0  0  0  0  0  0
    3.2267    1.8446   -0.2124 O   0  0  0  0  0  0  0  0  0  0  0  0
    7.5989   -0.6965   -0.2003 N   0  0  0  0  0  0  0  0  0  0  0  0
    1.7039    0.0637   -0.1115 N   0  0  0  0  0  0  0  0  0  0  0  0
    8.4355   -1.8055   -0.6799 C   0  0  0  0  0  0  0  0  0  0  0  0
    8.0518   -0.2190    1.1138 C   0  0  0  0  0  0  0  0  0  0  0  0
    9.9007   -1.3818   -0.7950 C   0  0  0  0  0  0  0  0  0  0  0  0
    9.5043    0.2563    1.0574 C   0  0  0  0  0  0  0  0  0  0  0  0
   10.4258   -0.8370    0.5282 C   0  0  0  0  0  0  0  0  0  0  0  0
    6.1951   -1.1031   -0.1407 C   0  0  0  0  0  0  0  0  0  0  0  0
    5.2823    0.1122   -0.1758 C   0  0  0  0  0  0  0  0  0  0  0  0
   -7.9743   -0.8385    0.1601 C   0  0  0  0  0  0  0  0  0  0  0  0
   -9.3662   -0.2011    0.1220 C   0  0  0  0  0  0  0  0  0  0  0  0
   -6.8363    0.1771    0.0357 C   0  0  0  0  0  0  0  0  0  0  0  0
  -10.5050   -1.2220    0.1723 C   0  0  0  0  0  0  0  0  0  0  0  0
   -5.4736   -0.5139    0.0561 C   0  0  0  0  0  0  0  0  0  0  0  0
  -11.8677   -0.5368    0.0584 C   0  0  0  0  0  0  0  0  0  0  0  0
   -4.3329    0.4909   -0.0257 C   0  0  0  0  0  0  0  0  0  0  0  0
  -13.0025   -1.5486    0.0691 C   0  0  0  0  0  0  0  0  0  0  0  0
    2.9669    0.6488   -0.1576 C   0  0  0  0  0  0  0  0  0  0  0  0
   -1.9557    0.5412   -0.0687 C   0  0  0  0  0  0  0  0  0  0  0  0
    0.4554    0.6865   -0.1160 C   0  0  0  0  0  0  0  0  0  0  0  0
   -0.7077   -0.0817   -0.0642 C   0  0  0  0  0  0  0  0  0  0  0  0
   -2.0407    1.9323   -0.1252 C   0  0  0  0  0  0  0  0  0  0  0  0
    0.3703    2.0776   -0.1724 C   0  0  0  0  0  0  0  0  0  0  0  0
   -0.8776    2.7006   -0.1771 C   0  0  0  0  0  0  0  0  0  0  0  0
  1 12  1  0
  1 21  1  0
  2 19  1  0
  2 22  1  0
  3 21  2  0
  4  6  1  0
  4  7  1  0
  4 11  1  0
  5 21  1  0
  5 23  1  0
  6  8  1  0
  7  9  1  0
  8 10  1  0
  9 10  1  0
 11 12  1  0
 13 14  1  0
 13 15  1  0
 14 16  1  0
 15 17  1  0
 16 18  1  0
 17 19  1  0
 18 20  1  0
 22 24  2  0
 22 25  1  0
 23 24  1  0
 23 26  2  0
 25 27  2  0
 26 27  1  0
M  END
>  <PUBCHEM_COMPOUND_CID>  (1) 
41619

>  <PUBCHEM_CONFORMER_RMSD>  (1) 
1.4

>  <PUBCHEM_CONFORMER_DIVERSEORDER>  (1) 
2
22
27
59
8
12
32
57
66
68
40
20
4
70
33
5
54
17
37
48
35
15
61
64
67
25
65
63
39
60
30
14
41
28
43
55
44
62
69
47
26
49
46
53
23
52
56
3
45
21
10
1
29
6
31
13
11
34
9
50
51
16
58
19
36
7
38
42
24
18

>  <PUBCHEM_MMFF94_PARTIAL_CHARGES>  (1) 
22
1 -0.43
11 0.27
12 0.28
19 0.28
2 -0.36
21 0.78
22 0.08
23 0.12
24 -0.15
25 -0.15
26 -0.15
27 -0.15
3 -0.57
4 -0.81
5 -0.55
59 0.37
6 0.27
60 0.15
61 0.15
62 0.15
63 0.15
7 0.27

>  <PUBCHEM_EFFECTIVE_ROTOR_COUNT>  (1) 
15.2

>  <PUBCHEM_PHARMACOPHORE_FEATURES>  (1) 
9
1 2 acceptor
1 20 hydrophobe
1 3 acceptor
1 4 cation
1 5 donor
3 13 15 17 hydrophobe
3 14 16 18 hydrophobe
6 22 23 24 25 26 27 rings
6 4 6 7 8 9 10 rings

>  <PUBCHEM_HEAVY_ATOM_COUNT>  (1) 
27

>  <PUBCHEM_ATOM_DEF_STEREO_COUNT>  (1) 
0

>  <PUBCHEM_ATOM_UDEF_STEREO_COUNT>  (1) 
0

>  <PUBCHEM_BOND_DEF_STEREO_COUNT>  (1) 
0

>  <PUBCHEM_BOND_UDEF_STEREO_COUNT>  (1) 
0

>  <PUBCHEM_ISOTOPIC_ATOM_COUNT>  (1) 
0

>  <PUBCHEM_COMPONENT_COUNT>  (1) 
1

>  <PUBCHEM_CACTVS_TAUTO_COUNT>  (1) 
2

>  <PUBCHEM_CONFORMER_ID>  (1) 
0000A29300000002

>  <PUBCHEM_MMFF94_ENERGY>  (1) 
40.745

>  <PUBCHEM_FEATURE_SELFOVERLAP>  (1) 
45.683

>  <PUBCHEM_SHAPE_FINGERPRINT>  (1) 
10 15 12463571768283632332
106641 1 17418373592845628248
11061554 47 8430319013251833334
11408170 108 17845942840145399983
11463208 3 18271249301785514014
12498461 61 17703505593931584343
12539745 222 17988365880205949305
12741549 16 17346598573681804961
14150022 121 16773803541146719769
14202775 3 18410299125396035035
14251764 46 17821729433748519875
14344974 52 11674888805415669275
15061470 23 12535354485596453195
15219723 13 14045469908701952892
15247644 1 18333452045448132059
15510794 2 18113339747472619027
155225 1 9511462221622797423
15706992 2 11312057669067993737
16728433 110 18412542136735604152
16992610 120 13262397770302052649
18335252 98 18272651217416480014
20771845 65 18341051899578330153
20812841 46 16773792624225550160
21026386 74 17531537602659677284
21102433 48 18410570687108198235
21267235 1 18409450275778572124
21792934 111 18341608243613003033
21792961 116 17967812739749871253
232437 2 18410575080373399367
23399689 5 10879992475810777298
23524908 199 12179837278963443952
335352 9 18113903766361401583
33684 2 18187082858645091315
3991529 128 12967128324302646530
57828716 72 15647344074503670742
57828716 8 17385998444341507882
59521099 67 17386010598228914364
59521270 166 17676764302975666519
9663363 56 18408038520028052177
9937071 3 18343869913398645359

>  <PUBCHEM_SHAPE_MULTIPOLES>  (1) 
528.08
49.53
1.85
0.76
60.95
0.96
-0.07
-35.83
-5.12
-0.21
0.25
-1.27
-0.07
0.96

>  <PUBCHEM_SHAPE_SELFOVERLAP>  (1) 
1049.49

>  <PUBCHEM_SHAPE_VOLUME>  (1) 
313.1

>  <PUBCHEM_COORDINATE_TYPE>  (1) 
2
5
10

$$$$
