41613
     RDKit          3D

 26 27  0  0  0  0  0  0  0  0999 V2000
    3.1894   -1.4383    0.4421 O   0  0  0  0  0  0  0  0  0  0  0  0
   -3.4890    0.0530   -1.1358 O   0  0  0  0  0  0  0  0  0  0  0  0
    2.8293    0.7884    0.8200 O   0  0  0  0  0  0  0  0  0  0  0  0
    6.7957   -0.7395    0.0357 N   0  0  0  0  0  0  0  0  0  0  0  0
    1.1295   -0.6227    0.0323 N   0  0  0  0  0  0  0  0  0  0  0  0
    6.9839    0.5833    0.6479 C   0  0  0  0  0  0  0  0  0  0  0  0
    7.6784   -0.9176   -1.1258 C   0  0  0  0  0  0  0  0  0  0  0  0
    8.4312    0.7804    1.1021 C   0  0  0  0  0  0  0  0  0  0  0  0
    9.1481   -0.7694   -0.7298 C   0  0  0  0  0  0  0  0  0  0  0  0
    9.4072    0.5701   -0.0498 C   0  0  0  0  0  0  0  0  0  0  0  0
    5.3979   -0.9305   -0.3499 C   0  0  0  0  0  0  0  0  0  0  0  0
    4.5491   -1.2776    0.8627 C   0  0  0  0  0  0  0  0  0  0  0  0
   -8.2120   -0.7648   -0.0352 C   0  0  0  0  0  0  0  0  0  0  0  0
   -7.0964    0.2801   -0.1068 C   0  0  0  0  0  0  0  0  0  0  0  0
   -9.5466   -0.1977    0.4569 C   0  0  0  0  0  0  0  0  0  0  0  0
   -5.7963   -0.3334   -0.6251 C   0  0  0  0  0  0  0  0  0  0  0  0
  -10.6800   -1.2243    0.4585 C   0  0  0  0  0  0  0  0  0  0  0  0
   -4.6682    0.6878   -0.6608 C   0  0  0  0  0  0  0  0  0  0  0  0
    2.4153   -0.3087    0.4658 C   0  0  0  0  0  0  0  0  0  0  0  0
  -11.9973   -0.5947    0.8859 C   0  0  0  0  0  0  0  0  0  0  0  0
   -2.2940    0.5533   -0.6878 C   0  0  0  0  0  0  0  0  0  0  0  0
    0.0254    0.2200   -0.0998 C   0  0  0  0  0  0  0  0  0  0  0  0
   -1.1904   -0.2894   -0.5559 C   0  0  0  0  0  0  0  0  0  0  0  0
   -2.1818    1.9054   -0.3639 C   0  0  0  0  0  0  0  0  0  0  0  0
    0.1376    1.5721    0.2242 C   0  0  0  0  0  0  0  0  0  0  0  0
   -0.9660    2.4148    0.0921 C   0  0  0  0  0  0  0  0  0  0  0  0
  1 12  1  0
  1 19  1  0
  2 18  1  0
  2 21  1  0
  3 19  2  0
  4  6  1  0
  4  7  1  0
  4 11  1  0
  5 19  1  0
  5 22  1  0
  6  8  1  0
  7  9  1  0
  8 10  1  0
  9 10  1  0
 11 12  1  0
 13 14  1  0
 13 15  1  0
 14 16  1  0
 15 17  1  0
 16 18  1  0
 17 20  1  0
 21 23  2  0
 21 24  1  0
 22 23  1  0
 22 25  2  0
 24 26  2  0
 25 26  1  0
M  END
>  <PUBCHEM_COMPOUND_CID>  (1) 
41613

>  <PUBCHEM_CONFORMER_RMSD>  (1) 
1.4

>  <PUBCHEM_CONFORMER_DIVERSEORDER>  (1) 
2
17
37
11
29
15
51
13
18
16
50
47
1
12
39
41
34
26
46
44
40
24
33
19
30
14
45
42
10
31
20
7
49
6
9
4
38
43
27
48
36
21
52
32
35
8
28
3
5
22
23
25

>  <PUBCHEM_MMFF94_PARTIAL_CHARGES>  (1) 
22
1 -0.43
11 0.27
12 0.28
18 0.28
19 0.78
2 -0.36
21 0.08
22 0.12
23 -0.15
24 -0.15
25 -0.15
26 -0.15
3 -0.57
4 -0.81
5 -0.55
56 0.37
57 0.15
58 0.15
59 0.15
6 0.27
60 0.15
7 0.27

>  <PUBCHEM_EFFECTIVE_ROTOR_COUNT>  (1) 
14.2

>  <PUBCHEM_PHARMACOPHORE_FEATURES>  (1) 
8
1 2 acceptor
1 20 hydrophobe
1 3 acceptor
1 4 cation
1 5 donor
5 13 14 15 16 17 hydrophobe
6 21 22 23 24 25 26 rings
6 4 6 7 8 9 10 rings

>  <PUBCHEM_HEAVY_ATOM_COUNT>  (1) 
26

>  <PUBCHEM_ATOM_DEF_STEREO_COUNT>  (1) 
0

>  <PUBCHEM_ATOM_UDEF_STEREO_COUNT>  (1) 
0

>  <PUBCHEM_BOND_DEF_STEREO_COUNT>  (1) 
0

>  <PUBCHEM_BOND_UDEF_STEREO_COUNT>  (1) 
0

>  <PUBCHEM_ISOTOPIC_ATOM_COUNT>  (1) 
0

>  <PUBCHEM_COMPONENT_COUNT>  (1) 
1

>  <PUBCHEM_CACTVS_TAUTO_COUNT>  (1) 
2

>  <PUBCHEM_CONFORMER_ID>  (1) 
0000A28D00000002

>  <PUBCHEM_MMFF94_ENERGY>  (1) 
41.2228

>  <PUBCHEM_FEATURE_SELFOVERLAP>  (1) 
40.594

>  <PUBCHEM_SHAPE_FINGERPRINT>  (1) 
10076449 9 18259703398415430293
10162869 55 16515407369516614206
10299344 5 16630522934710736886
106641 1 18342738525045116779
11409948 35 14045476500981048644
14123256 10 18408038499370743804
14251764 46 17385442124577543087
14251920 17 17822014246595458084
14344974 52 12179854922614930407
14359421 15 16629418952792634206
14428016 86 9583520932668421685
14918687 75 18272646896922447919
15347591 1 18046059355126477862
155225 1 10519990358023733379
16728433 110 18333730247870168413
18335252 98 18410292484727034486
20105231 36 18272089383369033590
21049683 271 18260547827050439812
21150785 3 17748828497317771700
21267235 1 18413387631455217893
21403212 168 10087640399163718884
21585481 151 18341051909175261675
21591340 7 7925910374580907901
232437 2 18408323285366683187
246663 6 18333733516403142199
28498 318 10447930581688433048
3092352 35 17603864487062176418
33684 2 9295289443598103207
34797466 226 17775282764932097772
3552219 110 17917713500102912473
4325135 7 18342172264009682972
54039377 194 18335139796180714159
57303763 39 17987516082150364983
57828716 8 15285348527642099312
636783 248 16845291704172425754
67123 10 18113899360178558679
9995097 26 18113056039276704271

>  <PUBCHEM_SHAPE_MULTIPOLES>  (1) 
507.5
41.1
1.55
0.97
49.83
0.66
0.01
-14.24
-6.48
-0.18
-0.07
-0.48
-0.05
1.38

>  <PUBCHEM_SHAPE_SELFOVERLAP>  (1) 
1012.108

>  <PUBCHEM_SHAPE_VOLUME>  (1) 
300

>  <PUBCHEM_COORDINATE_TYPE>  (1) 
2
5
10

$$$$
