41635
     RDKit          3D

 19 18  0  0  1  0  0  0  0  0999 V2000
   -3.0795   -0.6983   -0.0817 P   0  0  0  0  0  0  0  0  0  0  0  0
   -1.7177   -1.5485   -0.2663 O   0  0  0  0  0  0  0  0  0  0  0  0
    3.0867   -2.2615    0.2970 O   0  0  0  0  0  0  0  0  0  0  0  0
    3.0643    0.0754   -1.0622 O   0  0  0  0  0  0  0  0  0  0  0  0
   -3.1294   -0.4489    1.5153 O   0  0  0  0  0  0  0  0  0  0  0  0
   -2.7071    0.7596   -0.6743 O   0  0  0  0  0  0  0  0  0  0  0  0
   -4.3093   -1.3322   -0.6630 O   0  0  0  0  0  0  0  0  0  0  0  0
   -1.2648    3.4660   -0.7406 O   0  0  0  0  0  0  0  0  0  0  0  0
   -0.5645    2.5017    1.1920 O   0  0  0  0  0  0  0  0  0  0  0  0
    1.9263    1.0525    0.7080 N   0  0  0  0  0  0  0  0  0  0  0  0
    0.6858   -1.9564   -0.0090 C   0  0  0  0  0  0  0  0  0  0  0  0
    2.0088   -1.3688    0.5660 C   0  0  0  0  0  0  0  0  0  0  0  0
   -0.5096   -1.0098    0.2599 C   0  0  0  0  0  0  0  0  0  0  0  0
    0.8102   -2.2211   -1.5226 C   0  0  0  0  0  0  0  0  0  0  0  0
    0.4103   -3.3150    0.6789 C   0  0  0  0  0  0  0  0  0  0  0  0
    2.4067   -0.0191   -0.0275 C   0  0  0  0  0  0  0  0  0  0  0  0
    2.1506    2.4291    0.3312 C   0  0  0  0  0  0  0  0  0  0  0  0
    1.0490    2.9610   -0.5761 C   0  0  0  0  0  0  0  0  0  0  0  0
   -0.3168    2.9341    0.0751 C   0  0  0  0  0  0  0  0  0  0  0  0
  1  2  1  0
  1  5  1  0
  1  6  1  0
  1  7  2  0
  2 13  1  0
  3 12  1  0
  4 16  2  0
  8 19  1  0
  9 19  2  0
 10 16  1  0
 10 17  1  0
 11 12  1  0
 11 13  1  0
 11 14  1  0
 11 15  1  0
 12 16  1  0
 17 18  1  0
 18 19  1  0
M  END
>  <PUBCHEM_COMPOUND_CID>  (1) 
41635

>  <PUBCHEM_CONFORMER_RMSD>  (1) 
0.8

>  <PUBCHEM_CONFORMER_DIVERSEORDER>  (1) 
1
96
87
43
132
12
72
138
10
83
35
56
50
131
108
40
107
71
80
139
11
21
99
85
101
18
2
37
76
36
51
130
126
20
48
41
91
70
122
67
17
111
62
136
68
90
15
94
118
57
38
30
133
65
14
127
116
46
128
49
113
88
8
110
78
112
103
100
61
124
45
135
60
4
54
86
19
24
104
140
79
123
5
93
29
22
98
97
33
134
105
28
55
129
32
120
69
6
34
137
47
44
141
89
39
58
66
42
7
27
31
26
53
125
9
102
73
115
77
106
81
63
109
64
3
16
121
23
75
119
52
13
59
114
25
74
117
84
95
82
92

>  <PUBCHEM_MMFF94_PARTIAL_CHARGES>  (1) 
21
1 1.51
10 -0.73
12 0.34
13 0.28
16 0.57
17 0.3
18 0.06
19 0.66
2 -0.55
29 0.4
3 -0.68
30 0.37
35 0.5
36 0.5
37 0.5
4 -0.57
5 -0.77
6 -0.77
7 -0.7
8 -0.65
9 -0.57

>  <PUBCHEM_EFFECTIVE_ROTOR_COUNT>  (1) 
9

>  <PUBCHEM_PHARMACOPHORE_FEATURES>  (1) 
12
1 10 donor
1 3 acceptor
1 3 donor
1 4 acceptor
1 5 acceptor
1 6 acceptor
1 7 acceptor
1 8 acceptor
1 9 acceptor
3 11 14 15 hydrophobe
3 8 9 19 anion
4 1 5 6 7 anion

>  <PUBCHEM_HEAVY_ATOM_COUNT>  (1) 
19

>  <PUBCHEM_ATOM_DEF_STEREO_COUNT>  (1) 
1

>  <PUBCHEM_ATOM_UDEF_STEREO_COUNT>  (1) 
0

>  <PUBCHEM_BOND_DEF_STEREO_COUNT>  (1) 
0

>  <PUBCHEM_BOND_UDEF_STEREO_COUNT>  (1) 
0

>  <PUBCHEM_ISOTOPIC_ATOM_COUNT>  (1) 
0

>  <PUBCHEM_COMPONENT_COUNT>  (1) 
1

>  <PUBCHEM_CACTVS_TAUTO_COUNT>  (1) 
2

>  <PUBCHEM_CONFORMER_ID>  (1) 
0000A2A300000001

>  <PUBCHEM_MMFF94_ENERGY>  (1) 
-2.9459

>  <PUBCHEM_FEATURE_SELFOVERLAP>  (1) 
61.001

>  <PUBCHEM_SHAPE_FINGERPRINT>  (1) 
104564 63 18340215068086034628
10967382 1 18266174118069106072
12596599 1 17846229872872529559
1420 336 17402045600507633859
14251717 144 18195802088763732687
16945 1 18190176982670190682
18219364 16 17974856373691566931
20304884 271 17473822204858074510
20905425 154 18340483365923545004
21160774 45 17616814332180071892
21524375 3 17980760755211783422
2334 1 18196650911212855008
238 59 17905286901526868053
2748010 2 17980493574323726554
3014063 31 18338226056279209925
3060560 45 18131636711485437886
474 4 18195527219410053315
5939293 188 18412258441260359660
6438718 38 17339258044769566853
81228 2 17980206283903262155

>  <PUBCHEM_SHAPE_MULTIPOLES>  (1) 
342.93
5.02
4.61
1.09
4.51
1.73
0.05
-0.1
0.25
-1.85
0.11
0.16
-0.13
0.03

>  <PUBCHEM_SHAPE_SELFOVERLAP>  (1) 
654.618

>  <PUBCHEM_SHAPE_VOLUME>  (1) 
211.6

>  <PUBCHEM_COORDINATE_TYPE>  (1) 
2
5
10

$$$$
