41630
     RDKit          3D

 23 24  0  0  0  0  0  0  0  0999 V2000
    1.2227    0.3216    1.6408 O   0  0  0  0  0  0  0  0  0  0  0  0
    5.1203    0.3536   -1.1266 O   0  0  0  0  0  0  0  0  0  0  0  0
   -0.9699   -0.7821    0.0300 O   0  0  0  0  0  0  0  0  0  0  0  0
   -2.5673   -2.3230    0.6409 O   0  0  0  0  0  0  0  0  0  0  0  0
   -4.9401   -1.6183   -0.4794 O   0  0  0  0  0  0  0  0  0  0  0  0
    3.3787   -1.0749   -1.4821 N   0  0  0  0  0  0  0  0  0  0  0  0
    3.1434    0.6921    0.2244 C   0  0  0  0  0  0  0  0  0  0  0  0
    2.7176    2.0451   -0.3675 C   0  0  0  0  0  0  0  0  0  0  0  0
    4.0205    0.9185    1.4653 C   0  0  0  0  0  0  0  0  0  0  0  0
    1.8682   -0.0333    0.6536 C   0  0  0  0  0  0  0  0  0  0  0  0
    3.9835   -0.0233   -0.8338 C   0  0  0  0  0  0  0  0  0  0  0  0
    1.3749   -1.1601   -0.1822 C   0  0  0  0  0  0  0  0  0  0  0  0
    1.7816    1.8551   -1.5410 C   0  0  0  0  0  0  0  0  0  0  0  0
    4.4201   -0.3976    2.0956 C   0  0  0  0  0  0  0  0  0  0  0  0
    2.1513   -1.5894   -1.1807 C   0  0  0  0  0  0  0  0  0  0  0  0
    0.0471   -1.7616    0.1495 C   0  0  0  0  0  0  0  0  0  0  0  0
   -2.2400   -1.1955    0.3052 C   0  0  0  0  0  0  0  0  0  0  0  0
   -3.2075   -0.0810    0.1426 C   0  0  0  0  0  0  0  0  0  0  0  0
   -4.5064   -0.3485   -0.2410 C   0  0  0  0  0  0  0  0  0  0  0  0
   -2.7650    1.2047    0.3852 C   0  0  0  0  0  0  0  0  0  0  0  0
   -5.3997    0.7126   -0.3883 C   0  0  0  0  0  0  0  0  0  0  0  0
   -3.6584    2.2659    0.2381 C   0  0  0  0  0  0  0  0  0  0  0  0
   -4.9757    2.0197   -0.1487 C   0  0  0  0  0  0  0  0  0  0  0  0
  1 10  2  0
  2 11  2  0
  3 16  1  0
  3 17  1  0
  4 17  2  0
  5 19  1  0
  6 11  1  0
  6 15  1  0
  7  8  1  0
  7  9  1  0
  7 10  1  0
  7 11  1  0
  8 13  1  0
  9 14  1  0
 10 12  1  0
 12 15  2  0
 12 16  1  0
 17 18  1  0
 18 19  2  0
 18 20  1  0
 19 21  1  0
 20 22  2  0
 21 23  2  0
 22 23  1  0
M  END
>  <PUBCHEM_COMPOUND_CID>  (1) 
41630

>  <PUBCHEM_CONFORMER_RMSD>  (1) 
0.8

>  <PUBCHEM_CONFORMER_DIVERSEORDER>  (1) 
1
105
299
180
76
292
239
33
196
236
101
248
284
219
203
205
265
171
259
114
179
206
124
282
96
280
260
223
266
117
261
222
163
21
164
275
269
202
131
238
119
106
281
288
191
253
98
32
257
185
204
263
111
34
30
213
136
293
200
87
104
115
28
255
220
264
120
278
241
154
36
138
82
153
225
132
243
47
37
142
285
50
188
121
273
283
90
262
35
113
250
229
217
181
126
128
286
224
68
75
287
232
103
61
130
226
296
176
237
97
100
18
48
258
108
192
291
58
161
60
294
79
244
146
152
211
268
102
184
122
194
290
216
189
276
46
91
125
133
52
249
65
139
13
49
165
256
57
297
118
45
198
177
107
55
221
109
64
123
212
17
31
150
112
246
16
231
230
240
62
168
83
251
8
175
99
207
88
267
279
81
94
228
173
110
40
169
289
201
210
71
26
233
270
155
151
234
172
209
43
197
186
149
148
56
199
298
141
93
95
178
214
277
167
157
195
215
272
134
38
159
10
44
66
92
67
140
190
135
41
295
15
160
235
54
208
63
271
69
145
78
274
162
227
42
242
129
245
39
59
116
218
247
73
187
144
72
166
137
143
156
127
3
254
174
20
80
183
193
24
158
170
252
4
182
84
12
74
53
2
77
85
70
9
89
22
7
6
29
11
86
5
51
27
23
19
147
14
25

>  <PUBCHEM_MMFF94_PARTIAL_CHARGES>  (1) 
26
1 -0.57
10 0.49
11 0.57
12 -0.12
15 -0.04
16 0.42
17 0.63
18 0.09
19 0.08
2 -0.57
20 -0.15
21 -0.15
22 -0.15
23 -0.15
3 -0.43
34 0.37
35 0.15
38 0.15
39 0.15
4 -0.57
40 0.15
41 0.15
42 0.45
5 -0.53
6 -0.54
7 0.12

>  <PUBCHEM_EFFECTIVE_ROTOR_COUNT>  (1) 
6.4

>  <PUBCHEM_PHARMACOPHORE_FEATURES>  (1) 
9
1 1 acceptor
1 13 hydrophobe
1 14 hydrophobe
1 2 acceptor
1 4 acceptor
1 5 donor
1 6 donor
6 18 19 20 21 22 23 rings
6 6 7 10 11 12 15 rings

>  <PUBCHEM_HEAVY_ATOM_COUNT>  (1) 
23

>  <PUBCHEM_ATOM_DEF_STEREO_COUNT>  (1) 
0

>  <PUBCHEM_ATOM_UDEF_STEREO_COUNT>  (1) 
0

>  <PUBCHEM_BOND_DEF_STEREO_COUNT>  (1) 
0

>  <PUBCHEM_BOND_UDEF_STEREO_COUNT>  (1) 
0

>  <PUBCHEM_ISOTOPIC_ATOM_COUNT>  (1) 
0

>  <PUBCHEM_COMPONENT_COUNT>  (1) 
1

>  <PUBCHEM_CACTVS_TAUTO_COUNT>  (1) 
16

>  <PUBCHEM_CONFORMER_ID>  (1) 
0000A29E00000001

>  <PUBCHEM_MMFF94_ENERGY>  (1) 
57.8399

>  <PUBCHEM_FEATURE_SELFOVERLAP>  (1) 
45.671

>  <PUBCHEM_SHAPE_FINGERPRINT>  (1) 
10498660 4 18410008793795177305
10646746 165 18411702084081588310
10670039 82 18334864874438387236
11128504 68 14189569758341655227
11370993 144 12973877088098208007
11552529 35 15865221132860866545
11595378 159 16950565424559048461
12236239 1 17385723607996553882
12403259 415 18060703913431238339
12596602 18 16588030112953368145
12633257 1 18040428893261225212
13224815 77 18273497875244127249
15238133 3 17822290141649956324
1601671 61 18334299751769311348
17349148 13 18335697278050001783
19078846 21 18113333128949185952
20645477 70 16558757814728546222
20715895 44 18045770201271228661
21033648 29 18060133249753470274
21503847 285 17895201029873234404
21864079 5 18261397805314515813
221357 26 17918275320806462161
22149856 69 18058747913413347019
22289505 5 18272656697356770204
22393880 68 17988645181216947447
22749437 52 18410298025250767973
235170 7 16056883528875492901
23557571 272 18272661164017373175
23559900 14 18341899532558167607
341906 21 18335415772681517923
345986 75 16879883302630445920
3545911 37 18341899575955655071
3680242 22 18188208689384376609
4028521 119 18413108330011137495
474 4 18040721368076279781
495365 180 17489579052909380970
508706 21 18335984186329484861
5104073 3 18340207384843372963
5281201 14 18201730534821906095
5895379 119 18339090310725350148
6328613 192 18187374272398139220
7064713 232 18337105675136459893
8509985 295 17967806129151371240
9709674 26 18413111688528051879
9981440 41 18335134285522156123

>  <PUBCHEM_SHAPE_MULTIPOLES>  (1) 
439
12.03
2.27
1.4
7.75
0.21
-0.23
2.89
0.21
1.51
0.28
-2.28
0.06
0.06

>  <PUBCHEM_SHAPE_SELFOVERLAP>  (1) 
936.925

>  <PUBCHEM_SHAPE_VOLUME>  (1) 
241.1

>  <PUBCHEM_COORDINATE_TYPE>  (1) 
2
5
10

$$$$
