41641
     RDKit          3D

 25 27  0  0  0  0  0  0  0  0999 V2000
   -2.0188   -2.7400    0.8907 Cl  0  0  0  0  0  0  0  0  0  0  0  0
   -1.2071    1.5726   -1.3398 O   0  0  0  0  0  0  0  0  0  0  0  0
    0.9405   -3.1355    0.4099 O   0  0  0  0  0  0  0  0  0  0  0  0
   -4.7624    0.7900    0.5590 O   0  0  0  0  0  0  0  0  0  0  0  0
   -4.3198   -1.4438    0.2222 O   0  0  0  0  0  0  0  0  0  0  0  0
    3.5885   -0.2194   -0.4904 N   0  0  0  0  0  0  0  0  0  0  0  0
    5.6963    1.0424    1.0339 N   0  0  0  0  0  0  0  0  0  0  0  0
    3.3883    0.1673    0.9117 C   0  0  0  0  0  0  0  0  0  0  0  0
    5.0009   -0.5328   -0.7384 C   0  0  0  0  0  0  0  0  0  0  0  0
    4.2835    1.3543    1.2834 C   0  0  0  0  0  0  0  0  0  0  0  0
    5.8960    0.6548   -0.3679 C   0  0  0  0  0  0  0  0  0  0  0  0
    2.7356   -1.3526   -0.8430 C   0  0  0  0  0  0  0  0  0  0  0  0
    1.2752   -1.0325   -0.6646 C   0  0  0  0  0  0  0  0  0  0  0  0
    6.5482    2.1770    1.3852 C   0  0  0  0  0  0  0  0  0  0  0  0
    0.8096    0.1916   -1.1403 C   0  0  0  0  0  0  0  0  0  0  0  0
    0.4335   -1.9484   -0.0392 C   0  0  0  0  0  0  0  0  0  0  0  0
   -0.5482    0.4440   -0.9531 C   0  0  0  0  0  0  0  0  0  0  0  0
   -1.4279   -0.4384   -0.3344 C   0  0  0  0  0  0  0  0  0  0  0  0
   -0.9283   -1.6658    0.1351 C   0  0  0  0  0  0  0  0  0  0  0  0
   -2.6943    0.2033   -0.3519 C   0  0  0  0  0  0  0  0  0  0  0  0
   -2.5054    1.4171   -0.9712 C   0  0  0  0  0  0  0  0  0  0  0  0
   -3.9600   -0.2498    0.1505 C   0  0  0  0  0  0  0  0  0  0  0  0
   -3.4028    2.5361   -1.2987 C   0  0  0  0  0  0  0  0  0  0  0  0
   -6.0546    0.4647    1.0825 C   0  0  0  0  0  0  0  0  0  0  0  0
   -6.7663    1.7438    1.4688 C   0  0  0  0  0  0  0  0  0  0  0  0
  1 19  1  0
  2 17  1  0
  2 21  1  0
  3 16  1  0
  4 22  1  0
  4 24  1  0
  5 22  2  0
  6  8  1  0
  6  9  1  0
  6 12  1  0
  7 10  1  0
  7 11  1  0
  7 14  1  0
  8 10  1  0
  9 11  1  0
 12 13  1  0
 13 15  1  0
 13 16  2  0
 15 17  2  0
 16 19  1  0
 17 18  1  0
 18 19  2  0
 18 20  1  0
 20 21  2  0
 20 22  1  0
 21 23  1  0
 24 25  1  0
M  END
>  <PUBCHEM_COMPOUND_CID>  (1) 
41641

>  <PUBCHEM_CONFORMER_RMSD>  (1) 
0.8

>  <PUBCHEM_CONFORMER_DIVERSEORDER>  (1) 
3
33
28
11
26
6
35
7
24
19
27
14
32
12
5
22
29
18
4
25
16
23
36
8
10
20
15
9
34
30
31
13
1
17
21
2

>  <PUBCHEM_MMFF94_PARTIAL_CHARGES>  (1) 
25
1 -0.18
10 0.27
11 0.27
12 0.41
13 -0.14
14 0.27
15 -0.15
16 0.08
17 0.14
19 0.18
2 -0.28
20 -0.09
21 -0.04
22 0.81
23 0.18
24 0.28
3 -0.53
39 0.15
4 -0.43
40 0.45
5 -0.57
6 -0.81
7 -0.81
8 0.27
9 0.27

>  <PUBCHEM_EFFECTIVE_ROTOR_COUNT>  (1) 
6.2

>  <PUBCHEM_PHARMACOPHORE_FEATURES>  (1) 
8
1 2 acceptor
1 3 donor
1 5 acceptor
1 6 cation
1 7 cation
5 2 17 18 20 21 rings
6 13 15 16 17 18 19 rings
6 6 7 8 9 10 11 rings

>  <PUBCHEM_HEAVY_ATOM_COUNT>  (1) 
25

>  <PUBCHEM_ATOM_DEF_STEREO_COUNT>  (1) 
0

>  <PUBCHEM_ATOM_UDEF_STEREO_COUNT>  (1) 
0

>  <PUBCHEM_BOND_DEF_STEREO_COUNT>  (1) 
0

>  <PUBCHEM_BOND_UDEF_STEREO_COUNT>  (1) 
0

>  <PUBCHEM_ISOTOPIC_ATOM_COUNT>  (1) 
0

>  <PUBCHEM_COMPONENT_COUNT>  (1) 
1

>  <PUBCHEM_CACTVS_TAUTO_COUNT>  (1) 
3

>  <PUBCHEM_CONFORMER_ID>  (1) 
0000A2A900000003

>  <PUBCHEM_MMFF94_ENERGY>  (1) 
54.8808

>  <PUBCHEM_FEATURE_SELFOVERLAP>  (1) 
40.701

>  <PUBCHEM_SHAPE_FINGERPRINT>  (1) 
10 15 18113621187631148704
10006869 2 18197775493071451737
10319926 262 18261380136705420074
10906281 52 17969808378433154583
11595378 159 17458614593436301420
12035758 1 18187094970379130377
12236239 1 14692576528856608750
12390115 104 18338527317537166061
12403259 415 18337952294778439116
12596602 18 17988651753439608667
12633257 1 18261953054623924248
12760667 363 7853585642351713412
12838862 33 18187074058678997725
12892183 10 17385992924173868808
12925494 130 18047183051594688101
13140716 1 17970081134757967055
13402501 40 18342172297821113328
13540713 4 17680426654983288199
13540713 5 17534925261638314103
13583140 156 16226032414560705271
13668630 136 12973600036822118864
13685833 64 11891335352560072985
14178342 30 17751078003350181717
15183329 4 13038912135718966440
17980427 23 18262237853694073038
19784866 240 13334741215292214449
21033648 29 18335697213504634188
21637258 2 13912603896307536257
22079108 93 18342177760676232599
22122407 14 17060068072106597505
22182313 1 17824263705282734415
22224240 67 18408888434543573483
23559900 14 18335430024153692030
23569914 2 16911673464844258705
25147074 1 17678471976258719679
2838139 119 17274813654274490080
34797466 226 17060066942989062375
350125 39 18261121793425806669
5104073 3 18042965363496727097
5385378 56 18410858716310023666
5718773 13 11026059280336767640
59682541 35 18335148600795359281
6442390 28 18409728474117495390

>  <PUBCHEM_SHAPE_MULTIPOLES>  (1) 
482.92
15.04
2.68
1.37
4.19
0.91
-0.1
-10.75
-7.29
-0.69
-0.45
-0.04
-0.66
1.64

>  <PUBCHEM_SHAPE_SELFOVERLAP>  (1) 
1022.925

>  <PUBCHEM_SHAPE_VOLUME>  (1) 
273.5

>  <PUBCHEM_COORDINATE_TYPE>  (1) 
2
5
10

$$$$
