41646
     RDKit          3D

 46 51  0  0  0  0  0  0  0  0999 V2000
    0.4138   -3.1039   -0.1661 O   0  0  0  0  0  0  0  0  0  0  0  0
   -1.0874   -1.2165    0.5952 O   0  0  0  0  0  0  0  0  0  0  0  0
    9.5919    2.3914   -0.7157 O   0  0  0  0  0  0  0  0  0  0  0  0
   10.3852    1.4149    1.3398 O   0  0  0  0  0  0  0  0  0  0  0  0
   -2.3239    3.9121   -1.8843 O   0  0  0  0  0  0  0  0  0  0  0  0
   -4.1163    5.8232   -0.9659 O   0  0  0  0  0  0  0  0  0  0  0  0
   -5.9102   -2.7589   -2.1906 O   0  0  0  0  0  0  0  0  0  0  0  0
   -5.3816   -5.1421   -0.8616 O   0  0  0  0  0  0  0  0  0  0  0  0
    5.1659   -1.6226   -0.5369 N   0  0  0  0  0  0  0  0  0  0  0  0
    2.4298   -2.0153    0.2164 N   0  0  0  0  0  0  0  0  0  0  0  0
   -1.8362   -0.1187    1.0534 N   0  0  0  0  0  0  0  0  0  0  0  0
   -4.8681    0.4436    2.4000 N   0  0  0  0  0  0  0  0  0  0  0  0
    4.3261   -0.4765   -0.1590 C   0  0  0  0  0  0  0  0  0  0  0  0
    4.3548   -2.6618   -1.1878 C   0  0  0  0  0  0  0  0  0  0  0  0
    3.2029   -0.9078    0.7859 C   0  0  0  0  0  0  0  0  0  0  0  0
    3.2376   -3.1372   -0.2596 C   0  0  0  0  0  0  0  0  0  0  0  0
    6.2536   -1.1948   -1.4156 C   0  0  0  0  0  0  0  0  0  0  0  0
    7.3611   -0.5208   -0.6499 C   0  0  0  0  0  0  0  0  0  0  0  0
    1.0390   -2.1118    0.2169 C   0  0  0  0  0  0  0  0  0  0  0  0
    7.9192    0.6638   -1.1362 C   0  0  0  0  0  0  0  0  0  0  0  0
    0.2800   -0.9093    0.7186 C   0  0  0  0  0  0  0  0  0  0  0  0
    7.8241   -1.0907    0.5493 C   0  0  0  0  0  0  0  0  0  0  0  0
    8.9315    1.2442   -0.3998 C   0  0  0  0  0  0  0  0  0  0  0  0
    9.3846    0.6866    0.7739 C   0  0  0  0  0  0  0  0  0  0  0  0
    8.8504   -0.4824    1.2758 C   0  0  0  0  0  0  0  0  0  0  0  0
   10.5110    2.4937    0.3912 C   0  0  0  0  0  0  0  0  0  0  0  0
   -3.1204   -0.3184    0.9743 C   0  0  0  0  0  0  0  0  0  0  0  0
   -4.0416    0.7872    1.3865 C   0  0  0  0  0  0  0  0  0  0  0  0
   -4.0274    2.0392    0.7683 C   0  0  0  0  0  0  0  0  0  0  0  0
   -3.7167   -1.5862    0.4881 C   0  0  0  0  0  0  0  0  0  0  0  0
   -4.9396    3.0069    1.2375 C   0  0  0  0  0  0  0  0  0  0  0  0
   -3.1518    2.3564   -0.2832 C   0  0  0  0  0  0  0  0  0  0  0  0
   -4.9548    4.2779    0.6401 C   0  0  0  0  0  0  0  0  0  0  0  0
   -3.1805    3.6237   -0.8649 C   0  0  0  0  0  0  0  0  0  0  0  0
   -5.8039    2.6711    2.2861 C   0  0  0  0  0  0  0  0  0  0  0  0
   -4.5431   -1.5827   -0.6356 C   0  0  0  0  0  0  0  0  0  0  0  0
   -4.0800    4.5822   -0.4043 C   0  0  0  0  0  0  0  0  0  0  0  0
   -3.4520   -2.7822    1.1555 C   0  0  0  0  0  0  0  0  0  0  0  0
   -5.7275    1.3950    2.8229 C   0  0  0  0  0  0  0  0  0  0  0  0
   -5.1046   -2.7752   -1.0922 C   0  0  0  0  0  0  0  0  0  0  0  0
   -4.0138   -3.9745    0.6990 C   0  0  0  0  0  0  0  0  0  0  0  0
   -4.8400   -3.9711   -0.4249 C   0  0  0  0  0  0  0  0  0  0  0  0
   -1.0539    4.4553   -1.5294 C   0  0  0  0  0  0  0  0  0  0  0  0
   -4.9958    6.0077   -2.0732 C   0  0  0  0  0  0  0  0  0  0  0  0
   -6.1300   -1.4954   -2.8145 C   0  0  0  0  0  0  0  0  0  0  0  0
   -5.0614   -6.3197   -0.1234 C   0  0  0  0  0  0  0  0  0  0  0  0
  1 19  2  0
  2 11  1  0
  2 21  1  0
  3 23  1  0
  3 26  1  0
  4 24  1  0
  4 26  1  0
  5 34  1  0
  5 43  1  0
  6 37  1  0
  6 44  1  0
  7 40  1  0
  7 45  1  0
  8 42  1  0
  8 46  1  0
  9 13  1  0
  9 14  1  0
  9 17  1  0
 10 15  1  0
 10 16  1  0
 10 19  1  0
 11 27  2  0
 12 28  2  0
 12 39  1  0
 13 15  1  0
 14 16  1  0
 17 18  1  0
 18 20  1  0
 18 22  2  0
 19 21  1  0
 20 23  2  0
 22 25  1  0
 23 24  1  0
 24 25  2  0
 27 28  1  0
 27 30  1  0
 28 29  1  0
 29 31  2  0
 29 32  1  0
 30 36  2  0
 30 38  1  0
 31 33  1  0
 31 35  1  0
 32 34  2  0
 33 37  2  0
 34 37  1  0
 35 39  2  0
 36 40  1  0
 38 41  2  0
 40 42  2  0
 41 42  1  0
M  END
>  <PUBCHEM_COMPOUND_CID>  (1) 
41646

>  <PUBCHEM_CONFORMER_RMSD>  (1) 
1.4

>  <PUBCHEM_CONFORMER_DIVERSEORDER>  (1) 
2
9
42
48
7
57
46
17
84
51
13
15
28
45
86
35
27
90
64
5
96
58
93
11
16
62
85
29
70
22
77
20
59
99
38
34
98
26
56
6
71
14
30
67
68
44
66
19
10
91
33
52
92
76
37
31
61
50
4
40
75
72
73
43
53
65
78
24
25
74
81
63
87
39
49
8
100
21
1
94
89
60
47
88
97
12
23
55
3
80
95
54
18
36
83
32
69
41
79
82

>  <PUBCHEM_MMFF94_PARTIAL_CHARGES>  (1) 
54
1 -0.57
10 -0.66
11 -0.51
12 -0.62
13 0.27
14 0.27
15 0.3
16 0.3
17 0.41
18 -0.14
19 0.57
2 -0.22
20 -0.15
21 0.34
22 -0.15
23 0.08
24 0.08
25 -0.15
26 0.56
27 0.28
28 0.4
3 -0.36
30 0.09
32 -0.15
33 -0.15
34 0.08
35 -0.15
36 -0.15
37 0.08
38 -0.15
39 0.16
4 -0.36
40 0.08
41 -0.15
42 0.08
43 0.28
44 0.28
45 0.28
46 0.28
5 -0.36
57 0.15
6 -0.36
60 0.15
61 0.15
64 0.15
65 0.15
66 0.15
67 0.15
68 0.15
69 0.15
7 -0.36
70 0.15
8 -0.36
9 -0.81

>  <PUBCHEM_EFFECTIVE_ROTOR_COUNT>  (1) 
13.8

>  <PUBCHEM_PHARMACOPHORE_FEATURES>  (1) 
16
1 1 acceptor
1 11 acceptor
1 12 acceptor
1 3 acceptor
1 4 acceptor
1 5 acceptor
1 6 acceptor
1 7 acceptor
1 8 acceptor
1 9 cation
5 3 4 23 24 26 rings
6 12 28 29 31 35 39 rings
6 18 20 22 23 24 25 rings
6 29 31 32 33 34 37 rings
6 30 36 38 40 41 42 rings
6 9 10 13 14 15 16 rings

>  <PUBCHEM_HEAVY_ATOM_COUNT>  (1) 
46

>  <PUBCHEM_ATOM_DEF_STEREO_COUNT>  (1) 
0

>  <PUBCHEM_ATOM_UDEF_STEREO_COUNT>  (1) 
0

>  <PUBCHEM_BOND_DEF_STEREO_COUNT>  (1) 
0

>  <PUBCHEM_BOND_UDEF_STEREO_COUNT>  (1) 
1

>  <PUBCHEM_ISOTOPIC_ATOM_COUNT>  (1) 
0

>  <PUBCHEM_COMPONENT_COUNT>  (1) 
1

>  <PUBCHEM_CACTVS_TAUTO_COUNT>  (1) 
1

>  <PUBCHEM_CONFORMER_ID>  (1) 
0000A2AE00000002

>  <PUBCHEM_MMFF94_ENERGY>  (1) 
176.8774

>  <PUBCHEM_FEATURE_SELFOVERLAP>  (1) 
81.401

>  <PUBCHEM_SHAPE_FINGERPRINT>  (1) 
10190206 1 18411695517467807947
10462674 296 18337391672534079901
11621639 254 18339914919430843853
14294032 229 18341894104747913294
14512766 119 18271254828753184818
15351334 14 17989202621433774742
1577012 14 18411706478835907010
17686467 74 18270959180078864866
19304144 158 18342740711432001158
21927370 108 18190189065146827435
24771293 8 18409736188468829884
3418910 222 18191600854428189150
4403749 210 18189899708657240629
44249763 50 18338805502774409326
44280117 145 18201161069493202530
6289498 60 18335706010510611504

>  <PUBCHEM_SHAPE_MULTIPOLES>  (1) 
879.78
30.53
8.65
2.04
105.75
3.02
-0.05
11.83
2.22
-23.09
-4.13
-3.89
1.11
-0.65

>  <PUBCHEM_SHAPE_SELFOVERLAP>  (1) 
1916.975

>  <PUBCHEM_SHAPE_VOLUME>  (1) 
479

>  <PUBCHEM_COORDINATE_TYPE>  (1) 
2
5
10

$$$$
