41645
     RDKit          3D

 15 16  0  0  0  0  0  0  0  0999 V2000
    3.6779    0.4800    0.4257 O   0  0  0  0  0  0  0  0  0  0  0  0
    2.2221    0.0337   -1.3070 O   0  0  0  0  0  0  0  0  0  0  0  0
    0.1217   -2.0778    0.3404 N   0  0  0  0  0  0  0  0  0  0  0  0
   -0.8573    0.1475    0.2771 C   0  0  0  0  0  0  0  0  0  0  0  0
    0.1942   -0.7393    0.5173 C   0  0  0  0  0  0  0  0  0  0  0  0
   -2.0753   -0.3961   -0.1807 C   0  0  0  0  0  0  0  0  0  0  0  0
    1.5224   -0.2533    1.0055 C   0  0  0  0  0  0  0  0  0  0  0  0
   -0.7407    1.5336    0.4732 C   0  0  0  0  0  0  0  0  0  0  0  0
   -2.1710   -1.7797   -0.3700 C   0  0  0  0  0  0  0  0  0  0  0  0
   -3.1558    0.4649   -0.4335 C   0  0  0  0  0  0  0  0  0  0  0  0
   -1.8241    2.3740    0.2172 C   0  0  0  0  0  0  0  0  0  0  0  0
   -1.0593   -2.5625   -0.0986 C   0  0  0  0  0  0  0  0  0  0  0  0
   -3.0289    1.8408   -0.2351 C   0  0  0  0  0  0  0  0  0  0  0  0
    2.4828    0.0929   -0.1131 C   0  0  0  0  0  0  0  0  0  0  0  0
    4.6912    0.8412   -0.5183 C   0  0  0  0  0  0  0  0  0  0  0  0
  1 14  1  0
  1 15  1  0
  2 14  2  0
  3  5  2  0
  3 12  1  0
  4  5  1  0
  4  6  2  0
  4  8  1  0
  5  7  1  0
  6  9  1  0
  6 10  1  0
  7 14  1  0
  8 11  2  0
  9 12  2  0
 10 13  2  0
 11 13  1  0
M  END
>  <PUBCHEM_COMPOUND_CID>  (1) 
41645

>  <PUBCHEM_CONFORMER_RMSD>  (1) 
0.6

>  <PUBCHEM_CONFORMER_DIVERSEORDER>  (1) 
2
11
12
3
15
10
13
4
9
1
6
5
14
8
7

>  <PUBCHEM_MMFF94_PARTIAL_CHARGES>  (1) 
19
1 -0.43
10 -0.15
11 -0.15
12 0.16
13 -0.15
14 0.66
15 0.28
18 0.15
19 0.15
2 -0.57
20 0.15
21 0.15
22 0.15
23 0.15
3 -0.62
5 0.17
7 0.2
8 -0.15
9 -0.15

>  <PUBCHEM_EFFECTIVE_ROTOR_COUNT>  (1) 
3

>  <PUBCHEM_PHARMACOPHORE_FEATURES>  (1) 
4
1 2 acceptor
1 3 acceptor
6 3 4 5 6 9 12 rings
6 4 6 8 10 11 13 rings

>  <PUBCHEM_HEAVY_ATOM_COUNT>  (1) 
15

>  <PUBCHEM_ATOM_DEF_STEREO_COUNT>  (1) 
0

>  <PUBCHEM_ATOM_UDEF_STEREO_COUNT>  (1) 
0

>  <PUBCHEM_BOND_DEF_STEREO_COUNT>  (1) 
0

>  <PUBCHEM_BOND_UDEF_STEREO_COUNT>  (1) 
0

>  <PUBCHEM_ISOTOPIC_ATOM_COUNT>  (1) 
0

>  <PUBCHEM_COMPONENT_COUNT>  (1) 
1

>  <PUBCHEM_CACTVS_TAUTO_COUNT>  (1) 
3

>  <PUBCHEM_CONFORMER_ID>  (1) 
0000A2AD00000002

>  <PUBCHEM_MMFF94_ENERGY>  (1) 
39.7006

>  <PUBCHEM_FEATURE_SELFOVERLAP>  (1) 
20.324

>  <PUBCHEM_SHAPE_FINGERPRINT>  (1) 
11640471 11 17894356587736807484
12138202 97 18201717353551547854
12173636 292 18411411782957920012
13024252 1 17821729485267112979
14614273 12 18261103016139719261
14790565 3 18340778074360100769
15669948 3 18410564119849196074
15775835 57 18114180804874415244
16945 1 18341316839161773715
17134986 127 17977667511101429821
1741750 31 18340768148056812984
18186145 218 18129672889465870888
18534176 82 18273217525401161550
20510252 161 18341334465275072475
20645476 183 18114177544951974579
20645477 56 18411705391612789552
20671657 1 17976542710722058483
20871999 31 18342450491347416263
21524375 3 18189334580600810752
22802520 49 18058745610255483846
2334 1 17906722954049298841
23402539 116 18341322370937245780
23552423 10 17762893265471653419
23557571 272 18200039572032794222
23559900 14 18273213089491151242
2748010 2 18195805159739293123
305870 269 18189616042756033290
3071541 12 17764029069103874491
3071541 250 17616533295311195815
353137 74 18411980222143075105
53812653 8 18409725132400194027
6333449 129 18341894112393374641
7364860 26 17837205974510823183
77492 1 17749657558996989682
81228 2 18267593570553904251

>  <PUBCHEM_SHAPE_MULTIPOLES>  (1) 
291.97
6.06
2.45
0.86
7.32
0.57
0.04
-2.81
1.38
-2.06
-0.05
0.34
-0.01
-0.26

>  <PUBCHEM_SHAPE_SELFOVERLAP>  (1) 
629.157

>  <PUBCHEM_SHAPE_VOLUME>  (1) 
160.8

>  <PUBCHEM_COORDINATE_TYPE>  (1) 
2
5
10

$$$$
