41654
     RDKit          3D

 15 14  0  0  0  0  0  0  0  0999 V2000
   -2.3843   -0.2581    0.3801 O   0  0  0  0  0  0  0  0  0  0  0  0
    2.3891   -0.2421    0.3705 O   0  0  0  0  0  0  0  0  0  0  0  0
   -1.2999   -1.3529   -1.3270 O   0  0  0  0  0  0  0  0  0  0  0  0
    1.3107   -1.3476   -1.3332 O   0  0  0  0  0  0  0  0  0  0  0  0
    0.0033   -0.2781    0.4393 C   0  0  0  0  0  0  0  0  0  0  0  0
   -0.0221    1.2643    0.6116 C   0  0  0  0  0  0  0  0  0  0  0  0
   -0.0609    2.0532   -0.7052 C   0  0  0  0  0  0  0  0  0  0  0  0
    0.0748   -0.9357    1.8326 C   0  0  0  0  0  0  0  0  0  0  0  0
   -1.2798   -0.7179   -0.2792 C   0  0  0  0  0  0  0  0  0  0  0  0
    1.2861   -0.7129   -0.2855 C   0  0  0  0  0  0  0  0  0  0  0  0
   -0.0262    3.5532   -0.4497 C   0  0  0  0  0  0  0  0  0  0  0  0
   -3.6424   -0.5611   -0.2311 C   0  0  0  0  0  0  0  0  0  0  0  0
    3.6484   -0.5330   -0.2443 C   0  0  0  0  0  0  0  0  0  0  0  0
   -4.7548    0.0148    0.6188 C   0  0  0  0  0  0  0  0  0  0  0  0
    4.7578    0.0539    0.6022 C   0  0  0  0  0  0  0  0  0  0  0  0
  1  9  1  0
  1 12  1  0
  2 10  1  0
  2 13  1  0
  3  9  2  0
  4 10  2  0
  5  6  1  0
  5  8  1  0
  5  9  1  0
  5 10  1  0
  6  7  1  0
  7 11  1  0
 12 14  1  0
 13 15  1  0
M  END
>  <PUBCHEM_COMPOUND_CID>  (1) 
41654

>  <PUBCHEM_CONFORMER_RMSD>  (1) 
0.8

>  <PUBCHEM_CONFORMER_DIVERSEORDER>  (1) 
1
90
84
14
57
109
13
22
105
124
78
120
113
103
55
121
42
85
49
43
80
2
107
70
52
110
54
108
89
106
38
79
18
97
119
116
10
37
94
74
75
12
125
126
62
118
122
71
21
114
128
73
4
46
95
17
33
5
98
77
101
86
66
27
53
59
127
111
76
92
87
7
29
64
24
68
32
36
56
60
115
65
15
41
102
40
20
91
34
16
28
83
69
19
3
48
93
72
50
26
96
100
39
81
8
104
99
82
9
35
67
44
117
11
6
47
63
61
123
58
31
88
30
51
25
45
23
112

>  <PUBCHEM_MMFF94_PARTIAL_CHARGES>  (1) 
9
1 -0.43
10 0.66
12 0.28
13 0.28
2 -0.43
3 -0.57
4 -0.57
5 0.12
9 0.66

>  <PUBCHEM_EFFECTIVE_ROTOR_COUNT>  (1) 
8

>  <PUBCHEM_PHARMACOPHORE_FEATURES>  (1) 
4
1 11 hydrophobe
1 3 acceptor
1 4 acceptor
1 8 hydrophobe

>  <PUBCHEM_HEAVY_ATOM_COUNT>  (1) 
15

>  <PUBCHEM_ATOM_DEF_STEREO_COUNT>  (1) 
0

>  <PUBCHEM_ATOM_UDEF_STEREO_COUNT>  (1) 
0

>  <PUBCHEM_BOND_DEF_STEREO_COUNT>  (1) 
0

>  <PUBCHEM_BOND_UDEF_STEREO_COUNT>  (1) 
0

>  <PUBCHEM_ISOTOPIC_ATOM_COUNT>  (1) 
0

>  <PUBCHEM_COMPONENT_COUNT>  (1) 
1

>  <PUBCHEM_CACTVS_TAUTO_COUNT>  (1) 
1

>  <PUBCHEM_CONFORMER_ID>  (1) 
0000A2B600000001

>  <PUBCHEM_MMFF94_ENERGY>  (1) 
18.6346

>  <PUBCHEM_FEATURE_SELFOVERLAP>  (1) 
20.308

>  <PUBCHEM_SHAPE_FINGERPRINT>  (1) 
10465860 250 18113335323139430251
10922049 32 8574711303805347105
13380536 53 18131356288727734926
13533116 47 17967805021699013258
14993402 34 18343014502242376391
15048467 5 17561083609245293400
15490181 8 17470999754088155273
16945 1 17632580452369100234
187816 3 17967254195699568802
18785283 64 17608101080228931133
20233049 118 17968089786145723493
20344682 1 18201719548480179030
20671657 1 18194405730440034893
21041028 32 18335993029757149065
21304253 335 18271533077661518537
21339142 126 18341039736361654014
21501502 16 17901394707573886995
22344851 262 18202564020428273423
23402539 116 18411410709210814542
23419403 2 14681505554576589111
23557571 272 18339651022984407996
23559900 14 17894916265494711922
3250762 1 17621041962609436431
3286 77 17823424983868775915
68250623 7 17904485456208086547
68521 5 18334577893297830492
7495541 125 17968954118349512283
81228 2 18119550755097636552

>  <PUBCHEM_SHAPE_MULTIPOLES>  (1) 
285.22
6.77
2.3
1.19
0.05
3.47
0.12
-1.95
1.1
-0.05
-0.48
0.01
-0.44
0.01

>  <PUBCHEM_SHAPE_SELFOVERLAP>  (1) 
543.592

>  <PUBCHEM_SHAPE_VOLUME>  (1) 
175.9

>  <PUBCHEM_COORDINATE_TYPE>  (1) 
2
5
10

$$$$
