41674
     RDKit          3D

 12 11  0  0  1  0  0  0  0  0999 V2000
    1.0238    0.1943   -0.2900 O   0  0  0  0  0  0  0  0  0  0  0  0
   -1.7654    0.1446   -0.1523 O   0  0  0  0  0  0  0  0  0  0  0  0
    4.3681   -0.5736    0.8996 O   0  0  0  0  0  0  0  0  0  0  0  0
    0.2641    1.3939   -0.4291 C   0  0  0  0  0  0  0  0  0  0  0  0
    2.3136    0.4587    0.2396 C   0  0  0  0  0  0  0  0  0  0  0  0
   -1.0887    1.0364   -1.0317 C   0  0  0  0  0  0  0  0  0  0  0  0
    3.0832   -0.8517    0.3452 C   0  0  0  0  0  0  0  0  0  0  0  0
    0.1104    2.0403    0.9393 C   0  0  0  0  0  0  0  0  0  0  0  0
    3.2659   -1.5013   -1.0181 C   0  0  0  0  0  0  0  0  0  0  0  0
   -3.0294   -0.2397   -0.6739 C   0  0  0  0  0  0  0  0  0  0  0  0
   -3.6840   -1.1706    0.2921 C   0  0  0  0  0  0  0  0  0  0  0  0
   -4.8617   -0.9311    0.8792 C   0  0  0  0  0  0  0  0  0  0  0  0
  1  4  1  0
  1  5  1  0
  2  6  1  0
  2 10  1  0
  3  7  1  0
  4  6  1  0
  4  8  1  0
  5  7  1  0
  7  9  1  0
 10 11  1  0
 11 12  2  0
M  END
>  <PUBCHEM_COMPOUND_CID>  (1) 
41674

>  <PUBCHEM_CONFORMER_RMSD>  (1) 
0.8

>  <PUBCHEM_CONFORMER_DIVERSEORDER>  (1) 
7
121
9
64
124
10
17
123
86
97
111
45
72
125
8
116
109
30
41
58
99
90
36
117
119
115
6
84
93
126
76
82
40
42
62
88
13
96
48
127
104
31
1
100
114
65
122
12
51
71
85
103
66
98
106
107
105
120
18
110
35
68
67
38
57
21
78
33
20
118
37
87
81
70
108
16
53
60
15
39
75
28
59
2
52
50
34
92
79
46
22
77
43
4
95
89
69
54
63
25
3
11
80
44
27
29
112
55
113
26
47
61
56
74
19
83
102
32
94
49
23
14
24
91
5
73
101

>  <PUBCHEM_MMFF94_PARTIAL_CHARGES>  (1) 
14
1 -0.56
10 0.42
11 -0.29
12 -0.3
2 -0.56
27 0.4
28 0.15
29 0.15
3 -0.68
30 0.15
4 0.28
5 0.28
6 0.28
7 0.28

>  <PUBCHEM_EFFECTIVE_ROTOR_COUNT>  (1) 
7

>  <PUBCHEM_PHARMACOPHORE_FEATURES>  (1) 
5
1 1 acceptor
1 12 hydrophobe
1 2 acceptor
1 3 acceptor
1 3 donor

>  <PUBCHEM_HEAVY_ATOM_COUNT>  (1) 
12

>  <PUBCHEM_ATOM_DEF_STEREO_COUNT>  (1) 
0

>  <PUBCHEM_ATOM_UDEF_STEREO_COUNT>  (1) 
2

>  <PUBCHEM_BOND_DEF_STEREO_COUNT>  (1) 
0

>  <PUBCHEM_BOND_UDEF_STEREO_COUNT>  (1) 
0

>  <PUBCHEM_ISOTOPIC_ATOM_COUNT>  (1) 
0

>  <PUBCHEM_COMPONENT_COUNT>  (1) 
1

>  <PUBCHEM_CACTVS_TAUTO_COUNT>  (1) 
1

>  <PUBCHEM_CONFORMER_ID>  (1) 
0000A2CA00000007

>  <PUBCHEM_MMFF94_ENERGY>  (1) 
22.1598

>  <PUBCHEM_FEATURE_SELFOVERLAP>  (1) 
25.376

>  <PUBCHEM_SHAPE_FINGERPRINT>  (1) 
11543360 7 14706932860390710071
12006461 19 18188776170876318043
12032990 46 18409450267103936239
12119455 92 9367350318722104512
14123255 352 11887952163850391411
14251710 61 18408890611395946039
14252887 29 18202002118731754214
14445660 50 16128080235293963486
17041 49 17845946229185397265
17834072 32 11311765207074953483
18186145 218 12107791778545560246
18342897 55 10737282480774353835
19782 4 10735878335632678759
20281407 28 18259983764747168669
20388580 30 17386011723251005053
20432913 95 18272933834269208139
20645477 56 11026672790222333718
20645477 70 18337658832753798759
20671657 53 17676207974284547828
20724930 31 18333448759443689418
20767249 462 11240001165556360531
20871998 22 18272093760050880260
20871999 31 16805599257548680095
21061003 4 18131623482985912173
21524375 3 9439410115957000933
22096605 113 8646500604521986061
22218785 32 11241970369380393360
23382010 3 13262688074840005917
23402539 116 14562807699463810924
23402655 69 10881394335739517995
23500284 5 18267867185571463122
328317 168 11383834849102216811
43658 37 10737294583686472719
548570 60 11095888155113449699
94968 8 18186523232347692594

>  <PUBCHEM_SHAPE_MULTIPOLES>  (1) 
229.35
8.64
1.75
1.07
3.59
0.51
0.04
-6.04
-2.22
-0.36
-0.11
-0.03
0.04
0.67

>  <PUBCHEM_SHAPE_SELFOVERLAP>  (1) 
420.874

>  <PUBCHEM_SHAPE_VOLUME>  (1) 
146.4

>  <PUBCHEM_COORDINATE_TYPE>  (1) 
2
5
10

$$$$
