41688
     RDKit          3D

 11 10  0  0  0  0  0  0  0  0999 V2000
    0.1360   -1.3805    0.6488 O   0  0  0  0  0  0  0  0  0  0  0  0
    2.4549   -0.2591    0.2355 O   0  0  0  0  0  0  0  0  0  0  0  0
    1.5633    1.7297   -0.5149 O   0  0  0  0  0  0  0  0  0  0  0  0
   -2.3855    0.0263    0.1084 C   0  0  0  0  0  0  0  0  0  0  0  0
   -0.9932    0.5776   -0.0927 C   0  0  0  0  0  0  0  0  0  0  0  0
   -3.1341   -0.0092   -1.2240 C   0  0  0  0  0  0  0  0  0  0  0  0
   -3.1445    0.8752    1.1282 C   0  0  0  0  0  0  0  0  0  0  0  0
    0.1438   -0.0894    0.1632 C   0  0  0  0  0  0  0  0  0  0  0  0
    1.4428    0.5914   -0.0873 C   0  0  0  0  0  0  0  0  0  0  0  0
    0.1385   -2.3161   -0.4118 C   0  0  0  0  0  0  0  0  0  0  0  0
    3.7779    0.2541    0.0466 C   0  0  0  0  0  0  0  0  0  0  0  0
  1  8  1  0
  1 10  1  0
  2  9  1  0
  2 11  1  0
  3  9  2  0
  4  5  1  0
  4  6  1  0
  4  7  1  0
  5  8  2  0
  8  9  1  0
M  END
>  <PUBCHEM_COMPOUND_CID>  (1) 
41688

>  <PUBCHEM_CONFORMER_RMSD>  (1) 
0.6

>  <PUBCHEM_CONFORMER_DIVERSEORDER>  (1) 
2
11
7
13
8
16
15
12
9
14
4
10
1
5
3
6

>  <PUBCHEM_MMFF94_PARTIAL_CHARGES>  (1) 
10
1 -0.36
10 0.28
11 0.28
13 0.15
2 -0.43
3 -0.57
4 0.14
5 -0.29
8 0.09
9 0.71

>  <PUBCHEM_EFFECTIVE_ROTOR_COUNT>  (1) 
4

>  <PUBCHEM_PHARMACOPHORE_FEATURES>  (1) 
3
1 1 acceptor
1 3 acceptor
3 4 6 7 hydrophobe

>  <PUBCHEM_HEAVY_ATOM_COUNT>  (1) 
11

>  <PUBCHEM_ATOM_DEF_STEREO_COUNT>  (1) 
0

>  <PUBCHEM_ATOM_UDEF_STEREO_COUNT>  (1) 
0

>  <PUBCHEM_BOND_DEF_STEREO_COUNT>  (1) 
0

>  <PUBCHEM_BOND_UDEF_STEREO_COUNT>  (1) 
1

>  <PUBCHEM_ISOTOPIC_ATOM_COUNT>  (1) 
0

>  <PUBCHEM_COMPONENT_COUNT>  (1) 
1

>  <PUBCHEM_CACTVS_TAUTO_COUNT>  (1) 
1

>  <PUBCHEM_CONFORMER_ID>  (1) 
0000A2D800000002

>  <PUBCHEM_MMFF94_ENERGY>  (1) 
23.4396

>  <PUBCHEM_FEATURE_SELFOVERLAP>  (1) 
15.223

>  <PUBCHEM_SHAPE_FINGERPRINT>  (1) 
10219947 1 18334012761621887172
11062470 55 14979959163967803456
124424 183 16950551156361023561
12932764 1 17168142368677994817
14325111 11 18411138051859783424
14897335 6 18192708071607141068
14993402 34 18408600370765160420
15775835 57 17917434189947291865
16945 1 18186801365807984026
18175812 5 17240201058101297373
18186145 218 18343303669273548372
19021347 11 18337946805473059598
20671657 1 18046357584834628684
21028194 46 18260831535462033949
21040471 1 18339081621821237768
23235685 24 18410292501669286504
23402539 116 18060133224405912676
2748010 2 18119815952121531708
5084963 1 18341603845697840717

>  <PUBCHEM_SHAPE_MULTIPOLES>  (1) 
208.77
5.39
1.62
0.93
0.89
0.95
0.05
-1.58
0.04
0.31
0.08
-0.75
-0.07
-0.49

>  <PUBCHEM_SHAPE_SELFOVERLAP>  (1) 
394.648

>  <PUBCHEM_SHAPE_VOLUME>  (1) 
130.4

>  <PUBCHEM_COORDINATE_TYPE>  (1) 
2
5
10

$$$$
