41692
     RDKit          3D

 11 11  0  0  1  0  0  0  0  0999 V2000
    0.7789   -0.0598   -0.7726 C   0  0  0  0  0  0  0  0  0  0  0  0
    1.6082    1.2363   -0.6768 C   0  0  0  0  0  0  0  0  0  0  0  0
    2.4688    1.2716    0.5861 C   0  0  0  0  0  0  0  0  0  0  0  0
    3.4206    0.0747    0.6429 C   0  0  0  0  0  0  0  0  0  0  0  0
    1.5980   -1.2736   -0.4147 C   0  0  0  0  0  0  0  0  0  0  0  0
   -0.4590    0.0116    0.0748 C   0  0  0  0  0  0  0  0  0  0  0  0
    2.7845   -1.2108    0.2066 C   0  0  0  0  0  0  0  0  0  0  0  0
   -2.9467    0.0227    0.4356 C   0  0  0  0  0  0  0  0  0  0  0  0
   -1.7054   -0.0492   -0.4173 C   0  0  0  0  0  0  0  0  0  0  0  0
   -3.7863    1.2384    0.0444 C   0  0  0  0  0  0  0  0  0  0  0  0
   -3.7616   -1.2621    0.2909 C   0  0  0  0  0  0  0  0  0  0  0  0
  1  2  1  0
  1  5  1  0
  1  6  1  0
  2  3  1  0
  3  4  1  0
  4  7  1  0
  5  7  2  0
  6  9  2  0
  8  9  1  0
  8 10  1  0
  8 11  1  0
M  END
>  <PUBCHEM_COMPOUND_CID>  (1) 
41692

>  <PUBCHEM_CONFORMER_RMSD>  (1) 
0.6

>  <PUBCHEM_CONFORMER_DIVERSEORDER>  (1) 
1
6
3
4
7
2
5

>  <PUBCHEM_MMFF94_PARTIAL_CHARGES>  (1) 
11
1 0.28
19 0.15
20 0.15
21 0.15
23 0.15
4 0.14
5 -0.29
6 -0.29
7 -0.29
8 0.14
9 -0.29

>  <PUBCHEM_EFFECTIVE_ROTOR_COUNT>  (1) 
2.8

>  <PUBCHEM_PHARMACOPHORE_FEATURES>  (1) 
2
3 8 10 11 hydrophobe
6 1 2 3 4 5 7 rings

>  <PUBCHEM_HEAVY_ATOM_COUNT>  (1) 
11

>  <PUBCHEM_ATOM_DEF_STEREO_COUNT>  (1) 
0

>  <PUBCHEM_ATOM_UDEF_STEREO_COUNT>  (1) 
0

>  <PUBCHEM_BOND_DEF_STEREO_COUNT>  (1) 
0

>  <PUBCHEM_BOND_UDEF_STEREO_COUNT>  (1) 
1

>  <PUBCHEM_ISOTOPIC_ATOM_COUNT>  (1) 
0

>  <PUBCHEM_COMPONENT_COUNT>  (1) 
1

>  <PUBCHEM_CACTVS_TAUTO_COUNT>  (1) 
1

>  <PUBCHEM_CONFORMER_ID>  (1) 
0000A2DC00000001

>  <PUBCHEM_MMFF94_ENERGY>  (1) 
3.4654

>  <PUBCHEM_FEATURE_SELFOVERLAP>  (1) 
10.148

>  <PUBCHEM_SHAPE_FINGERPRINT>  (1) 
10219947 1 18413105048387156550
10799339 124 18409167680020846289
12162725 195 18408606980730547137
12251169 10 18411416245449876902
12932764 1 17988928911388565549
13296908 3 18410859849896104663
13922767 16 18341609270109653753
14144814 61 18412547608797602697
14325111 11 18410576197402473983
15501101 241 18333729105012819500
15775835 57 17846494885102489856
177051 138 18335140916460582195
18186145 218 18201450142340406035
20279233 1 18408604747458290623
20645477 70 18200590294214772447
20711985 327 17095522915550251773
20871998 22 18055073156173688662
21501925 9 18334010631413125375
21730867 7 18412826884656151202
230 275 17346604075259992704
3248919 1 17676776460851519047
42 15 18333734606860592355
522135 26 8574440815702892323
5374978 207 18412268367683934171
57812782 119 18187080672100542795

>  <PUBCHEM_SHAPE_MULTIPOLES>  (1) 
226.37
7.12
1.47
0.84
4.8
0
-0.03
0.08
1.52
-0.12
0.01
-0.24
-0.06
0.18

>  <PUBCHEM_SHAPE_SELFOVERLAP>  (1) 
438.071

>  <PUBCHEM_SHAPE_VOLUME>  (1) 
134.5

>  <PUBCHEM_COORDINATE_TYPE>  (1) 
2
5
10

$$$$
