41691
     RDKit          3D

 20 21  0  0  0  0  0  0  0  0999 V2000
   -0.8235   -2.1458   -0.5927 O   0  0  0  0  0  0  0  0  0  0  0  0
    0.8235    2.1457   -0.5930 O   0  0  0  0  0  0  0  0  0  0  0  0
   -3.0811   -2.1000   -2.3307 O   0  0  0  0  0  0  0  0  0  0  0  0
    3.0811    2.0996   -2.3311 O   0  0  0  0  0  0  0  0  0  0  0  0
   -0.6349    0.3501    0.9529 C   0  0  0  0  0  0  0  0  0  0  0  0
    0.6351   -0.3499    0.9529 C   0  0  0  0  0  0  0  0  0  0  0  0
   -1.6754   -0.0395    0.1093 C   0  0  0  0  0  0  0  0  0  0  0  0
    1.6754    0.0396    0.1092 C   0  0  0  0  0  0  0  0  0  0  0  0
   -0.8058    1.4314    1.8173 C   0  0  0  0  0  0  0  0  0  0  0  0
    0.8058   -1.4311    1.8175 C   0  0  0  0  0  0  0  0  0  0  0  0
   -2.8865    0.6523    0.1304 C   0  0  0  0  0  0  0  0  0  0  0  0
    2.8865   -0.6523    0.1305 C   0  0  0  0  0  0  0  0  0  0  0  0
   -2.0169    2.1232    1.8382 C   0  0  0  0  0  0  0  0  0  0  0  0
    2.0170   -2.1228    1.8385 C   0  0  0  0  0  0  0  0  0  0  0  0
   -3.0573    1.7337    0.9947 C   0  0  0  0  0  0  0  0  0  0  0  0
    3.0572   -1.7335    0.9950 C   0  0  0  0  0  0  0  0  0  0  0  0
   -1.5394   -1.1649   -0.8082 C   0  0  0  0  0  0  0  0  0  0  0  0
    1.5393    1.1647   -0.8084 C   0  0  0  0  0  0  0  0  0  0  0  0
   -2.2931   -1.1970   -2.1111 C   0  0  0  0  0  0  0  0  0  0  0  0
    2.2931    1.1966   -2.1113 C   0  0  0  0  0  0  0  0  0  0  0  0
  1 17  2  0
  2 18  2  0
  3 19  2  0
  4 20  2  0
  5  6  1  0
  5  7  2  0
  5  9  1  0
  6  8  2  0
  6 10  1  0
  7 11  1  0
  7 17  1  0
  8 12  1  0
  8 18  1  0
  9 13  2  0
 10 14  2  0
 11 15  2  0
 12 16  2  0
 13 15  1  0
 14 16  1  0
 17 19  1  0
 18 20  1  0
M  END
>  <PUBCHEM_COMPOUND_CID>  (1) 
41691

>  <PUBCHEM_CONFORMER_RMSD>  (1) 
0.8

>  <PUBCHEM_CONFORMER_DIVERSEORDER>  (1) 
1
10
11
3
4
12
2
14
9
13
8
7
5
6

>  <PUBCHEM_MMFF94_PARTIAL_CHARGES>  (1) 
28
1 -0.57
10 -0.15
11 -0.15
12 -0.15
13 -0.15
14 -0.15
15 -0.15
16 -0.15
17 0.48
18 0.48
19 0.51
2 -0.57
20 0.51
21 0.15
22 0.15
23 0.15
24 0.15
25 0.15
26 0.15
27 0.15
28 0.15
29 0.06
3 -0.57
30 0.06
4 -0.57
7 0.09
8 0.09
9 -0.15

>  <PUBCHEM_EFFECTIVE_ROTOR_COUNT>  (1) 
5

>  <PUBCHEM_PHARMACOPHORE_FEATURES>  (1) 
6
1 1 acceptor
1 2 acceptor
1 3 acceptor
1 4 acceptor
6 5 7 9 11 13 15 rings
6 6 8 10 12 14 16 rings

>  <PUBCHEM_HEAVY_ATOM_COUNT>  (1) 
20

>  <PUBCHEM_ATOM_DEF_STEREO_COUNT>  (1) 
0

>  <PUBCHEM_ATOM_UDEF_STEREO_COUNT>  (1) 
0

>  <PUBCHEM_BOND_DEF_STEREO_COUNT>  (1) 
0

>  <PUBCHEM_BOND_UDEF_STEREO_COUNT>  (1) 
0

>  <PUBCHEM_ISOTOPIC_ATOM_COUNT>  (1) 
0

>  <PUBCHEM_COMPONENT_COUNT>  (1) 
1

>  <PUBCHEM_CACTVS_TAUTO_COUNT>  (1) 
1

>  <PUBCHEM_CONFORMER_ID>  (1) 
0000A2DB00000001

>  <PUBCHEM_MMFF94_ENERGY>  (1) 
64.7871

>  <PUBCHEM_FEATURE_SELFOVERLAP>  (1) 
30.454

>  <PUBCHEM_SHAPE_FINGERPRINT>  (1) 
10756046 70 18264494992030715677
11578080 2 17544420416385805616
11640471 11 18339092513890345184
12035758 1 15456493705141158915
12173636 292 17248405751201785796
13009979 54 18341316817307798210
13294875 104 13843032194822487109
13538477 17 18272358746674645283
13898156 1 18413109450417385712
14115302 16 18198317638287343231
14817 1 12457173770103199266
15852999 172 16629113257012692597
16752209 62 18060138709289834377
16945 1 18050287264797294628
1813 80 17756439166561184994
18219364 16 17023188253361871574
19765921 60 18191328128484613064
20473742 2 17241344485516538977
20645476 183 18263660510224303987
22112679 90 18341612590135217392
22892500 29 17024043570313469569
23175994 123 16807015325372369218
23184049 29 17701508879659644347
23419403 2 16468030529961281256
23557571 272 17060055998963992633
23559900 14 17059485224424592682
23598291 2 18336560321420982997
238 59 17096067199502334894
266924 78 17894351085635989087
298252 57 17840348520492836576
3286 77 16879088372475749025
68419 9 18342740723440728803
6992083 37 18195515996212038114
77492 1 18338517417610707480
81228 2 17203606021505872379
90525 40 18269847436331066219
9981440 41 17480312596866160944

>  <PUBCHEM_SHAPE_MULTIPOLES>  (1) 
388.11
4.92
2.62
2.48
0
0
-0.95
0
-0.54
0
-0.77
0
0
-3.7

>  <PUBCHEM_SHAPE_SELFOVERLAP>  (1) 
850.775

>  <PUBCHEM_SHAPE_VOLUME>  (1) 
208.2

>  <PUBCHEM_COORDINATE_TYPE>  (1) 
2
5
10

$$$$
