41701
     RDKit          3D

 11 10  0  0  0  0  0  0  0  0999 V2000
   -0.0032    1.2335    1.5833 N   0  0  0  0  0  0  0  0  0  0  0  0
   -0.0079    0.4603    0.3281 C   0  0  0  0  0  0  0  0  0  0  0  0
    1.2445    0.8871   -0.4936 C   0  0  0  0  0  0  0  0  0  0  0  0
   -1.2691    0.8448   -0.5028 C   0  0  0  0  0  0  0  0  0  0  0  0
    0.0174   -1.0414    0.7217 C   0  0  0  0  0  0  0  0  0  0  0  0
    2.6022    0.5923    0.1581 C   0  0  0  0  0  0  0  0  0  0  0  0
   -2.6253    0.5086    0.1308 C   0  0  0  0  0  0  0  0  0  0  0  0
    0.0633   -2.0209   -0.4568 C   0  0  0  0  0  0  0  0  0  0  0  0
    3.7504    0.9930   -0.7575 C   0  0  0  0  0  0  0  0  0  0  0  0
   -3.7745    1.0069   -0.7346 C   0  0  0  0  0  0  0  0  0  0  0  0
    0.0023   -3.4640    0.0235 C   0  0  0  0  0  0  0  0  0  0  0  0
  1  2  1  0
  2  3  1  0
  2  4  1  0
  2  5  1  0
  3  6  1  0
  4  7  1  0
  5  8  1  0
  6  9  1  0
  7 10  1  0
  8 11  1  0
M  END
>  <PUBCHEM_COMPOUND_CID>  (1) 
41701

>  <PUBCHEM_CONFORMER_RMSD>  (1) 
0.6

>  <PUBCHEM_CONFORMER_DIVERSEORDER>  (1) 
1
4
6
5
2
7
3

>  <PUBCHEM_MMFF94_PARTIAL_CHARGES>  (1) 
4
1 -0.99
2 0.27
24 0.36
25 0.36

>  <PUBCHEM_EFFECTIVE_ROTOR_COUNT>  (1) 
6

>  <PUBCHEM_PHARMACOPHORE_FEATURES>  (1) 
5
1 1 cation
1 1 donor
1 10 hydrophobe
1 11 hydrophobe
1 9 hydrophobe

>  <PUBCHEM_HEAVY_ATOM_COUNT>  (1) 
11

>  <PUBCHEM_ATOM_DEF_STEREO_COUNT>  (1) 
0

>  <PUBCHEM_ATOM_UDEF_STEREO_COUNT>  (1) 
0

>  <PUBCHEM_BOND_DEF_STEREO_COUNT>  (1) 
0

>  <PUBCHEM_BOND_UDEF_STEREO_COUNT>  (1) 
0

>  <PUBCHEM_ISOTOPIC_ATOM_COUNT>  (1) 
0

>  <PUBCHEM_COMPONENT_COUNT>  (1) 
1

>  <PUBCHEM_CACTVS_TAUTO_COUNT>  (1) 
1

>  <PUBCHEM_CONFORMER_ID>  (1) 
0000A2E500000001

>  <PUBCHEM_MMFF94_ENERGY>  (1) 
2.6065

>  <PUBCHEM_FEATURE_SELFOVERLAP>  (1) 
25.373

>  <PUBCHEM_SHAPE_FINGERPRINT>  (1) 
1 1 18337103467137667350
10130415 120 10807931587258093637
12138202 97 18339371875953766358
12716758 59 18270678813229700296
18186145 218 18272371987879918768
187816 3 18131073740268085052
19021347 11 18339077073403509047
201361 129 18127701430831779793
20645476 183 18187653556445292726
20645477 70 18119234083770835503
20711985 344 17904751533711294898
21930827 45 18125704927815389840
23402539 116 18342730832463823516
23530152 11 18410568483562628439
23552423 10 17981326686083147465
3060560 45 18335410262381155653
3250762 1 17623280984874557368
366044 4 18408603673378811036
528862 383 18263632970709482931
76951 1 17559936779978771658
81228 2 17689423202323567291
81539 233 18187360978772341647

>  <PUBCHEM_SHAPE_MULTIPOLES>  (1) 
221.39
4.81
2.71
1.01
0.15
4.1
0.24
-3.74
-1.69
-0.04
-0.16
-0.01
-0.27
0.01

>  <PUBCHEM_SHAPE_SELFOVERLAP>  (1) 
396.223

>  <PUBCHEM_SHAPE_VOLUME>  (1) 
145.2

>  <PUBCHEM_COORDINATE_TYPE>  (1) 
2
5
10

$$$$
