41717
     RDKit          3D

 11 10  0  0  1  0  0  0  0  0999 V2000
    1.5744    1.3586    1.1645 N   0  0  0  0  0  0  0  0  0  0  0  0
    0.7292    0.7506    0.1200 C   0  0  0  0  0  0  0  0  0  0  0  0
   -0.5492    0.1511    0.7719 C   0  0  0  0  0  0  0  0  0  0  0  0
    1.6127   -0.3224   -0.5824 C   0  0  0  0  0  0  0  0  0  0  0  0
    0.3481    1.8603   -0.9035 C   0  0  0  0  0  0  0  0  0  0  0  0
   -1.5851   -0.4350   -0.1994 C   0  0  0  0  0  0  0  0  0  0  0  0
    2.0694   -1.4870    0.3054 C   0  0  0  0  0  0  0  0  0  0  0  0
   -2.8301   -0.9161    0.5502 C   0  0  0  0  0  0  0  0  0  0  0  0
   -0.5226    2.9987   -0.3771 C   0  0  0  0  0  0  0  0  0  0  0  0
    2.9993   -2.4242   -0.4527 C   0  0  0  0  0  0  0  0  0  0  0  0
   -3.8460   -1.5346   -0.3969 C   0  0  0  0  0  0  0  0  0  0  0  0
  1  2  1  0
  2  3  1  0
  2  4  1  0
  2  5  1  0
  3  6  1  0
  4  7  1  0
  5  9  1  0
  6  8  1  0
  7 10  1  0
  8 11  1  0
M  END
>  <PUBCHEM_COMPOUND_CID>  (1) 
41717

>  <PUBCHEM_CONFORMER_RMSD>  (1) 
0.6

>  <PUBCHEM_CONFORMER_DIVERSEORDER>  (1) 
16
30
37
10
41
51
47
50
19
35
5
43
3
49
24
45
26
33
38
6
1
7
8
34
21
42
48
23
15
40
46
32
17
22
29
36
2
27
25
44
14
18
12
4
11
31
13
39
28
20
9

>  <PUBCHEM_MMFF94_PARTIAL_CHARGES>  (1) 
4
1 -0.99
2 0.27
22 0.36
23 0.36

>  <PUBCHEM_EFFECTIVE_ROTOR_COUNT>  (1) 
6

>  <PUBCHEM_PHARMACOPHORE_FEATURES>  (1) 
5
1 1 cation
1 1 donor
1 10 hydrophobe
1 11 hydrophobe
1 9 hydrophobe

>  <PUBCHEM_HEAVY_ATOM_COUNT>  (1) 
11

>  <PUBCHEM_ATOM_DEF_STEREO_COUNT>  (1) 
0

>  <PUBCHEM_ATOM_UDEF_STEREO_COUNT>  (1) 
1

>  <PUBCHEM_BOND_DEF_STEREO_COUNT>  (1) 
0

>  <PUBCHEM_BOND_UDEF_STEREO_COUNT>  (1) 
0

>  <PUBCHEM_ISOTOPIC_ATOM_COUNT>  (1) 
0

>  <PUBCHEM_COMPONENT_COUNT>  (1) 
1

>  <PUBCHEM_CACTVS_TAUTO_COUNT>  (1) 
1

>  <PUBCHEM_CONFORMER_ID>  (1) 
0000A2F500000010

>  <PUBCHEM_MMFF94_ENERGY>  (1) 
3.1992

>  <PUBCHEM_FEATURE_SELFOVERLAP>  (1) 
25.373

>  <PUBCHEM_SHAPE_FINGERPRINT>  (1) 
1 1 17904486555566577813
10219947 1 18120647187244417408
11322862 65 17400935097953384071
12138202 97 17543073381439297038
12725867 57 18337106860161909069
15477762 27 18337953523186908983
161256 15 18412259536830376616
20339313 130 18335148613179087827
20645477 70 18264201590663748551
20653085 51 11242267229061904810
20708731 107 18190187973496522703
20711985 344 18044933476525621467
20871998 184 17759541974940656112
20871998 22 18410853248331034114
21524375 3 16745086836118852341
23530152 11 17328592129087094607
23552423 10 18124602139544441007
2748010 2 18336532855189358773
3060560 45 17903642130683906037
3248919 1 18119528988804546411
3250762 1 18268133280703453072
7364860 26 18193841676447610965
81228 2 18116714006402389040

>  <PUBCHEM_SHAPE_MULTIPOLES>  (1) 
221.39
4.73
3.03
0.95
2.9
1.57
-0.08
-5.24
0.42
-0.63
0.59
-0.12
0.19
0.28

>  <PUBCHEM_SHAPE_SELFOVERLAP>  (1) 
396.21

>  <PUBCHEM_SHAPE_VOLUME>  (1) 
144.8

>  <PUBCHEM_COORDINATE_TYPE>  (1) 
2
5
10

$$$$
