41738
     RDKit          3D

 36 40  0  0  1  0  0  0  0  0999 V2000
    0.6535   -0.8472   -1.1068 O   0  0  0  0  0  0  0  0  0  0  0  0
    2.9259   -3.2102    2.1114 O   0  0  0  0  0  0  0  0  0  0  0  0
    1.3964    4.7888    1.8652 O   0  0  0  0  0  0  0  0  0  0  0  0
   -1.9124   -1.5424    1.3383 N   0  0  0  0  0  0  0  0  0  0  0  0
    1.5119   -2.2965    0.4915 N   0  0  0  0  0  0  0  0  0  0  0  0
    3.3993   -1.2309    0.9821 N   0  0  0  0  0  0  0  0  0  0  0  0
   -4.4792   -0.3559    0.5657 C   0  0  0  0  0  0  0  0  0  0  0  0
   -3.1590    0.4283    0.5085 C   0  0  0  0  0  0  0  0  0  0  0  0
   -4.1972   -1.8613    0.4409 C   0  0  0  0  0  0  0  0  0  0  0  0
   -2.1552   -0.1065    1.5332 C   0  0  0  0  0  0  0  0  0  0  0  0
   -3.1559   -2.3143    1.4676 C   0  0  0  0  0  0  0  0  0  0  0  0
   -0.9097   -2.0250    2.2880 C   0  0  0  0  0  0  0  0  0  0  0  0
   -0.2828   -3.3469    1.8359 C   0  0  0  0  0  0  0  0  0  0  0  0
   -5.4809    0.1295   -0.4643 C   0  0  0  0  0  0  0  0  0  0  0  0
    0.4424   -3.2748    0.4935 C   0  0  0  0  0  0  0  0  0  0  0  0
    2.8215   -0.3710   -0.0476 C   0  0  0  0  0  0  0  0  0  0  0  0
    1.5265   -1.1756   -0.3104 C   0  0  0  0  0  0  0  0  0  0  0  0
    2.6333   -2.3538    1.2872 C   0  0  0  0  0  0  0  0  0  0  0  0
    2.4358    1.0211    0.4683 C   0  0  0  0  0  0  0  0  0  0  0  0
    3.7942   -0.3298   -1.2306 C   0  0  0  0  0  0  0  0  0  0  0  0
   -6.3781    1.1469   -0.1391 C   0  0  0  0  0  0  0  0  0  0  0  0
   -5.5048   -0.4410   -1.7370 C   0  0  0  0  0  0  0  0  0  0  0  0
   -7.2994    1.5936   -1.0864 C   0  0  0  0  0  0  0  0  0  0  0  0
   -6.4260    0.0059   -2.6844 C   0  0  0  0  0  0  0  0  0  0  0  0
    1.8042    1.9299   -0.3807 C   0  0  0  0  0  0  0  0  0  0  0  0
    2.7182    1.3783    1.7868 C   0  0  0  0  0  0  0  0  0  0  0  0
    5.0448    0.2706   -1.0845 C   0  0  0  0  0  0  0  0  0  0  0  0
    3.4295   -0.8929   -2.4535 C   0  0  0  0  0  0  0  0  0  0  0  0
   -7.3233    1.0232   -2.3589 C   0  0  0  0  0  0  0  0  0  0  0  0
    1.4550    3.1961    0.0887 C   0  0  0  0  0  0  0  0  0  0  0  0
    2.3689    2.6447    2.2562 C   0  0  0  0  0  0  0  0  0  0  0  0
    5.9306    0.3080   -2.1613 C   0  0  0  0  0  0  0  0  0  0  0  0
    4.3155   -0.8556   -3.5303 C   0  0  0  0  0  0  0  0  0  0  0  0
    1.7376    3.5535    1.4070 C   0  0  0  0  0  0  0  0  0  0  0  0
    5.5660   -0.2551   -3.3841 C   0  0  0  0  0  0  0  0  0  0  0  0
    0.7528    5.6682    0.9441 C   0  0  0  0  0  0  0  0  0  0  0  0
  1 17  2  0
  2 18  2  0
  3 34  1  0
  3 36  1  0
  4 10  1  0
  4 11  1  0
  4 12  1  0
  5 15  1  0
  5 17  1  0
  5 18  1  0
  6 16  1  0
  6 18  1  0
  7  8  1  0
  7  9  1  0
  7 14  1  0
  8 10  1  0
  9 11  1  0
 12 13  1  0
 13 15  1  0
 14 21  2  0
 14 22  1  0
 16 17  1  0
 16 19  1  0
 16 20  1  0
 19 25  2  0
 19 26  1  0
 20 27  2  0
 20 28  1  0
 21 23  1  0
 22 24  2  0
 23 29  2  0
 24 29  1  0
 25 30  1  0
 26 31  2  0
 27 32  1  0
 28 33  2  0
 30 34  2  0
 31 34  1  0
 32 35  2  0
 33 35  1  0
M  END
>  <PUBCHEM_COMPOUND_CID>  (1) 
41738

>  <PUBCHEM_CONFORMER_RMSD>  (1) 
1

>  <PUBCHEM_CONFORMER_DIVERSEORDER>  (1) 
1
161
149
143
158
7
128
95
77
99
188
21
170
25
180
80
98
162
88
81
150
130
144
139
72
197
146
28
142
147
115
119
168
67
63
91
83
93
185
101
96
165
189
76
65
103
156
36
174
159
58
46
34
134
2
193
107
70
169
171
141
35
27
151
137
51
39
29
32
74
172
8
47
181
9
187
104
122
89
56
163
121
184
113
3
37
23
117
10
182
50
155
173
31
79
124
45
108
114
20
166
153
61
140
26
102
126
87
194
125
178
43
97
19
33
157
123
57
145
22
11
176
13
192
18
4
17
6
167
82
62
59
106
14
135
177
54
40
136
109
66
196
191
105
183
44
48
199
152
24
90
15
64
12
160
179
53
38
42
111
116
148
132
138
41
69
129
190
78
198
16
118
112
86
71
186
94
84
52
133
30
68
110
127
73
85
164
60
5
154
92
55
100
75
195
200
175
131
120
49
201

>  <PUBCHEM_MMFF94_PARTIAL_CHARGES>  (1) 
48
1 -0.57
10 0.27
11 0.27
12 0.27
14 -0.14
15 0.3
16 0.65
17 0.57
18 0.69
19 -0.14
2 -0.57
20 -0.14
21 -0.15
22 -0.15
23 -0.15
24 -0.15
25 -0.15
26 -0.15
27 -0.15
28 -0.15
29 -0.15
3 -0.36
30 -0.15
31 -0.15
32 -0.15
33 -0.15
34 0.08
35 -0.15
36 0.28
4 -0.81
5 -0.42
52 0.37
53 0.15
54 0.15
55 0.15
56 0.15
57 0.15
58 0.15
59 0.15
6 -0.73
60 0.15
61 0.15
62 0.15
63 0.15
64 0.15
65 0.15
66 0.15
7 0.14

>  <PUBCHEM_EFFECTIVE_ROTOR_COUNT>  (1) 
9.8

>  <PUBCHEM_PHARMACOPHORE_FEATURES>  (1) 
10
1 1 acceptor
1 2 acceptor
1 3 acceptor
1 4 cation
1 6 donor
5 5 6 16 17 18 rings
6 14 21 22 23 24 29 rings
6 19 25 26 30 31 34 rings
6 20 27 28 32 33 35 rings
6 4 7 8 9 10 11 rings

>  <PUBCHEM_HEAVY_ATOM_COUNT>  (1) 
36

>  <PUBCHEM_ATOM_DEF_STEREO_COUNT>  (1) 
0

>  <PUBCHEM_ATOM_UDEF_STEREO_COUNT>  (1) 
1

>  <PUBCHEM_BOND_DEF_STEREO_COUNT>  (1) 
0

>  <PUBCHEM_BOND_UDEF_STEREO_COUNT>  (1) 
0

>  <PUBCHEM_ISOTOPIC_ATOM_COUNT>  (1) 
0

>  <PUBCHEM_COMPONENT_COUNT>  (1) 
1

>  <PUBCHEM_CACTVS_TAUTO_COUNT>  (1) 
2

>  <PUBCHEM_CONFORMER_ID>  (1) 
0000A30A00000001

>  <PUBCHEM_MMFF94_ENERGY>  (1) 
94.0105

>  <PUBCHEM_FEATURE_SELFOVERLAP>  (1) 
50.748

>  <PUBCHEM_SHAPE_FINGERPRINT>  (1) 
10653451 467 18128812131388160024
10842077 115 17979917438720915857
11093857 51 18113625598762905422
11135609 99 14692565499264425396
11331351 85 17686871961728197307
1200032 147 16515980184925278063
12717326 135 18042111232547498612
12788726 201 18194419800763232000
13726171 33 16805904964620482069
14068700 675 16988287469073181065
14114206 34 18195554530796112192
14347329 18 17603590767646272159
14931854 50 18337118864716664989
15001296 14 18129642211042074845
15238133 3 18040432231057501866
15392192 104 8934418801582683805
15530120 55 17344892226567862701
16067689 391 17838931173007134774
16992828 155 15962860260879072561
20775438 99 16915638471124255111
22393880 68 18339366378427847255
23559900 14 18338237167174923305
3534868 343 17903911159331267331
4066623 53 18195254312935465638
437795 70 18129390310899603017
46194498 28 17841734090102046494
508180 173 18412554218546627811
513532 50 17988634199449203746
57527358 35 15338848504238800946
57724786 102 16515402962759336135
6086070 43 18411980290710038883

>  <PUBCHEM_SHAPE_MULTIPOLES>  (1) 
708.31
15.57
4.93
3.24
27.03
6.07
2.21
2.51
16.17
-3.07
-4.75
-2.45
-0.55
2.73

>  <PUBCHEM_SHAPE_SELFOVERLAP>  (1) 
1534.276

>  <PUBCHEM_SHAPE_VOLUME>  (1) 
386.7

>  <PUBCHEM_COORDINATE_TYPE>  (1) 
2
5
10

$$$$
