41756
     RDKit          3D

 18 17  0  0  1  0  0  0  0  0999 V2000
    6.4667   -3.3148   -0.3789 O   0  0  0  0  0  0  0  0  0  0  0  0
    5.6034    0.0979    0.6873 N   0  0  0  0  0  0  0  0  0  0  0  0
    1.4918    0.8663   -0.6869 C   0  0  0  0  0  0  0  0  0  0  0  0
    0.2824    0.3679    0.1098 C   0  0  0  0  0  0  0  0  0  0  0  0
   -1.0409    0.4945   -0.6485 C   0  0  0  0  0  0  0  0  0  0  0  0
    2.8056    0.8078    0.0990 C   0  0  0  0  0  0  0  0  0  0  0  0
   -2.2214    0.0507    0.2200 C   0  0  0  0  0  0  0  0  0  0  0  0
    3.9816    1.2880   -0.7619 C   0  0  0  0  0  0  0  0  0  0  0  0
   -3.5482    0.2124   -0.5247 C   0  0  0  0  0  0  0  0  0  0  0  0
    5.3482    1.3337   -0.0540 C   0  0  0  0  0  0  0  0  0  0  0  0
   -4.7671   -0.1892    0.3110 C   0  0  0  0  0  0  0  0  0  0  0  0
   -6.1271   -0.0289   -0.3763 C   0  0  0  0  0  0  0  0  0  0  0  0
   -7.3501   -0.3643    0.4826 C   0  0  0  0  0  0  0  0  0  0  0  0
    5.4994    2.5414    0.8690 C   0  0  0  0  0  0  0  0  0  0  0  0
   -8.6746   -0.2327   -0.2694 C   0  0  0  0  0  0  0  0  0  0  0  0
    5.9177   -0.9920   -0.2227 C   0  0  0  0  0  0  0  0  0  0  0  0
    6.1816   -2.2756    0.5481 C   0  0  0  0  0  0  0  0  0  0  0  0
   -9.8488   -0.6631    0.5963 C   0  0  0  0  0  0  0  0  0  0  0  0
  1 17  1  0
  2 10  1  0
  2 16  1  0
  3  4  1  0
  3  6  1  0
  4  5  1  0
  5  7  1  0
  6  8  1  0
  7  9  1  0
  8 10  1  0
  9 11  1  0
 10 14  1  0
 11 12  1  0
 12 13  1  0
 13 15  1  0
 15 18  1  0
 16 17  1  0
M  END
>  <PUBCHEM_COMPOUND_CID>  (1) 
41756

>  <PUBCHEM_CONFORMER_RMSD>  (1) 
1.2

>  <PUBCHEM_CONFORMER_DIVERSEORDER>  (1) 
1
100
45
90
8
15
43
29
2
14
60
19
78
73
61
48
70
38
101
88
53
80
66
32
27
57
71
99
42
26
58
82
74
63
65
64
40
75
12
6
24
13
9
93
39
89
94
3
87
47
25
77
96
97
35
49
50
10
17
4
62
51
34
44
55
86
92
23
98
76
56
37
7
18
95
54
36
41
91
5
20
52
33
67
28
79
22
11
81
69
72
68
30
84
85
83
59
31
46
16
21

>  <PUBCHEM_MMFF94_PARTIAL_CHARGES>  (1) 
7
1 -0.68
10 0.27
16 0.27
17 0.28
2 -0.9
40 0.36
53 0.4

>  <PUBCHEM_EFFECTIVE_ROTOR_COUNT>  (1) 
14

>  <PUBCHEM_PHARMACOPHORE_FEATURES>  (1) 
5
1 1 acceptor
1 1 donor
1 18 hydrophobe
1 2 cation
1 2 donor

>  <PUBCHEM_HEAVY_ATOM_COUNT>  (1) 
18

>  <PUBCHEM_ATOM_DEF_STEREO_COUNT>  (1) 
0

>  <PUBCHEM_ATOM_UDEF_STEREO_COUNT>  (1) 
1

>  <PUBCHEM_BOND_DEF_STEREO_COUNT>  (1) 
0

>  <PUBCHEM_BOND_UDEF_STEREO_COUNT>  (1) 
0

>  <PUBCHEM_ISOTOPIC_ATOM_COUNT>  (1) 
0

>  <PUBCHEM_COMPONENT_COUNT>  (1) 
1

>  <PUBCHEM_CACTVS_TAUTO_COUNT>  (1) 
1

>  <PUBCHEM_CONFORMER_ID>  (1) 
0000A31C00000001

>  <PUBCHEM_MMFF94_ENERGY>  (1) 
-1.8934

>  <PUBCHEM_FEATURE_SELFOVERLAP>  (1) 
25.371

>  <PUBCHEM_SHAPE_FINGERPRINT>  (1) 
10066227 49 18408603626477698699
10666366 153 17822006472129561447
11135609 127 10809636934984644366
11638347 137 18410296913334097851
13533116 47 18413106161305997208
14202775 3 18113624526198091931
14216079 64 18187645778017023698
14251764 18 17775287175504762505
14251764 46 17240480338392222833
15510794 2 17749111114228392674
15716309 27 18343581863454089469
20165401 70 18341890758351977838
20281389 69 18273496788686622825
20397935 70 18410572869393825686
20554085 129 15123506991238323783
20621476 38 18409167684115502870
21150785 3 12035449441498684911
21315763 28 18409730664956751381
21362267 313 17774451482411779811
220451 1 18272369819390523932
22224240 67 18409728508835390671
23521765 1 18341614845947875333
246663 6 17022904558525378833
28498 318 18260265235887737663
328311 84 18113054926621529831
33532 11 18408039606887263247
33684 2 12823305598267972909
34797466 226 17095244743978508788
445580 126 8790594881056485270
5283156 175 18342177761230159585
59682541 35 12895070739571805135
8209 1 16225761948503169117

>  <PUBCHEM_SHAPE_MULTIPOLES>  (1) 
359.58
30.16
2.11
0.85
54.32
1.47
0.01
10.8
4.51
-8.26
0.17
-0.21
-0.12
0.78

>  <PUBCHEM_SHAPE_SELFOVERLAP>  (1) 
645.771

>  <PUBCHEM_SHAPE_VOLUME>  (1) 
232.3

>  <PUBCHEM_COORDINATE_TYPE>  (1) 
2
5
10

$$$$
