41773
     RDKit          3D

 21 23  0  0  1  0  0  0  0  0999 V2000
   -1.4163   -2.1323    0.4961 O   0  0  0  0  0  0  0  0  0  0  0  0
   -0.0225    0.1516   -2.1544 O   0  0  0  0  0  0  0  0  0  0  0  0
    2.2961   -0.1959   -0.2369 N   0  0  0  0  0  0  0  0  0  0  0  0
    4.8449    0.7853    0.7118 N   0  0  0  0  0  0  0  0  0  0  0  0
    0.9194   -0.6453   -0.0397 C   0  0  0  0  0  0  0  0  0  0  0  0
   -0.0557    0.3202   -0.7386 C   0  0  0  0  0  0  0  0  0  0  0  0
    2.4601    1.1932    0.2090 C   0  0  0  0  0  0  0  0  0  0  0  0
    3.2375   -1.0750    0.4674 C   0  0  0  0  0  0  0  0  0  0  0  0
    0.7927   -2.0982   -0.5177 C   0  0  0  0  0  0  0  0  0  0  0  0
    3.9043    1.6648    0.0069 C   0  0  0  0  0  0  0  0  0  0  0  0
    4.6814   -0.6031    0.2640 C   0  0  0  0  0  0  0  0  0  0  0  0
   -1.5007    0.2020   -0.2898 C   0  0  0  0  0  0  0  0  0  0  0  0
   -0.6518   -2.5677   -0.6259 C   0  0  0  0  0  0  0  0  0  0  0  0
   -2.0752   -0.9469    0.2832 C   0  0  0  0  0  0  0  0  0  0  0  0
    6.2217    1.2350    0.5167 C   0  0  0  0  0  0  0  0  0  0  0  0
   -2.3203    1.3366   -0.4520 C   0  0  0  0  0  0  0  0  0  0  0  0
   -3.4021   -0.9291    0.7345 C   0  0  0  0  0  0  0  0  0  0  0  0
   -3.6495    1.3407   -0.0262 C   0  0  0  0  0  0  0  0  0  0  0  0
   -4.1881    0.2093    0.5752 C   0  0  0  0  0  0  0  0  0  0  0  0
   -4.4742    2.5670   -0.2380 C   0  0  0  0  0  0  0  0  0  0  0  0
   -5.6018    0.1879    1.0545 C   0  0  0  0  0  0  0  0  0  0  0  0
  1 13  1  0
  1 14  1  0
  2  6  1  0
  3  5  1  0
  3  7  1  0
  3  8  1  0
  4 10  1  0
  4 11  1  0
  4 15  1  0
  5  6  1  0
  5  9  1  0
  6 12  1  0
  7 10  1  0
  8 11  1  0
  9 13  1  0
 12 14  2  0
 12 16  1  0
 14 17  1  0
 16 18  2  0
 17 19  2  0
 18 19  1  0
 18 20  1  0
 19 21  1  0
M  END
>  <PUBCHEM_COMPOUND_CID>  (1) 
41773

>  <PUBCHEM_CONFORMER_RMSD>  (1) 
0.6

>  <PUBCHEM_CONFORMER_DIVERSEORDER>  (1) 
1
6
9
7
4
3
10
8
2
5

>  <PUBCHEM_MMFF94_PARTIAL_CHARGES>  (1) 
23
1 -0.36
10 0.27
11 0.27
12 -0.14
13 0.28
14 0.08
15 0.27
16 -0.15
17 -0.15
18 -0.14
19 -0.14
2 -0.68
20 0.14
21 0.14
3 -0.81
39 0.15
4 -0.81
40 0.4
41 0.15
5 0.27
6 0.42
7 0.27
8 0.27

>  <PUBCHEM_EFFECTIVE_ROTOR_COUNT>  (1) 
3.2

>  <PUBCHEM_PHARMACOPHORE_FEATURES>  (1) 
8
1 1 acceptor
1 2 acceptor
1 2 donor
1 3 cation
1 4 cation
6 12 14 16 17 18 19 rings
6 3 4 7 8 10 11 rings
7 1 5 6 9 12 13 14 rings

>  <PUBCHEM_HEAVY_ATOM_COUNT>  (1) 
21

>  <PUBCHEM_ATOM_DEF_STEREO_COUNT>  (1) 
2

>  <PUBCHEM_ATOM_UDEF_STEREO_COUNT>  (1) 
0

>  <PUBCHEM_BOND_DEF_STEREO_COUNT>  (1) 
0

>  <PUBCHEM_BOND_UDEF_STEREO_COUNT>  (1) 
0

>  <PUBCHEM_ISOTOPIC_ATOM_COUNT>  (1) 
0

>  <PUBCHEM_COMPONENT_COUNT>  (1) 
1

>  <PUBCHEM_CACTVS_TAUTO_COUNT>  (1) 
1

>  <PUBCHEM_CONFORMER_ID>  (1) 
0000A32D00000001

>  <PUBCHEM_MMFF94_ENERGY>  (1) 
69.3126

>  <PUBCHEM_FEATURE_SELFOVERLAP>  (1) 
40.606

>  <PUBCHEM_SHAPE_FINGERPRINT>  (1) 
10 15 18261388992738268912
10411042 1 17690560110369655351
10493431 412 18409727383042321170
11370993 70 18410291376572503771
12107183 9 17829319190537025008
12251169 10 18259704523111169502
12390115 104 18270696280756587817
12403259 118 17822014198628358525
12403259 415 18338806606649459213
12507560 40 18335704909869334903
12596602 18 16732986469846761425
12633257 1 18339081591730378936
12760667 363 10809335637905486009
12892183 10 17967534536720582363
12969540 114 16845285051347353888
13140716 1 18046637969163231499
13288520 33 8502376637274397449
14178342 30 17749119893590347755
14341114 176 18335707122104735024
14787075 74 18343862238808512923
14790565 3 18118409673278150116
15042514 8 18191031303732785947
15188451 53 16081941472224212275
15196674 1 18409729530188209722
15209294 21 18408602556518437491
15295992 7 17845647174569784784
17980427 23 18186524306696243781
1813 80 16008752385899641030
18222031 100 13334740128496605586
193927 3 12396578486338387112
19784866 170 18408889516221139204
19862831 5 12175621767628411407
20374829 77 9511460013508434353
204376 136 18272651238142451071
20645477 56 18341331171224995256
20871999 31 10159705685387509267
21033648 29 18341037562845030177
21065199 12 18333734585137862083
21236236 1 18272085062980021791
21250096 35 7853573504478566656
21637258 2 13984662594136176723
21756936 100 18201146750451669076
22224240 67 18341897407350774171
22854114 59 18410856551076261297
23227448 37 18343017843257395367
23402539 116 18408880772380017663
23403322 49 9079114466407852089
23559900 14 18126004858335630230
2838139 119 17131829837392613249
293599 30 18272089413892168648
3545911 37 18413392046966207472
4325135 7 17703790358251245799
465052 167 11602833379919852313
474 4 18199183997357168153
474229 33 18411981382116768767
5104073 3 18189343360094193609
59755656 520 15769777965824141301
633830 44 18059011657746356933

>  <PUBCHEM_SHAPE_MULTIPOLES>  (1) 
410.47
11.79
2.33
1.01
6.69
0.42
0.29
-6.62
-4.19
-0.72
0.23
-0.29
0.04
0.61

>  <PUBCHEM_SHAPE_SELFOVERLAP>  (1) 
864.109

>  <PUBCHEM_SHAPE_VOLUME>  (1) 
231.7

>  <PUBCHEM_COORDINATE_TYPE>  (1) 
2
5
10

$$$$
