4177
     RDKit          3D

 24 27  0  0  1  0  0  0  0  0999 V2000
    0.7081   -2.4763   -1.4926 Cl  0  0  0  0  0  0  0  0  0  0  0  0
    4.8427   -0.6336   -1.2067 Cl  0  0  0  0  0  0  0  0  0  0  0  0
   -0.1574    0.2302   -2.0834 O   0  0  0  0  0  0  0  0  0  0  0  0
   -1.7646    1.5875    2.8007 O   0  0  0  0  0  0  0  0  0  0  0  0
   -1.0001    1.6151   -0.3713 N   0  0  0  0  0  0  0  0  0  0  0  0
    0.2379    0.5886    2.3061 N   0  0  0  0  0  0  0  0  0  0  0  0
   -0.3003    0.3335   -0.6386 C   0  0  0  0  0  0  0  0  0  0  0  0
   -0.8089    2.4074   -1.5905 C   0  0  0  0  0  0  0  0  0  0  0  0
   -0.8781    1.3271   -2.6479 C   0  0  0  0  0  0  0  0  0  0  0  0
    1.1047    0.2369    0.0084 C   0  0  0  0  0  0  0  0  0  0  0  0
   -0.6356    2.3461    0.8304 C   0  0  0  0  0  0  0  0  0  0  0  0
   -1.1627   -0.9023   -0.2885 C   0  0  0  0  0  0  0  0  0  0  0  0
   -1.8659    3.4802   -1.8062 C   0  0  0  0  0  0  0  0  0  0  0  0
    1.2734    0.2455    1.4124 C   0  0  0  0  0  0  0  0  0  0  0  0
   -0.7984    1.4626    2.0467 C   0  0  0  0  0  0  0  0  0  0  0  0
    2.2428   -0.0184   -0.7836 C   0  0  0  0  0  0  0  0  0  0  0  0
   -0.7667   -2.1888   -0.6434 C   0  0  0  0  0  0  0  0  0  0  0  0
   -2.3573   -0.6972    0.3968 C   0  0  0  0  0  0  0  0  0  0  0  0
    2.5039   -0.1089    1.9845 C   0  0  0  0  0  0  0  0  0  0  0  0
    3.4794   -0.3133   -0.2051 C   0  0  0  0  0  0  0  0  0  0  0  0
    3.6051   -0.3784    1.1771 C   0  0  0  0  0  0  0  0  0  0  0  0
   -1.5712   -3.2787   -0.3106 C   0  0  0  0  0  0  0  0  0  0  0  0
   -3.1618   -1.7870    0.7296 C   0  0  0  0  0  0  0  0  0  0  0  0
   -2.7688   -3.0778    0.3759 C   0  0  0  0  0  0  0  0  0  0  0  0
  1 17  1  0
  2 20  1  0
  3  7  1  0
  3  9  1  0
  4 15  2  0
  5  7  1  0
  5  8  1  0
  5 11  1  0
  6 14  1  0
  6 15  1  0
  7 10  1  0
  7 12  1  0
  8  9  1  0
  8 13  1  0
 10 14  2  0
 10 16  1  0
 11 15  1  0
 12 17  2  0
 12 18  1  0
 14 19  1  0
 16 20  2  0
 17 22  1  0
 18 23  2  0
 19 21  2  0
 20 21  1  0
 22 24  2  0
 23 24  1  0
M  END
>  <PUBCHEM_COMPOUND_CID>  (1) 
4177

>  <PUBCHEM_CONFORMER_RMSD>  (1) 
0.6

>  <PUBCHEM_CONFORMER_DIVERSEORDER>  (1) 
1
11
12
6
8
7
3
10
2
5
4
9

>  <PUBCHEM_MMFF94_PARTIAL_CHARGES>  (1) 
31
1 -0.18
10 -0.14
11 0.33
12 -0.14
14 0.12
15 0.57
16 -0.15
17 0.18
18 -0.15
19 -0.15
2 -0.18
20 0.18
21 -0.15
22 -0.15
23 -0.15
24 -0.15
3 -0.56
33 0.15
34 0.37
35 0.15
36 0.15
37 0.15
38 0.15
39 0.15
4 -0.57
40 0.15
5 -0.81
6 -0.55
7 0.84
8 0.27
9 0.28

>  <PUBCHEM_EFFECTIVE_ROTOR_COUNT>  (1) 
2

>  <PUBCHEM_PHARMACOPHORE_FEATURES>  (1) 
8
1 3 acceptor
1 4 acceptor
1 5 cation
1 6 donor
5 3 5 7 8 9 rings
6 10 14 16 19 20 21 rings
6 12 17 18 22 23 24 rings
7 5 6 7 10 11 14 15 rings

>  <PUBCHEM_HEAVY_ATOM_COUNT>  (1) 
24

>  <PUBCHEM_ATOM_DEF_STEREO_COUNT>  (1) 
0

>  <PUBCHEM_ATOM_UDEF_STEREO_COUNT>  (1) 
2

>  <PUBCHEM_BOND_DEF_STEREO_COUNT>  (1) 
0

>  <PUBCHEM_BOND_UDEF_STEREO_COUNT>  (1) 
0

>  <PUBCHEM_ISOTOPIC_ATOM_COUNT>  (1) 
0

>  <PUBCHEM_COMPONENT_COUNT>  (1) 
1

>  <PUBCHEM_CACTVS_TAUTO_COUNT>  (1) 
2

>  <PUBCHEM_CONFORMER_ID>  (1) 
0000105100000001

>  <PUBCHEM_MMFF94_ENERGY>  (1) 
89.9664

>  <PUBCHEM_FEATURE_SELFOVERLAP>  (1) 
40.647

>  <PUBCHEM_SHAPE_FINGERPRINT>  (1) 
10165383 225 17476402350726831300
10764073 3 16627190241209088610
107951 10 17270065825457767120
10863032 1 17983588673279814097
11578080 2 18119227692074307765
11582403 64 16662889103198677541
12423570 1 12469796176649198837
12553582 1 17969777664853313674
12714826 92 18338505422152424458
12788726 201 17894624842403059242
13009979 54 17981074064512576315
14617773 55 16733525149081936728
14787075 74 16835193493157059895
14817 1 12580436217800246385
15163728 17 17613719211148378932
15852999 172 17979892944400677950
16752209 62 18189875574544414318
16945 1 18262220179808710015
17980427 26 16905271936237487737
1813 80 18117840121215962250
19765921 60 17550910773162753757
20600515 1 18266194991821506071
21330990 113 18272385147675349610
22112679 90 18044969923554921797
22907989 373 18409445865179163860
23419403 2 17336704231593390743
238 59 17255397116287988853
3052486 1 17196064501220848179
35225 105 18339911619898577018
394222 165 17181970029051859017
427121 178 17054755090609152217
4340502 62 17626971697959704081
497634 4 18127716949086508868
5845 1 13953612063444801231
6786 2 17757834420592887245
70251023 43 17967823790241703374
8509985 295 17914067644726785195

>  <PUBCHEM_SHAPE_MULTIPOLES>  (1) 
475.95
5.02
3.57
2.52
6.04
0.13
0.61
-2.72
0.08
-4
-1.46
-0.08
1.52
0.71

>  <PUBCHEM_SHAPE_SELFOVERLAP>  (1) 
1034.429

>  <PUBCHEM_SHAPE_VOLUME>  (1) 
258.8

>  <PUBCHEM_COORDINATE_TYPE>  (1) 
2
5
10

$$$$
