41777
     RDKit          3D

 16 16  0  0  1  0  0  0  0  0999 V2000
    5.2233   -0.2029   -0.0442 Cl  0  0  0  0  0  0  0  0  0  0  0  0
   -1.6838    0.2124   -0.7798 P   0  0  0  0  0  0  0  0  0  0  0  0
   -0.5475    0.8590    0.1733 O   0  0  0  0  0  0  0  0  0  0  0  0
   -1.5477   -1.4232    1.1312 O   0  0  0  0  0  0  0  0  0  0  0  0
   -1.6132   -1.4671   -0.2353 N   0  0  0  0  0  0  0  0  0  0  0  0
   -3.0699    0.9888   -0.1205 N   0  0  0  0  0  0  0  0  0  0  0  0
   -0.4244   -2.2132   -0.7724 C   0  0  0  0  0  0  0  0  0  0  0  0
   -2.8742   -2.1937   -0.6186 C   0  0  0  0  0  0  0  0  0  0  0  0
   -3.2419    2.3956   -0.5008 C   0  0  0  0  0  0  0  0  0  0  0  0
   -3.1986    0.8821    1.3393 C   0  0  0  0  0  0  0  0  0  0  0  0
    0.8018    0.6108    0.1225 C   0  0  0  0  0  0  0  0  0  0  0  0
    1.5075    0.8935   -1.0398 C   0  0  0  0  0  0  0  0  0  0  0  0
    1.4436    0.0802    1.2342 C   0  0  0  0  0  0  0  0  0  0  0  0
    2.8783    0.6411   -1.0915 C   0  0  0  0  0  0  0  0  0  0  0  0
    2.8145   -0.1720    1.1827 C   0  0  0  0  0  0  0  0  0  0  0  0
    3.5321    0.1085    0.0197 C   0  0  0  0  0  0  0  0  0  0  0  0
  1 16  1  0
  2  3  1  0
  2  5  1  0
  2  6  1  0
  3 11  1  0
  4  5  1  0
  5  7  1  0
  5  8  1  0
  6  9  1  0
  6 10  1  0
 11 12  2  0
 11 13  1  0
 12 14  1  0
 13 15  2  0
 14 16  2  0
 15 16  1  0
M  CHG  2   4  -1   5   1
M  END
>  <PUBCHEM_COMPOUND_CID>  (1) 
41777

>  <PUBCHEM_CONFORMER_RMSD>  (1) 
0.6

>  <PUBCHEM_CONFORMER_DIVERSEORDER>  (1) 
2
14
13
1
8
12
11
9
15
16
5
3
4
10
7
6

>  <PUBCHEM_MMFF94_PARTIAL_CHARGES>  (1) 
20
1 -0.18
10 0.27
11 0.08
12 -0.15
13 -0.15
14 -0.15
15 -0.15
16 0.18
2 0.21
29 0.15
3 -0.18
30 0.15
31 0.15
32 0.15
4 -0.75
5 0.24
6 -0.65
7 0.26
8 0.26
9 0.27

>  <PUBCHEM_EFFECTIVE_ROTOR_COUNT>  (1) 
4

>  <PUBCHEM_PHARMACOPHORE_FEATURES>  (1) 
2
1 4 anion
6 11 12 13 14 15 16 rings

>  <PUBCHEM_HEAVY_ATOM_COUNT>  (1) 
16

>  <PUBCHEM_ATOM_DEF_STEREO_COUNT>  (1) 
0

>  <PUBCHEM_ATOM_UDEF_STEREO_COUNT>  (1) 
1

>  <PUBCHEM_BOND_DEF_STEREO_COUNT>  (1) 
0

>  <PUBCHEM_BOND_UDEF_STEREO_COUNT>  (1) 
0

>  <PUBCHEM_ISOTOPIC_ATOM_COUNT>  (1) 
0

>  <PUBCHEM_COMPONENT_COUNT>  (1) 
1

>  <PUBCHEM_CACTVS_TAUTO_COUNT>  (1) 
1

>  <PUBCHEM_CONFORMER_ID>  (1) 
0000A33100000002

>  <PUBCHEM_MMFF94_ENERGY>  (1) 
55.5042

>  <PUBCHEM_FEATURE_SELFOVERLAP>  (1) 
10.148

>  <PUBCHEM_SHAPE_FINGERPRINT>  (1) 
12346177 29 18201712968321210959
124424 183 17275383188364945712
12500047 106 18271800207768525390
12932764 1 17894620466206275340
13221675 6 17603867775946659092
13296908 3 17775283915081123048
13760787 5 16515398565561339056
14251751 93 18333734593796394211
15309172 13 18338240371130601849
15375358 24 17418091001689097524
15375462 189 17821723932074865928
15775835 57 18334573516709967729
15852999 172 17988645151141107167
15906896 17 18260832609525812939
16752209 62 18339626945556326807
16945 1 18337662036235080533
18186145 218 17774997955926804289
19422 9 18114466763881210214
20279233 1 17346602975964545484
20510252 161 18129658741743364827
20524608 308 18272925042492057575
20600515 1 17988936543693949344
20645476 183 18260265230975819099
20871999 31 18411135874712174254
21524375 3 18262797359558657581
23402539 116 18200867392271785037
23419403 2 16556474241100200747
23526113 38 17203049578063732372
23557571 272 18201157784207003696
23559900 14 18060701663933881406
23598291 2 17968383441433421204
312423 11 18117569628449184404
465052 167 17970369185704122371
53748568 43 18040711463581054002
58051976 100 18334576862526317310
59755656 520 17917150494952595357
6049 1 17774434026746999072
633830 44 17240210932674183500
6992083 37 18187085052772331205
74978 22 18340763831620188856
77492 1 17967809466172252420
81228 2 18126277791012311587
90525 40 18260546701715357447

>  <PUBCHEM_SHAPE_MULTIPOLES>  (1) 
313.29
7.62
2.07
1.25
5.93
0.76
-0.23
-1.28
-0.16
-2.87
0.5
0.02
-0.07
-0.34

>  <PUBCHEM_SHAPE_SELFOVERLAP>  (1) 
603.933

>  <PUBCHEM_SHAPE_VOLUME>  (1) 
194.9

>  <PUBCHEM_COORDINATE_TYPE>  (1) 
2
5
10

$$$$
