41779
     RDKit          3D

 18 18  0  0  0  0  0  0  0  0999 V2000
   -3.6738    0.3225   -0.5935 N   0  0  0  0  0  0  0  0  0  0  0  0
   -1.3097    2.0229   -0.3222 N   0  0  0  0  0  0  0  0  0  0  0  0
   -2.3265   -2.2959   -0.4338 N   0  0  0  0  0  0  0  0  0  0  0  0
    2.3267    2.2959    0.4334 N   0  0  0  0  0  0  0  0  0  0  0  0
    1.3097   -2.0232    0.3230 N   0  0  0  0  0  0  0  0  0  0  0  0
    3.6740   -0.3224    0.5930 N   0  0  0  0  0  0  0  0  0  0  0  0
   -3.7647    1.7578   -0.3111 C   0  0  0  0  0  0  0  0  0  0  0  0
   -3.7815   -0.5064    0.6086 C   0  0  0  0  0  0  0  0  0  0  0  0
   -2.5374    2.3341    0.4097 C   0  0  0  0  0  0  0  0  0  0  0  0
   -3.5750   -1.9909    0.2727 C   0  0  0  0  0  0  0  0  0  0  0  0
   -0.1180    2.4191    0.4265 C   0  0  0  0  0  0  0  0  0  0  0  0
   -1.1314   -2.0208    0.3660 C   0  0  0  0  0  0  0  0  0  0  0  0
    1.1313    2.0209   -0.3657 C   0  0  0  0  0  0  0  0  0  0  0  0
    0.1181   -2.4191   -0.4258 C   0  0  0  0  0  0  0  0  0  0  0  0
    3.5748    1.9909   -0.2736 C   0  0  0  0  0  0  0  0  0  0  0  0
    2.5373   -2.3343   -0.4092 C   0  0  0  0  0  0  0  0  0  0  0  0
    3.7811    0.5063   -0.6093 C   0  0  0  0  0  0  0  0  0  0  0  0
    3.7649   -1.7576    0.3110 C   0  0  0  0  0  0  0  0  0  0  0  0
  1  7  1  0
  1  8  1  0
  2  9  1  0
  2 11  1  0
  3 10  1  0
  3 12  1  0
  4 13  1  0
  4 15  1  0
  5 14  1  0
  5 16  1  0
  6 17  1  0
  6 18  1  0
  7  9  1  0
  8 10  1  0
 11 13  1  0
 12 14  1  0
 15 17  1  0
 16 18  1  0
M  END
>  <PUBCHEM_COMPOUND_CID>  (1) 
41779

>  <PUBCHEM_CONFORMER_RMSD>  (1) 
0.6

>  <PUBCHEM_CONFORMER_DIVERSEORDER>  (1) 
1
28
5
29
25
4
30
7
20
24
8
11
3
27
14
18
13
17
2
10
16
21
15
26
19
22
12
6
9
23

>  <PUBCHEM_MMFF94_PARTIAL_CHARGES>  (1) 
24
1 -0.9
10 0.27
11 0.27
12 0.27
13 0.27
14 0.27
15 0.27
16 0.27
17 0.27
18 0.27
2 -0.9
3 -0.9
4 -0.9
43 0.36
44 0.36
45 0.36
46 0.36
47 0.36
48 0.36
5 -0.9
6 -0.9
7 0.27
8 0.27
9 0.27

>  <PUBCHEM_EFFECTIVE_ROTOR_COUNT>  (1) 
3.6

>  <PUBCHEM_PHARMACOPHORE_FEATURES>  (1) 
12
1 1 cation
1 1 donor
1 2 cation
1 2 donor
1 3 cation
1 3 donor
1 4 cation
1 4 donor
1 5 cation
1 5 donor
1 6 cation
1 6 donor

>  <PUBCHEM_HEAVY_ATOM_COUNT>  (1) 
18

>  <PUBCHEM_ATOM_DEF_STEREO_COUNT>  (1) 
0

>  <PUBCHEM_ATOM_UDEF_STEREO_COUNT>  (1) 
0

>  <PUBCHEM_BOND_DEF_STEREO_COUNT>  (1) 
0

>  <PUBCHEM_BOND_UDEF_STEREO_COUNT>  (1) 
0

>  <PUBCHEM_ISOTOPIC_ATOM_COUNT>  (1) 
0

>  <PUBCHEM_COMPONENT_COUNT>  (1) 
1

>  <PUBCHEM_CACTVS_TAUTO_COUNT>  (1) 
1

>  <PUBCHEM_CONFORMER_ID>  (1) 
0000A33300000001

>  <PUBCHEM_MMFF94_ENERGY>  (1) 
1.8269

>  <PUBCHEM_FEATURE_SELFOVERLAP>  (1) 
60.916

>  <PUBCHEM_SHAPE_FINGERPRINT>  (1) 
10616163 171 18410578421889844596
10759866 29 18114753719547453100
11458722 379 18338523048339420340
12038231 1 18410293583916564484
12596599 1 17557997134161711668
13122387 1 18339083661804044295
14117953 113 17112403421113381541
14251705 54 18410013255733129681
14251745 187 18411693262255692480
14617045 38 18337685207831607773
14765038 42 17912111591306564449
15006816 218 18411703205194685693
15196674 1 18409449184756236293
17834072 32 18267304218997419611
17834074 16 18410575088958487972
19930381 70 17041758162968428507
20621476 13 18049437050510003055
20621476 7 18339090409503926979
20905425 154 18341057414162207911
21249577 28 18409450293026616714
21249577 43 18410293614002441063
21673915 165 18411138077819725088
23227448 37 18412544289062663919
3014063 31 18339360867720471359
338550 245 18334021596275040076
3680242 22 18046909277503901571
6433294 58 18411982477059070648
6438754 60 17123922386611543671

>  <PUBCHEM_SHAPE_MULTIPOLES>  (1) 
340.55
8.4
4.2
0.77
0
0
0
0
0
0
0
0
0
0

>  <PUBCHEM_SHAPE_SELFOVERLAP>  (1) 
628.295

>  <PUBCHEM_SHAPE_VOLUME>  (1) 
206.3

>  <PUBCHEM_COORDINATE_TYPE>  (1) 
2
5
10

$$$$
