41785
     RDKit          3D

 25 26  0  0  1  0  0  0  0  0999 V2000
    1.7412    3.4521    0.3939 Cl  0  0  0  0  0  0  0  0  0  0  0  0
    4.8165   -0.9170    0.1583 O   0  0  0  0  0  0  0  0  0  0  0  0
    0.9233   -2.3033   -0.5281 O   0  0  0  0  0  0  0  0  0  0  0  0
    3.3754   -2.6628    0.2045 O   0  0  0  0  0  0  0  0  0  0  0  0
   -1.4222   -1.5707   -1.3929 O   0  0  0  0  0  0  0  0  0  0  0  0
   -3.3555    1.2059   -2.2948 O   0  0  0  0  0  0  0  0  0  0  0  0
   -5.3668    0.1840   -2.0810 O   0  0  0  0  0  0  0  0  0  0  0  0
   -4.3425    0.5758    3.1780 O   0  0  0  0  0  0  0  0  0  0  0  0
   -3.5617   -1.3695    2.3060 O   0  0  0  0  0  0  0  0  0  0  0  0
   -2.3130    0.1807   -0.1616 N   0  0  0  0  0  0  0  0  0  0  0  0
    4.0376    1.3559    0.5144 C   0  0  0  0  0  0  0  0  0  0  0  0
    5.0327    0.4635   -0.2128 C   0  0  0  0  0  0  0  0  0  0  0  0
    2.6599    0.8693    0.1806 C   0  0  0  0  0  0  0  0  0  0  0  0
    2.4462   -0.4998   -0.0214 C   0  0  0  0  0  0  0  0  0  0  0  0
    1.1639   -0.9776   -0.3107 C   0  0  0  0  0  0  0  0  0  0  0  0
    1.5783    1.7538    0.1081 C   0  0  0  0  0  0  0  0  0  0  0  0
    0.0947   -0.0856   -0.3967 C   0  0  0  0  0  0  0  0  0  0  0  0
    3.5692   -1.4577    0.1132 C   0  0  0  0  0  0  0  0  0  0  0  0
    6.4668    0.8191    0.1521 C   0  0  0  0  0  0  0  0  0  0  0  0
    0.3006    1.2770   -0.1853 C   0  0  0  0  0  0  0  0  0  0  0  0
   -3.7020   -0.1691   -0.3533 C   0  0  0  0  0  0  0  0  0  0  0  0
   -1.2516   -0.5529   -0.7011 C   0  0  0  0  0  0  0  0  0  0  0  0
   -4.5557    0.2970    0.8293 C   0  0  0  0  0  0  0  0  0  0  0  0
   -4.2426    0.4106   -1.6501 C   0  0  0  0  0  0  0  0  0  0  0  0
   -4.0928   -0.2787    2.1512 C   0  0  0  0  0  0  0  0  0  0  0  0
  1 16  1  0
  2 12  1  0
  2 18  1  0
  3 15  1  0
  4 18  2  0
  5 22  2  0
  6 24  1  0
  7 24  2  0
  8 25  1  0
  9 25  2  0
 10 21  1  0
 10 22  1  0
 11 12  1  0
 11 13  1  0
 12 19  1  0
 13 14  2  0
 13 16  1  0
 14 15  1  0
 14 18  1  0
 15 17  2  0
 16 20  2  0
 17 20  1  0
 17 22  1  0
 21 23  1  0
 21 24  1  0
 23 25  1  0
M  END
>  <PUBCHEM_COMPOUND_CID>  (1) 
41785

>  <PUBCHEM_CONFORMER_RMSD>  (1) 
0.8

>  <PUBCHEM_CONFORMER_DIVERSEORDER>  (1) 
6
102
81
117
49
48
61
90
54
25
105
3
84
96
38
28
66
18
45
97
88
126
12
98
4
79
14
77
51
75
52
43
110
35
11
100
89
32
78
94
71
20
80
17
82
47
19
58
111
70
21
39
36
30
60
83
104
57
64
107
15
24
7
55
95
31
109
91
1
116
62
41
73
85
92
34
86
10
16
65
69
50
5
40
33
67
124
93
8
44
37
9
68
74
103
22
72
27
56
87
76
2
23
29
26
63
99
101
119
46
42
113
59
13
120
115
121
53
125
106
108
112
123
122
114
118

>  <PUBCHEM_MMFF94_PARTIAL_CHARGES>  (1) 
29
1 -0.18
10 -0.73
11 0.14
12 0.28
13 -0.14
14 0.09
15 0.08
16 0.18
17 0.09
18 0.63
2 -0.43
20 -0.15
21 0.36
22 0.54
23 0.06
24 0.66
25 0.66
3 -0.53
32 0.15
34 0.37
37 0.45
38 0.5
39 0.5
4 -0.57
5 -0.57
6 -0.65
7 -0.57
8 -0.65
9 -0.57

>  <PUBCHEM_EFFECTIVE_ROTOR_COUNT>  (1) 
6.6

>  <PUBCHEM_PHARMACOPHORE_FEATURES>  (1) 
12
1 10 donor
1 3 donor
1 4 acceptor
1 5 acceptor
1 6 acceptor
1 7 acceptor
1 8 acceptor
1 9 acceptor
3 6 7 24 anion
3 8 9 25 anion
6 13 14 15 16 17 20 rings
6 2 11 12 13 14 18 rings

>  <PUBCHEM_HEAVY_ATOM_COUNT>  (1) 
25

>  <PUBCHEM_ATOM_DEF_STEREO_COUNT>  (1) 
0

>  <PUBCHEM_ATOM_UDEF_STEREO_COUNT>  (1) 
2

>  <PUBCHEM_BOND_DEF_STEREO_COUNT>  (1) 
0

>  <PUBCHEM_BOND_UDEF_STEREO_COUNT>  (1) 
0

>  <PUBCHEM_ISOTOPIC_ATOM_COUNT>  (1) 
0

>  <PUBCHEM_COMPONENT_COUNT>  (1) 
1

>  <PUBCHEM_CACTVS_TAUTO_COUNT>  (1) 
22

>  <PUBCHEM_CONFORMER_ID>  (1) 
0000A33900000006

>  <PUBCHEM_MMFF94_ENERGY>  (1) 
66.3227

>  <PUBCHEM_FEATURE_SELFOVERLAP>  (1) 
61.043

>  <PUBCHEM_SHAPE_FINGERPRINT>  (1) 
10366900 7 17895461571337495909
11089746 13 17346877879857636208
11370993 144 18188781548169831761
11545043 162 17168145667271056329
11552529 35 18126858315956688355
11796584 16 16660918873188509202
12166972 35 17845641660074785097
12236239 1 17489866037796025228
12644460 14 18411136922800557426
12670546 56 17489298707203062256
13140716 1 18124879212237721744
13583140 156 18186798101949512555
13675066 3 18040996249924782886
14294032 229 16128107646582485849
14790565 3 18267871756187604644
15081414 286 18341900688737573012
15475509 8 17630636503781216348
15961568 22 14835251394827640834
1601671 61 18343017809609709428
17349148 13 17417805166998698551
17844677 252 16877667880635732940
17980427 23 17060342963083624120
18785283 64 17898021363193147916
20554085 129 16734083693195699205
20645477 70 18339067199453349270
20739085 24 18198644175923851224
21033648 29 18187630423688555117
21623969 137 18333739022129417706
21641784 216 18189065226671468700
21792961 116 18186522069429465670
23557571 272 17095241432363570501
23559900 14 18199168741390739692
23569943 247 17773886281664433270
335352 9 18340759430169929692
34934 24 18341315774284405422
350125 39 18196087974313537175
4340502 62 17022899047982209202
5104073 3 18262798437569010872
5895379 119 14835861598032130640
602551 16 16298391291874829330
7495541 125 16733270153000865556

>  <PUBCHEM_SHAPE_MULTIPOLES>  (1) 
464.42
12.5
2.3
1.87
0.78
0.61
0.85
0.83
1.4
2.54
0.11
-5
0.14
0.25

>  <PUBCHEM_SHAPE_SELFOVERLAP>  (1) 
984

>  <PUBCHEM_SHAPE_VOLUME>  (1) 
258.3

>  <PUBCHEM_COORDINATE_TYPE>  (1) 
2
5
10

$$$$
