41784
     RDKit          3D

 14 14  0  0  0  0  0  0  0  0999 V2000
   -3.4179    1.4204    0.4076 O   0  0  0  0  0  0  0  0  0  0  0  0
    3.8274    1.5370   -0.0837 O   0  0  0  0  0  0  0  0  0  0  0  0
    4.1764   -0.5019   -0.8314 O   0  0  0  0  0  0  0  0  0  0  0  0
   -2.8507   -0.7725   -0.1325 N   0  0  0  0  0  0  0  0  0  0  0  0
    3.4328    0.3705   -0.3222 N   0  0  0  0  0  0  0  0  0  0  0  0
   -0.5382   -0.6561    0.6246 C   0  0  0  0  0  0  0  0  0  0  0  0
   -1.9450   -1.0194    0.9608 C   0  0  0  0  0  0  0  0  0  0  0  0
   -0.0717    0.6336    0.8788 C   0  0  0  0  0  0  0  0  0  0  0  0
    0.3111   -1.6058    0.0568 C   0  0  0  0  0  0  0  0  0  0  0  0
    2.0935    0.0241   -0.0029 C   0  0  0  0  0  0  0  0  0  0  0  0
    1.2442    0.9737    0.5649 C   0  0  0  0  0  0  0  0  0  0  0  0
    1.6271   -1.2656   -0.2569 C   0  0  0  0  0  0  0  0  0  0  0  0
   -3.5124    0.4322   -0.3158 C   0  0  0  0  0  0  0  0  0  0  0  0
   -4.3766    0.4299   -1.5482 C   0  0  0  0  0  0  0  0  0  0  0  0
  1 13  2  0
  2  5  1  0
  3  5  2  0
  4  7  1  0
  4 13  1  0
  5 10  1  0
  6  7  1  0
  6  8  2  0
  6  9  1  0
  8 11  1  0
  9 12  2  0
 10 11  2  0
 10 12  1  0
 13 14  1  0
M  CHG  2   2  -1   5   1
M  END
>  <PUBCHEM_COMPOUND_CID>  (1) 
41784

>  <PUBCHEM_CONFORMER_RMSD>  (1) 
0.6

>  <PUBCHEM_CONFORMER_DIVERSEORDER>  (1) 
2
5
3
4
1
6

>  <PUBCHEM_MMFF94_PARTIAL_CHARGES>  (1) 
19
1 -0.57
10 0.13
11 -0.15
12 -0.15
13 0.57
14 0.06
17 0.15
18 0.15
19 0.37
2 -0.52
20 0.15
21 0.15
3 -0.52
4 -0.73
5 0.91
6 -0.14
7 0.44
8 -0.15
9 -0.15

>  <PUBCHEM_EFFECTIVE_ROTOR_COUNT>  (1) 
4

>  <PUBCHEM_PHARMACOPHORE_FEATURES>  (1) 
6
1 1 acceptor
1 2 acceptor
1 2 anion
1 3 acceptor
1 4 donor
6 6 8 9 10 11 12 rings

>  <PUBCHEM_HEAVY_ATOM_COUNT>  (1) 
14

>  <PUBCHEM_ATOM_DEF_STEREO_COUNT>  (1) 
0

>  <PUBCHEM_ATOM_UDEF_STEREO_COUNT>  (1) 
0

>  <PUBCHEM_BOND_DEF_STEREO_COUNT>  (1) 
0

>  <PUBCHEM_BOND_UDEF_STEREO_COUNT>  (1) 
0

>  <PUBCHEM_ISOTOPIC_ATOM_COUNT>  (1) 
0

>  <PUBCHEM_COMPONENT_COUNT>  (1) 
1

>  <PUBCHEM_CACTVS_TAUTO_COUNT>  (1) 
2

>  <PUBCHEM_CONFORMER_ID>  (1) 
0000A33800000002

>  <PUBCHEM_MMFF94_ENERGY>  (1) 
31.8929

>  <PUBCHEM_FEATURE_SELFOVERLAP>  (1) 
30.526

>  <PUBCHEM_SHAPE_FINGERPRINT>  (1) 
10498660 4 17750220440553038797
11401426 45 18201716258677661610
11543360 7 15554449634415580480
11769659 78 13326589414413712036
12138202 97 18259703428095449955
12251169 10 10665230328628781819
13705890 14 16200426987683354054
14252887 29 8286207170986337148
14911166 2 18344149198057514326
14943859 89 17458344147613671713
14993402 34 17203611505651465478
15775835 57 16732975415001367469
16945 1 17989213663225097050
18186145 218 18334018271933052646
19026448 5 15051748485964243122
200 152 17561367257802567906
20281407 28 11240007749566970066
20645477 70 18272661129784657734
20671657 53 15769772463865403355
21256008 61 16845285068437487393
22485316 2 11240006628564687975
22926399 65 17967531268255614669
231179 274 17603858988322200357
23402539 116 17489594428860346728
23402655 69 18271800165198998373
23557571 272 17749685051151489127
23559900 14 18342181085877640562
25 1 18336548226967098947
2748010 2 17841155768386287330
305870 269 16805595928796298283
4028521 119 18187636982330131829

>  <PUBCHEM_SHAPE_MULTIPOLES>  (1) 
260.54
7.73
1.47
1.03
1.28
0.08
-0.13
-2.65
-3.26
-0.24
0.12
0.66
-0.04
0.41

>  <PUBCHEM_SHAPE_SELFOVERLAP>  (1) 
537.206

>  <PUBCHEM_SHAPE_VOLUME>  (1) 
150.3

>  <PUBCHEM_COORDINATE_TYPE>  (1) 
2
5
10

$$$$
