41805
     RDKit          3D

 25 28  0  0  1  0  0  0  0  0999 V2000
   -3.6813    3.8470   -0.9941 O   0  0  0  0  0  0  0  0  0  0  0  0
    3.7377   -1.9271   -0.4964 O   0  0  0  0  0  0  0  0  0  0  0  0
   -0.2451   -1.4239    0.7761 N   0  0  0  0  0  0  0  0  0  0  0  0
   -2.4301   -0.8078   -0.0271 C   0  0  0  0  0  0  0  0  0  0  0  0
   -1.1633   -2.5541    0.9378 C   0  0  0  0  0  0  0  0  0  0  0  0
   -2.4719   -1.8004    1.1495 C   0  0  0  0  0  0  0  0  0  0  0  0
   -0.9392   -0.3661    0.0281 C   0  0  0  0  0  0  0  0  0  0  0  0
   -2.7147   -1.6251   -1.3216 C   0  0  0  0  0  0  0  0  0  0  0  0
   -1.3070   -3.4877   -0.2782 C   0  0  0  0  0  0  0  0  0  0  0  0
   -1.7147   -2.7609   -1.5621 C   0  0  0  0  0  0  0  0  0  0  0  0
   -3.4124    0.3510    0.0590 C   0  0  0  0  0  0  0  0  0  0  0  0
    1.0866   -1.7308    0.2960 C   0  0  0  0  0  0  0  0  0  0  0  0
   -3.0931    1.5841   -0.5134 C   0  0  0  0  0  0  0  0  0  0  0  0
   -4.6366    0.1848    0.7102 C   0  0  0  0  0  0  0  0  0  0  0  0
    2.0066   -0.5154    0.4105 C   0  0  0  0  0  0  0  0  0  0  0  0
   -3.9941    2.6463   -0.4350 C   0  0  0  0  0  0  0  0  0  0  0  0
   -5.5374    1.2468    0.7886 C   0  0  0  0  0  0  0  0  0  0  0  0
    3.4193   -0.8211   -0.0653 C   0  0  0  0  0  0  0  0  0  0  0  0
   -5.2162    2.4775    0.2159 C   0  0  0  0  0  0  0  0  0  0  0  0
    4.4467    0.2601   -0.0034 C   0  0  0  0  0  0  0  0  0  0  0  0
    4.0767    1.4933    0.4822 C   0  0  0  0  0  0  0  0  0  0  0  0
    5.7236   -0.0188   -0.4337 C   0  0  0  0  0  0  0  0  0  0  0  0
    5.0366    2.5037    0.5403 C   0  0  0  0  0  0  0  0  0  0  0  0
    6.6834    0.9916   -0.3754 C   0  0  0  0  0  0  0  0  0  0  0  0
    6.3399    2.2528    0.1117 C   0  0  0  0  0  0  0  0  0  0  0  0
  1 16  1  0
  2 18  2  0
  3  5  1  0
  3  7  1  0
  3 12  1  0
  4  6  1  0
  4  7  1  0
  4  8  1  0
  4 11  1  0
  5  6  1  0
  5  9  1  0
  8 10  1  0
  9 10  1  0
 11 13  2  0
 11 14  1  0
 12 15  1  0
 13 16  1  0
 14 17  2  0
 15 18  1  0
 16 19  2  0
 17 19  1  0
 18 20  1  0
 20 21  2  0
 20 22  1  0
 21 23  1  0
 22 24  2  0
 23 25  2  0
 24 25  1  0
M  END
>  <PUBCHEM_COMPOUND_CID>  (1) 
41805

>  <PUBCHEM_CONFORMER_RMSD>  (1) 
0.8

>  <PUBCHEM_CONFORMER_DIVERSEORDER>  (1) 
1
242
119
42
225
68
247
139
62
342
345
314
197
34
17
246
111
251
184
221
187
272
313
292
2
224
75
194
43
244
72
233
163
108
276
336
337
338
269
232
218
258
7
172
210
351
341
37
212
168
199
26
236
318
51
120
117
284
104
254
16
340
274
96
144
191
207
78
252
170
195
134
299
209
260
180
339
204
101
300
94
217
70
95
54
125
332
126
176
179
148
214
322
350
66
261
47
32
175
266
216
86
290
131
270
15
304
317
241
64
326
288
188
130
133
309
315
71
63
113
162
183
220
293
238
138
259
12
136
80
103
301
185
100
298
263
123
257
9
121
230
205
286
3
73
192
344
11
202
124
222
112
255
143
189
211
262
271
307
18
174
312
31
215
227
99
84
250
186
142
316
329
97
25
151
265
102
149
330
38
60
248
52
264
267
150
82
229
346
4
268
321
48
213
93
331
6
226
8
243
324
10
278
348
289
118
92
285
77
145
333
201
245
328
39
181
256
193
161
41
22
81
89
85
223
206
5
153
164
35
135
282
107
74
294
231
228
240
20
249
115
334
239
308
53
208
198
147
23
235
50
67
155
19
319
122
45
76
88
283
69
323
275
173
295
320
46
79
83
65
310
305
296
281
128
44
57
291
98
273
91
13
287
203
327
306
87
132
56
349
55
158
200
311
343
219
178
190
253
27
40
237
196
141
59
137
105
167
140
166
297
303
169
116
177
280
335
165
234
171
14
61
154
28
152
302
159
146
110
277
129
325
24
106
182
90
36
279
347
160
21
58
156
109
157
49
114
127
30
33
29

>  <PUBCHEM_MMFF94_PARTIAL_CHARGES>  (1) 
31
1 -0.53
11 -0.14
12 0.27
13 -0.15
14 -0.15
15 0.06
16 0.08
17 -0.15
18 0.42
19 -0.15
2 -0.57
20 0.09
21 -0.15
22 -0.15
23 -0.15
24 -0.15
25 -0.15
3 -0.81
39 0.15
4 0.14
40 0.15
43 0.15
44 0.15
45 0.45
46 0.15
47 0.15
48 0.15
49 0.15
5 0.27
50 0.15
7 0.27

>  <PUBCHEM_EFFECTIVE_ROTOR_COUNT>  (1) 
6.2

>  <PUBCHEM_PHARMACOPHORE_FEATURES>  (1) 
6
1 1 donor
1 2 acceptor
1 3 cation
6 11 13 14 16 17 19 rings
6 20 21 22 23 24 25 rings
8 3 4 5 6 7 8 9 10 rings

>  <PUBCHEM_HEAVY_ATOM_COUNT>  (1) 
25

>  <PUBCHEM_ATOM_DEF_STEREO_COUNT>  (1) 
0

>  <PUBCHEM_ATOM_UDEF_STEREO_COUNT>  (1) 
2

>  <PUBCHEM_BOND_DEF_STEREO_COUNT>  (1) 
0

>  <PUBCHEM_BOND_UDEF_STEREO_COUNT>  (1) 
0

>  <PUBCHEM_ISOTOPIC_ATOM_COUNT>  (1) 
0

>  <PUBCHEM_COMPONENT_COUNT>  (1) 
1

>  <PUBCHEM_CACTVS_TAUTO_COUNT>  (1) 
6

>  <PUBCHEM_CONFORMER_ID>  (1) 
0000A34D00000001

>  <PUBCHEM_MMFF94_ENERGY>  (1) 
75.1977

>  <PUBCHEM_FEATURE_SELFOVERLAP>  (1) 
30.447

>  <PUBCHEM_SHAPE_FINGERPRINT>  (1) 
10369192 42 18060428993365931337
10411042 1 17760934339447409955
11370993 144 18408321086543946574
11796584 16 11815313955080215581
12107183 9 18189884332874476266
12390115 104 18340779169254026905
12633257 1 15213597696657067627
12895836 83 18343863316439154915
12895837 130 18338241590996389452
13402501 40 18410856555698990808
13690498 29 17344901043397112871
13944108 23 17476353903475672577
14251764 38 18193556894726371508
14251764 75 18197784293454647577
14347329 18 18411694383601256040
1454969 45 18413383234289330631
14713325 29 18340206396948614215
14739800 52 18114456747811689667
14790565 3 18197783206658908705
15131766 46 15143241180278060230
15575132 122 18334851680884448645
16126227 98 18342462551716297521
17959699 21 18411418419225425466
18608769 82 18338802333426278771
20101258 96 18049726522900851083
20645477 56 18412549824774270539
21033648 29 18199742704426311432
21307412 95 10303805446558608169
21315764 268 18262234409014451173
21388113 180 18341897333581956172
21756936 100 18334011704944271443
22393880 68 17988641960798278094
23227448 37 18411981390337249951
23559900 14 17988923328459309354
2838139 119 18339073792032599366
3388396 114 17404576070453128804
3472631 163 18342457027939539654
3610482 184 18115318894330850860
376196 1 17973438811456856139
4073 2 18187932841590127762
44249763 50 17987506173787023472
508706 21 18268419321161405584
5104073 3 18040150725937120266
5283173 99 18340767130735041760
531348 171 18272369806664364630
59682541 35 18187943772450675641
5969126 39 18125719234921957383
59755656 520 17385444328159783738
6327066 14 18337386046554203309
636775 72 18268425905885139584
7288768 16 17821449053835755971
7808743 9 18409444808226760072

>  <PUBCHEM_SHAPE_MULTIPOLES>  (1) 
497.77
15.45
4.06
1.04
20.38
0.59
-0.13
14.32
0.08
-3.67
-0.73
-0.77
-0.37
0.56

>  <PUBCHEM_SHAPE_SELFOVERLAP>  (1) 
1082.055

>  <PUBCHEM_SHAPE_VOLUME>  (1) 
272.7

>  <PUBCHEM_COORDINATE_TYPE>  (1) 
2
5
10

$$$$
