41809
     RDKit          3D

 21 23  0  0  1  0  0  0  0  0999 V2000
    3.5331   -0.4791    0.8273 O   0  0  0  0  0  0  0  0  0  0  0  0
    3.9001   -0.6801   -1.4759 O   0  0  0  0  0  0  0  0  0  0  0  0
   -2.9842   -0.9565    0.5666 N   0  0  0  0  0  0  0  0  0  0  0  0
   -1.1950    0.5457   -0.0947 C   0  0  0  0  0  0  0  0  0  0  0  0
   -1.5286   -0.9418    0.2564 C   0  0  0  0  0  0  0  0  0  0  0  0
   -3.4072    0.4475    0.7390 C   0  0  0  0  0  0  0  0  0  0  0  0
   -2.1135    1.2228    0.9396 C   0  0  0  0  0  0  0  0  0  0  0  0
   -1.6883    0.9642   -1.5175 C   0  0  0  0  0  0  0  0  0  0  0  0
   -4.0695    0.9197   -0.5653 C   0  0  0  0  0  0  0  0  0  0  0  0
   -3.1773    0.7058   -1.7915 C   0  0  0  0  0  0  0  0  0  0  0  0
    0.2573    0.9897    0.1141 C   0  0  0  0  0  0  0  0  0  0  0  0
   -1.2177   -1.9806   -0.8224 C   0  0  0  0  0  0  0  0  0  0  0  0
   -3.2774   -1.7625    1.7488 C   0  0  0  0  0  0  0  0  0  0  0  0
   -1.6135   -3.3764   -0.3790 C   0  0  0  0  0  0  0  0  0  0  0  0
    1.2471    0.0419    0.3796 C   0  0  0  0  0  0  0  0  0  0  0  0
    0.5928    2.3425    0.0385 C   0  0  0  0  0  0  0  0  0  0  0  0
    2.5688    0.4459    0.5691 C   0  0  0  0  0  0  0  0  0  0  0  0
    1.9143    2.7465    0.2279 C   0  0  0  0  0  0  0  0  0  0  0  0
    2.9023    1.7983    0.4930 C   0  0  0  0  0  0  0  0  0  0  0  0
    4.1572   -0.9935   -0.3211 C   0  0  0  0  0  0  0  0  0  0  0  0
    5.1991   -2.0000    0.0675 C   0  0  0  0  0  0  0  0  0  0  0  0
  1 17  1  0
  1 20  1  0
  2 20  2  0
  3  5  1  0
  3  6  1  0
  3 13  1  0
  4  5  1  0
  4  7  1  0
  4  8  1  0
  4 11  1  0
  5 12  1  0
  6  7  1  0
  6  9  1  0
  8 10  1  0
  9 10  1  0
 11 15  2  0
 11 16  1  0
 12 14  1  0
 15 17  1  0
 16 18  2  0
 17 19  2  0
 18 19  1  0
 20 21  1  0
M  END
>  <PUBCHEM_COMPOUND_CID>  (1) 
41809

>  <PUBCHEM_CONFORMER_RMSD>  (1) 
0.8

>  <PUBCHEM_CONFORMER_DIVERSEORDER>  (1) 
5
51
100
57
87
40
98
89
41
35
59
104
65
102
73
46
97
81
88
82
67
85
58
77
95
45
68
108
56
23
15
55
93
31
62
33
94
50
17
103
78
38
101
72
37
70
99
86
64
75
49
106
36
60
105
79
54
96
52
107
32
19
66
48
74
92
42
91
44
7
14
18
22
69
47
43
1
71
90
61
8
80
84
25
53
39
83
9
63
28
6
16
29
4
34
30
76
26
13
27
21
24
12
3
11
2
10
20

>  <PUBCHEM_MMFF94_PARTIAL_CHARGES>  (1) 
19
1 -0.23
11 -0.14
13 0.27
15 -0.15
16 -0.15
17 0.08
18 -0.15
19 -0.15
2 -0.57
20 0.66
21 0.06
3 -0.81
4 0.14
40 0.15
41 0.15
42 0.15
43 0.15
5 0.27
6 0.27

>  <PUBCHEM_EFFECTIVE_ROTOR_COUNT>  (1) 
5.2

>  <PUBCHEM_PHARMACOPHORE_FEATURES>  (1) 
5
1 14 hydrophobe
1 2 acceptor
1 3 cation
6 11 15 16 17 18 19 rings
8 3 4 5 6 7 8 9 10 rings

>  <PUBCHEM_HEAVY_ATOM_COUNT>  (1) 
21

>  <PUBCHEM_ATOM_DEF_STEREO_COUNT>  (1) 
0

>  <PUBCHEM_ATOM_UDEF_STEREO_COUNT>  (1) 
3

>  <PUBCHEM_BOND_DEF_STEREO_COUNT>  (1) 
0

>  <PUBCHEM_BOND_UDEF_STEREO_COUNT>  (1) 
0

>  <PUBCHEM_ISOTOPIC_ATOM_COUNT>  (1) 
0

>  <PUBCHEM_COMPONENT_COUNT>  (1) 
1

>  <PUBCHEM_CACTVS_TAUTO_COUNT>  (1) 
1

>  <PUBCHEM_CONFORMER_ID>  (1) 
0000A35100000005

>  <PUBCHEM_MMFF94_ENERGY>  (1) 
69.529

>  <PUBCHEM_FEATURE_SELFOVERLAP>  (1) 
25.372

>  <PUBCHEM_SHAPE_FINGERPRINT>  (1) 
10616163 171 17982735469763700054
107951 10 17459189590847237699
11552529 35 17628646546036743379
12011746 2 18261106327807170967
12186901 62 17240760636521319621
12553582 1 18340483357961559018
12555020 224 18340475686643657463
12596602 18 13614222769138006246
12623949 98 17977696382125366419
12633257 1 18058468610666525859
12714826 92 18040434369428903956
12760667 363 18055630621575224598
13140716 1 18342735260595886218
13296908 3 18335418006154390480
13533116 47 17988073512838026155
14178342 30 18054492875694769504
14223421 5 18051409874822589488
15099037 51 18338793425231226029
15163728 17 16012662103429926791
15420108 30 16550318800919300425
16752209 62 18120077408461793872
16945 1 18336818719564850961
17349148 13 17775562052683635159
17492 89 18196087961471268282
17804303 29 18333737913874757305
17859628 97 18335983052036586730
18186145 218 18187641409887675320
19930381 70 18053948346603321167
200 152 17846204562619866957
20600515 1 18272378529658163188
20645477 70 18341603845798132660
20681651 13 17630047297969644963
21069387 34 17774990315164069701
21521239 73 18128230408083948557
221490 88 18262525908935097016
23402539 116 18058158441134318156
23559900 14 18342730841486060368
23566358 27 18047766067782197188
2748010 2 18263071270486088704
3298306 158 18116137875474105919
6049 1 18186799222630281588
7097593 13 18198631131649490873
74978 22 18340764939763819300
9709674 26 18267015235916754531
9981440 41 16408675735672533289

>  <PUBCHEM_SHAPE_MULTIPOLES>  (1) 
415.45
8.31
2.94
1.32
7.28
1.07
0.22
3.02
0.14
0.51
-0.01
-1.01
0.12
1

>  <PUBCHEM_SHAPE_SELFOVERLAP>  (1) 
880.844

>  <PUBCHEM_SHAPE_VOLUME>  (1) 
232.1

>  <PUBCHEM_COORDINATE_TYPE>  (1) 
2
5
10

$$$$
