41807
     RDKit          3D

 20 22  0  0  1  0  0  0  0  0999 V2000
    3.6063    0.2688    0.9209 O   0  0  0  0  0  0  0  0  0  0  0  0
    4.0129    0.8049   -1.3212 O   0  0  0  0  0  0  0  0  0  0  0  0
   -3.6075   -0.1737    0.2494 N   0  0  0  0  0  0  0  0  0  0  0  0
   -1.2115    0.0462   -0.0762 C   0  0  0  0  0  0  0  0  0  0  0  0
   -3.0889    0.9656    1.0323 C   0  0  0  0  0  0  0  0  0  0  0  0
   -2.4305   -0.9118   -0.2847 C   0  0  0  0  0  0  0  0  0  0  0  0
   -1.6267    0.6304    1.2869 C   0  0  0  0  0  0  0  0  0  0  0  0
   -1.1726    1.2205   -1.1070 C   0  0  0  0  0  0  0  0  0  0  0  0
   -3.1620    2.2290    0.1597 C   0  0  0  0  0  0  0  0  0  0  0  0
   -2.4589    2.0558   -1.1898 C   0  0  0  0  0  0  0  0  0  0  0  0
    0.1683   -0.6135    0.0272 C   0  0  0  0  0  0  0  0  0  0  0  0
   -2.7062   -1.3577   -1.7216 C   0  0  0  0  0  0  0  0  0  0  0  0
   -4.4697   -1.0377    1.0513 C   0  0  0  0  0  0  0  0  0  0  0  0
    1.2738    0.1370    0.4314 C   0  0  0  0  0  0  0  0  0  0  0  0
    0.3218   -1.9660   -0.2820 C   0  0  0  0  0  0  0  0  0  0  0  0
    2.5293   -0.4636    0.5261 C   0  0  0  0  0  0  0  0  0  0  0  0
    1.5771   -2.5664   -0.1873 C   0  0  0  0  0  0  0  0  0  0  0  0
    2.6809   -1.8154    0.2169 C   0  0  0  0  0  0  0  0  0  0  0  0
    4.3000    0.8841   -0.1340 C   0  0  0  0  0  0  0  0  0  0  0  0
    5.4640    1.6636    0.4018 C   0  0  0  0  0  0  0  0  0  0  0  0
  1 16  1  0
  1 19  1  0
  2 19  2  0
  3  5  1  0
  3  6  1  0
  3 13  1  0
  4  6  1  0
  4  7  1  0
  4  8  1  0
  4 11  1  0
  5  7  1  0
  5  9  1  0
  6 12  1  0
  8 10  1  0
  9 10  1  0
 11 14  2  0
 11 15  1  0
 14 16  1  0
 15 17  2  0
 16 18  2  0
 17 18  1  0
 19 20  1  0
M  END
>  <PUBCHEM_COMPOUND_CID>  (1) 
41807

>  <PUBCHEM_CONFORMER_RMSD>  (1) 
0.6

>  <PUBCHEM_CONFORMER_DIVERSEORDER>  (1) 
1
172
141
19
131
135
149
52
189
204
104
84
143
107
65
186
93
105
185
96
190
103
123
181
154
97
120
198
113
27
129
73
174
45
163
155
115
128
179
16
202
194
46
169
137
95
126
130
205
102
112
118
82
175
78
200
17
127
81
168
191
88
147
125
152
28
178
94
108
161
146
199
162
48
74
203
119
59
195
151
192
71
116
197
22
134
106
51
38
164
148
35
142
171
15
173
160
62
166
167
6
54
32
91
114
67
122
196
145
68
157
34
63
153
101
50
40
132
85
124
177
24
5
13
184
156
87
138
90
158
100
111
201
30
159
99
25
61
8
64
7
176
47
136
66
109
70
55
31
193
23
58
165
42
37
144
89
187
49
69
57
139
182
188
9
183
110
36
75
180
41
14
33
92
121
4
140
77
53
29
72
43
79
3
170
10
133
11
2
117
83
26
44
150
20
21
60
18
56
12
76
39
86
98
80

>  <PUBCHEM_MMFF94_PARTIAL_CHARGES>  (1) 
19
1 -0.23
11 -0.14
13 0.27
14 -0.15
15 -0.15
16 0.08
17 -0.15
18 -0.15
19 0.66
2 -0.57
20 0.06
3 -0.81
37 0.15
38 0.15
39 0.15
4 0.14
40 0.15
5 0.27
6 0.27

>  <PUBCHEM_EFFECTIVE_ROTOR_COUNT>  (1) 
4.2

>  <PUBCHEM_PHARMACOPHORE_FEATURES>  (1) 
4
1 2 acceptor
1 3 cation
6 11 14 15 16 17 18 rings
8 3 4 5 6 7 8 9 10 rings

>  <PUBCHEM_HEAVY_ATOM_COUNT>  (1) 
20

>  <PUBCHEM_ATOM_DEF_STEREO_COUNT>  (1) 
0

>  <PUBCHEM_ATOM_UDEF_STEREO_COUNT>  (1) 
3

>  <PUBCHEM_BOND_DEF_STEREO_COUNT>  (1) 
0

>  <PUBCHEM_BOND_UDEF_STEREO_COUNT>  (1) 
0

>  <PUBCHEM_ISOTOPIC_ATOM_COUNT>  (1) 
0

>  <PUBCHEM_COMPONENT_COUNT>  (1) 
1

>  <PUBCHEM_CACTVS_TAUTO_COUNT>  (1) 
1

>  <PUBCHEM_CONFORMER_ID>  (1) 
0000A34F00000001

>  <PUBCHEM_MMFF94_ENERGY>  (1) 
66.2721

>  <PUBCHEM_FEATURE_SELFOVERLAP>  (1) 
20.297

>  <PUBCHEM_SHAPE_FINGERPRINT>  (1) 
10366900 7 18341609360689082907
10498660 4 18341892970280694688
10608611 8 18191583051714634061
10670039 82 18041574585290225532
10764073 3 11707942195342698637
11405975 8 18117838793991641642
11715629 250 18409167684342044484
11759241 127 18260268555232858358
12173636 292 17845367748440264257
12363563 72 8790885220370771896
12390115 104 18271822197648179408
12403259 118 17749102305778521684
12403259 415 18341891901197536160
12403814 3 18408882932590162417
12507560 40 18338525119135960873
128620 24 18342741827442444150
13140716 1 17975698612251372930
13214271 11 18259984868854418093
13224815 77 18259984847031350606
13583140 156 17679297464709594323
14289901 80 17894915096377351794
14787075 74 18340770446175734771
15099037 51 9799423204155609123
15219456 202 18263924341211455955
15309172 13 18410009948819366722
15342168 16 18336273383224798892
16945 1 18342448283913768695
18186145 218 17561074830759401712
19862831 5 17418094282896347264
200 152 16877657998311285739
20449540 30 18272365352292232801
20645477 56 18270401732542688128
21501502 16 18340758239567514239
21524375 3 18336545010421768050
21709351 56 18337384934178675142
21756936 100 16988568974125082816
22646028 28 8358255947619917352
23402539 116 17822004354679048483
23557571 272 17822020765321597799
23559900 14 18049719620603478690
2916195 48 17916575575089045848
312423 11 18041560239508469490
458136 41 18342747290799736874
474 4 18187368752937401724
4921388 177 14979661230555199581
4990 188 17489596662428022118
5104073 3 18262521385812321449
633830 44 17775011141776933644
7808743 9 18193556895021750976
9882013 296 18113059341510287080

>  <PUBCHEM_SHAPE_MULTIPOLES>  (1) 
394.87
9
2.39
1.24
7.86
0.31
0.23
-3.58
-1.1
0.09
0.4
-0.78
-0.12
0

>  <PUBCHEM_SHAPE_SELFOVERLAP>  (1) 
841.255

>  <PUBCHEM_SHAPE_VOLUME>  (1) 
220.1

>  <PUBCHEM_COORDINATE_TYPE>  (1) 
2
5
10

$$$$
