41811
     RDKit          3D

 21 23  0  0  1  0  0  0  0  0999 V2000
    3.2900   -0.1650    1.0104 O   0  0  0  0  0  0  0  0  0  0  0  0
    3.7799    0.4368   -1.1954 O   0  0  0  0  0  0  0  0  0  0  0  0
   -3.9209    0.0280    0.2035 N   0  0  0  0  0  0  0  0  0  0  0  0
   -1.5090    0.0613   -0.0731 C   0  0  0  0  0  0  0  0  0  0  0  0
   -3.3254    1.0835    1.0468 C   0  0  0  0  0  0  0  0  0  0  0  0
   -2.7988   -0.7811   -0.3454 C   0  0  0  0  0  0  0  0  0  0  0  0
   -1.9013    0.6162    1.3089 C   0  0  0  0  0  0  0  0  0  0  0  0
   -1.3526    1.2735   -1.0474 C   0  0  0  0  0  0  0  0  0  0  0  0
   -3.2763    2.3866    0.2329 C   0  0  0  0  0  0  0  0  0  0  0  0
   -2.5633    2.2163   -1.1117 C   0  0  0  0  0  0  0  0  0  0  0  0
   -0.1909   -0.7155    0.0216 C   0  0  0  0  0  0  0  0  0  0  0  0
   -3.0819   -1.1371   -1.8058 C   0  0  0  0  0  0  0  0  0  0  0  0
   -4.8675   -0.7961    0.9504 C   0  0  0  0  0  0  0  0  0  0  0  0
    0.9647   -0.0791    0.4779 C   0  0  0  0  0  0  0  0  0  0  0  0
   -0.1438   -2.0608   -0.3478 C   0  0  0  0  0  0  0  0  0  0  0  0
    2.1641   -0.7862    0.5646 C   0  0  0  0  0  0  0  0  0  0  0  0
    1.0554   -2.7678   -0.2610 C   0  0  0  0  0  0  0  0  0  0  0  0
    2.2093   -2.1306    0.1952 C   0  0  0  0  0  0  0  0  0  0  0  0
    4.0571    0.4395   -0.0037 C   0  0  0  0  0  0  0  0  0  0  0  0
    5.2745    1.0931    0.6103 C   0  0  0  0  0  0  0  0  0  0  0  0
    6.1367    1.7844   -0.4311 C   0  0  0  0  0  0  0  0  0  0  0  0
  1 16  1  0
  1 19  1  0
  2 19  2  0
  3  5  1  0
  3  6  1  0
  3 13  1  0
  4  6  1  0
  4  7  1  0
  4  8  1  0
  4 11  1  0
  5  7  1  0
  5  9  1  0
  6 12  1  0
  8 10  1  0
  9 10  1  0
 11 14  2  0
 11 15  1  0
 14 16  1  0
 15 17  2  0
 16 18  2  0
 17 18  1  0
 19 20  1  0
 20 21  1  0
M  END
>  <PUBCHEM_COMPOUND_CID>  (1) 
41811

>  <PUBCHEM_CONFORMER_RMSD>  (1) 
0.8

>  <PUBCHEM_CONFORMER_DIVERSEORDER>  (1) 
1
115
137
17
150
67
136
101
36
12
140
79
63
145
62
31
99
64
138
74
34
100
121
132
146
84
139
48
61
147
126
69
49
124
117
50
129
94
40
89
134
75
118
123
131
127
72
143
71
53
120
107
98
41
148
73
54
106
125
149
38
144
102
19
78
44
25
96
46
141
111
32
88
112
30
97
90
85
7
76
110
70
135
39
56
104
45
91
57
14
130
77
114
10
68
105
29
142
86
128
116
8
52
66
23
119
83
58
24
42
82
51
16
113
60
92
26
93
80
87
20
27
37
108
122
6
103
2
13
21
65
55
22
9
33
81
35
109
15
95
43
5
18
133
59
11
3
47
4
28

>  <PUBCHEM_MMFF94_PARTIAL_CHARGES>  (1) 
19
1 -0.23
11 -0.14
13 0.27
14 -0.15
15 -0.15
16 0.08
17 -0.15
18 -0.15
19 0.66
2 -0.57
20 0.06
3 -0.81
38 0.15
39 0.15
4 0.14
40 0.15
41 0.15
5 0.27
6 0.27

>  <PUBCHEM_EFFECTIVE_ROTOR_COUNT>  (1) 
5.2

>  <PUBCHEM_PHARMACOPHORE_FEATURES>  (1) 
5
1 2 acceptor
1 21 hydrophobe
1 3 cation
6 11 14 15 16 17 18 rings
8 3 4 5 6 7 8 9 10 rings

>  <PUBCHEM_HEAVY_ATOM_COUNT>  (1) 
21

>  <PUBCHEM_ATOM_DEF_STEREO_COUNT>  (1) 
0

>  <PUBCHEM_ATOM_UDEF_STEREO_COUNT>  (1) 
3

>  <PUBCHEM_BOND_DEF_STEREO_COUNT>  (1) 
0

>  <PUBCHEM_BOND_UDEF_STEREO_COUNT>  (1) 
0

>  <PUBCHEM_ISOTOPIC_ATOM_COUNT>  (1) 
0

>  <PUBCHEM_COMPONENT_COUNT>  (1) 
1

>  <PUBCHEM_CACTVS_TAUTO_COUNT>  (1) 
1

>  <PUBCHEM_CONFORMER_ID>  (1) 
0000A35300000001

>  <PUBCHEM_MMFF94_ENERGY>  (1) 
64.8881

>  <PUBCHEM_FEATURE_SELFOVERLAP>  (1) 
25.371

>  <PUBCHEM_SHAPE_FINGERPRINT>  (1) 
10366900 7 18271235110410883115
10411042 1 17402892718663011054
10498660 4 18342454807800604672
10670039 82 18114474388081521388
10764073 3 11565798431699951581
11315181 36 11386364846711187996
11405975 8 18046344132743155059
11759241 127 18333450928270324911
12173636 292 17701812194740188265
12363563 72 8862939511536553728
12390115 104 18272101464990568448
12403259 118 17748823012550186932
12403259 415 18410297973927029132
12403814 3 18409445861190034081
12507557 5 17022617615475311924
12596602 18 16805598205371915472
128620 24 18342740710576958318
12916748 109 18411989082908409666
13140716 1 18047756189093639891
13214271 11 18260547801754557765
13224815 77 18261110729573766118
13544653 18 9439401337766423930
14289901 80 17968098564647394051
14787075 74 18412825815510280651
15183329 4 18201169780693804532
15342168 16 18339082592373265229
16945 1 18343291583715443431
17980427 23 17531250556159959437
18186145 218 17417800756030472786
18222031 100 12179847191325820338
19489759 90 13479121415386813365
204376 136 18410012152438380506
20645477 56 18342178925234758170
21524375 3 18408602591458834002
21709351 56 18266170635357525126
21864079 5 18337386054906481548
23402539 116 18059851779842022220
23559900 14 17976817580012928226
23566358 27 18129947754151108902
2916195 48 18059847420487329048
350125 39 18339924929944179233
44062 13 10303807675013566673
458136 41 18271530805866451098
474 4 18260552242566028042
4921388 177 15051434046913134293
5104073 3 18189903023912219929
5486654 2 18340766052556371183
633830 44 17916872296460723868
7808743 9 18337953519313817984

>  <PUBCHEM_SHAPE_MULTIPOLES>  (1) 
415.45
10.52
2.52
1.23
12.29
0.37
0.21
-5.62
-0.64
0.05
0.45
-0.79
-0.12
-0.35

>  <PUBCHEM_SHAPE_SELFOVERLAP>  (1) 
879.812

>  <PUBCHEM_SHAPE_VOLUME>  (1) 
232.8

>  <PUBCHEM_COORDINATE_TYPE>  (1) 
2
5
10

$$$$
