41820
     RDKit          3D

 22 23  0  0  1  0  0  0  0  0999 V2000
    1.2529   -3.9349    0.6831 Cl  0  0  0  0  0  0  0  0  0  0  0  0
    4.7937    1.2657   -0.3073 O   0  0  0  0  0  0  0  0  0  0  0  0
   -4.5144    1.7134   -0.4055 O   0  0  0  0  0  0  0  0  0  0  0  0
   -0.0136   -1.6872   -0.3033 C   0  0  0  0  0  0  0  0  0  0  0  0
   -0.1346   -2.7907    0.8126 C   0  0  0  0  0  0  0  0  0  0  0  0
    1.2568   -0.9066   -0.3042 C   0  0  0  0  0  0  0  0  0  0  0  0
   -1.2428   -0.7586   -0.3310 C   0  0  0  0  0  0  0  0  0  0  0  0
   -1.4175   -3.6201    0.7321 C   0  0  0  0  0  0  0  0  0  0  0  0
    1.8118   -0.4793   -1.5104 C   0  0  0  0  0  0  0  0  0  0  0  0
   -2.0837   -0.8292   -1.4111 C   0  0  0  0  0  0  0  0  0  0  0  0
    1.8902   -0.6039    0.9012 C   0  0  0  0  0  0  0  0  0  0  0  0
   -1.4354    0.0927    0.7259 C   0  0  0  0  0  0  0  0  0  0  0  0
    3.0004    0.2507   -1.5112 C   0  0  0  0  0  0  0  0  0  0  0  0
   -3.1963    0.0117   -1.4363 C   0  0  0  0  0  0  0  0  0  0  0  0
    3.0789    0.1262    0.9004 C   0  0  0  0  0  0  0  0  0  0  0  0
   -2.5481    0.9336    0.7008 C   0  0  0  0  0  0  0  0  0  0  0  0
    3.6339    0.5536   -0.3060 C   0  0  0  0  0  0  0  0  0  0  0  0
   -3.4287    0.8930   -0.3803 C   0  0  0  0  0  0  0  0  0  0  0  0
    5.0514    2.0896    0.8288 C   0  0  0  0  0  0  0  0  0  0  0  0
   -5.0809    2.0797    0.8517 C   0  0  0  0  0  0  0  0  0  0  0  0
    5.8895    3.2745    0.3987 C   0  0  0  0  0  0  0  0  0  0  0  0
   -6.5635    2.3263    0.6714 C   0  0  0  0  0  0  0  0  0  0  0  0
  1  5  1  0
  2 17  1  0
  2 19  1  0
  3 18  1  0
  3 20  1  0
  4  5  1  0
  4  6  1  0
  4  7  1  0
  5  8  1  0
  6  9  2  0
  6 11  1  0
  7 10  2  0
  7 12  1  0
  9 13  1  0
 10 14  1  0
 11 15  2  0
 12 16  2  0
 13 17  2  0
 14 18  2  0
 15 17  1  0
 16 18  1  0
 19 21  1  0
 20 22  1  0
M  END
>  <PUBCHEM_COMPOUND_CID>  (1) 
41820

>  <PUBCHEM_CONFORMER_RMSD>  (1) 
0.8

>  <PUBCHEM_CONFORMER_DIVERSEORDER>  (1) 
1
31
21
33
9
43
19
11
41
29
24
26
22
23
37
36
28
7
14
34
32
42
39
17
27
30
8
35
3
10
13
20
5
6
15
38
12
16
40
4
18
25
2

>  <PUBCHEM_MMFF94_PARTIAL_CHARGES>  (1) 
27
1 -0.29
10 -0.15
11 -0.15
12 -0.15
13 -0.15
14 -0.15
15 -0.15
16 -0.15
17 0.08
18 0.08
19 0.28
2 -0.36
20 0.28
28 0.15
29 0.15
3 -0.36
30 0.15
31 0.15
32 0.15
33 0.15
34 0.15
35 0.15
4 0.29
5 0.29
6 -0.14
7 -0.14
9 -0.15

>  <PUBCHEM_EFFECTIVE_ROTOR_COUNT>  (1) 
7

>  <PUBCHEM_PHARMACOPHORE_FEATURES>  (1) 
4
1 2 acceptor
1 3 acceptor
6 6 9 11 13 15 17 rings
6 7 10 12 14 16 18 rings

>  <PUBCHEM_HEAVY_ATOM_COUNT>  (1) 
22

>  <PUBCHEM_ATOM_DEF_STEREO_COUNT>  (1) 
0

>  <PUBCHEM_ATOM_UDEF_STEREO_COUNT>  (1) 
1

>  <PUBCHEM_BOND_DEF_STEREO_COUNT>  (1) 
0

>  <PUBCHEM_BOND_UDEF_STEREO_COUNT>  (1) 
0

>  <PUBCHEM_ISOTOPIC_ATOM_COUNT>  (1) 
0

>  <PUBCHEM_COMPONENT_COUNT>  (1) 
1

>  <PUBCHEM_CACTVS_TAUTO_COUNT>  (1) 
1

>  <PUBCHEM_CONFORMER_ID>  (1) 
0000A35C00000001

>  <PUBCHEM_MMFF94_ENERGY>  (1) 
72.686

>  <PUBCHEM_FEATURE_SELFOVERLAP>  (1) 
20.297

>  <PUBCHEM_SHAPE_FINGERPRINT>  (1) 
10165383 225 18042989591581525262
10498660 4 18060420209361628793
10692045 39 18263351517777412642
11135609 201 18340485659832018985
12107183 9 18261939796792793496
12363563 72 10303809891015672543
12390115 104 18338244854701717498
12623949 98 11963389618526140584
12788726 201 17756442808060540494
12892183 10 16081638976923251572
13140716 1 18259982635134593938
13583140 156 15719381854633621471
13955234 65 18118126862086530307
13965767 371 17968087595543454588
14142880 1 18262513818380879143
14251764 38 17980758556663859680
14251764 75 18336266824978984728
14565420 104 18335704897464565897
14849402 71 18194122910948591842
15188451 53 12973607746641953025
15342168 16 18261398819206301325
1741750 31 18334853978507146962
17980427 26 18340472388562682582
1813 80 17405149526039259719
18222031 100 9295278435407052005
18785283 64 17970351412391453459
19784866 240 9223225252611974705
19784866 34 18411135814482515569
20388580 30 9294990376229762719
20510252 161 18193277627030619474
21033648 29 18335146427209785872
21401589 2 18340491157142056041
21756936 100 18340484564361949018
23557571 272 18051983803424517542
23559900 14 16987993873836151950
23845131 108 18333734602893225235
270888 7 18341893008703551672
283562 15 18119521291664846683
2838139 119 18272365339291754292
3472631 163 18201999928108886853
38570 142 18270976643114871940
394222 165 18198059171392973875
4340502 62 18189065209617432811
474 4 18410570643819966723
5104073 3 17968927713085502466
57634706 229 18267038300271371456
59755656 520 18334858311775863942
633830 44 18342452612755610822
77188 2 17401203370169517162
7808743 9 18338794623680530680
960060 61 12679164004253120417
9981440 41 18200587124808618914

>  <PUBCHEM_SHAPE_MULTIPOLES>  (1) 
442.88
11.78
4.02
1.34
2.5
2.73
-0.38
-17.81
2
-0.99
1.79
0.03
0.13
-0.26

>  <PUBCHEM_SHAPE_SELFOVERLAP>  (1) 
913.749

>  <PUBCHEM_SHAPE_VOLUME>  (1) 
256.1

>  <PUBCHEM_COORDINATE_TYPE>  (1) 
2
5
10

$$$$
