41822
     RDKit          3D

 23 24  0  0  0  0  0  0  0  0999 V2000
    0.2744    2.5414    2.1938 Cl  0  0  0  0  0  0  0  0  0  0  0  0
    4.4781   -1.9014   -0.4208 O   0  0  0  0  0  0  0  0  0  0  0  0
   -4.8428   -1.3080   -0.1219 O   0  0  0  0  0  0  0  0  0  0  0  0
    0.0128    1.5469   -0.4433 C   0  0  0  0  0  0  0  0  0  0  0  0
    0.0805    2.8610    0.4322 C   0  0  0  0  0  0  0  0  0  0  0  0
    1.2266    0.6099   -0.4370 C   0  0  0  0  0  0  0  0  0  0  0  0
   -1.3051    0.7717   -0.3561 C   0  0  0  0  0  0  0  0  0  0  0  0
    1.2479    3.7634   -0.0088 C   0  0  0  0  0  0  0  0  0  0  0  0
   -1.2218    3.6752    0.2804 C   0  0  0  0  0  0  0  0  0  0  0  0
    1.9769    0.5021   -1.5831 C   0  0  0  0  0  0  0  0  0  0  0  0
   -2.1239    0.7415   -1.4602 C   0  0  0  0  0  0  0  0  0  0  0  0
    1.5131   -0.0832    0.7146 C   0  0  0  0  0  0  0  0  0  0  0  0
   -1.6171    0.1370    0.8234 C   0  0  0  0  0  0  0  0  0  0  0  0
    3.0808   -0.3506   -1.5774 C   0  0  0  0  0  0  0  0  0  0  0  0
   -3.3244    0.0357   -1.3806 C   0  0  0  0  0  0  0  0  0  0  0  0
    2.6170   -0.9358    0.7204 C   0  0  0  0  0  0  0  0  0  0  0  0
   -2.8175   -0.5690    0.9030 C   0  0  0  0  0  0  0  0  0  0  0  0
    3.4010   -1.0695   -0.4257 C   0  0  0  0  0  0  0  0  0  0  0  0
   -3.6712   -0.6197   -0.1991 C   0  0  0  0  0  0  0  0  0  0  0  0
    5.1501   -2.0865    0.8243 C   0  0  0  0  0  0  0  0  0  0  0  0
   -4.8766   -2.4366    0.7506 C   0  0  0  0  0  0  0  0  0  0  0  0
    6.6110   -2.3803    0.5572 C   0  0  0  0  0  0  0  0  0  0  0  0
   -5.8701   -3.4450    0.2140 C   0  0  0  0  0  0  0  0  0  0  0  0
  1  5  1  0
  2 18  1  0
  2 20  1  0
  3 19  1  0
  3 21  1  0
  4  5  1  0
  4  6  1  0
  4  7  1  0
  5  8  1  0
  5  9  1  0
  6 10  2  0
  6 12  1  0
  7 11  2  0
  7 13  1  0
 10 14  1  0
 11 15  1  0
 12 16  2  0
 13 17  2  0
 14 18  2  0
 15 19  2  0
 16 18  1  0
 17 19  1  0
 20 22  1  0
 21 23  1  0
M  END
>  <PUBCHEM_COMPOUND_CID>  (1) 
41822

>  <PUBCHEM_CONFORMER_RMSD>  (1) 
0.8

>  <PUBCHEM_CONFORMER_DIVERSEORDER>  (1) 
1
20
10
18
14
17
7
19
4
21
27
22
8
32
28
24
30
23
25
6
13
31
2
12
29
5
11
26
15
33
3
9
16

>  <PUBCHEM_MMFF94_PARTIAL_CHARGES>  (1) 
27
1 -0.29
10 -0.15
11 -0.15
12 -0.15
13 -0.15
14 -0.15
15 -0.15
16 -0.15
17 -0.15
18 0.08
19 0.08
2 -0.36
20 0.28
21 0.28
3 -0.36
31 0.15
32 0.15
33 0.15
34 0.15
35 0.15
36 0.15
37 0.15
38 0.15
4 0.29
5 0.29
6 -0.14
7 -0.14

>  <PUBCHEM_EFFECTIVE_ROTOR_COUNT>  (1) 
7

>  <PUBCHEM_PHARMACOPHORE_FEATURES>  (1) 
5
1 2 acceptor
1 3 acceptor
3 5 8 9 hydrophobe
6 6 10 12 14 16 18 rings
6 7 11 13 15 17 19 rings

>  <PUBCHEM_HEAVY_ATOM_COUNT>  (1) 
23

>  <PUBCHEM_ATOM_DEF_STEREO_COUNT>  (1) 
0

>  <PUBCHEM_ATOM_UDEF_STEREO_COUNT>  (1) 
0

>  <PUBCHEM_BOND_DEF_STEREO_COUNT>  (1) 
0

>  <PUBCHEM_BOND_UDEF_STEREO_COUNT>  (1) 
0

>  <PUBCHEM_ISOTOPIC_ATOM_COUNT>  (1) 
0

>  <PUBCHEM_COMPONENT_COUNT>  (1) 
1

>  <PUBCHEM_CACTVS_TAUTO_COUNT>  (1) 
1

>  <PUBCHEM_CONFORMER_ID>  (1) 
0000A35E00000001

>  <PUBCHEM_MMFF94_ENERGY>  (1) 
87.7301

>  <PUBCHEM_FEATURE_SELFOVERLAP>  (1) 
25.371

>  <PUBCHEM_SHAPE_FINGERPRINT>  (1) 
10074138 170 17913495631880608185
10622 236 17315333874462298330
11315181 36 18116151070325522750
11578080 2 18041265600415559396
11796584 16 18189610562246148358
12107183 9 18341910571720857955
12166972 35 17894915131222568662
12363563 72 18412547595664839598
12553582 1 18131074843752511854
12892183 10 15912779284006853767
13103583 49 18129963220981787483
13140716 1 18272374122478879489
13533116 47 18054515974698975563
13583140 156 17414413015372901050
13631057 29 18261954051415195730
13911987 19 17610369373118181348
13955234 65 17909273829711028881
13965767 371 11455897922933066522
14347424 109 18199197364102599787
14866123 147 18266462006286629761
17349148 13 17750526083468790586
17980427 23 12967120627916184385
1813 80 18060148638616185973
200 152 18113902602889410206
20600515 1 18057333794376259556
20642791 268 14692563347317036890
20645477 70 18124318461481427855
20775438 99 17613987917340708555
20832881 197 18334862727645348339
21304303 282 17471273077396929724
21344244 78 16916516955598406859
23402539 116 18338514111034560798
23419403 2 17844217714759492008
23526113 38 18041846236922258281
23557571 272 17914608363728781320
23559900 14 17968934322913667581
2838139 119 9439111049095374434
3004659 81 17821726130639477682
31174 14 18195808703113881229
3286 77 18337956804763105647
3421961 26 18268431407278328545
4015057 19 15358280203480566286
463206 1 18334016124661402059
5104073 3 17915476076446268779
5486654 36 18335711537726657099
57527585 103 16881077358787902338
57724786 102 11095894739361630870
59755656 520 17548976663601204564
6669772 16 17907582776828486804
77188 2 18411136965175710889
7970288 3 18410857654968317751
81228 2 17913216364285173097
9981440 41 16266275408195512356

>  <PUBCHEM_SHAPE_MULTIPOLES>  (1) 
463.46
11.25
4.23
1.48
2.5
2.29
0.01
-18.33
1.14
-1.01
1.4
0.24
0.48
0.09

>  <PUBCHEM_SHAPE_SELFOVERLAP>  (1) 
957.381

>  <PUBCHEM_SHAPE_VOLUME>  (1) 
267.9

>  <PUBCHEM_COORDINATE_TYPE>  (1) 
2
5
10

$$$$
