41821
     RDKit          3D

 23 24  0  0  0  0  0  0  0  0999 V2000
   -0.9636   -4.0866    0.0086 Cl  0  0  0  0  0  0  0  0  0  0  0  0
    0.0718   -2.5353   -2.2255 Cl  0  0  0  0  0  0  0  0  0  0  0  0
   -4.9097    1.2510    0.1076 O   0  0  0  0  0  0  0  0  0  0  0  0
    4.4676    1.9239    0.4417 O   0  0  0  0  0  0  0  0  0  0  0  0
   -0.0039   -1.5167    0.4294 C   0  0  0  0  0  0  0  0  0  0  0  0
    0.2410   -2.8193   -0.4589 C   0  0  0  0  0  0  0  0  0  0  0  0
   -1.3003   -0.7850    0.3444 C   0  0  0  0  0  0  0  0  0  0  0  0
    1.2230   -0.5728    0.4326 C   0  0  0  0  0  0  0  0  0  0  0  0
    1.6311   -3.4365   -0.2378 C   0  0  0  0  0  0  0  0  0  0  0  0
   -2.1723   -0.7823    1.4329 C   0  0  0  0  0  0  0  0  0  0  0  0
    1.9704   -0.4977    1.5750 C   0  0  0  0  0  0  0  0  0  0  0  0
   -1.6411   -0.1033   -0.8240 C   0  0  0  0  0  0  0  0  0  0  0  0
    1.4910    0.1334   -0.7072 C   0  0  0  0  0  0  0  0  0  0  0  0
   -3.3852   -0.0981    1.3531 C   0  0  0  0  0  0  0  0  0  0  0  0
    3.0758    0.3531    1.5780 C   0  0  0  0  0  0  0  0  0  0  0  0
   -2.8539    0.5810   -0.9038 C   0  0  0  0  0  0  0  0  0  0  0  0
    2.5964    0.9840   -0.7045 C   0  0  0  0  0  0  0  0  0  0  0  0
   -3.7260    0.5837    0.1849 C   0  0  0  0  0  0  0  0  0  0  0  0
    3.3890    1.0938    0.4383 C   0  0  0  0  0  0  0  0  0  0  0  0
   -4.9520    2.4031   -0.7331 C   0  0  0  0  0  0  0  0  0  0  0  0
    5.1308    2.1321   -0.8043 C   0  0  0  0  0  0  0  0  0  0  0  0
   -5.9740    3.3762   -0.1851 C   0  0  0  0  0  0  0  0  0  0  0  0
    6.5941    2.4182   -0.5422 C   0  0  0  0  0  0  0  0  0  0  0  0
  1  6  1  0
  2  6  1  0
  3 18  1  0
  3 20  1  0
  4 19  1  0
  4 21  1  0
  5  6  1  0
  5  7  1  0
  5  8  1  0
  6  9  1  0
  7 10  2  0
  7 12  1  0
  8 11  2  0
  8 13  1  0
 10 14  1  0
 11 15  1  0
 12 16  2  0
 13 17  2  0
 14 18  2  0
 15 19  2  0
 16 18  1  0
 17 19  1  0
 20 22  1  0
 21 23  1  0
M  END
>  <PUBCHEM_COMPOUND_CID>  (1) 
41821

>  <PUBCHEM_CONFORMER_RMSD>  (1) 
0.8

>  <PUBCHEM_CONFORMER_DIVERSEORDER>  (1) 
1
23
34
31
26
28
25
15
35
14
37
22
3
5
13
20
6
19
33
16
32
21
7
36
10
29
4
30
9
12
27
11
24
2
17
8
18

>  <PUBCHEM_MMFF94_PARTIAL_CHARGES>  (1) 
28
1 -0.29
10 -0.15
11 -0.15
12 -0.15
13 -0.15
14 -0.15
15 -0.15
16 -0.15
17 -0.15
18 0.08
19 0.08
2 -0.29
20 0.28
21 0.28
28 0.15
29 0.15
3 -0.36
30 0.15
31 0.15
32 0.15
33 0.15
34 0.15
35 0.15
4 -0.36
5 0.29
6 0.58
7 -0.14
8 -0.14

>  <PUBCHEM_EFFECTIVE_ROTOR_COUNT>  (1) 
7

>  <PUBCHEM_PHARMACOPHORE_FEATURES>  (1) 
4
1 3 acceptor
1 4 acceptor
6 7 10 12 14 16 18 rings
6 8 11 13 15 17 19 rings

>  <PUBCHEM_HEAVY_ATOM_COUNT>  (1) 
23

>  <PUBCHEM_ATOM_DEF_STEREO_COUNT>  (1) 
0

>  <PUBCHEM_ATOM_UDEF_STEREO_COUNT>  (1) 
0

>  <PUBCHEM_BOND_DEF_STEREO_COUNT>  (1) 
0

>  <PUBCHEM_BOND_UDEF_STEREO_COUNT>  (1) 
0

>  <PUBCHEM_ISOTOPIC_ATOM_COUNT>  (1) 
0

>  <PUBCHEM_COMPONENT_COUNT>  (1) 
1

>  <PUBCHEM_CACTVS_TAUTO_COUNT>  (1) 
1

>  <PUBCHEM_CONFORMER_ID>  (1) 
0000A35D00000001

>  <PUBCHEM_MMFF94_ENERGY>  (1) 
85.6923

>  <PUBCHEM_FEATURE_SELFOVERLAP>  (1) 
20.297

>  <PUBCHEM_SHAPE_FINGERPRINT>  (1) 
10165383 225 18199767983928595571
10498660 4 18060133245743800873
105312 117 18340209690960852388
11135609 201 18343030999370412769
12293681 160 17917996070211510832
12363563 72 8790890691589173904
12549972 3 17534651230061298499
12633257 1 15574716944935076888
12788726 201 18049989288762877027
12892183 10 15358244992605644777
13134695 92 17833545691812775567
13540713 4 18190198823169871371
13590594 115 17259632439352232185
13681431 1 17625833664343261134
13944108 23 18122623860117830833
14251764 38 17907576931151208281
14294032 229 18341617074861906763
14341114 328 16443354212148423220
15163728 17 18412550877257483837
15342168 16 18410004404285678021
15439362 3 18339644430415408246
167882 2 18340489972063872094
17980427 23 17531249499945852239
1813 80 17126492640448203230
20157964 124 18194673767028578877
20600515 1 16588317068350345213
21304303 282 17413547900752140670
21756936 100 17823697663095206512
22149856 69 18118709647259312449
23559900 14 18120375346428062315
270888 7 18407758123252436029
2838139 119 18338232769002051844
3729539 64 18124906502855969398
4058900 60 18339649936326124673
474 4 18339355246030215699
495365 180 18268423526177117635
5104073 3 17312820467994941089
57527585 103 13468461787637314084
57724786 102 18187358797050592560
59755656 520 17774176710871956059
6327066 14 18335417993222360277
76465 3 10159692504265130113
77188 2 17400921895118927447
7808743 9 18336263556513887264
7970288 3 9223235152048128457
81228 2 17552066720655907698

>  <PUBCHEM_SHAPE_MULTIPOLES>  (1) 
465.33
11.36
4.3
1.47
1.47
2.65
0.04
-18.51
1.03
-0.84
1.33
0.2
0.49
0.18

>  <PUBCHEM_SHAPE_SELFOVERLAP>  (1) 
952.325

>  <PUBCHEM_SHAPE_VOLUME>  (1) 
270.3

>  <PUBCHEM_COORDINATE_TYPE>  (1) 
2
5
10

$$$$
