41824
     RDKit          3D

 20 21  0  0  1  0  0  0  0  0999 V2000
   -2.5508   -3.2539   -0.3905 Cl  0  0  0  0  0  0  0  0  0  0  0  0
    4.3025    1.0867    0.3481 O   0  0  0  0  0  0  0  0  0  0  0  0
   -0.8436   -1.2255    0.3847 C   0  0  0  0  0  0  0  0  0  0  0  0
   -0.9369   -2.4708   -0.5732 C   0  0  0  0  0  0  0  0  0  0  0  0
   -1.9043   -0.1923    0.2054 C   0  0  0  0  0  0  0  0  0  0  0  0
    0.5617   -0.5942    0.3746 C   0  0  0  0  0  0  0  0  0  0  0  0
    0.1218   -3.5422   -0.3065 C   0  0  0  0  0  0  0  0  0  0  0  0
   -2.3902    0.5080    1.3096 C   0  0  0  0  0  0  0  0  0  0  0  0
   -2.4102    0.0737   -1.0671 C   0  0  0  0  0  0  0  0  0  0  0  0
    1.3268   -0.6983    1.5070 C   0  0  0  0  0  0  0  0  0  0  0  0
    0.9784    0.0409   -0.7666 C   0  0  0  0  0  0  0  0  0  0  0  0
   -3.3821    1.4741    1.1414 C   0  0  0  0  0  0  0  0  0  0  0  0
   -3.4021    1.0399   -1.2351 C   0  0  0  0  0  0  0  0  0  0  0  0
   -3.8881    1.7400   -0.1308 C   0  0  0  0  0  0  0  0  0  0  0  0
    2.5991   -0.1265    1.4979 C   0  0  0  0  0  0  0  0  0  0  0  0
    2.2507    0.6125   -0.7759 C   0  0  0  0  0  0  0  0  0  0  0  0
    3.0612    0.5289    0.3564 C   0  0  0  0  0  0  0  0  0  0  0  0
   -4.9479    2.7737   -0.3105 C   0  0  0  0  0  0  0  0  0  0  0  0
    4.9806    1.1436   -0.9061 C   0  0  0  0  0  0  0  0  0  0  0  0
    6.4734    1.0816   -0.6628 C   0  0  0  0  0  0  0  0  0  0  0  0
  1  4  1  0
  2 17  1  0
  2 19  1  0
  3  4  1  0
  3  5  1  0
  3  6  1  0
  4  7  1  0
  5  8  2  0
  5  9  1  0
  6 10  2  0
  6 11  1  0
  8 12  1  0
  9 13  2  0
 10 15  1  0
 11 16  2  0
 12 14  2  0
 13 14  1  0
 14 18  1  0
 15 17  2  0
 16 17  1  0
 19 20  1  0
M  END
>  <PUBCHEM_COMPOUND_CID>  (1) 
41824

>  <PUBCHEM_CONFORMER_RMSD>  (1) 
0.8

>  <PUBCHEM_CONFORMER_DIVERSEORDER>  (1) 
1
22
24
7
20
17
8
18
26
19
25
11
23
15
3
21
9
12
5
6
4
14
16
13
10
2

>  <PUBCHEM_MMFF94_PARTIAL_CHARGES>  (1) 
26
1 -0.29
10 -0.15
11 -0.15
12 -0.15
13 -0.15
14 -0.14
15 -0.15
16 -0.15
17 0.08
18 0.14
19 0.28
2 -0.36
26 0.15
27 0.15
28 0.15
29 0.15
3 0.29
30 0.15
31 0.15
32 0.15
33 0.15
4 0.29
5 -0.14
6 -0.14
8 -0.15
9 -0.15

>  <PUBCHEM_EFFECTIVE_ROTOR_COUNT>  (1) 
5

>  <PUBCHEM_PHARMACOPHORE_FEATURES>  (1) 
3
1 2 acceptor
6 5 8 9 12 13 14 rings
6 6 10 11 15 16 17 rings

>  <PUBCHEM_HEAVY_ATOM_COUNT>  (1) 
20

>  <PUBCHEM_ATOM_DEF_STEREO_COUNT>  (1) 
0

>  <PUBCHEM_ATOM_UDEF_STEREO_COUNT>  (1) 
2

>  <PUBCHEM_BOND_DEF_STEREO_COUNT>  (1) 
0

>  <PUBCHEM_BOND_UDEF_STEREO_COUNT>  (1) 
0

>  <PUBCHEM_ISOTOPIC_ATOM_COUNT>  (1) 
0

>  <PUBCHEM_COMPONENT_COUNT>  (1) 
1

>  <PUBCHEM_CACTVS_TAUTO_COUNT>  (1) 
1

>  <PUBCHEM_CONFORMER_ID>  (1) 
0000A36000000001

>  <PUBCHEM_MMFF94_ENERGY>  (1) 
62.8699

>  <PUBCHEM_FEATURE_SELFOVERLAP>  (1) 
15.223

>  <PUBCHEM_SHAPE_FINGERPRINT>  (1) 
10165383 225 18272103690331851473
10498660 4 18273209768722497433
105312 117 18411986862215184764
11370993 144 14346335867399055752
11640471 11 18261662723229080827
12363563 72 9151163273111666273
12500047 106 18343021129535163070
12788726 201 18191011516396668171
12892183 10 15141237659897355305
12954195 1 18342458200434443527
14251764 38 17977942707485436816
14713325 29 18338243785292485690
15163728 17 18267872683399114533
15183329 4 18342746170403518908
15342168 16 18265046947511697309
15534591 1 18187928425540892530
15842332 3 17969477434060208178
16752209 62 18196635496734199743
167882 2 18267306426379092406
1741750 31 18412257346085871435
1813 80 11026090018778595915
19784866 170 16805322171997195868
19784866 240 10807927172338071065
204376 136 18410009901738133385
20510252 161 18126841818712672707
20645477 56 18270691964229663090
20871999 31 18270115841775237598
21426921 1 18266741466074709598
21524375 3 18334009476235747451
2255824 54 17838613358559564431
22907989 373 18056475286379492639
23493267 7 18202004365120943546
23557571 272 18200601422311089974
23559900 14 18060710485801982246
25147074 1 18041824195435094266
270888 7 18335701572976080581
283562 15 18192987338775950515
350125 39 18413112779244607899
474 4 18267860571886206195
5104073 3 17458620164468217216
5486654 2 18341604946137994143
559249 180 18413108377673074406
59755656 520 17917164839790020827
6049 1 17415838248107908074
6327066 14 18334573516958433685
7808743 9 18408884044391145204
81228 2 18053104209710090203
84936 182 17914606151730745777

>  <PUBCHEM_SHAPE_MULTIPOLES>  (1) 
407.59
10.23
3.18
1.32
12.07
3.1
-0.28
-10.13
2.23
-3.58
0.68
0.05
-0.15
-0.64

>  <PUBCHEM_SHAPE_SELFOVERLAP>  (1) 
845.821

>  <PUBCHEM_SHAPE_VOLUME>  (1) 
234.3

>  <PUBCHEM_COORDINATE_TYPE>  (1) 
2
5
10

$$$$
