41835
     RDKit          3D

 27 29  0  0  1  0  0  0  0  0999 V2000
   -2.9608   -2.6265    1.9009 O   0  0  0  0  0  0  0  0  0  0  0  0
    1.1913    2.3814    0.9430 O   0  0  0  0  0  0  0  0  0  0  0  0
    3.4384    3.2515    0.9068 O   0  0  0  0  0  0  0  0  0  0  0  0
   -2.9897    2.0208   -2.2666 O   0  0  0  0  0  0  0  0  0  0  0  0
   -4.4226    2.4575    0.8031 O   0  0  0  0  0  0  0  0  0  0  0  0
    0.2635   -2.7919    0.0753 N   0  0  0  0  0  0  0  0  0  0  0  0
   -2.2005    3.0019    0.9602 N   0  0  0  0  0  0  0  0  0  0  0  0
    1.6567   -2.8926    0.5103 C   0  0  0  0  0  0  0  0  0  0  0  0
    2.6131   -2.8635   -0.6965 C   0  0  0  0  0  0  0  0  0  0  0  0
    2.4560   -1.6452   -1.6190 C   0  0  0  0  0  0  0  0  0  0  0  0
   -0.6319   -2.7590    1.2209 C   0  0  0  0  0  0  0  0  0  0  0  0
   -2.0933   -2.6525    0.7682 C   0  0  0  0  0  0  0  0  0  0  0  0
    1.8501   -4.1793    1.3133 C   0  0  0  0  0  0  0  0  0  0  0  0
    2.7567   -0.3286   -0.9481 C   0  0  0  0  0  0  0  0  0  0  0  0
   -2.3329   -1.3960   -0.0399 C   0  0  0  0  0  0  0  0  0  0  0  0
    1.7287    0.3617   -0.3183 C   0  0  0  0  0  0  0  0  0  0  0  0
    4.0646    0.1654   -0.9762 C   0  0  0  0  0  0  0  0  0  0  0  0
    2.0525    1.5613    0.2813 C   0  0  0  0  0  0  0  0  0  0  0  0
    3.3356    2.0583    0.2606 C   0  0  0  0  0  0  0  0  0  0  0  0
   -2.6657   -0.2232    0.6155 C   0  0  0  0  0  0  0  0  0  0  0  0
    4.3657    1.3829   -0.3611 C   0  0  0  0  0  0  0  0  0  0  0  0
   -2.2152   -1.4473   -1.4180 C   0  0  0  0  0  0  0  0  0  0  0  0
   -2.8877    0.9344   -0.1303 C   0  0  0  0  0  0  0  0  0  0  0  0
   -2.4370   -0.2896   -2.1639 C   0  0  0  0  0  0  0  0  0  0  0  0
    2.0763    3.4499    1.3371 C   0  0  0  0  0  0  0  0  0  0  0  0
   -2.7732    0.9013   -1.5201 C   0  0  0  0  0  0  0  0  0  0  0  0
   -3.2388    2.1669    0.5612 C   0  0  0  0  0  0  0  0  0  0  0  0
  1 12  1  0
  2 18  1  0
  2 25  1  0
  3 19  1  0
  3 25  1  0
  4 26  1  0
  5 27  2  0
  6  8  1  0
  6 11  1  0
  7 27  1  0
  8  9  1  0
  8 13  1  0
  9 10  1  0
 10 14  1  0
 11 12  1  0
 12 15  1  0
 14 16  1  0
 14 17  2  0
 15 20  2  0
 15 22  1  0
 16 18  2  0
 17 21  1  0
 18 19  1  0
 19 21  2  0
 20 23  1  0
 22 24  2  0
 23 26  2  0
 23 27  1  0
 24 26  1  0
M  END
>  <PUBCHEM_COMPOUND_CID>  (1) 
41835

>  <PUBCHEM_CONFORMER_RMSD>  (1) 
1.2

>  <PUBCHEM_CONFORMER_DIVERSEORDER>  (1) 
6
540
557
41
185
434
57
489
134
32
108
403
89
525
190
279
274
322
13
12
36
372
16
82
349
66
1
409
193
527
328
413
3
11
501
378
423
484
201
151
221
544
15
153
337
9
475
38
239
214
17
336
273
21
116
288
168
45
44
364
514
75
300
265
51
486
521
128
99
192
394
28
454
165
129
307
386
93
253
4
126
344
98
452
392
71
227
52
31
338
282
259
228
183
33
24
351
411
81
524
37
178
58
313
316
548
137
39
451
47
7
160
104
110
304
117
412
26
53
96
379
55
496
381
314
247
487
106
240
382
65
325
530
30
2
243
149
495
504
118
114
182
27
513
246
8
455
25
541
10
20
459
119
150
5
23
169
371
391
101
267
542
291
40
48
14
197
46

>  <PUBCHEM_MMFF94_PARTIAL_CHARGES>  (1) 
36
1 -0.68
10 0.14
11 0.27
12 0.42
14 -0.14
15 -0.14
16 -0.15
17 -0.15
18 0.08
19 0.08
2 -0.36
20 -0.15
21 -0.15
22 -0.15
23 0.09
24 -0.15
25 0.56
26 0.08
27 0.54
3 -0.36
33 0.36
4 -0.53
40 0.15
41 0.15
42 0.15
43 0.15
44 0.15
45 0.4
46 0.15
49 0.45
5 -0.57
50 0.37
51 0.37
6 -0.9
7 -0.8
8 0.27

>  <PUBCHEM_EFFECTIVE_ROTOR_COUNT>  (1) 
8.6

>  <PUBCHEM_PHARMACOPHORE_FEATURES>  (1) 
12
1 1 acceptor
1 1 donor
1 2 acceptor
1 3 acceptor
1 4 donor
1 5 acceptor
1 6 cation
1 6 donor
1 7 donor
5 2 3 18 19 25 rings
6 14 16 17 18 19 21 rings
6 15 20 22 23 24 26 rings

>  <PUBCHEM_HEAVY_ATOM_COUNT>  (1) 
27

>  <PUBCHEM_ATOM_DEF_STEREO_COUNT>  (1) 
0

>  <PUBCHEM_ATOM_UDEF_STEREO_COUNT>  (1) 
2

>  <PUBCHEM_BOND_DEF_STEREO_COUNT>  (1) 
0

>  <PUBCHEM_BOND_UDEF_STEREO_COUNT>  (1) 
0

>  <PUBCHEM_ISOTOPIC_ATOM_COUNT>  (1) 
0

>  <PUBCHEM_COMPONENT_COUNT>  (1) 
1

>  <PUBCHEM_CACTVS_TAUTO_COUNT>  (1) 
7

>  <PUBCHEM_CONFORMER_ID>  (1) 
0000A36B00000006

>  <PUBCHEM_MMFF94_ENERGY>  (1) 
67.9231

>  <PUBCHEM_FEATURE_SELFOVERLAP>  (1) 
61.054

>  <PUBCHEM_SHAPE_FINGERPRINT>  (1) 
10165383 225 17897751793495958319
10366900 7 18339644567390041030
10721379 63 17397210082103544957
1100329 8 18121225277321690450
12156800 1 9955629038617804602
12553582 1 17837207078507231718
13122387 1 18194966240461550900
13402501 40 18123757722850634106
1361 2 16977847915911528231
14279260 333 18054812615242151950
14725015 67 18124300872851781946
14955137 171 17762342409972791979
15664445 248 16550535830248532519
19930381 70 17910111648717721603
20764821 26 18339086002793660872
21315764 21 17608641717737391213
23536364 44 17982771582360181718
238 59 18128237055897166046
3187 122 17679869490155875675
35225 105 17323473808123426042
3524813 1 18194414509094789978
445580 8 17120296832585689113
469060 322 17678756741470425363
5081480 168 16412146679254396196
508180 173 16744759769895217871
5252454 2 18187940425478979750
5895379 119 17701532901237715690
7226269 152 18192713346185910630
9981440 41 18054200366566838480

>  <PUBCHEM_SHAPE_MULTIPOLES>  (1) 
516.34
7.73
5.34
1.77
0.47
1.32
0.57
-4.55
0.84
1.65
-2.95
-1
0.2
1.17

>  <PUBCHEM_SHAPE_SELFOVERLAP>  (1) 
1105.889

>  <PUBCHEM_SHAPE_VOLUME>  (1) 
286.2

>  <PUBCHEM_COORDINATE_TYPE>  (1) 
2
5
10

$$$$
