41837
     RDKit          3D

 14 13  0  0  1  0  0  0  0  0999 V2000
    1.5644   -1.5507    0.3025 C   0  0  0  0  0  0  0  0  0  0  0  0
    0.0965   -1.7209   -0.1493 C   0  0  0  0  0  0  0  0  0  0  0  0
    2.1860   -0.2465   -0.2454 C   0  0  0  0  0  0  0  0  0  0  0  0
   -0.8243   -0.5766    0.2869 C   0  0  0  0  0  0  0  0  0  0  0  0
    3.6358   -0.0187    0.2064 C   0  0  0  0  0  0  0  0  0  0  0  0
    4.3019    1.2605   -0.3398 C   0  0  0  0  0  0  0  0  0  0  0  0
   -2.2740   -0.8457   -0.1252 C   0  0  0  0  0  0  0  0  0  0  0  0
    2.3605   -2.7884   -0.1286 C   0  0  0  0  0  0  0  0  0  0  0  0
   -3.1916    0.3093    0.2798 C   0  0  0  0  0  0  0  0  0  0  0  0
   -4.6337    0.0551   -0.1619 C   0  0  0  0  0  0  0  0  0  0  0  0
    5.7660    1.3836    0.0829 C   0  0  0  0  0  0  0  0  0  0  0  0
    3.5290    2.5253    0.0331 C   0  0  0  0  0  0  0  0  0  0  0  0
   -5.5444    1.2239    0.2129 C   0  0  0  0  0  0  0  0  0  0  0  0
   -6.9720    0.9899   -0.2542 C   0  0  0  0  0  0  0  0  0  0  0  0
  1  2  1  0
  1  3  1  0
  1  8  1  0
  2  4  1  0
  3  5  1  0
  4  7  1  0
  5  6  1  0
  6 11  1  0
  6 12  1  0
  7  9  1  0
  9 10  1  0
 10 13  1  0
 13 14  1  0
M  END
>  <PUBCHEM_COMPOUND_CID>  (1) 
41837

>  <PUBCHEM_CONFORMER_RMSD>  (1) 
0.8

>  <PUBCHEM_CONFORMER_DIVERSEORDER>  (1) 
1
206
58
148
67
122
20
178
14
4
162
18
169
7
73
164
116
142
37
196
83
46
84
45
13
128
100
96
185
176
54
87
131
94
190
29
99
52
155
17
120
130
124
93
138
60
174
89
49
117
12
98
127
109
22
168
201
181
23
167
105
65
35
11
40
154
112
150
10
119
156
32
137
188
24
139
192
64
158
195
51
21
71
111
61
114
26
88
204
107
198
166
115
66
146
25
126
82
76
27
38
179
79
19
31
132
157
106
123
86
91
184
47
160
141
199
50
28
30
163
53
57
103
62
56
33
180
15
136
182
172
144
202
77
177
203
81
187
41
102
134
55
34
3
72
104
129
145
80
16
118
125
90
153
78
194
6
70
101
149
205
140
197
69
200
95
191
133
43
108
8
175
97
42
75
110
147
151
193
9
171
135
48
170
2
161
85
44
152
186
5
74
183
159
63
68
59
92
165
36
173
143
39
121
113
189

>  <PUBCHEM_MMFF94_PARTIAL_CHARGES>  (1) 
0

>  <PUBCHEM_EFFECTIVE_ROTOR_COUNT>  (1) 
9

>  <PUBCHEM_PHARMACOPHORE_FEATURES>  (1) 
3
1 14 hydrophobe
1 8 hydrophobe
3 6 11 12 hydrophobe

>  <PUBCHEM_HEAVY_ATOM_COUNT>  (1) 
14

>  <PUBCHEM_ATOM_DEF_STEREO_COUNT>  (1) 
0

>  <PUBCHEM_ATOM_UDEF_STEREO_COUNT>  (1) 
1

>  <PUBCHEM_BOND_DEF_STEREO_COUNT>  (1) 
0

>  <PUBCHEM_BOND_UDEF_STEREO_COUNT>  (1) 
0

>  <PUBCHEM_ISOTOPIC_ATOM_COUNT>  (1) 
0

>  <PUBCHEM_COMPONENT_COUNT>  (1) 
1

>  <PUBCHEM_CACTVS_TAUTO_COUNT>  (1) 
1

>  <PUBCHEM_CONFORMER_ID>  (1) 
0000A36D00000001

>  <PUBCHEM_MMFF94_ENERGY>  (1) 
6.4136

>  <PUBCHEM_FEATURE_SELFOVERLAP>  (1) 
15.223

>  <PUBCHEM_SHAPE_FINGERPRINT>  (1) 
100836 57 18335143119852580132
10411042 1 17834113044640788706
122479 349 18190182471991712522
12596602 18 13406790025853179228
12616999 72 16630528397260615935
12769317 202 18411971460167490480
13685833 64 9871748001067743493
13955234 65 18043530512890817835
14123255 52 18339643442441106670
14123256 34 8862948302791582000
14251732 16 18408325510703009627
14455015 7 11023818497044812581
14461889 52 18113625620744235315
14528608 73 18343862230060199381
14774955 27 18410290315836816573
15048467 5 18411418406425094669
15342168 16 18335703870571671751
16079462 125 17603858971960002565
17810953 82 18261115222437313900
17834072 32 18337954614029104052
17834072 33 18343860018415915919
18335252 114 18341607097056824804
20157964 124 18410292472111021463
20526848 3 18410859871281673053
20605781 2 18408886239372114865
20621476 66 18263646320285711492
20645477 56 18186240624079844951
20645477 70 18198624337486436959
21150785 3 18202556299105470293
212847 35 18412541024960949824
21452121 103 18261391109418322738
22896161 15 18410293636690834291
23016692 55 9007064599184869104
23272321 79 18410012161318283375
23402655 69 18273493485434428303
23532345 1 18409452470454002571
23590187 49 18409730681244810679
270888 7 18265615558179546404
2916195 48 18040997320157713857
3060560 45 15985099717522099630
3472631 163 18271809063659008205
449060 50 18334858307812972023
449060 62 18413107255805323738
465052 167 8430313558405230537
474 4 18409169934683406936
5104073 3 18186809050216913283
59682541 52 17560537122703462452
6025842 7 18270963444733755695
77188 2 17761209917549943978

>  <PUBCHEM_SHAPE_MULTIPOLES>  (1) 
288.11
15.41
2.52
0.66
18.78
0.55
0
-11.81
-0.6
-3.25
-0.06
0.01
0
-0.05

>  <PUBCHEM_SHAPE_SELFOVERLAP>  (1) 
515.106

>  <PUBCHEM_SHAPE_VOLUME>  (1) 
188.9

>  <PUBCHEM_COORDINATE_TYPE>  (1) 
2
5
10

$$$$
