4183
     RDKit          3D

 17 17  0  0  1  0  0  0  0  0999 V2000
   -3.1617   -0.6862   -0.2928 S   0  0  0  0  0  0  0  0  0  0  0  0
    4.0080    0.8624    0.9035 O   0  0  0  0  0  0  0  0  0  0  0  0
   -0.8067    1.9487   -0.7323 O   0  0  0  0  0  0  0  0  0  0  0  0
   -2.2146    0.1017    0.7954 O   0  0  0  0  0  0  0  0  0  0  0  0
    3.3315   -1.6184   -1.6962 O   0  0  0  0  0  0  0  0  0  0  0  0
   -4.6768   -0.2226    0.0997 O   0  0  0  0  0  0  0  0  0  0  0  0
   -2.8718   -0.1836   -1.6230 O   0  0  0  0  0  0  0  0  0  0  0  0
   -3.0586   -2.1075   -0.0173 O   0  0  0  0  0  0  0  0  0  0  0  0
    3.3950   -0.2976    0.3271 C   0  0  0  0  0  0  0  0  0  0  0  0
    1.9126   -0.1898    0.4486 C   0  0  0  0  0  0  0  0  0  0  0  0
    1.2325    0.8379   -0.2048 C   0  0  0  0  0  0  0  0  0  0  0  0
    1.2062   -1.1160    1.2161 C   0  0  0  0  0  0  0  0  0  0  0  0
   -0.1539    0.9395   -0.0908 C   0  0  0  0  0  0  0  0  0  0  0  0
    3.8762   -0.4372   -1.1254 C   0  0  0  0  0  0  0  0  0  0  0  0
   -0.8604    0.0134    0.6766 C   0  0  0  0  0  0  0  0  0  0  0  0
   -0.1803   -1.0143    1.3301 C   0  0  0  0  0  0  0  0  0  0  0  0
   -0.9771    3.1694   -0.0147 C   0  0  0  0  0  0  0  0  0  0  0  0
  1  4  1  0
  1  6  1  0
  1  7  2  0
  1  8  2  0
  2  9  1  0
  3 13  1  0
  3 17  1  0
  4 15  1  0
  5 14  1  0
  9 10  1  0
  9 14  1  0
 10 11  2  0
 10 12  1  0
 11 13  1  0
 12 16  2  0
 13 15  2  0
 15 16  1  0
M  END
>  <PUBCHEM_COMPOUND_CID>  (1) 
4183

>  <PUBCHEM_CONFORMER_RMSD>  (1) 
0.6

>  <PUBCHEM_CONFORMER_DIVERSEORDER>  (1) 
1
34
57
70
25
51
69
68
49
54
53
72
74
50
31
44
66
73
45
40
21
75
41
67
56
52
46
43
48
12
77
22
64
23
30
15
65
28
24
18
63
71
11
55
62
42
39
16
19
58
26
14
37
20
38
33
76
36
35
4
17
10
32
27
60
13
61
9
29
7
6
59
2
47
5
8
3

>  <PUBCHEM_MMFF94_PARTIAL_CHARGES>  (1) 
23
1 1.67
10 -0.14
11 -0.15
12 -0.15
13 0.08
14 0.28
15 0.08
16 -0.15
17 0.28
19 0.15
2 -0.68
20 0.15
23 0.15
24 0.4
25 0.4
29 0.5
3 -0.36
4 -0.27
5 -0.68
6 -0.68
7 -0.65
8 -0.65
9 0.42

>  <PUBCHEM_EFFECTIVE_ROTOR_COUNT>  (1) 
5

>  <PUBCHEM_PHARMACOPHORE_FEATURES>  (1) 
10
1 2 acceptor
1 2 donor
1 3 acceptor
1 5 acceptor
1 5 donor
1 6 acceptor
1 7 acceptor
1 8 acceptor
4 1 6 7 8 anion
6 10 11 12 13 15 16 rings

>  <PUBCHEM_HEAVY_ATOM_COUNT>  (1) 
17

>  <PUBCHEM_ATOM_DEF_STEREO_COUNT>  (1) 
0

>  <PUBCHEM_ATOM_UDEF_STEREO_COUNT>  (1) 
1

>  <PUBCHEM_BOND_DEF_STEREO_COUNT>  (1) 
0

>  <PUBCHEM_BOND_UDEF_STEREO_COUNT>  (1) 
0

>  <PUBCHEM_ISOTOPIC_ATOM_COUNT>  (1) 
0

>  <PUBCHEM_COMPONENT_COUNT>  (1) 
1

>  <PUBCHEM_CACTVS_TAUTO_COUNT>  (1) 
1

>  <PUBCHEM_CONFORMER_ID>  (1) 
0000105700000001

>  <PUBCHEM_MMFF94_ENERGY>  (1) 
48.3617

>  <PUBCHEM_FEATURE_SELFOVERLAP>  (1) 
50.808

>  <PUBCHEM_SHAPE_FINGERPRINT>  (1) 
11206711 2 18041000596505721284
11769659 78 17132115714963905446
12202030 40 17202749407025979438
12251169 10 11023817366978023994
12670546 177 18042415792635588254
14252887 29 18343588476917943115
14289901 80 16917065590014386634
16945 1 18113909251393192192
18186145 218 18040995180361836045
21501502 16 17899131620680853458
22485316 2 16630522951168205091
22620623 9 18200877249437812485
228727 97 17968376762405795640
23402539 116 18261944224344899266
23557571 272 18343016658310846672
23559900 14 17917428761414513530
25147074 1 17679019292805132778
2748010 2 17825967088969131072
353137 74 17822842087844333561
449060 23 18342457053836132087
465052 167 14045457899324240407
7364860 26 17907857654228372273
7495541 125 15864360202561189489
8030462 33 17895480219969333610
81228 2 18261684679112967272

>  <PUBCHEM_SHAPE_MULTIPOLES>  (1) 
312.62
7.05
2.11
1.29
0.11
1.67
-0.3
-2.37
-1.82
-1.03
-0.07
0.6
-0.42
0.42

>  <PUBCHEM_SHAPE_SELFOVERLAP>  (1) 
631.929

>  <PUBCHEM_SHAPE_VOLUME>  (1) 
184.3

>  <PUBCHEM_COORDINATE_TYPE>  (1) 
2
5
10

$$$$
