41843
     RDKit          3D

 12 11  0  0  0  0  0  0  0  0999 V2000
   -4.6263   -0.2551    0.4564 O   0  0  0  0  0  0  0  0  0  0  0  0
   -3.2437   -0.9390   -1.2108 O   0  0  0  0  0  0  0  0  0  0  0  0
    2.0473    2.4394   -0.8215 O   0  0  0  0  0  0  0  0  0  0  0  0
    1.4472    0.6179    0.0565 N   0  0  0  0  0  0  0  0  0  0  0  0
    2.2788    1.6432    0.0964 N   0  0  0  0  0  0  0  0  0  0  0  0
    0.1673    0.8518    0.7162 C   0  0  0  0  0  0  0  0  0  0  0  0
   -0.9538    0.1311   -0.0337 C   0  0  0  0  0  0  0  0  0  0  0  0
    2.0693   -0.6009    0.5924 C   0  0  0  0  0  0  0  0  0  0  0  0
    2.9586   -1.2968   -0.4309 C   0  0  0  0  0  0  0  0  0  0  0  0
   -2.3181    0.3394    0.6166 C   0  0  0  0  0  0  0  0  0  0  0  0
    3.5897   -2.5725    0.1089 C   0  0  0  0  0  0  0  0  0  0  0  0
   -3.4164   -0.3586   -0.1465 C   0  0  0  0  0  0  0  0  0  0  0  0
  1 12  1  0
  2 12  2  0
  3  5  2  0
  4  5  1  0
  4  6  1  0
  4  8  1  0
  6  7  1  0
  7 10  1  0
  8  9  1  0
  9 11  1  0
 10 12  1  0
M  END
>  <PUBCHEM_COMPOUND_CID>  (1) 
41843

>  <PUBCHEM_CONFORMER_RMSD>  (1) 
0.8

>  <PUBCHEM_CONFORMER_DIVERSEORDER>  (1) 
1
56
37
33
105
101
84
2
103
66
93
120
49
92
54
147
9
145
110
53
100
44
38
31
40
88
87
71
4
144
74
146
48
143
107
122
47
34
91
50
102
18
22
108
94
35
79
72
95
15
138
116
85
131
36
70
12
130
89
29
65
41
121
117
98
5
127
25
132
75
125
140
11
137
134
141
3
114
46
109
77
149
64
23
17
67
119
39
24
30
73
14
148
99
8
142
20
52
63
51
129
13
59
7
69
123
16
126
112
118
6
42
90
61
81
104
115
32
19
62
80
26
97
86
128
21
136
76
45
113
27
57
60
28
139
68
83
96
10
111
43
106
135
58
82
133
78
55
124

>  <PUBCHEM_MMFF94_PARTIAL_CHARGES>  (1) 
10
1 -0.65
10 0.06
12 0.66
2 -0.57
26 0.5
3 -0.16
4 -0.36
5 -0.01
6 0.27
8 0.27

>  <PUBCHEM_EFFECTIVE_ROTOR_COUNT>  (1) 
7

>  <PUBCHEM_PHARMACOPHORE_FEATURES>  (1) 
4
1 1 acceptor
1 11 hydrophobe
1 2 acceptor
3 1 2 12 anion

>  <PUBCHEM_HEAVY_ATOM_COUNT>  (1) 
12

>  <PUBCHEM_ATOM_DEF_STEREO_COUNT>  (1) 
0

>  <PUBCHEM_ATOM_UDEF_STEREO_COUNT>  (1) 
0

>  <PUBCHEM_BOND_DEF_STEREO_COUNT>  (1) 
0

>  <PUBCHEM_BOND_UDEF_STEREO_COUNT>  (1) 
0

>  <PUBCHEM_ISOTOPIC_ATOM_COUNT>  (1) 
0

>  <PUBCHEM_COMPONENT_COUNT>  (1) 
1

>  <PUBCHEM_CACTVS_TAUTO_COUNT>  (1) 
1

>  <PUBCHEM_CONFORMER_ID>  (1) 
0000A37300000001

>  <PUBCHEM_MMFF94_ENERGY>  (1) 
11.925

>  <PUBCHEM_FEATURE_SELFOVERLAP>  (1) 
20.355

>  <PUBCHEM_SHAPE_FINGERPRINT>  (1) 
12932764 1 17774723177247102745
14251717 144 18409167714523067746
14350558 41 17917994949298645338
15477762 27 18409450276089522618
177051 138 17917709080570423363
18186145 218 17748821917401610833
19422 9 18343867744872183795
20281475 54 18272649091128099987
20645477 70 18335696161422145907
20671657 53 18335141930046379842
20708731 107 18335145306096428844
20871998 22 18338230449951060618
21499 59 17975133454832941724
2255824 54 18410015450804445654
23532345 12 18201722791238594401
23532345 88 18410849979829098252
23557571 272 17023465369189532517
23598291 2 18268165179019177193
3248919 1 18335133254318021729
7364860 26 18341894130016556976
81539 233 18042687376687698684

>  <PUBCHEM_SHAPE_MULTIPOLES>  (1) 
219.38
7.65
2.13
0.87
5.35
0.41
0.08
-4.45
0.34
-3.1
0.41
0.22
0.01
-0.59

>  <PUBCHEM_SHAPE_SELFOVERLAP>  (1) 
407.135

>  <PUBCHEM_SHAPE_VOLUME>  (1) 
138.5

>  <PUBCHEM_COORDINATE_TYPE>  (1) 
2
5
10

$$$$
