41848
     RDKit          3D

 18 18  0  0  1  0  0  0  0  0999 V2000
   -3.4534   -2.5076    0.6965 F   0  0  0  0  0  0  0  0  0  0  0  0
    1.0379   -0.6080   -2.2241 O   0  0  0  0  0  0  0  0  0  0  0  0
    3.2583   -0.4787   -0.3974 N   0  0  0  0  0  0  0  0  0  0  0  0
   -4.4847    0.0533    0.7150 N   0  0  0  0  0  0  0  0  0  0  0  0
   -3.1645    3.3163   -0.0962 N   0  0  0  0  0  0  0  0  0  0  0  0
    4.2101    0.2624    0.4367 C   0  0  0  0  0  0  0  0  0  0  0  0
    1.8929   -0.1986    0.0135 C   0  0  0  0  0  0  0  0  0  0  0  0
    0.8927   -0.9741   -0.8525 C   0  0  0  0  0  0  0  0  0  0  0  0
    5.6305   -0.0570   -0.0412 C   0  0  0  0  0  0  0  0  0  0  0  0
    3.9286    1.7610    0.2844 C   0  0  0  0  0  0  0  0  0  0  0  0
    4.0395   -0.1596    1.9008 C   0  0  0  0  0  0  0  0  0  0  0  0
   -0.5346   -0.6931   -0.4367 C   0  0  0  0  0  0  0  0  0  0  0  0
   -0.9983    0.6110   -0.4471 C   0  0  0  0  0  0  0  0  0  0  0  0
   -1.3465   -1.7475   -0.0555 C   0  0  0  0  0  0  0  0  0  0  0  0
   -2.3145    0.8690   -0.0644 C   0  0  0  0  0  0  0  0  0  0  0  0
   -2.6629   -1.4895    0.3272 C   0  0  0  0  0  0  0  0  0  0  0  0
   -3.1468   -0.1812    0.3229 C   0  0  0  0  0  0  0  0  0  0  0  0
   -2.7844    2.2218   -0.0819 C   0  0  0  0  0  0  0  0  0  0  0  0
  1 16  1  0
  2  8  1  0
  3  6  1  0
  3  7  1  0
  4 17  1  0
  5 18  3  0
  6  9  1  0
  6 10  1  0
  6 11  1  0
  7  8  1  0
  8 12  1  0
 12 13  2  0
 12 14  1  0
 13 15  1  0
 14 16  2  0
 15 17  2  0
 15 18  1  0
 16 17  1  0
M  END
>  <PUBCHEM_COMPOUND_CID>  (1) 
41848

>  <PUBCHEM_CONFORMER_RMSD>  (1) 
0.6

>  <PUBCHEM_CONFORMER_DIVERSEORDER>  (1) 
1
31
16
6
13
19
10
8
25
26
14
18
15
27
5
22
2
28
7
24
3
11
9
29
23
21
30
4
12
20
17

>  <PUBCHEM_MMFF94_PARTIAL_CHARGES>  (1) 
21
1 -0.19
12 -0.14
13 -0.15
14 -0.15
15 0.07
16 0.19
17 0.1
18 0.48
19 0.36
2 -0.68
3 -0.9
32 0.15
33 0.15
34 0.4
35 0.4
36 0.4
4 -0.9
5 -0.56
6 0.27
7 0.27
8 0.42

>  <PUBCHEM_EFFECTIVE_ROTOR_COUNT>  (1) 
4

>  <PUBCHEM_PHARMACOPHORE_FEATURES>  (1) 
9
1 2 acceptor
1 2 donor
1 3 cation
1 3 donor
1 4 cation
1 4 donor
1 5 acceptor
4 6 9 10 11 hydrophobe
6 12 13 14 15 16 17 rings

>  <PUBCHEM_HEAVY_ATOM_COUNT>  (1) 
18

>  <PUBCHEM_ATOM_DEF_STEREO_COUNT>  (1) 
0

>  <PUBCHEM_ATOM_UDEF_STEREO_COUNT>  (1) 
1

>  <PUBCHEM_BOND_DEF_STEREO_COUNT>  (1) 
0

>  <PUBCHEM_BOND_UDEF_STEREO_COUNT>  (1) 
0

>  <PUBCHEM_ISOTOPIC_ATOM_COUNT>  (1) 
0

>  <PUBCHEM_COMPONENT_COUNT>  (1) 
1

>  <PUBCHEM_CACTVS_TAUTO_COUNT>  (1) 
1

>  <PUBCHEM_CONFORMER_ID>  (1) 
0000A37800000001

>  <PUBCHEM_MMFF94_ENERGY>  (1) 
46.6213

>  <PUBCHEM_FEATURE_SELFOVERLAP>  (1) 
45.673

>  <PUBCHEM_SHAPE_FINGERPRINT>  (1) 
10319926 262 18339071602243142698
10366900 7 18337383945887888706
10608611 8 18342741771470797348
11543360 7 10591752221386738914
12077114 3 18342452625735262988
12107183 9 17828754046245530138
12236239 1 17385445423001669662
122479 349 18270957942969852388
12251169 10 18334013904109503420
12390115 104 18127426565873197001
12596602 18 17385729135677577344
12633257 1 18412552023918871697
12707595 3 13479132415183160910
12892183 10 18334288803823898650
13140716 1 18191883412406214067
13214271 11 18201721781963542807
13296909 8 18040712554555488509
13533116 47 17894901906485800586
13675066 3 18059850688899119738
13965767 371 17391357299567073821
14178342 30 18114753646069129423
14289901 80 18334858337814394314
14341114 176 18334581260958073552
14420673 8 18119245061534177666
15042514 8 18264776626460007467
15099037 37 18411703226922957127
15219456 202 18059300872402074790
16945 1 18263947496145176327
1813 80 16226334707787718814
18186145 218 15913326931587593026
18915476 22 17130997451324124039
200 152 14707201136901206678
20432913 95 15285356206769102856
20510252 161 18341900628386394017
20645477 56 18271812297938050191
20645477 70 16773242782222328206
21033648 29 17703214162259974912
21065198 48 18113892758956191266
21065198 57 18410855434912512326
21065199 12 18411697703816450202
21650355 55 18263928907305419947
21652331 79 18268146633703794840
22079108 93 15410338883088966247
22182937 141 18271813363169600457
23402539 116 18340761633208824415
23503958 25 18201711899381074976
23557571 272 18271254836742064229
23559900 14 18269559326078692158
27216 239 18343861125963583705
2748010 2 17830478089394968559
4214541 1 18409166589252198736
474 4 14692567767102303906
5104073 3 18338515343595204056
573450 72 18114453500979956898
7097593 13 17897711081833496298
7615 1 17458639941937475271
77779 3 18408603673922116970
90316 7 17531243911671621988

>  <PUBCHEM_SHAPE_MULTIPOLES>  (1) 
342.35
10.08
2.33
1.16
9.35
1.39
-0.12
1.96
2.98
-3.3
0.08
0.85
-0.29
0.62

>  <PUBCHEM_SHAPE_SELFOVERLAP>  (1) 
704.041

>  <PUBCHEM_SHAPE_VOLUME>  (1) 
199.4

>  <PUBCHEM_COORDINATE_TYPE>  (1) 
2
5
10

$$$$
