41852
     RDKit          3D

 24 25  0  0  0  0  0  0  0  0999 V2000
    3.4456   -1.0788    0.3045 N   0  0  0  0  0  0  0  0  0  0  0  0
   -3.4345   -1.0787   -0.3046 N   0  0  0  0  0  0  0  0  0  0  0  0
    5.4771    0.2993    0.1146 C   0  0  0  0  0  0  0  0  0  0  0  0
   -5.4876    0.2976   -0.1152 C   0  0  0  0  0  0  0  0  0  0  0  0
    7.0050    0.3986    0.1645 C   0  0  0  0  0  0  0  0  0  0  0  0
   -7.0155    0.3958   -0.1656 C   0  0  0  0  0  0  0  0  0  0  0  0
    4.9000   -1.0784    0.4330 C   0  0  0  0  0  0  0  0  0  0  0  0
   -4.9093   -1.0791   -0.4354 C   0  0  0  0  0  0  0  0  0  0  0  0
    7.5372    1.7787   -0.2275 C   0  0  0  0  0  0  0  0  0  0  0  0
   -7.5490    1.7750    0.2282 C   0  0  0  0  0  0  0  0  0  0  0  0
    9.0563    1.8509   -0.0669 C   0  0  0  0  0  0  0  0  0  0  0  0
   -9.0680    1.8462    0.0673 C   0  0  0  0  0  0  0  0  0  0  0  0
    0.7260   -1.0789    0.0640 C   0  0  0  0  0  0  0  0  0  0  0  0
   -0.7149   -1.0785   -0.0635 C   0  0  0  0  0  0  0  0  0  0  0  0
    2.7023   -0.7756    1.3774 C   0  0  0  0  0  0  0  0  0  0  0  0
   -2.8911   -1.3835    0.8817 C   0  0  0  0  0  0  0  0  0  0  0  0
    2.9021   -1.3821   -0.8822 C   0  0  0  0  0  0  0  0  0  0  0  0
   -2.6910   -0.7738   -1.3769 C   0  0  0  0  0  0  0  0  0  0  0  0
    1.3178   -0.7677    1.2845 C   0  0  0  0  0  0  0  0  0  0  0  0
   -1.5119   -1.3915    1.0336 C   0  0  0  0  0  0  0  0  0  0  0  0
    1.5228   -1.3901   -1.0338 C   0  0  0  0  0  0  0  0  0  0  0  0
   -1.3066   -0.7657   -1.2837 C   0  0  0  0  0  0  0  0  0  0  0  0
    9.5878    3.2330   -0.4116 C   0  0  0  0  0  0  0  0  0  0  0  0
   -9.6007    3.2274    0.4137 C   0  0  0  0  0  0  0  0  0  0  0  0
  1  7  1  0
  1 15  2  0
  1 17  1  0
  2  8  1  0
  2 16  2  0
  2 18  1  0
  3  5  1  0
  3  7  1  0
  4  6  1  0
  4  8  1  0
  5  9  1  0
  6 10  1  0
  9 11  1  0
 10 12  1  0
 11 23  1  0
 12 24  1  0
 13 14  1  0
 13 19  2  0
 13 21  1  0
 14 20  2  0
 14 22  1  0
 15 19  1  0
 16 20  1  0
 17 21  2  0
 18 22  2  0
M  CHG  2   1   1   2   1
M  END
>  <PUBCHEM_COMPOUND_CID>  (1) 
41852

>  <PUBCHEM_CONFORMER_RMSD>  (1) 
1.2

>  <PUBCHEM_CONFORMER_DIVERSEORDER>  (1) 
1
5
13
21
7
9
8
6
24
4
22
20
23
12
14
2
26
16
11
17
3
19
25
15
18
10

>  <PUBCHEM_MMFF94_PARTIAL_CHARGES>  (1) 
20
1 -0.21
15 0.21
16 0.21
17 0.21
18 0.21
19 -0.15
2 -0.21
20 -0.15
21 -0.15
22 -0.15
45 0.15
46 0.15
47 0.15
48 0.15
49 0.15
50 0.15
51 0.15
52 0.15
7 0.49
8 0.49

>  <PUBCHEM_EFFECTIVE_ROTOR_COUNT>  (1) 
11

>  <PUBCHEM_PHARMACOPHORE_FEATURES>  (1) 
6
1 23 hydrophobe
1 24 hydrophobe
4 3 5 9 11 hydrophobe
4 4 6 10 12 hydrophobe
6 1 13 15 17 19 21 rings
6 2 14 16 18 20 22 rings

>  <PUBCHEM_HEAVY_ATOM_COUNT>  (1) 
24

>  <PUBCHEM_ATOM_DEF_STEREO_COUNT>  (1) 
0

>  <PUBCHEM_ATOM_UDEF_STEREO_COUNT>  (1) 
0

>  <PUBCHEM_BOND_DEF_STEREO_COUNT>  (1) 
0

>  <PUBCHEM_BOND_UDEF_STEREO_COUNT>  (1) 
0

>  <PUBCHEM_ISOTOPIC_ATOM_COUNT>  (1) 
0

>  <PUBCHEM_COMPONENT_COUNT>  (1) 
1

>  <PUBCHEM_CACTVS_TAUTO_COUNT>  (1) 
1

>  <PUBCHEM_CONFORMER_ID>  (1) 
0000A37C00000001

>  <PUBCHEM_MMFF94_ENERGY>  (1) 
46.771

>  <PUBCHEM_FEATURE_SELFOVERLAP>  (1) 
30.449

>  <PUBCHEM_SHAPE_FINGERPRINT>  (1) 
10 15 14996283639450269110
10533779 47 16370994180479757552
106641 1 17458348542283178387
11181472 205 18200036118531182019
11386260 185 14764052489258469794
11607047 141 18042400224007323250
11607047 74 10735003176291896794
12592606 108 10015589406886092356
13530399 1 18410573993774132072
13668630 136 9511471022084347606
14251757 52 18411417315445203920
14617042 71 18261114097440731836
15198563 99 15123517973680203299
15347590 135 15719387317626832417
15690457 1 9511464420698800556
15706992 2 18261120676734003745
2026 5 10375607996637860468
20721686 146 18342459231221268365
21095123 293 18410855451623474261
21130991 4 9943811071284673052
21307412 95 13686291413867908437
21344244 246 10591776380388609372
23576562 1 16199285738233731121
24771293 8 18186801396416042247
3178227 256 14923951136633510815
3711267 37 18339655498066946105
4073 2 18411139130578018111
437795 150 13973097918853304269
5104073 3 15575575680638002435
5758199 1 17749105608539560202
59682541 35 15719112461199505957
636775 72 18408323268466850125
9953998 17 16950562220196778482

>  <PUBCHEM_SHAPE_MULTIPOLES>  (1) 
483.95
31.53
2.78
1.11
0.44
2.94
0
43.62
-0.01
-0.02
0
0
-0.42
-1.5

>  <PUBCHEM_SHAPE_SELFOVERLAP>  (1) 
977.259

>  <PUBCHEM_SHAPE_VOLUME>  (1) 
283.4

>  <PUBCHEM_COORDINATE_TYPE>  (1) 
2
5
10

$$$$
