41850
     RDKit          3D

 19 19  0  0  1  0  0  0  0  0999 V2000
    1.2697   -0.3296   -2.2907 O   0  0  0  0  0  0  0  0  0  0  0  0
    3.4441   -0.5914   -0.4232 N   0  0  0  0  0  0  0  0  0  0  0  0
   -4.2321    0.6252    0.6125 N   0  0  0  0  0  0  0  0  0  0  0  0
   -2.5767    3.7764    0.1420 N   0  0  0  0  0  0  0  0  0  0  0  0
   -4.2649   -2.9661    0.5991 N   0  0  0  0  0  0  0  0  0  0  0  0
    4.4410   -0.0290    0.4938 C   0  0  0  0  0  0  0  0  0  0  0  0
    2.1019   -0.2178   -0.0103 C   0  0  0  0  0  0  0  0  0  0  0  0
    1.0543   -0.8064   -0.9631 C   0  0  0  0  0  0  0  0  0  0  0  0
    5.8358   -0.4408    0.0112 C   0  0  0  0  0  0  0  0  0  0  0  0
    4.3095    1.4976    0.4808 C   0  0  0  0  0  0  0  0  0  0  0  0
    4.1924   -0.5675    1.9077 C   0  0  0  0  0  0  0  0  0  0  0  0
   -0.3496   -0.4263   -0.5462 C   0  0  0  0  0  0  0  0  0  0  0  0
   -1.2696   -1.4257   -0.2803 C   0  0  0  0  0  0  0  0  0  0  0  0
   -0.6838    0.9128   -0.4383 C   0  0  0  0  0  0  0  0  0  0  0  0
   -2.5636   -1.0755    0.1052 C   0  0  0  0  0  0  0  0  0  0  0  0
   -1.9777    1.2631   -0.0526 C   0  0  0  0  0  0  0  0  0  0  0  0
   -2.9177    0.2690    0.2193 C   0  0  0  0  0  0  0  0  0  0  0  0
   -2.3089    2.6527    0.0549 C   0  0  0  0  0  0  0  0  0  0  0  0
   -3.5042   -2.1207    0.3783 C   0  0  0  0  0  0  0  0  0  0  0  0
  1  8  1  0
  2  6  1  0
  2  7  1  0
  3 17  1  0
  4 18  3  0
  5 19  3  0
  6  9  1  0
  6 10  1  0
  6 11  1  0
  7  8  1  0
  8 12  1  0
 12 13  2  0
 12 14  1  0
 13 15  1  0
 14 16  2  0
 15 17  2  0
 15 19  1  0
 16 17  1  0
 16 18  1  0
M  END
>  <PUBCHEM_COMPOUND_CID>  (1) 
41850

>  <PUBCHEM_CONFORMER_RMSD>  (1) 
0.6

>  <PUBCHEM_CONFORMER_DIVERSEORDER>  (1) 
1
7
13
3
8
4
14
11
5
12
9
2
10
6

>  <PUBCHEM_MMFF94_PARTIAL_CHARGES>  (1) 
22
1 -0.68
12 -0.14
13 -0.15
14 -0.15
15 0.07
16 0.07
17 0.1
18 0.48
19 0.48
2 -0.9
20 0.36
3 -0.9
33 0.15
34 0.15
35 0.4
36 0.4
37 0.4
4 -0.56
5 -0.56
6 0.27
7 0.27
8 0.42

>  <PUBCHEM_EFFECTIVE_ROTOR_COUNT>  (1) 
4

>  <PUBCHEM_PHARMACOPHORE_FEATURES>  (1) 
10
1 1 acceptor
1 1 donor
1 2 cation
1 2 donor
1 3 cation
1 3 donor
1 4 acceptor
1 5 acceptor
4 6 9 10 11 hydrophobe
6 12 13 14 15 16 17 rings

>  <PUBCHEM_HEAVY_ATOM_COUNT>  (1) 
19

>  <PUBCHEM_ATOM_DEF_STEREO_COUNT>  (1) 
0

>  <PUBCHEM_ATOM_UDEF_STEREO_COUNT>  (1) 
1

>  <PUBCHEM_BOND_DEF_STEREO_COUNT>  (1) 
0

>  <PUBCHEM_BOND_UDEF_STEREO_COUNT>  (1) 
0

>  <PUBCHEM_ISOTOPIC_ATOM_COUNT>  (1) 
0

>  <PUBCHEM_COMPONENT_COUNT>  (1) 
1

>  <PUBCHEM_CACTVS_TAUTO_COUNT>  (1) 
1

>  <PUBCHEM_CONFORMER_ID>  (1) 
0000A37A00000001

>  <PUBCHEM_MMFF94_ENERGY>  (1) 
49.7094

>  <PUBCHEM_FEATURE_SELFOVERLAP>  (1) 
50.748

>  <PUBCHEM_SHAPE_FINGERPRINT>  (1) 
10319926 262 18341040814762760834
12107183 9 17757824529731533106
12236239 1 17603309236940384150
12293681 160 18124572229867426293
12390115 104 17984999097975834649
12507560 40 18270683043978416734
12596602 18 17968373546081777040
12633257 1 18341901783178968769
12892183 10 18410002252702287010
12930653 34 18340207392800505567
13140716 1 18338810021612774145
13214271 11 18273496784312066727
13583140 156 17988633078494823078
13675066 3 17989198244983353682
13955234 65 16896530785149340201
13965767 371 17320710352998547533
14178342 30 18262245421337062919
14289901 80 18335422357288414906
14341114 176 18408608050340992776
14420673 8 18049721824623737242
14787075 74 17899134090228967626
15042514 8 18409736192289582443
15099037 37 18413109485025303751
15806764 133 17774735199040003180
16945 1 18265917790890772301
17844677 252 18411143541656110728
1813 80 16443919241398870150
18186145 218 15410890791092321866
19433438 28 18272367603345589554
200 152 15791725312999425694
20510252 161 18342460343701875235
20645477 56 18267872692015292813
20645477 70 14345801552245758962
21033648 29 17560785607915033304
21065198 48 18187358823194566178
21065198 57 18339923702126708406
21065199 12 18341890792979844770
21065201 7 18340213986049811886
21304303 282 17974822031618644597
21650355 55 18337675316843639491
22079108 93 15123233302958322439
22182937 141 18201162027128589033
22943178 12 18059303045681867958
2297311 6 18341343266079897222
23366157 5 17609508468482546901
23402539 116 18272082859767359215
23419403 2 17975109235934047973
23503958 25 18130776881029640152
23557571 272 18200883872182437172
23559900 14 18270407062301989478
23845131 108 17691987972784982801
3009799 131 18264754610773880383
474 4 14333403484921898722
5104073 3 18413384354653264418
573450 72 18187357701833607602
6049 1 17701844136021553022
633830 44 14117802457486470062
7097593 13 17899120630023261818
7615 1 17676785226542284220

>  <PUBCHEM_SHAPE_MULTIPOLES>  (1) 
365.22
10.55
2.79
1.17
11.62
1.85
-0.19
-1.85
3.48
-4.93
0.46
1
-0.28
0.36

>  <PUBCHEM_SHAPE_SELFOVERLAP>  (1) 
753.121

>  <PUBCHEM_SHAPE_VOLUME>  (1) 
207.9

>  <PUBCHEM_COORDINATE_TYPE>  (1) 
2
5
10

$$$$
