41855
     RDKit          3D

  7  6  0  0  0  0  0  0  0  0999 V2000
   -3.3265    0.3613    0.2808 O   0  0  0  0  0  0  0  0  0  0  0  0
   -1.3128    0.2923   -0.2172 N   0  0  0  0  0  0  0  0  0  0  0  0
   -2.4259   -0.3775   -0.1302 N   0  0  0  0  0  0  0  0  0  0  0  0
    1.1345    0.3497   -0.0936 C   0  0  0  0  0  0  0  0  0  0  0  0
    2.3978   -0.4787    0.1434 C   0  0  0  0  0  0  0  0  0  0  0  0
   -0.1194   -0.5191   -0.0090 C   0  0  0  0  0  0  0  0  0  0  0  0
    3.6524    0.3720    0.0258 C   0  0  0  0  0  0  0  0  0  0  0  0
  1  3  2  0
  2  3  1  0
  2  6  1  0
  4  5  1  0
  4  6  1  0
  5  7  1  0
M  END
>  <PUBCHEM_COMPOUND_CID>  (1) 
41855

>  <PUBCHEM_CONFORMER_RMSD>  (1) 
0.6

>  <PUBCHEM_CONFORMER_DIVERSEORDER>  (1) 
1
15
25
31
24
19
12
30
21
13
5
11
18
8
27
16
22
3
26
17
20
23
28
29
14
9
7
2
4
10
6

>  <PUBCHEM_MMFF94_PARTIAL_CHARGES>  (1) 
5
1 -0.16
17 0.36
2 -0.45
3 -0.01
6 0.27

>  <PUBCHEM_EFFECTIVE_ROTOR_COUNT>  (1) 
4

>  <PUBCHEM_PHARMACOPHORE_FEATURES>  (1) 
2
1 2 donor
1 7 hydrophobe

>  <PUBCHEM_HEAVY_ATOM_COUNT>  (1) 
7

>  <PUBCHEM_ATOM_DEF_STEREO_COUNT>  (1) 
0

>  <PUBCHEM_ATOM_UDEF_STEREO_COUNT>  (1) 
0

>  <PUBCHEM_BOND_DEF_STEREO_COUNT>  (1) 
0

>  <PUBCHEM_BOND_UDEF_STEREO_COUNT>  (1) 
0

>  <PUBCHEM_ISOTOPIC_ATOM_COUNT>  (1) 
0

>  <PUBCHEM_COMPONENT_COUNT>  (1) 
1

>  <PUBCHEM_CACTVS_TAUTO_COUNT>  (1) 
2

>  <PUBCHEM_CONFORMER_ID>  (1) 
0000A37F00000001

>  <PUBCHEM_MMFF94_ENERGY>  (1) 
-2.4024

>  <PUBCHEM_FEATURE_SELFOVERLAP>  (1) 
10.148

>  <PUBCHEM_SHAPE_FINGERPRINT>  (1) 
11062470 55 17703791422722477656
12932764 1 16701728385155698662
14325111 11 18411699889464219262
14390081 3 18131347514136013768
5460574 1 10592044665403812390

>  <PUBCHEM_SHAPE_MULTIPOLES>  (1) 
128.23
5.96
0.74
0.6
0.46
0.03
0
-0.71
0.39
-0.13
0
-0.06
0
-0.07

>  <PUBCHEM_SHAPE_SELFOVERLAP>  (1) 
223.435

>  <PUBCHEM_SHAPE_VOLUME>  (1) 
85.3

>  <PUBCHEM_COORDINATE_TYPE>  (1) 
2
5
10

$$$$
