41856
     RDKit          3D

 16 18  0  0  0  0  0  0  0  0999 V2000
    1.6845    0.2451    0.3520 N   0  0  0  0  0  0  0  0  0  0  0  0
   -0.4298    1.1596    0.2710 N   0  0  0  0  0  0  0  0  0  0  0  0
   -1.7477    0.8957    0.1171 N   0  0  0  0  0  0  0  0  0  0  0  0
   -3.6486   -0.1568   -0.1882 N   0  0  0  0  0  0  0  0  0  0  0  0
   -3.9142    1.1889   -0.0462 N   0  0  0  0  0  0  0  0  0  0  0  0
    4.4708    0.0693   -0.3248 C   0  0  0  0  0  0  0  0  0  0  0  0
    3.5528    1.1033   -0.9746 C   0  0  0  0  0  0  0  0  0  0  0  0
    3.6763   -1.1571    0.1205 C   0  0  0  0  0  0  0  0  0  0  0  0
    2.3839    1.4607   -0.0595 C   0  0  0  0  0  0  0  0  0  0  0  0
    2.5055   -0.7639    1.0184 C   0  0  0  0  0  0  0  0  0  0  0  0
    0.3464    0.1039    0.2118 C   0  0  0  0  0  0  0  0  0  0  0  0
   -0.1947   -1.2834   -0.0101 C   0  0  0  0  0  0  0  0  0  0  0  0
   -1.5180   -1.4770   -0.1559 C   0  0  0  0  0  0  0  0  0  0  0  0
   -2.3457   -0.3247   -0.0892 C   0  0  0  0  0  0  0  0  0  0  0  0
   -2.0540   -2.8660   -0.3781 C   0  0  0  0  0  0  0  0  0  0  0  0
   -2.7674    1.8024    0.1356 C   0  0  0  0  0  0  0  0  0  0  0  0
  1  9  1  0
  1 10  1  0
  1 11  1  0
  2  3  1  0
  2 11  2  0
  3 14  1  0
  3 16  1  0
  4  5  1  0
  4 14  2  0
  5 16  2  0
  6  7  1  0
  6  8  1  0
  7  9  1  0
  8 10  1  0
 11 12  1  0
 12 13  2  0
 13 14  1  0
 13 15  1  0
M  END
>  <PUBCHEM_COMPOUND_CID>  (1) 
41856

>  <PUBCHEM_CONFORMER_RMSD>  (1) 
0.6

>  <PUBCHEM_CONFORMER_DIVERSEORDER>  (1) 
4
1
2
3

>  <PUBCHEM_MMFF94_PARTIAL_CHARGES>  (1) 
15
1 -0.79
10 0.37
11 0.49
12 -0.14
13 -0.09
14 0.14
15 0.14
16 0.04
2 -0.65
27 0.15
3 0.51
31 0.15
4 -0.34
5 -0.34
9 0.37

>  <PUBCHEM_EFFECTIVE_ROTOR_COUNT>  (1) 
2.2

>  <PUBCHEM_PHARMACOPHORE_FEATURES>  (1) 
6
3 1 2 11 cation
3 3 4 14 cation
3 3 5 16 cation
5 3 4 5 14 16 rings
6 1 6 7 8 9 10 rings
6 2 3 11 12 13 14 rings

>  <PUBCHEM_HEAVY_ATOM_COUNT>  (1) 
16

>  <PUBCHEM_ATOM_DEF_STEREO_COUNT>  (1) 
0

>  <PUBCHEM_ATOM_UDEF_STEREO_COUNT>  (1) 
0

>  <PUBCHEM_BOND_DEF_STEREO_COUNT>  (1) 
0

>  <PUBCHEM_BOND_UDEF_STEREO_COUNT>  (1) 
0

>  <PUBCHEM_ISOTOPIC_ATOM_COUNT>  (1) 
0

>  <PUBCHEM_COMPONENT_COUNT>  (1) 
1

>  <PUBCHEM_CACTVS_TAUTO_COUNT>  (1) 
1

>  <PUBCHEM_CONFORMER_ID>  (1) 
0000A38000000004

>  <PUBCHEM_MMFF94_ENERGY>  (1) 
31.2082

>  <PUBCHEM_FEATURE_SELFOVERLAP>  (1) 
33.063

>  <PUBCHEM_SHAPE_FINGERPRINT>  (1) 
10608611 8 18342172327722295608
10616163 171 18340207487532515606
11132069 177 18410848871938577704
12173636 292 18411131454832143669
12500047 106 18341888589234171990
12553582 1 17836077153989965191
13221675 6 18333731308183310218
13380535 76 18271525303939219199
13538477 17 18336258020226819418
13760787 19 18335143111447281430
14115302 16 18341614802444203992
14144814 61 18410009923033725872
14965852 173 18411416249908374442
14993402 34 18408318874123962461
15279307 12 18334292059045300570
15309172 13 18339369565303533081
15342168 16 16588886705309331924
15375358 24 17774999085982860934
15442244 35 18336825282638590338
15536298 74 18412261766187571504
15669948 3 18339918311425858695
15775835 57 18260270737266265388
16752209 62 18270667775048289639
16945 1 18341604945383431467
17804303 29 18343582966680461737
18186145 218 17530678814666782802
18522853 266 18411421730487149966
19422 9 18260829323633244690
200 152 10231748959899152929
20279233 1 16773797000443744142
20645476 183 18334296469918522199
20645477 56 18411980286425432664
21267235 1 18409175419467705890
21501502 16 18336542811050287758
21524375 3 18337107857068802521
2255824 54 17821728334669415546
23402539 116 18201429260330933909
23402655 69 18334017194487222204
23463225 33 18336261241473409930
23557571 272 18059010721907547384
23559900 14 18202280300069643416
23598291 2 18187071854643830658
2748010 2 17837757191014193715
3082319 5 18335421317832469494
474 4 17313956358544203484
5104073 3 18408885161572759832
58051976 100 18409451414224259790
633830 44 17312828199505206956
6430166 295 18337669724363644900
69090 78 18411696573754637599
7364860 26 18270959167568528632
74978 22 18412823620528596048
7832392 63 18408603686506617908
93112 12 18411419544295892676
9709674 26 18272093803111823366

>  <PUBCHEM_SHAPE_MULTIPOLES>  (1) 
304.37
7.62
2.17
0.76
3.13
0.9
0
-1.22
0.89
-1.53
0.2
0.43
0.03
-0.67

>  <PUBCHEM_SHAPE_SELFOVERLAP>  (1) 
650.98

>  <PUBCHEM_SHAPE_VOLUME>  (1) 
166.2

>  <PUBCHEM_COORDINATE_TYPE>  (1) 
2
5
10

$$$$
