41866
     RDKit          3D

 18 19  0  0  0  0  0  0  0  0999 V2000
   -0.2132    0.1252   -2.3917 O   0  0  0  0  0  0  0  0  0  0  0  0
   -0.2016    0.0643    2.4016 O   0  0  0  0  0  0  0  0  0  0  0  0
   -3.5709    2.0767    0.0381 O   0  0  0  0  0  0  0  0  0  0  0  0
   -1.8929    1.0579   -1.1504 N   0  0  0  0  0  0  0  0  0  0  0  0
   -1.8887    1.0256    1.1925 N   0  0  0  0  0  0  0  0  0  0  0  0
   -0.1369   -0.2510    0.0004 C   0  0  0  0  0  0  0  0  0  0  0  0
   -0.3968   -1.7638   -0.0186 C   0  0  0  0  0  0  0  0  0  0  0  0
    1.3476   -0.0155   -0.0001 C   0  0  0  0  0  0  0  0  0  0  0  0
   -1.8840   -2.0448   -0.0594 C   0  0  0  0  0  0  0  0  0  0  0  0
   -0.7269    0.3266   -1.2893 C   0  0  0  0  0  0  0  0  0  0  0  0
   -0.7211    0.2929    1.3071 C   0  0  0  0  0  0  0  0  0  0  0  0
    1.8362    1.2836   -0.0593 C   0  0  0  0  0  0  0  0  0  0  0  0
    2.2143   -1.0996    0.0584 C   0  0  0  0  0  0  0  0  0  0  0  0
   -2.1368   -3.5433   -0.0527 C   0  0  0  0  0  0  0  0  0  0  0  0
   -2.5255    1.4242    0.0274 C   0  0  0  0  0  0  0  0  0  0  0  0
    3.2139    1.5022   -0.0601 C   0  0  0  0  0  0  0  0  0  0  0  0
    3.5919   -0.8811    0.0576 C   0  0  0  0  0  0  0  0  0  0  0  0
    4.0916    0.4199   -0.0016 C   0  0  0  0  0  0  0  0  0  0  0  0
  1 10  2  0
  2 11  2  0
  3 15  2  0
  4 10  1  0
  4 15  1  0
  5 11  1  0
  5 15  1  0
  6  7  1  0
  6  8  1  0
  6 10  1  0
  6 11  1  0
  7  9  1  0
  8 12  2  0
  8 13  1  0
  9 14  1  0
 12 16  1  0
 13 17  2  0
 16 18  2  0
 17 18  1  0
M  END
>  <PUBCHEM_COMPOUND_CID>  (1) 
41866

>  <PUBCHEM_CONFORMER_RMSD>  (1) 
0.6

>  <PUBCHEM_CONFORMER_DIVERSEORDER>  (1) 
1
2
3

>  <PUBCHEM_MMFF94_PARTIAL_CHARGES>  (1) 
22
1 -0.57
10 0.57
11 0.57
12 -0.15
13 -0.15
15 0.69
16 -0.15
17 -0.15
18 -0.15
2 -0.57
23 0.37
24 0.37
25 0.15
26 0.15
3 -0.57
30 0.15
31 0.15
32 0.15
4 -0.49
5 -0.49
6 0.27
8 -0.14

>  <PUBCHEM_EFFECTIVE_ROTOR_COUNT>  (1) 
3.6

>  <PUBCHEM_PHARMACOPHORE_FEATURES>  (1) 
8
1 1 acceptor
1 14 hydrophobe
1 2 acceptor
1 3 acceptor
1 4 donor
1 5 donor
6 4 5 6 10 11 15 rings
6 8 12 13 16 17 18 rings

>  <PUBCHEM_HEAVY_ATOM_COUNT>  (1) 
18

>  <PUBCHEM_ATOM_DEF_STEREO_COUNT>  (1) 
0

>  <PUBCHEM_ATOM_UDEF_STEREO_COUNT>  (1) 
0

>  <PUBCHEM_BOND_DEF_STEREO_COUNT>  (1) 
0

>  <PUBCHEM_BOND_UDEF_STEREO_COUNT>  (1) 
0

>  <PUBCHEM_ISOTOPIC_ATOM_COUNT>  (1) 
0

>  <PUBCHEM_COMPONENT_COUNT>  (1) 
1

>  <PUBCHEM_CACTVS_TAUTO_COUNT>  (1) 
5

>  <PUBCHEM_CONFORMER_ID>  (1) 
0000A38A00000001

>  <PUBCHEM_MMFF94_ENERGY>  (1) 
54.4834

>  <PUBCHEM_FEATURE_SELFOVERLAP>  (1) 
40.638

>  <PUBCHEM_SHAPE_FINGERPRINT>  (1) 
10863032 1 18412823603211524780
10948715 1 18338517413643066601
11578080 2 17344339214614161617
12119455 92 18042118756897275221
12173636 292 18412257324595249725
12423570 1 17895203164165875871
12491281 212 18334296461244126508
12507560 14 17905037063268969426
12592029 89 18120092788686829739
13024252 1 14996277028762156399
13132413 78 17405718459050195111
14178342 30 18337656608087248922
14817 1 11322169091419033507
15309172 13 18190177892991949085
15906896 17 18202842162710783695
16945 1 18410855464423129094
18186145 218 18269833112530933076
19765921 60 17415573003870689921
20645476 183 18200585908788976999
21501502 16 18260828250128511758
22344851 262 17967822655768794629
23419403 2 16964030322861942821
4340502 62 18199480874677498209
528886 8 18339914918644190608
68419 9 17244942126333443715
69090 78 18261109647500496401
74978 22 18412546501023139876
77492 1 17631443476047484836
81228 2 17896314907755087115
8272917 22 17837492951789071901

>  <PUBCHEM_SHAPE_MULTIPOLES>  (1) 
342.86
5.41
2.55
1.41
4.07
1.76
-0.02
-0.85
-0.01
-2.8
0.04
-0.52
-0.31
-0.1

>  <PUBCHEM_SHAPE_SELFOVERLAP>  (1) 
736.212

>  <PUBCHEM_SHAPE_VOLUME>  (1) 
187.7

>  <PUBCHEM_COORDINATE_TYPE>  (1) 
2
5
10

$$$$
