41865
     RDKit          3D

 15 17  0  0  0  0  0  0  0  0999 V2000
    2.1296    2.1692    0.2057 Cl  0  0  0  0  0  0  0  0  0  0  0  0
    3.0298   -0.2753   -1.1614 O   0  0  0  0  0  0  0  0  0  0  0  0
    2.8637   -1.4131    0.7162 O   0  0  0  0  0  0  0  0  0  0  0  0
    1.6924    0.4793    0.4743 N   0  0  0  0  0  0  0  0  0  0  0  0
    2.5971   -0.4529   -0.0165 N   0  0  0  0  0  0  0  0  0  0  0  0
    0.2746    0.2222    0.2277 C   0  0  0  0  0  0  0  0  0  0  0  0
   -1.6258   -1.3966    0.6251 C   0  0  0  0  0  0  0  0  0  0  0  0
   -2.0718    1.0849    0.6021 C   0  0  0  0  0  0  0  0  0  0  0  0
   -1.5000   -0.1131   -1.5417 C   0  0  0  0  0  0  0  0  0  0  0  0
   -0.1309   -1.1221    0.8707 C   0  0  0  0  0  0  0  0  0  0  0  0
   -0.5756    1.3526    0.8479 C   0  0  0  0  0  0  0  0  0  0  0  0
   -0.0054    0.1579   -1.2908 C   0  0  0  0  0  0  0  0  0  0  0  0
   -2.4574   -0.2594    1.2426 C   0  0  0  0  0  0  0  0  0  0  0  0
   -1.8884   -1.4510   -0.8895 C   0  0  0  0  0  0  0  0  0  0  0  0
   -2.3320    1.0174   -0.9124 C   0  0  0  0  0  0  0  0  0  0  0  0
  1  4  1  0
  2  5  1  0
  3  5  2  0
  4  5  1  0
  4  6  1  0
  6 10  1  0
  6 11  1  0
  6 12  1  0
  7 10  1  0
  7 13  1  0
  7 14  1  0
  8 11  1  0
  8 13  1  0
  8 15  1  0
  9 12  1  0
  9 14  1  0
  9 15  1  0
M  CHG  2   2  -1   5   1
M  END
>  <PUBCHEM_COMPOUND_CID>  (1) 
41865

>  <PUBCHEM_CONFORMER_RMSD>  (1) 
0.6

>  <PUBCHEM_CONFORMER_DIVERSEORDER>  (1) 
1
3
2

>  <PUBCHEM_MMFF94_PARTIAL_CHARGES>  (1) 
6
1 -0.05
2 -0.52
3 -0.52
4 -0.21
5 1.03
6 0.27

>  <PUBCHEM_EFFECTIVE_ROTOR_COUNT>  (1) 
3.2

>  <PUBCHEM_PHARMACOPHORE_FEATURES>  (1) 
6
1 2 acceptor
1 3 acceptor
6 6 7 8 10 11 13 rings
6 6 7 9 10 12 14 rings
6 6 8 9 11 12 15 rings
6 7 8 9 13 14 15 rings

>  <PUBCHEM_HEAVY_ATOM_COUNT>  (1) 
15

>  <PUBCHEM_ATOM_DEF_STEREO_COUNT>  (1) 
0

>  <PUBCHEM_ATOM_UDEF_STEREO_COUNT>  (1) 
0

>  <PUBCHEM_BOND_DEF_STEREO_COUNT>  (1) 
0

>  <PUBCHEM_BOND_UDEF_STEREO_COUNT>  (1) 
0

>  <PUBCHEM_ISOTOPIC_ATOM_COUNT>  (1) 
0

>  <PUBCHEM_COMPONENT_COUNT>  (1) 
1

>  <PUBCHEM_CACTVS_TAUTO_COUNT>  (1) 
1

>  <PUBCHEM_CONFORMER_ID>  (1) 
0000A38900000001

>  <PUBCHEM_MMFF94_ENERGY>  (1) 
43.57

>  <PUBCHEM_FEATURE_SELFOVERLAP>  (1) 
43.046

>  <PUBCHEM_SHAPE_FINGERPRINT>  (1) 
10702982 57 18197770012576832121
12423570 1 10343155287845927489
12932764 1 18335144210658092272
13024252 1 18113900446699717963
14817 1 13654783297624508535
15076042 46 17988379108108718753
15775835 57 17968099685639009278
16945 1 18201160940506500849
17844478 74 17749964348363197889
19837323 101 17169242945695004645
20653085 51 18338503180216445357
21501502 16 18271245044253370505
21524375 3 17900813856460747717
22802520 49 18041268915807459782
23419403 2 16092604763380809671
23552423 10 18339920532066135176
23559900 14 18263353712990984290
25 1 17682101185159063701
2748010 2 18337669827289918321
369184 2 18413106186384665441
5084963 1 17530971284342884051
528886 8 17022901211870161949
68250623 7 18129947913333098673
74978 22 18412541007395945460

>  <PUBCHEM_SHAPE_MULTIPOLES>  (1) 
288.86
4.08
1.76
1.38
2.6
0.33
-0.29
-0.27
-0.09
0.36
0.26
-0.52
-0.11
-0.02

>  <PUBCHEM_SHAPE_SELFOVERLAP>  (1) 
613.12

>  <PUBCHEM_SHAPE_VOLUME>  (1) 
165

>  <PUBCHEM_COORDINATE_TYPE>  (1) 
2
5
10

$$$$
