41864
     RDKit          3D

 16 15  0  0  0  0  0  0  0  0999 V2000
    4.6121    1.8660    0.6687 Cl  0  0  0  0  0  0  0  0  0  0  0  0
   -4.6618    1.2355   -1.5873 Cl  0  0  0  0  0  0  0  0  0  0  0  0
    5.3564   -1.6394   -0.6215 O   0  0  0  0  0  0  0  0  0  0  0  0
   -5.3896   -0.5039    1.5850 O   0  0  0  0  0  0  0  0  0  0  0  0
    6.5984   -0.0080    0.1811 O   0  0  0  0  0  0  0  0  0  0  0  0
   -6.5015   -0.6693   -0.3083 O   0  0  0  0  0  0  0  0  0  0  0  0
    4.3661    0.1590    0.2834 N   0  0  0  0  0  0  0  0  0  0  0  0
   -4.3669    0.0147   -0.3435 N   0  0  0  0  0  0  0  0  0  0  0  0
    5.5119   -0.5337   -0.0896 N   0  0  0  0  0  0  0  0  0  0  0  0
   -5.4947   -0.3979    0.3573 N   0  0  0  0  0  0  0  0  0  0  0  0
    0.6092   -0.0673   -0.4206 C   0  0  0  0  0  0  0  0  0  0  0  0
   -0.6403    0.2201    0.4150 C   0  0  0  0  0  0  0  0  0  0  0  0
    1.9173    0.1442    0.3482 C   0  0  0  0  0  0  0  0  0  0  0  0
   -1.9170   -0.0365   -0.3903 C   0  0  0  0  0  0  0  0  0  0  0  0
    3.1633   -0.0685   -0.5108 C   0  0  0  0  0  0  0  0  0  0  0  0
   -3.1630    0.2851    0.4332 C   0  0  0  0  0  0  0  0  0  0  0  0
  1  7  1  0
  2  8  1  0
  3  9  1  0
  4 10  1  0
  5  9  2  0
  6 10  2  0
  7  9  1  0
  7 15  1  0
  8 10  1  0
  8 16  1  0
 11 12  1  0
 11 13  1  0
 12 14  1  0
 13 15  1  0
 14 16  1  0
M  CHG  4   3  -1   4  -1   9   1  10   1
M  END
>  <PUBCHEM_COMPOUND_CID>  (1) 
41864

>  <PUBCHEM_CONFORMER_RMSD>  (1) 
1

>  <PUBCHEM_CONFORMER_DIVERSEORDER>  (1) 
5
117
99
375
389
35
13
58
405
69
57
44
73
292
430
77
6
53
319
519
89
123
23
62
55
346
262
291
363
2
294
217
24
550
21
12
542
312
281
39
54
159
36
248
25
60
1
397
116
40
15
551
9
391
413
178
18
298
531
420
63
37
10
84
488
333
332
137
372
321
142
214
61
489
180
501
101
29
171
7
255
87
51
268
303
455
72
14
222
17
388
107
454
8
20

>  <PUBCHEM_MMFF94_PARTIAL_CHARGES>  (1) 
12
1 -0.05
10 1.03
15 0.27
16 0.27
2 -0.05
3 -0.52
4 -0.52
5 -0.52
6 -0.52
7 -0.21
8 -0.21
9 1.03

>  <PUBCHEM_EFFECTIVE_ROTOR_COUNT>  (1) 
9

>  <PUBCHEM_PHARMACOPHORE_FEATURES>  (1) 
5
1 3 acceptor
1 4 acceptor
1 5 acceptor
1 6 acceptor
4 11 12 13 14 hydrophobe

>  <PUBCHEM_HEAVY_ATOM_COUNT>  (1) 
16

>  <PUBCHEM_ATOM_DEF_STEREO_COUNT>  (1) 
0

>  <PUBCHEM_ATOM_UDEF_STEREO_COUNT>  (1) 
0

>  <PUBCHEM_BOND_DEF_STEREO_COUNT>  (1) 
0

>  <PUBCHEM_BOND_UDEF_STEREO_COUNT>  (1) 
0

>  <PUBCHEM_ISOTOPIC_ATOM_COUNT>  (1) 
0

>  <PUBCHEM_COMPONENT_COUNT>  (1) 
1

>  <PUBCHEM_CACTVS_TAUTO_COUNT>  (1) 
1

>  <PUBCHEM_CONFORMER_ID>  (1) 
0000A38800000005

>  <PUBCHEM_MMFF94_ENERGY>  (1) 
25.2905

>  <PUBCHEM_FEATURE_SELFOVERLAP>  (1) 
25.532

>  <PUBCHEM_SHAPE_FINGERPRINT>  (1) 
11287383 113 18412263968951711600
11315181 36 16008754615077338101
12091667 2 18260828198573060471
12616971 3 17203605999414058972
13167372 99 17632585915810308904
13533116 47 18202567246639932466
14123238 8 14706926241608509220
1420 363 18260271849636336939
14251718 22 17530966877674796142
14251764 18 16988841704706627184
14251764 46 18411135839898800483
15716309 27 17988644129793659983
17834072 33 17988922297012329092
17834076 25 16487256577626503887
17844677 252 18411422799633696357
19433438 28 18260545623589363028
19489759 90 17167860855479205437
20281389 69 16988844977656388673
20645477 70 18202005391797598902
220451 1 16271926008656001422
23081809 10 16774075189243082437
23402539 116 16660641851992384407
23557571 272 17676770881372491005
42788 4 18343865519630699033

>  <PUBCHEM_SHAPE_MULTIPOLES>  (1) 
289.61
18.52
1.16
1.05
0.41
0.35
0
-2.14
0.14
0.92
-0.09
-1.06
0.14
1.85

>  <PUBCHEM_SHAPE_SELFOVERLAP>  (1) 
525.164

>  <PUBCHEM_SHAPE_VOLUME>  (1) 
188.3

>  <PUBCHEM_COORDINATE_TYPE>  (1) 
2
5
10

$$$$
