41874
     RDKit          3D

 21 24  0  0  0  0  0  0  0  0999 V2000
    2.5339   -0.9260    0.6126 N   0  0  0  0  0  0  0  0  0  0  0  0
   -4.3253    1.0576    1.1355 N   0  0  0  0  0  0  0  0  0  0  0  0
    0.3064    0.0729   -0.6964 C   0  0  0  0  0  0  0  0  0  0  0  0
    1.3635    0.9300   -0.3742 C   0  0  0  0  0  0  0  0  0  0  0  0
    0.3642   -1.2842   -0.3634 C   0  0  0  0  0  0  0  0  0  0  0  0
   -0.9026    0.6152   -1.4065 C   0  0  0  0  0  0  0  0  0  0  0  0
    2.4732    0.3804    0.2896 C   0  0  0  0  0  0  0  0  0  0  0  0
    1.5130   -1.7473    0.3000 C   0  0  0  0  0  0  0  0  0  0  0  0
   -2.1090    0.7704   -0.5105 C   0  0  0  0  0  0  0  0  0  0  0  0
    1.3319    2.2980   -0.6966 C   0  0  0  0  0  0  0  0  0  0  0  0
   -0.6836   -2.1681   -0.6750 C   0  0  0  0  0  0  0  0  0  0  0  0
    3.5289    1.2287    0.6130 C   0  0  0  0  0  0  0  0  0  0  0  0
    1.5764   -3.0974    0.6342 C   0  0  0  0  0  0  0  0  0  0  0  0
    2.4004    3.1247   -0.3620 C   0  0  0  0  0  0  0  0  0  0  0  0
   -0.5955   -3.5134   -0.3299 C   0  0  0  0  0  0  0  0  0  0  0  0
    3.5009    2.5885    0.2941 C   0  0  0  0  0  0  0  0  0  0  0  0
    0.5371   -3.9787    0.3261 C   0  0  0  0  0  0  0  0  0  0  0  0
   -1.9567    1.3358    0.7400 C   0  0  0  0  0  0  0  0  0  0  0  0
   -3.3446    0.3453   -0.9564 C   0  0  0  0  0  0  0  0  0  0  0  0
   -3.0934    1.4571    1.5230 C   0  0  0  0  0  0  0  0  0  0  0  0
   -4.4191    0.5106   -0.0973 C   0  0  0  0  0  0  0  0  0  0  0  0
  1  7  2  0
  1  8  1  0
  2 20  2  0
  2 21  1  0
  3  4  2  0
  3  5  1  0
  3  6  1  0
  4  7  1  0
  4 10  1  0
  5  8  2  0
  5 11  1  0
  6  9  1  0
  7 12  1  0
  8 13  1  0
  9 18  2  0
  9 19  1  0
 10 14  2  0
 11 15  2  0
 12 16  2  0
 13 17  2  0
 14 16  1  0
 15 17  1  0
 18 20  1  0
 19 21  2  0
M  END
>  <PUBCHEM_COMPOUND_CID>  (1) 
41874

>  <PUBCHEM_CONFORMER_RMSD>  (1) 
0.6

>  <PUBCHEM_CONFORMER_DIVERSEORDER>  (1) 
1
2

>  <PUBCHEM_MMFF94_PARTIAL_CHARGES>  (1) 
31
1 -0.62
10 -0.15
11 -0.15
12 -0.15
13 -0.15
14 -0.15
15 -0.15
16 -0.15
17 -0.15
18 -0.15
19 -0.15
2 -0.62
20 0.16
21 0.16
24 0.15
25 0.15
26 0.15
27 0.15
28 0.15
29 0.15
3 -0.14
30 0.15
31 0.15
32 0.15
33 0.15
34 0.15
35 0.15
6 0.29
7 0.31
8 0.31
9 -0.14

>  <PUBCHEM_EFFECTIVE_ROTOR_COUNT>  (1) 
2

>  <PUBCHEM_PHARMACOPHORE_FEATURES>  (1) 
6
1 1 acceptor
1 2 acceptor
6 1 3 4 5 7 8 rings
6 2 9 18 19 20 21 rings
6 4 7 10 12 14 16 rings
6 5 8 11 13 15 17 rings

>  <PUBCHEM_HEAVY_ATOM_COUNT>  (1) 
21

>  <PUBCHEM_ATOM_DEF_STEREO_COUNT>  (1) 
0

>  <PUBCHEM_ATOM_UDEF_STEREO_COUNT>  (1) 
0

>  <PUBCHEM_BOND_DEF_STEREO_COUNT>  (1) 
0

>  <PUBCHEM_BOND_UDEF_STEREO_COUNT>  (1) 
0

>  <PUBCHEM_ISOTOPIC_ATOM_COUNT>  (1) 
0

>  <PUBCHEM_COMPONENT_COUNT>  (1) 
1

>  <PUBCHEM_CACTVS_TAUTO_COUNT>  (1) 
1

>  <PUBCHEM_CONFORMER_ID>  (1) 
0000A39200000001

>  <PUBCHEM_MMFF94_ENERGY>  (1) 
76.0921

>  <PUBCHEM_FEATURE_SELFOVERLAP>  (1) 
30.509

>  <PUBCHEM_SHAPE_FINGERPRINT>  (1) 
10064457 181 18339084911882711840
10090160 65 18411974793737085605
10411042 1 17617930340746109631
104564 63 17688876757924079238
10493431 412 18338510958375922472
10967382 1 18337096879106306134
1100329 8 18411130364327272586
11370993 70 18408601496115306713
11578080 2 14889137463325438741
11582403 64 16015438546019983085
11640471 11 17917434185758001497
11725454 13 16663977753170315989
12035758 1 18410009897823422946
12390115 104 18050577527826427236
12403259 327 16226035708922596361
12553582 1 17762619490876004095
12788726 201 17545322338058407062
12954195 1 17471876052672776516
13140716 1 18336817684878445090
13149001 5 17982209765951299726
13583140 156 16589401229243064372
138480 1 18049999987372884878
14081887 123 17404291292846507320
14178342 30 17905307874179702080
14787075 74 17984695886464356039
14790565 3 18266186041790526028
14866123 147 18265047119389555954
14955137 171 18265337201343837562
15309172 13 18408601478513671629
15475509 84 16383693869560051107
15906896 17 17983575496473189574
16708801 149 15904646021178387329
16945 1 18336259037975702748
17138139 8 17625790002412320239
1813 80 17697323910623804662
19591789 44 18266175020777246294
20157964 124 18339075966347010365
204376 136 18337110171724274973
20510252 161 17617934081661831700
20600515 1 15719386192756592397
20645477 70 18188758441277486277
20739085 24 18263367993097931488
20775438 99 14742915851948473774
21197605 99 18191035693426947467
21524375 3 18201437020899169685
21731228 192 18336829804722175328
2255824 54 18340212877478465031
23419403 2 16526735582399720686
23558518 356 17829045764840644672
23559900 14 18193270798359159713
25147074 1 17608639854650297684
283562 15 17399511720480329112
3091708 16 9333428194524395022
31174 14 18190746319382146079
350125 39 18264774444373306778
3797600 57 17775287175225122859
392239 28 18128261288592987875
4340502 62 18339930406902797925
458136 41 18335996289167178900
474 4 18412262826749159553
5104073 3 17905303463707544080
633830 44 18202572769461518797
6438718 38 17482569867845299623
6443956 14 17831299402589167941
7097593 13 17909839734480506969
81228 2 17614852141831502636
8272917 22 18339644421894220749

>  <PUBCHEM_SHAPE_MULTIPOLES>  (1) 
422.21
6.21
4.42
1.11
4.05
4.47
0.07
-5.56
1.59
-2.36
0.34
0.68
-0.32
-0.9

>  <PUBCHEM_SHAPE_SELFOVERLAP>  (1) 
959.109

>  <PUBCHEM_SHAPE_VOLUME>  (1) 
217.1

>  <PUBCHEM_COORDINATE_TYPE>  (1) 
2
5
10

$$$$
