41870
     RDKit          3D

 20 21  0  0  1  0  0  0  0  0999 V2000
   -4.3385    1.3203   -0.1284 F   0  0  0  0  0  0  0  0  0  0  0  0
   -3.2876    1.1081    1.7570 F   0  0  0  0  0  0  0  0  0  0  0  0
   -2.5518    2.4987    0.2557 F   0  0  0  0  0  0  0  0  0  0  0  0
    1.8666   -2.2858   -0.5572 O   0  0  0  0  0  0  0  0  0  0  0  0
    1.2643   -1.2016    0.2020 C   0  0  0  0  0  0  0  0  0  0  0  0
    1.2117   -1.7665    1.6737 C   0  0  0  0  0  0  0  0  0  0  0  0
   -0.1888   -0.9950   -0.3033 C   0  0  0  0  0  0  0  0  0  0  0  0
    2.0956    0.0213    0.0078 C   0  0  0  0  0  0  0  0  0  0  0  0
   -0.9289   -0.0029    0.2738 C   0  0  0  0  0  0  0  0  0  0  0  0
    0.3666   -3.0243    1.8767 C   0  0  0  0  0  0  0  0  0  0  0  0
   -0.6408   -1.8171   -1.2956 C   0  0  0  0  0  0  0  0  0  0  0  0
    2.2909    0.5356   -1.2740 C   0  0  0  0  0  0  0  0  0  0  0  0
    2.6774    0.6512    1.1081 C   0  0  0  0  0  0  0  0  0  0  0  0
   -2.2344    0.1831   -0.1811 C   0  0  0  0  0  0  0  0  0  0  0  0
   -1.9461   -1.6312   -1.7504 C   0  0  0  0  0  0  0  0  0  0  0  0
   -2.7429   -0.6310   -1.1934 C   0  0  0  0  0  0  0  0  0  0  0  0
    3.0683    1.6794   -1.4557 C   0  0  0  0  0  0  0  0  0  0  0  0
    3.4547    1.7952    0.9263 C   0  0  0  0  0  0  0  0  0  0  0  0
   -3.0866    1.2530    0.4138 C   0  0  0  0  0  0  0  0  0  0  0  0
    3.6501    2.3093   -0.3557 C   0  0  0  0  0  0  0  0  0  0  0  0
  1 19  1  0
  2 19  1  0
  3 19  1  0
  4  5  1  0
  5  6  1  0
  5  7  1  0
  5  8  1  0
  6 10  1  0
  7  9  2  0
  7 11  1  0
  8 12  2  0
  8 13  1  0
  9 14  1  0
 11 15  2  0
 12 17  1  0
 13 18  2  0
 14 16  2  0
 14 19  1  0
 15 16  1  0
 17 20  2  0
 18 20  1  0
M  END
>  <PUBCHEM_COMPOUND_CID>  (1) 
41870

>  <PUBCHEM_CONFORMER_RMSD>  (1) 
0.6

>  <PUBCHEM_CONFORMER_DIVERSEORDER>  (1) 
3
12
22
19
10
15
7
9
8
6
18
14
13
5
21
4
11
1
20
2
17
16

>  <PUBCHEM_MMFF94_PARTIAL_CHARGES>  (1) 
28
1 -0.34
11 -0.15
12 -0.15
13 -0.15
14 -0.14
15 -0.15
16 -0.15
17 -0.15
18 -0.15
19 1.16
2 -0.34
20 -0.15
23 0.15
27 0.15
28 0.15
29 0.15
3 -0.34
30 0.4
31 0.15
32 0.15
33 0.15
34 0.15
35 0.15
4 -0.68
5 0.57
7 -0.14
8 -0.14
9 -0.15

>  <PUBCHEM_EFFECTIVE_ROTOR_COUNT>  (1) 
4

>  <PUBCHEM_PHARMACOPHORE_FEATURES>  (1) 
5
1 10 hydrophobe
1 4 acceptor
1 4 donor
6 7 9 11 14 15 16 rings
6 8 12 13 17 18 20 rings

>  <PUBCHEM_HEAVY_ATOM_COUNT>  (1) 
20

>  <PUBCHEM_ATOM_DEF_STEREO_COUNT>  (1) 
0

>  <PUBCHEM_ATOM_UDEF_STEREO_COUNT>  (1) 
1

>  <PUBCHEM_BOND_DEF_STEREO_COUNT>  (1) 
0

>  <PUBCHEM_BOND_UDEF_STEREO_COUNT>  (1) 
0

>  <PUBCHEM_ISOTOPIC_ATOM_COUNT>  (1) 
0

>  <PUBCHEM_COMPONENT_COUNT>  (1) 
1

>  <PUBCHEM_CACTVS_TAUTO_COUNT>  (1) 
1

>  <PUBCHEM_CONFORMER_ID>  (1) 
0000A38E00000003

>  <PUBCHEM_MMFF94_ENERGY>  (1) 
56.7831

>  <PUBCHEM_FEATURE_SELFOVERLAP>  (1) 
25.371

>  <PUBCHEM_SHAPE_FINGERPRINT>  (1) 
10291535 26 17763742487854485664
10382601 240 18187081716004585488
10498660 4 18201997750739718133
11221954 11 17769369766674556568
11640471 11 18338783589634818421
11715629 250 18130505318246591524
12491281 212 18269554004328966222
12633257 1 15719390650526683469
12788726 201 17394165864834403978
128993 33 18340493278729572165
13583140 156 17752482058698540921
13764800 53 17972887135518449130
13965767 371 18197489619573710385
14713325 29 17538318367865150182
14739800 52 17550082098754156752
14787075 74 17829322833023258351
14955137 171 18123756348720224810
15309172 13 17603859061473716438
15342168 16 17967537916796657933
15490181 8 18261390122040321634
15534591 1 18339647857440588246
15775835 57 18413669123326902564
15848702 68 17683799917512378189
16945 1 18056191607947662174
17093844 170 15313228431222809304
17134986 127 18130231436877503509
17921350 177 16393859386828622097
17980427 23 17698966701354726746
1813 80 17976248042202387970
18981168 100 18116736155933765154
19765921 60 18410571811924393176
20510252 161 17248080356205685738
20671657 1 18201160936264326678
21524375 3 18411984650011601668
21713013 43 15481553185914816796
21756936 100 18116728502523901820
21864079 5 17630900308866852153
22149856 69 17559667345235937581
2255824 54 18189616046956366874
23419403 2 16686338525096972038
23526113 38 14979955873927941522
23557571 272 17416115316152676060
23558518 356 18335418027803845874
23559900 14 17912926081147910983
2637199 183 17845116007189925369
4340502 62 17894909655429572411
474 4 18187357753156943588
495365 180 17386839509694226483
539174 4 18118095057747681880
5939293 188 17690278209815947437
6442390 28 18044965534119788899
7097593 13 17757543063250239947
7364860 26 18271241595748176662
7615 1 18198881683120126663
9981440 41 17982439705894779384

>  <PUBCHEM_SHAPE_MULTIPOLES>  (1) 
383.9
6.39
2.94
1.72
0.24
0.88
0.07
-5.75
-0.07
0.04
0.94
0.16
0.61
-1.32

>  <PUBCHEM_SHAPE_SELFOVERLAP>  (1) 
827.123

>  <PUBCHEM_SHAPE_VOLUME>  (1) 
213.5

>  <PUBCHEM_COORDINATE_TYPE>  (1) 
2
5
10

$$$$
