41884
     RDKit          3D

 18 19  0  0  0  0  0  0  0  0999 V2000
   -4.9176    0.0056   -0.6784 O   0  0  0  0  0  0  0  0  0  0  0  0
    5.1578    0.1853    0.2646 O   0  0  0  0  0  0  0  0  0  0  0  0
   -1.0394   -1.4831    0.1492 N   0  0  0  0  0  0  0  0  0  0  0  0
   -1.1883    2.0322   -0.1634 N   0  0  0  0  0  0  0  0  0  0  0  0
   -0.4139   -0.2649    0.0696 C   0  0  0  0  0  0  0  0  0  0  0  0
   -2.6441    0.0392   -0.0507 C   0  0  0  0  0  0  0  0  0  0  0  0
   -1.3910    0.7001   -0.0557 C   0  0  0  0  0  0  0  0  0  0  0  0
   -2.3971   -1.3098    0.0775 C   0  0  0  0  0  0  0  0  0  0  0  0
    1.0231   -0.1491    0.1200 C   0  0  0  0  0  0  0  0  0  0  0  0
   -3.3136   -2.4653    0.1400 C   0  0  0  0  0  0  0  0  0  0  0  0
   -3.9537    0.6200   -0.1565 C   0  0  0  0  0  0  0  0  0  0  0  0
    1.6671    0.0119    1.3466 C   0  0  0  0  0  0  0  0  0  0  0  0
    1.7683   -0.1976   -1.0582 C   0  0  0  0  0  0  0  0  0  0  0  0
    3.0567    0.1243    1.3952 C   0  0  0  0  0  0  0  0  0  0  0  0
    3.1578   -0.0853   -1.0095 C   0  0  0  0  0  0  0  0  0  0  0  0
    3.8020    0.0756    0.2171 C   0  0  0  0  0  0  0  0  0  0  0  0
   -4.2319    2.0336    0.3700 C   0  0  0  0  0  0  0  0  0  0  0  0
    5.8579    0.1273   -0.9773 C   0  0  0  0  0  0  0  0  0  0  0  0
  1 11  2  0
  2 16  1  0
  2 18  1  0
  3  5  1  0
  3  8  1  0
  4  7  1  0
  5  7  2  0
  5  9  1  0
  6  7  1  0
  6  8  2  0
  6 11  1  0
  8 10  1  0
  9 12  2  0
  9 13  1  0
 11 17  1  0
 12 14  1  0
 13 15  2  0
 14 16  2  0
 15 16  1  0
M  END
>  <PUBCHEM_COMPOUND_CID>  (1) 
41884

>  <PUBCHEM_CONFORMER_RMSD>  (1) 
0.6

>  <PUBCHEM_CONFORMER_DIVERSEORDER>  (1) 
1
7
18
10
8
13
11
16
2
12
3
14
15
6
4
9
5
17

>  <PUBCHEM_MMFF94_PARTIAL_CHARGES>  (1) 
25
1 -0.57
10 0.18
11 0.6
12 -0.15
13 -0.15
14 -0.15
15 -0.15
16 0.08
17 0.06
18 0.28
19 0.27
2 -0.36
23 0.15
24 0.15
25 0.4
26 0.4
27 0.15
28 0.15
3 0.03
4 -0.88
5 -0.2
6 -0.09
7 0.08
8 -0.33
9 0.05

>  <PUBCHEM_EFFECTIVE_ROTOR_COUNT>  (1) 
3

>  <PUBCHEM_PHARMACOPHORE_FEATURES>  (1) 
8
1 1 acceptor
1 2 acceptor
1 3 cation
1 3 donor
1 4 cation
1 4 donor
5 3 5 6 7 8 rings
6 9 12 13 14 15 16 rings

>  <PUBCHEM_HEAVY_ATOM_COUNT>  (1) 
18

>  <PUBCHEM_ATOM_DEF_STEREO_COUNT>  (1) 
0

>  <PUBCHEM_ATOM_UDEF_STEREO_COUNT>  (1) 
0

>  <PUBCHEM_BOND_DEF_STEREO_COUNT>  (1) 
0

>  <PUBCHEM_BOND_UDEF_STEREO_COUNT>  (1) 
0

>  <PUBCHEM_ISOTOPIC_ATOM_COUNT>  (1) 
0

>  <PUBCHEM_COMPONENT_COUNT>  (1) 
1

>  <PUBCHEM_CACTVS_TAUTO_COUNT>  (1) 
20

>  <PUBCHEM_CONFORMER_ID>  (1) 
0000A39C00000001

>  <PUBCHEM_MMFF94_ENERGY>  (1) 
50.7639

>  <PUBCHEM_FEATURE_SELFOVERLAP>  (1) 
40.596

>  <PUBCHEM_SHAPE_FINGERPRINT>  (1) 
10366900 7 17989201538384460794
10912923 1 17749103426806599266
11471102 20 16343982520689211592
11796584 16 18343025454794648790
12236239 1 17603302652539222010
12390115 104 18128264381017628017
12403814 3 17167857544154255733
12500047 106 18343298167299161927
13214271 11 18272087218900143023
13760787 19 18260545628148003154
13760787 5 16081079394894077378
14386348 63 17846782914215021046
14573314 32 18202286875063167502
15242439 84 17989205945337378514
15375358 24 17988921167209089838
16945 1 18409729543748344769
18186145 218 16226045634686404150
200 152 16443060620899808083
20279233 1 17846502542818266590
20645477 56 18411703162635402753
20645477 70 16702027422417311174
20681677 155 18259705600984547642
21065201 7 18341608230954590626
21267235 1 18335709385716121155
2297311 6 18341059583030897942
23175994 123 17132119060674714768
23402539 116 18334855043563922262
23557571 272 18271813440198864958
23559900 14 18343024350845089790
300161 21 17748818635898864542
3545911 37 18410295795925111222
474 4 16951418791838073988
5104073 3 18334855060812409288
542803 24 17749111080243193692
573450 72 18260820506044287298
77492 1 17603300466321844562

>  <PUBCHEM_SHAPE_MULTIPOLES>  (1) 
348.73
10.78
1.65
1.04
6.85
0.23
-0.13
-1.43
1.69
-2.91
-0.1
1.02
-0.02
0.05

>  <PUBCHEM_SHAPE_SELFOVERLAP>  (1) 
750.519

>  <PUBCHEM_SHAPE_VOLUME>  (1) 
195.3

>  <PUBCHEM_COORDINATE_TYPE>  (1) 
2
5
10

$$$$
