41886
     RDKit          3D

 17 18  0  0  0  0  0  0  0  0999 V2000
    4.5983    0.0733    0.2383 O   0  0  0  0  0  0  0  0  0  0  0  0
    0.6078    1.4884   -0.0377 N   0  0  0  0  0  0  0  0  0  0  0  0
    0.8105   -2.0359   -0.1605 N   0  0  0  0  0  0  0  0  0  0  0  0
    0.0026    0.2613   -0.1367 C   0  0  0  0  0  0  0  0  0  0  0  0
    2.2317   -0.0247    0.0379 C   0  0  0  0  0  0  0  0  0  0  0  0
    0.9920   -0.6982   -0.0923 C   0  0  0  0  0  0  0  0  0  0  0  0
    1.9645    1.3261    0.0696 C   0  0  0  0  0  0  0  0  0  0  0  0
   -1.4287    0.1329   -0.2611 C   0  0  0  0  0  0  0  0  0  0  0  0
   -2.2217    0.0223    0.8812 C   0  0  0  0  0  0  0  0  0  0  0  0
    2.8606    2.4929    0.1909 C   0  0  0  0  0  0  0  0  0  0  0  0
    3.5467   -0.5961    0.1249 C   0  0  0  0  0  0  0  0  0  0  0  0
   -2.0198    0.1186   -1.5246 C   0  0  0  0  0  0  0  0  0  0  0  0
   -3.6057   -0.1026    0.7599 C   0  0  0  0  0  0  0  0  0  0  0  0
   -3.4036   -0.0063   -1.6458 C   0  0  0  0  0  0  0  0  0  0  0  0
   -4.1966   -0.1167   -0.5036 C   0  0  0  0  0  0  0  0  0  0  0  0
    3.7151   -2.1140    0.0787 C   0  0  0  0  0  0  0  0  0  0  0  0
   -4.4538   -0.2212    1.9810 C   0  0  0  0  0  0  0  0  0  0  0  0
  1 11  2  0
  2  4  1  0
  2  7  1  0
  3  6  1  0
  4  6  2  0
  4  8  1  0
  5  6  1  0
  5  7  2  0
  5 11  1  0
  7 10  1  0
  8  9  2  0
  8 12  1  0
  9 13  1  0
 11 16  1  0
 12 14  2  0
 13 15  2  0
 13 17  1  0
 14 15  1  0
M  END
>  <PUBCHEM_COMPOUND_CID>  (1) 
41886

>  <PUBCHEM_CONFORMER_RMSD>  (1) 
0.6

>  <PUBCHEM_CONFORMER_DIVERSEORDER>  (1) 
1
12
9
4
8
5
11
3
7
6
10
2

>  <PUBCHEM_MMFF94_PARTIAL_CHARGES>  (1) 
24
1 -0.57
10 0.18
11 0.6
12 -0.15
13 -0.14
14 -0.15
15 -0.15
16 0.06
17 0.14
18 0.27
19 0.15
2 0.03
23 0.15
24 0.4
25 0.4
26 0.15
27 0.15
3 -0.88
4 -0.2
5 -0.09
6 0.08
7 -0.33
8 0.05
9 -0.15

>  <PUBCHEM_EFFECTIVE_ROTOR_COUNT>  (1) 
2

>  <PUBCHEM_PHARMACOPHORE_FEATURES>  (1) 
7
1 1 acceptor
1 2 cation
1 2 donor
1 3 cation
1 3 donor
5 2 4 5 6 7 rings
6 8 9 12 13 14 15 rings

>  <PUBCHEM_HEAVY_ATOM_COUNT>  (1) 
17

>  <PUBCHEM_ATOM_DEF_STEREO_COUNT>  (1) 
0

>  <PUBCHEM_ATOM_UDEF_STEREO_COUNT>  (1) 
0

>  <PUBCHEM_BOND_DEF_STEREO_COUNT>  (1) 
0

>  <PUBCHEM_BOND_UDEF_STEREO_COUNT>  (1) 
0

>  <PUBCHEM_ISOTOPIC_ATOM_COUNT>  (1) 
0

>  <PUBCHEM_COMPONENT_COUNT>  (1) 
1

>  <PUBCHEM_CACTVS_TAUTO_COUNT>  (1) 
20

>  <PUBCHEM_CONFORMER_ID>  (1) 
0000A39E00000001

>  <PUBCHEM_MMFF94_ENERGY>  (1) 
40.1802

>  <PUBCHEM_FEATURE_SELFOVERLAP>  (1) 
35.52

>  <PUBCHEM_SHAPE_FINGERPRINT>  (1) 
11471102 20 18410006637578806252
11615757 297 18342173375599019383
11796584 16 16588856872482480602
12236239 1 17632293484519335359
12390115 104 17619637216900729848
12553582 1 18341613664394142566
12644460 14 18336543906604617224
13134695 92 18337662045305115276
13140716 1 18194958763598397352
13296908 3 17603864524645834005
13583140 156 16734643442602042456
13675066 3 17846501408909743355
13760787 5 18413389826256969550
13862211 1 18339634552296965662
14252887 29 18341331102885619066
14386348 63 17821449045387992147
15219456 202 18040431126834116605
15309172 13 18411139151693359479
15653759 3 17312820476726812265
16945 1 18411414008235963982
1813 80 18058463006282415518
18175812 5 17821726160846141175
18186145 218 18343022232925052876
18785283 64 18042693990853217828
19026448 4 17603864524572065477
19026448 5 17561082539962141925
19049666 15 17750504084197777613
19422 9 17775001327713157719
200 152 18272641347333551685
20279233 1 17894629249614621783
20645477 70 18336252496709050911
21041028 32 18341902839830801960
21065201 7 16370717119637208201
22094290 60 16081370730667157311
22112679 90 17275099548540296441
2255824 54 18343300401124890820
22943178 12 17822005436889435661
23175994 123 18260268512446936469
23402539 116 14476956753498815833
23557571 272 17022899030522602887
23559900 14 16660914488000376154
2748010 2 18121783000552515764
474 4 17700397363403669248
573450 72 16774074064220048935
602551 16 16298672779778646520
6049 1 17821727238872772797
633830 44 17987814006302835565
7495541 125 17531253884928184132
7615 1 17561073748290882425
77492 1 17632293501630749725
81228 2 16389554751613693171
9981440 41 16622330696277826192

>  <PUBCHEM_SHAPE_MULTIPOLES>  (1) 
334.02
8.81
1.73
1.27
1.4
0.22
-0.03
-1.2
-1.66
-2.72
-0.08
2.17
-0.04
0.24

>  <PUBCHEM_SHAPE_SELFOVERLAP>  (1) 
721.052

>  <PUBCHEM_SHAPE_VOLUME>  (1) 
186.7

>  <PUBCHEM_COORDINATE_TYPE>  (1) 
2
5
10

$$$$
