41888
     RDKit          3D

 17 18  0  0  0  0  0  0  0  0999 V2000
    3.6631   -1.8435   -0.2217 O   0  0  0  0  0  0  0  0  0  0  0  0
    0.4339    1.3822   -0.4181 N   0  0  0  0  0  0  0  0  0  0  0  0
    0.6123   -2.0757    0.2802 N   0  0  0  0  0  0  0  0  0  0  0  0
   -0.1794    0.1779   -0.1906 C   0  0  0  0  0  0  0  0  0  0  0  0
    0.8039   -0.7630    0.0213 C   0  0  0  0  0  0  0  0  0  0  0  0
    2.0523   -0.1011   -0.0820 C   0  0  0  0  0  0  0  0  0  0  0  0
    1.7938    1.2243   -0.3537 C   0  0  0  0  0  0  0  0  0  0  0  0
   -1.6187    0.0505   -0.1990 C   0  0  0  0  0  0  0  0  0  0  0  0
   -2.3639    0.2221    0.9677 C   0  0  0  0  0  0  0  0  0  0  0  0
    2.7011    2.3699   -0.5620 C   0  0  0  0  0  0  0  0  0  0  0  0
   -2.2623   -0.2492   -1.3999 C   0  0  0  0  0  0  0  0  0  0  0  0
    3.3675   -0.6606    0.0613 C   0  0  0  0  0  0  0  0  0  0  0  0
   -3.7524    0.0942    0.9334 C   0  0  0  0  0  0  0  0  0  0  0  0
   -1.7096    0.5439    2.2730 C   0  0  0  0  0  0  0  0  0  0  0  0
   -3.6510   -0.3772   -1.4338 C   0  0  0  0  0  0  0  0  0  0  0  0
   -4.3959   -0.2056   -0.2673 C   0  0  0  0  0  0  0  0  0  0  0  0
    4.5053    0.2108    0.5909 C   0  0  0  0  0  0  0  0  0  0  0  0
  1 12  2  0
  2  4  1  0
  2  7  1  0
  3  5  1  0
  4  5  2  0
  4  8  1  0
  5  6  1  0
  6  7  2  0
  6 12  1  0
  7 10  1  0
  8  9  2  0
  8 11  1  0
  9 13  1  0
  9 14  1  0
 11 15  2  0
 12 17  1  0
 13 16  2  0
 15 16  1  0
M  END
>  <PUBCHEM_COMPOUND_CID>  (1) 
41888

>  <PUBCHEM_CONFORMER_RMSD>  (1) 
0.6

>  <PUBCHEM_CONFORMER_DIVERSEORDER>  (1) 
3
7
6
2
5
4
1

>  <PUBCHEM_MMFF94_PARTIAL_CHARGES>  (1) 
24
1 -0.57
10 0.18
11 -0.15
12 0.6
13 -0.15
14 0.14
15 -0.15
16 -0.15
17 0.06
18 0.27
2 0.03
22 0.15
23 0.15
24 0.4
25 0.4
29 0.15
3 -0.88
30 0.15
4 -0.2
5 0.08
6 -0.09
7 -0.33
8 0.05
9 -0.14

>  <PUBCHEM_EFFECTIVE_ROTOR_COUNT>  (1) 
2

>  <PUBCHEM_PHARMACOPHORE_FEATURES>  (1) 
7
1 1 acceptor
1 2 cation
1 2 donor
1 3 cation
1 3 donor
5 2 4 5 6 7 rings
6 8 9 11 13 15 16 rings

>  <PUBCHEM_HEAVY_ATOM_COUNT>  (1) 
17

>  <PUBCHEM_ATOM_DEF_STEREO_COUNT>  (1) 
0

>  <PUBCHEM_ATOM_UDEF_STEREO_COUNT>  (1) 
0

>  <PUBCHEM_BOND_DEF_STEREO_COUNT>  (1) 
0

>  <PUBCHEM_BOND_UDEF_STEREO_COUNT>  (1) 
0

>  <PUBCHEM_ISOTOPIC_ATOM_COUNT>  (1) 
0

>  <PUBCHEM_COMPONENT_COUNT>  (1) 
1

>  <PUBCHEM_CACTVS_TAUTO_COUNT>  (1) 
20

>  <PUBCHEM_CONFORMER_ID>  (1) 
0000A3A000000003

>  <PUBCHEM_MMFF94_ENERGY>  (1) 
40.7296

>  <PUBCHEM_FEATURE_SELFOVERLAP>  (1) 
35.52

>  <PUBCHEM_SHAPE_FINGERPRINT>  (1) 
11471102 20 18334293175894624244
11578080 2 17700659988011666681
12236239 1 17988923370975666671
124424 183 17240480299505044992
12500047 106 15647047170674941131
13140716 1 18191021408095792336
13296908 3 17240484744764749077
13581323 91 16773794779476127671
13675066 3 18201721734323042673
13965767 371 16838858234221715785
14115302 16 18060132176386302919
14289901 80 16558750096514306314
15219456 202 17603867848860947933
15653759 3 16805042930012894001
16945 1 18335144180820168094
17862501 102 17846776282775174362
1813 80 18126864711304832382
18175812 5 17313105284492643335
18186145 218 18411141367637833236
19026448 5 17346876737100987918
192875 21 18343302578146224705
19422 9 18130787888777430095
200 152 18342731919322131527
20279233 1 17458063772264607386
20645477 70 18260265261146033342
20715346 28 17458631171651393772
21639500 275 18337669840180244404
22112679 90 17704359865934094825
2255824 54 18411704305080853502
23175994 123 17822014176836692444
23402539 116 16056871421335986941
23557571 272 14907909270600470352
23559900 14 16081085979015443592
23728640 28 15308143198877477107
2748010 2 18042979854990670442
474 4 17914042351347932808
7615 1 18060427923170404377
77492 1 17988929985119898397
9981440 41 17193734798947749176

>  <PUBCHEM_SHAPE_MULTIPOLES>  (1) 
334.02
7.99
1.58
1.35
0.37
0.1
0.45
-0.65
-0.15
1.87
-0.18
-1.37
0.22
-0.71

>  <PUBCHEM_SHAPE_SELFOVERLAP>  (1) 
722.26

>  <PUBCHEM_SHAPE_VOLUME>  (1) 
186.6

>  <PUBCHEM_COORDINATE_TYPE>  (1) 
2
5
10

$$$$
