41890
     RDKit          3D

 17 18  0  0  0  0  0  0  0  0999 V2000
    3.5478   -1.9420    0.4641 O   0  0  0  0  0  0  0  0  0  0  0  0
    0.3529    1.3005    0.0771 N   0  0  0  0  0  0  0  0  0  0  0  0
    0.5137   -2.2241   -0.0988 N   0  0  0  0  0  0  0  0  0  0  0  0
   -0.2729    0.0796    0.0096 C   0  0  0  0  0  0  0  0  0  0  0  0
    1.7123    1.1251    0.0820 C   0  0  0  0  0  0  0  0  0  0  0  0
    1.9635   -0.2275    0.0158 C   0  0  0  0  0  0  0  0  0  0  0  0
    0.7113   -0.8887   -0.0297 C   0  0  0  0  0  0  0  0  0  0  0  0
   -1.7081   -0.0644   -0.0117 C   0  0  0  0  0  0  0  0  0  0  0  0
   -0.3167    2.5840    0.1351 C   0  0  0  0  0  0  0  0  0  0  0  0
    2.6479    2.2689    0.1492 C   0  0  0  0  0  0  0  0  0  0  0  0
    3.2756   -0.8122   -0.0008 C   0  0  0  0  0  0  0  0  0  0  0  0
   -2.4132   -0.1949    1.1849 C   0  0  0  0  0  0  0  0  0  0  0  0
   -2.3910   -0.0737   -1.2280 C   0  0  0  0  0  0  0  0  0  0  0  0
    4.4400   -0.0371   -0.6153 C   0  0  0  0  0  0  0  0  0  0  0  0
   -3.8008   -0.3351    1.1652 C   0  0  0  0  0  0  0  0  0  0  0  0
   -3.7787   -0.2139   -1.2477 C   0  0  0  0  0  0  0  0  0  0  0  0
   -4.4835   -0.3445   -0.0510 C   0  0  0  0  0  0  0  0  0  0  0  0
  1 11  2  0
  2  4  1  0
  2  5  1  0
  2  9  1  0
  3  7  1  0
  4  7  2  0
  4  8  1  0
  5  6  2  0
  5 10  1  0
  6  7  1  0
  6 11  1  0
  8 12  2  0
  8 13  1  0
 11 14  1  0
 12 15  1  0
 13 16  2  0
 15 17  2  0
 16 17  1  0
M  END
>  <PUBCHEM_COMPOUND_CID>  (1) 
41890

>  <PUBCHEM_CONFORMER_RMSD>  (1) 
0.6

>  <PUBCHEM_CONFORMER_DIVERSEORDER>  (1) 
2
3
4
1

>  <PUBCHEM_MMFF94_PARTIAL_CHARGES>  (1) 
24
1 -0.57
10 0.18
11 0.6
12 -0.15
13 -0.15
14 0.06
15 -0.15
16 -0.15
17 -0.15
2 0.05
24 0.4
25 0.4
26 0.15
27 0.15
3 -0.88
31 0.15
32 0.15
33 0.15
4 -0.2
5 -0.33
6 -0.09
7 0.08
8 0.05
9 0.26

>  <PUBCHEM_EFFECTIVE_ROTOR_COUNT>  (1) 
2

>  <PUBCHEM_PHARMACOPHORE_FEATURES>  (1) 
6
1 1 acceptor
1 2 cation
1 3 cation
1 3 donor
5 2 4 5 6 7 rings
6 8 12 13 15 16 17 rings

>  <PUBCHEM_HEAVY_ATOM_COUNT>  (1) 
17

>  <PUBCHEM_ATOM_DEF_STEREO_COUNT>  (1) 
0

>  <PUBCHEM_ATOM_UDEF_STEREO_COUNT>  (1) 
0

>  <PUBCHEM_BOND_DEF_STEREO_COUNT>  (1) 
0

>  <PUBCHEM_BOND_UDEF_STEREO_COUNT>  (1) 
0

>  <PUBCHEM_ISOTOPIC_ATOM_COUNT>  (1) 
0

>  <PUBCHEM_COMPONENT_COUNT>  (1) 
1

>  <PUBCHEM_CACTVS_TAUTO_COUNT>  (1) 
2

>  <PUBCHEM_CONFORMER_ID>  (1) 
0000A3A200000002

>  <PUBCHEM_MMFF94_ENERGY>  (1) 
43.8335

>  <PUBCHEM_FEATURE_SELFOVERLAP>  (1) 
30.446

>  <PUBCHEM_SHAPE_FINGERPRINT>  (1) 
10219947 1 18411983580670246521
10967382 1 18411136974171125720
11471102 20 18409729590549996804
12032990 46 18408043996048083403
12236239 1 17704356589111086755
12553582 1 18341612586199063166
13140716 1 18194960966853329706
13296908 3 18114179761249882545
13760787 5 18410295791820074070
13862211 1 18411697656614410574
14911166 2 18410859875955994078
14993402 34 18343022202965776822
15219456 202 18041276660023949453
15653759 3 17385442137530893401
15848702 151 17703519800253181326
16945 1 18411416207227629418
1813 80 18058182647902171806
18175812 5 17894912962021393463
18186145 218 18342175604491860804
19422 9 17774722060397142415
200 152 18272926120919037487
20645477 70 18410287021386170367
21267235 1 18343030999132671439
22094290 60 16805323279987715735
22112679 90 17346598599356148897
221490 88 18192433197837019179
2255824 54 18342458183702434364
23175994 123 18260554398486824869
23184049 59 18341614840671505264
2334 1 18051409866612625398
23402539 116 18272930501099961726
23493267 7 17312817152359029641
23557571 272 14189586225568080419
23559900 14 16878218684827660490
23598291 2 17917141810106548309
2748010 2 18122913294052757002
350125 39 17256813819587814241
474 4 17556565870586383760
77492 1 17632297908399018601

>  <PUBCHEM_SHAPE_MULTIPOLES>  (1) 
334.02
7.84
1.99
1
1.36
0.78
0.05
-1.78
0.47
-1.85
-0.18
0.97
-0.07
-0.05

>  <PUBCHEM_SHAPE_SELFOVERLAP>  (1) 
720.512

>  <PUBCHEM_SHAPE_VOLUME>  (1) 
187.5

>  <PUBCHEM_COORDINATE_TYPE>  (1) 
2
5
10

$$$$
