41896
     RDKit          3D

 12 13  0  0  1  0  0  0  0  0999 V2000
    3.2141   -1.5144   -0.1890 N   0  0  0  0  0  0  0  0  0  0  0  0
    2.0311   -0.6573   -0.3463 C   0  0  0  0  0  0  0  0  0  0  0  0
    2.4951    0.7973   -0.1818 C   0  0  0  0  0  0  0  0  0  0  0  0
    0.9668   -1.0757    0.6810 C   0  0  0  0  0  0  0  0  0  0  0  0
    1.4188    1.8512   -0.4461 C   0  0  0  0  0  0  0  0  0  0  0  0
    0.2707    1.8339    0.5614 C   0  0  0  0  0  0  0  0  0  0  0  0
   -0.4221   -0.6034    0.3197 C   0  0  0  0  0  0  0  0  0  0  0  0
   -0.7497    0.7634    0.2672 C   0  0  0  0  0  0  0  0  0  0  0  0
   -1.4153   -1.5571    0.0362 C   0  0  0  0  0  0  0  0  0  0  0  0
   -2.0618    1.1427   -0.0645 C   0  0  0  0  0  0  0  0  0  0  0  0
   -2.7121   -1.1656   -0.2939 C   0  0  0  0  0  0  0  0  0  0  0  0
   -3.0356    0.1849   -0.3438 C   0  0  0  0  0  0  0  0  0  0  0  0
  1  2  1  0
  2  3  1  0
  2  4  1  0
  3  5  1  0
  4  7  1  0
  5  6  1  0
  6  8  1  0
  7  8  2  0
  7  9  1  0
  8 10  1  0
  9 11  2  0
 10 12  2  0
 11 12  1  0
M  END
>  <PUBCHEM_COMPOUND_CID>  (1) 
41896

>  <PUBCHEM_CONFORMER_RMSD>  (1) 
0.4

>  <PUBCHEM_CONFORMER_DIVERSEORDER>  (1) 
2
4
3
1

>  <PUBCHEM_MMFF94_PARTIAL_CHARGES>  (1) 
16
1 -0.99
10 -0.15
11 -0.15
12 -0.15
2 0.27
22 0.36
23 0.36
24 0.15
25 0.15
26 0.15
27 0.15
4 0.14
6 0.14
7 -0.14
8 -0.14
9 -0.15

>  <PUBCHEM_EFFECTIVE_ROTOR_COUNT>  (1) 
1

>  <PUBCHEM_PHARMACOPHORE_FEATURES>  (1) 
4
1 1 cation
1 1 donor
6 7 8 9 10 11 12 rings
7 2 3 4 5 6 7 8 rings

>  <PUBCHEM_HEAVY_ATOM_COUNT>  (1) 
12

>  <PUBCHEM_ATOM_DEF_STEREO_COUNT>  (1) 
0

>  <PUBCHEM_ATOM_UDEF_STEREO_COUNT>  (1) 
1

>  <PUBCHEM_BOND_DEF_STEREO_COUNT>  (1) 
0

>  <PUBCHEM_BOND_UDEF_STEREO_COUNT>  (1) 
0

>  <PUBCHEM_ISOTOPIC_ATOM_COUNT>  (1) 
0

>  <PUBCHEM_COMPONENT_COUNT>  (1) 
1

>  <PUBCHEM_CACTVS_TAUTO_COUNT>  (1) 
1

>  <PUBCHEM_CONFORMER_ID>  (1) 
0000A3A800000002

>  <PUBCHEM_MMFF94_ENERGY>  (1) 
22.6847

>  <PUBCHEM_FEATURE_SELFOVERLAP>  (1) 
20.305

>  <PUBCHEM_SHAPE_FINGERPRINT>  (1) 
10465860 71 18269855150303456822
12897270 3 18265897049792235669
13380535 21 18192443072008517587
13380535 220 18335703818968961773
13380535 76 18119524599031523568
13897977 150 18122061163582264781
14128692 85 18413388734929146185
15536298 74 18343020004200886480
15775835 57 18260274039953684941
161256 15 18195522825568559393
16945 1 18195530521822997089
17844478 74 17968107477131619121
17990270 104 18339078293258461090
19973954 147 18336830891406890973
20201158 50 18338797930672992414
21501502 16 18339928224484392133
22802520 49 18190467236554383475
23402539 116 18198048184623770966
23552423 10 18262235628921988315
23559900 14 18198899211625576858
241688 4 18337111155414119832
2748010 2 18409729607476515429
5084963 1 18413670205668963977
528886 8 18410006675932922545
63268167 104 18409735079259803328
7364860 26 18271522117163058832

>  <PUBCHEM_SHAPE_MULTIPOLES>  (1) 
241.97
4.42
2.04
0.74
0.06
0.28
-0.03
-1.03
0.84
-0.55
-0.04
-0.04
0.03
-0.07

>  <PUBCHEM_SHAPE_SELFOVERLAP>  (1) 
505.354

>  <PUBCHEM_SHAPE_VOLUME>  (1) 
136

>  <PUBCHEM_COORDINATE_TYPE>  (1) 
2
5
10

$$$$
