41893
     RDKit          3D

 16 17  0  0  0  0  0  0  0  0999 V2000
   -1.0296   -3.0315   -0.6758 Br  0  0  0  0  0  0  0  0  0  0  0  0
    1.8496   -2.8010    0.6405 Br  0  0  0  0  0  0  0  0  0  0  0  0
    1.2440    3.6881   -0.0315 Br  0  0  0  0  0  0  0  0  0  0  0  0
   -3.8560   -1.6318    0.1677 Br  0  0  0  0  0  0  0  0  0  0  0  0
   -4.0005    1.7330    0.0553 Br  0  0  0  0  0  0  0  0  0  0  0  0
    4.4151   -0.8611   -0.1189 Br  0  0  0  0  0  0  0  0  0  0  0  0
    0.1945   -0.4149   -0.0026 C   0  0  0  0  0  0  0  0  0  0  0  0
    0.0810    0.9958   -0.0048 C   0  0  0  0  0  0  0  0  0  0  0  0
   -0.9713   -1.1977    0.0168 C   0  0  0  0  0  0  0  0  0  0  0  0
   -1.1952    1.5822    0.0126 C   0  0  0  0  0  0  0  0  0  0  0  0
    1.4705   -1.0013   -0.0200 C   0  0  0  0  0  0  0  0  0  0  0  0
    1.2468    1.7786   -0.0243 C   0  0  0  0  0  0  0  0  0  0  0  0
   -2.2309   -0.5983    0.0339 C   0  0  0  0  0  0  0  0  0  0  0  0
   -2.3426    0.7889    0.0318 C   0  0  0  0  0  0  0  0  0  0  0  0
    2.6182   -0.2081   -0.0393 C   0  0  0  0  0  0  0  0  0  0  0  0
    2.5065    1.1791   -0.0414 C   0  0  0  0  0  0  0  0  0  0  0  0
  1  9  1  0
  2 11  1  0
  3 12  1  0
  4 13  1  0
  5 14  1  0
  6 15  1  0
  7  8  1  0
  7  9  2  0
  7 11  1  0
  8 10  2  0
  8 12  1  0
  9 13  1  0
 10 14  1  0
 11 15  2  0
 12 16  2  0
 13 14  2  0
 15 16  1  0
M  END
>  <PUBCHEM_COMPOUND_CID>  (1) 
41893

>  <PUBCHEM_CONFORMER_RMSD>  (1) 
0.4

>  <PUBCHEM_CONFORMER_DIVERSEORDER>  (1) 
1

>  <PUBCHEM_MMFF94_PARTIAL_CHARGES>  (1) 
16
1 -0.11
10 -0.15
11 0.11
12 0.11
13 0.11
14 0.11
15 0.11
16 -0.15
17 0.15
18 0.15
2 -0.11
3 -0.11
4 -0.11
5 -0.11
6 -0.11
9 0.11

>  <PUBCHEM_EFFECTIVE_ROTOR_COUNT>  (1) 
0

>  <PUBCHEM_PHARMACOPHORE_FEATURES>  (1) 
8
1 1 hydrophobe
1 2 hydrophobe
1 3 hydrophobe
1 4 hydrophobe
1 5 hydrophobe
1 6 hydrophobe
6 7 8 11 12 15 16 rings
6 7 8 9 10 13 14 rings

>  <PUBCHEM_HEAVY_ATOM_COUNT>  (1) 
16

>  <PUBCHEM_ATOM_DEF_STEREO_COUNT>  (1) 
0

>  <PUBCHEM_ATOM_UDEF_STEREO_COUNT>  (1) 
0

>  <PUBCHEM_BOND_DEF_STEREO_COUNT>  (1) 
0

>  <PUBCHEM_BOND_UDEF_STEREO_COUNT>  (1) 
0

>  <PUBCHEM_ISOTOPIC_ATOM_COUNT>  (1) 
0

>  <PUBCHEM_COMPONENT_COUNT>  (1) 
1

>  <PUBCHEM_CACTVS_TAUTO_COUNT>  (1) 
1

>  <PUBCHEM_CONFORMER_ID>  (1) 
0000A3A500000001

>  <PUBCHEM_MMFF94_ENERGY>  (1) 
74.8038

>  <PUBCHEM_FEATURE_SELFOVERLAP>  (1) 
40.627

>  <PUBCHEM_SHAPE_FINGERPRINT>  (1) 
10608611 8 18337669827717419957
10967382 1 18266458702612727491
1100329 8 18411420609284485760
12507560 14 18195801860877362185
12553582 1 18265608788746020322
13140716 1 17977384159340139947
14178342 30 18268411598667665672
14790565 3 18338812104466931228
15042514 8 18338232648995999754
15196674 1 18410576193086485604
15375462 189 18114744824316787810
15442244 35 18339924917053612548
15536298 74 18342739667147968168
16945 1 18339357590533778399
17804303 29 18413393137613574444
193761 8 18123187067710091756
19591789 44 18410296951245141351
20510252 161 18201161056808462257
20645477 70 18192423289542503311
20671657 1 18338241590590350388
20739085 24 17834423136430133409
21267235 1 18410583898047279283
21501502 16 18337957895226148525
21634736 98 18124877017361727622
221490 88 18263932192569870283
2334 1 18339078190079272567
23366157 5 17970905794338637308
23402539 116 18272080557448149390
23419403 2 15969536155773433596
23463225 33 18265051323429146595
23558518 356 18193273215834897031
23559900 14 18340479062377130080
2748010 2 18267583515871758375
335352 9 18338798914093968005
34934 24 18337386029010148618
350125 39 18338523036019040185
43471831 8 17545877595810109080
45790113 53 18339646753902947025
5104073 3 18411136948074294760
589210 1 18123469642193194436
7364860 26 18196936788995735340
7832392 63 18411416176904551433
9709674 26 18266179615843782619

>  <PUBCHEM_SHAPE_MULTIPOLES>  (1) 
364.93
6.44
4.01
0.73
0.97
1.01
0
-0.75
-0.17
-0.38
0.09
-0.01
-0.21
-0.33

>  <PUBCHEM_SHAPE_SELFOVERLAP>  (1) 
704.592

>  <PUBCHEM_SHAPE_VOLUME>  (1) 
226.7

>  <PUBCHEM_COORDINATE_TYPE>  (1) 
2
5
10

$$$$
