41898
     RDKit          3D

 13 14  0  0  1  0  0  0  0  0999 V2000
   -1.9542    1.0402   -0.9104 N   0  0  0  0  0  0  0  0  0  0  0  0
   -2.0850    0.3189    0.3567 C   0  0  0  0  0  0  0  0  0  0  0  0
   -2.4036   -1.1639    0.1203 C   0  0  0  0  0  0  0  0  0  0  0  0
   -0.8671    0.5497    1.2669 C   0  0  0  0  0  0  0  0  0  0  0  0
   -1.3275   -1.9858   -0.5904 C   0  0  0  0  0  0  0  0  0  0  0  0
   -0.0409   -2.1416    0.2185 C   0  0  0  0  0  0  0  0  0  0  0  0
    0.4804    0.3197    0.6222 C   0  0  0  0  0  0  0  0  0  0  0  0
    0.8658   -0.9401    0.1292 C   0  0  0  0  0  0  0  0  0  0  0  0
    1.3776    1.3980    0.5223 C   0  0  0  0  0  0  0  0  0  0  0  0
    2.1368   -1.0886   -0.4534 C   0  0  0  0  0  0  0  0  0  0  0  0
   -1.8294    2.4672   -0.6724 C   0  0  0  0  0  0  0  0  0  0  0  0
    2.6337    1.2352   -0.0603 C   0  0  0  0  0  0  0  0  0  0  0  0
    3.0132   -0.0087   -0.5493 C   0  0  0  0  0  0  0  0  0  0  0  0
  1  2  1  0
  1 11  1  0
  2  3  1  0
  2  4  1  0
  3  5  1  0
  4  7  1  0
  5  6  1  0
  6  8  1  0
  7  8  2  0
  7  9  1  0
  8 10  1  0
  9 12  2  0
 10 13  2  0
 12 13  1  0
M  END
>  <PUBCHEM_COMPOUND_CID>  (1) 
41898

>  <PUBCHEM_CONFORMER_RMSD>  (1) 
0.6

>  <PUBCHEM_CONFORMER_DIVERSEORDER>  (1) 
1
5
2
6
7
3
4

>  <PUBCHEM_MMFF94_PARTIAL_CHARGES>  (1) 
16
1 -0.9
10 -0.15
11 0.27
12 -0.15
13 -0.15
2 0.27
23 0.36
24 0.15
25 0.15
29 0.15
30 0.15
4 0.14
6 0.14
7 -0.14
8 -0.14
9 -0.15

>  <PUBCHEM_EFFECTIVE_ROTOR_COUNT>  (1) 
2

>  <PUBCHEM_PHARMACOPHORE_FEATURES>  (1) 
4
1 1 cation
1 1 donor
6 7 8 9 10 12 13 rings
7 2 3 4 5 6 7 8 rings

>  <PUBCHEM_HEAVY_ATOM_COUNT>  (1) 
13

>  <PUBCHEM_ATOM_DEF_STEREO_COUNT>  (1) 
0

>  <PUBCHEM_ATOM_UDEF_STEREO_COUNT>  (1) 
1

>  <PUBCHEM_BOND_DEF_STEREO_COUNT>  (1) 
0

>  <PUBCHEM_BOND_UDEF_STEREO_COUNT>  (1) 
0

>  <PUBCHEM_ISOTOPIC_ATOM_COUNT>  (1) 
0

>  <PUBCHEM_COMPONENT_COUNT>  (1) 
1

>  <PUBCHEM_CACTVS_TAUTO_COUNT>  (1) 
1

>  <PUBCHEM_CONFORMER_ID>  (1) 
0000A3AA00000001

>  <PUBCHEM_MMFF94_ENERGY>  (1) 
29.5089

>  <PUBCHEM_FEATURE_SELFOVERLAP>  (1) 
20.305

>  <PUBCHEM_SHAPE_FINGERPRINT>  (1) 
1 1 18120936109593841639
11206711 2 18340491161394786190
12524768 44 17763739188781083851
12897270 3 18409726300478350069
13299463 15 18341331179572271713
14614273 12 18268706284889860400
15775835 57 18337402577260482350
16945 1 18339356482537906018
17844478 74 18262251026490722459
20201158 50 18130229379630463886
20588541 1 17981608474307972051
21501502 16 18269558402317500498
22802520 49 18196941173808977102
23402539 116 18051960713095142102
23419403 2 10941297142359914610
23559900 14 18129103334707654662
238 59 16888039333492520533
241688 4 18194399128758523619
25 1 17905328429397055021
2748010 2 18341056207366016242
353137 74 18337666541645159643
5084963 1 18341617052706282890
5255222 1 18342454901920178496
528886 8 18341333271210932080
63268167 104 18341337682443025274
81228 2 18050846912095315803

>  <PUBCHEM_SHAPE_MULTIPOLES>  (1) 
262.55
3.93
2.4
0.96
1.39
0.1
0.07
0.61
-0.72
-1
-0.44
-0.2
0.19
0.36

>  <PUBCHEM_SHAPE_SELFOVERLAP>  (1) 
544.596

>  <PUBCHEM_SHAPE_VOLUME>  (1) 
149

>  <PUBCHEM_COORDINATE_TYPE>  (1) 
2
5
10

$$$$
