41902
     RDKit          3D

 13 14  0  0  1  0  0  0  0  0999 V2000
    3.2044    1.1898   -0.4069 N   0  0  0  0  0  0  0  0  0  0  0  0
    1.9808    0.5038    0.0608 C   0  0  0  0  0  0  0  0  0  0  0  0
    2.3075   -1.0056    0.0340 C   0  0  0  0  0  0  0  0  0  0  0  0
    0.8363    0.8865   -0.9083 C   0  0  0  0  0  0  0  0  0  0  0  0
    1.1872   -1.9609    0.4509 C   0  0  0  0  0  0  0  0  0  0  0  0
   -0.0054   -1.9652   -0.5031 C   0  0  0  0  0  0  0  0  0  0  0  0
   -0.5580    0.5189   -0.4537 C   0  0  0  0  0  0  0  0  0  0  0  0
   -0.9525   -0.8175   -0.2654 C   0  0  0  0  0  0  0  0  0  0  0  0
    1.7238    1.0030    1.4919 C   0  0  0  0  0  0  0  0  0  0  0  0
   -1.4902    1.5464   -0.2222 C   0  0  0  0  0  0  0  0  0  0  0  0
   -2.2668   -1.0934    0.1503 C   0  0  0  0  0  0  0  0  0  0  0  0
   -2.7893    1.2575    0.1927 C   0  0  0  0  0  0  0  0  0  0  0  0
   -3.1779   -0.0633    0.3790 C   0  0  0  0  0  0  0  0  0  0  0  0
  1  2  1  0
  2  3  1  0
  2  4  1  0
  2  9  1  0
  3  5  1  0
  4  7  1  0
  5  6  1  0
  6  8  1  0
  7  8  2  0
  7 10  1  0
  8 11  1  0
 10 12  2  0
 11 13  2  0
 12 13  1  0
M  END
>  <PUBCHEM_COMPOUND_CID>  (1) 
41902

>  <PUBCHEM_CONFORMER_RMSD>  (1) 
0.4

>  <PUBCHEM_CONFORMER_DIVERSEORDER>  (1) 
2
4
3
1

>  <PUBCHEM_MMFF94_PARTIAL_CHARGES>  (1) 
16
1 -0.99
10 -0.15
11 -0.15
12 -0.15
13 -0.15
2 0.27
25 0.36
26 0.36
27 0.15
28 0.15
29 0.15
30 0.15
4 0.14
6 0.14
7 -0.14
8 -0.14

>  <PUBCHEM_EFFECTIVE_ROTOR_COUNT>  (1) 
1

>  <PUBCHEM_PHARMACOPHORE_FEATURES>  (1) 
4
1 1 cation
1 1 donor
6 7 8 10 11 12 13 rings
7 2 3 4 5 6 7 8 rings

>  <PUBCHEM_HEAVY_ATOM_COUNT>  (1) 
13

>  <PUBCHEM_ATOM_DEF_STEREO_COUNT>  (1) 
0

>  <PUBCHEM_ATOM_UDEF_STEREO_COUNT>  (1) 
1

>  <PUBCHEM_BOND_DEF_STEREO_COUNT>  (1) 
0

>  <PUBCHEM_BOND_UDEF_STEREO_COUNT>  (1) 
0

>  <PUBCHEM_ISOTOPIC_ATOM_COUNT>  (1) 
0

>  <PUBCHEM_COMPONENT_COUNT>  (1) 
1

>  <PUBCHEM_CACTVS_TAUTO_COUNT>  (1) 
1

>  <PUBCHEM_CONFORMER_ID>  (1) 
0000A3AE00000002

>  <PUBCHEM_MMFF94_ENERGY>  (1) 
28.3204

>  <PUBCHEM_FEATURE_SELFOVERLAP>  (1) 
20.305

>  <PUBCHEM_SHAPE_FINGERPRINT>  (1) 
12251169 10 18263640667227502603
12382932 28 18408604772974809001
12423570 1 15515352838940362109
12524768 44 18192714440943232431
12696612 119 18262802856494193879
12932764 1 17917426549152914853
13380535 21 18411429392323651438
14325111 11 18410577270928254101
15076042 46 18340205176665575657
15775835 57 18343871030031437969
16945 1 18267295602807649199
17804303 29 18339365137007874662
17990270 104 18122062005216604159
20511035 2 18196356044522970686
20871998 184 18126857224723349359
21501502 16 18339359656777103115
23235685 24 18334292114826750932
2334 1 18410008840512011199
23388829 49 18266737081435164599
23463225 33 18261672575942170886
23552423 10 18260270724354963807
2748010 2 18337106765767392423
276578 36 18341342131738980577
369184 2 18060132154848091253
449060 62 18411985741434402867
5084963 1 18409731733580311531
528862 383 18334010549560885418
528886 8 18334858354756691426
53812653 166 18343863333560988768
7364860 26 18199472069192908878
81228 2 17694487548396543750

>  <PUBCHEM_SHAPE_MULTIPOLES>  (1) 
262.55
4.42
2.01
0.94
0.82
0.62
0.18
-1.06
0.52
-0.28
-0.01
-0.33
-0.2
0

>  <PUBCHEM_SHAPE_SELFOVERLAP>  (1) 
548.982

>  <PUBCHEM_SHAPE_VOLUME>  (1) 
148.4

>  <PUBCHEM_COORDINATE_TYPE>  (1) 
2
5
10

$$$$
