41906
     RDKit          3D

 15 16  0  0  1  0  0  0  0  0999 V2000
    1.6274    0.7273    0.8142 N   0  0  0  0  0  0  0  0  0  0  0  0
    1.6832    0.0044   -0.4639 C   0  0  0  0  0  0  0  0  0  0  0  0
    1.8058   -1.5143   -0.2053 C   0  0  0  0  0  0  0  0  0  0  0  0
    0.4573    0.3591   -1.3413 C   0  0  0  0  0  0  0  0  0  0  0  0
    0.6509   -2.1843    0.5434 C   0  0  0  0  0  0  0  0  0  0  0  0
   -0.8874    0.3070   -0.6500 C   0  0  0  0  0  0  0  0  0  0  0  0
    2.9580    0.4633   -1.2038 C   0  0  0  0  0  0  0  0  0  0  0  0
   -0.6639   -2.1937   -0.2333 C   0  0  0  0  0  0  0  0  0  0  0  0
   -1.4130   -0.8900   -0.1328 C   0  0  0  0  0  0  0  0  0  0  0  0
    1.6254    2.1636    0.5705 C   0  0  0  0  0  0  0  0  0  0  0  0
    2.7544    0.3388    1.6517 C   0  0  0  0  0  0  0  0  0  0  0  0
   -1.6369    1.4913   -0.5316 C   0  0  0  0  0  0  0  0  0  0  0  0
   -2.6735   -0.8737    0.4896 C   0  0  0  0  0  0  0  0  0  0  0  0
   -2.8845    1.4923    0.0910 C   0  0  0  0  0  0  0  0  0  0  0  0
   -3.4032    0.3089    0.6017 C   0  0  0  0  0  0  0  0  0  0  0  0
  1  2  1  0
  1 10  1  0
  1 11  1  0
  2  3  1  0
  2  4  1  0
  2  7  1  0
  3  5  1  0
  4  6  1  0
  5  8  1  0
  6  9  2  0
  6 12  1  0
  8  9  1  0
  9 13  1  0
 12 14  2  0
 13 15  2  0
 14 15  1  0
M  END
>  <PUBCHEM_COMPOUND_CID>  (1) 
41906

>  <PUBCHEM_CONFORMER_RMSD>  (1) 
0.6

>  <PUBCHEM_CONFORMER_DIVERSEORDER>  (1) 
1
4
8
10
7
9
2
5
6
3

>  <PUBCHEM_MMFF94_PARTIAL_CHARGES>  (1) 
16
1 -0.81
10 0.27
11 0.27
12 -0.15
13 -0.15
14 -0.15
15 -0.15
2 0.27
33 0.15
34 0.15
35 0.15
36 0.15
4 0.14
6 -0.14
8 0.14
9 -0.14

>  <PUBCHEM_EFFECTIVE_ROTOR_COUNT>  (1) 
2

>  <PUBCHEM_PHARMACOPHORE_FEATURES>  (1) 
3
1 1 cation
6 6 9 12 13 14 15 rings
7 2 3 4 5 6 8 9 rings

>  <PUBCHEM_HEAVY_ATOM_COUNT>  (1) 
15

>  <PUBCHEM_ATOM_DEF_STEREO_COUNT>  (1) 
0

>  <PUBCHEM_ATOM_UDEF_STEREO_COUNT>  (1) 
1

>  <PUBCHEM_BOND_DEF_STEREO_COUNT>  (1) 
0

>  <PUBCHEM_BOND_UDEF_STEREO_COUNT>  (1) 
0

>  <PUBCHEM_ISOTOPIC_ATOM_COUNT>  (1) 
0

>  <PUBCHEM_COMPONENT_COUNT>  (1) 
1

>  <PUBCHEM_CACTVS_TAUTO_COUNT>  (1) 
1

>  <PUBCHEM_CONFORMER_ID>  (1) 
0000A3B200000001

>  <PUBCHEM_MMFF94_ENERGY>  (1) 
56.1791

>  <PUBCHEM_FEATURE_SELFOVERLAP>  (1) 
15.23

>  <PUBCHEM_SHAPE_FINGERPRINT>  (1) 
104564 63 17334501501696555562
10980938 120 18339925896617515939
12251169 10 18263911289027506768
12382932 28 18409439267734915281
12423570 1 10862941266724423204
12696612 119 18408595959559460248
12932764 1 18202566159580196383
13172582 1 18187077403461599583
13538477 17 17677898018098298806
13571099 52 17560507525614209634
13839132 238 18127129895101187156
14386348 128 18340217314295817265
15775835 57 18339655472512439059
15852999 172 17679273348705435359
15881359 60 17677591164560685311
16945 1 18339637940271437551
17804303 29 18264494979114496486
18186145 218 17917998248139379889
20511035 2 18048301259098266511
21501502 16 18263929834938903175
21947302 44 17703792543556045664
22802520 49 18053688024603683214
230 275 18202557376071584016
2334 1 17616816973394873039
23388829 49 17404014224680198599
23419403 2 16314377899164627126
23526113 38 17986420895438208758
27216 239 16983185971633808608
2748010 2 18263924332774632471
276578 36 18338245872614228403
305870 269 18339067212185133746
5084963 1 18130518516680838717
5255222 1 18336546032048698847
5337951 7 18059864969274917396
53812653 166 18341334413819782652
549884 4 18131358479134727292
7364860 26 18197780994602999503
81228 2 17980757465393649647

>  <PUBCHEM_SHAPE_MULTIPOLES>  (1) 
303.71
4.72
2.21
1.2
1.46
0.54
0.09
-1.33
0.85
-0.03
0.22
-0.82
-0.21
0.23

>  <PUBCHEM_SHAPE_SELFOVERLAP>  (1) 
633.311

>  <PUBCHEM_SHAPE_VOLUME>  (1) 
172.9

>  <PUBCHEM_COORDINATE_TYPE>  (1) 
2
5
10

$$$$
