41910
     RDKit          3D

 12 11  0  0  0  0  0  0  0  0999 V2000
    1.9589    0.5819   -0.0324 P   0  0  0  0  0  0  0  0  0  0  0  0
    3.4279    0.5634    0.6463 O   0  0  0  0  0  0  0  0  0  0  0  0
    2.1937   -0.2194   -1.4176 O   0  0  0  0  0  0  0  0  0  0  0  0
    1.3654    1.9517   -0.1789 O   0  0  0  0  0  0  0  0  0  0  0  0
   -3.3735    1.0955    0.4049 O   0  0  0  0  0  0  0  0  0  0  0  0
   -1.9319    0.7542   -1.3177 O   0  0  0  0  0  0  0  0  0  0  0  0
   -0.3133   -2.5737   -0.5951 O   0  0  0  0  0  0  0  0  0  0  0  0
   -0.2637   -0.6847    0.3337 N   0  0  0  0  0  0  0  0  0  0  0  0
   -0.7411   -1.9137    0.3592 N   0  0  0  0  0  0  0  0  0  0  0  0
    1.0447   -0.5674    0.9884 C   0  0  0  0  0  0  0  0  0  0  0  0
   -1.1872    0.2948    0.9283 C   0  0  0  0  0  0  0  0  0  0  0  0
   -2.1799    0.7175   -0.1191 C   0  0  0  0  0  0  0  0  0  0  0  0
  1  2  1  0
  1  3  1  0
  1  4  2  0
  1 10  1  0
  5 12  1  0
  6 12  2  0
  7  9  2  0
  8  9  1  0
  8 10  1  0
  8 11  1  0
 11 12  1  0
M  END
>  <PUBCHEM_COMPOUND_CID>  (1) 
41910

>  <PUBCHEM_CONFORMER_RMSD>  (1) 
0.6

>  <PUBCHEM_CONFORMER_DIVERSEORDER>  (1) 
1
63
49
72
29
19
71
43
24
17
55
59
60
73
64
31
46
62
35
12
44
18
7
57
9
51
58
27
40
70
21
67
45
47
14
28
13
66
50
30
23
32
10
68
69
76
11
3
54
75
5
65
74
39
15
38
8
34
6
56
48
26
4
33
61
16
41
53
2
37
36
42
22
77
52
25
20

>  <PUBCHEM_MMFF94_PARTIAL_CHARGES>  (1) 
15
1 1.24
10 0.27
11 0.33
12 0.66
17 0.5
18 0.5
19 0.5
2 -0.77
3 -0.77
4 -0.7
5 -0.65
6 -0.57
7 -0.16
8 -0.36
9 -0.01

>  <PUBCHEM_EFFECTIVE_ROTOR_COUNT>  (1) 
5

>  <PUBCHEM_PHARMACOPHORE_FEATURES>  (1) 
7
1 2 acceptor
1 3 acceptor
1 4 acceptor
1 5 acceptor
1 6 acceptor
3 5 6 12 anion
4 1 2 3 4 anion

>  <PUBCHEM_HEAVY_ATOM_COUNT>  (1) 
12

>  <PUBCHEM_ATOM_DEF_STEREO_COUNT>  (1) 
0

>  <PUBCHEM_ATOM_UDEF_STEREO_COUNT>  (1) 
0

>  <PUBCHEM_BOND_DEF_STEREO_COUNT>  (1) 
0

>  <PUBCHEM_BOND_UDEF_STEREO_COUNT>  (1) 
0

>  <PUBCHEM_ISOTOPIC_ATOM_COUNT>  (1) 
0

>  <PUBCHEM_COMPONENT_COUNT>  (1) 
1

>  <PUBCHEM_CACTVS_TAUTO_COUNT>  (1) 
1

>  <PUBCHEM_CONFORMER_ID>  (1) 
0000A3B600000001

>  <PUBCHEM_MMFF94_ENERGY>  (1) 
-6.4916

>  <PUBCHEM_FEATURE_SELFOVERLAP>  (1) 
35.619

>  <PUBCHEM_SHAPE_FINGERPRINT>  (1) 
1 1 18265613191077319443
12138202 97 18272368728315765118
14128692 85 12535333640885483824
15775835 57 18113901571675415276
15852999 172 17846777421120888286
16945 1 17603307029084620321
18511873 20 18259979375702107480
20082192 1 17983884416586086634
21028194 46 18187928339604434721
23211744 41 17677328291197882305
23235685 24 18413385419262100521
23402539 116 18201706354245881944
5084963 1 17458064833058440233
81228 2 18048879894425480523

>  <PUBCHEM_SHAPE_MULTIPOLES>  (1) 
205.63
4.19
1.9
1.09
0.1
1.13
0.21
-2.15
-0.06
-0.27
0.27
0.13
0.03
0.06

>  <PUBCHEM_SHAPE_SELFOVERLAP>  (1) 
381.147

>  <PUBCHEM_SHAPE_VOLUME>  (1) 
130.1

>  <PUBCHEM_COORDINATE_TYPE>  (1) 
2
5
10

$$$$
