41927
     RDKit          3D

 21 23  0  0  0  0  0  0  0  0999 V2000
   -4.4163   -1.4234    0.2772 N   0  0  0  0  0  0  0  0  0  0  0  0
    0.3150   -0.3956   -0.2056 C   0  0  0  0  0  0  0  0  0  0  0  0
    1.6981   -0.9231   -0.2155 C   0  0  0  0  0  0  0  0  0  0  0  0
    0.0084    1.0473   -0.3304 C   0  0  0  0  0  0  0  0  0  0  0  0
    2.6806   -0.4056    0.6503 C   0  0  0  0  0  0  0  0  0  0  0  0
    0.6205    1.9968    0.5102 C   0  0  0  0  0  0  0  0  0  0  0  0
    2.4173    0.6315    1.6629 C   0  0  0  0  0  0  0  0  0  0  0  0
    1.5446    1.6492    1.6037 C   0  0  0  0  0  0  0  0  0  0  0  0
    2.0461   -1.9361   -1.1287 C   0  0  0  0  0  0  0  0  0  0  0  0
   -0.8847    1.4813   -1.3281 C   0  0  0  0  0  0  0  0  0  0  0  0
   -0.7009   -1.2551   -0.0004 C   0  0  0  0  0  0  0  0  0  0  0  0
    3.9783   -0.9464    0.6062 C   0  0  0  0  0  0  0  0  0  0  0  0
    0.2900    3.3549    0.3548 C   0  0  0  0  0  0  0  0  0  0  0  0
    3.3418   -2.4491   -1.1679 C   0  0  0  0  0  0  0  0  0  0  0  0
   -1.1880    2.8338   -1.4765 C   0  0  0  0  0  0  0  0  0  0  0  0
    4.3069   -1.9568   -0.2981 C   0  0  0  0  0  0  0  0  0  0  0  0
   -0.6035    3.7704   -0.6327 C   0  0  0  0  0  0  0  0  0  0  0  0
   -2.0806   -0.8469    0.0283 C   0  0  0  0  0  0  0  0  0  0  0  0
   -3.0884   -1.7047    0.2327 C   0  0  0  0  0  0  0  0  0  0  0  0
   -5.3959   -2.4703    0.5099 C   0  0  0  0  0  0  0  0  0  0  0  0
   -4.8894   -0.0519    0.3477 C   0  0  0  0  0  0  0  0  0  0  0  0
  1 19  1  0
  1 20  1  0
  1 21  1  0
  2  3  1  0
  2  4  1  0
  2 11  2  0
  3  5  2  0
  3  9  1  0
  4  6  2  0
  4 10  1  0
  5  7  1  0
  5 12  1  0
  6  8  1  0
  6 13  1  0
  7  8  2  0
  9 14  2  0
 10 15  2  0
 11 18  1  0
 12 16  2  0
 13 17  2  0
 14 16  1  0
 15 17  1  0
 18 19  2  0
M  END
>  <PUBCHEM_COMPOUND_CID>  (1) 
41927

>  <PUBCHEM_CONFORMER_RMSD>  (1) 
0.6

>  <PUBCHEM_CONFORMER_DIVERSEORDER>  (1) 
2
4
3
1

>  <PUBCHEM_MMFF94_PARTIAL_CHARGES>  (1) 
34
1 -0.84
10 -0.15
11 -0.15
12 -0.15
13 -0.15
14 -0.15
15 -0.15
16 -0.15
17 -0.15
18 -0.15
19 -0.05
2 -0.06
20 0.37
21 0.37
22 0.15
23 0.15
24 0.15
25 0.15
26 0.15
27 0.15
28 0.15
29 0.15
3 0.03
30 0.15
31 0.15
32 0.15
33 0.15
34 0.15
4 0.03
5 0.03
6 0.03
7 -0.18
8 -0.18
9 -0.15

>  <PUBCHEM_EFFECTIVE_ROTOR_COUNT>  (1) 
2

>  <PUBCHEM_PHARMACOPHORE_FEATURES>  (1) 
4
1 1 cation
6 3 5 9 12 14 16 rings
6 4 6 10 13 15 17 rings
7 2 3 4 5 6 7 8 rings

>  <PUBCHEM_HEAVY_ATOM_COUNT>  (1) 
21

>  <PUBCHEM_ATOM_DEF_STEREO_COUNT>  (1) 
0

>  <PUBCHEM_ATOM_UDEF_STEREO_COUNT>  (1) 
0

>  <PUBCHEM_BOND_DEF_STEREO_COUNT>  (1) 
0

>  <PUBCHEM_BOND_UDEF_STEREO_COUNT>  (1) 
1

>  <PUBCHEM_ISOTOPIC_ATOM_COUNT>  (1) 
0

>  <PUBCHEM_COMPONENT_COUNT>  (1) 
1

>  <PUBCHEM_CACTVS_TAUTO_COUNT>  (1) 
1

>  <PUBCHEM_CONFORMER_ID>  (1) 
0000A3C700000002

>  <PUBCHEM_MMFF94_ENERGY>  (1) 
85.0086

>  <PUBCHEM_FEATURE_SELFOVERLAP>  (1) 
20.311

>  <PUBCHEM_SHAPE_FINGERPRINT>  (1) 
10764073 3 16624926235340811209
108634 29 18192690281736316605
116883 192 18409730625473669349
12293681 25 16982657815337364630
12788726 201 18187652340885535298
13583140 156 15051149247726999811
13681431 1 18116449208904994861
14022347 108 18040715874507452355
14347329 18 16299486299126475855
14790565 3 17833551580165764132
15420108 30 17549526853216975272
15664445 248 18192730036112416212
15885798 251 18408888421147221899
1601671 61 18194120939421511000
17357779 13 18339629062827127645
17980427 26 15911615056376001160
1813 80 18335145310122442179
20600515 1 17749666389149147538
20739085 24 18267297819174661736
21033648 29 17846487128845565939
21049683 271 18191320466157053036
21285901 2 18341902835398613414
21330990 113 18124325912817078785
21452121 99 17829024542922165912
22182313 1 18058428943086551778
23419403 2 17916848154333723248
23557571 272 18337392626417584038
23559900 14 18264210399725971363
2748010 2 18127097889279554872
3380486 145 17700942583879154968
38695281 34 17615978037517893636
4409770 3 18044932364598583845
5283268 108 18408882962306968977
57262259 84 18197229039876216622
57527585 103 16477997336922672086
6442390 28 17546454371131816145
6443956 14 18411703213948189523
7164475 11 18190189992458472606
7364860 26 18122350348178096677
81228 2 18117573841685494563
9841814 1 17895750841553202931
9971528 1 18411698833408738075

>  <PUBCHEM_SHAPE_MULTIPOLES>  (1) 
427.19
8
4.1
1.3
7.75
3.41
-0.03
-9.46
-1.45
1.1
0.92
-0.65
0.48
1.96

>  <PUBCHEM_SHAPE_SELFOVERLAP>  (1) 
928.362

>  <PUBCHEM_SHAPE_VOLUME>  (1) 
231.5

>  <PUBCHEM_COORDINATE_TYPE>  (1) 
2
5
10

$$$$
