41932
     RDKit          3D

 20 22  0  0  0  0  0  0  0  0999 V2000
    4.6841    0.2370   -0.8168 O   0  0  0  0  0  0  0  0  0  0  0  0
   -0.5062    2.4293    0.1725 O   0  0  0  0  0  0  0  0  0  0  0  0
   -1.6431   -2.7857   -0.0845 O   0  0  0  0  0  0  0  0  0  0  0  0
    2.0419    1.9860    0.3685 N   0  0  0  0  0  0  0  0  0  0  0  0
    0.3375    0.2129    0.1717 C   0  0  0  0  0  0  0  0  0  0  0  0
    0.0296   -1.1474    0.1039 C   0  0  0  0  0  0  0  0  0  0  0  0
    1.6710    0.6218    0.2943 C   0  0  0  0  0  0  0  0  0  0  0  0
   -2.1372    0.7825   -0.0140 C   0  0  0  0  0  0  0  0  0  0  0  0
   -2.4452   -0.5780   -0.0818 C   0  0  0  0  0  0  0  0  0  0  0  0
    2.6898   -0.3299    0.3483 C   0  0  0  0  0  0  0  0  0  0  0  0
   -0.7346    1.2276    0.1151 C   0  0  0  0  0  0  0  0  0  0  0  0
   -1.3730   -1.5926   -0.0254 C   0  0  0  0  0  0  0  0  0  0  0  0
    1.0551   -2.0990    0.1585 C   0  0  0  0  0  0  0  0  0  0  0  0
    2.3825   -1.6873    0.2806 C   0  0  0  0  0  0  0  0  0  0  0  0
    4.1247    0.0699    0.4788 C   0  0  0  0  0  0  0  0  0  0  0  0
   -3.1626    1.7341   -0.0684 C   0  0  0  0  0  0  0  0  0  0  0  0
   -3.7785   -0.9868   -0.2039 C   0  0  0  0  0  0  0  0  0  0  0  0
   -4.4901    1.3223   -0.1901 C   0  0  0  0  0  0  0  0  0  0  0  0
   -4.7973   -0.0351   -0.2579 C   0  0  0  0  0  0  0  0  0  0  0  0
    6.0516    0.6184   -0.7496 C   0  0  0  0  0  0  0  0  0  0  0  0
  1 15  1  0
  1 20  1  0
  2 11  2  0
  3 12  2  0
  4  7  1  0
  5  6  1  0
  5  7  2  0
  5 11  1  0
  6 12  1  0
  6 13  2  0
  7 10  1  0
  8  9  2  0
  8 11  1  0
  8 16  1  0
  9 12  1  0
  9 17  1  0
 10 14  2  0
 10 15  1  0
 13 14  1  0
 16 18  2  0
 17 19  2  0
 18 19  1  0
M  END
>  <PUBCHEM_COMPOUND_CID>  (1) 
41932

>  <PUBCHEM_CONFORMER_RMSD>  (1) 
0.6

>  <PUBCHEM_CONFORMER_DIVERSEORDER>  (1) 
2
1

>  <PUBCHEM_MMFF94_PARTIAL_CHARGES>  (1) 
28
1 -0.56
10 -0.14
11 0.4
12 0.4
13 -0.15
14 -0.15
15 0.42
16 -0.15
17 -0.15
18 -0.15
19 -0.15
2 -0.57
20 0.28
21 0.15
22 0.15
25 0.15
26 0.15
27 0.4
28 0.4
29 0.15
3 -0.57
30 0.15
4 -0.9
5 0.09
6 0.09
7 0.1
8 0.09
9 0.09

>  <PUBCHEM_EFFECTIVE_ROTOR_COUNT>  (1) 
2

>  <PUBCHEM_PHARMACOPHORE_FEATURES>  (1) 
8
1 1 acceptor
1 2 acceptor
1 3 acceptor
1 4 cation
1 4 donor
6 5 6 7 10 13 14 rings
6 5 6 8 9 11 12 rings
6 8 9 16 17 18 19 rings

>  <PUBCHEM_HEAVY_ATOM_COUNT>  (1) 
20

>  <PUBCHEM_ATOM_DEF_STEREO_COUNT>  (1) 
0

>  <PUBCHEM_ATOM_UDEF_STEREO_COUNT>  (1) 
0

>  <PUBCHEM_BOND_DEF_STEREO_COUNT>  (1) 
0

>  <PUBCHEM_BOND_UDEF_STEREO_COUNT>  (1) 
0

>  <PUBCHEM_ISOTOPIC_ATOM_COUNT>  (1) 
0

>  <PUBCHEM_COMPONENT_COUNT>  (1) 
1

>  <PUBCHEM_CACTVS_TAUTO_COUNT>  (1) 
4

>  <PUBCHEM_CONFORMER_ID>  (1) 
0000A3CC00000002

>  <PUBCHEM_MMFF94_ENERGY>  (1) 
76.8575

>  <PUBCHEM_FEATURE_SELFOVERLAP>  (1) 
40.637

>  <PUBCHEM_SHAPE_FINGERPRINT>  (1) 
10411042 1 17761493990459739787
10498660 4 18410012092029269980
10616163 171 18411699928266981823
10730089 173 18409733967591053068
10759866 29 18114741538825185170
10967382 1 18411413973660071235
11471102 20 18339071597504803367
12011746 2 18412823586063291373
12236239 1 17822009822457044834
12390115 104 18129112138536160209
12403259 415 18412816997921602049
12403814 3 17458339723929232389
12788726 201 17987801791463533296
12838862 33 18338496595699465897
12954195 1 17915757392145185316
13140716 1 18267010829454285240
13221675 6 18411413994939826299
13583140 156 16660365900174967185
13862211 1 18411692188566875514
14790565 3 18338806615039589720
14911166 2 18341896298816564860
15099037 51 18412826893283041644
15196674 1 18338514140698580579
15536298 74 18271239413630509587
1601671 61 18409448072813504276
16945 1 18411409609699030931
17804303 29 18341331183920226977
1813 80 16953362488236756706
19591789 44 18339077198205571363
200 152 17703788119713298473
20510252 161 18200591385125740657
20602899 9 16056880247156476127
21029758 27 18260270780479805885
21267235 1 18339929311343505879
21279426 13 18268995276228209534
23175994 123 16988564623423549120
2334 1 18050844725787806035
23366157 5 17898575267834829938
23402539 116 18343575248429019703
23402655 69 18342170021424759629
23463225 33 18337667521356444123
23557571 272 18272660081559280470
23559900 14 18272088314829115648
2748010 2 18123180474845517795
296302 2 17603587404560161747
3004659 81 18335424522632725742
335352 9 18411416206779249828
34934 24 18410005524792204754
350125 39 18410293597561537417
3759504 43 17749394792645035082
4409770 3 15590463742921198758
474 4 17386013896710204316
4990 188 17988929946681334380
5104073 3 18337950091186072683
59755656 520 17022904566878450410
9709674 26 18412826884767525223

>  <PUBCHEM_SHAPE_MULTIPOLES>  (1) 
389
9.69
2.34
0.7
6.47
0.46
0.03
-2.63
2.16
-0.77
-0.1
0.36
-0.03
-0.25

>  <PUBCHEM_SHAPE_SELFOVERLAP>  (1) 
867.456

>  <PUBCHEM_SHAPE_VOLUME>  (1) 
206.5

>  <PUBCHEM_COORDINATE_TYPE>  (1) 
2
5
10

$$$$
