41936
     RDKit          3D

 14 14  0  0  0  0  0  0  0  0999 V2000
   -3.0431    1.4338   -0.1924 O   0  0  0  0  0  0  0  0  0  0  0  0
   -3.1734   -0.8559    0.2284 N   0  0  0  0  0  0  0  0  0  0  0  0
   -0.1617    0.0551   -0.5156 C   0  0  0  0  0  0  0  0  0  0  0  0
    1.2928   -0.0291   -0.2462 C   0  0  0  0  0  0  0  0  0  0  0  0
   -1.0731    0.2901    0.4559 C   0  0  0  0  0  0  0  0  0  0  0  0
   -0.5138   -0.1175   -1.9716 C   0  0  0  0  0  0  0  0  0  0  0  0
    1.8468   -1.2556    0.0656 C   0  0  0  0  0  0  0  0  0  0  0  0
    2.0548    1.1213   -0.3139 C   0  0  0  0  0  0  0  0  0  0  0  0
   -0.7654    0.5072    1.9094 C   0  0  0  0  0  0  0  0  0  0  0  0
   -2.5354    0.3678    0.1419 C   0  0  0  0  0  0  0  0  0  0  0  0
    3.2162   -1.3348    0.3193 C   0  0  0  0  0  0  0  0  0  0  0  0
    3.4242    1.0420   -0.0604 C   0  0  0  0  0  0  0  0  0  0  0  0
    4.0050   -0.1860    0.2561 C   0  0  0  0  0  0  0  0  0  0  0  0
   -4.5738   -1.0386   -0.0765 C   0  0  0  0  0  0  0  0  0  0  0  0
  1 10  2  0
  2 10  1  0
  2 14  1  0
  3  4  1  0
  3  5  2  0
  3  6  1  0
  4  7  2  0
  4  8  1  0
  5  9  1  0
  5 10  1  0
  7 11  1  0
  8 12  2  0
 11 13  2  0
 12 13  1  0
M  END
>  <PUBCHEM_COMPOUND_CID>  (1) 
41936

>  <PUBCHEM_CONFORMER_RMSD>  (1) 
0.6

>  <PUBCHEM_CONFORMER_DIVERSEORDER>  (1) 
1
4
3
2

>  <PUBCHEM_MMFF94_PARTIAL_CHARGES>  (1) 
20
1 -0.57
10 0.62
11 -0.15
12 -0.15
13 -0.15
14 0.3
18 0.15
19 0.15
2 -0.73
23 0.15
24 0.15
25 0.15
26 0.37
3 -0.17
4 0.03
5 -0.12
6 0.14
7 -0.15
8 -0.15
9 0.14

>  <PUBCHEM_EFFECTIVE_ROTOR_COUNT>  (1) 
3

>  <PUBCHEM_PHARMACOPHORE_FEATURES>  (1) 
5
1 1 acceptor
1 2 donor
1 6 hydrophobe
1 9 hydrophobe
6 4 7 8 11 12 13 rings

>  <PUBCHEM_HEAVY_ATOM_COUNT>  (1) 
14

>  <PUBCHEM_ATOM_DEF_STEREO_COUNT>  (1) 
0

>  <PUBCHEM_ATOM_UDEF_STEREO_COUNT>  (1) 
0

>  <PUBCHEM_BOND_DEF_STEREO_COUNT>  (1) 
0

>  <PUBCHEM_BOND_UDEF_STEREO_COUNT>  (1) 
1

>  <PUBCHEM_ISOTOPIC_ATOM_COUNT>  (1) 
0

>  <PUBCHEM_COMPONENT_COUNT>  (1) 
1

>  <PUBCHEM_CACTVS_TAUTO_COUNT>  (1) 
2

>  <PUBCHEM_CONFORMER_ID>  (1) 
0000A3D000000001

>  <PUBCHEM_MMFF94_ENERGY>  (1) 
40.2448

>  <PUBCHEM_FEATURE_SELFOVERLAP>  (1) 
25.371

>  <PUBCHEM_SHAPE_FINGERPRINT>  (1) 
11769659 78 18408318874102902371
13538477 17 17632285809412888062
13581323 91 17132112437951123470
14251717 144 18187082866765813402
14289901 80 18409168822271105121
14325111 11 18408886226270980620
14911166 2 14996283634632964603
14943859 89 9295291638220909519
15207287 21 16950561086531212218
15375462 189 17846211198191442763
15375462 478 18272651229441707780
15775835 57 18131068260090145496
15848700 24 16443059521388304126
16945 1 17896339045476422389
18186145 218 16732983119961771417
19026448 5 18408889520611207969
200 152 18411416215427251899
20201158 50 17458348520227995770
20279233 1 16587745347799236272
20559304 39 17703793604887598016
20645477 70 18333727987952583315
20871999 31 14129640902897563811
21501925 9 18335135401601085922
23402539 116 16081358653224558206
23559900 14 18335417993200669946
276578 36 16056885714860560934
3286 77 18187359939495705348
57812782 119 18113620101051441003
581208 293 17967252009698299986
69090 78 18040433321625812539
76465 3 17531513288179049330
77492 1 17989200443568700980
81228 2 16009308682584841124

>  <PUBCHEM_SHAPE_MULTIPOLES>  (1) 
277.26
7.35
1.3
1.23
2.62
0.04
-0.1
1.3
0.63
-0.15
0.08
0.29
-0.09
-0.3

>  <PUBCHEM_SHAPE_SELFOVERLAP>  (1) 
569.188

>  <PUBCHEM_SHAPE_VOLUME>  (1) 
160.9

>  <PUBCHEM_COORDINATE_TYPE>  (1) 
2
5
10

$$$$
