41946
     RDKit          3D

 20 21  0  0  0  0  0  0  0  0999 V2000
   -3.2907   -0.1263    0.5975 O   0  0  0  0  0  0  0  0  0  0  0  0
    1.3758    3.1184    0.1240 O   0  0  0  0  0  0  0  0  0  0  0  0
    3.7371   -2.3414    1.2996 O   0  0  0  0  0  0  0  0  0  0  0  0
   -3.2226    0.0809   -1.6940 O   0  0  0  0  0  0  0  0  0  0  0  0
    3.1777    1.7352    0.2139 N   0  0  0  0  0  0  0  0  0  0  0  0
    3.7686    0.5184    0.1805 N   0  0  0  0  0  0  0  0  0  0  0  0
    0.9700    0.7991   -0.1183 C   0  0  0  0  0  0  0  0  0  0  0  0
    1.5570   -0.4627   -0.1557 C   0  0  0  0  0  0  0  0  0  0  0  0
   -0.4131    0.9406   -0.2659 C   0  0  0  0  0  0  0  0  0  0  0  0
   -1.2060   -0.1912   -0.4514 C   0  0  0  0  0  0  0  0  0  0  0  0
   -0.6201   -1.4563   -0.4886 C   0  0  0  0  0  0  0  0  0  0  0  0
    0.7612   -1.5961   -0.3411 C   0  0  0  0  0  0  0  0  0  0  0  0
    3.0234   -0.5281    0.0076 C   0  0  0  0  0  0  0  0  0  0  0  0
    1.8279    1.9784    0.0791 C   0  0  0  0  0  0  0  0  0  0  0  0
   -1.0959    2.2735   -0.2335 C   0  0  0  0  0  0  0  0  0  0  0  0
   -1.4471   -2.6860   -0.6858 C   0  0  0  0  0  0  0  0  0  0  0  0
   -2.6524   -0.0638   -0.6085 C   0  0  0  0  0  0  0  0  0  0  0  0
    3.7092   -1.8734   -0.0262 C   0  0  0  0  0  0  0  0  0  0  0  0
   -4.7178   -0.0141    0.5748 C   0  0  0  0  0  0  0  0  0  0  0  0
   -5.2422   -0.1050    1.9919 C   0  0  0  0  0  0  0  0  0  0  0  0
  1 17  1  0
  1 19  1  0
  2 14  2  0
  3 18  1  0
  4 17  2  0
  5  6  1  0
  5 14  1  0
  6 13  2  0
  7  8  2  0
  7  9  1  0
  7 14  1  0
  8 12  1  0
  8 13  1  0
  9 10  2  0
  9 15  1  0
 10 11  1  0
 10 17  1  0
 11 12  2  0
 11 16  1  0
 13 18  1  0
 19 20  1  0
M  END
>  <PUBCHEM_COMPOUND_CID>  (1) 
41946

>  <PUBCHEM_CONFORMER_RMSD>  (1) 
0.6

>  <PUBCHEM_CONFORMER_DIVERSEORDER>  (1) 
1
6
7
2
5
8
4
3

>  <PUBCHEM_MMFF94_PARTIAL_CHARGES>  (1) 
22
1 -0.43
10 0.09
11 -0.14
12 -0.15
13 0.3
14 0.54
15 0.14
16 0.14
17 0.63
18 0.34
19 0.28
2 -0.57
21 0.15
3 -0.68
30 0.37
33 0.4
4 -0.57
5 -0.37
6 -0.51
7 0.09
8 0.09
9 -0.14

>  <PUBCHEM_EFFECTIVE_ROTOR_COUNT>  (1) 
4

>  <PUBCHEM_PHARMACOPHORE_FEATURES>  (1) 
8
1 2 acceptor
1 3 acceptor
1 3 donor
1 4 acceptor
1 5 donor
1 6 acceptor
6 5 6 7 8 13 14 rings
6 7 8 9 10 11 12 rings

>  <PUBCHEM_HEAVY_ATOM_COUNT>  (1) 
20

>  <PUBCHEM_ATOM_DEF_STEREO_COUNT>  (1) 
0

>  <PUBCHEM_ATOM_UDEF_STEREO_COUNT>  (1) 
0

>  <PUBCHEM_BOND_DEF_STEREO_COUNT>  (1) 
0

>  <PUBCHEM_BOND_UDEF_STEREO_COUNT>  (1) 
0

>  <PUBCHEM_ISOTOPIC_ATOM_COUNT>  (1) 
0

>  <PUBCHEM_COMPONENT_COUNT>  (1) 
1

>  <PUBCHEM_CACTVS_TAUTO_COUNT>  (1) 
3

>  <PUBCHEM_CONFORMER_ID>  (1) 
0000A3DA00000001

>  <PUBCHEM_MMFF94_ENERGY>  (1) 
66.4778

>  <PUBCHEM_FEATURE_SELFOVERLAP>  (1) 
40.622

>  <PUBCHEM_SHAPE_FINGERPRINT>  (1) 
10967382 1 18411693314154015468
11796584 16 16732981999233926667
12236239 1 17704069595555042679
12251169 10 18341333374263623683
12390115 104 17621046790554370088
12507560 14 18272088266671670358
12553582 1 18340482279745536734
12644460 14 18335986445234096392
13140716 1 18267862972440706258
13583140 156 17168965898782148605
14022347 108 18268167387091361830
14178342 30 17837760484853443240
14790565 3 18340785770487671412
15375462 189 18334290959591539074
15442244 35 18341325656413374590
15475509 35 17385444302047173387
15475509 8 17557459563518501340
16945 1 18412819196701582460
18186145 218 18343863341960889549
19591789 44 18267869384711023014
20028762 73 18202560692393888495
20739085 24 18267041499684344473
21029758 27 18334861558965831356
21041028 32 18341336569788357585
21267235 1 18337678512631863902
21501502 16 18197773516911703190
22182313 1 17841152143101658391
23184049 59 18412268341539583711
2334 1 17907006627753898558
23402539 116 18128234715271858550
23463225 33 18411130308471488318
23493267 7 17314216775137778717
23557571 272 16950269712034614749
23559900 14 17983863556648439540
25147074 1 18199460146263390638
2748010 2 18051405464107350708
335352 9 18340199679017578190
34934 24 18340192090422210902
45790113 53 18409161082661046236
465052 167 18335151873059622899
5104073 3 18337388223591030400
7364860 26 18342167917228479028
7832392 63 18270679904125019662

>  <PUBCHEM_SHAPE_MULTIPOLES>  (1) 
378.15
8.05
2.76
1.1
5.78
0.49
-0.23
-1.49
-3.77
-2.16
0.05
1.29
-0.26
-0.45

>  <PUBCHEM_SHAPE_SELFOVERLAP>  (1) 
810.651

>  <PUBCHEM_SHAPE_VOLUME>  (1) 
211

>  <PUBCHEM_COORDINATE_TYPE>  (1) 
2
5
10

$$$$
