41956
     RDKit          3D

 27 29  0  0  0  0  0  0  0  0999 V2000
    1.9155    0.8241   -0.5906 O   0  0  0  0  0  0  0  0  0  0  0  0
   -2.9727   -2.0592   -1.2809 O   0  0  0  0  0  0  0  0  0  0  0  0
   -4.6641    2.1347    1.5664 O   0  0  0  0  0  0  0  0  0  0  0  0
   -0.7007   -0.9287   -1.8198 N   0  0  0  0  0  0  0  0  0  0  0  0
    6.5945   -0.3151    0.4096 C   0  0  0  0  0  0  0  0  0  0  0  0
    5.6387    0.3137   -0.6068 C   0  0  0  0  0  0  0  0  0  0  0  0
    8.0596   -0.2898   -0.0355 C   0  0  0  0  0  0  0  0  0  0  0  0
    4.1966    0.2827   -0.1027 C   0  0  0  0  0  0  0  0  0  0  0  0
    9.0238   -0.8511    1.0118 C   0  0  0  0  0  0  0  0  0  0  0  0
    3.2317    0.8684   -1.1239 C   0  0  0  0  0  0  0  0  0  0  0  0
   10.4759   -0.7349    0.5453 C   0  0  0  0  0  0  0  0  0  0  0  0
   -2.4792    0.1112   -0.4618 C   0  0  0  0  0  0  0  0  0  0  0  0
   -0.4030    1.2695   -0.8909 C   0  0  0  0  0  0  0  0  0  0  0  0
   -2.9304    1.2012    0.2853 C   0  0  0  0  0  0  0  0  0  0  0  0
   -1.2102    0.1463   -1.0518 C   0  0  0  0  0  0  0  0  0  0  0  0
    0.9624    1.3426   -1.5088 C   0  0  0  0  0  0  0  0  0  0  0  0
   -4.6692   -1.1060   -0.0082 C   0  0  0  0  0  0  0  0  0  0  0  0
   -3.3320   -1.0824   -0.6355 C   0  0  0  0  0  0  0  0  0  0  0  0
   -5.1204   -0.0157    0.7386 C   0  0  0  0  0  0  0  0  0  0  0  0
   -4.2676    1.1778    0.9126 C   0  0  0  0  0  0  0  0  0  0  0  0
   -0.8483    2.3573   -0.1470 C   0  0  0  0  0  0  0  0  0  0  0  0
   -2.1123    2.3263    0.4428 C   0  0  0  0  0  0  0  0  0  0  0  0
   11.4421   -1.2560    1.5972 C   0  0  0  0  0  0  0  0  0  0  0  0
   -5.4872   -2.2312   -0.1654 C   0  0  0  0  0  0  0  0  0  0  0  0
   -6.3900   -0.0505    1.3280 C   0  0  0  0  0  0  0  0  0  0  0  0
   -6.7516   -2.2617    0.4235 C   0  0  0  0  0  0  0  0  0  0  0  0
   -7.2021   -1.1736    1.1684 C   0  0  0  0  0  0  0  0  0  0  0  0
  1 10  1  0
  1 16  1  0
  2 18  2  0
  3 20  2  0
  4 15  1  0
  5  6  1  0
  5  7  1  0
  6  8  1  0
  7  9  1  0
  8 10  1  0
  9 11  1  0
 11 23  1  0
 12 14  2  0
 12 15  1  0
 12 18  1  0
 13 15  2  0
 13 16  1  0
 13 21  1  0
 14 20  1  0
 14 22  1  0
 17 18  1  0
 17 19  2  0
 17 24  1  0
 19 20  1  0
 19 25  1  0
 21 22  2  0
 24 26  2  0
 25 27  2  0
 26 27  1  0
M  END
>  <PUBCHEM_COMPOUND_CID>  (1) 
41956

>  <PUBCHEM_CONFORMER_RMSD>  (1) 
1

>  <PUBCHEM_CONFORMER_DIVERSEORDER>  (1) 
1
32
16
53
3
85
23
10
24
27
31
63
94
38
98
61
70
35
8
77
56
69
43
11
80
17
33
7
39
66
59
79
48
99
9
72
37
52
6
78
40
2
49
88
87
30
90
29
36
13
51
15
28
22
42
106
21
58
105
82
91
84
55
92
18
68
12
47
104
54
20
103
62
4
5
74
19
75
44
101
83
60
67
76
50
57
46
26
45
96
14
34
81
86
71
95
64
73
102
89
93
25
65
100
97
41

>  <PUBCHEM_MMFF94_PARTIAL_CHARGES>  (1) 
28
1 -0.56
10 0.28
12 0.09
13 -0.14
14 0.09
15 0.1
16 0.42
17 0.09
18 0.4
19 0.09
2 -0.57
20 0.4
21 -0.15
22 -0.15
24 -0.15
25 -0.15
26 -0.15
27 -0.15
3 -0.57
4 -0.9
44 0.15
45 0.15
49 0.15
50 0.15
51 0.4
52 0.4
53 0.15
54 0.15

>  <PUBCHEM_EFFECTIVE_ROTOR_COUNT>  (1) 
9

>  <PUBCHEM_PHARMACOPHORE_FEATURES>  (1) 
11
1 1 acceptor
1 2 acceptor
1 23 hydrophobe
1 3 acceptor
1 4 cation
1 4 donor
3 5 6 8 hydrophobe
3 7 9 11 hydrophobe
6 12 13 14 15 21 22 rings
6 12 14 17 18 19 20 rings
6 17 19 24 25 26 27 rings

>  <PUBCHEM_HEAVY_ATOM_COUNT>  (1) 
27

>  <PUBCHEM_ATOM_DEF_STEREO_COUNT>  (1) 
0

>  <PUBCHEM_ATOM_UDEF_STEREO_COUNT>  (1) 
0

>  <PUBCHEM_BOND_DEF_STEREO_COUNT>  (1) 
0

>  <PUBCHEM_BOND_UDEF_STEREO_COUNT>  (1) 
0

>  <PUBCHEM_ISOTOPIC_ATOM_COUNT>  (1) 
0

>  <PUBCHEM_COMPONENT_COUNT>  (1) 
1

>  <PUBCHEM_CACTVS_TAUTO_COUNT>  (1) 
4

>  <PUBCHEM_CONFORMER_ID>  (1) 
0000A3E400000001

>  <PUBCHEM_MMFF94_ENERGY>  (1) 
73.4917

>  <PUBCHEM_FEATURE_SELFOVERLAP>  (1) 
55.875

>  <PUBCHEM_SHAPE_FINGERPRINT>  (1) 
10 15 17561085834624193996
10299344 5 18335423474591834980
10625338 86 15626224594436950138
12236239 1 18261403299179288709
12838862 33 18060146402225504617
12838863 1 18129940217617569815
13140716 1 17699860815489077791
13383668 90 15430030003141280427
13553643 46 14045444650453478986
13627175 4 17676763155940265738
13668630 136 16660646292730176904
150020 25 13118006613355224902
15461852 350 11169920476925669968
155225 1 12175626174307477626
1754911 235 9079113372320313666
1813 80 17895209808749477813
1818759 1 18040999532361569266
2026 5 17168135682411318050
20771845 65 17968664920579245956
21298829 104 11312057652041183626
21792961 116 18114178658398076215
23389318 12 16950289512498422278
23522609 53 17972635214233802388
23528940 14 18334287666248941898
23576562 1 8934417597989657267
3383291 50 18409173241751125154
3711267 37 13901911133459984578
44389302 135 18116424857791374730
4516262 110 12247689236134146292
5104073 3 17773896211211244839
54039377 194 17749389261618421942
559249 180 18335424578203355093
59521660 218 16878234160259629396
636775 8 10809639121012644241
9953998 17 17489866051250801814
9962374 69 17749106725984950278

>  <PUBCHEM_SHAPE_MULTIPOLES>  (1) 
533.06
30.84
2.25
1.41
105.12
0.16
-0.04
-21.92
16.79
-3.34
0.14
-0.3
0.01
-2.4

>  <PUBCHEM_SHAPE_SELFOVERLAP>  (1) 
1132.353

>  <PUBCHEM_SHAPE_VOLUME>  (1) 
297.6

>  <PUBCHEM_COORDINATE_TYPE>  (1) 
2
5
10

$$$$
