41968
     RDKit          3D

 40 41  0  0  1  0  0  0  0  0999 V2000
    1.2035   -0.4178    0.5233 O   0  0  0  0  0  0  0  0  0  0  0  0
    3.3955   -0.9466   -0.0761 O   0  0  0  0  0  0  0  0  0  0  0  0
    2.1740    1.5980    2.2469 O   0  0  0  0  0  0  0  0  0  0  0  0
   -1.2034    0.1123    1.4347 O   0  0  0  0  0  0  0  0  0  0  0  0
   -3.9741    0.0948    1.0948 O   0  0  0  0  0  0  0  0  0  0  0  0
    1.5090   -5.2046   -0.6576 O   0  0  0  0  0  0  0  0  0  0  0  0
   -0.3997    0.4938   -3.5709 O   0  0  0  0  0  0  0  0  0  0  0  0
   -5.1276   -1.7020    1.9570 O   0  0  0  0  0  0  0  0  0  0  0  0
    4.8213    2.6782    1.4446 N   0  0  0  0  0  0  0  0  0  0  0  0
    0.7866   -1.7677    0.2990 C   0  0  0  0  0  0  0  0  0  0  0  0
    0.3900   -1.9320   -1.1945 C   0  0  0  0  0  0  0  0  0  0  0  0
   -0.3270   -2.1623    1.3197 C   0  0  0  0  0  0  0  0  0  0  0  0
    4.4360    1.2661    1.4374 C   0  0  0  0  0  0  0  0  0  0  0  0
    2.5708   -0.3608    0.9293 C   0  0  0  0  0  0  0  0  0  0  0  0
    2.9376    1.1117    1.1441 C   0  0  0  0  0  0  0  0  0  0  0  0
    5.2659    0.5147    0.3936 C   0  0  0  0  0  0  0  0  0  0  0  0
    1.4449   -1.3118   -2.1507 C   0  0  0  0  0  0  0  0  0  0  0  0
    4.7816   -0.9309    0.2727 C   0  0  0  0  0  0  0  0  0  0  0  0
   -1.5733   -1.2457    1.1918 C   0  0  0  0  0  0  0  0  0  0  0  0
    0.1789   -3.4012   -1.5911 C   0  0  0  0  0  0  0  0  0  0  0  0
    1.5084    0.2285   -2.1136 C   0  0  0  0  0  0  0  0  0  0  0  0
    0.2469   -2.1460    2.7498 C   0  0  0  0  0  0  0  0  0  0  0  0
   -2.7223   -1.6403    2.1320 C   0  0  0  0  0  0  0  0  0  0  0  0
    5.5432   -1.6748   -0.8157 C   0  0  0  0  0  0  0  0  0  0  0  0
    2.5929    0.7486   -3.0553 C   0  0  0  0  0  0  0  0  0  0  0  0
    6.2240    2.8222    1.8316 C   0  0  0  0  0  0  0  0  0  0  0  0
    4.5885    3.2773    0.1314 C   0  0  0  0  0  0  0  0  0  0  0  0
    1.4187   -4.2231   -1.3872 C   0  0  0  0  0  0  0  0  0  0  0  0
    0.1702    0.8275   -2.5336 C   0  0  0  0  0  0  0  0  0  0  0  0
   -4.0812   -1.1166    1.7047 C   0  0  0  0  0  0  0  0  0  0  0  0
   -5.1843    0.7976    0.7311 C   0  0  0  0  0  0  0  0  0  0  0  0
   -0.4255    1.8386   -1.6150 C   0  0  0  0  0  0  0  0  0  0  0  0
   -4.8976    1.6600   -0.5294 C   0  0  0  0  0  0  0  0  0  0  0  0
   -6.3002   -0.2268    0.5292 C   0  0  0  0  0  0  0  0  0  0  0  0
   -1.7604    1.8973   -1.4896 C   0  0  0  0  0  0  0  0  0  0  0  0
   -3.8026    2.6871   -0.2779 C   0  0  0  0  0  0  0  0  0  0  0  0
   -2.5051    2.8140   -0.6345 C   0  0  0  0  0  0  0  0  0  0  0  0
   -6.2179    2.1492   -1.1301 C   0  0  0  0  0  0  0  0  0  0  0  0
   -5.9483   -1.2183   -0.5624 C   0  0  0  0  0  0  0  0  0  0  0  0
   -1.7379    4.0118   -0.1132 C   0  0  0  0  0  0  0  0  0  0  0  0
  1 10  1  0
  1 14  1  0
  2 14  1  0
  2 18  1  0
  3 15  1  0
  4 19  1  0
  5 30  1  0
  5 31  1  0
  6 28  2  0
  7 29  2  0
  8 30  2  0
  9 13  1  0
  9 26  1  0
  9 27  1  0
 10 11  1  0
 10 12  1  0
 11 17  1  0
 11 20  1  0
 12 19  1  0
 12 22  1  0
 13 15  1  0
 13 16  1  0
 14 15  1  0
 16 18  1  0
 17 21  1  0
 18 24  1  0
 19 23  1  0
 20 28  1  0
 21 25  1  0
 21 29  1  0
 23 30  1  0
 29 32  1  0
 31 33  1  0
 31 34  1  0
 32 35  2  0
 33 36  1  0
 33 38  1  0
 34 39  1  0
 35 37  1  0
 36 37  2  0
 37 40  1  0
M  END
>  <PUBCHEM_COMPOUND_CID>  (1) 
41968

>  <PUBCHEM_CONFORMER_RMSD>  (1) 
1

>  <PUBCHEM_CONFORMER_DIVERSEORDER>  (1) 
1
2

>  <PUBCHEM_MMFF94_PARTIAL_CHARGES>  (1) 
36
1 -0.56
10 0.28
13 0.27
14 0.56
15 0.28
18 0.28
19 0.28
2 -0.56
20 0.06
21 0.06
23 0.06
26 0.27
27 0.27
28 0.45
29 0.49
3 -0.68
30 0.66
31 0.28
32 -0.14
33 0.14
35 -0.15
36 -0.29
37 -0.14
4 -0.68
40 0.14
5 -0.43
6 -0.57
64 0.4
7 -0.57
74 0.06
75 0.4
77 0.15
8 -0.57
81 0.15
82 0.15
9 -0.81

>  <PUBCHEM_EFFECTIVE_ROTOR_COUNT>  (1) 
9.2

>  <PUBCHEM_PHARMACOPHORE_FEATURES>  (1) 
12
1 1 acceptor
1 2 acceptor
1 3 acceptor
1 3 donor
1 39 hydrophobe
1 4 acceptor
1 4 donor
1 6 acceptor
1 7 acceptor
1 8 acceptor
1 9 cation
6 2 13 14 15 16 18 rings

>  <PUBCHEM_HEAVY_ATOM_COUNT>  (1) 
40

>  <PUBCHEM_ATOM_DEF_STEREO_COUNT>  (1) 
0

>  <PUBCHEM_ATOM_UDEF_STEREO_COUNT>  (1) 
0

>  <PUBCHEM_BOND_DEF_STEREO_COUNT>  (1) 
0

>  <PUBCHEM_BOND_UDEF_STEREO_COUNT>  (1) 
2

>  <PUBCHEM_ISOTOPIC_ATOM_COUNT>  (1) 
0

>  <PUBCHEM_COMPONENT_COUNT>  (1) 
1

>  <PUBCHEM_CACTVS_TAUTO_COUNT>  (1) 
4

>  <PUBCHEM_CONFORMER_ID>  (1) 
0000A3F000000001

>  <PUBCHEM_MMFF94_ENERGY>  (1) 
142.4976

>  <PUBCHEM_FEATURE_SELFOVERLAP>  (1) 
60.957

>  <PUBCHEM_SHAPE_FINGERPRINT>  (1) 
11421498 54 15769780117718813947
11479125 193 17345452933699146296
11513181 2 18193847160867536903
11578080 2 17979941322838622382
11607047 403 18410007749780728999
11991303 11 17844530113785096358
12107698 1 18057878052832273704
12422481 6 18040155127713751317
13402501 40 18409444787195620089
13782708 43 18340210691530606458
14295345 954 18267021652893255533
15001296 14 17023197079462136701
16114785 44 18120354696082475722
17809404 112 18042123177130733991
17852330 162 11815617536966281984
20600515 1 17604435222604089585
21033648 29 18260547848471652098
22121540 332 18408325454493603110
23419403 2 17905620899843913438
23559900 14 18044391426352859927
24941158 1 17915190017758342647
3052486 1 17386867035701906635
392239 28 18335136449700330705
4173938 306 17968640633251077373
5895379 119 17896620413421842317
6669772 16 17988647423764674022

>  <PUBCHEM_SHAPE_MULTIPOLES>  (1) 
771.25
13.18
4.79
2.87
5.83
1.72
-1.05
-7.04
4.7
-1.77
-0.67
-0.94
0.37
3.82

>  <PUBCHEM_SHAPE_SELFOVERLAP>  (1) 
1555.838

>  <PUBCHEM_SHAPE_VOLUME>  (1) 
447

>  <PUBCHEM_COORDINATE_TYPE>  (1) 
2
5
10

$$$$
