41965
     RDKit          3D

 17 16  0  0  0  0  0  0  0  0999 V2000
   -9.8003   -0.4198    0.0853 O   0  0  0  0  0  0  0  0  0  0  0  0
   -2.3502    0.7178   -0.2062 C   0  0  0  0  0  0  0  0  0  0  0  0
   -3.4682   -0.3013    0.0303 C   0  0  0  0  0  0  0  0  0  0  0  0
   -0.9444    0.1141   -0.0955 C   0  0  0  0  0  0  0  0  0  0  0  0
    0.2128    1.0872   -0.3447 C   0  0  0  0  0  0  0  0  0  0  0  0
   -4.8699    0.3154   -0.0058 C   0  0  0  0  0  0  0  0  0  0  0  0
    1.5939    0.4456   -0.1714 C   0  0  0  0  0  0  0  0  0  0  0  0
   -6.0307   -0.6723    0.1537 C   0  0  0  0  0  0  0  0  0  0  0  0
    2.7398    1.4052   -0.5108 C   0  0  0  0  0  0  0  0  0  0  0  0
   -7.4330   -0.0708    0.0480 C   0  0  0  0  0  0  0  0  0  0  0  0
    4.0864    0.7660   -0.3184 C   0  0  0  0  0  0  0  0  0  0  0  0
   -8.5522   -1.0945    0.1802 C   0  0  0  0  0  0  0  0  0  0  0  0
    6.3774    0.6357    0.7979 C   0  0  0  0  0  0  0  0  0  0  0  0
    5.0204    1.2300    0.5255 C   0  0  0  0  0  0  0  0  0  0  0  0
    6.7566   -0.6058   -0.0180 C   0  0  0  0  0  0  0  0  0  0  0  0
    8.1462   -1.1527    0.3193 C   0  0  0  0  0  0  0  0  0  0  0  0
    8.5152   -2.3999   -0.4692 C   0  0  0  0  0  0  0  0  0  0  0  0
  1 12  1  0
  2  3  1  0
  2  4  1  0
  3  6  1  0
  4  5  1  0
  5  7  1  0
  6  8  1  0
  7  9  1  0
  8 10  1  0
  9 11  1  0
 10 12  1  0
 11 14  2  0
 13 14  1  0
 13 15  1  0
 15 16  1  0
 16 17  1  0
M  END
>  <PUBCHEM_COMPOUND_CID>  (1) 
41965

>  <PUBCHEM_CONFORMER_RMSD>  (1) 
1.2

>  <PUBCHEM_CONFORMER_DIVERSEORDER>  (1) 
1
79
119
37
9
108
63
12
11
132
99
31
97
68
48
86
91
14
143
18
105
127
137
84
85
121
42
54
139
39
43
38
34
141
47
21
120
72
61
57
64
29
15
59
75
81
6
98
96
142
50
125
44
40
22
45
130
88
140
133
60
7
35
66
87
73
49
4
106
122
104
114
30
131
23
136
110
58
20
80
89
100
62
74
107
109
41
129
8
115
70
56
10
124
78
102
90
111
116
25
134
77
13
65
33
53
28
26
5
71
103
69
46
52
2
17
27
123
135
24
128
112
76
94
95
16
138
51
82
117
113
36
19
92
32
93
55
101
83
144
67
118
3
126

>  <PUBCHEM_MMFF94_PARTIAL_CHARGES>  (1) 
9
1 -0.68
11 -0.29
12 0.28
13 0.14
14 -0.29
36 0.15
43 0.15
49 0.4
9 0.14

>  <PUBCHEM_EFFECTIVE_ROTOR_COUNT>  (1) 
13

>  <PUBCHEM_PHARMACOPHORE_FEATURES>  (1) 
4
1 1 acceptor
1 1 donor
1 17 hydrophobe
4 13 14 15 16 hydrophobe

>  <PUBCHEM_HEAVY_ATOM_COUNT>  (1) 
17

>  <PUBCHEM_ATOM_DEF_STEREO_COUNT>  (1) 
0

>  <PUBCHEM_ATOM_UDEF_STEREO_COUNT>  (1) 
0

>  <PUBCHEM_BOND_DEF_STEREO_COUNT>  (1) 
0

>  <PUBCHEM_BOND_UDEF_STEREO_COUNT>  (1) 
1

>  <PUBCHEM_ISOTOPIC_ATOM_COUNT>  (1) 
0

>  <PUBCHEM_COMPONENT_COUNT>  (1) 
1

>  <PUBCHEM_CACTVS_TAUTO_COUNT>  (1) 
1

>  <PUBCHEM_CONFORMER_ID>  (1) 
0000A3ED00000001

>  <PUBCHEM_MMFF94_ENERGY>  (1) 
-0.2722

>  <PUBCHEM_FEATURE_SELFOVERLAP>  (1) 
20.297

>  <PUBCHEM_SHAPE_FINGERPRINT>  (1) 
10666366 153 18040711446258753965
11211813 74 12757439375565143102
11315181 36 11097855177964339445
11638347 137 18272653450013529234
12838862 33 14333125244277146893
13668630 136 18040433304456174384
13885169 127 18334856091826417437
14123256 10 10592049059250282329
14202775 3 18334862753695772883
14216079 64 18335420145728631170
14251764 46 17060622208976965436
14344974 52 12252197289478721630
14428016 248 11891328730506642455
14617042 71 9943514233489564890
155225 1 9943800093980916226
15690457 1 18413386544585736430
15716309 27 18271805752545145221
1818759 1 17967537878421416475
195137 175 12252178550737110079
20621476 38 18410011031551909086
20621476 8 18186799184734750557
20735858 18 17418376895580585612
21095086 128 18411980269551414667
21130990 3 18057892351923413846
21130991 4 17677606468526882098
21150785 3 13118001098036824824
21267235 1 18187365428242720940
21315763 28 18411982477238743529
21362267 20 18270399529552922623
22224240 67 13901910016198898069
232437 2 18410575107182647611
23521765 1 18341613746299071437
246663 6 17821447958444657704
28498 318 18260545623736692357
33532 11 18409445869822621346
33684 2 9079123254016726989
5283156 175 18411138043538932721
8209 1 17530962510379020741

>  <PUBCHEM_SHAPE_MULTIPOLES>  (1) 
343.98
33.65
1.56
0.72
25.51
0.6
0.02
19.79
2.98
-3.68
-0.15
-0.55
-0.04
0.79

>  <PUBCHEM_SHAPE_SELFOVERLAP>  (1) 
617.422

>  <PUBCHEM_SHAPE_VOLUME>  (1) 
221.5

>  <PUBCHEM_COORDINATE_TYPE>  (1) 
2
5
10

$$$$
