41975
     RDKit          3D

 42 45  0  0  1  0  0  0  0  0999 V2000
    0.4160    1.7754   -2.3561 O   0  0  0  0  0  0  0  0  0  0  0  0
   -0.4160    1.7754    2.3560 O   0  0  0  0  0  0  0  0  0  0  0  0
    0.7115   -0.9319    1.1652 O   0  0  0  0  0  0  0  0  0  0  0  0
   -0.7115   -0.9319   -1.1652 O   0  0  0  0  0  0  0  0  0  0  0  0
    4.7092    0.6201   -0.6094 O   0  0  0  0  0  0  0  0  0  0  0  0
   -4.7093    0.6201    0.6094 O   0  0  0  0  0  0  0  0  0  0  0  0
    2.7237   -0.3164    0.1548 N   0  0  0  0  0  0  0  0  0  0  0  0
   -2.7237   -0.3164   -0.1548 N   0  0  0  0  0  0  0  0  0  0  0  0
    0.7608    1.1371   -0.0622 C   0  0  0  0  0  0  0  0  0  0  0  0
   -0.7608    1.1372    0.0623 C   0  0  0  0  0  0  0  0  0  0  0  0
    2.6960    1.3021   -1.7408 C   0  0  0  0  0  0  0  0  0  0  0  0
   -2.6959    1.3022    1.7408 C   0  0  0  0  0  0  0  0  0  0  0  0
    3.4301   -1.3579    0.8607 C   0  0  0  0  0  0  0  0  0  0  0  0
   -3.4302   -1.3579   -0.8607 C   0  0  0  0  0  0  0  0  0  0  0  0
    1.2016    1.4121   -1.4806 C   0  0  0  0  0  0  0  0  0  0  0  0
   -1.2015    1.4121    1.4805 C   0  0  0  0  0  0  0  0  0  0  0  0
    1.3588   -0.1551    0.4622 C   0  0  0  0  0  0  0  0  0  0  0  0
   -1.3588   -0.1551   -0.4622 C   0  0  0  0  0  0  0  0  0  0  0  0
    3.4799    0.5295   -0.6742 C   0  0  0  0  0  0  0  0  0  0  0  0
   -3.4799    0.5296    0.6743 C   0  0  0  0  0  0  0  0  0  0  0  0
    2.8230   -2.7270    0.5449 C   0  0  0  0  0  0  0  0  0  0  0  0
    3.4348   -1.0847    2.3670 C   0  0  0  0  0  0  0  0  0  0  0  0
   -2.8231   -2.7270   -0.5449 C   0  0  0  0  0  0  0  0  0  0  0  0
   -3.4349   -1.0846   -2.3671 C   0  0  0  0  0  0  0  0  0  0  0  0
    3.5183   -3.8432    1.3201 C   0  0  0  0  0  0  0  0  0  0  0  0
    4.1307   -2.2027    3.1389 C   0  0  0  0  0  0  0  0  0  0  0  0
   -3.5184   -3.8431   -1.3201 C   0  0  0  0  0  0  0  0  0  0  0  0
   -4.1307   -2.2026   -3.1390 C   0  0  0  0  0  0  0  0  0  0  0  0
    2.8992    0.5546   -3.0682 C   0  0  0  0  0  0  0  0  0  0  0  0
    3.2583    2.7258   -1.8457 C   0  0  0  0  0  0  0  0  0  0  0  0
   -2.8992    0.5547    3.0681 C   0  0  0  0  0  0  0  0  0  0  0  0
   -3.2583    2.7258    1.8458 C   0  0  0  0  0  0  0  0  0  0  0  0
    3.5251   -3.5669    2.8210 C   0  0  0  0  0  0  0  0  0  0  0  0
   -3.5252   -3.5668   -2.8210 C   0  0  0  0  0  0  0  0  0  0  0  0
    2.2411   -0.7846   -3.0285 C   0  0  0  0  0  0  0  0  0  0  0  0
    3.0889    3.4620   -0.5571 C   0  0  0  0  0  0  0  0  0  0  0  0
   -2.2411   -0.7846    3.0284 C   0  0  0  0  0  0  0  0  0  0  0  0
   -3.0887    3.4620    0.5571 C   0  0  0  0  0  0  0  0  0  0  0  0
    1.2606   -1.1545   -3.8599 C   0  0  0  0  0  0  0  0  0  0  0  0
    2.4050    4.6057   -0.4392 C   0  0  0  0  0  0  0  0  0  0  0  0
   -1.2606   -1.1546    3.8598 C   0  0  0  0  0  0  0  0  0  0  0  0
   -2.4050    4.6057    0.4392 C   0  0  0  0  0  0  0  0  0  0  0  0
  1 15  2  0
  2 16  2  0
  3 17  2  0
  4 18  2  0
  5 19  2  0
  6 20  2  0
  7 13  1  0
  7 17  1  0
  7 19  1  0
  8 14  1  0
  8 18  1  0
  8 20  1  0
  9 10  1  0
  9 15  1  0
  9 17  1  0
 10 16  1  0
 10 18  1  0
 11 15  1  0
 11 19  1  0
 11 29  1  0
 11 30  1  0
 12 16  1  0
 12 20  1  0
 12 31  1  0
 12 32  1  0
 13 21  1  0
 13 22  1  0
 14 23  1  0
 14 24  1  0
 21 25  1  0
 22 26  1  0
 23 27  1  0
 24 28  1  0
 25 33  1  0
 26 33  1  0
 27 34  1  0
 28 34  1  0
 29 35  1  0
 30 36  1  0
 31 37  1  0
 32 38  1  0
 35 39  2  0
 36 40  2  0
 37 41  2  0
 38 42  2  0
M  END
>  <PUBCHEM_COMPOUND_CID>  (1) 
41975

>  <PUBCHEM_CONFORMER_RMSD>  (1) 
1.4

>  <PUBCHEM_CONFORMER_DIVERSEORDER>  (1) 
1
29
11
24
26
17
27
16
13
2
22
3
15
9
7
30
28
18
23
25
31
21
10
19
14
12
20
8
4
5
6

>  <PUBCHEM_MMFF94_PARTIAL_CHARGES>  (1) 
44
1 -0.57
10 0.12
11 0.12
12 0.12
13 0.3
14 0.3
15 0.45
16 0.45
17 0.57
18 0.57
19 0.57
2 -0.57
20 0.57
29 0.14
3 -0.57
30 0.14
31 0.14
32 0.14
35 -0.29
36 -0.29
37 -0.29
38 -0.29
39 -0.3
4 -0.57
40 -0.3
41 -0.3
42 -0.3
5 -0.57
6 -0.57
7 -0.42
75 0.15
76 0.15
77 0.15
78 0.15
79 0.15
8 -0.42
80 0.15
81 0.15
82 0.15
83 0.15
84 0.15
85 0.15
86 0.15
9 0.12

>  <PUBCHEM_EFFECTIVE_ROTOR_COUNT>  (1) 
14.6

>  <PUBCHEM_PHARMACOPHORE_FEATURES>  (1) 
16
1 1 acceptor
1 10 anion
1 2 acceptor
1 3 acceptor
1 39 hydrophobe
1 4 acceptor
1 40 hydrophobe
1 41 hydrophobe
1 42 hydrophobe
1 5 acceptor
1 6 acceptor
1 9 anion
6 13 21 22 25 26 33 rings
6 14 23 24 27 28 34 rings
6 7 9 11 15 17 19 rings
6 8 10 12 16 18 20 rings

>  <PUBCHEM_HEAVY_ATOM_COUNT>  (1) 
42

>  <PUBCHEM_ATOM_DEF_STEREO_COUNT>  (1) 
0

>  <PUBCHEM_ATOM_UDEF_STEREO_COUNT>  (1) 
2

>  <PUBCHEM_BOND_DEF_STEREO_COUNT>  (1) 
0

>  <PUBCHEM_BOND_UDEF_STEREO_COUNT>  (1) 
0

>  <PUBCHEM_ISOTOPIC_ATOM_COUNT>  (1) 
0

>  <PUBCHEM_COMPONENT_COUNT>  (1) 
1

>  <PUBCHEM_CACTVS_TAUTO_COUNT>  (1) 
6

>  <PUBCHEM_CONFORMER_ID>  (1) 
0000A3F700000001

>  <PUBCHEM_MMFF94_ENERGY>  (1) 
105.5293

>  <PUBCHEM_FEATURE_SELFOVERLAP>  (1) 
82.193

>  <PUBCHEM_SHAPE_FINGERPRINT>  (1) 
11135926 11 17168441359417880138
11421498 54 18056480784016986646
11578080 2 18122308424628592481
12160290 23 17775291539054378783
12788726 201 18131075982525915223
133893 2 17748825224368218590
13583140 156 18116738316054837345
13911987 19 17393620493712808781
14068700 675 18052217869914547958
14674994 50 17539940920235777732
15219462 58 17896906372350139545
15484559 13 11689044132459603561
15815584 197 17122226935169825491
17974551 9 17243612730781827673
19315092 285 18049134929414829062
19319366 153 17760628662097540190
20505436 4 18050323398357656041
21033648 29 17556856914939978216
21987440 362 13412074235918401590
23559900 14 17202217234913943316
4017518 198 17338704968825575575
5081480 168 15649050377808128654

>  <PUBCHEM_SHAPE_MULTIPOLES>  (1) 
819.16
8.62
5.33
4.35
0
1.78
0
-3.32
0
0
0
0
-2.79
-6.69

>  <PUBCHEM_SHAPE_SELFOVERLAP>  (1) 
1740.49

>  <PUBCHEM_SHAPE_VOLUME>  (1) 
447.6

>  <PUBCHEM_COORDINATE_TYPE>  (1) 
2
5
10

$$$$
