41986
     RDKit          3D

 11 10  0  0  1  0  0  0  0  0999 V2000
    0.9905   -1.4274    0.6796 O   0  0  0  0  0  0  0  0  0  0  0  0
    3.4093   -1.1036    0.0903 O   0  0  0  0  0  0  0  0  0  0  0  0
    2.9650    0.9844   -0.7532 O   0  0  0  0  0  0  0  0  0  0  0  0
   -4.5953   -0.3436    0.0642 O   0  0  0  0  0  0  0  0  0  0  0  0
    0.1834    0.7404   -0.1389 C   0  0  0  0  0  0  0  0  0  0  0  0
    0.1264    1.6956    1.0527 C   0  0  0  0  0  0  0  0  0  0  0  0
   -1.1222    0.0824   -0.5184 C   0  0  0  0  0  0  0  0  0  0  0  0
    1.2069   -0.3522    0.1384 C   0  0  0  0  0  0  0  0  0  0  0  0
   -2.3096    0.2625    0.0748 C   0  0  0  0  0  0  0  0  0  0  0  0
    2.6305   -0.0694   -0.2516 C   0  0  0  0  0  0  0  0  0  0  0  0
   -3.4849   -0.4691   -0.4378 C   0  0  0  0  0  0  0  0  0  0  0  0
  1  8  2  0
  2 10  1  0
  3 10  2  0
  4 11  2  0
  5  6  1  0
  5  7  1  0
  5  8  1  0
  7  9  2  0
  8 10  1  0
  9 11  1  0
M  END
>  <PUBCHEM_COMPOUND_CID>  (1) 
41986

>  <PUBCHEM_CONFORMER_RMSD>  (1) 
0.6

>  <PUBCHEM_CONFORMER_DIVERSEORDER>  (1) 
1
9
6
10
8
2
7
5
4
3

>  <PUBCHEM_MMFF94_PARTIAL_CHARGES>  (1) 
14
1 -0.57
10 0.72
11 0.5
16 0.15
17 0.15
18 0.06
19 0.5
2 -0.65
3 -0.57
4 -0.57
5 0.2
7 -0.29
8 0.51
9 -0.14

>  <PUBCHEM_EFFECTIVE_ROTOR_COUNT>  (1) 
4

>  <PUBCHEM_PHARMACOPHORE_FEATURES>  (1) 
6
1 1 acceptor
1 2 acceptor
1 3 acceptor
1 4 acceptor
1 6 hydrophobe
3 2 3 10 anion

>  <PUBCHEM_HEAVY_ATOM_COUNT>  (1) 
11

>  <PUBCHEM_ATOM_DEF_STEREO_COUNT>  (1) 
0

>  <PUBCHEM_ATOM_UDEF_STEREO_COUNT>  (1) 
0

>  <PUBCHEM_BOND_DEF_STEREO_COUNT>  (1) 
0

>  <PUBCHEM_BOND_UDEF_STEREO_COUNT>  (1) 
1

>  <PUBCHEM_ISOTOPIC_ATOM_COUNT>  (1) 
0

>  <PUBCHEM_COMPONENT_COUNT>  (1) 
1

>  <PUBCHEM_CACTVS_TAUTO_COUNT>  (1) 
4

>  <PUBCHEM_CONFORMER_ID>  (1) 
0000A40200000001

>  <PUBCHEM_MMFF94_ENERGY>  (1) 
13.6333

>  <PUBCHEM_FEATURE_SELFOVERLAP>  (1) 
30.517

>  <PUBCHEM_SHAPE_FINGERPRINT>  (1) 
10219947 1 17346600785372968933
11062470 55 8502653709883366359
12897270 3 17676204645700503044
12932764 1 18341878724089964701
14252887 29 17703798015281285151
14325111 11 18260267447136564029
14993402 34 17846782935652960421
15375462 189 18412260636442452211
190213 19 18343863303490786959
19422 9 18342463607919075053
20201158 50 18186522081481216691
20645477 70 18115016412595683487
20871998 22 17775012228018375582
21293036 1 18334859441214670837
22485316 2 18413101775622135527

>  <PUBCHEM_SHAPE_MULTIPOLES>  (1) 
202.9
6.41
1.29
0.82
4.59
0.33
-0.03
-1.82
0.72
-0.56
-0.34
-0.17
0.11
-0.33

>  <PUBCHEM_SHAPE_SELFOVERLAP>  (1) 
394.727

>  <PUBCHEM_SHAPE_VOLUME>  (1) 
121

>  <PUBCHEM_COORDINATE_TYPE>  (1) 
2
5
10

$$$$
