41982
     RDKit          3D

 19 22  0  0  1  0  0  0  0  0999 V2000
   -2.8788   -1.4345    0.7518 N   0  0  0  0  0  0  0  0  0  0  0  0
   -1.6953   -2.1323    1.2217 C   0  0  0  0  0  0  0  0  0  0  0  0
   -2.3077   -2.4851   -0.1000 C   0  0  0  0  0  0  0  0  0  0  0  0
    0.0521   -0.6240    0.0045 C   0  0  0  0  0  0  0  0  0  0  0  0
   -0.3566   -1.4641    1.2725 C   0  0  0  0  0  0  0  0  0  0  0  0
   -1.6564   -2.0710   -1.3749 C   0  0  0  0  0  0  0  0  0  0  0  0
   -0.2055   -1.6018   -1.2020 C   0  0  0  0  0  0  0  0  0  0  0  0
   -0.7228    0.7157   -0.0805 C   0  0  0  0  0  0  0  0  0  0  0  0
    1.5710   -0.2674    0.0345 C   0  0  0  0  0  0  0  0  0  0  0  0
   -1.0323    1.2593   -1.3246 C   0  0  0  0  0  0  0  0  0  0  0  0
    1.9906    0.9362    0.5971 C   0  0  0  0  0  0  0  0  0  0  0  0
   -1.1057    1.3699    1.0877 C   0  0  0  0  0  0  0  0  0  0  0  0
    2.5029   -1.1536   -0.5017 C   0  0  0  0  0  0  0  0  0  0  0  0
   -1.7296    2.4650   -1.4010 C   0  0  0  0  0  0  0  0  0  0  0  0
    3.3483    1.2549    0.6237 C   0  0  0  0  0  0  0  0  0  0  0  0
   -1.8031    2.5755    1.0114 C   0  0  0  0  0  0  0  0  0  0  0  0
    3.8606   -0.8350   -0.4749 C   0  0  0  0  0  0  0  0  0  0  0  0
   -2.1150    3.1231   -0.2331 C   0  0  0  0  0  0  0  0  0  0  0  0
    4.2834    0.3693    0.0878 C   0  0  0  0  0  0  0  0  0  0  0  0
  1  2  1  0
  1  3  1  0
  2  3  1  0
  2  5  1  0
  3  6  1  0
  4  5  1  0
  4  7  1  0
  4  8  1  0
  4  9  1  0
  6  7  1  0
  8 10  2  0
  8 12  1  0
  9 11  2  0
  9 13  1  0
 10 14  1  0
 11 15  1  0
 12 16  2  0
 13 17  2  0
 14 18  2  0
 15 19  2  0
 16 18  1  0
 17 19  1  0
M  END
>  <PUBCHEM_COMPOUND_CID>  (1) 
41982

>  <PUBCHEM_CONFORMER_RMSD>  (1) 
0.6

>  <PUBCHEM_CONFORMER_DIVERSEORDER>  (1) 
1
7
5
3
4
2
8
6

>  <PUBCHEM_MMFF94_PARTIAL_CHARGES>  (1) 
31
1 -0.68
10 -0.15
11 -0.15
12 -0.15
13 -0.15
14 -0.15
15 -0.15
16 -0.15
17 -0.15
18 -0.15
19 -0.15
2 -0.04
20 0.1
21 0.1
24 0.36
29 0.15
3 -0.04
30 0.15
31 0.15
32 0.15
33 0.15
34 0.15
35 0.15
36 0.15
37 0.15
38 0.15
4 0.29
5 0.09
6 0.09
8 -0.14
9 -0.14

>  <PUBCHEM_EFFECTIVE_ROTOR_COUNT>  (1) 
3

>  <PUBCHEM_PHARMACOPHORE_FEATURES>  (1) 
5
1 1 cation
1 1 donor
6 8 10 12 14 16 18 rings
6 9 11 13 15 17 19 rings
7 1 2 3 4 5 6 7 rings

>  <PUBCHEM_HEAVY_ATOM_COUNT>  (1) 
19

>  <PUBCHEM_ATOM_DEF_STEREO_COUNT>  (1) 
0

>  <PUBCHEM_ATOM_UDEF_STEREO_COUNT>  (1) 
2

>  <PUBCHEM_BOND_DEF_STEREO_COUNT>  (1) 
0

>  <PUBCHEM_BOND_UDEF_STEREO_COUNT>  (1) 
0

>  <PUBCHEM_ISOTOPIC_ATOM_COUNT>  (1) 
0

>  <PUBCHEM_COMPONENT_COUNT>  (1) 
1

>  <PUBCHEM_CACTVS_TAUTO_COUNT>  (1) 
1

>  <PUBCHEM_CONFORMER_ID>  (1) 
0000A3FE00000001

>  <PUBCHEM_MMFF94_ENERGY>  (1) 
79.8516

>  <PUBCHEM_FEATURE_SELFOVERLAP>  (1) 
25.373

>  <PUBCHEM_SHAPE_FINGERPRINT>  (1) 
10165383 225 17758706363468499964
10670039 82 18045232789599830692
10948715 1 18122907517000139989
11322862 65 18338243639257653837
11578080 2 16843860161629275291
12326174 3 17112691493407564055
12403814 3 18200591526854405802
12730499 353 17614286563791645629
12788726 201 18334563672671156377
13132413 78 17908715273329731349
13134695 92 17981045537893417831
133893 2 16299771059247122730
13681431 1 17686055402381220469
14142880 1 18334850606615110404
14181834 199 17406274811859620039
14817 1 13363512561094564923
14955137 171 17258242068191176648
15309172 13 18046067047197101452
15490181 7 18044374920207692842
16945 1 18408597050544599763
17357779 13 18197199546346305695
1813 80 18051708916184230479
18981168 100 17917132949657516994
19765921 60 17909532970446512241
20510252 161 18335979869602171400
20600515 1 17534331525290372386
21041028 32 18119539988168253651
21304303 282 17395799480956129996
21330990 113 18058190404381129143
21339142 126 18270114737979328366
21524375 3 18121214268871727972
22182313 1 18060426790153262446
22907989 373 18410864277918022084
23419403 2 15981969506522987251
23557571 272 18337956800193961694
23558518 356 18333453118920124786
238 59 17542486259473646749
25 1 17910113504096094708
2748010 2 18201439160404377412
298252 57 16699473162084702445
3060560 45 17762889970609648348
350125 39 18264214612429174402
4340502 62 18051424968134922017
474 4 17695063292999465809
6049 1 18130515197351581468
6992083 37 17770791400643602415
70251023 43 18270392923190821798
7364860 26 17184194379560834931
81228 2 18260835928976240129
9981440 41 17413261985285291360

>  <PUBCHEM_SHAPE_MULTIPOLES>  (1) 
386.03
5.31
3.42
1.36
6.85
0.85
-0.11
0.5
0.09
-3.73
-0.12
-0.7
-0.07
0.64

>  <PUBCHEM_SHAPE_SELFOVERLAP>  (1) 
844.947

>  <PUBCHEM_SHAPE_VOLUME>  (1) 
204.5

>  <PUBCHEM_COORDINATE_TYPE>  (1) 
2
5
10

$$$$
