4199
     RDKit          3D

 22 24  0  0  0  0  0  0  0  0999 V2000
    7.0371   -1.3829    0.3744 O   0  0  0  0  0  0  0  0  0  0  0  0
    4.6786    0.0234   -0.3747 N   0  0  0  0  0  0  0  0  0  0  0  0
    1.1792    1.2363    0.0300 N   0  0  0  0  0  0  0  0  0  0  0  0
   -0.5081   -0.4101   -0.2506 N   0  0  0  0  0  0  0  0  0  0  0  0
   -1.8171   -0.7789   -0.2608 N   0  0  0  0  0  0  0  0  0  0  0  0
    4.6434   -1.0653    0.6117 C   0  0  0  0  0  0  0  0  0  0  0  0
    5.9917    0.6828   -0.3502 C   0  0  0  0  0  0  0  0  0  0  0  0
    3.6093    0.9870   -0.1224 C   0  0  0  0  0  0  0  0  0  0  0  0
    5.7754   -2.0509    0.3361 C   0  0  0  0  0  0  0  0  0  0  0  0
    7.0913   -0.3443   -0.6040 C   0  0  0  0  0  0  0  0  0  0  0  0
    2.2576    0.2954   -0.2458 C   0  0  0  0  0  0  0  0  0  0  0  0
   -0.1526    0.8816    0.0243 C   0  0  0  0  0  0  0  0  0  0  0  0
   -1.1336    1.8395    0.2985 C   0  0  0  0  0  0  0  0  0  0  0  0
   -2.4655    1.4644    0.2881 C   0  0  0  0  0  0  0  0  0  0  0  0
   -2.7634    0.1467    0.0039 C   0  0  0  0  0  0  0  0  0  0  0  0
   -0.7680    3.2528    0.6006 C   0  0  0  0  0  0  0  0  0  0  0  0
   -4.1232   -0.3318   -0.0283 C   0  0  0  0  0  0  0  0  0  0  0  0
   -5.1622    0.5283   -0.3934 C   0  0  0  0  0  0  0  0  0  0  0  0
   -4.4091   -1.6583    0.3052 C   0  0  0  0  0  0  0  0  0  0  0  0
   -6.4777    0.0653   -0.4249 C   0  0  0  0  0  0  0  0  0  0  0  0
   -5.7245   -2.1214    0.2737 C   0  0  0  0  0  0  0  0  0  0  0  0
   -6.7587   -1.2596   -0.0912 C   0  0  0  0  0  0  0  0  0  0  0  0
  1  9  1  0
  1 10  1  0
  2  6  1  0
  2  7  1  0
  2  8  1  0
  3 11  1  0
  3 12  1  0
  4  5  2  0
  4 12  1  0
  5 15  1  0
  6  9  1  0
  7 10  1  0
  8 11  1  0
 12 13  2  0
 13 14  1  0
 13 16  1  0
 14 15  2  0
 15 17  1  0
 17 18  2  0
 17 19  1  0
 18 20  1  0
 19 21  2  0
 20 22  2  0
 21 22  1  0
M  END
>  <PUBCHEM_COMPOUND_CID>  (1) 
4199

>  <PUBCHEM_CONFORMER_RMSD>  (1) 
0.8

>  <PUBCHEM_CONFORMER_DIVERSEORDER>  (1) 
1
21
19
15
18
6
12
22
9
20
5
13
10
4
17
14
11
3
7
16
2
8

>  <PUBCHEM_MMFF94_PARTIAL_CHARGES>  (1) 
28
1 -0.56
10 0.28
11 0.37
12 0.41
13 -0.14
14 -0.15
15 0.31
16 0.14
18 -0.15
19 -0.15
2 -0.81
20 -0.15
21 -0.15
22 -0.15
3 -0.87
35 0.4
36 0.15
4 -0.31
40 0.15
41 0.15
42 0.15
43 0.15
44 0.15
5 -0.31
6 0.27
7 0.27
8 0.27
9 0.28

>  <PUBCHEM_EFFECTIVE_ROTOR_COUNT>  (1) 
6.2

>  <PUBCHEM_PHARMACOPHORE_FEATURES>  (1) 
8
1 1 acceptor
1 2 cation
1 3 donor
1 5 acceptor
3 3 4 12 cation
6 1 2 6 7 9 10 rings
6 17 18 19 20 21 22 rings
6 4 5 12 13 14 15 rings

>  <PUBCHEM_HEAVY_ATOM_COUNT>  (1) 
22

>  <PUBCHEM_ATOM_DEF_STEREO_COUNT>  (1) 
0

>  <PUBCHEM_ATOM_UDEF_STEREO_COUNT>  (1) 
0

>  <PUBCHEM_BOND_DEF_STEREO_COUNT>  (1) 
0

>  <PUBCHEM_BOND_UDEF_STEREO_COUNT>  (1) 
0

>  <PUBCHEM_ISOTOPIC_ATOM_COUNT>  (1) 
0

>  <PUBCHEM_COMPONENT_COUNT>  (1) 
1

>  <PUBCHEM_CACTVS_TAUTO_COUNT>  (1) 
2

>  <PUBCHEM_CONFORMER_ID>  (1) 
0000106700000001

>  <PUBCHEM_MMFF94_ENERGY>  (1) 
65.7566

>  <PUBCHEM_FEATURE_SELFOVERLAP>  (1) 
40.596

>  <PUBCHEM_SHAPE_FINGERPRINT>  (1) 
10299344 5 18335423464962825978
10595046 47 18335706014594042152
106641 1 11743834790337425165
11315181 36 18342461461021132641
11524674 6 16988842800235012271
11578080 2 16734931360715551967
11719270 70 18272651233969199790
11963148 33 18342451556374024206
12166972 35 18041000660972773556
12236239 1 18260268546943753316
125118 31 10880000163665034738
12516196 113 18342174492090348720
12592606 108 18411979205027499959
12760667 363 18413387631533955809
13288520 33 18410575102613204885
13533116 47 18408887369386733932
13668630 136 18408324363509021694
13685833 64 18412546530565658626
13862211 1 18343300396798372487
13885169 127 18335419041579183853
14178184 131 18127976515219803863
14211702 104 18340495473700681006
14251752 14 18113611262299097677
14251764 18 18202004339108338568
14347332 77 18262514797823287212
15183329 4 16660357082490907963
17492 89 18196936566005725590
17857418 61 18408886222345369474
18006028 8 18272650160269196517
20526848 3 9079119968250655599
20621476 66 8718829794784724653
21150785 3 17313106362967187156
21236236 1 18271808978350888865
21267235 1 18411986874815346925
21792934 111 18201710765288448569
22079108 93 14117794726112911916
22224240 67 15410892963754963101
22288116 15 12973894766526432241
2297311 6 18273220776886979716
23035841 295 18408886239525141275
23198884 109 16081085970209419661
23402539 116 18201997746576152213
23522609 53 18124348035999533088
23559900 14 18336260262205464617
249999 5 17914045658525875272
293599 30 8430317930871796101
29717793 49 17603589629880664180
300161 21 10809345555517819788
3004659 81 18113615707526854368
335352 9 18411134741542642573
3472631 163 8862934001109285586
34797466 226 17489874860883152356
397830 11 15266482079950069711
4073 2 17750239269468014218
465052 167 18272091621341750724
5104073 3 17273709658400085426
559249 180 18410292502412987479
5758199 1 11025790982282096149
59682541 35 18201427105032519458
59682541 52 14273721925067710512
59755656 215 18410576167190666222
6138700 20 18409449185204980059
6327066 14 9295298218437789979
636775 8 18337685186699981318
999808 66 17822865281433000363

>  <PUBCHEM_SHAPE_MULTIPOLES>  (1) 
426.96
20.54
2.34
0.71
14.99
0.86
0.01
-12.61
-1.54
-0.68
0.57
0.14
0.02
-0.37

>  <PUBCHEM_SHAPE_SELFOVERLAP>  (1) 
900.67

>  <PUBCHEM_SHAPE_VOLUME>  (1) 
239.7

>  <PUBCHEM_COORDINATE_TYPE>  (1) 
2
5
10

$$$$
