42016
     RDKit          3D

  9  8  0  0  0  0  0  0  0  0999 V2000
   -0.7609    0.2717   -0.2534 O   0  0  0  0  0  0  0  0  0  0  0  0
   -2.4307   -0.7246    0.9932 O   0  0  0  0  0  0  0  0  0  0  0  0
    2.5601   -1.4264   -0.3238 O   0  0  0  0  0  0  0  0  0  0  0  0
    1.5967    0.3141    0.3785 N   0  0  0  0  0  0  0  0  0  0  0  0
    2.0973   -0.3285   -0.6558 N   0  0  0  0  0  0  0  0  0  0  0  0
    0.2200   -0.0752    0.7467 C   0  0  0  0  0  0  0  0  0  0  0  0
    1.6915    1.7688    0.2283 C   0  0  0  0  0  0  0  0  0  0  0  0
   -2.0415   -0.1170    0.0051 C   0  0  0  0  0  0  0  0  0  0  0  0
   -2.9326    0.3170   -1.1188 C   0  0  0  0  0  0  0  0  0  0  0  0
  1  6  1  0
  1  8  1  0
  2  8  2  0
  3  5  2  0
  4  5  1  0
  4  6  1  0
  4  7  1  0
  8  9  1  0
M  END
>  <PUBCHEM_COMPOUND_CID>  (1) 
42016

>  <PUBCHEM_CONFORMER_RMSD>  (1) 
0.6

>  <PUBCHEM_CONFORMER_DIVERSEORDER>  (1) 
3
43
19
41
15
38
34
9
11
20
12
29
7
18
5
36
33
37
2
31
13
1
4
28
35
8
27
23
25
16
40
24
6
39
22
26
17
42
32
30
14
21
10

>  <PUBCHEM_MMFF94_PARTIAL_CHARGES>  (1) 
9
1 -0.43
2 -0.57
3 -0.16
4 -0.36
5 -0.01
6 0.55
7 0.27
8 0.66
9 0.06

>  <PUBCHEM_EFFECTIVE_ROTOR_COUNT>  (1) 
4

>  <PUBCHEM_PHARMACOPHORE_FEATURES>  (1) 
1
1 2 acceptor

>  <PUBCHEM_HEAVY_ATOM_COUNT>  (1) 
9

>  <PUBCHEM_ATOM_DEF_STEREO_COUNT>  (1) 
0

>  <PUBCHEM_ATOM_UDEF_STEREO_COUNT>  (1) 
0

>  <PUBCHEM_BOND_DEF_STEREO_COUNT>  (1) 
0

>  <PUBCHEM_BOND_UDEF_STEREO_COUNT>  (1) 
0

>  <PUBCHEM_ISOTOPIC_ATOM_COUNT>  (1) 
0

>  <PUBCHEM_COMPONENT_COUNT>  (1) 
1

>  <PUBCHEM_CACTVS_TAUTO_COUNT>  (1) 
1

>  <PUBCHEM_CONFORMER_ID>  (1) 
0000A42000000003

>  <PUBCHEM_MMFF94_ENERGY>  (1) 
16.2324

>  <PUBCHEM_FEATURE_SELFOVERLAP>  (1) 
5.074

>  <PUBCHEM_SHAPE_FINGERPRINT>  (1) 
12897270 3 17894349968928317039
12932741 1 18186799205697916437
12932764 1 17676485055841809515
14390081 3 17749376088347095989
20653085 51 18340760452135061173
20711985 344 17907578026013654912
21040471 1 16732974340921946665
29004967 10 18342178873199369456
3248919 1 18343014523500805217

>  <PUBCHEM_SHAPE_MULTIPOLES>  (1) 
157.65
4.51
1.24
0.96
1.43
0.26
0
-0.46
0.92
-1.1
0.01
0.46
-0.06
0.61

>  <PUBCHEM_SHAPE_SELFOVERLAP>  (1) 
291.476

>  <PUBCHEM_SHAPE_VOLUME>  (1) 
99.5

>  <PUBCHEM_COORDINATE_TYPE>  (1) 
2
5
10

$$$$
