42019
     RDKit          3D

 18 19  0  0  0  0  0  0  0  0999 V2000
   -2.6279   -1.6337    1.4847 F   0  0  0  0  0  0  0  0  0  0  0  0
   -0.1247   -1.9138    0.7423 O   0  0  0  0  0  0  0  0  0  0  0  0
    3.0596    0.6543    0.0550 N   0  0  0  0  0  0  0  0  0  0  0  0
    2.4315    1.7940    0.3908 N   0  0  0  0  0  0  0  0  0  0  0  0
    2.6998   -1.6525   -0.3467 N   0  0  0  0  0  0  0  0  0  0  0  0
    1.0292    0.0687    0.2850 C   0  0  0  0  0  0  0  0  0  0  0  0
    2.2334   -0.4284   -0.0209 C   0  0  0  0  0  0  0  0  0  0  0  0
    1.1601    1.4095    0.5313 C   0  0  0  0  0  0  0  0  0  0  0  0
   -0.2224   -0.7457    0.3382 C   0  0  0  0  0  0  0  0  0  0  0  0
   -1.5158   -0.2140   -0.0616 C   0  0  0  0  0  0  0  0  0  0  0  0
    0.1395    2.4047    0.9046 C   0  0  0  0  0  0  0  0  0  0  0  0
    4.4861    0.6839   -0.1764 C   0  0  0  0  0  0  0  0  0  0  0  0
   -2.6835   -0.6866    0.5372 C   0  0  0  0  0  0  0  0  0  0  0  0
   -1.5864    0.7716   -1.0462 C   0  0  0  0  0  0  0  0  0  0  0  0
    2.2613   -2.4350   -1.5036 C   0  0  0  0  0  0  0  0  0  0  0  0
   -3.9220   -0.1736    0.1514 C   0  0  0  0  0  0  0  0  0  0  0  0
   -2.8249    1.2845   -1.4319 C   0  0  0  0  0  0  0  0  0  0  0  0
   -3.9927    0.8120   -0.8332 C   0  0  0  0  0  0  0  0  0  0  0  0
  1 13  1  0
  2  9  2  0
  3  4  1  0
  3  7  1  0
  3 12  1  0
  4  8  2  0
  5  7  1  0
  5 15  1  0
  6  7  2  0
  6  8  1  0
  6  9  1  0
  8 11  1  0
  9 10  1  0
 10 13  2  0
 10 14  1  0
 13 16  1  0
 14 17  2  0
 16 18  2  0
 17 18  1  0
M  END
>  <PUBCHEM_COMPOUND_CID>  (1) 
42019

>  <PUBCHEM_CONFORMER_RMSD>  (1) 
0.6

>  <PUBCHEM_CONFORMER_DIVERSEORDER>  (1) 
7
8
2
9
10
3
5
6
1
4

>  <PUBCHEM_MMFF94_PARTIAL_CHARGES>  (1) 
23
1 -0.19
10 0.09
11 0.18
12 0.26
13 0.19
14 -0.15
15 0.37
16 -0.15
17 -0.15
18 -0.15
19 0.4
2 -0.57
26 0.15
3 0.31
30 0.15
31 0.15
32 0.15
4 -0.71
5 -0.85
6 -0.09
7 -0.07
8 0.11
9 0.57

>  <PUBCHEM_EFFECTIVE_ROTOR_COUNT>  (1) 
3

>  <PUBCHEM_PHARMACOPHORE_FEATURES>  (1) 
6
1 2 acceptor
1 4 acceptor
1 5 cation
1 5 donor
5 3 4 6 7 8 rings
6 10 13 14 16 17 18 rings

>  <PUBCHEM_HEAVY_ATOM_COUNT>  (1) 
18

>  <PUBCHEM_ATOM_DEF_STEREO_COUNT>  (1) 
0

>  <PUBCHEM_ATOM_UDEF_STEREO_COUNT>  (1) 
0

>  <PUBCHEM_BOND_DEF_STEREO_COUNT>  (1) 
0

>  <PUBCHEM_BOND_UDEF_STEREO_COUNT>  (1) 
0

>  <PUBCHEM_ISOTOPIC_ATOM_COUNT>  (1) 
0

>  <PUBCHEM_COMPONENT_COUNT>  (1) 
1

>  <PUBCHEM_CACTVS_TAUTO_COUNT>  (1) 
7

>  <PUBCHEM_CONFORMER_ID>  (1) 
0000A42300000007

>  <PUBCHEM_MMFF94_ENERGY>  (1) 
54.2953

>  <PUBCHEM_FEATURE_SELFOVERLAP>  (1) 
30.446

>  <PUBCHEM_SHAPE_FINGERPRINT>  (1) 
10498660 4 17531236215517424053
10608611 8 18261668255173649973
10922523 26 18335421283156168183
11471102 20 18342736321384177876
116883 192 17770786706222846180
12236239 1 16558753425113629409
12623949 98 17983608426399878815
12654215 9 18411975875826251032
14617773 55 17631179575982108448
15219456 202 18408886226286902415
15375358 24 18411131446368874216
16945 1 18060131059494365312
17844478 74 18114467867635044849
18186145 218 18261395477415718253
19049666 15 18335700490469267705
200 152 17847057791874058089
20201158 50 18412544318799912904
20279233 1 18334295370385691371
20588541 1 18337675316490023240
20645477 70 18272650099891851894
22802520 49 18337953393963226909
23114952 82 18335709291026121292
23175994 123 18271533064934670864
23402539 116 18260536857908816932
23419403 2 14136451299711511589
23493267 7 17967525783529818920
23526113 38 18338791226070800779
23557571 272 18041288741471515239
23558518 356 18052548668706830928
23559900 14 18335136441758930474
238 59 18123436558212919445
25 1 18411975862524500740
2748010 2 18408322189643295715
4072396 5 18340469111749925026
474 4 16557038281579878264
6049 1 18261407636700430115
77492 1 16558752312664410679
81228 2 17334777483568506378
8272917 22 17988934327405759415
9709674 26 18408323293671820239

>  <PUBCHEM_SHAPE_MULTIPOLES>  (1) 
342.35
6.94
2.24
1.17
0.31
0.24
-0.18
-0.42
-1.31
-1.31
0.04
0.64
0.22
1.42

>  <PUBCHEM_SHAPE_SELFOVERLAP>  (1) 
739.39

>  <PUBCHEM_SHAPE_VOLUME>  (1) 
190.8

>  <PUBCHEM_COORDINATE_TYPE>  (1) 
2
5
10

$$$$
