42038
     RDKit          3D

 21 21  0  0  0  0  0  0  0  0999 V2000
    0.7278    2.7161   -0.6930 Cl  0  0  0  0  0  0  0  0  0  0  0  0
    0.7163   -2.7054   -0.7214 Cl  0  0  0  0  0  0  0  0  0  0  0  0
    3.5949   -2.7200    0.5697 Cl  0  0  0  0  0  0  0  0  0  0  0  0
    3.6070    2.7046    0.5965 Cl  0  0  0  0  0  0  0  0  0  0  0  0
   -0.7225    0.0114   -1.3557 S   0  0  0  0  0  0  0  0  0  0  0  0
   -0.8657    1.2746   -2.0590 O   0  0  0  0  0  0  0  0  0  0  0  0
   -0.8998   -1.2443   -2.0647 O   0  0  0  0  0  0  0  0  0  0  0  0
    5.7983   -0.0175    1.5648 N   0  0  0  0  0  0  0  0  0  0  0  0
   -3.2693    0.0122   -0.4088 C   0  0  0  0  0  0  0  0  0  0  0  0
   -1.8133    0.0069    0.0315 C   0  0  0  0  0  0  0  0  0  0  0  0
   -4.2126    0.0290    0.7938 C   0  0  0  0  0  0  0  0  0  0  0  0
   -5.6768   -0.0047    0.3528 C   0  0  0  0  0  0  0  0  0  0  0  0
   -6.6195   -0.0215    1.5557 C   0  0  0  0  0  0  0  0  0  0  0  0
    0.8909    0.0045   -0.6324 C   0  0  0  0  0  0  0  0  0  0  0  0
   -8.0765   -0.0210    1.1216 C   0  0  0  0  0  0  0  0  0  0  0  0
    1.5267    1.2097   -0.3427 C   0  0  0  0  0  0  0  0  0  0  0  0
    1.5211   -1.2064   -0.3545 C   0  0  0  0  0  0  0  0  0  0  0  0
    2.7940   -1.2121    0.2160 C   0  0  0  0  0  0  0  0  0  0  0  0
    2.7995    1.2038    0.2280 C   0  0  0  0  0  0  0  0  0  0  0  0
    3.4331   -0.0071    0.5072 C   0  0  0  0  0  0  0  0  0  0  0  0
    4.7463   -0.0128    1.0945 C   0  0  0  0  0  0  0  0  0  0  0  0
  1 16  1  0
  2 17  1  0
  3 18  1  0
  4 19  1  0
  5  6  2  0
  5  7  2  0
  5 10  1  0
  5 14  1  0
  8 21  3  0
  9 10  1  0
  9 11  1  0
 11 12  1  0
 12 13  1  0
 13 15  1  0
 14 16  2  0
 14 17  1  0
 16 19  1  0
 17 18  2  0
 18 20  1  0
 19 20  2  0
 20 21  1  0
M  END
>  <PUBCHEM_COMPOUND_CID>  (1) 
42038

>  <PUBCHEM_CONFORMER_RMSD>  (1) 
0.8

>  <PUBCHEM_CONFORMER_DIVERSEORDER>  (1) 
1
8
20
15
25
31
13
29
4
22
30
21
17
9
6
5
12
14
10
23
7
16
11
26
24
27
18
32
2
19
28
3

>  <PUBCHEM_MMFF94_PARTIAL_CHARGES>  (1) 
16
1 -0.18
10 0.11
14 -0.01
16 0.18
17 0.18
18 0.18
19 0.18
2 -0.18
20 0.07
21 0.48
3 -0.18
4 -0.18
5 1.2
6 -0.65
7 -0.65
8 -0.56

>  <PUBCHEM_EFFECTIVE_ROTOR_COUNT>  (1) 
6

>  <PUBCHEM_PHARMACOPHORE_FEATURES>  (1) 
6
1 15 hydrophobe
1 6 acceptor
1 7 acceptor
1 8 acceptor
4 9 11 12 13 hydrophobe
6 14 16 17 18 19 20 rings

>  <PUBCHEM_HEAVY_ATOM_COUNT>  (1) 
21

>  <PUBCHEM_ATOM_DEF_STEREO_COUNT>  (1) 
0

>  <PUBCHEM_ATOM_UDEF_STEREO_COUNT>  (1) 
0

>  <PUBCHEM_BOND_DEF_STEREO_COUNT>  (1) 
0

>  <PUBCHEM_BOND_UDEF_STEREO_COUNT>  (1) 
0

>  <PUBCHEM_ISOTOPIC_ATOM_COUNT>  (1) 
0

>  <PUBCHEM_COMPONENT_COUNT>  (1) 
1

>  <PUBCHEM_CACTVS_TAUTO_COUNT>  (1) 
1

>  <PUBCHEM_CONFORMER_ID>  (1) 
0000A43600000001

>  <PUBCHEM_MMFF94_ENERGY>  (1) 
44.1245

>  <PUBCHEM_FEATURE_SELFOVERLAP>  (1) 
30.464

>  <PUBCHEM_SHAPE_FINGERPRINT>  (1) 
10162869 55 18271801359758705703
10354089 29 18272371970757519842
10688039 33 18186523177136168821
11724838 91 18059853991781873783
11796584 16 14779561101495938057
12035758 1 18262784242854779392
12236239 1 17489581277174750767
12633257 1 18187644738613774507
12661589 4 14708926357304267497
12892183 10 18269556044406874281
13140716 1 18193820760647729346
13533116 47 18335709325654969291
13668630 136 13479135696812417201
13685833 64 16443068309587606985
14341114 176 18341052930374703715
14341114 328 17632579336389818411
14790565 3 17467360349606052164
15183329 4 10881392146092310523
15238133 3 17274820307083808128
15475509 35 16878208802229219608
15475509 84 18129098931132235616
16945 1 18266714984260709388
17980427 23 17346587621562457781
1813 80 16515410642471370831
18222031 100 14851889170941127477
19784866 240 14634873037733948585
20739085 24 18334010640320129996
21267235 1 18337389336905340258
21521239 73 10737281338208000000
21637258 2 15068332423760985275
21859007 373 17677041345166358869
22182313 1 18123168140569752142
22224240 67 18341326764362105739
23016692 55 14490192717908751529
23402539 116 11242245183158136118
2748010 2 17908395002482752134
3004659 81 12468355765056462153
3178227 256 18407757045810932160
3472631 163 15625935478138542985
4340502 62 18343586248262667067
465052 167 17675927607398635355
5104073 3 18195512908489216394
6327066 14 10230308634523273650
8272917 22 18272097088761460263
960060 61 11602827925775362739

>  <PUBCHEM_SHAPE_MULTIPOLES>  (1) 
426.78
14.36
2.55
1.52
32.05
0
-0.37
0.1
11.25
-3.88
-0.34
0.48
0
0.01

>  <PUBCHEM_SHAPE_SELFOVERLAP>  (1) 
828.386

>  <PUBCHEM_SHAPE_VOLUME>  (1) 
260.1

>  <PUBCHEM_COORDINATE_TYPE>  (1) 
2
5
10

$$$$
