42039
     RDKit          3D

 20 20  0  0  0  0  0  0  0  0999 V2000
    0.2949    2.4501    0.3430 Cl  0  0  0  0  0  0  0  0  0  0  0  0
   -0.5624   -2.9029    0.2637 Cl  0  0  0  0  0  0  0  0  0  0  0  0
   -3.6474   -2.4038   -0.1655 Cl  0  0  0  0  0  0  0  0  0  0  0  0
   -2.7894    2.9515   -0.0890 Cl  0  0  0  0  0  0  0  0  0  0  0  0
    1.4149   -0.4776    0.5201 S   0  0  0  0  0  0  0  0  0  0  0  0
    4.2365    0.2621   -0.4638 O   0  0  0  0  0  0  0  0  0  0  0  0
    1.9556    0.7024    1.1675 O   0  0  0  0  0  0  0  0  0  0  0  0
    1.5823   -1.7884    1.1186 O   0  0  0  0  0  0  0  0  0  0  0  0
   -5.5717    0.6558   -0.4543 N   0  0  0  0  0  0  0  0  0  0  0  0
    2.0660   -0.5593   -1.1283 C   0  0  0  0  0  0  0  0  0  0  0  0
   -0.3101   -0.1977    0.2780 C   0  0  0  0  0  0  0  0  0  0  0  0
    3.5632   -0.7992   -1.1285 C   0  0  0  0  0  0  0  0  0  0  0  0
   -0.8009    1.1055    0.2000 C   0  0  0  0  0  0  0  0  0  0  0  0
   -1.1832   -1.2798    0.1659 C   0  0  0  0  0  0  0  0  0  0  0  0
   -2.5472   -1.0586   -0.0243 C   0  0  0  0  0  0  0  0  0  0  0  0
   -2.1650    1.3268    0.0101 C   0  0  0  0  0  0  0  0  0  0  0  0
   -3.0381    0.2447   -0.1021 C   0  0  0  0  0  0  0  0  0  0  0  0
    5.6443    0.0688   -0.4664 C   0  0  0  0  0  0  0  0  0  0  0  0
    6.3024    1.2268    0.2529 C   0  0  0  0  0  0  0  0  0  0  0  0
   -4.4447    0.4730   -0.2976 C   0  0  0  0  0  0  0  0  0  0  0  0
  1 13  1  0
  2 14  1  0
  3 15  1  0
  4 16  1  0
  5  7  2  0
  5  8  2  0
  5 10  1  0
  5 11  1  0
  6 12  1  0
  6 18  1  0
  9 20  3  0
 10 12  1  0
 11 13  2  0
 11 14  1  0
 13 16  1  0
 14 15  2  0
 15 17  1  0
 16 17  2  0
 17 20  1  0
 18 19  1  0
M  END
>  <PUBCHEM_COMPOUND_CID>  (1) 
42039

>  <PUBCHEM_CONFORMER_RMSD>  (1) 
0.8

>  <PUBCHEM_CONFORMER_DIVERSEORDER>  (1) 
1
10
11
2
6
8
7
4
5
3
9

>  <PUBCHEM_MMFF94_PARTIAL_CHARGES>  (1) 
19
1 -0.18
10 0.11
11 -0.01
12 0.28
13 0.18
14 0.18
15 0.18
16 0.18
17 0.07
18 0.28
2 -0.18
20 0.48
3 -0.18
4 -0.18
5 1.2
6 -0.56
7 -0.65
8 -0.65
9 -0.56

>  <PUBCHEM_EFFECTIVE_ROTOR_COUNT>  (1) 
5

>  <PUBCHEM_PHARMACOPHORE_FEATURES>  (1) 
5
1 6 acceptor
1 7 acceptor
1 8 acceptor
1 9 acceptor
6 11 13 14 15 16 17 rings

>  <PUBCHEM_HEAVY_ATOM_COUNT>  (1) 
20

>  <PUBCHEM_ATOM_DEF_STEREO_COUNT>  (1) 
0

>  <PUBCHEM_ATOM_UDEF_STEREO_COUNT>  (1) 
0

>  <PUBCHEM_BOND_DEF_STEREO_COUNT>  (1) 
0

>  <PUBCHEM_BOND_UDEF_STEREO_COUNT>  (1) 
0

>  <PUBCHEM_ISOTOPIC_ATOM_COUNT>  (1) 
0

>  <PUBCHEM_COMPONENT_COUNT>  (1) 
1

>  <PUBCHEM_CACTVS_TAUTO_COUNT>  (1) 
1

>  <PUBCHEM_CONFORMER_ID>  (1) 
0000A43700000001

>  <PUBCHEM_MMFF94_ENERGY>  (1) 
50.4527

>  <PUBCHEM_FEATURE_SELFOVERLAP>  (1) 
25.394

>  <PUBCHEM_SHAPE_FINGERPRINT>  (1) 
10411042 1 17760933239445204107
10498660 4 18408602556787579895
10906281 52 18200615660201827940
10967382 1 18338507557141236027
12011746 2 18413665803644152581
12119455 92 14129059235624313794
121448 382 18261118486548759018
12236239 1 17603865602766988970
12390115 104 18128826235701595905
12553582 1 18411128122633808355
12788726 201 18201154335142680001
13140716 1 18338510954571117753
13533116 47 18188205400167538426
14790565 3 17550398336594644089
14911166 2 18411980248276791405
15196674 1 18339080522304595052
16945 1 18338791226867327371
200 152 16415480436969143855
20645476 183 17894915144023327531
20645477 70 16988009280537723774
20871999 31 18341615892991500237
21029758 11 18272934924884991865
21267235 1 18338800139062058251
2334 1 18050843317893036185
23402539 116 18410571816636299558
23526113 38 17703517575502605558
23557571 272 18270403905105290062
23559900 14 18272082855176869232
2748010 2 18266168629913233155
34934 24 18411134727534231231
351380 180 18410294740133276732
4340502 62 16443354143523489857
465052 167 11743541237722975469
474 4 17385736789694095660
5104073 3 18189904114844533984
5283173 99 18341054034598082036
58051976 378 18410858737209424926
59755656 520 16732985340602620258
9709674 26 18052533558848125763
9981440 41 18260272914593509322

>  <PUBCHEM_SHAPE_MULTIPOLES>  (1) 
400.33
10.76
2.84
0.91
12.08
0.07
-0.02
2.64
-2.08
-2.38
0.29
0.57
-0.13
0.39

>  <PUBCHEM_SHAPE_SELFOVERLAP>  (1) 
782.327

>  <PUBCHEM_SHAPE_VOLUME>  (1) 
242.7

>  <PUBCHEM_COORDINATE_TYPE>  (1) 
2
5
10

$$$$
