42034
     RDKit          3D

 13 13  0  0  0  0  0  0  0  0999 V2000
    2.7894   -2.6111    0.2616 Cl  0  0  0  0  0  0  0  0  0  0  0  0
   -1.4649    1.4036   -0.2809 O   0  0  0  0  0  0  0  0  0  0  0  0
   -2.8750   -1.6095    0.4188 O   0  0  0  0  0  0  0  0  0  0  0  0
    0.8128    0.8658    0.2002 C   0  0  0  0  0  0  0  0  0  0  0  0
   -0.4774    0.4712   -0.1536 C   0  0  0  0  0  0  0  0  0  0  0  0
    1.1320    2.3040    0.4447 C   0  0  0  0  0  0  0  0  0  0  0  0
   -0.7576   -0.8766   -0.3784 C   0  0  0  0  0  0  0  0  0  0  0  0
    1.8229   -0.0875    0.3291 C   0  0  0  0  0  0  0  0  0  0  0  0
    0.2526   -1.8299   -0.2494 C   0  0  0  0  0  0  0  0  0  0  0  0
    1.5428   -1.4353    0.1044 C   0  0  0  0  0  0  0  0  0  0  0  0
   -2.1326   -1.3182   -0.7582 C   0  0  0  0  0  0  0  0  0  0  0  0
    1.5807    3.0212   -0.8251 C   0  0  0  0  0  0  0  0  0  0  0  0
   -2.2259    1.7025    0.8867 C   0  0  0  0  0  0  0  0  0  0  0  0
  1 10  1  0
  2  5  1  0
  2 13  1  0
  3 11  1  0
  4  5  2  0
  4  6  1  0
  4  8  1  0
  5  7  1  0
  6 12  1  0
  7  9  2  0
  7 11  1  0
  8 10  2  0
  9 10  1  0
M  END
>  <PUBCHEM_COMPOUND_CID>  (1) 
42034

>  <PUBCHEM_CONFORMER_RMSD>  (1) 
0.6

>  <PUBCHEM_CONFORMER_DIVERSEORDER>  (1) 
1
5
9
2
3
4
6
7
8

>  <PUBCHEM_MMFF94_PARTIAL_CHARGES>  (1) 
15
1 -0.18
10 0.18
11 0.42
13 0.28
16 0.15
17 0.15
2 -0.36
26 0.4
3 -0.68
4 -0.14
5 0.08
6 0.14
7 -0.14
8 -0.15
9 -0.15

>  <PUBCHEM_EFFECTIVE_ROTOR_COUNT>  (1) 
3

>  <PUBCHEM_PHARMACOPHORE_FEATURES>  (1) 
5
1 12 hydrophobe
1 2 acceptor
1 3 acceptor
1 3 donor
6 4 5 7 8 9 10 rings

>  <PUBCHEM_HEAVY_ATOM_COUNT>  (1) 
13

>  <PUBCHEM_ATOM_DEF_STEREO_COUNT>  (1) 
0

>  <PUBCHEM_ATOM_UDEF_STEREO_COUNT>  (1) 
0

>  <PUBCHEM_BOND_DEF_STEREO_COUNT>  (1) 
0

>  <PUBCHEM_BOND_UDEF_STEREO_COUNT>  (1) 
0

>  <PUBCHEM_ISOTOPIC_ATOM_COUNT>  (1) 
0

>  <PUBCHEM_COMPONENT_COUNT>  (1) 
1

>  <PUBCHEM_CACTVS_TAUTO_COUNT>  (1) 
1

>  <PUBCHEM_CONFORMER_ID>  (1) 
0000A43200000001

>  <PUBCHEM_MMFF94_ENERGY>  (1) 
38.6835

>  <PUBCHEM_FEATURE_SELFOVERLAP>  (1) 
25.371

>  <PUBCHEM_SHAPE_FINGERPRINT>  (1) 
11680986 33 18340192029818012529
12423570 1 13648254208194291847
13140716 1 18196083357418879370
13380535 220 18411419479686857932
16945 1 18267295602887030286
193761 8 18411697694662045485
20511035 2 18201992205693845597
20588541 1 17767965333531928894
21501502 16 18411984637311452531
2334 1 18411973638027041870
23388829 49 18126260142664650994
23402539 116 17765697036806576967
23419403 2 16180076110022342729
23552423 10 18338514256609761799
241688 4 18194389014094736794
2748010 2 18269259193399914150
353137 74 18051134992642186565
53812653 8 17977952615410044293
7364860 26 18341327902770687726
81228 2 17908131088899704226

>  <PUBCHEM_SHAPE_MULTIPOLES>  (1) 
257.67
3.64
3.42
0.84
2.78
0.31
0.02
-0.74
-0.71
-1.9
0.51
-0.25
-0.04
0.46

>  <PUBCHEM_SHAPE_SELFOVERLAP>  (1) 
518.509

>  <PUBCHEM_SHAPE_VOLUME>  (1) 
154.4

>  <PUBCHEM_COORDINATE_TYPE>  (1) 
2
5
10

$$$$
