42041
     RDKit          3D

 11 11  0  0  0  0  0  0  0  0999 V2000
    0.4709    0.1675    0.0245 O   0  0  0  0  0  0  0  0  0  0  0  0
   -2.0874   -0.8101    0.6596 O   0  0  0  0  0  0  0  0  0  0  0  0
    2.8107   -0.2827   -0.2126 C   0  0  0  0  0  0  0  0  0  0  0  0
    4.2263    0.1985    0.0927 C   0  0  0  0  0  0  0  0  0  0  0  0
    1.7616    0.6788    0.3274 C   0  0  0  0  0  0  0  0  0  0  0  0
   -0.5560    1.0336    0.4885 C   0  0  0  0  0  0  0  0  0  0  0  0
    5.2700   -0.7860   -0.4102 C   0  0  0  0  0  0  0  0  0  0  0  0
   -1.8622    0.4026    0.1189 C   0  0  0  0  0  0  0  0  0  0  0  0
   -2.8857    0.8173   -0.6690 C   0  0  0  0  0  0  0  0  0  0  0  0
   -3.8404   -0.2264   -0.6204 C   0  0  0  0  0  0  0  0  0  0  0  0
   -3.3079   -1.1929    0.2007 C   0  0  0  0  0  0  0  0  0  0  0  0
  1  5  1  0
  1  6  1  0
  2  8  1  0
  2 11  1  0
  3  4  1  0
  3  5  1  0
  4  7  1  0
  6  8  1  0
  8  9  2  0
  9 10  1  0
 10 11  2  0
M  END
>  <PUBCHEM_COMPOUND_CID>  (1) 
42041

>  <PUBCHEM_CONFORMER_RMSD>  (1) 
0.6

>  <PUBCHEM_CONFORMER_DIVERSEORDER>  (1) 
1
54
19
27
39
55
58
5
63
43
56
2
68
57
26
62
38
23
29
59
47
69
8
66
44
17
10
31
18
45
37
64
11
40
33
24
46
14
7
41
67
61
50
53
4
34
9
60
32
65
51
28
13
21
52
48
25
6
42
49
20
12
36
30
22
16
35
3
15

>  <PUBCHEM_MMFF94_PARTIAL_CHARGES>  (1) 
11
1 -0.56
10 -0.15
11 -0.01
2 -0.28
23 0.15
24 0.15
25 0.15
5 0.28
6 0.46
8 -0.04
9 -0.15

>  <PUBCHEM_EFFECTIVE_ROTOR_COUNT>  (1) 
5

>  <PUBCHEM_PHARMACOPHORE_FEATURES>  (1) 
4
1 1 acceptor
1 2 acceptor
1 7 hydrophobe
5 2 8 9 10 11 rings

>  <PUBCHEM_HEAVY_ATOM_COUNT>  (1) 
11

>  <PUBCHEM_ATOM_DEF_STEREO_COUNT>  (1) 
0

>  <PUBCHEM_ATOM_UDEF_STEREO_COUNT>  (1) 
0

>  <PUBCHEM_BOND_DEF_STEREO_COUNT>  (1) 
0

>  <PUBCHEM_BOND_UDEF_STEREO_COUNT>  (1) 
0

>  <PUBCHEM_ISOTOPIC_ATOM_COUNT>  (1) 
0

>  <PUBCHEM_COMPONENT_COUNT>  (1) 
1

>  <PUBCHEM_CACTVS_TAUTO_COUNT>  (1) 
1

>  <PUBCHEM_CONFORMER_ID>  (1) 
0000A43900000001

>  <PUBCHEM_MMFF94_ENERGY>  (1) 
4.9576

>  <PUBCHEM_FEATURE_SELFOVERLAP>  (1) 
20.301

>  <PUBCHEM_SHAPE_FINGERPRINT>  (1) 
10680689 15 17967257485380812232
11062470 55 15068621582761274764
12251169 10 12607402212938902425
13214271 11 9511460018061708881
13690532 89 18343864416156387398
14252887 29 16487263145243390566
17870717 6 18335147461811536454
1986462 14 18260830392784500997
200 152 17775280560395251080
20201158 50 18413108355264249423
20279233 1 18202287991454114006
20325693 3 17676489441072081255
20432913 95 16845296025315907982
20645476 183 16732699480342948483
20645477 56 18041276557071744581
20671657 53 18341618130965172376
20767249 213 9583518707279510259
20828058 44 13758352280533810916
21119208 17 17385441024844265460
22485316 2 18410289207798622506
23402539 116 18408598141302886349
23403322 49 18413107255689383102
23559900 14 18409161143365705296
42 15 12751244696746407484
57265010 4 13183019639881811871

>  <PUBCHEM_SHAPE_MULTIPOLES>  (1) 
214.64
9.97
1.08
0.77
10.29
0.06
0.03
2.93
1.69
-0.4
-0.07
-0.26
-0.01
0.45

>  <PUBCHEM_SHAPE_SELFOVERLAP>  (1) 
421.712

>  <PUBCHEM_SHAPE_VOLUME>  (1) 
131

>  <PUBCHEM_COORDINATE_TYPE>  (1) 
2
5
10

$$$$
