42050
     RDKit          3D

 31 33  0  0  0  0  0  0  0  0999 V2000
   -6.3335   -4.3500    1.6727 Cl  0  0  0  0  0  0  0  0  0  0  0  0
   -5.2555   -2.5027   -0.2438 S   0  0  0  0  0  0  0  0  0  0  0  0
    4.3051    2.6148    0.8065 S   0  0  0  0  0  0  0  0  0  0  0  0
   -6.6014   -2.0349   -0.5503 O   0  0  0  0  0  0  0  0  0  0  0  0
   -4.6665   -3.5787   -1.0298 O   0  0  0  0  0  0  0  0  0  0  0  0
   -5.5244    2.6840    0.2542 O   0  0  0  0  0  0  0  0  0  0  0  0
   -3.5147    3.5252   -0.0144 O   0  0  0  0  0  0  0  0  0  0  0  0
    6.1002   -3.3765   -1.5682 O   0  0  0  0  0  0  0  0  0  0  0  0
    6.7695   -3.5983    0.5108 O   0  0  0  0  0  0  0  0  0  0  0  0
   -1.5164    2.1183   -0.4782 N   0  0  0  0  0  0  0  0  0  0  0  0
   -4.2981    2.5484    0.0336 N   0  0  0  0  0  0  0  0  0  0  0  0
    6.2397   -2.9250   -0.4058 N   0  0  0  0  0  0  0  0  0  0  0  0
   -4.1645   -1.1410   -0.3106 C   0  0  0  0  0  0  0  0  0  0  0  0
   -2.4173    1.0375   -0.4184 C   0  0  0  0  0  0  0  0  0  0  0  0
   -3.7774    1.2395   -0.1692 C   0  0  0  0  0  0  0  0  0  0  0  0
   -4.6495    0.1522   -0.1152 C   0  0  0  0  0  0  0  0  0  0  0  0
   -2.8076   -1.3469   -0.5596 C   0  0  0  0  0  0  0  0  0  0  0  0
   -1.9356   -0.2596   -0.6134 C   0  0  0  0  0  0  0  0  0  0  0  0
   -0.1440    2.2358   -0.1747 C   0  0  0  0  0  0  0  0  0  0  0  0
   -5.2326   -2.9833    1.4710 C   0  0  0  0  0  0  0  0  0  0  0  0
    0.6457    3.1574   -0.8622 C   0  0  0  0  0  0  0  0  0  0  0  0
    0.4236    1.4301    0.8123 C   0  0  0  0  0  0  0  0  0  0  0  0
    2.5708    2.4676    0.4243 C   0  0  0  0  0  0  0  0  0  0  0  0
    2.0031    3.2733   -0.5628 C   0  0  0  0  0  0  0  0  0  0  0  0
    1.7811    1.5461    1.1119 C   0  0  0  0  0  0  0  0  0  0  0  0
    4.8839    0.9634    0.4447 C   0  0  0  0  0  0  0  0  0  0  0  0
    4.7413    0.4458   -0.8400 C   0  0  0  0  0  0  0  0  0  0  0  0
    5.4741    0.2008    1.4491 C   0  0  0  0  0  0  0  0  0  0  0  0
    5.7839   -1.6108   -0.1189 C   0  0  0  0  0  0  0  0  0  0  0  0
    5.1921   -0.8437   -1.1224 C   0  0  0  0  0  0  0  0  0  0  0  0
    5.9250   -1.0887    1.1667 C   0  0  0  0  0  0  0  0  0  0  0  0
  1 20  1  0
  2  4  2  0
  2  5  2  0
  2 13  1  0
  2 20  1  0
  3 23  1  0
  3 26  1  0
  6 11  1  0
  7 11  2  0
  8 12  1  0
  9 12  2  0
 10 14  1  0
 10 19  1  0
 11 15  1  0
 12 29  1  0
 13 16  2  0
 13 17  1  0
 14 15  2  0
 14 18  1  0
 15 16  1  0
 17 18  2  0
 19 21  2  0
 19 22  1  0
 21 24  1  0
 22 25  2  0
 23 24  2  0
 23 25  1  0
 26 27  2  0
 26 28  1  0
 27 30  1  0
 28 31  2  0
 29 30  2  0
 29 31  1  0
M  CHG  4   6  -1   8  -1  11   1  12   1
M  END
>  <PUBCHEM_COMPOUND_CID>  (1) 
42050

>  <PUBCHEM_CONFORMER_RMSD>  (1) 
1

>  <PUBCHEM_CONFORMER_DIVERSEORDER>  (1) 
2
35
24
12
28
26
19
15
45
32
8
16
23
42
4
22
7
25
36
3
31
44
10
13
17
11
20
21
40
34
39
38
30
41
37
6
43
27
9
1
18
33
29
5
14

>  <PUBCHEM_MMFF94_PARTIAL_CHARGES>  (1) 
43
1 -0.29
10 -0.6
11 0.91
12 0.91
13 -0.01
14 0.1
15 0.13
16 -0.15
17 -0.15
18 -0.15
19 0.1
2 1.2
20 0.4
21 -0.15
22 -0.15
23 0.1
24 -0.15
25 -0.15
26 0.1
27 -0.15
28 -0.15
29 0.13
3 -0.2
30 -0.15
31 -0.15
32 0.15
33 0.15
34 0.15
35 0.4
38 0.15
39 0.15
4 -0.65
40 0.15
41 0.15
42 0.15
43 0.15
44 0.15
45 0.15
5 -0.65
6 -0.52
7 -0.52
8 -0.52
9 -0.52

>  <PUBCHEM_EFFECTIVE_ROTOR_COUNT>  (1) 
8

>  <PUBCHEM_PHARMACOPHORE_FEATURES>  (1) 
13
1 10 cation
1 10 donor
1 4 acceptor
1 5 acceptor
1 6 acceptor
1 6 anion
1 7 acceptor
1 8 acceptor
1 8 anion
1 9 acceptor
6 13 14 15 16 17 18 rings
6 19 21 22 23 24 25 rings
6 26 27 28 29 30 31 rings

>  <PUBCHEM_HEAVY_ATOM_COUNT>  (1) 
31

>  <PUBCHEM_ATOM_DEF_STEREO_COUNT>  (1) 
0

>  <PUBCHEM_ATOM_UDEF_STEREO_COUNT>  (1) 
0

>  <PUBCHEM_BOND_DEF_STEREO_COUNT>  (1) 
0

>  <PUBCHEM_BOND_UDEF_STEREO_COUNT>  (1) 
0

>  <PUBCHEM_ISOTOPIC_ATOM_COUNT>  (1) 
0

>  <PUBCHEM_COMPONENT_COUNT>  (1) 
1

>  <PUBCHEM_CACTVS_TAUTO_COUNT>  (1) 
1

>  <PUBCHEM_CONFORMER_ID>  (1) 
0000A44200000002

>  <PUBCHEM_MMFF94_ENERGY>  (1) 
102.3841

>  <PUBCHEM_FEATURE_SELFOVERLAP>  (1) 
66.154

>  <PUBCHEM_SHAPE_FINGERPRINT>  (1) 
10119406 146 18408037404476018759
10838868 229 18411424973488639067
11387372 6 18114190739830071347
11399510 152 17987508376520165625
11443803 9 16557620813155163753
117089 54 18409455807860226538
12107183 9 18341618057819295105
12422481 6 17917985049863167956
13008946 335 18126015871797900977
1361 4 18410011035915480590
13782708 43 18272088348576729475
14118638 360 18270964669021019824
14211702 104 18336545031469174241
14251764 30 18410009927587181958
14347332 77 18339077207001260429
14420673 8 18339925900627672605
14556957 393 13840805739690515839
15001296 14 18261104154596216168
15475509 35 18059286699315940216
15510800 12 18408603691128802122
15728490 83 18337115652524603123
17492 89 18338234980757039981
19301679 30 18194691582368085347
19311894 1 18336827498679016489
1979834 28 16988848268060124134
20398071 356 18409449227943656619
20775438 99 17676778669050492664
21315759 148 18341888649364344816
21682296 61 18411138060850871971
229767 8 18410580574122764126
23424784 1240 18411703231360316866
23559900 14 18342164588360559465
23569914 152 18052223282110730255
2748736 6 9871480785161227859
32027 91 18341603764515819132
44062 13 18411135801423819748
4435113 14 18410864243885428070
50009960 94 18190998211120462306
5104073 3 18202564011780843233
513202 73 18337396041190884579
6201320 77 17315383524848047707
7970288 3 17907854355915256023

>  <PUBCHEM_SHAPE_MULTIPOLES>  (1) 
597.38
20.11
5.75
1.25
2.29
2.51
-0.21
23
-2.01
-1.66
-0.15
0.44
0.81
2.55

>  <PUBCHEM_SHAPE_SELFOVERLAP>  (1) 
1254.808

>  <PUBCHEM_SHAPE_VOLUME>  (1) 
337.6

>  <PUBCHEM_COORDINATE_TYPE>  (1) 
2
5
10

$$$$
