42052
     RDKit          3D

 43 46  0  0  0  0  0  0  0  0999 V2000
   -6.1230   -5.2644    3.2802 Cl  0  0  0  0  0  0  0  0  0  0  0  0
    6.1228   -5.2646   -3.2802 Cl  0  0  0  0  0  0  0  0  0  0  0  0
   -5.6191   -3.8775    0.8165 S   0  0  0  0  0  0  0  0  0  0  0  0
    5.6188   -3.8776   -0.8164 S   0  0  0  0  0  0  0  0  0  0  0  0
    0.0000    5.4205    0.0000 S   0  0  0  0  0  0  0  0  0  0  0  0
   -6.9220   -4.2954    0.3145 O   0  0  0  0  0  0  0  0  0  0  0  0
   -4.4417   -4.6892    0.5381 O   0  0  0  0  0  0  0  0  0  0  0  0
    6.9217   -4.2956   -0.3144 O   0  0  0  0  0  0  0  0  0  0  0  0
    4.4414   -4.6893   -0.5380 O   0  0  0  0  0  0  0  0  0  0  0  0
   -8.3503    0.2663   -0.7933 O   0  0  0  0  0  0  0  0  0  0  0  0
    8.3502    0.2660    0.7933 O   0  0  0  0  0  0  0  0  0  0  0  0
   -6.9515    1.8735   -1.3214 O   0  0  0  0  0  0  0  0  0  0  0  0
    6.9513    1.8733    1.3213 O   0  0  0  0  0  0  0  0  0  0  0  0
   -4.4833    1.6260   -1.1358 N   0  0  0  0  0  0  0  0  0  0  0  0
    4.4832    1.6259    1.1357 N   0  0  0  0  0  0  0  0  0  0  0  0
   -7.1853    0.7131   -0.9099 N   0  0  0  0  0  0  0  0  0  0  0  0
    7.1852    0.7129    0.9098 N   0  0  0  0  0  0  0  0  0  0  0  0
   -5.2942   -2.2607    0.2428 C   0  0  0  0  0  0  0  0  0  0  0  0
    5.2940   -2.2609   -0.2429 C   0  0  0  0  0  0  0  0  0  0  0  0
   -4.7726    0.3269   -0.6756 C   0  0  0  0  0  0  0  0  0  0  0  0
    4.7724    0.3267    0.6754 C   0  0  0  0  0  0  0  0  0  0  0  0
   -6.0898   -0.1264   -0.5625 C   0  0  0  0  0  0  0  0  0  0  0  0
    6.0896   -0.1265    0.5625 C   0  0  0  0  0  0  0  0  0  0  0  0
   -6.3500   -1.4177   -0.1041 C   0  0  0  0  0  0  0  0  0  0  0  0
    6.3498   -1.4179    0.1041 C   0  0  0  0  0  0  0  0  0  0  0  0
   -3.9782   -1.8121    0.1315 C   0  0  0  0  0  0  0  0  0  0  0  0
    3.9780   -1.8122   -0.1315 C   0  0  0  0  0  0  0  0  0  0  0  0
   -3.7179   -0.5207   -0.3269 C   0  0  0  0  0  0  0  0  0  0  0  0
    3.7177   -0.5208    0.3268 C   0  0  0  0  0  0  0  0  0  0  0  0
   -3.4265    2.5210   -0.8679 C   0  0  0  0  0  0  0  0  0  0  0  0
    3.4263    2.5209    0.8679 C   0  0  0  0  0  0  0  0  0  0  0  0
   -5.7617   -3.6829    2.5811 C   0  0  0  0  0  0  0  0  0  0  0  0
    5.7614   -3.6832   -2.5811 C   0  0  0  0  0  0  0  0  0  0  0  0
   -1.3357    4.2903   -0.3382 C   0  0  0  0  0  0  0  0  0  0  0  0
    1.3393    4.2872    0.3389 C   0  0  0  0  0  0  0  0  0  0  0  0
   -3.0184    3.4304   -1.8435 C   0  0  0  0  0  0  0  0  0  0  0  0
    3.0183    3.4304    1.8435 C   0  0  0  0  0  0  0  0  0  0  0  0
   -2.7891    2.4961    0.3726 C   0  0  0  0  0  0  0  0  0  0  0  0
    2.7891    2.4961   -0.3727 C   0  0  0  0  0  0  0  0  0  0  0  0
   -1.9729    4.3151   -1.5786 C   0  0  0  0  0  0  0  0  0  0  0  0
    1.9728    4.3151    1.5786 C   0  0  0  0  0  0  0  0  0  0  0  0
   -1.7438    3.3809    0.6375 C   0  0  0  0  0  0  0  0  0  0  0  0
    1.7437    3.3809   -0.6376 C   0  0  0  0  0  0  0  0  0  0  0  0
  1 32  1  0
  2 33  1  0
  3  6  2  0
  3  7  2  0
  3 18  1  0
  3 32  1  0
  4  8  2  0
  4  9  2  0
  4 19  1  0
  4 33  1  0
  5 34  1  0
  5 35  1  0
 10 16  1  0
 11 17  1  0
 12 16  2  0
 13 17  2  0
 14 20  1  0
 14 30  1  0
 15 21  1  0
 15 31  1  0
 16 22  1  0
 17 23  1  0
 18 24  2  0
 18 26  1  0
 19 25  2  0
 19 27  1  0
 20 22  2  0
 20 28  1  0
 21 23  2  0
 21 29  1  0
 22 24  1  0
 23 25  1  0
 26 28  2  0
 27 29  2  0
 30 36  2  0
 30 38  1  0
 31 37  2  0
 31 39  1  0
 34 40  2  0
 34 42  1  0
 35 41  2  0
 35 43  1  0
 36 40  1  0
 37 41  1  0
 38 42  2  0
 39 43  2  0
M  CHG  4  10  -1  11  -1  16   1  17   1
M  END
>  <PUBCHEM_COMPOUND_CID>  (1) 
42052

>  <PUBCHEM_CONFORMER_RMSD>  (1) 
1.2

>  <PUBCHEM_CONFORMER_DIVERSEORDER>  (1) 
1
107
33
257
11
79
53
159
12
102
285
234
254
131
270
61
126
154
200
228
24
324
256
199
55
297
136
54
58
8
209
57
122
34
19
181
101
205
202
320
2
153
180
334
193
35
231
70
37
229
251
157
129
127
239
32
76
118
178
283
296
309
203
252
310
141
69
50
168
204
160
146
128
132
142
63
301
139
84
317
337
275
114
108
323
245
189
195
329
162
241
298
206
67
25
42
150
71
62
124
148
311
75
326
16
220
197
211
333
260
327
225
247
110
308
72
215
130
135
240
174
134
113
224
165
173
221
287
201
138
123
65
9
267
268
82
272
265
175
169
186
340
152
258
94
73
248
218
30
233
280
335
191
109
10
91
89
282
293
21
250
172
227
163
222
64
93
261
187
235
104
40
121
216
176
5
269
167
305
155
145
330
20
133
137
147
306
45
303
273
88
143
117
26
103
158
304
295
41
80
106
255
339
262
278
342
96
90
223
140
242
48
299
232
4
249
119
164
120
151
74
77
276
192
316
286
100
210
332
237
217
243
302
196
198
284
266
341
213
226
271
78
208
149
60
300
27
144
46
212
38
85
290
264
238
83
281
125
22
182
184
97
244
156
214
294
87
51
188
288
44
86
14
190
321
319
219
3
263
49
112
279
292
99
312
177
315
347
230
179
318
274
277
13
18
207
345
7
331
346
68
253
166
15
59
23
171
328
115
336
95
322
236
343
344
291
31
183
348
6
314
29
289
313
170
246
105
52
17
43
47
185
325
194
56
161
92
39
81
98
111
259
338
116
28
36
66
307

>  <PUBCHEM_MMFF94_PARTIAL_CHARGES>  (1) 
59
1 -0.29
10 -0.52
11 -0.52
12 -0.52
13 -0.52
14 -0.6
15 -0.6
16 0.91
17 0.91
18 -0.01
19 -0.01
2 -0.29
20 0.1
21 0.1
22 0.13
23 0.13
24 -0.15
25 -0.15
26 -0.15
27 -0.15
28 -0.15
29 -0.15
3 1.2
30 0.1
31 0.1
32 0.4
33 0.4
34 0.1
35 0.1
36 -0.15
37 -0.15
38 -0.15
39 -0.15
4 1.2
40 -0.15
41 -0.15
42 -0.15
43 -0.15
44 0.15
45 0.15
46 0.15
47 0.15
48 0.15
49 0.15
5 -0.2
50 0.4
51 0.4
56 0.15
57 0.15
58 0.15
59 0.15
6 -0.65
60 0.15
61 0.15
62 0.15
63 0.15
7 -0.65
8 -0.65
9 -0.65

>  <PUBCHEM_EFFECTIVE_ROTOR_COUNT>  (1) 
12

>  <PUBCHEM_PHARMACOPHORE_FEATURES>  (1) 
18
1 10 acceptor
1 10 anion
1 11 acceptor
1 11 anion
1 12 acceptor
1 13 acceptor
1 14 cation
1 14 donor
1 15 cation
1 15 donor
1 6 acceptor
1 7 acceptor
1 8 acceptor
1 9 acceptor
6 18 20 22 24 26 28 rings
6 19 21 23 25 27 29 rings
6 30 34 36 38 40 42 rings
6 31 35 37 39 41 43 rings

>  <PUBCHEM_HEAVY_ATOM_COUNT>  (1) 
43

>  <PUBCHEM_ATOM_DEF_STEREO_COUNT>  (1) 
0

>  <PUBCHEM_ATOM_UDEF_STEREO_COUNT>  (1) 
0

>  <PUBCHEM_BOND_DEF_STEREO_COUNT>  (1) 
0

>  <PUBCHEM_BOND_UDEF_STEREO_COUNT>  (1) 
0

>  <PUBCHEM_ISOTOPIC_ATOM_COUNT>  (1) 
0

>  <PUBCHEM_COMPONENT_COUNT>  (1) 
1

>  <PUBCHEM_CACTVS_TAUTO_COUNT>  (1) 
1

>  <PUBCHEM_CONFORMER_ID>  (1) 
0000A44400000001

>  <PUBCHEM_MMFF94_ENERGY>  (1) 
146.8482

>  <PUBCHEM_FEATURE_SELFOVERLAP>  (1) 
91.551

>  <PUBCHEM_SHAPE_FINGERPRINT>  (1) 
11374522 301 18340779225068035458
117089 54 18263925600085331777
12841400 136 18262512731870398851
1361 4 18269834217049944276
15152005 304 18410578396188774986
15911013 46 18413670214412711193
17852330 28 18119834442425701883
19301676 85 18410283693572558119
229767 8 18410862061493266019
4144715 1 18410295765849621764
49967989 163 17908437857492858990
6201320 221 17695329766716111871

>  <PUBCHEM_SHAPE_MULTIPOLES>  (1) 
833.33
25
10.31
2.12
0.01
3.77
0
31.15
0
0
0
0
2.51
12.71

>  <PUBCHEM_SHAPE_SELFOVERLAP>  (1) 
1745.199

>  <PUBCHEM_SHAPE_VOLUME>  (1) 
469.7

>  <PUBCHEM_COORDINATE_TYPE>  (1) 
2
5
10

$$$$
