4206
     RDKit          3D

 26 26  0  0  1  0  0  0  0  0999 V2000
    4.0636    3.7951    1.2533 O   0  0  0  0  0  0  0  0  0  0  0  0
    0.9154    3.6479   -1.4950 O   0  0  0  0  0  0  0  0  0  0  0  0
    3.2043   -3.5055    1.3500 O   0  0  0  0  0  0  0  0  0  0  0  0
   -8.2948    0.6869    0.1509 O   0  0  0  0  0  0  0  0  0  0  0  0
   -6.9225   -1.0863   -0.2083 O   0  0  0  0  0  0  0  0  0  0  0  0
    1.5854    2.2735    0.3920 C   0  0  0  0  0  0  0  0  0  0  0  0
    2.9997    1.6977    0.6274 C   0  0  0  0  0  0  0  0  0  0  0  0
    3.9345    2.8415    0.2007 C   0  0  0  0  0  0  0  0  0  0  0  0
    3.2745    3.4865   -1.0193 C   0  0  0  0  0  0  0  0  0  0  0  0
    0.4756    1.2618    0.1671 C   0  0  0  0  0  0  0  0  0  0  0  0
    1.8106    3.1886   -0.7963 C   0  0  0  0  0  0  0  0  0  0  0  0
    3.3143    0.4487   -0.1420 C   0  0  0  0  0  0  0  0  0  0  0  0
   -0.9063    1.8948    0.3416 C   0  0  0  0  0  0  0  0  0  0  0  0
   -2.0185    0.8616    0.1511 C   0  0  0  0  0  0  0  0  0  0  0  0
    3.6714   -0.7103    0.4301 C   0  0  0  0  0  0  0  0  0  0  0  0
    3.0682   -3.1650   -0.0330 C   0  0  0  0  0  0  0  0  0  0  0  0
    3.9934   -1.9611   -0.3435 C   0  0  0  0  0  0  0  0  0  0  0  0
   -3.4261    1.4448    0.3078 C   0  0  0  0  0  0  0  0  0  0  0  0
    1.6004   -2.7427   -0.2914 C   0  0  0  0  0  0  0  0  0  0  0  0
    3.4520   -4.4012   -0.8535 C   0  0  0  0  0  0  0  0  0  0  0  0
    0.5574   -3.8344   -0.0170 C   0  0  0  0  0  0  0  0  0  0  0  0
   -4.5817    0.4605    0.1054 C   0  0  0  0  0  0  0  0  0  0  0  0
   -0.8500   -3.3555   -0.3801 C   0  0  0  0  0  0  0  0  0  0  0  0
   -5.9605    1.1095    0.2188 C   0  0  0  0  0  0  0  0  0  0  0  0
   -1.8869   -4.4419   -0.1426 C   0  0  0  0  0  0  0  0  0  0  0  0
   -7.0735    0.1045    0.0258 C   0  0  0  0  0  0  0  0  0  0  0  0
  1  8  1  0
  2 11  2  0
  3 16  1  0
  4 26  1  0
  5 26  2  0
  6  7  1  0
  6 10  1  0
  6 11  1  0
  7  8  1  0
  7 12  1  0
  8  9  1  0
  9 11  1  0
 10 13  1  0
 12 15  2  0
 13 14  1  0
 14 18  1  0
 15 17  1  0
 16 17  1  0
 16 19  1  0
 16 20  1  0
 18 22  1  0
 19 21  1  0
 21 23  1  0
 22 24  1  0
 23 25  1  0
 24 26  1  0
M  END
>  <PUBCHEM_COMPOUND_CID>  (1) 
4206

>  <PUBCHEM_CONFORMER_RMSD>  (1) 
1.6

>  <PUBCHEM_CONFORMER_DIVERSEORDER>  (1) 
1
79
103
88
50
21
85
115
56
12
33
90
47
16
23
65
77
22
93
34
80
99
117
24
84
63
109
95
13
76
78
8
116
18
86
114
57
71
36
87
42
96
48
51
83
60
43
31
46
4
37
107
98
54
81
75
89
35
104
2
82
66
68
53
6
110
3
70
19
112
29
32
52
102
7
41
25
106
105
39
14
101
92
28
49
97
64
40
59
72
20
11
94
9
55
62
10
26
108
74
17
113
69
15
27
58
45
111
38
91
73
30
61
100
5
67
44

>  <PUBCHEM_MMFF94_PARTIAL_CHARGES>  (1) 
21
1 -0.68
11 0.45
12 -0.29
15 -0.29
16 0.28
17 0.14
2 -0.57
24 0.06
26 0.66
3 -0.68
34 0.15
39 0.15
4 -0.65
42 0.4
5 -0.57
54 0.4
6 0.06
62 0.5
7 0.14
8 0.28
9 0.06

>  <PUBCHEM_EFFECTIVE_ROTOR_COUNT>  (1) 
13.8

>  <PUBCHEM_PHARMACOPHORE_FEATURES>  (1) 
12
1 1 acceptor
1 1 donor
1 2 acceptor
1 25 hydrophobe
1 3 acceptor
1 3 donor
1 4 acceptor
1 5 acceptor
3 10 13 14 hydrophobe
3 18 22 24 hydrophobe
3 4 5 26 anion
5 6 7 8 9 11 rings

>  <PUBCHEM_HEAVY_ATOM_COUNT>  (1) 
26

>  <PUBCHEM_ATOM_DEF_STEREO_COUNT>  (1) 
0

>  <PUBCHEM_ATOM_UDEF_STEREO_COUNT>  (1) 
4

>  <PUBCHEM_BOND_DEF_STEREO_COUNT>  (1) 
0

>  <PUBCHEM_BOND_UDEF_STEREO_COUNT>  (1) 
1

>  <PUBCHEM_ISOTOPIC_ATOM_COUNT>  (1) 
0

>  <PUBCHEM_COMPONENT_COUNT>  (1) 
1

>  <PUBCHEM_CACTVS_TAUTO_COUNT>  (1) 
3

>  <PUBCHEM_CONFORMER_ID>  (1) 
0000106E00000001

>  <PUBCHEM_MMFF94_ENERGY>  (1) 
30.6311

>  <PUBCHEM_FEATURE_SELFOVERLAP>  (1) 
60.955

>  <PUBCHEM_SHAPE_FINGERPRINT>  (1) 
10316853 100 18409732841819576179
1100329 8 18411981365100501298
13140716 1 18339912836239153904
13383661 66 17341541735027616454
13533116 47 18342740711020576985
1361 2 18409168818282034393
13785724 45 17983024349131874613
15420108 30 17612590438109375444
15483637 11 18194401332504722155
15927050 60 18269836583107575743
16067689 302 18268993254428579295
19427546 62 18122343738245397752
20028762 73 18130224844425107215
20645477 70 18334293158430503129
21197605 99 18339927138164374931
338550 245 18338234981067932319
3421961 26 18338234860650956072
46194498 28 18040435482042173245
5047190 2 18272074016709460311
5309563 4 18049725122319031846
53794403 172 18409453608688920847
6025842 7 18409452509378097196
653340 110 17693367154922345320

>  <PUBCHEM_SHAPE_MULTIPOLES>  (1) 
505.72
14.29
7.3
0.92
41.44
5.18
-0.04
-2.21
0.78
-9.66
-1
-0.78
-0.37
-0.12

>  <PUBCHEM_SHAPE_SELFOVERLAP>  (1) 
988.053

>  <PUBCHEM_SHAPE_VOLUME>  (1) 
305

>  <PUBCHEM_COORDINATE_TYPE>  (1) 
2
5
10

$$$$
