42075
     RDKit          3D

 30 34  0  0  0  0  0  0  0  0999 V2000
   -4.4755    1.5522    1.9839 O   0  0  0  0  0  0  0  0  0  0  0  0
    2.4523   -1.0272    0.0530 N   0  0  0  0  0  0  0  0  0  0  0  0
    5.9984    0.1454    0.1504 N   0  0  0  0  0  0  0  0  0  0  0  0
   -0.3897   -0.8548    0.1810 N   0  0  0  0  0  0  0  0  0  0  0  0
    3.7778   -0.6898   -0.4639 C   0  0  0  0  0  0  0  0  0  0  0  0
    4.6670   -0.1752    0.6640 C   0  0  0  0  0  0  0  0  0  0  0  0
    1.7993    0.1634    0.6165 C   0  0  0  0  0  0  0  0  0  0  0  0
    1.6185   -1.6141   -1.0057 C   0  0  0  0  0  0  0  0  0  0  0  0
    6.6362   -1.0545   -0.4093 C   0  0  0  0  0  0  0  0  0  0  0  0
    6.8266    0.7434    1.2070 C   0  0  0  0  0  0  0  0  0  0  0  0
    0.4272   -0.1885    1.1945 C   0  0  0  0  0  0  0  0  0  0  0  0
    0.2425   -2.0053   -0.4632 C   0  0  0  0  0  0  0  0  0  0  0  0
    8.0103   -0.7267   -0.9957 C   0  0  0  0  0  0  0  0  0  0  0  0
    8.2070    1.1299    0.6736 C   0  0  0  0  0  0  0  0  0  0  0  0
    8.9114   -0.0646    0.0403 C   0  0  0  0  0  0  0  0  0  0  0  0
   -1.7028   -0.5408   -0.0170 C   0  0  0  0  0  0  0  0  0  0  0  0
   -1.9894    0.8667   -0.4010 C   0  0  0  0  0  0  0  0  0  0  0  0
   -2.6626   -1.4751    0.1289 C   0  0  0  0  0  0  0  0  0  0  0  0
   -3.0726    1.6043    0.1029 C   0  0  0  0  0  0  0  0  0  0  0  0
   -4.1183   -1.3269    0.0131 C   0  0  0  0  0  0  0  0  0  0  0  0
   -1.1046    1.5354   -1.2716 C   0  0  0  0  0  0  0  0  0  0  0  0
   -4.8160   -0.1983    0.4575 C   0  0  0  0  0  0  0  0  0  0  0  0
   -4.1202    1.0041    0.9485 C   0  0  0  0  0  0  0  0  0  0  0  0
   -3.2399    2.9621   -0.2125 C   0  0  0  0  0  0  0  0  0  0  0  0
   -4.8590   -2.4274   -0.4476 C   0  0  0  0  0  0  0  0  0  0  0  0
   -1.2777    2.8833   -1.5989 C   0  0  0  0  0  0  0  0  0  0  0  0
   -2.3405    3.5989   -1.0616 C   0  0  0  0  0  0  0  0  0  0  0  0
   -6.2172   -0.1658    0.4424 C   0  0  0  0  0  0  0  0  0  0  0  0
   -6.2550   -2.3918   -0.4787 C   0  0  0  0  0  0  0  0  0  0  0  0
   -6.9335   -1.2623   -0.0310 C   0  0  0  0  0  0  0  0  0  0  0  0
  1 23  2  0
  2  5  1  0
  2  7  1  0
  2  8  1  0
  3  6  1  0
  3  9  1  0
  3 10  1  0
  4 11  1  0
  4 12  1  0
  4 16  1  0
  5  6  1  0
  7 11  1  0
  8 12  1  0
  9 13  1  0
 10 14  1  0
 13 15  1  0
 14 15  1  0
 16 17  1  0
 16 18  2  0
 17 19  2  0
 17 21  1  0
 18 20  1  0
 19 23  1  0
 19 24  1  0
 20 22  2  0
 20 25  1  0
 21 26  2  0
 22 23  1  0
 22 28  1  0
 24 27  2  0
 25 29  2  0
 26 27  1  0
 28 30  2  0
 29 30  1  0
M  END
>  <PUBCHEM_COMPOUND_CID>  (1) 
42075

>  <PUBCHEM_CONFORMER_RMSD>  (1) 
0.8

>  <PUBCHEM_CONFORMER_DIVERSEORDER>  (1) 
1
70
69
33
58
46
27
19
23
37
41
44
12
72
66
14
35
68
49
73
34
50
53
6
30
11
13
59
9
62
26
71
36
60
57
17
39
45
48
5
54
43
42
63
28
20
21
31
22
25
47
65
55
32
18
67
16
15
24
61
8
2
40
7
3
52
10
56
4
38
29
51
64

>  <PUBCHEM_MMFF94_PARTIAL_CHARGES>  (1) 
36
1 -0.57
10 0.27
11 0.37
12 0.37
16 0.07
17 0.03
18 -0.18
19 0.09
2 -0.81
20 0.03
21 -0.15
22 0.09
23 0.4
24 -0.15
25 -0.15
26 -0.15
27 -0.15
28 -0.15
29 -0.15
3 -0.81
30 -0.15
4 -0.84
5 0.27
53 0.15
54 0.15
55 0.15
56 0.15
57 0.15
58 0.15
59 0.15
6 0.27
60 0.15
61 0.15
7 0.27
8 0.27
9 0.27

>  <PUBCHEM_EFFECTIVE_ROTOR_COUNT>  (1) 
6.4

>  <PUBCHEM_PHARMACOPHORE_FEATURES>  (1) 
9
1 1 acceptor
1 2 cation
1 3 cation
1 4 cation
6 17 19 21 24 26 27 rings
6 2 4 7 8 11 12 rings
6 20 22 25 28 29 30 rings
6 3 9 10 13 14 15 rings
7 16 17 18 19 20 22 23 rings

>  <PUBCHEM_HEAVY_ATOM_COUNT>  (1) 
30

>  <PUBCHEM_ATOM_DEF_STEREO_COUNT>  (1) 
0

>  <PUBCHEM_ATOM_UDEF_STEREO_COUNT>  (1) 
0

>  <PUBCHEM_BOND_DEF_STEREO_COUNT>  (1) 
0

>  <PUBCHEM_BOND_UDEF_STEREO_COUNT>  (1) 
0

>  <PUBCHEM_ISOTOPIC_ATOM_COUNT>  (1) 
0

>  <PUBCHEM_COMPONENT_COUNT>  (1) 
1

>  <PUBCHEM_CACTVS_TAUTO_COUNT>  (1) 
1

>  <PUBCHEM_CONFORMER_ID>  (1) 
0000A45B00000001

>  <PUBCHEM_MMFF94_ENERGY>  (1) 
94.6878

>  <PUBCHEM_FEATURE_SELFOVERLAP>  (1) 
45.694

>  <PUBCHEM_SHAPE_FINGERPRINT>  (1) 
10050765 1 18192427468472095486
10165383 225 17988926656646994123
10369192 42 17489587878982518788
11036077 3 10591767593359456485
11101153 10 18261113019208638388
11135926 11 16128653016944477830
11315181 36 18343022199087456667
11497681 19 18060413642705027415
12082328 90 17489310750755297960
12107698 1 18113615707743437548
12664476 115 18342734149001385344
13782708 43 18271531884029992870
13914758 101 15213292002375657951
14118638 360 17822004273486256618
14150022 121 18131356289181961697
14251764 18 17821729443002949814
14856354 85 18261681457877205566
14933364 13 18202566185846002154
15131766 46 15766654394981619456
15183329 4 18259987076778935730
15328684 2 17459170925188570424
15419008 47 18273208712471883352
15849732 13 13686301296392568307
17686467 74 18266455584651178282
18336668 15 17894352185443049149
18608769 82 18272367594444587178
19315958 150 17916035564639925891
19377110 9 17749103362413706178
19611394 137 17970922278322977931
20721686 56 18115310110548217288
21267235 1 18336549412974359947
21792961 116 17846215515218968794
21927370 108 18260840340614684531
22899556 105 17758974992873554159
23559900 14 18130780192702282187
249057 25 17603595119017699900
25019877 29 18060143158254124702
2747138 104 18260552263713921400
350125 39 18342736342516103681
3633792 109 15936956458185737731
4098825 35 18271810082341885850
4197921 191 18186241749846787964
4280585 95 18261391196008609311
4325135 7 18412263943255903638
44280117 145 17987796439913202647
44317340 157 16558460994403237104
44426695 248 13828728854600738095
5969126 39 18409160026552532077
59755656 520 15339115762377993542
9663363 56 18260547845242528427
9953998 17 18272939310726706657
9996256 80 18410573959893662106

>  <PUBCHEM_SHAPE_MULTIPOLES>  (1) 
596.57
22.64
2.95
1.19
48.59
2.17
0.08
-5.35
2.46
-5.02
-1.19
0
0.52
0.57

>  <PUBCHEM_SHAPE_SELFOVERLAP>  (1) 
1292.537

>  <PUBCHEM_SHAPE_VOLUME>  (1) 
323.9

>  <PUBCHEM_COORDINATE_TYPE>  (1) 
2
5
10

$$$$
