42079
     RDKit          3D

 17 17  0  0  0  0  0  0  0  0999 V2000
    0.7871    0.8034    0.9357 O   0  0  0  0  0  0  0  0  0  0  0  0
    3.3491    0.2325    0.0851 N   0  0  0  0  0  0  0  0  0  0  0  0
    0.0393   -1.1498   -0.1310 N   0  0  0  0  0  0  0  0  0  0  0  0
    2.3849   -0.8583    0.2234 C   0  0  0  0  0  0  0  0  0  0  0  0
    3.0247    1.0572   -1.0782 C   0  0  0  0  0  0  0  0  0  0  0  0
    4.7076   -0.2974   -0.0266 C   0  0  0  0  0  0  0  0  0  0  0  0
    0.9909   -0.2812    0.3996 C   0  0  0  0  0  0  0  0  0  0  0  0
    3.9990    2.1788   -1.2377 C   0  0  0  0  0  0  0  0  0  0  0  0
    5.0810   -1.0943    1.1810 C   0  0  0  0  0  0  0  0  0  0  0  0
   -1.3649   -0.9764   -0.1639 C   0  0  0  0  0  0  0  0  0  0  0  0
   -3.3040    0.3401    0.3464 C   0  0  0  0  0  0  0  0  0  0  0  0
   -1.9199    0.1704    0.3793 C   0  0  0  0  0  0  0  0  0  0  0  0
   -3.9188    1.5693    0.9263 C   0  0  0  0  0  0  0  0  0  0  0  0
   -2.1546   -1.9584   -0.7389 C   0  0  0  0  0  0  0  0  0  0  0  0
   -4.1134   -0.6394   -0.2292 C   0  0  0  0  0  0  0  0  0  0  0  0
   -3.5387   -1.7885   -0.7720 C   0  0  0  0  0  0  0  0  0  0  0  0
   -4.0492    2.6922   -0.0993 C   0  0  0  0  0  0  0  0  0  0  0  0
  1  7  2  0
  2  4  1  0
  2  5  1  0
  2  6  1  0
  3  7  1  0
  3 10  1  0
  4  7  1  0
  5  8  1  0
  6  9  1  0
 10 12  2  0
 10 14  1  0
 11 12  1  0
 11 13  1  0
 11 15  2  0
 13 17  1  0
 14 16  2  0
 15 16  1  0
M  END
>  <PUBCHEM_COMPOUND_CID>  (1) 
42079

>  <PUBCHEM_CONFORMER_RMSD>  (1) 
0.8

>  <PUBCHEM_CONFORMER_DIVERSEORDER>  (1) 
1
27
16
10
11
12
21
8
15
23
19
14
7
22
3
20
26
18
24
28
25
5
6
17
4
2
13
9

>  <PUBCHEM_MMFF94_PARTIAL_CHARGES>  (1) 
19
1 -0.57
10 0.12
11 -0.14
12 -0.15
13 0.14
14 -0.15
15 -0.15
16 -0.15
2 -0.81
3 -0.55
30 0.37
31 0.15
34 0.15
35 0.15
36 0.15
4 0.33
5 0.27
6 0.27
7 0.57

>  <PUBCHEM_EFFECTIVE_ROTOR_COUNT>  (1) 
7

>  <PUBCHEM_PHARMACOPHORE_FEATURES>  (1) 
5
1 1 acceptor
1 17 hydrophobe
1 2 cation
1 3 donor
6 10 11 12 14 15 16 rings

>  <PUBCHEM_HEAVY_ATOM_COUNT>  (1) 
17

>  <PUBCHEM_ATOM_DEF_STEREO_COUNT>  (1) 
0

>  <PUBCHEM_ATOM_UDEF_STEREO_COUNT>  (1) 
0

>  <PUBCHEM_BOND_DEF_STEREO_COUNT>  (1) 
0

>  <PUBCHEM_BOND_UDEF_STEREO_COUNT>  (1) 
0

>  <PUBCHEM_ISOTOPIC_ATOM_COUNT>  (1) 
0

>  <PUBCHEM_COMPONENT_COUNT>  (1) 
1

>  <PUBCHEM_CACTVS_TAUTO_COUNT>  (1) 
2

>  <PUBCHEM_CONFORMER_ID>  (1) 
0000A45F00000001

>  <PUBCHEM_MMFF94_ENERGY>  (1) 
40.0226

>  <PUBCHEM_FEATURE_SELFOVERLAP>  (1) 
25.371

>  <PUBCHEM_SHAPE_FINGERPRINT>  (1) 
10062212 137 18411976974979299594
10912923 1 18260827124752381602
11552529 35 17242189035080071835
12107183 9 18048029671378949050
12173636 292 18342171206756794231
12236239 1 18334290980908100371
12390115 104 17559694866979870873
12616971 3 18334582329998696512
13167823 11 18408602582658006690
13675066 3 18060697291035065122
14739800 52 18126275588011223800
14957384 54 17896310321126050397
15239154 128 18335424581691421772
15375358 24 16415476039181154082
17818456 19 18127410038775167096
17834072 32 18338240341277269061
18186145 218 16877941672321820898
19026448 5 18335702779839979710
19422 9 18336264634466094102
19433438 15 18408888434016046056
1986462 14 17917995001038648015
20279233 1 16343988022247185006
20612939 158 17967813890457942596
20645477 56 18130791140236400115
21709351 56 18334853896812818630
23402539 116 18343576322487322060
23532345 12 18410009927718894834
23557571 272 17918279753149057198
23559900 14 17845947208453953622
23598291 2 18334009523337975982
268830 7 17967248711095026772
2838139 119 17823686483395997589
3268164 11 17846490457333924021
4214541 1 18343018878376077651
474 4 17532658034344260396
5104073 3 18408323315230774176
54446538 1 18334013882671862817
559249 180 18341889633059567658
573450 72 18341040870011747026
633830 44 17894634755525253658
6430166 295 18342174427660298177
67856867 119 18266171911231765800
6913067 236 13398335829861171858
9971528 1 18334571340116272242

>  <PUBCHEM_SHAPE_MULTIPOLES>  (1) 
334.02
11.14
2.31
1.05
6.53
1.1
-0.04
2.2
0.42
-1.74
-0.54
0.56
0.15
-2.17

>  <PUBCHEM_SHAPE_SELFOVERLAP>  (1) 
670.091

>  <PUBCHEM_SHAPE_VOLUME>  (1) 
198.1

>  <PUBCHEM_COORDINATE_TYPE>  (1) 
2
5
10

$$$$
