42070
     RDKit          3D

 15 16  0  0  0  0  0  0  0  0999 V2000
    2.9632   -1.4558    0.6223 O   0  0  0  0  0  0  0  0  0  0  0  0
    3.9852    1.0812   -0.0386 N   0  0  0  0  0  0  0  0  0  0  0  0
   -0.1512    0.3449   -0.0142 C   0  0  0  0  0  0  0  0  0  0  0  0
   -1.5766    0.0964   -0.0079 C   0  0  0  0  0  0  0  0  0  0  0  0
    0.7371   -0.6806    0.3099 C   0  0  0  0  0  0  0  0  0  0  0  0
    2.1113   -0.4408    0.3033 C   0  0  0  0  0  0  0  0  0  0  0  0
    0.3344    1.6100   -0.3450 C   0  0  0  0  0  0  0  0  0  0  0  0
    2.5968    0.8244   -0.0277 C   0  0  0  0  0  0  0  0  0  0  0  0
    1.7084    1.8498   -0.3517 C   0  0  0  0  0  0  0  0  0  0  0  0
   -2.3149    0.3010    1.1579 C   0  0  0  0  0  0  0  0  0  0  0  0
   -2.2128   -0.3469   -1.1674 C   0  0  0  0  0  0  0  0  0  0  0  0
   -3.6891    0.0619    1.1643 C   0  0  0  0  0  0  0  0  0  0  0  0
   -3.5871   -0.5859   -1.1610 C   0  0  0  0  0  0  0  0  0  0  0  0
   -4.3251   -0.3815    0.0049 C   0  0  0  0  0  0  0  0  0  0  0  0
    3.4206   -2.2780   -0.4490 C   0  0  0  0  0  0  0  0  0  0  0  0
  1  6  1  0
  1 15  1  0
  2  8  1  0
  3  4  1  0
  3  5  2  0
  3  7  1  0
  4 10  2  0
  4 11  1  0
  5  6  1  0
  6  8  2  0
  7  9  2  0
  8  9  1  0
 10 12  1  0
 11 13  2  0
 12 14  2  0
 13 14  1  0
M  END
>  <PUBCHEM_COMPOUND_CID>  (1) 
42070

>  <PUBCHEM_CONFORMER_RMSD>  (1) 
0.6

>  <PUBCHEM_CONFORMER_DIVERSEORDER>  (1) 
1
2

>  <PUBCHEM_MMFF94_PARTIAL_CHARGES>  (1) 
23
1 -0.36
10 -0.15
11 -0.15
12 -0.15
13 -0.15
14 -0.15
15 0.28
16 0.15
17 0.15
18 0.15
19 0.15
2 -0.9
20 0.15
21 0.15
22 0.15
23 0.15
24 0.4
25 0.4
5 -0.15
6 0.08
7 -0.15
8 0.1
9 -0.15

>  <PUBCHEM_EFFECTIVE_ROTOR_COUNT>  (1) 
2

>  <PUBCHEM_PHARMACOPHORE_FEATURES>  (1) 
5
1 1 acceptor
1 2 cation
1 2 donor
6 3 5 6 7 8 9 rings
6 4 10 11 12 13 14 rings

>  <PUBCHEM_HEAVY_ATOM_COUNT>  (1) 
15

>  <PUBCHEM_ATOM_DEF_STEREO_COUNT>  (1) 
0

>  <PUBCHEM_ATOM_UDEF_STEREO_COUNT>  (1) 
0

>  <PUBCHEM_BOND_DEF_STEREO_COUNT>  (1) 
0

>  <PUBCHEM_BOND_UDEF_STEREO_COUNT>  (1) 
0

>  <PUBCHEM_ISOTOPIC_ATOM_COUNT>  (1) 
0

>  <PUBCHEM_COMPONENT_COUNT>  (1) 
1

>  <PUBCHEM_CACTVS_TAUTO_COUNT>  (1) 
1

>  <PUBCHEM_CONFORMER_ID>  (1) 
0000A45600000001

>  <PUBCHEM_MMFF94_ENERGY>  (1) 
67.8158

>  <PUBCHEM_FEATURE_SELFOVERLAP>  (1) 
25.371

>  <PUBCHEM_SHAPE_FINGERPRINT>  (1) 
10465860 71 15357706266378458495
10980938 120 18410291441076205852
11471102 20 18333730238641605260
11578080 2 17771874260857486065
12236239 1 18060140968226477689
12346645 6 18413109476603914342
12553582 1 18192712250468220130
12932764 1 17988921188863579833
13296908 3 17967529056262957147
13581323 91 16989125357469081829
13583140 156 15696853862086856514
14144814 61 18272089413596756457
14251717 144 18408880754561929194
14252887 29 18335140890790804088
14576447 43 18199739422427790423
15219456 202 17676202489906586085
15375358 24 17531521074469251960
15375462 189 18202567306009637745
15669948 3 17060334180112153149
16945 1 18335702792735606412
1813 80 18198357164755596838
18186145 218 17458062634145779073
19026448 5 17917713495923164003
19049666 15 17313932031537935741
19422 9 18202565068553267743
200 152 18340480153968430853
20279233 1 17240198854656389521
20281475 54 18202275909764059159
20339313 130 18410858728851533690
20361792 2 18337106769977989535
204376 136 18119247522238811728
20645477 70 18335410253796605943
20671657 53 18114460042178270618
20871998 22 18267303136707975886
2255824 54 18340490062152073164
23402539 116 15913331290990324745
23463225 33 18201439151318785143
23557571 272 15864342545718507948
23559900 14 16226035670462407098
23598291 2 18201722812354721639
2748010 2 18190164703685706796
474 4 17983849270616347144
573450 72 17346880031509689547
581208 293 18408881871474887848
6049 1 17385725794340642581
7364860 26 18342737438371041496
77492 1 18060140968163180665

>  <PUBCHEM_SHAPE_MULTIPOLES>  (1) 
297.84
7.69
1.7
1.04
2.01
0.24
0
1.96
0.12
-2.34
-0.24
0.93
0.08
-0.43

>  <PUBCHEM_SHAPE_SELFOVERLAP>  (1) 
642.891

>  <PUBCHEM_SHAPE_VOLUME>  (1) 
165.1

>  <PUBCHEM_COORDINATE_TYPE>  (1) 
2
5
10

$$$$
