4208
     RDKit          2D

 12 11  0  0  1  0  0  0  0  0999 V2000
    0.0000    0.0000    0.0000 Br  0  0  0  0  0  0  0  0  0  0  0  0
    0.0000    0.0000    0.0000 Br  0  0  0  0  0  0  0  0  0  0  0  0
    0.0000    0.0000    0.0000 O   0  0  0  0  0  0  0  0  0  0  0  0
    0.0000    0.0000    0.0000 O   0  0  0  0  0  0  0  0  0  0  0  0
    0.0000    0.0000    0.0000 O   0  0  0  0  0  0  0  0  0  0  0  0
    0.0000    0.0000    0.0000 O   0  0  0  0  0  0  0  0  0  0  0  0
    0.0000    0.0000    0.0000 C   0  0  0  0  0  0  0  0  0  0  0  0
    0.0000    0.0000    0.0000 C   0  0  0  0  0  0  0  0  0  0  0  0
    0.0000    0.0000    0.0000 C   0  0  0  0  0  0  0  0  0  0  0  0
    0.0000    0.0000    0.0000 C   0  0  0  0  0  0  0  0  0  0  0  0
    0.0000    0.0000    0.0000 C   0  0  0  0  0  0  0  0  0  0  0  0
    0.0000    0.0000    0.0000 C   0  0  0  0  0  0  0  0  0  0  0  0
  1 11  1  0
  2 12  1  0
  3  7  1  0
  4  8  1  0
  5  9  1  0
  6 10  1  0
  7  8  1  0
  7  9  1  0
  8 10  1  0
  9 11  1  0
 10 12  1  0
M  END
>  <PUBCHEM_COMPOUND_CID>  (1) 
4208

>  <PUBCHEM_CONFORMER_RMSD>  (1) 
0.6

>  <PUBCHEM_CONFORMER_DIVERSEORDER>  (1) 
16
322
159
273
36
296
335
41
27
33
199
181
309
81
270
10
306
255
44
35
277
334
109
14
123
7
275
300
256
292
215
77
294
17
11
212
281
343
221
49
189
83
31
248
178
329
276
26
6
344
327
347
243
202
280
271
219
345
98
25
2
105
266
340
278
328
102
205
28
288
106
153
238
239
60
40
237
204
323
336
47
339
227
295
151
285
182
69
39
303
122
338
158
101
50
247
304
320
126
346
235
152
245
290
85
120
32
293
211
38
279
314
318
260
82
5
289
186
58
319
348
103
341
93
12
330
287
133
307
317
115
305
249
208
13
316
274
63
229
310
76
331
71
326
257
113
226
22
110
194
301
311
104
218
175
272
1
231
207
190
79
124
128
86
291
254
146
191
90
171
166
74
261
131
3
299
164
213
88
297
258
132
169
61
234
267
70
185
262
127
308
187
244
46
142
240
57
188
172
342
67
96
264
263
177
268
143
167
225
117
21
210
45
154
8
87
183
78
148
30
174
283
253
333
156
233
168
241
250
95
201
97
163
337
108
91
141
230
203
173
23
129
259
111
195
121
251
94
220
34
136
157
48
332
145
107
112
56
147
298
68
161
119
139
228
29
214
312
65
125
66
89
224
118
80
37
150
321
217
42
114
284
15
192
54
170
4
193
134
9
236
222
149
315
59
184
72
55
209
155
198
232
162
216
19
75
73
138
324
137
24
100
313
53
140
179
223
265
130
144
206
165
18
325
62
52
92
302
242
116
99
20
286
252
51
197
160
196
176
200
64
246
269
135
282
180
84
43

>  <PUBCHEM_MMFF94_PARTIAL_CHARGES>  (1) 
16
1 -0.23
10 0.28
11 0.23
12 0.23
2 -0.23
21 0.4
22 0.4
23 0.4
24 0.4
3 -0.68
4 -0.68
5 -0.68
6 -0.68
7 0.28
8 0.28
9 0.28

>  <PUBCHEM_EFFECTIVE_ROTOR_COUNT>  (1) 
5

>  <PUBCHEM_PHARMACOPHORE_FEATURES>  (1) 
10
1 1 hydrophobe
1 2 hydrophobe
1 3 acceptor
1 3 donor
1 4 acceptor
1 4 donor
1 5 acceptor
1 5 donor
1 6 acceptor
1 6 donor

>  <PUBCHEM_HEAVY_ATOM_COUNT>  (1) 
12

>  <PUBCHEM_ATOM_DEF_STEREO_COUNT>  (1) 
0

>  <PUBCHEM_ATOM_UDEF_STEREO_COUNT>  (1) 
4

>  <PUBCHEM_BOND_DEF_STEREO_COUNT>  (1) 
0

>  <PUBCHEM_BOND_UDEF_STEREO_COUNT>  (1) 
0

>  <PUBCHEM_ISOTOPIC_ATOM_COUNT>  (1) 
0

>  <PUBCHEM_COMPONENT_COUNT>  (1) 
1

>  <PUBCHEM_CACTVS_TAUTO_COUNT>  (1) 
1

$$$$
