42115
     RDKit          3D

 12 12  0  0  0  0  0  0  0  0999 V2000
    0.5573    2.6779   -0.2351 Cl  0  0  0  0  0  0  0  0  0  0  0  0
   -2.5084    1.8976    0.0804 Cl  0  0  0  0  0  0  0  0  0  0  0  0
   -3.2914   -1.1945    0.2400 Cl  0  0  0  0  0  0  0  0  0  0  0  0
    2.3569    0.3463   -0.3405 O   0  0  0  0  0  0  0  0  0  0  0  0
    1.6174   -2.2989   -0.1961 O   0  0  0  0  0  0  0  0  0  0  0  0
    1.0370    0.0256   -0.2057 C   0  0  0  0  0  0  0  0  0  0  0  0
    0.6728   -1.3190   -0.1335 C   0  0  0  0  0  0  0  0  0  0  0  0
    0.0587    1.0177   -0.1404 C   0  0  0  0  0  0  0  0  0  0  0  0
   -0.6697   -1.6716    0.0041 C   0  0  0  0  0  0  0  0  0  0  0  0
   -1.2840    0.6652   -0.0028 C   0  0  0  0  0  0  0  0  0  0  0  0
   -1.6480   -0.6795    0.0694 C   0  0  0  0  0  0  0  0  0  0  0  0
    3.1015    0.5332    0.8600 C   0  0  0  0  0  0  0  0  0  0  0  0
  1  8  1  0
  2 10  1  0
  3 11  1  0
  4  6  1  0
  4 12  1  0
  5  7  1  0
  6  7  2  0
  6  8  1  0
  7  9  1  0
  8 10  2  0
  9 11  2  0
 10 11  1  0
M  END
>  <PUBCHEM_COMPOUND_CID>  (1) 
42115

>  <PUBCHEM_CONFORMER_RMSD>  (1) 
0.4

>  <PUBCHEM_CONFORMER_DIVERSEORDER>  (1) 
2
1

>  <PUBCHEM_MMFF94_PARTIAL_CHARGES>  (1) 
14
1 -0.18
10 0.18
11 0.18
12 0.28
13 0.15
17 0.45
2 -0.18
3 -0.18
4 -0.36
5 -0.53
6 0.08
7 0.08
8 0.18
9 -0.15

>  <PUBCHEM_EFFECTIVE_ROTOR_COUNT>  (1) 
1

>  <PUBCHEM_PHARMACOPHORE_FEATURES>  (1) 
3
1 4 acceptor
1 5 donor
6 6 7 8 9 10 11 rings

>  <PUBCHEM_HEAVY_ATOM_COUNT>  (1) 
12

>  <PUBCHEM_ATOM_DEF_STEREO_COUNT>  (1) 
0

>  <PUBCHEM_ATOM_UDEF_STEREO_COUNT>  (1) 
0

>  <PUBCHEM_BOND_DEF_STEREO_COUNT>  (1) 
0

>  <PUBCHEM_BOND_UDEF_STEREO_COUNT>  (1) 
0

>  <PUBCHEM_ISOTOPIC_ATOM_COUNT>  (1) 
0

>  <PUBCHEM_COMPONENT_COUNT>  (1) 
1

>  <PUBCHEM_CACTVS_TAUTO_COUNT>  (1) 
3

>  <PUBCHEM_CONFORMER_ID>  (1) 
0000A48300000002

>  <PUBCHEM_MMFF94_ENERGY>  (1) 
38.8598

>  <PUBCHEM_FEATURE_SELFOVERLAP>  (1) 
15.223

>  <PUBCHEM_SHAPE_FINGERPRINT>  (1) 
11206711 2 18409172138281308893
12382932 28 18338230462287661256
12423570 1 9192962478741011128
12524768 44 18124881157477799799
13140716 1 17977950407960112043
13380535 21 18267879288884261573
13380535 76 18338226064462416605
16945 1 18338523057108683375
193761 8 18194402182332577775
21040471 1 18338240366497823028
21501502 16 18338517417705912347
22344851 341 18263640662980118803
2334 1 18410577240974259255
23388829 49 18268418204290404287
23402539 116 18270102630176273415
23463225 33 18334571343799264426
23552423 10 18188781539026385735
23559900 14 18271538499106920446
241688 4 18193283996192195811
2748010 2 18339366240798554695
5084963 1 18059023906892760465
53812653 166 18343579625069571401
66348 1 18122911923446597149

>  <PUBCHEM_SHAPE_MULTIPOLES>  (1) 
240.83
4.09
2.65
0.7
0.37
0.71
-0.06
-0.22
-0.82
0.18
0.21
-0.16
0.04
0.12

>  <PUBCHEM_SHAPE_SELFOVERLAP>  (1) 
476.311

>  <PUBCHEM_SHAPE_VOLUME>  (1) 
147.2

>  <PUBCHEM_COORDINATE_TYPE>  (1) 
2
5
10

$$$$
