42135
     RDKit          3D

 17 19  0  0  0  0  0  0  0  0999 V2000
    3.0928   -2.2633   -0.0020 Cl  0  0  0  0  0  0  0  0  0  0  0  0
   -2.4660   -3.0507    0.0007 Cl  0  0  0  0  0  0  0  0  0  0  0  0
   -4.6672    1.8882    0.0004 Cl  0  0  0  0  0  0  0  0  0  0  0  0
    5.0509    0.3286    0.0017 Cl  0  0  0  0  0  0  0  0  0  0  0  0
    0.1561   -1.3686    0.0005 O   0  0  0  0  0  0  0  0  0  0  0  0
    0.5524    0.8579   -0.0002 C   0  0  0  0  0  0  0  0  0  0  0  0
   -0.8583    0.6525   -0.0002 C   0  0  0  0  0  0  0  0  0  0  0  0
    1.1244   -0.4105    0.0001 C   0  0  0  0  0  0  0  0  0  0  0  0
   -1.0450   -0.7263    0.0001 C   0  0  0  0  0  0  0  0  0  0  0  0
    1.4061    1.9765   -0.0003 C   0  0  0  0  0  0  0  0  0  0  0  0
   -1.9954    1.4814   -0.0004 C   0  0  0  0  0  0  0  0  0  0  0  0
    2.4976   -0.6489    0.0000 C   0  0  0  0  0  0  0  0  0  0  0  0
   -2.2934   -1.3463    0.0003 C   0  0  0  0  0  0  0  0  0  0  0  0
    2.7918    1.7680   -0.0001 C   0  0  0  0  0  0  0  0  0  0  0  0
   -3.2644    0.8867   -0.0006 C   0  0  0  0  0  0  0  0  0  0  0  0
    3.3256    0.4774   -0.0002 C   0  0  0  0  0  0  0  0  0  0  0  0
   -3.4080   -0.5027    0.0000 C   0  0  0  0  0  0  0  0  0  0  0  0
  1 12  1  0
  2 13  1  0
  3 15  1  0
  4 16  1  0
  5  8  1  0
  5  9  1  0
  6  7  1  0
  6  8  2  0
  6 10  1  0
  7  9  2  0
  7 11  1  0
  8 12  1  0
  9 13  1  0
 10 14  2  0
 11 15  2  0
 12 16  2  0
 13 17  2  0
 14 16  1  0
 15 17  1  0
M  END
>  <PUBCHEM_COMPOUND_CID>  (1) 
42135

>  <PUBCHEM_CONFORMER_RMSD>  (1) 
0.4

>  <PUBCHEM_CONFORMER_DIVERSEORDER>  (1) 
1

>  <PUBCHEM_MMFF94_PARTIAL_CHARGES>  (1) 
19
1 -0.18
10 -0.15
11 -0.15
12 0.18
13 0.18
14 -0.15
15 0.18
16 0.18
17 -0.15
18 0.15
19 0.15
2 -0.18
20 0.15
21 0.15
3 -0.18
4 -0.18
5 -0.28
8 0.14
9 0.14

>  <PUBCHEM_EFFECTIVE_ROTOR_COUNT>  (1) 
0

>  <PUBCHEM_PHARMACOPHORE_FEATURES>  (1) 
4
1 5 acceptor
5 5 6 7 8 9 rings
6 6 8 10 12 14 16 rings
6 7 9 11 13 15 17 rings

>  <PUBCHEM_HEAVY_ATOM_COUNT>  (1) 
17

>  <PUBCHEM_ATOM_DEF_STEREO_COUNT>  (1) 
0

>  <PUBCHEM_ATOM_UDEF_STEREO_COUNT>  (1) 
0

>  <PUBCHEM_BOND_DEF_STEREO_COUNT>  (1) 
0

>  <PUBCHEM_BOND_UDEF_STEREO_COUNT>  (1) 
0

>  <PUBCHEM_ISOTOPIC_ATOM_COUNT>  (1) 
0

>  <PUBCHEM_COMPONENT_COUNT>  (1) 
1

>  <PUBCHEM_CACTVS_TAUTO_COUNT>  (1) 
1

>  <PUBCHEM_CONFORMER_ID>  (1) 
0000A49700000001

>  <PUBCHEM_MMFF94_ENERGY>  (1) 
32.0258

>  <PUBCHEM_FEATURE_SELFOVERLAP>  (1) 
20.499

>  <PUBCHEM_SHAPE_FINGERPRINT>  (1) 
10062212 137 18336819879385278058
10608611 8 18339640139347687353
10616163 171 18339926025250724742
10967382 1 18338798914072810086
11132069 177 18410290315620740008
11471102 20 18339075986718825836
11578080 2 17130410505805190411
12251169 10 18410294713561671569
12500047 106 18411132541606653161
13140716 1 18410006641467591922
13380535 76 18341894065512698839
13760787 19 18333171669855441218
14144814 61 18410573980893446224
14178342 30 18265880518674019338
14790565 3 18122633751231892872
15196674 1 18410855434368933511
15219456 202 18411984645743112143
15442244 35 18339360751814370138
15536298 74 18342457006987013646
16945 1 18410574019521752005
17492 89 18410574019554459459
17804303 29 18411703209537398516
18186145 218 17967811617813730703
19591789 44 17905609895651715381
200 152 17917988399510357869
20645477 56 18407759222937623933
20645477 70 18270398278545177887
21267235 1 18338243759532841571
21421861 104 17751068120999588578
21501502 16 18337107968263243975
221490 88 18265339593481839554
2334 1 18338799038647980163
23402539 116 18272643541698297845
23402655 69 18342734079379912901
23463225 33 18409729543363255372
23557571 272 18200883970866094383
23558518 356 17970632015388887721
23559900 14 18342455907707533430
2748010 2 18339363066632892191
2871803 45 18193268826473720935
3312278 4 18341334469664913666
335352 9 18266458706881314975
34934 24 18410851045334434626
350125 39 18266182905888951665
3545911 37 18411983550537131040
4214541 1 18410575097569157761
495365 180 17488725835885652328
5104073 3 18410011026608128691
58051976 100 18410856594004874511
633830 44 17167864196642138216
69090 78 18410570665706188309
7364860 26 18341612590678536234
74978 22 18410855460286527795
7832392 63 18411134753361959748
8809292 202 18261958573329800258
9709674 26 18413111675195172998

>  <PUBCHEM_SHAPE_MULTIPOLES>  (1) 
351.46
8.27
2.71
0.62
1.55
1.42
0
-1.78
0
-1.23
0
0
0
0

>  <PUBCHEM_SHAPE_SELFOVERLAP>  (1) 
753.606

>  <PUBCHEM_SHAPE_VOLUME>  (1) 
200

>  <PUBCHEM_COORDINATE_TYPE>  (1) 
2
5
10

$$$$
