42187
     RDKit          3D

 32 34  0  0  1  0  0  0  0  0999 V2000
    3.8511   -0.2980   -1.8144 O   0  0  0  0  0  0  0  0  0  0  0  0
   -4.7057   -0.8829   -0.1644 O   0  0  0  0  0  0  0  0  0  0  0  0
   -2.3224    1.4404    1.9796 O   0  0  0  0  0  0  0  0  0  0  0  0
    6.7934   -0.2459    0.4021 N   0  0  0  0  0  0  0  0  0  0  0  0
   -2.5490    0.8023   -0.2385 N   0  0  0  0  0  0  0  0  0  0  0  0
   -3.4810   -2.3150    1.1933 N   0  0  0  0  0  0  0  0  0  0  0  0
    6.3322    0.2274    1.7069 C   0  0  0  0  0  0  0  0  0  0  0  0
    8.1441    0.2966    0.2572 C   0  0  0  0  0  0  0  0  0  0  0  0
    7.5560    0.0358    2.5905 C   0  0  0  0  0  0  0  0  0  0  0  0
    8.7469    0.0849    1.6382 C   0  0  0  0  0  0  0  0  0  0  0  0
    5.9113    0.1630   -0.6808 C   0  0  0  0  0  0  0  0  0  0  0  0
    4.6938   -0.7449   -0.7532 C   0  0  0  0  0  0  0  0  0  0  0  0
   -2.3014   -0.6031   -0.0368 C   0  0  0  0  0  0  0  0  0  0  0  0
   -1.6990   -1.2694   -1.2791 C   0  0  0  0  0  0  0  0  0  0  0  0
    2.5165   -0.5314   -1.6857 C   0  0  0  0  0  0  0  0  0  0  0  0
   -0.2191   -1.0093   -1.4212 C   0  0  0  0  0  0  0  0  0  0  0  0
   -3.6358   -1.2499    0.3168 C   0  0  0  0  0  0  0  0  0  0  0  0
    1.5967    0.3412   -2.2671 C   0  0  0  0  0  0  0  0  0  0  0  0
    2.0686   -1.6431   -0.9718 C   0  0  0  0  0  0  0  0  0  0  0  0
    0.2290    0.1023   -2.1349 C   0  0  0  0  0  0  0  0  0  0  0  0
    0.7006   -1.8820   -0.8397 C   0  0  0  0  0  0  0  0  0  0  0  0
   -4.5815   -3.1325    1.6509 C   0  0  0  0  0  0  0  0  0  0  0  0
   -4.8319   -4.3322    0.7433 C   0  0  0  0  0  0  0  0  0  0  0  0
   -3.6288   -5.2749    0.6693 C   0  0  0  0  0  0  0  0  0  0  0  0
   -2.5383    1.7194    0.8032 C   0  0  0  0  0  0  0  0  0  0  0  0
   -3.9284   -6.4908   -0.1936 C   0  0  0  0  0  0  0  0  0  0  0  0
   -2.8383    3.1269    0.4343 C   0  0  0  0  0  0  0  0  0  0  0  0
   -3.3975    3.9907    1.3761 C   0  0  0  0  0  0  0  0  0  0  0  0
   -2.5603    3.5850   -0.8537 C   0  0  0  0  0  0  0  0  0  0  0  0
   -3.6789    5.3124    1.0300 C   0  0  0  0  0  0  0  0  0  0  0  0
   -2.8416    4.9066   -1.1996 C   0  0  0  0  0  0  0  0  0  0  0  0
   -3.4010    5.7703   -0.2577 C   0  0  0  0  0  0  0  0  0  0  0  0
  1 12  1  0
  1 15  1  0
  2 17  2  0
  3 25  2  0
  4  7  1  0
  4  8  1  0
  4 11  1  0
  5 13  1  0
  5 25  1  0
  6 17  1  0
  6 22  1  0
  7  9  1  0
  8 10  1  0
  9 10  1  0
 11 12  1  0
 13 14  1  0
 13 17  1  0
 14 16  1  0
 15 18  2  0
 15 19  1  0
 16 20  2  0
 16 21  1  0
 18 20  1  0
 19 21  2  0
 22 23  1  0
 23 24  1  0
 24 26  1  0
 25 27  1  0
 27 28  2  0
 27 29  1  0
 28 30  1  0
 29 31  2  0
 30 32  2  0
 31 32  1  0
M  END
>  <PUBCHEM_COMPOUND_CID>  (1) 
42187

>  <PUBCHEM_CONFORMER_RMSD>  (1) 
1.2

>  <PUBCHEM_CONFORMER_DIVERSEORDER>  (1) 
1
78
53
75
89
7
87
65
119
33
84
17
77
100
45
5
60
51
85
111
99
82
52
73
108
59
70
67
118
90
41
38
42
25
12
39
107
97
96
122
69
55
91
64
49
27
19
113
86
9
120
6
109
83
104
103
22
88
106
36
20
68
72
115
29
37
93
47
46
57
94
13
101
26
3
71
11
76
81
58
121
74
66
14
31
114
32
40
112
48
102
117
10
92
105
50
34
110
24
18
95
43
4
35
54
44
63
2
80
79
23
16
116
62
8
21
28
98
15
61
30
56

>  <PUBCHEM_MMFF94_PARTIAL_CHARGES>  (1) 
38
1 -0.36
11 0.27
12 0.28
13 0.36
14 0.14
15 0.08
16 -0.14
17 0.57
18 -0.15
19 -0.15
2 -0.57
20 -0.15
21 -0.15
22 0.3
25 0.54
27 0.09
28 -0.15
29 -0.15
3 -0.57
30 -0.15
31 -0.15
32 -0.15
4 -0.81
48 0.15
49 0.15
5 -0.73
50 0.15
51 0.15
52 0.37
57 0.37
6 -0.73
63 0.15
64 0.15
65 0.15
66 0.15
67 0.15
7 0.27
8 0.27

>  <PUBCHEM_EFFECTIVE_ROTOR_COUNT>  (1) 
15

>  <PUBCHEM_PHARMACOPHORE_FEATURES>  (1) 
10
1 1 acceptor
1 2 acceptor
1 26 hydrophobe
1 3 acceptor
1 4 cation
1 5 donor
1 6 donor
5 4 7 8 9 10 rings
6 15 16 18 19 20 21 rings
6 27 28 29 30 31 32 rings

>  <PUBCHEM_HEAVY_ATOM_COUNT>  (1) 
32

>  <PUBCHEM_ATOM_DEF_STEREO_COUNT>  (1) 
0

>  <PUBCHEM_ATOM_UDEF_STEREO_COUNT>  (1) 
1

>  <PUBCHEM_BOND_DEF_STEREO_COUNT>  (1) 
0

>  <PUBCHEM_BOND_UDEF_STEREO_COUNT>  (1) 
0

>  <PUBCHEM_ISOTOPIC_ATOM_COUNT>  (1) 
0

>  <PUBCHEM_COMPONENT_COUNT>  (1) 
1

>  <PUBCHEM_CACTVS_TAUTO_COUNT>  (1) 
4

>  <PUBCHEM_CONFORMER_ID>  (1) 
0000A4CB00000001

>  <PUBCHEM_MMFF94_ENERGY>  (1) 
69.4783

>  <PUBCHEM_FEATURE_SELFOVERLAP>  (1) 
50.746

>  <PUBCHEM_SHAPE_FINGERPRINT>  (1) 
10074138 170 18336281050400779513
10930396 42 18411704279532739353
11136131 41 16538202771138869655
11607047 74 17256240442345588509
11828422 8 17111831683852902465
13165054 49 18200013137052913295
13540713 4 17986971652000699518
14068700 675 18115307924293734439
14950920 106 17095825256006269332
15484559 13 14034552659601065914
16114785 44 18268997493059087849
16993427 108 18116993505942778179
18470217 77 18411979199682441801
21133410 221 17915997175774959584
21304303 282 18263641759045891005
22956985 138 17619068773641497139
23522609 53 17604737494867853612
376196 1 17695913228931366493
4144715 1 18342182116485721062
44880168 125 12685966695200167312
5104073 3 18263075519147864710
9555976 147 18334568015537422098
9896288 288 18410012118015851662

>  <PUBCHEM_SHAPE_MULTIPOLES>  (1) 
625.99
18.69
8.63
2.16
58.01
1.08
0.1
-3.04
12.49
-27.4
1.84
2.36
0.2
1.49

>  <PUBCHEM_SHAPE_SELFOVERLAP>  (1) 
1295.608

>  <PUBCHEM_SHAPE_VOLUME>  (1) 
357.6

>  <PUBCHEM_COORDINATE_TYPE>  (1) 
2
5
10

$$$$
