42215
     RDKit          3D

 35 37  0  0  1  0  0  0  0  0999 V2000
   -0.9272    7.3648   -0.9548 Cl  0  0  0  0  0  0  0  0  0  0  0  0
    2.8658   -2.7997   -0.4104 O   0  0  0  0  0  0  0  0  0  0  0  0
   -5.3187    0.2657   -0.6019 O   0  0  0  0  0  0  0  0  0  0  0  0
   -2.6432    1.6149    1.9859 O   0  0  0  0  0  0  0  0  0  0  0  0
    5.9899   -1.0338    0.4264 N   0  0  0  0  0  0  0  0  0  0  0  0
    8.7108   -0.0646    0.3003 N   0  0  0  0  0  0  0  0  0  0  0  0
   -2.6864    0.9190   -0.2261 N   0  0  0  0  0  0  0  0  0  0  0  0
   -5.0831   -1.4060    0.9931 N   0  0  0  0  0  0  0  0  0  0  0  0
    6.8949   -1.1512    1.5764 C   0  0  0  0  0  0  0  0  0  0  0  0
    6.7509   -1.0597   -0.8286 C   0  0  0  0  0  0  0  0  0  0  0  0
    7.9506   -0.0405    1.5558 C   0  0  0  0  0  0  0  0  0  0  0  0
    7.8058    0.0519   -0.8497 C   0  0  0  0  0  0  0  0  0  0  0  0
    4.9849   -2.0947    0.4462 C   0  0  0  0  0  0  0  0  0  0  0  0
    9.7144    0.9978    0.2807 C   0  0  0  0  0  0  0  0  0  0  0  0
    3.8077   -1.7356   -0.4466 C   0  0  0  0  0  0  0  0  0  0  0  0
   -3.0883   -0.4410    0.0318 C   0  0  0  0  0  0  0  0  0  0  0  0
   -2.5742   -1.4087   -1.0503 C   0  0  0  0  0  0  0  0  0  0  0  0
    1.5465   -2.4626   -0.5660 C   0  0  0  0  0  0  0  0  0  0  0  0
   -1.1386   -1.7755   -0.8820 C   0  0  0  0  0  0  0  0  0  0  0  0
   -4.6114   -0.4562    0.0977 C   0  0  0  0  0  0  0  0  0  0  0  0
    0.5539   -3.2304    0.0429 C   0  0  0  0  0  0  0  0  0  0  0  0
    1.1966   -1.3511   -1.3328 C   0  0  0  0  0  0  0  0  0  0  0  0
   -0.7887   -2.8869   -0.1151 C   0  0  0  0  0  0  0  0  0  0  0  0
   -0.1459   -1.0076   -1.4907 C   0  0  0  0  0  0  0  0  0  0  0  0
   -6.4888   -1.6616    1.2114 C   0  0  0  0  0  0  0  0  0  0  0  0
   -7.0366   -2.7362    0.2783 C   0  0  0  0  0  0  0  0  0  0  0  0
   -6.3437   -4.0876    0.4669 C   0  0  0  0  0  0  0  0  0  0  0  0
   -2.4949    1.8462    0.7887 C   0  0  0  0  0  0  0  0  0  0  0  0
   -6.9505   -5.1530   -0.4327 C   0  0  0  0  0  0  0  0  0  0  0  0
   -2.1069    3.2135    0.3564 C   0  0  0  0  0  0  0  0  0  0  0  0
   -2.4253    4.3135    1.1530 C   0  0  0  0  0  0  0  0  0  0  0  0
   -1.4236    3.3975   -0.8457 C   0  0  0  0  0  0  0  0  0  0  0  0
   -2.0606    5.5971    0.7476 C   0  0  0  0  0  0  0  0  0  0  0  0
   -1.0589    4.6812   -1.2513 C   0  0  0  0  0  0  0  0  0  0  0  0
   -1.3774    5.7811   -0.4547 C   0  0  0  0  0  0  0  0  0  0  0  0
  1 35  1  0
  2 15  1  0
  2 18  1  0
  3 20  2  0
  4 28  2  0
  5  9  1  0
  5 10  1  0
  5 13  1  0
  6 11  1  0
  6 12  1  0
  6 14  1  0
  7 16  1  0
  7 28  1  0
  8 20  1  0
  8 25  1  0
  9 11  1  0
 10 12  1  0
 13 15  1  0
 16 17  1  0
 16 20  1  0
 17 19  1  0
 18 21  2  0
 18 22  1  0
 19 23  2  0
 19 24  1  0
 21 23  1  0
 22 24  2  0
 25 26  1  0
 26 27  1  0
 27 29  1  0
 28 30  1  0
 30 31  2  0
 30 32  1  0
 31 33  1  0
 32 34  2  0
 33 35  2  0
 34 35  1  0
M  END
>  <PUBCHEM_COMPOUND_CID>  (1) 
42215

>  <PUBCHEM_CONFORMER_RMSD>  (1) 
1.2

>  <PUBCHEM_CONFORMER_DIVERSEORDER>  (1) 
3
104
168
21
75
136
70
55
29
88
128
160
171
96
72
176
92
8
159
117
163
25
154
48
165
134
73
178
177
24
39
122
110
153
158
114
34
60
137
57
74
167
16
100
175
19
69
35
129
66
103
37
116
102
155
115
5
144
15
64
119
135
54
53
82
17
38
23
111
169
164
79
41
90
89
28
149
172
152
166
11
121
56
12
170
76
59
61
14
112
156
68
43
65
50
179
44
148
101
133
36
31
49
94
58
143
83
93
9
47
71
10
107
109
81
138
126
78
80
140
106
139
1
86
33
180
150
157
142
147
131
7
18
105
62
118
130
20
77
63
40
132
95
173
124
145
161
151
6
42
99
51
45
30
67
13
85
26
108
46
27
123
127
162
113
174
84
4
22
91
87
120
2
125
98
97
52
32
146
141

>  <PUBCHEM_MMFF94_PARTIAL_CHARGES>  (1) 
42
1 -0.18
10 0.27
11 0.27
12 0.27
13 0.27
14 0.27
15 0.28
16 0.36
17 0.14
18 0.08
19 -0.14
2 -0.36
20 0.57
21 -0.15
22 -0.15
23 -0.15
24 -0.15
25 0.3
28 0.54
3 -0.57
30 0.09
31 -0.15
32 -0.15
33 -0.15
34 -0.15
35 0.18
4 -0.57
5 -0.81
54 0.15
55 0.15
56 0.15
57 0.15
58 0.37
6 -0.81
61 0.37
69 0.15
7 -0.73
70 0.15
71 0.15
72 0.15
8 -0.73
9 0.27

>  <PUBCHEM_EFFECTIVE_ROTOR_COUNT>  (1) 
15.2

>  <PUBCHEM_PHARMACOPHORE_FEATURES>  (1) 
11
1 2 acceptor
1 29 hydrophobe
1 3 acceptor
1 4 acceptor
1 5 cation
1 6 cation
1 7 donor
1 8 donor
6 18 19 21 22 23 24 rings
6 30 31 32 33 34 35 rings
6 5 6 9 10 11 12 rings

>  <PUBCHEM_HEAVY_ATOM_COUNT>  (1) 
35

>  <PUBCHEM_ATOM_DEF_STEREO_COUNT>  (1) 
0

>  <PUBCHEM_ATOM_UDEF_STEREO_COUNT>  (1) 
1

>  <PUBCHEM_BOND_DEF_STEREO_COUNT>  (1) 
0

>  <PUBCHEM_BOND_UDEF_STEREO_COUNT>  (1) 
0

>  <PUBCHEM_ISOTOPIC_ATOM_COUNT>  (1) 
0

>  <PUBCHEM_COMPONENT_COUNT>  (1) 
1

>  <PUBCHEM_CACTVS_TAUTO_COUNT>  (1) 
4

>  <PUBCHEM_CONFORMER_ID>  (1) 
0000A4E700000003

>  <PUBCHEM_MMFF94_ENERGY>  (1) 
78.3409

>  <PUBCHEM_FEATURE_SELFOVERLAP>  (1) 
55.822

>  <PUBCHEM_SHAPE_FINGERPRINT>  (1) 
10369192 42 16702304542086498486
10883706 163 18408599258938973260
12202916 173 11891325453056153802
13560911 43 18408601483504900040
14068700 686 18198064681319303223
14150022 121 18410291389731738180
15274700 21 18272653398795812361
15347590 135 18187090541904462483
15351339 4 17831605410456679684
18393751 57 17545614353334281657
18603816 31 13190344616258437594
19304152 47 18263658268462275008
21133410 52 18127126600719730319
21796203 349 17974887079072961547
22956985 138 17902518422012548799
25019877 29 16917076602643292015
2747138 104 18412552006960794958
3418910 222 18338244846618178956
550186 72 18339080380766236428

>  <PUBCHEM_SHAPE_MULTIPOLES>  (1) 
684.62
22.91
9.55
1.36
52.55
21.08
0.2
-22.47
7
-16.66
-1.6
0.41
0.4
-0.07

>  <PUBCHEM_SHAPE_SELFOVERLAP>  (1) 
1402.767

>  <PUBCHEM_SHAPE_VOLUME>  (1) 
394.6

>  <PUBCHEM_COORDINATE_TYPE>  (1) 
2
5
10

$$$$
