42233
     RDKit          3D

 35 37  0  0  1  0  0  0  0  0999 V2000
    4.5868    2.6156    0.7946 O   0  0  0  0  0  0  0  0  0  0  0  0
   -1.2017   -2.4602    0.1612 O   0  0  0  0  0  0  0  0  0  0  0  0
   -4.7790    0.4920   -0.2114 O   0  0  0  0  0  0  0  0  0  0  0  0
   -3.1225    1.9700   -0.8000 O   0  0  0  0  0  0  0  0  0  0  0  0
   -2.6359   -0.1303    0.0583 N   0  0  0  0  0  0  0  0  0  0  0  0
    0.4554   -1.4062   -1.0786 N   0  0  0  0  0  0  0  0  0  0  0  0
    7.6884    1.6795   -0.9592 N   0  0  0  0  0  0  0  0  0  0  0  0
   -1.1978   -0.0399    0.0327 C   0  0  0  0  0  0  0  0  0  0  0  0
   -0.6269    0.4854    1.3549 C   0  0  0  0  0  0  0  0  0  0  0  0
    0.7635    1.0530    1.2059 C   0  0  0  0  0  0  0  0  0  0  0  0
   -0.6631   -1.4378   -0.2573 C   0  0  0  0  0  0  0  0  0  0  0  0
    1.8758    0.2267    1.3666 C   0  0  0  0  0  0  0  0  0  0  0  0
    0.9361    2.4045    0.9069 C   0  0  0  0  0  0  0  0  0  0  0  0
    1.1301   -2.5957   -1.5465 C   0  0  0  0  0  0  0  0  0  0  0  0
    3.3330    2.1035    0.9298 C   0  0  0  0  0  0  0  0  0  0  0  0
    3.1605    0.7519    1.2285 C   0  0  0  0  0  0  0  0  0  0  0  0
    2.2209    2.9297    0.7689 C   0  0  0  0  0  0  0  0  0  0  0  0
   -3.4776    0.8815   -0.3599 C   0  0  0  0  0  0  0  0  0  0  0  0
    5.6012    1.7324    0.3186 C   0  0  0  0  0  0  0  0  0  0  0  0
    2.2159   -3.0324   -0.6059 C   0  0  0  0  0  0  0  0  0  0  0  0
    6.6222    2.5393   -0.4675 C   0  0  0  0  0  0  0  0  0  0  0  0
    3.5145   -2.5497   -0.7676 C   0  0  0  0  0  0  0  0  0  0  0  0
    1.9261   -3.9212    0.4292 C   0  0  0  0  0  0  0  0  0  0  0  0
   -5.7667    1.4498   -0.6089 C   0  0  0  0  0  0  0  0  0  0  0  0
    7.2580    0.9528   -2.1562 C   0  0  0  0  0  0  0  0  0  0  0  0
    8.8929    2.4614   -1.2486 C   0  0  0  0  0  0  0  0  0  0  0  0
   -7.1314    0.8686   -0.3829 C   0  0  0  0  0  0  0  0  0  0  0  0
    4.5234   -2.9558    0.1059 C   0  0  0  0  0  0  0  0  0  0  0  0
    2.9349   -4.3272    1.3029 C   0  0  0  0  0  0  0  0  0  0  0  0
    4.2336   -3.8445    1.1411 C   0  0  0  0  0  0  0  0  0  0  0  0
   -7.7573    0.1434   -1.3969 C   0  0  0  0  0  0  0  0  0  0  0  0
   -7.7745    1.0537    0.8409 C   0  0  0  0  0  0  0  0  0  0  0  0
   -9.0263   -0.3965   -1.1870 C   0  0  0  0  0  0  0  0  0  0  0  0
   -9.0433    0.5138    1.0509 C   0  0  0  0  0  0  0  0  0  0  0  0
   -9.6691   -0.2113    0.0368 C   0  0  0  0  0  0  0  0  0  0  0  0
  1 15  1  0
  1 19  1  0
  2 11  2  0
  3 18  1  0
  3 24  1  0
  4 18  2  0
  5  8  1  0
  5 18  1  0
  6 11  1  0
  6 14  1  0
  7 21  1  0
  7 25  1  0
  7 26  1  0
  8  9  1  0
  8 11  1  0
  9 10  1  0
 10 12  2  0
 10 13  1  0
 12 16  1  0
 13 17  2  0
 14 20  1  0
 15 16  2  0
 15 17  1  0
 19 21  1  0
 20 22  2  0
 20 23  1  0
 22 28  1  0
 23 29  2  0
 24 27  1  0
 27 31  2  0
 27 32  1  0
 28 30  2  0
 29 30  1  0
 31 33  1  0
 32 34  2  0
 33 35  2  0
 34 35  1  0
M  END
>  <PUBCHEM_COMPOUND_CID>  (1) 
42233

>  <PUBCHEM_CONFORMER_RMSD>  (1) 
1.2

>  <PUBCHEM_CONFORMER_DIVERSEORDER>  (1) 
1
59
16
73
33
77
32
60
14
55
13
30
34
2
54
67
78
74
89
58
45
61
48
28
52
91
79
92
37
83
38
20
49
50
82
44
85
86
36
19
69
11
25
93
21
47
26
42
81
56
71
15
70
66
23
35
27
51
63
12
43
10
46
22
65
41
90
80
31
68
24
29
88
17
62
84
75
87
4
39
18
8
3
57
7
6
64
72
9
76
5
40
53

>  <PUBCHEM_MMFF94_PARTIAL_CHARGES>  (1) 
51
1 -0.36
10 -0.14
11 0.57
12 -0.15
13 -0.15
14 0.44
15 0.08
16 -0.15
17 -0.15
18 0.78
19 0.28
2 -0.57
20 -0.14
21 0.27
22 -0.15
23 -0.15
24 0.42
25 0.27
26 0.27
27 -0.14
28 -0.15
29 -0.15
3 -0.43
30 -0.15
31 -0.15
32 -0.15
33 -0.15
34 -0.15
35 -0.15
39 0.37
4 -0.57
40 0.15
41 0.15
42 0.37
45 0.15
46 0.15
5 -0.73
51 0.15
52 0.15
6 -0.73
61 0.15
62 0.15
63 0.15
64 0.15
65 0.15
66 0.15
67 0.15
68 0.15
7 -0.81
8 0.36
9 0.14

>  <PUBCHEM_EFFECTIVE_ROTOR_COUNT>  (1) 
15

>  <PUBCHEM_PHARMACOPHORE_FEATURES>  (1) 
9
1 1 acceptor
1 2 acceptor
1 4 acceptor
1 5 donor
1 6 donor
1 7 cation
6 10 12 13 15 16 17 rings
6 20 22 23 28 29 30 rings
6 27 31 32 33 34 35 rings

>  <PUBCHEM_HEAVY_ATOM_COUNT>  (1) 
35

>  <PUBCHEM_ATOM_DEF_STEREO_COUNT>  (1) 
1

>  <PUBCHEM_ATOM_UDEF_STEREO_COUNT>  (1) 
0

>  <PUBCHEM_BOND_DEF_STEREO_COUNT>  (1) 
0

>  <PUBCHEM_BOND_UDEF_STEREO_COUNT>  (1) 
0

>  <PUBCHEM_ISOTOPIC_ATOM_COUNT>  (1) 
0

>  <PUBCHEM_COMPONENT_COUNT>  (1) 
1

>  <PUBCHEM_CACTVS_TAUTO_COUNT>  (1) 
4

>  <PUBCHEM_CONFORMER_ID>  (1) 
0000A4F900000001

>  <PUBCHEM_MMFF94_ENERGY>  (1) 
88.9876

>  <PUBCHEM_FEATURE_SELFOVERLAP>  (1) 
45.671

>  <PUBCHEM_SHAPE_FINGERPRINT>  (1) 
10165383 225 18410012165302391580
10677351 14 18412821362488726221
11607047 403 18186522090171125214
12522641 33 18334576866731594113
13617811 41 18334301976399633372
13782708 43 18189612736433139983
14150023 79 18409444799605397699
15773216 30 18340209592261754094
15890870 6 18409169914290005158
15927050 60 18269829972773300182
20771845 171 18187367615129705974
21781055 127 15841284666668070891
24771750 20 18408885114370765126
4073 2 18408602596234037763
44426699 60 18041007237126586902
5265222 85 18192436496873289924
59521660 218 18409172077861726778

>  <PUBCHEM_SHAPE_MULTIPOLES>  (1) 
681.86
26.94
4.83
1.52
52.13
5.12
-0.23
-15.99
-9.22
-12
0.88
-1.16
-0.03
-1.81

>  <PUBCHEM_SHAPE_SELFOVERLAP>  (1) 
1427.179

>  <PUBCHEM_SHAPE_VOLUME>  (1) 
385

>  <PUBCHEM_COORDINATE_TYPE>  (1) 
2
5
10

$$$$
