42247
     RDKit          3D

 15 16  0  0  1  0  0  0  0  0999 V2000
    1.1400    1.1718    1.8818 O   0  0  0  0  0  0  0  0  0  0  0  0
    3.9994    0.3384   -1.2985 O   0  0  0  0  0  0  0  0  0  0  0  0
    3.1896   -0.9584    0.3860 O   0  0  0  0  0  0  0  0  0  0  0  0
   -0.0518   -0.0778    0.3534 N   0  0  0  0  0  0  0  0  0  0  0  0
   -2.7510    0.3610   -0.4510 N   0  0  0  0  0  0  0  0  0  0  0  0
   -1.1208   -0.5157    1.2322 C   0  0  0  0  0  0  0  0  0  0  0  0
   -0.4564   -0.4845   -0.9841 C   0  0  0  0  0  0  0  0  0  0  0  0
   -1.3819   -1.9435    0.7329 C   0  0  0  0  0  0  0  0  0  0  0  0
   -0.9411   -1.9226   -0.7456 C   0  0  0  0  0  0  0  0  0  0  0  0
   -2.3255    0.4151    0.9634 C   0  0  0  0  0  0  0  0  0  0  0  0
   -1.6185    0.4483   -1.3969 C   0  0  0  0  0  0  0  0  0  0  0  0
    0.9952    0.7300    0.7408 C   0  0  0  0  0  0  0  0  0  0  0  0
   -3.7689    1.3645   -0.7416 C   0  0  0  0  0  0  0  0  0  0  0  0
    2.0003    1.0530   -0.3338 C   0  0  0  0  0  0  0  0  0  0  0  0
    3.0913    0.0204   -0.3390 C   0  0  0  0  0  0  0  0  0  0  0  0
  1 12  2  0
  2 15  1  0
  3 15  2  0
  4  6  1  0
  4  7  1  0
  4 12  1  0
  5 10  1  0
  5 11  1  0
  5 13  1  0
  6  8  1  0
  6 10  1  0
  7  9  1  0
  7 11  1  0
  8  9  1  0
 12 14  1  0
 14 15  1  0
M  END
>  <PUBCHEM_COMPOUND_CID>  (1) 
42247

>  <PUBCHEM_CONFORMER_RMSD>  (1) 
0.6

>  <PUBCHEM_CONFORMER_DIVERSEORDER>  (1) 
1
24
6
20
19
16
8
21
23
12
11
3
2
22
13
10
18
5
15
7
17
14
4
9

>  <PUBCHEM_MMFF94_PARTIAL_CHARGES>  (1) 
14
1 -0.57
10 0.27
11 0.27
12 0.57
13 0.27
14 0.12
15 0.66
2 -0.65
3 -0.57
31 0.5
4 -0.66
5 -0.81
6 0.3
7 0.3

>  <PUBCHEM_EFFECTIVE_ROTOR_COUNT>  (1) 
4.2

>  <PUBCHEM_PHARMACOPHORE_FEATURES>  (1) 
7
1 1 acceptor
1 14 anion
1 2 acceptor
1 3 acceptor
1 5 cation
3 2 3 15 anion
8 4 5 6 7 8 9 10 11 rings

>  <PUBCHEM_HEAVY_ATOM_COUNT>  (1) 
15

>  <PUBCHEM_ATOM_DEF_STEREO_COUNT>  (1) 
0

>  <PUBCHEM_ATOM_UDEF_STEREO_COUNT>  (1) 
2

>  <PUBCHEM_BOND_DEF_STEREO_COUNT>  (1) 
0

>  <PUBCHEM_BOND_UDEF_STEREO_COUNT>  (1) 
0

>  <PUBCHEM_ISOTOPIC_ATOM_COUNT>  (1) 
0

>  <PUBCHEM_COMPONENT_COUNT>  (1) 
1

>  <PUBCHEM_CACTVS_TAUTO_COUNT>  (1) 
1

>  <PUBCHEM_CONFORMER_ID>  (1) 
0000A50700000001

>  <PUBCHEM_MMFF94_ENERGY>  (1) 
40.8326

>  <PUBCHEM_FEATURE_SELFOVERLAP>  (1) 
35.852

>  <PUBCHEM_SHAPE_FINGERPRINT>  (1) 
10922049 32 18333731282740508471
11132069 177 12757157895602062512
11769659 78 13614235958217434164
12138202 97 18411703196789672943
12186901 62 18187936109411367167
12423570 1 15548004022602614099
12808571 1 17822003181904900813
12932764 1 18262243330077931504
13024252 1 15719671060678058571
13296908 3 17845662563748751146
13464514 151 17834115247699853685
14713566 1 16200146586701779159
14943859 89 18113615672903371841
14993402 34 17417811716676216052
15775835 57 18260265230949270063
16945 1 17203608173031091743
17834072 14 14836110057573890152
18186145 218 17846488240988607993
19422 9 16877664573584365082
19868273 293 18335699459539999196
200 152 11383830433311541892
20653085 51 18272358815547206481
21069387 34 15913330195256511588
21524375 3 18336255735636559901
23236772 104 15864353588084823569
23419403 2 17542270832577977379
25 1 18200315403522828009
2748010 2 17773025582374208896
369184 2 12103578479973740938
4175511 318 18334021600643509684
528886 8 18040996254478141416
57812782 119 12463293566298646444
74978 22 18059293270362428696
81228 2 17904464544344605875

>  <PUBCHEM_SHAPE_MULTIPOLES>  (1) 
281.12
5.43
1.59
1.45
2.97
0.65
-0.28
-1.93
1.31
-0.84
0.14
0.04
-0.13
0.21

>  <PUBCHEM_SHAPE_SELFOVERLAP>  (1) 
581.743

>  <PUBCHEM_SHAPE_VOLUME>  (1) 
160

>  <PUBCHEM_COORDINATE_TYPE>  (1) 
2
5
10

$$$$
