42267
     RDKit          3D

 22 26  0  0  0  0  0  0  0  0999 V2000
   -3.9319   -2.0172    0.0000 O   0  0  0  0  0  0  0  0  0  0  0  0
   -5.6670    0.0925   -0.0001 O   0  0  0  0  0  0  0  0  0  0  0  0
    0.7657   -0.1364   -0.0001 C   0  0  0  0  0  0  0  0  0  0  0  0
    2.1807    0.0196   -0.0001 C   0  0  0  0  0  0  0  0  0  0  0  0
   -0.0948    0.9938   -0.0001 C   0  0  0  0  0  0  0  0  0  0  0  0
    0.2246   -1.4402   -0.0001 C   0  0  0  0  0  0  0  0  0  0  0  0
   -1.5198    0.7990   -0.0001 C   0  0  0  0  0  0  0  0  0  0  0  0
    2.7530    1.3099   -0.0001 C   0  0  0  0  0  0  0  0  0  0  0  0
    3.0291   -1.1144    0.0001 C   0  0  0  0  0  0  0  0  0  0  0  0
   -2.0357   -0.5208   -0.0002 C   0  0  0  0  0  0  0  0  0  0  0  0
   -1.1622   -1.6132   -0.0002 C   0  0  0  0  0  0  0  0  0  0  0  0
    0.5233    2.2652    0.0000 C   0  0  0  0  0  0  0  0  0  0  0  0
    1.0781   -2.5518    0.0002 C   0  0  0  0  0  0  0  0  0  0  0  0
    1.9118    2.4220   -0.0001 C   0  0  0  0  0  0  0  0  0  0  0  0
    2.4623   -2.3920    0.0002 C   0  0  0  0  0  0  0  0  0  0  0  0
   -2.4693    1.8526    0.0002 C   0  0  0  0  0  0  0  0  0  0  0  0
    4.1486    1.4547    0.0000 C   0  0  0  0  0  0  0  0  0  0  0  0
    4.4210   -0.9419    0.0001 C   0  0  0  0  0  0  0  0  0  0  0  0
   -3.4236   -0.7462   -0.0001 C   0  0  0  0  0  0  0  0  0  0  0  0
    4.9763    0.3352    0.0000 C   0  0  0  0  0  0  0  0  0  0  0  0
   -4.3239    0.3144    0.0002 C   0  0  0  0  0  0  0  0  0  0  0  0
   -3.8464    1.6152    0.0004 C   0  0  0  0  0  0  0  0  0  0  0  0
  1 19  1  0
  2 21  1  0
  3  4  2  0
  3  5  1  0
  3  6  1  0
  4  8  1  0
  4  9  1  0
  5  7  1  0
  5 12  2  0
  6 11  2  0
  6 13  1  0
  7 10  2  0
  7 16  1  0
  8 14  2  0
  8 17  1  0
  9 15  1  0
  9 18  2  0
 10 11  1  0
 10 19  1  0
 12 14  1  0
 13 15  2  0
 16 22  2  0
 17 20  2  0
 18 20  1  0
 19 21  2  0
 21 22  1  0
M  END
>  <PUBCHEM_COMPOUND_CID>  (1) 
42267

>  <PUBCHEM_CONFORMER_RMSD>  (1) 
0.6

>  <PUBCHEM_CONFORMER_DIVERSEORDER>  (1) 
1

>  <PUBCHEM_MMFF94_PARTIAL_CHARGES>  (1) 
26
1 -0.53
11 -0.15
12 -0.15
13 -0.15
14 -0.15
15 -0.15
16 -0.15
17 -0.15
18 -0.15
19 0.08
2 -0.53
20 -0.15
21 0.08
22 -0.15
23 0.15
24 0.15
25 0.15
26 0.15
27 0.15
28 0.15
29 0.15
30 0.15
31 0.15
32 0.15
33 0.45
34 0.45

>  <PUBCHEM_EFFECTIVE_ROTOR_COUNT>  (1) 
0

>  <PUBCHEM_PHARMACOPHORE_FEATURES>  (1) 
7
1 1 donor
1 2 donor
6 3 4 5 8 12 14 rings
6 3 4 6 9 13 15 rings
6 3 5 6 7 10 11 rings
6 4 8 9 17 18 20 rings
6 7 10 16 19 21 22 rings

>  <PUBCHEM_HEAVY_ATOM_COUNT>  (1) 
22

>  <PUBCHEM_ATOM_DEF_STEREO_COUNT>  (1) 
0

>  <PUBCHEM_ATOM_UDEF_STEREO_COUNT>  (1) 
0

>  <PUBCHEM_BOND_DEF_STEREO_COUNT>  (1) 
0

>  <PUBCHEM_BOND_UDEF_STEREO_COUNT>  (1) 
0

>  <PUBCHEM_ISOTOPIC_ATOM_COUNT>  (1) 
0

>  <PUBCHEM_COMPONENT_COUNT>  (1) 
1

>  <PUBCHEM_CACTVS_TAUTO_COUNT>  (1) 
13

>  <PUBCHEM_CONFORMER_ID>  (1) 
0000A51B00000001

>  <PUBCHEM_MMFF94_ENERGY>  (1) 
83.0199

>  <PUBCHEM_FEATURE_SELFOVERLAP>  (1) 
35.68

>  <PUBCHEM_SHAPE_FINGERPRINT>  (1) 
10411042 1 17906453221408687110
10616163 171 18411702127316487719
10967382 1 18410573959761436000
1100329 8 18339640165475758634
11471102 20 18410853256920741348
11578080 2 16879898647952190207
12011746 2 18410296904342990014
12107183 9 17692535507498631833
12236239 1 17775003479671140201
12403259 226 18339075007730305681
12592029 89 18409451379563724266
12838862 33 18339060667177337200
13140716 1 18194120956432172666
138480 1 18122624947023306442
13862211 1 18410289173476047762
14341114 176 18410863152831346433
14790565 3 18337117881692075588
15196674 1 18410855485934895334
15442244 35 18267585697752048505
15536298 74 18341895173176359180
1601671 61 18410856542866193224
16945 1 18050286161549823238
17492 89 18411700989156046135
1813 80 17240205417266509740
19591789 44 18339079401286306886
200 152 18131347514542188961
20028762 73 18129658733027791559
20645477 70 18342458101681584454
20905425 154 18196373611429665940
21267235 1 18411427180468390910
21279426 13 18266741268843480164
21421861 104 17825102602225745258
221490 88 18336553797355117467
23227448 37 18341893030130610423
2334 1 18410855451780976226
23402539 116 18343013419541261886
23558518 356 17684644720731649330
23559900 14 18412257371866536520
2748010 2 18410577305762544734
3004659 81 18260833666567672702
335352 9 18410855430084529135
33824 294 18409446969006805322
34934 24 18338793425136410247
350125 39 18410295847522981309
3545911 37 18410293610055756821
3680242 22 18262516966628726650
4214541 1 18410856538450179461
4280585 95 17623580744155340774
474 4 18040721389266292724
5104073 3 18410573985167289346
59755656 215 18409167688410204055
6138700 20 18338239254956303374
7364860 26 18412825767785267206
9709674 26 18410017645206050035
9981440 41 17400357244516849488

>  <PUBCHEM_SHAPE_MULTIPOLES>  (1) 
441.01
9.36
2.73
0.61
4.01
0.24
0
-0.48
0
-0.74
0
-0.04
-0.01
0

>  <PUBCHEM_SHAPE_SELFOVERLAP>  (1) 
1039.721

>  <PUBCHEM_SHAPE_VOLUME>  (1) 
222.9

>  <PUBCHEM_COORDINATE_TYPE>  (1) 
2
5
10

$$$$
