4226
     RDKit          3D

 21 23  0  0  0  0  0  0  0  0999 V2000
    3.2183   -1.4953   -0.1148 O   0  0  0  0  0  0  0  0  0  0  0  0
   -4.4169   -2.0310    0.4467 O   0  0  0  0  0  0  0  0  0  0  0  0
   -4.0706    3.2396    0.8183 O   0  0  0  0  0  0  0  0  0  0  0  0
   -4.2334    2.3774   -1.2793 O   0  0  0  0  0  0  0  0  0  0  0  0
   -3.0416   -2.2624    0.4888 N   0  0  0  0  0  0  0  0  0  0  0  0
    1.2943   -0.3118   -0.0084 C   0  0  0  0  0  0  0  0  0  0  0  0
    2.3873    0.6022    0.0401 C   0  0  0  0  0  0  0  0  0  0  0  0
    1.8589   -1.5800   -0.1029 C   0  0  0  0  0  0  0  0  0  0  0  0
   -0.8765   -1.3746   -0.0531 C   0  0  0  0  0  0  0  0  0  0  0  0
   -0.1085   -0.2045    0.0175 C   0  0  0  0  0  0  0  0  0  0  0  0
    3.5397   -0.1745   -0.0285 C   0  0  0  0  0  0  0  0  0  0  0  0
   -2.3281   -1.2789   -0.0280 C   0  0  0  0  0  0  0  0  0  0  0  0
    1.1216   -2.7608   -0.1743 C   0  0  0  0  0  0  0  0  0  0  0  0
   -0.2697   -2.6291   -0.1470 C   0  0  0  0  0  0  0  0  0  0  0  0
   -3.0244   -0.0250   -0.6058 C   0  0  0  0  0  0  0  0  0  0  0  0
    2.5269    1.9992    0.1344 C   0  0  0  0  0  0  0  0  0  0  0  0
    4.8336    0.3432   -0.0101 C   0  0  0  0  0  0  0  0  0  0  0  0
   -3.2721    1.0224    0.4736 C   0  0  0  0  0  0  0  0  0  0  0  0
    3.8158    2.5488    0.1553 C   0  0  0  0  0  0  0  0  0  0  0  0
    4.9473    1.7333    0.0840 C   0  0  0  0  0  0  0  0  0  0  0  0
   -3.9020    2.2619   -0.1067 C   0  0  0  0  0  0  0  0  0  0  0  0
  1  8  1  0
  1 11  1  0
  2  5  1  0
  3 21  1  0
  4 21  2  0
  5 12  2  0
  6  7  1  0
  6  8  2  0
  6 10  1  0
  7 11  2  0
  7 16  1  0
  8 13  1  0
  9 10  2  0
  9 12  1  0
  9 14  1  0
 11 17  1  0
 12 15  1  0
 13 14  2  0
 15 18  1  0
 16 19  2  0
 17 20  2  0
 18 21  1  0
 19 20  1  0
M  END
>  <PUBCHEM_COMPOUND_CID>  (1) 
4226

>  <PUBCHEM_CONFORMER_RMSD>  (1) 
0.6

>  <PUBCHEM_CONFORMER_DIVERSEORDER>  (1) 
1
36
40
8
6
7
43
22
4
29
16
10
34
13
5
15
12
42
39
11
19
2
24
20
14
26
35
28
3
18
27
33
17
9
37
38
21
32
41
44
23
25
31
30

>  <PUBCHEM_MMFF94_PARTIAL_CHARGES>  (1) 
28
1 -0.28
10 -0.15
11 0.14
12 0.3
13 -0.15
14 -0.15
15 0.06
16 -0.15
17 -0.15
18 0.06
19 -0.15
2 -0.34
20 -0.15
21 0.66
22 0.15
23 0.15
24 0.15
27 0.15
28 0.15
3 -0.65
31 0.15
32 0.15
33 0.4
34 0.5
4 -0.57
5 -0.51
8 0.14
9 0.09

>  <PUBCHEM_EFFECTIVE_ROTOR_COUNT>  (1) 
4

>  <PUBCHEM_PHARMACOPHORE_FEATURES>  (1) 
9
1 1 acceptor
1 2 anion
1 3 acceptor
1 4 acceptor
1 5 acceptor
3 3 4 21 anion
5 1 6 7 8 11 rings
6 6 8 9 10 13 14 rings
6 7 11 16 17 19 20 rings

>  <PUBCHEM_HEAVY_ATOM_COUNT>  (1) 
21

>  <PUBCHEM_ATOM_DEF_STEREO_COUNT>  (1) 
0

>  <PUBCHEM_ATOM_UDEF_STEREO_COUNT>  (1) 
0

>  <PUBCHEM_BOND_DEF_STEREO_COUNT>  (1) 
0

>  <PUBCHEM_BOND_UDEF_STEREO_COUNT>  (1) 
1

>  <PUBCHEM_ISOTOPIC_ATOM_COUNT>  (1) 
0

>  <PUBCHEM_COMPONENT_COUNT>  (1) 
1

>  <PUBCHEM_CACTVS_TAUTO_COUNT>  (1) 
2

>  <PUBCHEM_CONFORMER_ID>  (1) 
0000108200000001

>  <PUBCHEM_MMFF94_ENERGY>  (1) 
49.4917

>  <PUBCHEM_FEATURE_SELFOVERLAP>  (1) 
45.931

>  <PUBCHEM_SHAPE_FINGERPRINT>  (1) 
10498660 4 18411419496750916309
10608611 8 18410292527386511567
10646746 165 18410857676711205220
10670039 82 18189911974978103276
12107183 9 18118956997655005538
12173636 292 18195805387103775294
12390115 104 18340784700908354716
12403259 415 18200875192433262240
12403260 363 18337942502142480942
12633257 1 18116137879594707666
12769317 202 18268700636987176400
13140716 1 18335979766407138994
13464514 151 18340208492517432758
13965767 371 17823131224873927837
14466204 15 18411128156904233768
14508225 48 17119716809821229702
14790565 3 18263651830681461524
14848178 96 18339917126020452008
15196674 1 18410856572978391594
1601671 61 18335985294663077732
16760501 71 18339934714697519617
17834072 32 18411420566377075601
18186145 218 18201452380044974874
20510252 161 18341054133049916803
21279426 13 18341902857806554790
21421861 104 17750784460148222882
21864079 5 18411695495622939806
221357 26 18200595916004741341
22182937 141 18411141312262375985
23227448 37 18411136914173576061
23558518 356 18259991504357753755
23559900 14 18199749155293375938
23845131 108 18116439138140226451
283562 15 18336542832936983851
335352 9 18339079281765818222
350125 39 18338803424099863241
474 4 18267861696988503885
5104073 3 18334010579894702098
633830 44 18342736278371325430
9981440 41 18409160034894969275

>  <PUBCHEM_SHAPE_MULTIPOLES>  (1) 
403.71
10.14
3.69
0.73
0.3
0.83
0.06
7.11
-0.19
2.59
-0.14
0.47
0.2
0.51

>  <PUBCHEM_SHAPE_SELFOVERLAP>  (1) 
888.856

>  <PUBCHEM_SHAPE_VOLUME>  (1) 
219.6

>  <PUBCHEM_COORDINATE_TYPE>  (1) 
2
5
10

$$$$
