42285
     RDKit          3D

 29 32  0  0  1  0  0  0  0  0999 V2000
   -0.2555   -0.2148   -0.3698 O   0  0  0  0  0  0  0  0  0  0  0  0
    0.1496   -2.9934   -1.0607 O   0  0  0  0  0  0  0  0  0  0  0  0
   -4.3990    2.0312   -0.9820 O   0  0  0  0  0  0  0  0  0  0  0  0
   -2.1757   -3.6411    0.8265 O   0  0  0  0  0  0  0  0  0  0  0  0
   -4.4670   -2.4319    0.6058 O   0  0  0  0  0  0  0  0  0  0  0  0
    4.3521   -0.3355   -2.2669 O   0  0  0  0  0  0  0  0  0  0  0  0
    6.0159   -0.7300   -0.0762 O   0  0  0  0  0  0  0  0  0  0  0  0
   -0.4249    2.4104   -0.2958 N   0  0  0  0  0  0  0  0  0  0  0  0
   -0.8685    2.6769    1.0798 C   0  0  0  0  0  0  0  0  0  0  0  0
    0.3253    3.5500   -0.8421 C   0  0  0  0  0  0  0  0  0  0  0  0
    0.3212    2.9610    1.9982 C   0  0  0  0  0  0  0  0  0  0  0  0
    1.5539    3.8627    0.0134 C   0  0  0  0  0  0  0  0  0  0  0  0
    1.1689    4.1114    1.4674 C   0  0  0  0  0  0  0  0  0  0  0  0
   -1.5692    2.0945   -1.1502 C   0  0  0  0  0  0  0  0  0  0  0  0
   -2.3140    0.8872   -0.6748 C   0  0  0  0  0  0  0  0  0  0  0  0
   -1.6230   -0.2607   -0.2845 C   0  0  0  0  0  0  0  0  0  0  0  0
    0.3945   -1.1462    0.5094 C   0  0  0  0  0  0  0  0  0  0  0  0
   -0.0962   -2.5771    0.2722 C   0  0  0  0  0  0  0  0  0  0  0  0
   -2.3324   -1.3892    0.1362 C   0  0  0  0  0  0  0  0  0  0  0  0
   -1.5920   -2.6249    0.4680 C   0  0  0  0  0  0  0  0  0  0  0  0
   -3.7074    0.9158   -0.6139 C   0  0  0  0  0  0  0  0  0  0  0  0
    1.8989   -1.0341    0.3494 C   0  0  0  0  0  0  0  0  0  0  0  0
   -3.7280   -1.3622    0.1995 C   0  0  0  0  0  0  0  0  0  0  0  0
   -4.4123   -0.2047   -0.1731 C   0  0  0  0  0  0  0  0  0  0  0  0
    2.4452   -0.7332   -0.8972 C   0  0  0  0  0  0  0  0  0  0  0  0
    2.7322   -1.2326    1.4491 C   0  0  0  0  0  0  0  0  0  0  0  0
    3.8286   -0.6307   -1.0446 C   0  0  0  0  0  0  0  0  0  0  0  0
    4.1154   -1.1300    1.3019 C   0  0  0  0  0  0  0  0  0  0  0  0
    4.6636   -0.8289    0.0551 C   0  0  0  0  0  0  0  0  0  0  0  0
  1 16  1  0
  1 17  1  0
  2 18  1  0
  3 21  1  0
  4 20  2  0
  5 23  1  0
  6 27  1  0
  7 29  1  0
  8  9  1  0
  8 10  1  0
  8 14  1  0
  9 11  1  0
 10 12  1  0
 11 13  1  0
 12 13  1  0
 14 15  1  0
 15 16  1  0
 15 21  2  0
 16 19  2  0
 17 18  1  0
 17 22  1  0
 18 20  1  0
 19 20  1  0
 19 23  1  0
 21 24  1  0
 22 25  2  0
 22 26  1  0
 23 24  2  0
 25 27  1  0
 26 28  2  0
 27 29  2  0
 28 29  1  0
M  END
>  <PUBCHEM_COMPOUND_CID>  (1) 
42285

>  <PUBCHEM_CONFORMER_RMSD>  (1) 
0.8

>  <PUBCHEM_CONFORMER_DIVERSEORDER>  (1) 
7
31
34
42
6
19
43
65
78
38
49
9
30
16
25
47
41
70
10
60
36
5
48
23
33
14
67
68
18
32
35
4
39
28
51
37
71
46
1
53
17
61
24
11
80
55
50
52
40
64
20
62
12
3
44
15
26
8
45
2
63
79
29
27
72
77
13
66
21
69
75
76
73
59
22
74
54
57
56
58

>  <PUBCHEM_MMFF94_PARTIAL_CHARGES>  (1) 
35
1 -0.36
10 0.27
14 0.41
15 -0.14
16 0.08
17 0.42
18 0.34
19 0.09
2 -0.68
20 0.42
21 0.08
22 -0.14
23 0.08
24 -0.15
25 -0.15
26 -0.15
27 0.08
28 -0.15
29 0.08
3 -0.53
4 -0.57
44 0.15
45 0.15
46 0.15
47 0.4
48 0.45
49 0.15
5 -0.53
50 0.45
51 0.45
52 0.45
6 -0.53
7 -0.53
8 -0.81
9 0.27

>  <PUBCHEM_EFFECTIVE_ROTOR_COUNT>  (1) 
4.8

>  <PUBCHEM_PHARMACOPHORE_FEATURES>  (1) 
13
1 1 acceptor
1 2 acceptor
1 2 donor
1 3 donor
1 4 acceptor
1 5 donor
1 6 donor
1 7 donor
1 8 cation
6 1 16 17 18 19 20 rings
6 15 16 19 21 23 24 rings
6 22 25 26 27 28 29 rings
6 8 9 10 11 12 13 rings

>  <PUBCHEM_HEAVY_ATOM_COUNT>  (1) 
29

>  <PUBCHEM_ATOM_DEF_STEREO_COUNT>  (1) 
0

>  <PUBCHEM_ATOM_UDEF_STEREO_COUNT>  (1) 
2

>  <PUBCHEM_BOND_DEF_STEREO_COUNT>  (1) 
0

>  <PUBCHEM_BOND_UDEF_STEREO_COUNT>  (1) 
0

>  <PUBCHEM_ISOTOPIC_ATOM_COUNT>  (1) 
0

>  <PUBCHEM_COMPONENT_COUNT>  (1) 
1

>  <PUBCHEM_CACTVS_TAUTO_COUNT>  (1) 
998

>  <PUBCHEM_CONFORMER_ID>  (1) 
0000A52D00000007

>  <PUBCHEM_MMFF94_ENERGY>  (1) 
72.6493

>  <PUBCHEM_FEATURE_SELFOVERLAP>  (1) 
66.01

>  <PUBCHEM_SHAPE_FINGERPRINT>  (1) 
10006869 2 17550667717365013521
10498660 4 18337955580280785742
10675989 125 16964621362492681117
1100329 8 18411986840983519337
11112241 14 16842169173113461064
11578080 2 17243262145416973343
11680986 33 17975412731192292747
12156800 1 16157036934916333652
12236239 1 17676487233728423078
12422481 6 17910076396043103032
12741549 16 17703788141241214914
12788726 201 18268427928260055376
13009979 54 17898841362839271426
13140716 1 18337391664576966355
13149001 5 18339062887232012525
13402501 40 18271794740528742264
14790565 3 18048883992025260501
14955137 171 18269299935691786395
17818456 19 18046613522173109402
19319366 153 17676200247865567386
20510252 161 18265893562289464234
20600515 1 18268444463673590541
20642791 105 17898553290122770132
20642791 178 18260559891866723405
20642791 239 18115890609964915644
20715895 44 17030483263962851885
20775438 99 17477442823856334047
20905425 154 17978800330216183356
21033648 29 17703776029428327434
22182313 1 17971735921575303191
23557571 272 18342460305664386854
23559900 14 18190455155249223261
3178227 256 18335995164883169433
350125 39 18335144211428420477
4112364 45 11751102411985038111
469060 322 18267033764353273553
57527358 35 15287603462402257373
6823239 73 18339355370457965920
81228 2 18056489352286785864

>  <PUBCHEM_SHAPE_MULTIPOLES>  (1) 
550.74
8.51
5.02
1.44
4.64
4.14
0.03
-4.3
-1.49
-1.02
1.43
1.05
0.6
1.07

>  <PUBCHEM_SHAPE_SELFOVERLAP>  (1) 
1209.054

>  <PUBCHEM_SHAPE_VOLUME>  (1) 
295.6

>  <PUBCHEM_COORDINATE_TYPE>  (1) 
2
5
10

$$$$
