42283
     RDKit          3D

 28 30  0  0  1  0  0  0  0  0999 V2000
    0.0321   -0.0573   -0.1791 O   0  0  0  0  0  0  0  0  0  0  0  0
    1.7567   -3.2159    0.6036 O   0  0  0  0  0  0  0  0  0  0  0  0
   -0.8357   -3.9795    0.6606 O   0  0  0  0  0  0  0  0  0  0  0  0
   -4.5258    0.8630   -1.1478 O   0  0  0  0  0  0  0  0  0  0  0  0
   -3.3458   -3.5343    0.1595 O   0  0  0  0  0  0  0  0  0  0  0  0
    5.4857    0.2286   -1.8580 O   0  0  0  0  0  0  0  0  0  0  0  0
    6.0462    1.4325    0.5831 O   0  0  0  0  0  0  0  0  0  0  0  0
   -1.9294    2.6517    0.2516 N   0  0  0  0  0  0  0  0  0  0  0  0
    1.0387   -1.0782   -0.2665 C   0  0  0  0  0  0  0  0  0  0  0  0
    0.7860   -2.1940    0.7489 C   0  0  0  0  0  0  0  0  0  0  0  0
   -1.2490   -0.5321   -0.2707 C   0  0  0  0  0  0  0  0  0  0  0  0
   -2.2288    0.3871   -0.6498 C   0  0  0  0  0  0  0  0  0  0  0  0
   -1.6107   -1.8503    0.0168 C   0  0  0  0  0  0  0  0  0  0  0  0
   -1.8615    1.8081   -0.9407 C   0  0  0  0  0  0  0  0  0  0  0  0
   -0.5764   -2.7955    0.4811 C   0  0  0  0  0  0  0  0  0  0  0  0
    2.3804   -0.4066   -0.0421 C   0  0  0  0  0  0  0  0  0  0  0  0
   -3.5581   -0.0192   -0.7699 C   0  0  0  0  0  0  0  0  0  0  0  0
   -2.9408   -2.2610   -0.1065 C   0  0  0  0  0  0  0  0  0  0  0  0
   -3.2843    2.6506    0.8023 C   0  0  0  0  0  0  0  0  0  0  0  0
   -1.5068    4.0163   -0.0628 C   0  0  0  0  0  0  0  0  0  0  0  0
   -3.9122   -1.3417   -0.5032 C   0  0  0  0  0  0  0  0  0  0  0  0
    3.3300   -0.3952   -1.0616 C   0  0  0  0  0  0  0  0  0  0  0  0
    2.6591    0.1960    1.1829 C   0  0  0  0  0  0  0  0  0  0  0  0
   -3.3733    3.5232    2.0429 C   0  0  0  0  0  0  0  0  0  0  0  0
   -0.0782    4.0433   -0.5790 C   0  0  0  0  0  0  0  0  0  0  0  0
    4.5640    0.2217   -0.8551 C   0  0  0  0  0  0  0  0  0  0  0  0
    3.8928    0.8129    1.3893 C   0  0  0  0  0  0  0  0  0  0  0  0
    4.8453    0.8259    0.3703 C   0  0  0  0  0  0  0  0  0  0  0  0
  1  9  1  0
  1 11  1  0
  2 10  1  0
  3 15  2  0
  4 17  1  0
  5 18  1  0
  6 26  1  0
  7 28  1  0
  8 14  1  0
  8 19  1  0
  8 20  1  0
  9 10  1  0
  9 16  1  0
 10 15  1  0
 11 12  2  0
 11 13  1  0
 12 14  1  0
 12 17  1  0
 13 15  1  0
 13 18  2  0
 16 22  2  0
 16 23  1  0
 17 21  2  0
 18 21  1  0
 19 24  1  0
 20 25  1  0
 22 26  1  0
 23 27  2  0
 26 28  2  0
 27 28  1  0
M  END
>  <PUBCHEM_COMPOUND_CID>  (1) 
42283

>  <PUBCHEM_CONFORMER_RMSD>  (1) 
0.8

>  <PUBCHEM_CONFORMER_DIVERSEORDER>  (1) 
4
37
14
53
43
65
36
5
62
26
38
66
23
57
30
1
40
12
54
49
25
61
11
33
13
34
6
35
50
68
28
2
45
41
21
39
48
44
58
46
29
19
32
27
15
42
55
52
10
67
22
18
9
7
47
51
60
63
20
56
69
31
3
64
16
8
59
17
24

>  <PUBCHEM_MMFF94_PARTIAL_CHARGES>  (1) 
35
1 -0.36
10 0.34
11 0.08
12 -0.14
13 0.09
14 0.41
15 0.42
16 -0.14
17 0.08
18 0.08
19 0.27
2 -0.68
20 0.27
21 -0.15
22 -0.15
23 -0.15
26 0.08
27 -0.15
28 0.08
3 -0.57
37 0.15
38 0.15
39 0.15
4 -0.53
40 0.4
47 0.15
48 0.45
49 0.45
5 -0.53
50 0.45
51 0.45
6 -0.53
7 -0.53
8 -0.81
9 0.42

>  <PUBCHEM_EFFECTIVE_ROTOR_COUNT>  (1) 
5.6

>  <PUBCHEM_PHARMACOPHORE_FEATURES>  (1) 
12
1 1 acceptor
1 2 acceptor
1 2 donor
1 3 acceptor
1 4 donor
1 5 donor
1 6 donor
1 7 donor
1 8 cation
6 1 9 10 11 13 15 rings
6 11 12 13 17 18 21 rings
6 16 22 23 26 27 28 rings

>  <PUBCHEM_HEAVY_ATOM_COUNT>  (1) 
28

>  <PUBCHEM_ATOM_DEF_STEREO_COUNT>  (1) 
0

>  <PUBCHEM_ATOM_UDEF_STEREO_COUNT>  (1) 
2

>  <PUBCHEM_BOND_DEF_STEREO_COUNT>  (1) 
0

>  <PUBCHEM_BOND_UDEF_STEREO_COUNT>  (1) 
0

>  <PUBCHEM_ISOTOPIC_ATOM_COUNT>  (1) 
0

>  <PUBCHEM_COMPONENT_COUNT>  (1) 
1

>  <PUBCHEM_CACTVS_TAUTO_COUNT>  (1) 
998

>  <PUBCHEM_CONFORMER_ID>  (1) 
0000A52B00000004

>  <PUBCHEM_MMFF94_ENERGY>  (1) 
75.9218

>  <PUBCHEM_FEATURE_SELFOVERLAP>  (1) 
60.938

>  <PUBCHEM_SHAPE_FINGERPRINT>  (1) 
10006869 2 18267299842758288323
10165383 225 18124332509882142288
10411042 1 17469602274826115722
10498660 4 18408597067692762100
10670039 82 18335989684114438260
10871710 139 18339924801744188717
10937287 8 18051131385091392305
1100329 8 18337393872100452949
11115154 58 17630582701205369717
11578080 2 15338020589416499229
11646440 116 18266748059588240851
12236239 1 17168411788372725314
12390115 104 18339372884901763433
12788726 201 18118134790474514190
13140716 1 17974856382350573427
13402501 40 18199455748760432392
13965767 371 17608083174816041052
140371 6 18340212993711672581
14790565 3 18124033425903677161
14955137 171 18048614899586795155
15021287 119 17168136794744010736
151778 21 17691694385108842945
15961568 22 18050000288828327820
17818456 19 18189598489736592850
20510252 161 18410569612948856867
21033648 29 17774714385269693570
21133410 230 15152523455757319656
23557571 272 18267862968404143202
23559900 14 18122338249022972444
23845131 108 18121791530473929089
283562 15 18411414038280116811
350125 39 17976817584676588855
469060 322 18335154106605848777
5048184 11 18194966236077211705
5252454 2 18054232033435331368
7808743 9 18337962199210926332
9981440 41 18260542299406002331

>  <PUBCHEM_SHAPE_MULTIPOLES>  (1) 
530.16
9.7
5.11
1.28
11.79
1.21
0.15
3.59
-1.01
-5.44
1.43
0.34
0.67
-0.72

>  <PUBCHEM_SHAPE_SELFOVERLAP>  (1) 
1149.441

>  <PUBCHEM_SHAPE_VOLUME>  (1) 
289.8

>  <PUBCHEM_COORDINATE_TYPE>  (1) 
2
5
10

$$$$
