42298
     RDKit          3D

 22 22  0  0  1  0  0  0  0  0999 V2000
    3.0956   -1.6906   -0.8684 O   0  0  0  0  0  0  0  0  0  0  0  0
   -0.3328    1.3381   -0.0276 O   0  0  0  0  0  0  0  0  0  0  0  0
   -0.0010   -1.1630    1.6908 O   0  0  0  0  0  0  0  0  0  0  0  0
   -2.2297    2.2371    0.9042 O   0  0  0  0  0  0  0  0  0  0  0  0
   -0.1476   -2.6790   -0.0283 O   0  0  0  0  0  0  0  0  0  0  0  0
    2.3880    1.8355   -0.3008 N   0  0  0  0  0  0  0  0  0  0  0  0
   -2.2549    1.2897   -1.2133 N   0  0  0  0  0  0  0  0  0  0  0  0
   -2.0420   -1.7329    0.9194 N   0  0  0  0  0  0  0  0  0  0  0  0
    1.8478    1.2236    0.9416 C   0  0  0  0  0  0  0  0  0  0  0  0
    1.9860   -0.2615    0.7291 C   0  0  0  0  0  0  0  0  0  0  0  0
    3.1638    0.7894   -0.9986 C   0  0  0  0  0  0  0  0  0  0  0  0
    2.7247   -0.4807   -0.3621 C   0  0  0  0  0  0  0  0  0  0  0  0
    0.4028    1.6754    1.1340 C   0  0  0  0  0  0  0  0  0  0  0  0
    1.4151   -1.2664    1.6634 C   0  0  0  0  0  0  0  0  0  0  0  0
    3.1745    3.0358   -0.0493 C   0  0  0  0  0  0  0  0  0  0  0  0
    2.6084   -1.8711   -2.1902 C   0  0  0  0  0  0  0  0  0  0  0  0
   -1.6646    1.6745   -0.0279 C   0  0  0  0  0  0  0  0  0  0  0  0
   -0.6842   -1.9306    0.7821 C   0  0  0  0  0  0  0  0  0  0  0  0
   -3.6502    1.5037   -1.5209 C   0  0  0  0  0  0  0  0  0  0  0  0
   -3.0353   -2.3972    0.1075 C   0  0  0  0  0  0  0  0  0  0  0  0
   -4.3692    2.1980   -0.3829 C   0  0  0  0  0  0  0  0  0  0  0  0
   -2.3951   -3.3278   -0.9017 C   0  0  0  0  0  0  0  0  0  0  0  0
  1 12  1  0
  1 16  1  0
  2 13  1  0
  2 17  1  0
  3 14  1  0
  3 18  1  0
  4 17  2  0
  5 18  2  0
  6  9  1  0
  6 11  1  0
  6 15  1  0
  7 17  1  0
  7 19  1  0
  8 18  1  0
  8 20  1  0
  9 10  1  0
  9 13  1  0
 10 12  2  0
 10 14  1  0
 11 12  1  0
 19 21  1  0
 20 22  1  0
M  END
>  <PUBCHEM_COMPOUND_CID>  (1) 
42298

>  <PUBCHEM_CONFORMER_RMSD>  (1) 
1

>  <PUBCHEM_CONFORMER_DIVERSEORDER>  (1) 
5
75
127
84
2
35
134
9
156
116
159
79
1
47
149
147
153
123
141
124
90
43
92
111
174
113
163
52
95
89
22
18
64
109
40
12
169
82
158
45
81
142
157
164
118
60
105
11
171
37
83
100
68
96
97
55
3
69
143
152
6
117
19
33
21
173
112
114
26
128
155
94
36
98
136
175
167
4
71
103
172
29
74
115
28
88
144
78
140
148
121
165
129
32
119
125
150
63
77
59
110
139
151
61
58
126
107
91
122
168
56
49
15
99
53
104
85
80
25
14
138
133
130
102
57
146
17
50
10
62
101
76
46
131
51
42
73
108
31
54
66
27
86
93
160
16
137
162
87
48
106
41
39
170
161
120
132
34
44
70
20
145
166
67
135
154
38
72
30
7
8
13
23
65
24

>  <PUBCHEM_MMFF94_PARTIAL_CHARGES>  (1) 
22
1 -0.36
10 -0.28
11 0.41
12 -0.06
13 0.28
14 0.42
15 0.27
16 0.28
17 0.78
18 0.78
19 0.3
2 -0.43
20 0.3
3 -0.43
36 0.37
37 0.37
4 -0.57
5 -0.57
6 -0.81
7 -0.73
8 -0.73
9 0.41

>  <PUBCHEM_EFFECTIVE_ROTOR_COUNT>  (1) 
11.6

>  <PUBCHEM_PHARMACOPHORE_FEATURES>  (1) 
7
1 1 acceptor
1 4 acceptor
1 5 acceptor
1 6 cation
1 7 donor
1 8 donor
5 6 9 10 11 12 rings

>  <PUBCHEM_HEAVY_ATOM_COUNT>  (1) 
22

>  <PUBCHEM_ATOM_DEF_STEREO_COUNT>  (1) 
0

>  <PUBCHEM_ATOM_UDEF_STEREO_COUNT>  (1) 
1

>  <PUBCHEM_BOND_DEF_STEREO_COUNT>  (1) 
0

>  <PUBCHEM_BOND_UDEF_STEREO_COUNT>  (1) 
0

>  <PUBCHEM_ISOTOPIC_ATOM_COUNT>  (1) 
0

>  <PUBCHEM_COMPONENT_COUNT>  (1) 
1

>  <PUBCHEM_CACTVS_TAUTO_COUNT>  (1) 
4

>  <PUBCHEM_CONFORMER_ID>  (1) 
0000A53A00000005

>  <PUBCHEM_MMFF94_ENERGY>  (1) 
49.6258

>  <PUBCHEM_FEATURE_SELFOVERLAP>  (1) 
35.522

>  <PUBCHEM_SHAPE_FINGERPRINT>  (1) 
104564 63 18190455159359613179
10498660 4 18043237132369659391
108634 29 18338780317307939567
13149001 5 18265350438295276508
13836976 161 18116703016008450269
13965767 371 13775728897600958646
14251757 17 18341340993767962431
15210252 30 17316740382014742685
16945 1 18191589644721646248
17357779 13 17977657938009424783
17492 54 17901401003805974358
17980427 23 18051090879570984544
18186145 218 18264199223772661213
20905425 154 18121487214011863722
21285901 2 18194684997808908239
21304303 94 18269834212258644111
23419403 2 16675346561335523250
23557571 272 18199731687012478794
23558518 356 18115870874252248660
23559900 14 18341608201585917936
23566358 2 18411142471381209028
238 59 18118113680847553689
2748010 2 18335430079302217440
3060560 45 18044371630315731964
59554788 191 18411136966087509054
633830 44 18268984294335099789
81228 2 18044103581485955569

>  <PUBCHEM_SHAPE_MULTIPOLES>  (1) 
408.46
6.44
4.06
1.6
2.73
0.85
-0.24
-2.49
-2.62
2.15
-0.53
-0.45
0.56
1

>  <PUBCHEM_SHAPE_SELFOVERLAP>  (1) 
817.202

>  <PUBCHEM_SHAPE_VOLUME>  (1) 
241.6

>  <PUBCHEM_COORDINATE_TYPE>  (1) 
2
5
10

$$$$
