42315
     RDKit          3D

 20 21  0  0  1  0  0  0  0  0999 V2000
    2.7039   -1.4328   -0.6824 O   0  0  0  0  0  0  0  0  0  0  0  0
   -0.3614   -2.9446    0.2243 O   0  0  0  0  0  0  0  0  0  0  0  0
    0.2351   -0.7068    0.4707 N   0  0  0  0  0  0  0  0  0  0  0  0
   -3.2736    0.4519   -0.0264 N   0  0  0  0  0  0  0  0  0  0  0  0
   -1.1049   -0.2734    0.8460 C   0  0  0  0  0  0  0  0  0  0  0  0
   -1.9268    0.0352   -0.4017 C   0  0  0  0  0  0  0  0  0  0  0  0
    1.2695    0.2572    0.2987 C   0  0  0  0  0  0  0  0  0  0  0  0
    1.9810   -2.3746    0.0927 C   0  0  0  0  0  0  0  0  0  0  0  0
    0.4928   -2.0588    0.2327 C   0  0  0  0  0  0  0  0  0  0  0  0
    2.4794   -0.1445   -0.2788 C   0  0  0  0  0  0  0  0  0  0  0  0
   -3.9489   -0.6065    0.7261 C   0  0  0  0  0  0  0  0  0  0  0  0
   -4.0523    0.8073   -1.2138 C   0  0  0  0  0  0  0  0  0  0  0  0
    1.1068    1.6086    0.6360 C   0  0  0  0  0  0  0  0  0  0  0  0
    2.1973   -3.7442   -0.5410 C   0  0  0  0  0  0  0  0  0  0  0  0
    2.1325    2.5286    0.3998 C   0  0  0  0  0  0  0  0  0  0  0  0
    3.4970    0.7777   -0.5354 C   0  0  0  0  0  0  0  0  0  0  0  0
   -5.3291   -0.1623    1.1802 C   0  0  0  0  0  0  0  0  0  0  0  0
   -3.3685    1.9055   -2.0103 C   0  0  0  0  0  0  0  0  0  0  0  0
    3.3250    2.1144   -0.1876 C   0  0  0  0  0  0  0  0  0  0  0  0
    1.9451    3.9618    0.7701 C   0  0  0  0  0  0  0  0  0  0  0  0
  1  8  1  0
  1 10  1  0
  2  9  2  0
  3  5  1  0
  3  7  1  0
  3  9  1  0
  4  6  1  0
  4 11  1  0
  4 12  1  0
  5  6  1  0
  7 10  2  0
  7 13  1  0
  8  9  1  0
  8 14  1  0
 10 16  1  0
 11 17  1  0
 12 18  1  0
 13 15  2  0
 15 19  1  0
 15 20  1  0
 16 19  2  0
M  END
>  <PUBCHEM_COMPOUND_CID>  (1) 
42315

>  <PUBCHEM_CONFORMER_RMSD>  (1) 
0.8

>  <PUBCHEM_CONFORMER_DIVERSEORDER>  (1) 
4
9
21
16
23
12
27
28
10
24
19
20
13
8
25
18
1
11
17
22
3
26
5
2
15
14
7
6

>  <PUBCHEM_MMFF94_PARTIAL_CHARGES>  (1) 
20
1 -0.36
10 0.08
11 0.27
12 0.27
13 -0.15
15 -0.14
16 -0.15
19 -0.15
2 -0.57
20 0.14
3 -0.48
30 0.15
34 0.15
4 -0.81
41 0.15
5 0.3
6 0.27
7 0.12
8 0.34
9 0.57

>  <PUBCHEM_EFFECTIVE_ROTOR_COUNT>  (1) 
5.6

>  <PUBCHEM_PHARMACOPHORE_FEATURES>  (1) 
5
1 1 acceptor
1 2 acceptor
1 4 cation
6 1 3 7 8 9 10 rings
6 7 10 13 15 16 19 rings

>  <PUBCHEM_HEAVY_ATOM_COUNT>  (1) 
20

>  <PUBCHEM_ATOM_DEF_STEREO_COUNT>  (1) 
0

>  <PUBCHEM_ATOM_UDEF_STEREO_COUNT>  (1) 
1

>  <PUBCHEM_BOND_DEF_STEREO_COUNT>  (1) 
0

>  <PUBCHEM_BOND_UDEF_STEREO_COUNT>  (1) 
0

>  <PUBCHEM_ISOTOPIC_ATOM_COUNT>  (1) 
0

>  <PUBCHEM_COMPONENT_COUNT>  (1) 
1

>  <PUBCHEM_CACTVS_TAUTO_COUNT>  (1) 
1

>  <PUBCHEM_CONFORMER_ID>  (1) 
0000A54B00000004

>  <PUBCHEM_MMFF94_ENERGY>  (1) 
50.9513

>  <PUBCHEM_FEATURE_SELFOVERLAP>  (1) 
25.404

>  <PUBCHEM_SHAPE_FINGERPRINT>  (1) 
10165383 225 18192165981840540508
10411042 1 17979646640811823810
10608611 8 18260263023773910221
10693767 8 17988372464211544126
10764073 3 16749807675160491304
116883 192 17406549208651164230
12553582 1 17690002232566239451
12654215 9 18335413522440447028
12730499 353 18337684112799434043
12769317 202 18411411825918317561
12788726 201 16969409722303072931
13009979 54 17415008954057747370
13134695 92 18196921185062557630
13140716 1 18195807594785225464
13583140 156 16662862955458975385
14178000 15 18124308316383598126
15502722 9 18411417293601297095
16945 1 18341347647051930186
17134986 127 18267018539026251512
1813 80 17557156003435196606
18186145 218 18343301513104955297
20645477 70 18340197489080337071
21041028 32 18124882252525648641
21524375 3 18190458449061936410
21639500 275 18412822490878214185
221357 26 18120644739619552253
221490 88 18263930942724129807
2255824 54 18343867731470278250
22943178 12 18114179697157663023
23536364 44 18051710853704721572
23557571 272 17458348542135433269
23558518 356 17543065036602592944
238 59 18194371516598381381
25 1 18411984697462061240
266924 87 18195249902309786540
2748010 2 18051989305092909912
3060560 45 18341333374712062340
350125 39 17978802525271428106
3524813 1 18333731355254292893
474 4 18271249442442527641
5281201 14 18263646178108185519
6049 1 18114464453542252309
621550 34 18262238928000275097
6287921 2 18261121824054891637
633830 44 17987807431014035581
6442390 28 18050575332702162379
7364860 26 18411984641580202058
7399639 24 18263076794410058961
7471813 234 17984118388813092348
7808743 9 17754745153955202380
81228 2 17183053086227433586
8272917 22 18270976673606969427
90316 7 16394345972748160408

>  <PUBCHEM_SHAPE_MULTIPOLES>  (1) 
389.89
7.98
4.11
1.17
10.78
0.66
-0.36
-2.47
-0.38
-4.8
0.02
1.32
-0.52
1.71

>  <PUBCHEM_SHAPE_SELFOVERLAP>  (1) 
804.341

>  <PUBCHEM_SHAPE_VOLUME>  (1) 
225.7

>  <PUBCHEM_COORDINATE_TYPE>  (1) 
2
5
10

$$$$
