42321
     RDKit          3D

 23 25  0  0  1  0  0  0  0  0999 V2000
    4.3863    3.2788    0.1110 Cl  0  0  0  0  0  0  0  0  0  0  0  0
   -1.2033    1.5191   -0.1595 O   0  0  0  0  0  0  0  0  0  0  0  0
   -0.9400   -2.0015    0.3873 O   0  0  0  0  0  0  0  0  0  0  0  0
    0.7808   -0.4351    0.3430 N   0  0  0  0  0  0  0  0  0  0  0  0
    3.6527   -2.8111    0.0793 N   0  0  0  0  0  0  0  0  0  0  0  0
    1.7965   -1.3838    0.7846 C   0  0  0  0  0  0  0  0  0  0  0  0
   -1.4215    0.1725   -0.5457 C   0  0  0  0  0  0  0  0  0  0  0  0
    1.1314    0.9279    0.1268 C   0  0  0  0  0  0  0  0  0  0  0  0
   -0.5296   -0.8683    0.1344 C   0  0  0  0  0  0  0  0  0  0  0  0
    2.6265   -1.8875   -0.3869 C   0  0  0  0  0  0  0  0  0  0  0  0
    0.1194    1.8606   -0.1206 C   0  0  0  0  0  0  0  0  0  0  0  0
   -2.8667   -0.1017   -0.2824 C   0  0  0  0  0  0  0  0  0  0  0  0
    2.4559    1.3850    0.1980 C   0  0  0  0  0  0  0  0  0  0  0  0
    0.4131    3.2186   -0.2734 C   0  0  0  0  0  0  0  0  0  0  0  0
   -3.5877   -0.9193   -1.1504 C   0  0  0  0  0  0  0  0  0  0  0  0
   -3.4890    0.4604    0.8305 C   0  0  0  0  0  0  0  0  0  0  0  0
    2.7532    2.7398    0.0251 C   0  0  0  0  0  0  0  0  0  0  0  0
    1.7325    3.6566   -0.2078 C   0  0  0  0  0  0  0  0  0  0  0  0
    4.4798   -3.2708   -1.0380 C   0  0  0  0  0  0  0  0  0  0  0  0
    3.0459   -3.9542    0.7646 C   0  0  0  0  0  0  0  0  0  0  0  0
   -4.9366   -1.1757   -0.9046 C   0  0  0  0  0  0  0  0  0  0  0  0
   -4.8379    0.2039    1.0762 C   0  0  0  0  0  0  0  0  0  0  0  0
   -5.5617   -0.6141    0.2085 C   0  0  0  0  0  0  0  0  0  0  0  0
  1 17  1  0
  2  7  1  0
  2 11  1  0
  3  9  2  0
  4  6  1  0
  4  8  1  0
  4  9  1  0
  5 10  1  0
  5 19  1  0
  5 20  1  0
  6 10  1  0
  7  9  1  0
  7 12  1  0
  8 11  2  0
  8 13  1  0
 11 14  1  0
 12 15  2  0
 12 16  1  0
 13 17  2  0
 14 18  2  0
 15 21  1  0
 16 22  2  0
 17 18  1  0
 21 23  2  0
 22 23  1  0
M  END
>  <PUBCHEM_COMPOUND_CID>  (1) 
42321

>  <PUBCHEM_CONFORMER_RMSD>  (1) 
0.8

>  <PUBCHEM_CONFORMER_DIVERSEORDER>  (1) 
1
4
2
3

>  <PUBCHEM_MMFF94_PARTIAL_CHARGES>  (1) 
31
1 -0.18
10 0.27
11 0.08
12 -0.14
13 -0.15
14 -0.15
15 -0.15
16 -0.15
17 0.18
18 -0.15
19 0.27
2 -0.36
20 0.27
21 -0.15
22 -0.15
23 -0.15
29 0.15
3 -0.57
30 0.15
31 0.15
32 0.15
33 0.15
4 -0.48
40 0.15
41 0.15
42 0.15
5 -0.81
6 0.3
7 0.48
8 0.12
9 0.57

>  <PUBCHEM_EFFECTIVE_ROTOR_COUNT>  (1) 
4.6

>  <PUBCHEM_PHARMACOPHORE_FEATURES>  (1) 
6
1 2 acceptor
1 3 acceptor
1 5 cation
6 12 15 16 21 22 23 rings
6 2 4 7 8 9 11 rings
6 8 11 13 14 17 18 rings

>  <PUBCHEM_HEAVY_ATOM_COUNT>  (1) 
23

>  <PUBCHEM_ATOM_DEF_STEREO_COUNT>  (1) 
0

>  <PUBCHEM_ATOM_UDEF_STEREO_COUNT>  (1) 
1

>  <PUBCHEM_BOND_DEF_STEREO_COUNT>  (1) 
0

>  <PUBCHEM_BOND_UDEF_STEREO_COUNT>  (1) 
0

>  <PUBCHEM_ISOTOPIC_ATOM_COUNT>  (1) 
0

>  <PUBCHEM_COMPONENT_COUNT>  (1) 
1

>  <PUBCHEM_CACTVS_TAUTO_COUNT>  (1) 
1

>  <PUBCHEM_CONFORMER_ID>  (1) 
0000A55100000001

>  <PUBCHEM_MMFF94_ENERGY>  (1) 
68.9927

>  <PUBCHEM_FEATURE_SELFOVERLAP>  (1) 
30.478

>  <PUBCHEM_SHAPE_FINGERPRINT>  (1) 
10411042 1 18266177219299842050
10622 236 17915714631609770631
11045515 52 18043816368638315020
11680986 33 18262246624170453507
12107183 9 18126576617978885793
12236239 1 18059579161188135237
12553582 1 18265607680724326315
12788726 201 17901957339921807562
13009979 54 17916875620950118675
13140716 1 17978226385162789153
13533116 47 18271240621307662587
13692114 37 17691672803003669107
138480 1 18410009897321846730
13955234 65 18339924921427695177
14739800 52 17274813701160389449
14767858 380 18189918460705754774
14844126 61 17542777612732752578
14863182 85 18262799691763004708
15042514 8 17617660951690649722
15664445 248 18129116545420682070
15927050 60 18268433623228979966
17492 89 18412545449015284295
17818456 19 17702955708244790753
17980427 26 17414691448869805248
1813 80 18199193888350671310
18222031 100 18269261392518413983
20028762 73 17549828132066666519
20101258 96 18122071901169011258
20645477 70 18262784259887072135
20739085 24 18337127674011489801
20832881 197 18189055287810546755
21033648 144 17682942646424890981
21041028 32 18268434538146320833
21049683 271 18261689111930179934
21054139 6 17911509115069220167
22182313 1 17968079911731262189
22849341 161 18197517146324474619
22950370 63 18267028253994835895
23352939 185 18271536282270922514
23366157 5 18334015012137232198
23559900 14 18410567388525290051
23566358 27 18412263973405278951
25147074 1 17988925600580696991
2748010 2 18192408806475048172
3091708 16 9575444997617683618
335352 9 18120371210401332916
3421961 26 18410855442964162506
4409770 3 17397543108908453677
458136 41 18263652933749285733
474 4 18194118753552325573
5104073 3 18342470240250667499
532947 4 18338238266675644070
5385378 56 18339930423196853457
59755656 215 18337390542773311973
6669772 16 18268434714862251868
6700243 42 17268936593252890134
7364860 26 18410854395245395212
7970288 3 18265610983844821043
79837 15 17761208121883635122
8272917 22 18337953501722518173
9841814 1 18188198823897238850
9981440 41 17834949050932874041

>  <PUBCHEM_SHAPE_MULTIPOLES>  (1) 
453.5
9.91
4.92
0.93
9.81
0.73
-0.03
3.42
-0.3
-10.15
-0.12
0.43
0.36
-0.21

>  <PUBCHEM_SHAPE_SELFOVERLAP>  (1) 
965.833

>  <PUBCHEM_SHAPE_VOLUME>  (1) 
253.6

>  <PUBCHEM_COORDINATE_TYPE>  (1) 
2
5
10

$$$$
