42347
     RDKit          3D

 22 24  0  0  1  0  0  0  0  0999 V2000
   -0.3398   -4.4941   -0.2276 Cl  0  0  0  0  0  0  0  0  0  0  0  0
    3.2295    0.1445    0.1937 O   0  0  0  0  0  0  0  0  0  0  0  0
    0.9947    2.8304    0.7371 O   0  0  0  0  0  0  0  0  0  0  0  0
   -3.2533    0.8690   -0.0011 N   0  0  0  0  0  0  0  0  0  0  0  0
    0.4552    0.5841    0.4408 N   0  0  0  0  0  0  0  0  0  0  0  0
   -1.8678    0.7493   -0.4301 C   0  0  0  0  0  0  0  0  0  0  0  0
   -3.6497   -0.2027    0.9118 C   0  0  0  0  0  0  0  0  0  0  0  0
   -4.1933    0.7833   -1.1184 C   0  0  0  0  0  0  0  0  0  0  0  0
   -5.1682   -0.1067    0.9102 C   0  0  0  0  0  0  0  0  0  0  0  0
   -5.5256    0.5379   -0.4256 C   0  0  0  0  0  0  0  0  0  0  0  0
   -0.9475    0.7570    0.7972 C   0  0  0  0  0  0  0  0  0  0  0  0
   -1.5423    1.8543   -1.4323 C   0  0  0  0  0  0  0  0  0  0  0  0
    0.9650   -0.7205    0.1823 C   0  0  0  0  0  0  0  0  0  0  0  0
    2.6691    1.3791   -0.2215 C   0  0  0  0  0  0  0  0  0  0  0  0
    1.3087    1.6891    0.4006 C   0  0  0  0  0  0  0  0  0  0  0  0
    2.3489   -0.8954    0.0676 C   0  0  0  0  0  0  0  0  0  0  0  0
    3.6848    2.4691    0.1017 C   0  0  0  0  0  0  0  0  0  0  0  0
    0.1393   -1.8500    0.0902 C   0  0  0  0  0  0  0  0  0  0  0  0
    2.9024   -2.1654   -0.1129 C   0  0  0  0  0  0  0  0  0  0  0  0
    5.0296    2.1835   -0.5407 C   0  0  0  0  0  0  0  0  0  0  0  0
    0.6903   -3.1188   -0.1121 C   0  0  0  0  0  0  0  0  0  0  0  0
    2.0701   -3.2768   -0.2109 C   0  0  0  0  0  0  0  0  0  0  0  0
  1 21  1  0
  2 14  1  0
  2 16  1  0
  3 15  2  0
  4  6  1  0
  4  7  1  0
  4  8  1  0
  5 11  1  0
  5 13  1  0
  5 15  1  0
  6 11  1  0
  6 12  1  0
  7  9  1  0
  8 10  1  0
  9 10  1  0
 13 16  2  0
 13 18  1  0
 14 15  1  0
 14 17  1  0
 16 19  1  0
 17 20  1  0
 18 21  2  0
 19 22  2  0
 21 22  1  0
M  END
>  <PUBCHEM_COMPOUND_CID>  (1) 
42347

>  <PUBCHEM_CONFORMER_RMSD>  (1) 
0.8

>  <PUBCHEM_CONFORMER_DIVERSEORDER>  (1) 
1
24
15
25
12
22
16
17
10
9
7
11
20
19
21
14
4
18
23
5
6
13
2
3
8

>  <PUBCHEM_MMFF94_PARTIAL_CHARGES>  (1) 
20
1 -0.18
11 0.3
13 0.12
14 0.34
15 0.57
16 0.08
18 -0.15
19 -0.15
2 -0.36
21 0.18
22 -0.15
3 -0.57
4 -0.81
40 0.15
41 0.15
45 0.15
5 -0.48
6 0.27
7 0.27
8 0.27

>  <PUBCHEM_EFFECTIVE_ROTOR_COUNT>  (1) 
5.6

>  <PUBCHEM_PHARMACOPHORE_FEATURES>  (1) 
7
1 2 acceptor
1 20 hydrophobe
1 3 acceptor
1 4 cation
5 4 7 8 9 10 rings
6 13 16 18 19 21 22 rings
6 2 5 13 14 15 16 rings

>  <PUBCHEM_HEAVY_ATOM_COUNT>  (1) 
22

>  <PUBCHEM_ATOM_DEF_STEREO_COUNT>  (1) 
0

>  <PUBCHEM_ATOM_UDEF_STEREO_COUNT>  (1) 
2

>  <PUBCHEM_BOND_DEF_STEREO_COUNT>  (1) 
0

>  <PUBCHEM_BOND_UDEF_STEREO_COUNT>  (1) 
0

>  <PUBCHEM_ISOTOPIC_ATOM_COUNT>  (1) 
0

>  <PUBCHEM_COMPONENT_COUNT>  (1) 
1

>  <PUBCHEM_CACTVS_TAUTO_COUNT>  (1) 
1

>  <PUBCHEM_CONFORMER_ID>  (1) 
0000A56B00000001

>  <PUBCHEM_MMFF94_ENERGY>  (1) 
50.9723

>  <PUBCHEM_FEATURE_SELFOVERLAP>  (1) 
35.554

>  <PUBCHEM_SHAPE_FINGERPRINT>  (1) 
10064457 181 18268712899145056785
10165383 225 18337960102934641508
10411042 1 17834678197495539074
10693767 8 17988083288379304374
10871710 139 16889222893425008284
10967382 1 18411982446904622370
1100329 8 18411978066523653954
12107183 9 17551523146143627233
12156800 1 17760961788012998847
12236239 1 17489873730394117529
12553582 1 17619073828364337003
12730499 353 18409174332930469073
12788726 201 17274833402665947313
13052359 8 18194680599735640002
13140716 1 18339915030904145378
13533116 47 18271803494115014521
13836976 161 18334297603990452580
138480 1 18051131397854747458
13911882 115 18188225289833720419
13911987 19 18337401555322880700
14659021 117 16319203569658055227
14790565 3 18266185121781444212
15502722 9 18410012104771630069
17138139 8 17485053592130784711
19591789 44 18122909986416314226
20344682 1 18040434429527200557
20600515 1 16964036456048848536
20645477 70 18335977580669439003
20775438 99 16965719821515626124
21197605 99 18266187317369770819
21344244 181 17845394239872724814
221490 88 18264491680790382259
2255824 54 18340768118002896462
23557571 272 17313387773519719941
23559900 14 18119802513438017811
238 59 17902474191853480711
2748010 2 18338815510559840354
3060560 45 18410292531834524828
33824 294 18409448076681119315
42630746 31 18341892982985787244
458136 41 18411985766676724872
6025842 7 18411976945251729589
621550 34 18261390031629672469
6669772 16 18343310279929772734
7364860 26 18411417271936394187
7399639 24 18260259737828965253
81228 2 17254259641228070464
8272917 22 18341898446469095893
9709674 26 18190740835020112959
9777508 108 17837765995296438656

>  <PUBCHEM_SHAPE_MULTIPOLES>  (1) 
432.92
9.1
4.38
0.94
8.67
5.09
-0.1
-5.53
-0.44
-4.2
-0.49
0.71
-0.32
0.46

>  <PUBCHEM_SHAPE_SELFOVERLAP>  (1) 
904.456

>  <PUBCHEM_SHAPE_VOLUME>  (1) 
247.3

>  <PUBCHEM_COORDINATE_TYPE>  (1) 
2
5
10

$$$$
