42356
     RDKit          3D

 22 24  0  0  1  0  0  0  0  0999 V2000
   -6.1286   -2.1355   -0.3147 Cl  0  0  0  0  0  0  0  0  0  0  0  0
   -7.1113    0.9470   -0.3948 Cl  0  0  0  0  0  0  0  0  0  0  0  0
   -1.0531   -1.4699    0.9924 O   0  0  0  0  0  0  0  0  0  0  0  0
    5.6514   -0.2529    0.3766 N   0  0  0  0  0  0  0  0  0  0  0  0
   -0.4568    0.5809    0.0893 N   0  0  0  0  0  0  0  0  0  0  0  0
    3.0682   -0.4073   -1.0088 C   0  0  0  0  0  0  0  0  0  0  0  0
    3.7476    0.9441   -0.7106 C   0  0  0  0  0  0  0  0  0  0  0  0
    1.5385   -0.2777   -1.0281 C   0  0  0  0  0  0  0  0  0  0  0  0
    3.1705    1.6136    0.5494 C   0  0  0  0  0  0  0  0  0  0  0  0
    0.9714    0.4109    0.2161 C   0  0  0  0  0  0  0  0  0  0  0  0
    3.5455   -1.4887   -0.0264 C   0  0  0  0  0  0  0  0  0  0  0  0
    5.2741    0.7675   -0.6117 C   0  0  0  0  0  0  0  0  0  0  0  0
    1.6532    1.7566    0.4653 C   0  0  0  0  0  0  0  0  0  0  0  0
    5.0730   -1.5577    0.0296 C   0  0  0  0  0  0  0  0  0  0  0  0
    7.1069   -0.3507    0.4818 C   0  0  0  0  0  0  0  0  0  0  0  0
   -1.3593   -0.3895    0.4949 C   0  0  0  0  0  0  0  0  0  0  0  0
   -2.7938   -0.0735    0.2724 C   0  0  0  0  0  0  0  0  0  0  0  0
   -3.6866   -1.1115    0.1043 C   0  0  0  0  0  0  0  0  0  0  0  0
   -3.1871    1.2484    0.2402 C   0  0  0  0  0  0  0  0  0  0  0  0
   -5.0334   -0.8143   -0.1054 C   0  0  0  0  0  0  0  0  0  0  0  0
   -4.5336    1.5457    0.0305 C   0  0  0  0  0  0  0  0  0  0  0  0
   -5.4567    0.5144   -0.1423 C   0  0  0  0  0  0  0  0  0  0  0  0
  1 20  1  0
  2 22  1  0
  3 16  2  0
  4 12  1  0
  4 14  1  0
  4 15  1  0
  5 10  1  0
  5 16  1  0
  6  7  1  0
  6  8  1  0
  6 11  1  0
  7  9  1  0
  7 12  1  0
  8 10  1  0
  9 13  1  0
 10 13  1  0
 11 14  1  0
 16 17  1  0
 17 18  2  0
 17 19  1  0
 18 20  1  0
 19 21  2  0
 20 22  2  0
 21 22  1  0
M  END
>  <PUBCHEM_COMPOUND_CID>  (1) 
42356

>  <PUBCHEM_CONFORMER_RMSD>  (1) 
0.8

>  <PUBCHEM_CONFORMER_DIVERSEORDER>  (1) 
1
39
43
34
28
26
12
6
37
25
3
22
41
42
21
29
20
18
5
38
40
4
11
24
13
9
35
2
32
27
23
7
33
17
30
31
19
8
36
10
16
14
15

>  <PUBCHEM_MMFF94_PARTIAL_CHARGES>  (1) 
20
1 -0.18
10 0.3
12 0.27
14 0.27
15 0.27
16 0.54
17 0.09
18 -0.15
19 -0.15
2 -0.18
20 0.18
21 -0.15
22 0.18
3 -0.57
38 0.37
4 -0.81
42 0.15
43 0.15
44 0.15
5 -0.73

>  <PUBCHEM_EFFECTIVE_ROTOR_COUNT>  (1) 
4.6

>  <PUBCHEM_PHARMACOPHORE_FEATURES>  (1) 
6
1 3 acceptor
1 4 cation
1 5 donor
6 17 18 19 20 21 22 rings
6 4 6 7 11 12 14 rings
6 6 7 8 9 10 13 rings

>  <PUBCHEM_HEAVY_ATOM_COUNT>  (1) 
22

>  <PUBCHEM_ATOM_DEF_STEREO_COUNT>  (1) 
2

>  <PUBCHEM_ATOM_UDEF_STEREO_COUNT>  (1) 
1

>  <PUBCHEM_BOND_DEF_STEREO_COUNT>  (1) 
0

>  <PUBCHEM_BOND_UDEF_STEREO_COUNT>  (1) 
0

>  <PUBCHEM_ISOTOPIC_ATOM_COUNT>  (1) 
0

>  <PUBCHEM_COMPONENT_COUNT>  (1) 
1

>  <PUBCHEM_CACTVS_TAUTO_COUNT>  (1) 
2

>  <PUBCHEM_CONFORMER_ID>  (1) 
0000A57400000001

>  <PUBCHEM_MMFF94_ENERGY>  (1) 
45.2199

>  <PUBCHEM_FEATURE_SELFOVERLAP>  (1) 
30.504

>  <PUBCHEM_SHAPE_FINGERPRINT>  (1) 
10 15 17917418853367975992
10595046 47 18410014350997334405
106641 1 17632571691643268354
10670039 82 15647324208934643679
11089746 13 17894348886591387564
11315181 36 18273498983493642825
11524674 6 16487257703667962055
11719270 70 18131631162720104694
11796584 16 17967537887212012786
12107183 9 17689154504605374928
12166972 35 18187931719939473349
12236239 1 17313106375461880541
12516196 113 18202845448492568776
12616971 3 16988556948248750341
13073987 5 18341334405082155289
13167823 11 18412825793892980039
13533116 47 18335419024573485586
13668630 136 17060063661428248717
14123256 10 10879986965393434128
14251752 14 18114177506423928069
14251764 18 18259703419737104070
15183329 4 18409732837329007801
15788980 27 18334581243297955049
17844677 252 18341056302177478993
17857418 61 18411698781367977115
19489759 90 18334858320702966681
200 152 17561085804379873617
20511986 3 18336816555085930546
20645477 70 18342182137627988438
21130935 74 18201440251242330730
21267235 1 18342183283882940330
21315763 129 18412544322921359085
221357 26 18341610400145443217
23402539 116 18408884044802186413
23522609 53 18122940661121208881
23536379 177 18335422352661079513
23559900 14 18341325673920382553
29717793 49 17967535675023812460
3004659 81 18260269629744763298
347723 3 14923945644103438736
34797466 226 15769776871003281536
351380 180 18411983563432413573
3545911 37 18409449185410597865
4072396 5 18271803502509672718
4073 2 18040722518932622642
4214541 1 18412265034567960937
439807 62 18339363071756658019
465052 167 18131636686263792294
5104073 3 18201725076298119123
5283173 99 18340205189740856001
542803 24 17603587447673410613
559249 180 18410571790998526639
59755656 215 18114178597451044723
59755656 520 17095522911957047579
67856867 119 18342175625993597072
7495541 125 18202002161291089216
9971528 1 17821731654199341140

>  <PUBCHEM_SHAPE_MULTIPOLES>  (1) 
440.66
18.65
1.84
0.85
3.74
0.22
-0.08
2.3
-1.03
0.97
0.11
-0.39
0.02
-0.05

>  <PUBCHEM_SHAPE_SELFOVERLAP>  (1) 
910.003

>  <PUBCHEM_SHAPE_VOLUME>  (1) 
253

>  <PUBCHEM_COORDINATE_TYPE>  (1) 
2
5
10

$$$$
