42360
     RDKit          3D

 26 28  0  0  1  0  0  0  0  0999 V2000
   -0.2652    0.4661    1.5331 O   0  0  0  0  0  0  0  0  0  0  0  0
    0.1733   -1.7660    1.8866 O   0  0  0  0  0  0  0  0  0  0  0  0
    4.8314   -2.1627   -0.0870 O   0  0  0  0  0  0  0  0  0  0  0  0
    3.5668    2.4212   -0.6598 O   0  0  0  0  0  0  0  0  0  0  0  0
    5.4228    0.3910   -0.9831 O   0  0  0  0  0  0  0  0  0  0  0  0
   -6.0582   -0.0439   -1.3570 N   0  0  0  0  0  0  0  0  0  0  0  0
   -3.5477   -0.5974    0.0426 C   0  0  0  0  0  0  0  0  0  0  0  0
   -4.2323    0.7801    0.0986 C   0  0  0  0  0  0  0  0  0  0  0  0
   -2.0313   -0.4564    0.1978 C   0  0  0  0  0  0  0  0  0  0  0  0
   -3.8918    1.4969    1.4116 C   0  0  0  0  0  0  0  0  0  0  0  0
   -3.9251   -1.3046   -1.2615 C   0  0  0  0  0  0  0  0  0  0  0  0
   -5.7505    0.6300   -0.0859 C   0  0  0  0  0  0  0  0  0  0  0  0
   -1.6751    0.2735    1.4932 C   0  0  0  0  0  0  0  0  0  0  0  0
   -2.3810    1.6257    1.5930 C   0  0  0  0  0  0  0  0  0  0  0  0
   -5.4462   -1.3783   -1.4211 C   0  0  0  0  0  0  0  0  0  0  0  0
   -7.5051   -0.1346   -1.5510 C   0  0  0  0  0  0  0  0  0  0  0  0
    0.4927   -0.6626    1.4718 C   0  0  0  0  0  0  0  0  0  0  0  0
    1.7974   -0.3837    0.8205 C   0  0  0  0  0  0  0  0  0  0  0  0
    2.0652    0.8977    0.3847 C   0  0  0  0  0  0  0  0  0  0  0  0
    2.7026   -1.4148    0.6730 C   0  0  0  0  0  0  0  0  0  0  0  0
    3.9293   -1.1527    0.0630 C   0  0  0  0  0  0  0  0  0  0  0  0
    3.2920    1.1596   -0.2254 C   0  0  0  0  0  0  0  0  0  0  0  0
    4.2241    0.1344   -0.3862 C   0  0  0  0  0  0  0  0  0  0  0  0
    4.7581   -2.9233   -1.2913 C   0  0  0  0  0  0  0  0  0  0  0  0
    3.1939    2.7412   -1.9988 C   0  0  0  0  0  0  0  0  0  0  0  0
    6.2599    1.3635   -0.3616 C   0  0  0  0  0  0  0  0  0  0  0  0
  1 13  1  0
  1 17  1  0
  2 17  2  0
  3 21  1  0
  3 24  1  0
  4 22  1  0
  4 25  1  0
  5 23  1  0
  5 26  1  0
  6 12  1  0
  6 15  1  0
  6 16  1  0
  7  8  1  0
  7  9  1  0
  7 11  1  0
  8 10  1  0
  8 12  1  0
  9 13  1  0
 10 14  1  0
 11 15  1  0
 13 14  1  0
 17 18  1  0
 18 19  2  0
 18 20  1  0
 19 22  1  0
 20 21  2  0
 21 23  1  0
 22 23  2  0
M  END
>  <PUBCHEM_COMPOUND_CID>  (1) 
42360

>  <PUBCHEM_CONFORMER_RMSD>  (1) 
0.8

>  <PUBCHEM_CONFORMER_DIVERSEORDER>  (1) 
14
367
21
203
197
433
426
168
45
95
231
306
159
55
191
176
279
242
165
62
115
325
255
385
261
34
438
161
207
172
313
294
143
198
188
108
114
118
430
44
194
85
337
116
226
104
193
413
90
416
155
211
35
83
411
223
434
204
252
424
260
265
268
109
208
297
245
56
27
133
215
205
390
377
350
141
47
123
59
239
219
102
328
405
401
26
3
334
107
29
152
184
290
137
389
303
67
140
187
384
181
210
17
258
101
212
432
178
269
436
174
163
15
327
22
170
250
202
157
182
310
428
235
24
399
236
238
61
296
91
122
6
49
317
417
169
60
302
42
110
23
321
131
43
241
126
423
71
41
37
58
429
283
94
144
1
218
162
333
380
16
357
46
12
209
365
330
185
300
322
127
358
359
171
113
253
272
164
233
156
376
11
121
192
52
305
409
32
287
99
147
414
332
230
196
228
412
256
232
148
277
36
276
50
57
254
177
240
420
257
352
33
299
383
263
285
20
375
369
124
246
64
237
112
349
373
19
387
25
154
264
422
289
75
135
51
76
392
280
166
374
87
173
437
68
139
319
266
311
439
418
96
10
158
70
247
81
403
274
39
88
339
142
5
13
69
195
368
190
360
74
92
249
28
125
80
7
200
316
63
201
427
396
372
78
54
234
243
53
40
89
251
362
391
227
213
381
431
344
271
120
86
371
146
364
379
329
221
18
129
421
343
2
408
98
323
410
106
216
77
244
222
151
320
248
388
259
4
72
97
309
286
308
82
395
48
425
199
189
186
291
331
183
180
267
130
100
326
312
402
206
220
105
378
31
288
145
400
136
318
217
355
361
79
179
354
138
84
73
167
65
307
347
9
370
293
304
38
262
345
353
229
338
356
398
386
103
415
351
93
132
342
175
128
119
314
275
324
404
346
335
348
394
273
397
117
336
225
340
111
134
341
363
382
160
278
8
419
407
149
284
281
315
406
66
270
366
295
214
224
298
282
292
393
150
153
435
30
301

>  <PUBCHEM_MMFF94_PARTIAL_CHARGES>  (1) 
22
1 -0.43
12 0.27
13 0.28
15 0.27
16 0.27
17 0.63
18 0.09
19 -0.15
2 -0.57
20 -0.15
21 0.08
22 0.08
23 0.08
24 0.28
25 0.28
26 0.28
3 -0.36
4 -0.36
45 0.15
46 0.15
5 -0.36
6 -0.81

>  <PUBCHEM_EFFECTIVE_ROTOR_COUNT>  (1) 
7.6

>  <PUBCHEM_PHARMACOPHORE_FEATURES>  (1) 
8
1 2 acceptor
1 3 acceptor
1 4 acceptor
1 5 acceptor
1 6 cation
6 18 19 20 21 22 23 rings
6 6 7 8 11 12 15 rings
6 7 8 9 10 13 14 rings

>  <PUBCHEM_HEAVY_ATOM_COUNT>  (1) 
26

>  <PUBCHEM_ATOM_DEF_STEREO_COUNT>  (1) 
0

>  <PUBCHEM_ATOM_UDEF_STEREO_COUNT>  (1) 
3

>  <PUBCHEM_BOND_DEF_STEREO_COUNT>  (1) 
0

>  <PUBCHEM_BOND_UDEF_STEREO_COUNT>  (1) 
0

>  <PUBCHEM_ISOTOPIC_ATOM_COUNT>  (1) 
0

>  <PUBCHEM_COMPONENT_COUNT>  (1) 
1

>  <PUBCHEM_CACTVS_TAUTO_COUNT>  (1) 
1

>  <PUBCHEM_CONFORMER_ID>  (1) 
0000A5780000000E

>  <PUBCHEM_MMFF94_ENERGY>  (1) 
96.1073

>  <PUBCHEM_FEATURE_SELFOVERLAP>  (1) 
40.624

>  <PUBCHEM_SHAPE_FINGERPRINT>  (1) 
10 15 11242259511538391559
10595046 47 18131354107111487696
10693767 8 18195808471186452522
11135609 149 17971736797659564862
11135609 99 17203041882168874926
11796584 16 16630530634922570719
12236239 1 18342177739444132377
12403259 415 16805615775882221665
12616971 3 18270412606988509793
12730499 353 17313105228900967443
12969540 114 17095235934863408315
13402501 40 16588016939808701797
13533116 47 18131068208286832818
13583140 156 16298673896755324680
13685833 64 13830133914317179245
13782708 43 15769763672705716735
14251757 5 18128251384378038007
14289585 56 17970348122351150526
14347332 77 17775562001676809865
14528608 73 17967244308990684827
14681490 219 18260824904138875493
15003188 100 17749110023554813925
15183329 4 18202281403380437703
15250474 111 18131630054201914543
15510800 12 15194998427504071341
15799311 1 17274556372980309203
20554085 129 14346062132565452613
21033648 29 16009031734524856116
21223535 225 17677606471972393085
21267235 1 17703502290826763759
21315763 76 18186524327960316752
221357 26 18187079525138858612
23522609 53 17416431864159861673
23559900 14 17632278104600366081
2838139 119 16298651867931041559
29717793 49 18342173332586231287
3004659 81 18271518723943924011
338550 245 17917429783195328230
3459 39 13262939824928303479
376196 1 17608658541862968648
439807 62 17988922267533491039
44317340 157 18335704992064641785
46194498 28 18333447629693191918
474 4 18113905987065332776
508706 21 16950567631961618797
6086070 43 17530965808734381416
633830 44 18186810157664048763
7808743 9 13407090196795882331
960060 61 18342737437801290321

>  <PUBCHEM_SHAPE_MULTIPOLES>  (1) 
500.74
16.97
2.41
1.78
11.23
0.31
-0.03
1.46
-9.76
-3.38
-0.79
0.81
-0.29
-2.26

>  <PUBCHEM_SHAPE_SELFOVERLAP>  (1) 
1050.261

>  <PUBCHEM_SHAPE_VOLUME>  (1) 
283

>  <PUBCHEM_COORDINATE_TYPE>  (1) 
2
5
10

$$$$
