42367
     RDKit          3D

 26 26  0  0  0  0  0  0  0  0999 V2000
   -0.5053   -1.8995   -1.3364 I   0  0  0  0  0  0  0  0  0  0  0  0
   -1.7200    3.9140    0.0821 I   0  0  0  0  0  0  0  0  0  0  0  0
    4.0178    1.8412    0.3380 I   0  0  0  0  0  0  0  0  0  0  0  0
   -2.6352    1.0151   -1.9608 O   0  0  0  0  0  0  0  0  0  0  0  0
    3.5856   -4.1070    0.3255 O   0  0  0  0  0  0  0  0  0  0  0  0
    1.8210    4.7298   -0.2930 O   0  0  0  0  0  0  0  0  0  0  0  0
    1.6805   -2.4278    0.9139 O   0  0  0  0  0  0  0  0  0  0  0  0
   -4.3581   -3.6262    0.4324 O   0  0  0  0  0  0  0  0  0  0  0  0
   -3.4494   -2.0477    1.7880 O   0  0  0  0  0  0  0  0  0  0  0  0
   -2.9580    0.3841    0.2480 N   0  0  0  0  0  0  0  0  0  0  0  0
    2.4351   -0.7999   -0.6111 N   0  0  0  0  0  0  0  0  0  0  0  0
    1.5235    4.1207    1.8977 N   0  0  0  0  0  0  0  0  0  0  0  0
   -0.7575    1.0650   -0.5572 C   0  0  0  0  0  0  0  0  0  0  0  0
    1.5131    0.2458   -0.4567 C   0  0  0  0  0  0  0  0  0  0  0  0
    0.1595    0.0251   -0.7106 C   0  0  0  0  0  0  0  0  0  0  0  0
    1.0330    2.5462    0.1043 C   0  0  0  0  0  0  0  0  0  0  0  0
   -0.3207    2.3255   -0.1499 C   0  0  0  0  0  0  0  0  0  0  0  0
    1.9499    1.5062   -0.0493 C   0  0  0  0  0  0  0  0  0  0  0  0
   -2.1992    0.8298   -0.8276 C   0  0  0  0  0  0  0  0  0  0  0  0
   -4.3613    0.0890    0.1383 C   0  0  0  0  0  0  0  0  0  0  0  0
   -4.6124   -1.3644   -0.2420 C   0  0  0  0  0  0  0  0  0  0  0  0
    1.4916    3.8683    0.5338 C   0  0  0  0  0  0  0  0  0  0  0  0
    2.4605   -2.0269    0.0554 C   0  0  0  0  0  0  0  0  0  0  0  0
    3.6200   -2.8904   -0.3917 C   0  0  0  0  0  0  0  0  0  0  0  0
   -4.0680   -2.3436    0.7753 C   0  0  0  0  0  0  0  0  0  0  0  0
    4.6539   -4.9724   -0.0468 C   0  0  0  0  0  0  0  0  0  0  0  0
  1 15  1  0
  2 17  1  0
  3 18  1  0
  4 19  2  0
  5 24  1  0
  5 26  1  0
  6 22  2  0
  7 23  2  0
  8 25  1  0
  9 25  2  0
 10 19  1  0
 10 20  1  0
 11 14  1  0
 11 23  1  0
 12 22  1  0
 13 15  2  0
 13 17  1  0
 13 19  1  0
 14 15  1  0
 14 18  2  0
 16 17  2  0
 16 18  1  0
 16 22  1  0
 20 21  1  0
 21 25  1  0
 23 24  1  0
M  END
>  <PUBCHEM_COMPOUND_CID>  (1) 
42367

>  <PUBCHEM_CONFORMER_RMSD>  (1) 
1

>  <PUBCHEM_CONFORMER_DIVERSEORDER>  (1) 
1
25
22
3
30
27
16
9
14
20
33
11
29
28
12
2
19
18
23
8
4
17
6
13
26
32
21
7
24
5
10
15
31

>  <PUBCHEM_MMFF94_PARTIAL_CHARGES>  (1) 
31
1 -0.08
10 -0.73
11 -0.55
12 -0.8
13 0.09
14 0.12
15 0.08
16 0.09
17 0.08
18 0.08
19 0.54
2 -0.08
20 0.3
21 0.06
22 0.54
23 0.57
24 0.34
25 0.66
26 0.28
29 0.37
3 -0.08
32 0.37
35 0.37
36 0.37
37 0.5
4 -0.57
5 -0.56
6 -0.57
7 -0.57
8 -0.65
9 -0.57

>  <PUBCHEM_EFFECTIVE_ROTOR_COUNT>  (1) 
10

>  <PUBCHEM_PHARMACOPHORE_FEATURES>  (1) 
14
1 1 hydrophobe
1 10 donor
1 11 donor
1 12 donor
1 2 hydrophobe
1 3 hydrophobe
1 4 acceptor
1 5 acceptor
1 6 acceptor
1 7 acceptor
1 8 acceptor
1 9 acceptor
3 8 9 25 anion
6 13 14 15 16 17 18 rings

>  <PUBCHEM_HEAVY_ATOM_COUNT>  (1) 
26

>  <PUBCHEM_ATOM_DEF_STEREO_COUNT>  (1) 
0

>  <PUBCHEM_ATOM_UDEF_STEREO_COUNT>  (1) 
0

>  <PUBCHEM_BOND_DEF_STEREO_COUNT>  (1) 
0

>  <PUBCHEM_BOND_UDEF_STEREO_COUNT>  (1) 
0

>  <PUBCHEM_ISOTOPIC_ATOM_COUNT>  (1) 
0

>  <PUBCHEM_COMPONENT_COUNT>  (1) 
1

>  <PUBCHEM_CACTVS_TAUTO_COUNT>  (1) 
8

>  <PUBCHEM_CONFORMER_ID>  (1) 
0000A57F00000001

>  <PUBCHEM_MMFF94_ENERGY>  (1) 
96.0714

>  <PUBCHEM_FEATURE_SELFOVERLAP>  (1) 
71.118

>  <PUBCHEM_SHAPE_FINGERPRINT>  (1) 
10411042 1 18267862770461432807
1100329 8 18125717044293087188
11056379 131 17691134738523290502
11227688 84 18340757209065436406
12107183 9 18198358264747201265
12633257 1 18197231265107151779
12788726 201 17545305385701261435
12969540 37 18335987578884182783
13140716 1 17982157118036897896
13533116 47 18410857707445960619
138480 1 18410576192780705958
14787075 74 18187370969114360638
14790565 3 17832994127806931108
14844126 61 17759808043806710954
14863182 85 17758128377013618125
14866123 147 17617941331545742947
14955137 171 18340203094202601152
15422964 175 18336825389876058029
16945 1 18270385200618175044
19591789 44 18122907796094010100
20028762 73 17766843101633022758
22956985 138 18263077867851364938
2334 1 18271235007232006156
23559900 14 18408879638308126317
23845131 108 17188403310203999241
2748010 2 18127397969812356180
6442390 28 17690003752826315580
81228 2 17407676216623236916

>  <PUBCHEM_SHAPE_MULTIPOLES>  (1) 
520.72
8.41
7.31
1.21
0.35
1.29
-0.03
-11.07
-1.37
-4.46
-2
0.62
-0.07
1.28

>  <PUBCHEM_SHAPE_SELFOVERLAP>  (1) 
1016.271

>  <PUBCHEM_SHAPE_VOLUME>  (1) 
321.3

>  <PUBCHEM_COORDINATE_TYPE>  (1) 
2
5
10

$$$$
