42366
     RDKit          3D

 25 25  0  0  1  0  0  0  0  0999 V2000
    0.5476    3.2305   -0.5021 I   0  0  0  0  0  0  0  0  0  0  0  0
    0.9369   -2.8210   -1.2181 I   0  0  0  0  0  0  0  0  0  0  0  0
   -4.4262   -0.2503    0.1537 I   0  0  0  0  0  0  0  0  0  0  0  0
    2.1880    0.4603   -2.2275 O   0  0  0  0  0  0  0  0  0  0  0  0
    4.0026   -1.1017    1.8369 O   0  0  0  0  0  0  0  0  0  0  0  0
   -3.0877    3.0043   -0.8736 O   0  0  0  0  0  0  0  0  0  0  0  0
    6.0354   -0.5475    1.0153 O   0  0  0  0  0  0  0  0  0  0  0  0
   -1.9802   -3.1990    1.6888 O   0  0  0  0  0  0  0  0  0  0  0  0
    2.6596    0.2468    0.0334 N   0  0  0  0  0  0  0  0  0  0  0  0
   -2.1927   -2.4663   -0.5402 N   0  0  0  0  0  0  0  0  0  0  0  0
   -2.6463    2.7497    1.3885 N   0  0  0  0  0  0  0  0  0  0  0  0
    0.3628    0.1722   -0.7839 C   0  0  0  0  0  0  0  0  0  0  0  0
    4.0886    0.3795   -0.0772 C   0  0  0  0  0  0  0  0  0  0  0  0
   -1.7389    1.1918   -0.2462 C   0  0  0  0  0  0  0  0  0  0  0  0
   -1.5844   -1.2025   -0.5301 C   0  0  0  0  0  0  0  0  0  0  0  0
   -0.3751    1.3115   -0.5127 C   0  0  0  0  0  0  0  0  0  0  0  0
   -0.2205   -1.0829   -0.7967 C   0  0  0  0  0  0  0  0  0  0  0  0
    1.8154    0.2992   -1.0683 C   0  0  0  0  0  0  0  0  0  0  0  0
   -2.3437   -0.0652   -0.2549 C   0  0  0  0  0  0  0  0  0  0  0  0
    4.5004    1.8398    0.0328 C   0  0  0  0  0  0  0  0  0  0  0  0
   -2.5354    2.3846    0.0462 C   0  0  0  0  0  0  0  0  0  0  0  0
    4.8135   -0.4544    0.9660 C   0  0  0  0  0  0  0  0  0  0  0  0
   -2.3458   -3.3531    0.5280 C   0  0  0  0  0  0  0  0  0  0  0  0
   -3.4164    3.8868    1.8386 C   0  0  0  0  0  0  0  0  0  0  0  0
   -3.0576   -4.6130    0.1034 C   0  0  0  0  0  0  0  0  0  0  0  0
  1 16  1  0
  2 17  1  0
  3 19  1  0
  4 18  2  0
  5 22  1  0
  6 21  2  0
  7 22  2  0
  8 23  2  0
  9 13  1  0
  9 18  1  0
 10 15  1  0
 10 23  1  0
 11 21  1  0
 11 24  1  0
 12 16  2  0
 12 17  1  0
 12 18  1  0
 13 20  1  0
 13 22  1  0
 14 16  1  0
 14 19  2  0
 14 21  1  0
 15 17  2  0
 15 19  1  0
 23 25  1  0
M  END
>  <PUBCHEM_COMPOUND_CID>  (1) 
42366

>  <PUBCHEM_CONFORMER_RMSD>  (1) 
0.8

>  <PUBCHEM_CONFORMER_DIVERSEORDER>  (1) 
1
23
25
17
27
24
6
28
21
10
29
22
3
20
26
2
12
18
8
9
7
14
11
4
13
5
15
16
19

>  <PUBCHEM_MMFF94_PARTIAL_CHARGES>  (1) 
28
1 -0.08
10 -0.55
11 -0.73
12 0.09
13 0.36
14 0.09
15 0.12
16 0.08
17 0.08
18 0.54
19 0.08
2 -0.08
21 0.54
22 0.66
23 0.57
24 0.3
25 0.06
27 0.37
3 -0.08
31 0.37
32 0.37
39 0.5
4 -0.57
5 -0.65
6 -0.57
7 -0.57
8 -0.57
9 -0.73

>  <PUBCHEM_EFFECTIVE_ROTOR_COUNT>  (1) 
8

>  <PUBCHEM_PHARMACOPHORE_FEATURES>  (1) 
13
1 1 hydrophobe
1 10 donor
1 11 donor
1 2 hydrophobe
1 3 hydrophobe
1 4 acceptor
1 5 acceptor
1 6 acceptor
1 7 acceptor
1 8 acceptor
1 9 donor
3 5 7 22 anion
6 12 14 15 16 17 19 rings

>  <PUBCHEM_HEAVY_ATOM_COUNT>  (1) 
25

>  <PUBCHEM_ATOM_DEF_STEREO_COUNT>  (1) 
0

>  <PUBCHEM_ATOM_UDEF_STEREO_COUNT>  (1) 
1

>  <PUBCHEM_BOND_DEF_STEREO_COUNT>  (1) 
0

>  <PUBCHEM_BOND_UDEF_STEREO_COUNT>  (1) 
0

>  <PUBCHEM_ISOTOPIC_ATOM_COUNT>  (1) 
0

>  <PUBCHEM_COMPONENT_COUNT>  (1) 
1

>  <PUBCHEM_CACTVS_TAUTO_COUNT>  (1) 
8

>  <PUBCHEM_CONFORMER_ID>  (1) 
0000A57E00000001

>  <PUBCHEM_MMFF94_ENERGY>  (1) 
97.4443

>  <PUBCHEM_FEATURE_SELFOVERLAP>  (1) 
66.033

>  <PUBCHEM_SHAPE_FINGERPRINT>  (1) 
10906281 52 18341346564746707989
1100329 8 18337956813411107737
11552529 35 18410567427179638546
12107183 9 18050279272628119866
12160290 23 18339096938091314797
12293681 160 18198598018374792037
12549972 3 17559135193553752710
12553582 1 18266198269171553687
12788726 201 18192730035689954679
13140716 1 18125167275683396477
14178342 30 18340778073699743358
14420673 8 18267581300793104166
14844126 61 18339070613789111474
15042514 8 18338236084837974319
15842332 3 17823154448173502380
16728300 4 17604981512769987859
16945 1 18339661009025938461
17349148 13 18410284822336307581
19319366 153 16891744095098686852
19591789 44 17978255776356854919
20600515 1 18342746187246564100
2334 1 17764602301625493925
23402539 116 18341882001018234077
23419403 2 14617376654876993223
23557571 272 18131084709725322916
23558518 356 18268156366326554167
23559900 14 18264759025715124708
23598288 3 18410848902182775150
2748010 2 18122645859292456557
352729 6 18339937025088627509
5104073 3 18267578182218644560
5265222 85 18130227181862736358
58807428 26 18121223069428535593
7097593 13 18117263780208341058
7226269 152 18413101780238797679
79837 15 18339927013092611851
81228 2 18339940280747768597
9981440 41 17774713161082746406

>  <PUBCHEM_SHAPE_MULTIPOLES>  (1) 
506.01
8.97
5.41
1.49
10.97
0.93
-0.25
0.13
-4.1
-6.91
-1.22
0.55
-0.03
-0.82

>  <PUBCHEM_SHAPE_SELFOVERLAP>  (1) 
987.179

>  <PUBCHEM_SHAPE_VOLUME>  (1) 
314.8

>  <PUBCHEM_COORDINATE_TYPE>  (1) 
2
5
10

$$$$
