42370
     RDKit          3D

 17 17  0  0  1  0  0  0  0  0999 V2000
   -1.5880    0.3671    0.4774 O   0  0  0  0  0  0  0  0  0  0  0  0
   -2.1318   -1.0407   -1.2609 O   0  0  0  0  0  0  0  0  0  0  0  0
   -0.0617   -2.6931   -0.7484 N   0  0  0  0  0  0  0  0  0  0  0  0
   -0.1899   -1.5343    0.1551 C   0  0  0  0  0  0  0  0  0  0  0  0
   -2.7091    1.1944    0.1512 C   0  0  0  0  0  0  0  0  0  0  0  0
    1.0805   -0.6844    0.0732 C   0  0  0  0  0  0  0  0  0  0  0  0
   -1.4118   -0.7328   -0.3185 C   0  0  0  0  0  0  0  0  0  0  0  0
   -0.5274   -2.0882    1.5529 C   0  0  0  0  0  0  0  0  0  0  0  0
   -3.9816    0.3564    0.2666 C   0  0  0  0  0  0  0  0  0  0  0  0
   -2.7342    2.3497    1.1497 C   0  0  0  0  0  0  0  0  0  0  0  0
   -2.5291    1.7186   -1.2726 C   0  0  0  0  0  0  0  0  0  0  0  0
    1.4627   -0.1891   -1.1518 C   0  0  0  0  0  0  0  0  0  0  0  0
    1.7902   -0.4489    1.2277 C   0  0  0  0  0  0  0  0  0  0  0  0
    3.3627    0.8431   -0.0742 C   0  0  0  0  0  0  0  0  0  0  0  0
    2.6203    0.5857   -1.2265 C   0  0  0  0  0  0  0  0  0  0  0  0
    2.9477    0.3259    1.1530 C   0  0  0  0  0  0  0  0  0  0  0  0
    4.6006    1.6707   -0.1540 C   0  0  0  0  0  0  0  0  0  0  0  0
  1  5  1  0
  1  7  1  0
  2  7  2  0
  3  4  1  0
  4  6  1  0
  4  7  1  0
  4  8  1  0
  5  9  1  0
  5 10  1  0
  5 11  1  0
  6 12  2  0
  6 13  1  0
 12 15  1  0
 13 16  2  0
 14 15  2  0
 14 16  1  0
 14 17  1  0
M  END
>  <PUBCHEM_COMPOUND_CID>  (1) 
42370

>  <PUBCHEM_CONFORMER_RMSD>  (1) 
0.6

>  <PUBCHEM_CONFORMER_DIVERSEORDER>  (1) 
1
27
30
14
22
28
10
13
18
7
15
29
25
6
9
26
17
23
16
19
20
12
5
8
11
24
2
21
4
3

>  <PUBCHEM_MMFF94_PARTIAL_CHARGES>  (1) 
19
1 -0.43
12 -0.15
13 -0.15
14 -0.14
15 -0.15
16 -0.15
17 0.14
2 -0.57
3 -0.99
30 0.36
31 0.36
32 0.15
33 0.15
34 0.15
35 0.15
4 0.47
5 0.28
6 -0.14
7 0.66

>  <PUBCHEM_EFFECTIVE_ROTOR_COUNT>  (1) 
4

>  <PUBCHEM_PHARMACOPHORE_FEATURES>  (1) 
5
1 2 acceptor
1 3 cation
1 3 donor
4 5 9 10 11 hydrophobe
6 6 12 13 14 15 16 rings

>  <PUBCHEM_HEAVY_ATOM_COUNT>  (1) 
17

>  <PUBCHEM_ATOM_DEF_STEREO_COUNT>  (1) 
1

>  <PUBCHEM_ATOM_UDEF_STEREO_COUNT>  (1) 
0

>  <PUBCHEM_BOND_DEF_STEREO_COUNT>  (1) 
0

>  <PUBCHEM_BOND_UDEF_STEREO_COUNT>  (1) 
0

>  <PUBCHEM_ISOTOPIC_ATOM_COUNT>  (1) 
0

>  <PUBCHEM_COMPONENT_COUNT>  (1) 
1

>  <PUBCHEM_CACTVS_TAUTO_COUNT>  (1) 
1

>  <PUBCHEM_CONFORMER_ID>  (1) 
0000A58200000001

>  <PUBCHEM_MMFF94_ENERGY>  (1) 
51.9494

>  <PUBCHEM_FEATURE_SELFOVERLAP>  (1) 
25.371

>  <PUBCHEM_SHAPE_FINGERPRINT>  (1) 
10498660 4 18271810051850217201
11471102 22 15285633309447967908
11640471 11 18335968784049071545
11725454 13 16197859632918542834
12138202 97 18060420265628538694
12173636 292 17845931832386520597
12251169 10 16732706064290072056
12491281 212 18410008870961832698
12841375 7 8646475298268833696
13134695 92 17325760379881985823
13693222 7 18195807362867780829
13764800 53 18335713783324620291
14251764 38 17983569990901064648
14739800 52 18054205882297435944
15209294 21 18041550464664238904
15309172 13 17167853171424036346
15534591 1 18335701680265067890
15775835 57 18335136488133080616
15906896 17 18189619512921362291
16945 1 18199453544893440002
17357990 137 18333732394936636520
1741750 31 18411140264147664704
18186145 218 18270968933843780468
19107657 9 18340492166280295088
19837323 101 18340496650210243266
19862831 5 13686301279038644912
20361792 2 10879983662310376027
20510252 161 18263085589917583907
20645477 56 18269842063633018432
20671657 1 18194970638429090215
20671657 53 13614525134497638048
21069387 34 13190635983203550937
21524375 3 18408041792703603787
21713013 43 14548721920420295829
21731228 192 18113058216186657658
22646028 28 10231758890037750812
23402539 116 18197208359408570847
23419403 2 16760078303480259551
23557571 272 18057608874182979246
23559900 14 18060422418177033634
25 1 17561092375468774858
305870 269 18187640246019979834
3797600 57 16012740357090987428
474 4 18335700477589777137
568465 68 14490188319509117744
6442390 28 18199490851512305163
7364860 26 17983294824629229399
81228 2 18120382213526926155

>  <PUBCHEM_SHAPE_MULTIPOLES>  (1) 
333.13
6.71
2.35
1.4
2.23
0.52
-0.04
-5.12
-0.28
-0.9
-0.2
-0.05
0.07
-0.42

>  <PUBCHEM_SHAPE_SELFOVERLAP>  (1) 
686.969

>  <PUBCHEM_SHAPE_VOLUME>  (1) 
194

>  <PUBCHEM_COORDINATE_TYPE>  (1) 
2
5
10

$$$$
