4237
     RDKit          3D

 25 27  0  0  0  0  0  0  0  0999 V2000
    1.0980   -3.0612    0.7833 O   0  0  0  0  0  0  0  0  0  0  0  0
    1.9367    4.5032   -0.4381 O   0  0  0  0  0  0  0  0  0  0  0  0
   -5.6033    0.4886   -0.1497 O   0  0  0  0  0  0  0  0  0  0  0  0
    5.1306   -2.0631   -0.6872 O   0  0  0  0  0  0  0  0  0  0  0  0
    3.1103   -2.3509   -1.6837 O   0  0  0  0  0  0  0  0  0  0  0  0
   -0.2781   -2.8948    0.6856 N   0  0  0  0  0  0  0  0  0  0  0  0
    0.7634   -0.8938    0.4042 C   0  0  0  0  0  0  0  0  0  0  0  0
   -0.4533   -1.5898    0.4587 C   0  0  0  0  0  0  0  0  0  0  0  0
    1.7078   -1.8602    0.6136 C   0  0  0  0  0  0  0  0  0  0  0  0
    1.0646    0.4934    0.1877 C   0  0  0  0  0  0  0  0  0  0  0  0
   -1.7805   -1.0537    0.3018 C   0  0  0  0  0  0  0  0  0  0  0  0
    3.1762   -1.8657    0.6890 C   0  0  0  0  0  0  0  0  0  0  0  0
    1.1504    1.3659    1.2726 C   0  0  0  0  0  0  0  0  0  0  0  0
    1.2713    0.9683   -1.1075 C   0  0  0  0  0  0  0  0  0  0  0  0
   -2.3591   -0.9944   -0.9637 C   0  0  0  0  0  0  0  0  0  0  0  0
   -2.4799   -0.5969    1.4163 C   0  0  0  0  0  0  0  0  0  0  0  0
    1.4431    2.7135    1.0622 C   0  0  0  0  0  0  0  0  0  0  0  0
    1.5641    2.3159   -1.3177 C   0  0  0  0  0  0  0  0  0  0  0  0
    1.6500    3.1884   -0.2329 C   0  0  0  0  0  0  0  0  0  0  0  0
   -3.6449   -0.4752   -1.1156 C   0  0  0  0  0  0  0  0  0  0  0  0
   -3.7657   -0.0779    1.2643 C   0  0  0  0  0  0  0  0  0  0  0  0
   -4.3481   -0.0169   -0.0016 C   0  0  0  0  0  0  0  0  0  0  0  0
    3.7746   -2.1020   -0.6854 C   0  0  0  0  0  0  0  0  0  0  0  0
    2.0104    5.3392    0.7157 C   0  0  0  0  0  0  0  0  0  0  0  0
   -6.1386    0.5202   -1.4718 C   0  0  0  0  0  0  0  0  0  0  0  0
  1  6  1  0
  1  9  1  0
  2 19  1  0
  2 24  1  0
  3 22  1  0
  3 25  1  0
  4 23  1  0
  5 23  2  0
  6  8  2  0
  7  8  1  0
  7  9  2  0
  7 10  1  0
  8 11  1  0
  9 12  1  0
 10 13  2  0
 10 14  1  0
 11 15  2  0
 11 16  1  0
 12 23  1  0
 13 17  1  0
 14 18  2  0
 15 20  1  0
 16 21  2  0
 17 19  2  0
 18 19  1  0
 20 22  2  0
 21 22  1  0
M  END
>  <PUBCHEM_COMPOUND_CID>  (1) 
4237

>  <PUBCHEM_CONFORMER_RMSD>  (1) 
0.8

>  <PUBCHEM_CONFORMER_DIVERSEORDER>  (1) 
1
13
7
12
4
10
5
9
11
6
8
2
3

>  <PUBCHEM_MMFF94_PARTIAL_CHARGES>  (1) 
34
1 -0.02
10 0.05
11 0.05
12 0.24
13 -0.15
14 -0.15
15 -0.15
16 -0.15
17 -0.15
18 -0.15
19 0.08
2 -0.36
20 -0.15
21 -0.15
22 0.08
23 0.66
24 0.28
25 0.28
28 0.15
29 0.15
3 -0.36
30 0.15
31 0.15
32 0.15
33 0.15
34 0.15
35 0.15
36 0.5
4 -0.65
5 -0.57
6 -0.41
7 -0.05
8 0.23
9 -0.04

>  <PUBCHEM_EFFECTIVE_ROTOR_COUNT>  (1) 
6

>  <PUBCHEM_PHARMACOPHORE_FEATURES>  (1) 
9
1 2 acceptor
1 3 acceptor
1 4 acceptor
1 5 acceptor
1 6 acceptor
3 4 5 23 anion
5 1 6 7 8 9 rings
6 10 13 14 17 18 19 rings
6 11 15 16 20 21 22 rings

>  <PUBCHEM_HEAVY_ATOM_COUNT>  (1) 
25

>  <PUBCHEM_ATOM_DEF_STEREO_COUNT>  (1) 
0

>  <PUBCHEM_ATOM_UDEF_STEREO_COUNT>  (1) 
0

>  <PUBCHEM_BOND_DEF_STEREO_COUNT>  (1) 
0

>  <PUBCHEM_BOND_UDEF_STEREO_COUNT>  (1) 
0

>  <PUBCHEM_ISOTOPIC_ATOM_COUNT>  (1) 
0

>  <PUBCHEM_COMPONENT_COUNT>  (1) 
1

>  <PUBCHEM_CACTVS_TAUTO_COUNT>  (1) 
1

>  <PUBCHEM_CONFORMER_ID>  (1) 
0000108D00000001

>  <PUBCHEM_MMFF94_ENERGY>  (1) 
77.9012

>  <PUBCHEM_FEATURE_SELFOVERLAP>  (1) 
45.732

>  <PUBCHEM_SHAPE_FINGERPRINT>  (1) 
10165383 225 17540576751304699521
10366900 7 17894911777090629899
104564 63 18050291358033262962
10930396 42 18192403365811788378
11582403 64 15622542535800823096
12107183 9 17829867074236795768
12166972 35 18201995500487506857
12173636 292 17472982182090287340
12293681 160 18115612382537108550
12617007 42 18271807886964705734
12788726 201 18191596237997754718
13134695 92 18335975364018304603
13140716 1 18188482609576930067
13149001 5 18262816158325031362
13590594 115 18268154162702467153
13911987 19 18116737161083415006
13965767 371 17752182132068287757
14170010 4 18411976962294520115
14347329 18 16010420250881837751
14713325 29 16233685217875806398
14955137 171 18267326277401501618
15081414 286 18411986862305089112
15210252 30 18042412322333518500
15230672 131 17830179362010501252
15439362 3 18338794636454876952
1601671 61 18192993721012443003
16988056 13 18336250259321837917
17138139 8 16752637749102034117
1813 80 18200038326476883054
18365409 1 17058345206322146942
20642791 239 17751107823803912118
21285901 2 17772194111451291542
21641784 216 17826250496918742574
21860390 5 18342735234567411996
23419403 2 17915437455662603168
23558518 356 17755854565160744794
23559900 14 18408036308837553563
283562 15 18047476617415624090
340366 18 18130781261648615759
350125 39 18046639063816065363
465052 167 13182724940590631038
474 4 18337096982364609537
484985 159 14394261139818345238
6443956 14 18410854348122243128
6823239 73 16805331011113588493
7164475 11 17832426393618832706
7471813 234 18130782322552698297
81228 2 18050303470363420234
84936 182 18269833288888518305
9971528 1 18201151070666685362
9981440 41 17693086774924905616

>  <PUBCHEM_SHAPE_MULTIPOLES>  (1) 
480.16
8.92
5.16
1.42
13.16
6.68
0.16
-0.92
3.13
-8.62
-0.43
0.3
0.02
1.03

>  <PUBCHEM_SHAPE_SELFOVERLAP>  (1) 
1047.038

>  <PUBCHEM_SHAPE_VOLUME>  (1) 
264.1

>  <PUBCHEM_COORDINATE_TYPE>  (1) 
2
5
10

$$$$
