42379
     RDKit          3D

 24 24  0  0  1  0  0  0  0  0999 V2000
    3.3094   -1.3852   -0.1792 O   0  0  0  0  0  0  0  0  0  0  0  0
    6.0010   -0.8389   -0.6213 O   0  0  0  0  0  0  0  0  0  0  0  0
   -2.6230   -2.7412    1.5536 O   0  0  0  0  0  0  0  0  0  0  0  0
    3.7834    2.1086   -0.2975 N   0  0  0  0  0  0  0  0  0  0  0  0
   -3.0418   -1.7804   -0.5159 N   0  0  0  0  0  0  0  0  0  0  0  0
   -4.8685    0.6062   -0.6326 C   0  0  0  0  0  0  0  0  0  0  0  0
   -5.1466   -0.6822    0.1491 C   0  0  0  0  0  0  0  0  0  0  0  0
   -5.6068    1.7967   -0.0153 C   0  0  0  0  0  0  0  0  0  0  0  0
    4.8189    1.1414    0.0402 C   0  0  0  0  0  0  0  0  0  0  0  0
    4.9978    0.0850   -1.0528 C   0  0  0  0  0  0  0  0  0  0  0  0
    3.5947    3.0677    0.7825 C   0  0  0  0  0  0  0  0  0  0  0  0
   -4.4734   -1.9009   -0.4744 C   0  0  0  0  0  0  0  0  0  0  0  0
   -5.3880    3.1066   -0.7754 C   0  0  0  0  0  0  0  0  0  0  0  0
    3.7193   -0.6927   -1.3574 C   0  0  0  0  0  0  0  0  0  0  0  0
    2.9525    4.3357    0.2290 C   0  0  0  0  0  0  0  0  0  0  0  0
    2.7383    2.4573    1.8884 C   0  0  0  0  0  0  0  0  0  0  0  0
   -6.1753    4.2776   -0.2080 C   0  0  0  0  0  0  0  0  0  0  0  0
   -2.2215   -2.2173    0.5178 C   0  0  0  0  0  0  0  0  0  0  0  0
   -0.7638   -1.9969    0.3340 C   0  0  0  0  0  0  0  0  0  0  0  0
    1.9736   -1.5843   -0.0109 C   0  0  0  0  0  0  0  0  0  0  0  0
    0.0664   -1.8590    1.4464 C   0  0  0  0  0  0  0  0  0  0  0  0
   -0.2252   -1.9286   -0.9509 C   0  0  0  0  0  0  0  0  0  0  0  0
    1.4350   -1.6528    1.2740 C   0  0  0  0  0  0  0  0  0  0  0  0
    1.1435   -1.7223   -1.1234 C   0  0  0  0  0  0  0  0  0  0  0  0
  1 14  1  0
  1 20  1  0
  2 10  1  0
  3 18  2  0
  4  9  1  0
  4 11  1  0
  5 12  1  0
  5 18  1  0
  6  7  1  0
  6  8  1  0
  7 12  1  0
  8 13  1  0
  9 10  1  0
 10 14  1  0
 11 15  1  0
 11 16  1  0
 13 17  1  0
 18 19  1  0
 19 21  2  0
 19 22  1  0
 20 23  2  0
 20 24  1  0
 21 23  1  0
 22 24  2  0
M  END
>  <PUBCHEM_COMPOUND_CID>  (1) 
42379

>  <PUBCHEM_CONFORMER_RMSD>  (1) 
1

>  <PUBCHEM_CONFORMER_DIVERSEORDER>  (1) 
1
80
89
128
28
96
78
79
7
110
93
94
49
5
141
13
142
90
69
122
133
37
47
73
57
115
70
129
8
116
88
59
45
85
20
86
74
103
105
139
35
101
123
2
29
113
51
119
130
15
30
67
125
91
22
19
38
76
58
65
56
97
18
40
23
104
140
50
81
54
60
84
33
136
100
108
16
66
25
46
111
87
126
44
3
77
117
32
71
43
52
107
106
26
21
127
11
62
95
27
53
82
48
12
75
112
98
138
109
17
55
135
4
72
118
99
120
31
39
121
134
92
41
42
102
124
61
34
63
9
83
10
131
24
137
114
14
68
64
6
132
36

>  <PUBCHEM_MMFF94_PARTIAL_CHARGES>  (1) 
24
1 -0.36
10 0.28
11 0.27
12 0.3
14 0.28
18 0.54
19 0.09
2 -0.68
20 0.08
21 -0.15
22 -0.15
23 -0.15
24 -0.15
3 -0.57
39 0.36
4 -0.9
48 0.37
5 -0.73
52 0.4
53 0.15
54 0.15
55 0.15
56 0.15
9 0.27

>  <PUBCHEM_EFFECTIVE_ROTOR_COUNT>  (1) 
13

>  <PUBCHEM_PHARMACOPHORE_FEATURES>  (1) 
11
1 1 acceptor
1 17 hydrophobe
1 2 acceptor
1 2 donor
1 3 acceptor
1 4 cation
1 4 donor
1 5 donor
3 11 15 16 hydrophobe
4 6 7 8 13 hydrophobe
6 19 20 21 22 23 24 rings

>  <PUBCHEM_HEAVY_ATOM_COUNT>  (1) 
24

>  <PUBCHEM_ATOM_DEF_STEREO_COUNT>  (1) 
0

>  <PUBCHEM_ATOM_UDEF_STEREO_COUNT>  (1) 
1

>  <PUBCHEM_BOND_DEF_STEREO_COUNT>  (1) 
0

>  <PUBCHEM_BOND_UDEF_STEREO_COUNT>  (1) 
0

>  <PUBCHEM_ISOTOPIC_ATOM_COUNT>  (1) 
0

>  <PUBCHEM_COMPONENT_COUNT>  (1) 
1

>  <PUBCHEM_CACTVS_TAUTO_COUNT>  (1) 
2

>  <PUBCHEM_CONFORMER_ID>  (1) 
0000A58B00000001

>  <PUBCHEM_MMFF94_ENERGY>  (1) 
36.6249

>  <PUBCHEM_FEATURE_SELFOVERLAP>  (1) 
55.825

>  <PUBCHEM_SHAPE_FINGERPRINT>  (1) 
10763959 59 18342184392612250502
10864689 126 18122065299615101157
11070050 100 16877662331579795329
11273773 38 18123749751988230697
11595378 159 16226311668939045269
11828042 226 18120926215378050189
12596602 18 14490472023346859158
13561361 72 18261946431594937269
13944108 23 17619345408327565957
14187579 7 18341044212028962269
14251751 18 10015589414953488643
14251764 38 18337954626708751941
14251764 75 17979079289381684705
14429114 114 18195804287566280041
14739800 52 18261379092168543827
15238133 3 18337096870342552050
15975801 100 17459463352126248308
17959699 21 18340487871407853578
21315763 129 18339641264718679382
21388113 180 18052537965279395312
21475661 188 18265049309537637256
2838139 119 18412260653374349687
312425 54 11242240819730079831
325973 47 18339644567765580761
328310 1195 18131072662040954660
3459 39 17603854607745709303
3472631 163 18267020562551817431
3552219 110 17915755369917631851
5104073 3 17458346299851873115
5283173 99 18411420630891022043
7808743 9 18335983057074800175

>  <PUBCHEM_SHAPE_MULTIPOLES>  (1) 
466.34
15.12
5.4
1.35
11.63
6.76
-0.35
13.36
3.69
3.4
-0.89
-0.84
-0.28
2.24

>  <PUBCHEM_SHAPE_SELFOVERLAP>  (1) 
918.047

>  <PUBCHEM_SHAPE_VOLUME>  (1) 
279

>  <PUBCHEM_COORDINATE_TYPE>  (1) 
2
5
10

$$$$
