42404
     RDKit          3D

 22 25  0  0  0  0  0  0  0  0999 V2000
   -0.1737   -0.0188    0.1493 N   0  0  0  0  0  0  0  0  0  0  0  0
    4.3424   -1.5547    0.1374 N   0  0  0  0  0  0  0  0  0  0  0  0
   -1.5074   -0.4100   -0.0331 C   0  0  0  0  0  0  0  0  0  0  0  0
    0.5707   -1.1640    0.3828 C   0  0  0  0  0  0  0  0  0  0  0  0
   -1.5512   -1.8115    0.0542 C   0  0  0  0  0  0  0  0  0  0  0  0
   -2.6780    0.3321   -0.3074 C   0  0  0  0  0  0  0  0  0  0  0  0
   -0.2431   -2.2649    0.3284 C   0  0  0  0  0  0  0  0  0  0  0  0
    0.3830    1.3024    0.0872 C   0  0  0  0  0  0  0  0  0  0  0  0
   -2.7107    1.8290   -0.4215 C   0  0  0  0  0  0  0  0  0  0  0  0
   -1.8456    2.4777    0.6463 C   0  0  0  0  0  0  0  0  0  0  0  0
   -0.3836    2.4678    0.2794 C   0  0  0  0  0  0  0  0  0  0  0  0
    1.9877   -1.2190    0.8289 C   0  0  0  0  0  0  0  0  0  0  0  0
   -2.7717   -2.4926   -0.1275 C   0  0  0  0  0  0  0  0  0  0  0  0
   -3.8746   -0.3866   -0.5085 C   0  0  0  0  0  0  0  0  0  0  0  0
    0.1662   -3.6699    0.5439 C   0  0  0  0  0  0  0  0  0  0  0  0
    2.9623   -1.4789   -0.3295 C   0  0  0  0  0  0  0  0  0  0  0  0
    1.7619    1.4333   -0.1811 C   0  0  0  0  0  0  0  0  0  0  0  0
   -3.9253   -1.7705   -0.4145 C   0  0  0  0  0  0  0  0  0  0  0  0
    0.2558    3.7240    0.1931 C   0  0  0  0  0  0  0  0  0  0  0  0
    2.3704    2.6868   -0.2646 C   0  0  0  0  0  0  0  0  0  0  0  0
    1.6169    3.8342   -0.0783 C   0  0  0  0  0  0  0  0  0  0  0  0
    5.2474   -1.8460   -0.9651 C   0  0  0  0  0  0  0  0  0  0  0  0
  1  3  1  0
  1  4  1  0
  1  8  1  0
  2 16  1  0
  2 22  1  0
  3  5  2  0
  3  6  1  0
  4  7  2  0
  4 12  1  0
  5  7  1  0
  5 13  1  0
  6  9  1  0
  6 14  2  0
  7 15  1  0
  8 11  2  0
  8 17  1  0
  9 10  1  0
 10 11  1  0
 11 19  1  0
 12 16  1  0
 13 18  2  0
 14 18  1  0
 17 20  2  0
 19 21  2  0
 20 21  1  0
M  END
>  <PUBCHEM_COMPOUND_CID>  (1) 
42404

>  <PUBCHEM_CONFORMER_RMSD>  (1) 
0.6

>  <PUBCHEM_CONFORMER_DIVERSEORDER>  (1) 
1
3
4
2

>  <PUBCHEM_MMFF94_PARTIAL_CHARGES>  (1) 
29
1 0.33
10 0.14
11 -0.14
12 0.18
13 -0.15
14 -0.15
15 0.18
16 0.27
17 -0.15
18 -0.15
19 -0.15
2 -0.9
20 -0.15
21 -0.15
22 0.27
29 0.15
3 -0.15
30 0.15
36 0.15
37 0.15
38 0.15
39 0.15
4 -0.33
40 0.15
41 0.36
6 -0.14
7 -0.18
8 -0.02
9 0.14

>  <PUBCHEM_EFFECTIVE_ROTOR_COUNT>  (1) 
3.4

>  <PUBCHEM_PHARMACOPHORE_FEATURES>  (1) 
7
1 1 cation
1 2 cation
1 2 donor
5 1 3 4 5 7 rings
6 3 5 6 13 14 18 rings
6 8 11 17 19 20 21 rings
7 1 3 6 8 9 10 11 rings

>  <PUBCHEM_HEAVY_ATOM_COUNT>  (1) 
22

>  <PUBCHEM_ATOM_DEF_STEREO_COUNT>  (1) 
0

>  <PUBCHEM_ATOM_UDEF_STEREO_COUNT>  (1) 
0

>  <PUBCHEM_BOND_DEF_STEREO_COUNT>  (1) 
0

>  <PUBCHEM_BOND_UDEF_STEREO_COUNT>  (1) 
0

>  <PUBCHEM_ISOTOPIC_ATOM_COUNT>  (1) 
0

>  <PUBCHEM_COMPONENT_COUNT>  (1) 
1

>  <PUBCHEM_CACTVS_TAUTO_COUNT>  (1) 
1

>  <PUBCHEM_CONFORMER_ID>  (1) 
0000A5A400000001

>  <PUBCHEM_MMFF94_ENERGY>  (1) 
78.0154

>  <PUBCHEM_FEATURE_SELFOVERLAP>  (1) 
35.66

>  <PUBCHEM_SHAPE_FINGERPRINT>  (1) 
10369192 42 17271972585596205834
10411042 1 18411138047560151955
10493431 412 17838905832525585865
10498660 4 18121214286394430038
10616163 171 17398948765720276608
10693767 8 17985810752574667119
10871710 139 18193566558196506812
10967382 1 17977380869584705201
1100329 8 18339365154277648625
11578080 2 16953339556698753876
11680986 33 18190462864198886187
12553582 1 18265606589928590675
12788726 201 18264213504897538586
13027679 85 18338514145204583517
13140716 1 18411705361405704473
138480 1 18339078293401126260
14790565 3 17764036765807419840
14955137 171 18193583093461926659
15042514 8 18122062005527886218
16728300 4 16965155123784406200
16945 1 18194111924442996571
19591789 44 18409731759265673841
19930381 70 17978226385225728639
20739085 24 18189920736922116833
20775438 99 17336428271455721327
20905425 154 18268432510652511165
2334 1 18337947999705654273
23366157 5 17969495099270745216
23402539 116 18268424647221903086
23419403 2 17702642424523943048
23557571 272 18057610871933719582
23559900 14 18340762758194752496
23566358 2 18337946887172208748
238 59 17616483701434216437
2748010 2 18338219540412433793
3084891 72 17474950303683184528
3178227 256 18193574272464868233
335352 9 18411418367823143493
350125 39 18408326588217567885
352729 6 16825295620722106617
484989 97 18335414669956292765
59755656 215 17977104883375661180
7364860 26 18195242441191755950
9709674 26 18193274323984334918

>  <PUBCHEM_SHAPE_MULTIPOLES>  (1) 
442.79
6.53
5.11
0.78
3.37
2.51
-0.01
-4.49
-2.03
2.09
0.41
0.15
-0.13
0.13

>  <PUBCHEM_SHAPE_SELFOVERLAP>  (1) 
976.068

>  <PUBCHEM_SHAPE_VOLUME>  (1) 
237.8

>  <PUBCHEM_COORDINATE_TYPE>  (1) 
2
5
10

$$$$
