42405
     RDKit          3D

 21 24  0  0  0  0  0  0  0  0999 V2000
   -0.0561   -0.1411    0.1738 N   0  0  0  0  0  0  0  0  0  0  0  0
    2.7142   -2.1301   -0.2933 N   0  0  0  0  0  0  0  0  0  0  0  0
   -1.4426   -0.2968    0.0382 C   0  0  0  0  0  0  0  0  0  0  0  0
   -2.4736    0.6320   -0.2278 C   0  0  0  0  0  0  0  0  0  0  0  0
    0.4838   -1.3928    0.4224 C   0  0  0  0  0  0  0  0  0  0  0  0
   -2.2479    2.1080   -0.3863 C   0  0  0  0  0  0  0  0  0  0  0  0
    0.7205    1.0600    0.0573 C   0  0  0  0  0  0  0  0  0  0  0  0
   -1.7277   -1.6662    0.1691 C   0  0  0  0  0  0  0  0  0  0  0  0
   -1.2502    2.6217    0.6384 C   0  0  0  0  0  0  0  0  0  0  0  0
    0.1755    2.3463    0.2340 C   0  0  0  0  0  0  0  0  0  0  0  0
   -0.5109   -2.3350    0.4226 C   0  0  0  0  0  0  0  0  0  0  0  0
    1.8795   -1.6938    0.8306 C   0  0  0  0  0  0  0  0  0  0  0  0
   -3.7830    0.1294   -0.3758 C   0  0  0  0  0  0  0  0  0  0  0  0
   -3.0533   -2.1271    0.0399 C   0  0  0  0  0  0  0  0  0  0  0  0
    2.0922    0.9402   -0.2508 C   0  0  0  0  0  0  0  0  0  0  0  0
    1.0214    3.4683    0.0930 C   0  0  0  0  0  0  0  0  0  0  0  0
   -4.0715   -1.2213   -0.2386 C   0  0  0  0  0  0  0  0  0  0  0  0
    2.9073    2.0650   -0.3880 C   0  0  0  0  0  0  0  0  0  0  0  0
    2.3718    3.3312   -0.2170 C   0  0  0  0  0  0  0  0  0  0  0  0
    2.1630   -3.3428   -0.8937 C   0  0  0  0  0  0  0  0  0  0  0  0
    4.0875   -2.3551    0.1521 C   0  0  0  0  0  0  0  0  0  0  0  0
  1  3  1  0
  1  5  1  0
  1  7  1  0
  2 12  1  0
  2 20  1  0
  2 21  1  0
  3  4  2  0
  3  8  1  0
  4  6  1  0
  4 13  1  0
  5 11  2  0
  5 12  1  0
  6  9  1  0
  7 10  2  0
  7 15  1  0
  8 11  1  0
  8 14  2  0
  9 10  1  0
 10 16  1  0
 13 17  2  0
 14 17  1  0
 15 18  2  0
 16 19  2  0
 18 19  1  0
M  END
>  <PUBCHEM_COMPOUND_CID>  (1) 
42405

>  <PUBCHEM_CONFORMER_RMSD>  (1) 
0.6

>  <PUBCHEM_CONFORMER_DIVERSEORDER>  (1) 
2
3
6
4
1
5

>  <PUBCHEM_MMFF94_PARTIAL_CHARGES>  (1) 
28
1 0.33
10 -0.14
11 -0.15
12 0.45
13 -0.15
14 -0.15
15 -0.15
16 -0.15
17 -0.15
18 -0.15
19 -0.15
2 -0.81
20 0.27
21 0.27
26 0.15
29 0.15
3 -0.15
30 0.15
31 0.15
32 0.15
33 0.15
34 0.15
35 0.15
4 -0.14
5 -0.33
6 0.14
7 -0.02
9 0.14

>  <PUBCHEM_EFFECTIVE_ROTOR_COUNT>  (1) 
2.4

>  <PUBCHEM_PHARMACOPHORE_FEATURES>  (1) 
6
1 1 cation
1 2 cation
5 1 3 5 8 11 rings
6 3 4 8 13 14 17 rings
6 7 10 15 16 18 19 rings
7 1 3 4 6 7 9 10 rings

>  <PUBCHEM_HEAVY_ATOM_COUNT>  (1) 
21

>  <PUBCHEM_ATOM_DEF_STEREO_COUNT>  (1) 
0

>  <PUBCHEM_ATOM_UDEF_STEREO_COUNT>  (1) 
0

>  <PUBCHEM_BOND_DEF_STEREO_COUNT>  (1) 
0

>  <PUBCHEM_BOND_UDEF_STEREO_COUNT>  (1) 
0

>  <PUBCHEM_ISOTOPIC_ATOM_COUNT>  (1) 
0

>  <PUBCHEM_COMPONENT_COUNT>  (1) 
1

>  <PUBCHEM_CACTVS_TAUTO_COUNT>  (1) 
1

>  <PUBCHEM_CONFORMER_ID>  (1) 
0000A5A500000002

>  <PUBCHEM_MMFF94_ENERGY>  (1) 
82.1089

>  <PUBCHEM_FEATURE_SELFOVERLAP>  (1) 
30.586

>  <PUBCHEM_SHAPE_FINGERPRINT>  (1) 
10411042 1 18338516331185175259
10493431 412 17550389531689699545
10498660 4 17688306789883274494
10693767 8 17627222699859022511
10967382 1 18193839472928902129
1100329 8 18194404381572462105
11578080 2 16951943125386790974
11680986 33 18411408493065673209
12173636 292 16969419613723428212
12553582 1 18267882583266946782
13027679 85 18265894653385308709
13140716 1 18266460901741764377
138480 1 18410573976862268372
14223421 5 18335419123035537965
14790565 3 17403467269238527488
14955137 171 17834422037070986273
15006816 218 18266458891712705272
15042514 8 17833269714172384914
15475509 8 17626689106407118341
16945 1 18338233894224967401
19591789 44 17762059147840831963
19930381 70 18266458904460372679
20028762 73 16830386960870858343
20510252 161 17405702580714130216
20905425 154 18412267258870325788
21041028 32 18339372868249447763
21524375 3 17830165067055280594
221490 88 18335425698535996955
2334 1 18409727326996840761
23366157 5 18040713705754468370
23402539 116 18050557457460142222
23419403 2 17970039263084973198
23557571 272 17984422932682291582
23559900 14 18411974780541031704
23566358 2 18409444765303655852
238 59 17760040311675044285
2748010 2 18266162947049242233
3084891 72 17979637067218516072
335352 9 18337388343876384045
350125 39 18264493897373633437
352729 6 17831019391895715753
43471831 8 18120370123077430080
484985 159 14224018733820009581
484989 97 18262512590832648277
6138700 20 18337957891785587268
7364860 26 18339078293190064726
81228 2 18051975814126295610
9709674 26 18335700597870389083

>  <PUBCHEM_SHAPE_MULTIPOLES>  (1) 
422.21
5.93
4.79
0.76
1.85
0.76
0
-2.23
0.8
-3.9
0.18
-0.1
-0.13
0.03

>  <PUBCHEM_SHAPE_SELFOVERLAP>  (1) 
937.007

>  <PUBCHEM_SHAPE_VOLUME>  (1) 
225.4

>  <PUBCHEM_COORDINATE_TYPE>  (1) 
2
5
10

$$$$
