42419
     RDKit          3D

 21 23  0  0  1  0  0  0  0  0999 V2000
    3.8599   -2.1031    0.0044 O   0  0  0  0  0  0  0  0  0  0  0  0
    4.9239    0.3859   -0.6166 O   0  0  0  0  0  0  0  0  0  0  0  0
   -0.6876    2.3556    0.8418 N   0  0  0  0  0  0  0  0  0  0  0  0
   -1.3763    1.1289    0.4192 C   0  0  0  0  0  0  0  0  0  0  0  0
   -0.5435   -0.1061    0.8016 C   0  0  0  0  0  0  0  0  0  0  0  0
    0.9041    0.0248    0.3988 C   0  0  0  0  0  0  0  0  0  0  0  0
   -2.7540    1.0752    1.0760 C   0  0  0  0  0  0  0  0  0  0  0  0
    0.5719    2.5170    0.1056 C   0  0  0  0  0  0  0  0  0  0  0  0
    1.4471    1.2883    0.1071 C   0  0  0  0  0  0  0  0  0  0  0  0
    1.7289   -1.1073    0.3712 C   0  0  0  0  0  0  0  0  0  0  0  0
   -3.6925    0.1735    0.3221 C   0  0  0  0  0  0  0  0  0  0  0  0
    2.7996    1.3941   -0.2438 C   0  0  0  0  0  0  0  0  0  0  0  0
    3.0760   -0.9892    0.0305 C   0  0  0  0  0  0  0  0  0  0  0  0
    3.6102    0.2597   -0.2787 C   0  0  0  0  0  0  0  0  0  0  0  0
   -4.4774    0.6991   -0.6958 C   0  0  0  0  0  0  0  0  0  0  0  0
   -3.7621   -1.1734    0.6530 C   0  0  0  0  0  0  0  0  0  0  0  0
   -5.3477   -0.1371   -1.3951 C   0  0  0  0  0  0  0  0  0  0  0  0
   -4.6323   -2.0096   -0.0465 C   0  0  0  0  0  0  0  0  0  0  0  0
   -5.4251   -1.4913   -1.0705 C   0  0  0  0  0  0  0  0  0  0  0  0
    4.5257   -2.4554    1.2155 C   0  0  0  0  0  0  0  0  0  0  0  0
    5.2512    0.2705   -1.9999 C   0  0  0  0  0  0  0  0  0  0  0  0
  1 13  1  0
  1 20  1  0
  2 14  1  0
  2 21  1  0
  3  4  1  0
  3  8  1  0
  4  5  1  0
  4  7  1  0
  5  6  1  0
  6  9  2  0
  6 10  1  0
  7 11  1  0
  8  9  1  0
  9 12  1  0
 10 13  2  0
 11 15  2  0
 11 16  1  0
 12 14  2  0
 13 14  1  0
 15 17  1  0
 16 18  2  0
 17 19  2  0
 18 19  1  0
M  END
>  <PUBCHEM_COMPOUND_CID>  (1) 
42419

>  <PUBCHEM_CONFORMER_RMSD>  (1) 
0.8

>  <PUBCHEM_CONFORMER_DIVERSEORDER>  (1) 
2
10
1
8
7
12
13
15
5
4
14
3
9
6
11

>  <PUBCHEM_MMFF94_PARTIAL_CHARGES>  (1) 
29
1 -0.36
10 -0.15
11 -0.14
12 -0.15
13 0.08
14 0.08
15 -0.15
16 -0.15
17 -0.15
18 -0.15
19 -0.15
2 -0.36
20 0.28
21 0.28
27 0.36
3 -0.9
30 0.15
31 0.15
32 0.15
33 0.15
34 0.15
35 0.15
36 0.15
4 0.27
5 0.14
6 -0.14
7 0.14
8 0.41
9 -0.14

>  <PUBCHEM_EFFECTIVE_ROTOR_COUNT>  (1) 
4.8

>  <PUBCHEM_PHARMACOPHORE_FEATURES>  (1) 
7
1 1 acceptor
1 2 acceptor
1 3 cation
1 3 donor
6 11 15 16 17 18 19 rings
6 3 4 5 6 8 9 rings
6 6 9 10 12 13 14 rings

>  <PUBCHEM_HEAVY_ATOM_COUNT>  (1) 
21

>  <PUBCHEM_ATOM_DEF_STEREO_COUNT>  (1) 
0

>  <PUBCHEM_ATOM_UDEF_STEREO_COUNT>  (1) 
1

>  <PUBCHEM_BOND_DEF_STEREO_COUNT>  (1) 
0

>  <PUBCHEM_BOND_UDEF_STEREO_COUNT>  (1) 
0

>  <PUBCHEM_ISOTOPIC_ATOM_COUNT>  (1) 
0

>  <PUBCHEM_COMPONENT_COUNT>  (1) 
1

>  <PUBCHEM_CACTVS_TAUTO_COUNT>  (1) 
1

>  <PUBCHEM_CONFORMER_ID>  (1) 
0000A5B300000002

>  <PUBCHEM_MMFF94_ENERGY>  (1) 
73.6628

>  <PUBCHEM_FEATURE_SELFOVERLAP>  (1) 
35.546

>  <PUBCHEM_SHAPE_FINGERPRINT>  (1) 
10447042 23 18409724058779838702
105312 117 15068344518721337075
11069576 57 18115021888658172754
11089746 13 13768206146517513062
11545043 162 15554176865305806840
11796584 16 17917715699447121789
12596602 18 12895063029573194295
12670546 177 18113337530942680501
12892183 10 12175622901927116877
13540713 5 18118698617144738800
13862211 1 18413109463824546338
14251764 30 16917077637545195606
14576447 43 18412828005726992020
14767858 380 18265067975724430468
14848178 5 18272642416300821539
14950920 106 13326856617187952039
15183329 4 18341326722361836181
15188451 53 14620502476957670717
15238133 3 11458427938281232118
15250474 111 18339077090541635051
15342816 4 18343028778624030116
15352361 1 18413103948907339683
15537594 2 18339093639340380619
15880784 105 16343421803918518939
17349148 13 17989212550918250803
17857418 61 18410851027922652002
1798214 20 18413385449616800885
18222031 100 17917990581190200868
193927 3 17774731934500614565
200 152 18342175570585900545
20028762 73 18341604864049162934
20281475 54 18412546483432100273
20871999 31 18335420166976497433
21054139 6 18410017658781541974
21065199 12 10735891603324492541
21250096 35 18343861126116603625
21267235 1 18270975634161547635
21637258 2 16630251320783798212
221357 26 18336538409262392173
221490 88 18192435384148959251
22393880 68 18040983060676491091
23402539 116 18343589524958619425
23402655 69 18259705571078161709
23559900 14 18339636866878124185
23622692 118 18264485088558830554
2838139 119 15719396191376913468
2871803 45 18410011056736442704
2916195 48 13118288121684248365
3004659 81 18114457869078196026
312425 54 14836408042816844015
314194 84 18411142428384245523
351380 3 17917714634274185431
4259306 186 18411415120521710975
439807 62 18261672675439302795
46194498 28 17532087375225093541
4921388 177 16878228658163682843
5104073 3 18272933799750929449
59682541 52 17386827462401190683
602551 16 15984816073286218055
636775 72 8067443910062829662
76465 3 18340200804409753178
7808743 9 8790299158686679778
960060 61 18113338608958177748
9709674 26 18190737729890795971

>  <PUBCHEM_SHAPE_MULTIPOLES>  (1) 
415.45
12.98
2.41
1.24
3.91
0.19
-0.4
6.4
-5.43
-0.9
0.58
-0.28
0.06
-1.34

>  <PUBCHEM_SHAPE_SELFOVERLAP>  (1) 
888.936

>  <PUBCHEM_SHAPE_VOLUME>  (1) 
230.4

>  <PUBCHEM_COORDINATE_TYPE>  (1) 
2
5
10

$$$$
