42412
     RDKit          3D

 28 31  0  0  0  0  0  0  0  0999 V2000
   -6.5524    3.9784    0.5256 F   0  0  0  0  0  0  0  0  0  0  0  0
   -5.5131   -2.0231   -0.9784 O   0  0  0  0  0  0  0  0  0  0  0  0
    1.8999   -0.8142    0.0063 N   0  0  0  0  0  0  0  0  0  0  0  0
   -0.5780   -2.1885    0.3678 N   0  0  0  0  0  0  0  0  0  0  0  0
    0.7391   -0.4645   -0.8182 C   0  0  0  0  0  0  0  0  0  0  0  0
    1.5962   -1.4590    1.2900 C   0  0  0  0  0  0  0  0  0  0  0  0
   -0.2060   -1.6613   -0.9507 C   0  0  0  0  0  0  0  0  0  0  0  0
    0.6245   -2.6241    1.0889 C   0  0  0  0  0  0  0  0  0  0  0  0
    3.0716   -0.0550   -0.0873 C   0  0  0  0  0  0  0  0  0  0  0  0
   -1.5225   -3.2965    0.2296 C   0  0  0  0  0  0  0  0  0  0  0  0
    5.4933    0.0956    0.0527 C   0  0  0  0  0  0  0  0  0  0  0  0
    5.4214    1.4667   -0.2561 C   0  0  0  0  0  0  0  0  0  0  0  0
    6.8106   -0.5783    0.3458 C   0  0  0  0  0  0  0  0  0  0  0  0
    6.6643    2.3102   -0.3930 C   0  0  0  0  0  0  0  0  0  0  0  0
    8.0176    0.2149   -0.1517 C   0  0  0  0  0  0  0  0  0  0  0  0
    7.8962    1.6785    0.2525 C   0  0  0  0  0  0  0  0  0  0  0  0
    4.3097   -0.6520    0.1473 C   0  0  0  0  0  0  0  0  0  0  0  0
   -2.8002   -2.8188   -0.4636 C   0  0  0  0  0  0  0  0  0  0  0  0
    3.0020    1.2963   -0.4129 C   0  0  0  0  0  0  0  0  0  0  0  0
    4.1702    2.0530   -0.4997 C   0  0  0  0  0  0  0  0  0  0  0  0
   -3.5012   -1.7026    0.3156 C   0  0  0  0  0  0  0  0  0  0  0  0
   -4.8164   -1.2619   -0.3114 C   0  0  0  0  0  0  0  0  0  0  0  0
   -5.2807    0.1369   -0.0876 C   0  0  0  0  0  0  0  0  0  0  0  0
   -4.9304    0.7699    1.0840 C   0  0  0  0  0  0  0  0  0  0  0  0
   -6.0415    0.7448   -1.0612 C   0  0  0  0  0  0  0  0  0  0  0  0
   -5.3638    2.0794    1.2929 C   0  0  0  0  0  0  0  0  0  0  0  0
   -6.4747    2.0542   -0.8522 C   0  0  0  0  0  0  0  0  0  0  0  0
   -6.1359    2.7214    0.3248 C   0  0  0  0  0  0  0  0  0  0  0  0
  1 28  1  0
  2 22  2  0
  3  5  1  0
  3  6  1  0
  3  9  1  0
  4  7  1  0
  4  8  1  0
  4 10  1  0
  5  7  1  0
  6  8  1  0
  9 17  2  0
  9 19  1  0
 10 18  1  0
 11 12  2  0
 11 13  1  0
 11 17  1  0
 12 14  1  0
 12 20  1  0
 13 15  1  0
 14 16  1  0
 15 16  1  0
 18 21  1  0
 19 20  2  0
 21 22  1  0
 22 23  1  0
 23 24  2  0
 23 25  1  0
 24 26  1  0
 25 27  2  0
 26 28  2  0
 27 28  1  0
M  END
>  <PUBCHEM_COMPOUND_CID>  (1) 
42412

>  <PUBCHEM_CONFORMER_RMSD>  (1) 
1

>  <PUBCHEM_CONFORMER_DIVERSEORDER>  (1) 
1
112
44
25
22
86
189
134
57
4
107
39
157
121
40
136
202
109
142
175
135
126
60
115
67
51
131
56
171
2
167
35
70
179
185
81
8
124
47
45
205
201
113
156
73
132
87
110
21
133
85
130
147
206
106
38
99
48
146
29
207
198
72
31
15
20
97
30
26
66
49
92
164
108
78
46
5
71
114
59
129
65
137
128
89
200
144
28
68
64
53
187
18
150
174
169
32
162
84
155
138
77
34
143
23
13
19
125
96
163
54
102
159
62
17
55
184
154
176
41
6
145
82
152
11
101
199
9
149
93
36
204
61
91
141
139
63
122
105
194
111
173
181
190
127
148
43
177
33
195
83
117
118
166
42
188
52
180
161
58
120
172
193
140
183
95
37
192
98
208
10
151
3
153
69
103
123
178
79
90
80
160
104
168
76
203
100
50
182
170
119
7
116
27
94
24
196
191
16
14
197
186
75
158
12
88
74
165

>  <PUBCHEM_MMFF94_PARTIAL_CHARGES>  (1) 
32
1 -0.19
10 0.27
11 -0.14
12 -0.14
13 0.14
14 0.14
17 -0.15
19 -0.15
2 -0.57
20 -0.15
21 0.06
22 0.42
23 0.09
24 -0.15
25 -0.15
26 -0.15
27 -0.15
28 0.19
3 -0.84
4 -0.81
47 0.15
5 0.37
50 0.15
51 0.15
54 0.15
55 0.15
56 0.15
57 0.15
6 0.37
7 0.27
8 0.27
9 0.1

>  <PUBCHEM_EFFECTIVE_ROTOR_COUNT>  (1) 
8

>  <PUBCHEM_PHARMACOPHORE_FEATURES>  (1) 
7
1 2 acceptor
1 3 cation
1 4 cation
6 11 12 13 14 15 16 rings
6 23 24 25 26 27 28 rings
6 3 4 5 6 7 8 rings
6 9 11 12 17 19 20 rings

>  <PUBCHEM_HEAVY_ATOM_COUNT>  (1) 
28

>  <PUBCHEM_ATOM_DEF_STEREO_COUNT>  (1) 
0

>  <PUBCHEM_ATOM_UDEF_STEREO_COUNT>  (1) 
0

>  <PUBCHEM_BOND_DEF_STEREO_COUNT>  (1) 
0

>  <PUBCHEM_BOND_UDEF_STEREO_COUNT>  (1) 
0

>  <PUBCHEM_ISOTOPIC_ATOM_COUNT>  (1) 
0

>  <PUBCHEM_COMPONENT_COUNT>  (1) 
1

>  <PUBCHEM_CACTVS_TAUTO_COUNT>  (1) 
2

>  <PUBCHEM_CONFORMER_ID>  (1) 
0000A5AC00000001

>  <PUBCHEM_MMFF94_ENERGY>  (1) 
74.5821

>  <PUBCHEM_FEATURE_SELFOVERLAP>  (1) 
35.546

>  <PUBCHEM_SHAPE_FINGERPRINT>  (1) 
100830 39 18410856602990532119
10670039 82 18341888623989705307
10674148 151 18187080685971869178
10906281 52 17822865298639158246
10917259 69 18340209562502444040
10951579 204 18269012924761175388
11135609 201 18340496591193674571
11273773 42 18201434733011039829
11456790 92 18187076292062245696
11475781 23 18201729440132649596
12107183 9 18262789675572612850
13167372 99 18410011061585038102
13690498 29 17844801693532164607
13782708 43 8934733179987013022
13914758 101 18341897415988408658
14251764 75 18197788704939552209
14347329 18 18412819188401902571
14394314 77 18336549326811808913
14919807 6 18269572585011591580
14950920 106 13551481367165721359
15183329 4 18261104214725946306
15289351 153 18410284801283652210
15419008 42 17988939850866058886
15439362 3 18340771420959991023
155225 6 18124600778594313649
15604295 49 18057037133402895712
1577012 14 18409726257550068626
15980000 95 17401203370053933954
16992727 255 18413673500014830104
17780758 139 11819267850771396631
19053607 189 18124020249065261737
19438510 23 18186805751576352955
21223535 225 18342170107345354324
21298829 104 18408041819079796218
21424621 283 18335420201204672658
21774942 28 18272371940972609228
21781051 124 12901540210155272768
22864921 47 11599454529570368492
23522609 53 17604446222759198820
2748736 6 18410286987274397185
2838139 119 18342457092379950991
3711267 37 17895483652171170892
393628 194 18411984620707538429
397830 11 11747222415406082286
4073 2 17751360797583790466
4144715 1 18263374731764910882
4169191 19 18334570243918807070
437795 171 17756422656755106677
44555599 121 18261114140485090540
445580 204 18342455945903147337
44802255 64 17417532517932388311
5104073 3 17749106686455338035
5372103 7 17824242836706751701
54039377 194 10519699025711807341
563151 74 17095527253794314507
6299153 45 18336544928585385066
6328613 192 18409165536858513226
636775 72 18194960966838265296
6376802 90 18341904029626998726
99344 41 18412261718911308654
999808 66 10809340048747209001

>  <PUBCHEM_SHAPE_MULTIPOLES>  (1) 
553.12
24.03
3.83
1.03
11.46
0.39
0.1
20.32
-0.58
-5.98
0.43
-1
-0.02
-1.68

>  <PUBCHEM_SHAPE_SELFOVERLAP>  (1) 
1179.441

>  <PUBCHEM_SHAPE_VOLUME>  (1) 
307.9

>  <PUBCHEM_COORDINATE_TYPE>  (1) 
2
5
10

$$$$
