42428
     RDKit          3D

 14 15  0  0  0  0  0  0  0  0999 V2000
    0.1895    1.3268    0.3151 O   0  0  0  0  0  0  0  0  0  0  0  0
   -2.5033    1.5480    0.4152 O   0  0  0  0  0  0  0  0  0  0  0  0
    4.4068    0.7385   -0.0615 O   0  0  0  0  0  0  0  0  0  0  0  0
    0.0254   -1.0806   -0.0233 C   0  0  0  0  0  0  0  0  0  0  0  0
   -0.5451    0.1831    0.1608 C   0  0  0  0  0  0  0  0  0  0  0  0
    1.5984    1.2632    0.0416 C   0  0  0  0  0  0  0  0  0  0  0  0
    2.2004   -0.1035   -0.0333 C   0  0  0  0  0  0  0  0  0  0  0  0
    1.4745   -1.2233   -0.0622 C   0  0  0  0  0  0  0  0  0  0  0  0
   -1.9337    0.3242    0.2266 C   0  0  0  0  0  0  0  0  0  0  0  0
   -0.8060   -2.1999   -0.1492 C   0  0  0  0  0  0  0  0  0  0  0  0
   -2.7562   -0.7941    0.0968 C   0  0  0  0  0  0  0  0  0  0  0  0
   -2.1931   -2.0547   -0.0918 C   0  0  0  0  0  0  0  0  0  0  0  0
    3.6581   -0.2313   -0.0818 C   0  0  0  0  0  0  0  0  0  0  0  0
   -2.8158    2.3036   -0.7529 C   0  0  0  0  0  0  0  0  0  0  0  0
  1  5  1  0
  1  6  1  0
  2  9  1  0
  2 14  1  0
  3 13  2  0
  4  5  2  0
  4  8  1  0
  4 10  1  0
  5  9  1  0
  6  7  1  0
  7  8  2  0
  7 13  1  0
  9 11  2  0
 10 12  2  0
 11 12  1  0
M  END
>  <PUBCHEM_COMPOUND_CID>  (1) 
42428

>  <PUBCHEM_CONFORMER_RMSD>  (1) 
0.6

>  <PUBCHEM_CONFORMER_DIVERSEORDER>  (1) 
1
2

>  <PUBCHEM_MMFF94_PARTIAL_CHARGES>  (1) 
19
1 -0.36
10 -0.15
11 -0.15
12 -0.15
13 0.5
14 0.28
17 0.15
18 0.15
19 0.15
2 -0.36
20 0.15
21 0.06
3 -0.57
4 0.03
5 0.08
6 0.42
7 -0.12
8 -0.18
9 0.08

>  <PUBCHEM_EFFECTIVE_ROTOR_COUNT>  (1) 
2.4

>  <PUBCHEM_PHARMACOPHORE_FEATURES>  (1) 
5
1 1 acceptor
1 2 acceptor
1 3 acceptor
6 1 4 5 6 7 8 rings
6 4 5 9 10 11 12 rings

>  <PUBCHEM_HEAVY_ATOM_COUNT>  (1) 
14

>  <PUBCHEM_ATOM_DEF_STEREO_COUNT>  (1) 
0

>  <PUBCHEM_ATOM_UDEF_STEREO_COUNT>  (1) 
0

>  <PUBCHEM_BOND_DEF_STEREO_COUNT>  (1) 
0

>  <PUBCHEM_BOND_UDEF_STEREO_COUNT>  (1) 
0

>  <PUBCHEM_ISOTOPIC_ATOM_COUNT>  (1) 
0

>  <PUBCHEM_COMPONENT_COUNT>  (1) 
1

>  <PUBCHEM_CACTVS_TAUTO_COUNT>  (1) 
1

>  <PUBCHEM_CONFORMER_ID>  (1) 
0000A5BC00000001

>  <PUBCHEM_MMFF94_ENERGY>  (1) 
48.0906

>  <PUBCHEM_FEATURE_SELFOVERLAP>  (1) 
25.409

>  <PUBCHEM_SHAPE_FINGERPRINT>  (1) 
10608611 8 18341891935188035360
10967382 1 18195247715321918184
11132069 177 18412260623657452216
11206711 2 18412260670617321055
12138202 97 18340764853874899759
12500047 106 18411411778926651040
13024252 1 17676486198319350051
13140716 1 18051418662473727843
13380535 76 18339920399064677775
14144814 61 18410011052752672938
14325111 11 18411420596626131690
14614273 12 18408604738741723183
15219456 202 18059304175390226366
15775835 57 18261958453044036673
16945 1 18338795723007392547
18186145 218 18199759050554738396
20510252 161 18272375282055940547
20645477 56 18411423899181942072
20871998 184 18129950086402324215
21501502 16 18267872872234945216
21524375 3 18264204717082746699
2334 1 18339924814064451531
23402539 116 18271238443411298543
23402655 69 18198047085629367917
23463225 33 18408885131576747994
23552423 10 18118683467977291142
23559900 14 18201158755381114030
25 1 18122902028211394301
2748010 2 18268722605808121127
305870 269 18188207576750521762
3071541 12 17548138831524187479
528886 8 18339919307894954425
53812653 166 18343019960728948408
6333449 129 18413669106099242281
7364860 26 17839463628660540080
8809292 202 18190463963652797138

>  <PUBCHEM_SHAPE_MULTIPOLES>  (1) 
270.51
5.64
2.33
0.66
4.84
0.04
-0.03
1.61
-0.33
-2.03
-0.28
-0.15
0.09
0.22

>  <PUBCHEM_SHAPE_SELFOVERLAP>  (1) 
582.432

>  <PUBCHEM_SHAPE_VOLUME>  (1) 
148.6

>  <PUBCHEM_COORDINATE_TYPE>  (1) 
2
5
10

$$$$
