42430
     RDKit          3D

 14 15  0  0  0  0  0  0  0  0999 V2000
    1.1148    1.7638    0.0741 O   0  0  0  0  0  0  0  0  0  0  0  0
   -3.5789   -1.1347   -0.0289 O   0  0  0  0  0  0  0  0  0  0  0  0
    4.7567   -0.4709   -0.0476 O   0  0  0  0  0  0  0  0  0  0  0  0
    0.0138   -0.4095    0.0323 C   0  0  0  0  0  0  0  0  0  0  0  0
   -0.0119    0.9890    0.0329 C   0  0  0  0  0  0  0  0  0  0  0  0
    2.3823    1.1189   -0.1296 C   0  0  0  0  0  0  0  0  0  0  0  0
    1.2895   -1.1112    0.0728 C   0  0  0  0  0  0  0  0  0  0  0  0
    2.3975   -0.3713   -0.0078 C   0  0  0  0  0  0  0  0  0  0  0  0
   -1.1921   -1.1204    0.0122 C   0  0  0  0  0  0  0  0  0  0  0  0
   -1.2325    1.6692    0.0218 C   0  0  0  0  0  0  0  0  0  0  0  0
   -2.4096   -0.4382   -0.0076 C   0  0  0  0  0  0  0  0  0  0  0  0
   -2.4297    0.9551   -0.0019 C   0  0  0  0  0  0  0  0  0  0  0  0
    3.6870   -1.0642    0.0217 C   0  0  0  0  0  0  0  0  0  0  0  0
   -4.7868   -0.3754   -0.0445 C   0  0  0  0  0  0  0  0  0  0  0  0
  1  5  1  0
  1  6  1  0
  2 11  1  0
  2 14  1  0
  3 13  2  0
  4  5  2  0
  4  7  1  0
  4  9  1  0
  5 10  1  0
  6  8  1  0
  7  8  2  0
  8 13  1  0
  9 11  2  0
 10 12  2  0
 11 12  1  0
M  END
>  <PUBCHEM_COMPOUND_CID>  (1) 
42430

>  <PUBCHEM_CONFORMER_RMSD>  (1) 
0.6

>  <PUBCHEM_CONFORMER_DIVERSEORDER>  (1) 
1
2

>  <PUBCHEM_MMFF94_PARTIAL_CHARGES>  (1) 
19
1 -0.36
10 -0.15
11 0.08
12 -0.15
13 0.5
14 0.28
17 0.15
18 0.15
19 0.15
2 -0.36
20 0.15
21 0.06
3 -0.57
4 0.03
5 0.08
6 0.42
7 -0.18
8 -0.12
9 -0.15

>  <PUBCHEM_EFFECTIVE_ROTOR_COUNT>  (1) 
2.4

>  <PUBCHEM_PHARMACOPHORE_FEATURES>  (1) 
5
1 1 acceptor
1 2 acceptor
1 3 acceptor
6 1 4 5 6 7 8 rings
6 4 5 9 10 11 12 rings

>  <PUBCHEM_HEAVY_ATOM_COUNT>  (1) 
14

>  <PUBCHEM_ATOM_DEF_STEREO_COUNT>  (1) 
0

>  <PUBCHEM_ATOM_UDEF_STEREO_COUNT>  (1) 
0

>  <PUBCHEM_BOND_DEF_STEREO_COUNT>  (1) 
0

>  <PUBCHEM_BOND_UDEF_STEREO_COUNT>  (1) 
0

>  <PUBCHEM_ISOTOPIC_ATOM_COUNT>  (1) 
0

>  <PUBCHEM_COMPONENT_COUNT>  (1) 
1

>  <PUBCHEM_CACTVS_TAUTO_COUNT>  (1) 
1

>  <PUBCHEM_CONFORMER_ID>  (1) 
0000A5BE00000001

>  <PUBCHEM_MMFF94_ENERGY>  (1) 
46.0358

>  <PUBCHEM_FEATURE_SELFOVERLAP>  (1) 
25.402

>  <PUBCHEM_SHAPE_FINGERPRINT>  (1) 
11401426 45 18411975867009333119
11471102 20 18410007775666057397
11543360 7 15719684245890229070
11806522 49 18409448102598661494
12032990 46 18410858758668462795
13288520 33 18340771451277079574
13690532 89 18409448072438990314
13760787 5 18335987557920678781
13862211 1 18410568483362259123
14115302 16 17749681769348192678
14252887 29 17988651770092210094
14911166 2 18334852818776157023
15196674 1 18410575093300733125
15536298 74 18343018934516802448
16945 1 18410576175605897113
17802600 8 18410289211655837348
18186145 218 17604138320421453535
18522853 276 18413670205690082432
200 152 18202557380841129535
20201158 50 18409731750681351739
20510252 161 18201719496719129688
20645477 70 18411135865995989927
20871998 184 18130785603480178340
20871998 22 18200603488201136350
21029758 11 18341890796684156785
21267235 1 18410583876477328355
21501502 16 18410582785555732613
21501925 9 18411131446495409912
221490 88 18118691143310826059
23402539 116 18343293765189675447
23402655 69 18411131416668158829
23463225 33 18410013234258234724
23559900 14 18338514248478983896
2748010 2 18049445038906430859
43471831 8 18190458268652919106
5104073 3 18411419518236043393
7364860 26 18270116954404220112
8809292 202 18187932823592899267

>  <PUBCHEM_SHAPE_MULTIPOLES>  (1) 
270.51
7.48
1.62
0.6
0.2
0.5
0
-2.51
0.19
-0.01
-0.01
0.01
0
-0.04

>  <PUBCHEM_SHAPE_SELFOVERLAP>  (1) 
582.591

>  <PUBCHEM_SHAPE_VOLUME>  (1) 
149

>  <PUBCHEM_COORDINATE_TYPE>  (1) 
2
5
10

$$$$
