42434
     RDKit          3D

 15 16  0  0  0  0  0  0  0  0999 V2000
    0.1881    1.6885    0.2086 O   0  0  0  0  0  0  0  0  0  0  0  0
   -4.1726   -0.1446   -0.0200 O   0  0  0  0  0  0  0  0  0  0  0  0
    4.3476    0.8407   -0.5403 O   0  0  0  0  0  0  0  0  0  0  0  0
   -0.0529   -0.7216   -0.0560 C   0  0  0  0  0  0  0  0  0  0  0  0
   -0.5825    0.5669    0.0687 C   0  0  0  0  0  0  0  0  0  0  0  0
    2.1554    0.1772   -0.0295 C   0  0  0  0  0  0  0  0  0  0  0  0
    1.6014    1.5661   -0.0183 C   0  0  0  0  0  0  0  0  0  0  0  0
    1.3905   -0.9166   -0.0446 C   0  0  0  0  0  0  0  0  0  0  0  0
   -0.9203   -1.8145   -0.1713 C   0  0  0  0  0  0  0  0  0  0  0  0
   -1.9664    0.7590    0.0861 C   0  0  0  0  0  0  0  0  0  0  0  0
   -2.8247   -0.3334   -0.0328 C   0  0  0  0  0  0  0  0  0  0  0  0
   -2.3022   -1.6187   -0.1623 C   0  0  0  0  0  0  0  0  0  0  0  0
    3.6083   -0.0035   -0.0280 C   0  0  0  0  0  0  0  0  0  0  0  0
    4.1693   -1.2425    0.6239 C   0  0  0  0  0  0  0  0  0  0  0  0
   -4.6391    1.1969    0.1156 C   0  0  0  0  0  0  0  0  0  0  0  0
  1  5  1  0
  1  7  1  0
  2 11  1  0
  2 15  1  0
  3 13  2  0
  4  5  2  0
  4  8  1  0
  4  9  1  0
  5 10  1  0
  6  7  1  0
  6  8  2  0
  6 13  1  0
  9 12  2  0
 10 11  2  0
 11 12  1  0
 13 14  1  0
M  END
>  <PUBCHEM_COMPOUND_CID>  (1) 
42434

>  <PUBCHEM_CONFORMER_RMSD>  (1) 
0.6

>  <PUBCHEM_CONFORMER_DIVERSEORDER>  (1) 
5
2
4
1
3
6

>  <PUBCHEM_MMFF94_PARTIAL_CHARGES>  (1) 
19
1 -0.36
10 -0.15
11 0.08
12 -0.15
13 0.49
14 0.06
15 0.28
18 0.15
19 0.15
2 -0.36
20 0.15
21 0.15
3 -0.57
4 0.03
5 0.08
6 -0.12
7 0.42
8 -0.18
9 -0.15

>  <PUBCHEM_EFFECTIVE_ROTOR_COUNT>  (1) 
2.4

>  <PUBCHEM_PHARMACOPHORE_FEATURES>  (1) 
5
1 1 acceptor
1 2 acceptor
1 3 acceptor
6 1 4 5 6 7 8 rings
6 4 5 9 10 11 12 rings

>  <PUBCHEM_HEAVY_ATOM_COUNT>  (1) 
15

>  <PUBCHEM_ATOM_DEF_STEREO_COUNT>  (1) 
0

>  <PUBCHEM_ATOM_UDEF_STEREO_COUNT>  (1) 
0

>  <PUBCHEM_BOND_DEF_STEREO_COUNT>  (1) 
0

>  <PUBCHEM_BOND_UDEF_STEREO_COUNT>  (1) 
0

>  <PUBCHEM_ISOTOPIC_ATOM_COUNT>  (1) 
0

>  <PUBCHEM_COMPONENT_COUNT>  (1) 
1

>  <PUBCHEM_CACTVS_TAUTO_COUNT>  (1) 
2

>  <PUBCHEM_CONFORMER_ID>  (1) 
0000A5C200000005

>  <PUBCHEM_MMFF94_ENERGY>  (1) 
51.9794

>  <PUBCHEM_FEATURE_SELFOVERLAP>  (1) 
25.402

>  <PUBCHEM_SHAPE_FINGERPRINT>  (1) 
10062212 137 18340760515979399879
10130415 120 18409726270545434962
10608611 8 18269270330065541817
10967382 1 18411700945968236246
11132069 177 18342453742374038362
11401426 45 18272645744820932297
11471102 20 18410570678026646364
12119455 92 17131827642679837079
124424 183 18335136496812627507
13221675 6 18409165519362204418
13380535 76 18342177752229184119
13675066 3 18259987088861893363
13690532 89 18410291397778301819
13760787 19 18259989301202879150
13760787 5 18260543424644917070
13862211 1 18412257324954179487
13922767 16 18272649056230363073
14115302 16 18260277360190108742
14144814 61 18411136952664731794
14911166 2 18341896298500138373
14943859 89 18333450945576820403
14993402 34 18413672413218804989
15099037 51 18411697669256121837
15196674 1 18410855481603011267
15242433 33 18408044017976503158
15375358 24 18060139838243851726
15375462 189 18187076243905059922
15536298 74 18200311164353404576
15775835 57 18333733524196608687
16945 1 18342750614766281111
17804303 29 18341896319932731184
18186145 218 17313097571021705242
18511873 20 18410009957256242531
18522853 276 18342454833353818912
200 152 17847055601873240967
20645476 183 17969801849961591038
20645477 70 18409166576219967630
21267235 1 18409738326698418018
21501502 16 18195244640183369695
23402539 116 18130496466529718373
23402655 69 18271797966344587141
23463225 33 18409165506941500142
23559900 14 18272651268945511968
25 1 18410288074085447079
2748010 2 18124310777072681239
335352 9 18339079293875084694
34934 24 18339919411517410336
4072396 5 18267854012943923395
5104073 3 18410292540266029194
528886 8 18413385445132014075
53655031 270 18410572842695516307
537710 114 18411421704669873124
53812653 166 18341891891937428747
6430166 295 18410290294288230805
69090 78 18272365382388678423
7364860 26 18055352706736064256
8809292 202 18261958547633888483

>  <PUBCHEM_SHAPE_MULTIPOLES>  (1) 
291.09
8.05
1.75
0.65
0.12
0.12
-0.01
-0.85
-0.26
-0.21
0
0.16
0.03
-0.44

>  <PUBCHEM_SHAPE_SELFOVERLAP>  (1) 
624.519

>  <PUBCHEM_SHAPE_VOLUME>  (1) 
160.6

>  <PUBCHEM_COORDINATE_TYPE>  (1) 
2
5
10

$$$$
