42437
     RDKit          3D

 18 19  0  0  1  0  0  0  0  0999 V2000
   -0.0014   -1.7924    0.2464 O   0  0  0  0  0  0  0  0  0  0  0  0
   -3.5669    0.0990    0.3337 O   0  0  0  0  0  0  0  0  0  0  0  0
    4.6102    1.2293    0.0439 O   0  0  0  0  0  0  0  0  0  0  0  0
   -2.8226    2.0311   -0.7019 O   0  0  0  0  0  0  0  0  0  0  0  0
   -1.2582   -1.2342   -0.1907 C   0  0  0  0  0  0  0  0  0  0  0  0
   -1.3339    0.2668   -0.1642 C   0  0  0  0  0  0  0  0  0  0  0  0
    1.0419    0.3941    0.0139 C   0  0  0  0  0  0  0  0  0  0  0  0
    1.1084   -0.9942    0.1696 C   0  0  0  0  0  0  0  0  0  0  0  0
   -0.2562    1.0500   -0.0675 C   0  0  0  0  0  0  0  0  0  0  0  0
   -1.5530   -1.7922   -1.5827 C   0  0  0  0  0  0  0  0  0  0  0  0
    2.2258    1.1392   -0.0271 C   0  0  0  0  0  0  0  0  0  0  0  0
    2.3453   -1.6307    0.2946 C   0  0  0  0  0  0  0  0  0  0  0  0
   -2.6427    0.9230   -0.2219 C   0  0  0  0  0  0  0  0  0  0  0  0
    3.4618    0.4999    0.0856 C   0  0  0  0  0  0  0  0  0  0  0  0
    3.5211   -0.8831    0.2477 C   0  0  0  0  0  0  0  0  0  0  0  0
   -4.9063    0.6035    0.3512 C   0  0  0  0  0  0  0  0  0  0  0  0
   -5.8115   -0.4235    0.9973 C   0  0  0  0  0  0  0  0  0  0  0  0
    5.8382    0.5145    0.1720 C   0  0  0  0  0  0  0  0  0  0  0  0
  1  5  1  0
  1  8  1  0
  2 13  1  0
  2 16  1  0
  3 14  1  0
  3 18  1  0
  4 13  2  0
  5  6  1  0
  5 10  1  0
  6  9  2  0
  6 13  1  0
  7  8  2  0
  7  9  1  0
  7 11  1  0
  8 12  1  0
 11 14  2  0
 12 15  2  0
 14 15  1  0
 16 17  1  0
M  END
>  <PUBCHEM_COMPOUND_CID>  (1) 
42437

>  <PUBCHEM_CONFORMER_RMSD>  (1) 
0.6

>  <PUBCHEM_CONFORMER_DIVERSEORDER>  (1) 
1
19
25
24
20
2
14
18
9
21
15
8
23
7
12
3
6
13
26
16
5
4
22
17
11
10

>  <PUBCHEM_MMFF94_PARTIAL_CHARGES>  (1) 
20
1 -0.36
11 -0.15
12 -0.15
13 0.71
14 0.08
15 -0.15
16 0.28
18 0.28
2 -0.43
20 0.15
24 0.15
25 0.15
26 0.15
3 -0.36
4 -0.57
5 0.42
6 -0.12
7 0.03
8 0.08
9 -0.18

>  <PUBCHEM_EFFECTIVE_ROTOR_COUNT>  (1) 
4.4

>  <PUBCHEM_PHARMACOPHORE_FEATURES>  (1) 
5
1 1 acceptor
1 3 acceptor
1 4 acceptor
6 1 5 6 7 8 9 rings
6 7 8 11 12 14 15 rings

>  <PUBCHEM_HEAVY_ATOM_COUNT>  (1) 
18

>  <PUBCHEM_ATOM_DEF_STEREO_COUNT>  (1) 
0

>  <PUBCHEM_ATOM_UDEF_STEREO_COUNT>  (1) 
1

>  <PUBCHEM_BOND_DEF_STEREO_COUNT>  (1) 
0

>  <PUBCHEM_BOND_UDEF_STEREO_COUNT>  (1) 
0

>  <PUBCHEM_ISOTOPIC_ATOM_COUNT>  (1) 
0

>  <PUBCHEM_COMPONENT_COUNT>  (1) 
1

>  <PUBCHEM_CACTVS_TAUTO_COUNT>  (1) 
1

>  <PUBCHEM_CONFORMER_ID>  (1) 
0000A5C500000001

>  <PUBCHEM_MMFF94_ENERGY>  (1) 
54.7774

>  <PUBCHEM_FEATURE_SELFOVERLAP>  (1) 
25.403

>  <PUBCHEM_SHAPE_FINGERPRINT>  (1) 
10 15 18187642565998964144
10493431 412 18412544335789975522
11315181 36 9583516543043066206
12236239 1 18060702775570840425
12390115 104 18128550287909945113
12507560 40 18261110716968504157
12916748 109 18272095980475398424
13140716 1 18194402418524403568
13214271 11 18187082870933907255
13533116 47 15984831376687535230
14787075 74 18334858346430592235
15196674 1 18336263427369163904
15536298 74 18341330003342225750
15775835 57 18342457049398512526
16945 1 18130492042592161878
18186145 218 16988265526232919985
20261772 1 18342458158085864663
20645477 56 18272647969724858892
20645477 70 18059581226851341646
21267235 1 18337397050265560218
21652331 79 18408602548071161597
22079108 93 16588588720647393256
22224240 67 18202288018141945563
22854114 59 18408606946381280529
23402539 116 17418088828151036653
23402655 69 18342449305556913645
23536379 177 15482677861671381856
23557571 272 17631453530597742518
23559900 14 17829600661435474411
2748010 2 17260735258046900998
34934 24 18342171181144998710
3545911 37 18413390934617020496
4047638 21 18131635586461961848
4340502 62 17312827069480565331
474229 33 18335422383021431683
5104073 3 18263077717226752104
542803 24 16630807707505165824
59682541 35 18261400013460456625
69090 78 18272646853101992359

>  <PUBCHEM_SHAPE_MULTIPOLES>  (1) 
346.95
10.79
1.78
0.86
1.43
0.35
-0.16
-2.76
2.72
0.05
-0.34
0.64
0.25
-0.09

>  <PUBCHEM_SHAPE_SELFOVERLAP>  (1) 
735.005

>  <PUBCHEM_SHAPE_VOLUME>  (1) 
195.2

>  <PUBCHEM_COORDINATE_TYPE>  (1) 
2
5
10

$$$$
