42446
     RDKit          3D

 15 16  0  0  1  0  0  0  0  0999 V2000
    4.6877    1.5366    0.2301 Br  0  0  0  0  0  0  0  0  0  0  0  0
   -0.3408   -1.7757   -0.3597 O   0  0  0  0  0  0  0  0  0  0  0  0
   -3.0465    2.0243    0.3987 O   0  0  0  0  0  0  0  0  0  0  0  0
   -3.8635    0.2884   -0.6831 O   0  0  0  0  0  0  0  0  0  0  0  0
   -2.9460    0.9052   -0.1236 N   0  0  0  0  0  0  0  0  0  0  0  0
   -1.6457   -1.2142   -0.0863 C   0  0  0  0  0  0  0  0  0  0  0  0
   -1.6720    0.2761   -0.0760 C   0  0  0  0  0  0  0  0  0  0  0  0
    0.6813    0.4235   -0.0578 C   0  0  0  0  0  0  0  0  0  0  0  0
    0.7570   -0.9685   -0.2049 C   0  0  0  0  0  0  0  0  0  0  0  0
   -0.6172    1.0864   -0.0679 C   0  0  0  0  0  0  0  0  0  0  0  0
   -2.1243   -1.8115    1.2367 C   0  0  0  0  0  0  0  0  0  0  0  0
    1.8602    1.1670    0.0703 C   0  0  0  0  0  0  0  0  0  0  0  0
    2.0002   -1.6053   -0.2315 C   0  0  0  0  0  0  0  0  0  0  0  0
    3.0999    0.5258    0.0533 C   0  0  0  0  0  0  0  0  0  0  0  0
    3.1697   -0.8580   -0.0984 C   0  0  0  0  0  0  0  0  0  0  0  0
  1 14  1  0
  2  6  1  0
  2  9  1  0
  3  5  1  0
  4  5  2  0
  5  7  1  0
  6  7  1  0
  6 11  1  0
  7 10  2  0
  8  9  2  0
  8 10  1  0
  8 12  1  0
  9 13  1  0
 12 14  2  0
 13 15  2  0
 14 15  1  0
M  CHG  2   3  -1   5   1
M  END
>  <PUBCHEM_COMPOUND_CID>  (1) 
42446

>  <PUBCHEM_CONFORMER_RMSD>  (1) 
0.6

>  <PUBCHEM_CONFORMER_DIVERSEORDER>  (1) 
1
2

>  <PUBCHEM_MMFF94_PARTIAL_CHARGES>  (1) 
18
1 -0.11
10 -0.18
12 -0.15
13 -0.15
14 0.11
15 -0.15
17 0.15
2 -0.36
21 0.15
22 0.15
23 0.15
3 -0.52
4 -0.52
5 0.84
6 0.42
7 0.07
8 0.03
9 0.08

>  <PUBCHEM_EFFECTIVE_ROTOR_COUNT>  (1) 
1.4

>  <PUBCHEM_PHARMACOPHORE_FEATURES>  (1) 
7
1 1 hydrophobe
1 2 acceptor
1 3 acceptor
1 3 anion
1 4 acceptor
6 2 6 7 8 9 10 rings
6 8 9 12 13 14 15 rings

>  <PUBCHEM_HEAVY_ATOM_COUNT>  (1) 
15

>  <PUBCHEM_ATOM_DEF_STEREO_COUNT>  (1) 
0

>  <PUBCHEM_ATOM_UDEF_STEREO_COUNT>  (1) 
1

>  <PUBCHEM_BOND_DEF_STEREO_COUNT>  (1) 
0

>  <PUBCHEM_BOND_UDEF_STEREO_COUNT>  (1) 
0

>  <PUBCHEM_ISOTOPIC_ATOM_COUNT>  (1) 
0

>  <PUBCHEM_COMPONENT_COUNT>  (1) 
1

>  <PUBCHEM_CACTVS_TAUTO_COUNT>  (1) 
1

>  <PUBCHEM_CONFORMER_ID>  (1) 
0000A5CE00000001

>  <PUBCHEM_MMFF94_ENERGY>  (1) 
45.0504

>  <PUBCHEM_FEATURE_SELFOVERLAP>  (1) 
35.63

>  <PUBCHEM_SHAPE_FINGERPRINT>  (1) 
10608611 8 18411418406018997224
10967382 1 18411418380275391876
11132069 177 18334011722509047820
11471102 20 18412539890873318724
11543360 7 15626215866604714796
11680986 33 18410300177124302770
12382932 28 18410856568562131240
12390115 104 18198362821428388144
12491281 212 18129951074423832041
13140716 1 18337113358648018138
13214271 11 18335418032161324150
13380535 21 18336839627570902558
13380535 76 18410008827590380823
13897977 150 18410854352074124260
14144814 61 18410575050314091536
14325111 11 18412825759243026308
14897335 6 18412258445919135556
15196674 1 18411980243359331798
15219456 202 18411143549718706586
15375358 24 18409726274882587096
15442244 35 18196371407937466986
15536298 74 18271806800759661094
15775835 57 18412545422759586292
16945 1 18262806142233833014
17844478 74 18191319362187161274
18186145 218 18267585697857751549
200 152 17917706954883358935
20201158 50 18412263895963868598
20279233 1 18409732876263177802
20510252 161 18343026635076439059
20645477 70 18131352973509121230
21501502 16 18410849958491606294
2334 1 18338239365881394686
23402539 116 18337099164202786199
23402655 69 18272359842139440125
23493267 7 18260546766503877138
23559900 14 18342179930600334710
25 1 18194119608139580101
2748010 2 18411147943248801926
3312278 4 18411985797058117680
5104073 3 18410013208456783282
528886 8 18411694387774481058
53812653 166 18343015623276339424
69090 78 18412538804257265703
7364860 26 18270680862414773902
8809292 202 18261681380657081674
9709674 26 18413110541439675998

>  <PUBCHEM_SHAPE_MULTIPOLES>  (1) 
292.05
6.94
2.06
0.76
3.16
0.17
-0.12
-3.02
-0.35
-0.49
-0.2
-0.24
0.15
0.5

>  <PUBCHEM_SHAPE_SELFOVERLAP>  (1) 
616.72

>  <PUBCHEM_SHAPE_VOLUME>  (1) 
170

>  <PUBCHEM_COORDINATE_TYPE>  (1) 
2
5
10

$$$$
