42458
     RDKit          3D

 22 24  0  0  1  0  0  0  0  0999 V2000
   -3.7683   -0.1491    2.1216 Cl  0  0  0  0  0  0  0  0  0  0  0  0
    0.0676   -0.6226    1.2299 O   0  0  0  0  0  0  0  0  0  0  0  0
    5.2331   -0.0109   -0.6215 O   0  0  0  0  0  0  0  0  0  0  0  0
   -1.3635    3.1324   -1.2649 O   0  0  0  0  0  0  0  0  0  0  0  0
   -2.4521    2.5853    0.5699 O   0  0  0  0  0  0  0  0  0  0  0  0
   -1.5219    2.4589   -0.2377 N   0  0  0  0  0  0  0  0  0  0  0  0
   -0.9982    0.2736    0.8355 C   0  0  0  0  0  0  0  0  0  0  0  0
   -0.5522    1.4548    0.0382 C   0  0  0  0  0  0  0  0  0  0  0  0
   -1.9907   -0.5677    0.0984 C   0  0  0  0  0  0  0  0  0  0  0  0
    1.6784    0.6894   -0.0620 C   0  0  0  0  0  0  0  0  0  0  0  0
    1.3281   -0.4087    0.7350 C   0  0  0  0  0  0  0  0  0  0  0  0
    0.6800    1.6959   -0.4007 C   0  0  0  0  0  0  0  0  0  0  0  0
    2.9968    0.8171   -0.5156 C   0  0  0  0  0  0  0  0  0  0  0  0
    2.2893   -1.3646    1.0738 C   0  0  0  0  0  0  0  0  0  0  0  0
   -3.2660   -0.8098    0.6081 C   0  0  0  0  0  0  0  0  0  0  0  0
   -1.6126   -1.1163   -1.1267 C   0  0  0  0  0  0  0  0  0  0  0  0
    3.9529   -0.1419   -0.1778 C   0  0  0  0  0  0  0  0  0  0  0  0
    3.5995   -1.2312    0.6162 C   0  0  0  0  0  0  0  0  0  0  0  0
   -4.1640   -1.6016   -0.1078 C   0  0  0  0  0  0  0  0  0  0  0  0
   -2.5106   -1.9080   -1.8427 C   0  0  0  0  0  0  0  0  0  0  0  0
   -3.7862   -2.1507   -1.3331 C   0  0  0  0  0  0  0  0  0  0  0  0
    6.1605   -1.0243   -0.2362 C   0  0  0  0  0  0  0  0  0  0  0  0
  1 15  1  0
  2  7  1  0
  2 11  1  0
  3 17  1  0
  3 22  1  0
  4  6  1  0
  5  6  2  0
  6  8  1  0
  7  8  1  0
  7  9  1  0
  8 12  2  0
  9 15  2  0
  9 16  1  0
 10 11  2  0
 10 12  1  0
 10 13  1  0
 11 14  1  0
 13 17  2  0
 14 18  2  0
 15 19  1  0
 16 20  2  0
 17 18  1  0
 19 21  2  0
 20 21  1  0
M  CHG  2   4  -1   6   1
M  END
>  <PUBCHEM_COMPOUND_CID>  (1) 
42458

>  <PUBCHEM_CONFORMER_RMSD>  (1) 
0.6

>  <PUBCHEM_CONFORMER_DIVERSEORDER>  (1) 
5
4
2
8
7
3
6
10
1
9

>  <PUBCHEM_MMFF94_PARTIAL_CHARGES>  (1) 
30
1 -0.18
10 0.03
11 0.08
12 -0.18
13 -0.15
14 -0.15
15 0.18
16 -0.15
17 0.08
18 -0.15
19 -0.15
2 -0.36
20 -0.15
21 -0.15
22 0.28
24 0.15
25 0.15
26 0.15
27 0.15
28 0.15
29 0.15
3 -0.36
30 0.15
31 0.15
4 -0.52
5 -0.52
6 0.84
7 0.56
8 0.07
9 -0.14

>  <PUBCHEM_EFFECTIVE_ROTOR_COUNT>  (1) 
3.4

>  <PUBCHEM_PHARMACOPHORE_FEATURES>  (1) 
8
1 2 acceptor
1 3 acceptor
1 4 acceptor
1 4 anion
1 5 acceptor
6 10 11 13 14 17 18 rings
6 2 7 8 10 11 12 rings
6 9 15 16 19 20 21 rings

>  <PUBCHEM_HEAVY_ATOM_COUNT>  (1) 
22

>  <PUBCHEM_ATOM_DEF_STEREO_COUNT>  (1) 
0

>  <PUBCHEM_ATOM_UDEF_STEREO_COUNT>  (1) 
1

>  <PUBCHEM_BOND_DEF_STEREO_COUNT>  (1) 
0

>  <PUBCHEM_BOND_UDEF_STEREO_COUNT>  (1) 
0

>  <PUBCHEM_ISOTOPIC_ATOM_COUNT>  (1) 
0

>  <PUBCHEM_COMPONENT_COUNT>  (1) 
1

>  <PUBCHEM_CACTVS_TAUTO_COUNT>  (1) 
1

>  <PUBCHEM_CONFORMER_ID>  (1) 
0000A5DA00000005

>  <PUBCHEM_MMFF94_ENERGY>  (1) 
80.2733

>  <PUBCHEM_FEATURE_SELFOVERLAP>  (1) 
40.707

>  <PUBCHEM_SHAPE_FINGERPRINT>  (1) 
10042902 136 17487609951806043478
10291535 26 12612755700779338462
10369192 42 16626558250500533904
104564 63 18410005516476362445
11046707 91 18059855094744521438
11578080 2 17986931098940972865
11725454 13 14763518002654581769
12236239 1 18200601401052778251
12403814 3 18342462530114509371
12553582 1 18336819883385054275
12633257 1 16773810228811335867
12714826 92 18201712933998317762
12788726 201 18263070042584215905
13009979 54 17916029156142921427
13911987 19 17604437413375481822
14251751 93 18270683069716643422
14739800 52 12180403647520695398
14863182 85 15540333283741838775
16752209 62 18268691871148465695
16945 1 18188203333311991553
17349148 13 17749381573310165232
17357779 13 18040428931942278660
1813 80 18339375148444513479
19141452 34 18060427914759557887
19784866 140 18259981591525670762
200 152 18187080672095436938
20291156 8 18269267027388555183
20361792 2 18268134530554299223
21033648 29 13046236026164276102
21267235 1 18335150803206369914
21339142 126 18413390925610458477
22112679 90 18129110081394173865
23175994 123 17894917390301396101
23402539 116 18335139799805995490
23557571 272 18201723921067999200
23559900 14 17846205709191460576
23598288 3 18264199206291604979
23598291 2 18127699437908464277
25147074 1 17897152542779560098
2871803 45 18260543450799732042
34934 24 18042968670722031465
465052 167 18126290985411002927
602551 16 17346320431557166174
603831 33 18261383438928726042
6992083 37 18129956679788565931
7970288 3 18269270334224203871
90525 40 18340204090075740567

>  <PUBCHEM_SHAPE_MULTIPOLES>  (1) 
426.16
9.52
2.54
1.45
11.03
1.77
0.17
-5.46
-0.34
-2.14
-1.01
-1.45
-0.33
-1.16

>  <PUBCHEM_SHAPE_SELFOVERLAP>  (1) 
930.472

>  <PUBCHEM_SHAPE_VOLUME>  (1) 
232.4

>  <PUBCHEM_COORDINATE_TYPE>  (1) 
2
5
10

$$$$
