42453
     RDKit          3D

 21 23  0  0  1  0  0  0  0  0999 V2000
    0.5193   -0.5377   -0.9834 O   0  0  0  0  0  0  0  0  0  0  0  0
    2.6734   -2.1604   -0.9236 O   0  0  0  0  0  0  0  0  0  0  0  0
   -1.7299    3.3560    0.4833 O   0  0  0  0  0  0  0  0  0  0  0  0
   -2.3943    2.3664   -1.3687 O   0  0  0  0  0  0  0  0  0  0  0  0
   -1.6233    2.5043   -0.4095 N   0  0  0  0  0  0  0  0  0  0  0  0
   -0.6877    0.2602   -0.9471 C   0  0  0  0  0  0  0  0  0  0  0  0
   -0.5217    1.6076   -0.3254 C   0  0  0  0  0  0  0  0  0  0  0  0
   -1.7083   -0.5713   -0.2375 C   0  0  0  0  0  0  0  0  0  0  0  0
    1.6356   -0.0770   -0.3346 C   0  0  0  0  0  0  0  0  0  0  0  0
    1.7164    1.1759    0.2873 C   0  0  0  0  0  0  0  0  0  0  0  0
    0.5753    2.0822    0.2581 C   0  0  0  0  0  0  0  0  0  0  0  0
    2.7355   -0.9390   -0.3215 C   0  0  0  0  0  0  0  0  0  0  0  0
    2.9058    1.5533    0.9220 C   0  0  0  0  0  0  0  0  0  0  0  0
   -2.4451   -1.5183   -0.9451 C   0  0  0  0  0  0  0  0  0  0  0  0
   -1.9185   -0.3952    1.1282 C   0  0  0  0  0  0  0  0  0  0  0  0
    3.9158   -0.5564    0.3143 C   0  0  0  0  0  0  0  0  0  0  0  0
    4.0008    0.6879    0.9359 C   0  0  0  0  0  0  0  0  0  0  0  0
   -3.3972   -2.2936   -0.2832 C   0  0  0  0  0  0  0  0  0  0  0  0
   -2.8704   -1.1707    1.7902 C   0  0  0  0  0  0  0  0  0  0  0  0
   -3.6097   -2.1200    1.0845 C   0  0  0  0  0  0  0  0  0  0  0  0
    2.2283   -3.2540   -0.1243 C   0  0  0  0  0  0  0  0  0  0  0  0
  1  6  1  0
  1  9  1  0
  2 12  1  0
  2 21  1  0
  3  5  1  0
  4  5  2  0
  5  7  1  0
  6  7  1  0
  6  8  1  0
  7 11  2  0
  8 14  2  0
  8 15  1  0
  9 10  2  0
  9 12  1  0
 10 11  1  0
 10 13  1  0
 12 16  2  0
 13 17  2  0
 14 18  1  0
 15 19  2  0
 16 17  1  0
 18 20  2  0
 19 20  1  0
M  CHG  2   3  -1   5   1
M  END
>  <PUBCHEM_COMPOUND_CID>  (1) 
42453

>  <PUBCHEM_CONFORMER_RMSD>  (1) 
0.6

>  <PUBCHEM_CONFORMER_DIVERSEORDER>  (1) 
2
4
8
3
5
7
6
1

>  <PUBCHEM_MMFF94_PARTIAL_CHARGES>  (1) 
30
1 -0.36
10 0.03
11 -0.18
12 0.08
13 -0.15
14 -0.15
15 -0.15
16 -0.15
17 -0.15
18 -0.15
19 -0.15
2 -0.36
20 -0.15
21 0.28
23 0.15
24 0.15
25 0.15
26 0.15
27 0.15
28 0.15
29 0.15
3 -0.52
30 0.15
31 0.15
4 -0.52
5 0.84
6 0.56
7 0.07
8 -0.14
9 0.08

>  <PUBCHEM_EFFECTIVE_ROTOR_COUNT>  (1) 
3.4

>  <PUBCHEM_PHARMACOPHORE_FEATURES>  (1) 
8
1 1 acceptor
1 2 acceptor
1 3 acceptor
1 3 anion
1 4 acceptor
6 1 6 7 9 10 11 rings
6 8 14 15 18 19 20 rings
6 9 10 12 13 16 17 rings

>  <PUBCHEM_HEAVY_ATOM_COUNT>  (1) 
21

>  <PUBCHEM_ATOM_DEF_STEREO_COUNT>  (1) 
0

>  <PUBCHEM_ATOM_UDEF_STEREO_COUNT>  (1) 
1

>  <PUBCHEM_BOND_DEF_STEREO_COUNT>  (1) 
0

>  <PUBCHEM_BOND_UDEF_STEREO_COUNT>  (1) 
0

>  <PUBCHEM_ISOTOPIC_ATOM_COUNT>  (1) 
0

>  <PUBCHEM_COMPONENT_COUNT>  (1) 
1

>  <PUBCHEM_CACTVS_TAUTO_COUNT>  (1) 
1

>  <PUBCHEM_CONFORMER_ID>  (1) 
0000A5D500000002

>  <PUBCHEM_MMFF94_ENERGY>  (1) 
80.1601

>  <PUBCHEM_FEATURE_SELFOVERLAP>  (1) 
40.714

>  <PUBCHEM_SHAPE_FINGERPRINT>  (1) 
10366900 7 18336550507710940074
1100329 8 17472129579743013867
11578080 2 17201609334138640537
11582403 64 15379570317664737709
11680986 33 18198617736194893292
12363563 72 17896320388281102187
12553582 1 18265347272535478087
12714826 92 18194424224247289422
13140716 1 18196371416701604954
13583140 156 13110965314245658510
13681431 1 17752777002355432957
13965767 371 17556621752916964475
14178342 30 18336537210676548128
14223421 5 18412825763817516426
14790565 3 17690005956256074685
15422964 175 18262811773115618123
15885798 251 18187653560945812977
16945 1 18340206409521591356
17357779 13 18264474234728061493
1813 80 17676497189055900893
19049666 15 18266458715708710450
19591789 44 16677537269656053356
20600515 1 17096359716913445901
20645477 70 17974274719287829951
20739085 24 18120383317375790521
21756936 100 15122659405697272776
2255824 54 17617952764843493901
23184049 29 18336826399019104210
23559900 14 18265603308995556556
2748010 2 18270678671585521996
392239 28 16553116443557165466
5104073 3 18340473488448376144
6049 1 18271534104580026614
6443956 14 18264489662472264367
81228 2 18187652370992289669
9709674 26 18268701723798103134
9981440 41 17553996153362309368

>  <PUBCHEM_SHAPE_MULTIPOLES>  (1) 
403.71
6.63
3.48
1.25
1
0.77
0.22
-3.43
1.89
-0.71
-0.43
-0.73
-0.09
1.17

>  <PUBCHEM_SHAPE_SELFOVERLAP>  (1) 
890.704

>  <PUBCHEM_SHAPE_VOLUME>  (1) 
216.7

>  <PUBCHEM_COORDINATE_TYPE>  (1) 
2
5
10

$$$$
