42460
     RDKit          3D

 22 24  0  0  1  0  0  0  0  0999 V2000
   -5.1617   -2.1062    1.2985 Cl  0  0  0  0  0  0  0  0  0  0  0  0
    0.7232   -0.4590   -1.0543 O   0  0  0  0  0  0  0  0  0  0  0  0
    2.5174   -2.4726   -1.0029 O   0  0  0  0  0  0  0  0  0  0  0  0
   -0.8420    3.6886    0.5945 O   0  0  0  0  0  0  0  0  0  0  0  0
   -1.5460    2.9796   -1.3683 O   0  0  0  0  0  0  0  0  0  0  0  0
   -0.8351    2.8967   -0.3577 N   0  0  0  0  0  0  0  0  0  0  0  0
   -0.3086    0.5556   -1.0227 C   0  0  0  0  0  0  0  0  0  0  0  0
    0.0658    1.7978   -0.2836 C   0  0  0  0  0  0  0  0  0  0  0  0
   -1.5184   -0.1069   -0.4447 C   0  0  0  0  0  0  0  0  0  0  0  0
    1.8564   -0.2723   -0.3058 C   0  0  0  0  0  0  0  0  0  0  0  0
    2.1294    0.8942    0.4208 C   0  0  0  0  0  0  0  0  0  0  0  0
    1.1876    2.0065    0.3998 C   0  0  0  0  0  0  0  0  0  0  0  0
    2.7674   -1.3320   -0.2997 C   0  0  0  0  0  0  0  0  0  0  0  0
    3.3193    0.9861    1.1525 C   0  0  0  0  0  0  0  0  0  0  0  0
   -2.3680   -0.8406   -1.2692 C   0  0  0  0  0  0  0  0  0  0  0  0
   -1.7900    0.0118    0.9162 C   0  0  0  0  0  0  0  0  0  0  0  0
    3.9494   -1.2333    0.4331 C   0  0  0  0  0  0  0  0  0  0  0  0
    4.2248   -0.0760    1.1589 C   0  0  0  0  0  0  0  0  0  0  0  0
   -3.4961   -1.4588   -0.7300 C   0  0  0  0  0  0  0  0  0  0  0  0
   -2.9179   -0.6067    1.4556 C   0  0  0  0  0  0  0  0  0  0  0  0
   -3.7711   -1.3419    0.6325 C   0  0  0  0  0  0  0  0  0  0  0  0
    1.8144   -3.5106   -0.3236 C   0  0  0  0  0  0  0  0  0  0  0  0
  1 21  1  0
  2  7  1  0
  2 10  1  0
  3 13  1  0
  3 22  1  0
  4  6  1  0
  5  6  2  0
  6  8  1  0
  7  8  1  0
  7  9  1  0
  8 12  2  0
  9 15  2  0
  9 16  1  0
 10 11  2  0
 10 13  1  0
 11 12  1  0
 11 14  1  0
 13 17  2  0
 14 18  2  0
 15 19  1  0
 16 20  2  0
 17 18  1  0
 19 21  2  0
 20 21  1  0
M  CHG  2   4  -1   6   1
M  END
>  <PUBCHEM_COMPOUND_CID>  (1) 
42460

>  <PUBCHEM_CONFORMER_RMSD>  (1) 
0.6

>  <PUBCHEM_CONFORMER_DIVERSEORDER>  (1) 
2
3
4
1

>  <PUBCHEM_MMFF94_PARTIAL_CHARGES>  (1) 
30
1 -0.18
10 0.08
11 0.03
12 -0.18
13 0.08
14 -0.15
15 -0.15
16 -0.15
17 -0.15
18 -0.15
19 -0.15
2 -0.36
20 -0.15
21 0.18
22 0.28
24 0.15
25 0.15
26 0.15
27 0.15
28 0.15
29 0.15
3 -0.36
30 0.15
31 0.15
4 -0.52
5 -0.52
6 0.84
7 0.56
8 0.07
9 -0.14

>  <PUBCHEM_EFFECTIVE_ROTOR_COUNT>  (1) 
3.4

>  <PUBCHEM_PHARMACOPHORE_FEATURES>  (1) 
8
1 2 acceptor
1 3 acceptor
1 4 acceptor
1 4 anion
1 5 acceptor
6 10 11 13 14 17 18 rings
6 2 7 8 10 11 12 rings
6 9 15 16 19 20 21 rings

>  <PUBCHEM_HEAVY_ATOM_COUNT>  (1) 
22

>  <PUBCHEM_ATOM_DEF_STEREO_COUNT>  (1) 
0

>  <PUBCHEM_ATOM_UDEF_STEREO_COUNT>  (1) 
1

>  <PUBCHEM_BOND_DEF_STEREO_COUNT>  (1) 
0

>  <PUBCHEM_BOND_UDEF_STEREO_COUNT>  (1) 
0

>  <PUBCHEM_ISOTOPIC_ATOM_COUNT>  (1) 
0

>  <PUBCHEM_COMPONENT_COUNT>  (1) 
1

>  <PUBCHEM_CACTVS_TAUTO_COUNT>  (1) 
1

>  <PUBCHEM_CONFORMER_ID>  (1) 
0000A5DC00000002

>  <PUBCHEM_MMFF94_ENERGY>  (1) 
80.9135

>  <PUBCHEM_FEATURE_SELFOVERLAP>  (1) 
40.714

>  <PUBCHEM_SHAPE_FINGERPRINT>  (1) 
1100329 8 17620188076368004760
11578080 2 17129261425965437569
11582403 64 15449932400179671541
11680986 33 17983566404507276540
12363563 72 18040718099279256659
12422481 6 18054257383265645361
12553582 1 18411985801042095702
12824470 246 17386551488828641680
12892183 10 17917438626606265475
13140716 1 18124587837313914442
13544653 18 18261384585331215292
13681431 1 17969513782199635397
13965767 371 17342134474867875947
14178342 30 18192703446100994922
14223421 5 18269832026141538318
14341114 328 17060060405627286610
14790565 3 17834675272586017148
15422964 175 18408611361428578903
15885798 251 18261116287773221689
16752209 62 14635970427748445091
16945 1 18341325665288113396
17357779 13 18336529573739522869
1813 80 17967259705957993285
19049666 15 18123746453056857246
19862831 5 12179835126319632267
20600515 1 17313098704476314029
20645477 70 18191287481040458135
20739085 24 18265339584459849432
21756936 100 14907318923847038714
22182313 1 18059003970419509212
2255824 54 17906180894674679317
23558518 356 17979629044261902837
23559900 14 18192984933920389948
2748010 2 18127965309437904284
3286 77 17970070148490190643
3380486 145 18270102626393061109
3383291 50 16536801336422297587
3737641 26 18199202706446381982
5104073 3 18196919004073759634
6049 1 18128539267413532702
6443956 14 18335708268998048987
7097593 13 18199200649309553467
81228 2 18189057495102132749
9709674 26 18125427614983638462
9981440 41 17337816722802603720

>  <PUBCHEM_SHAPE_MULTIPOLES>  (1) 
426.16
7.75
3.56
1.34
3.9
1.43
-0.07
-5.74
-3.47
-0.43
0.59
0.6
-0.07
1.17

>  <PUBCHEM_SHAPE_SELFOVERLAP>  (1) 
929.674

>  <PUBCHEM_SHAPE_VOLUME>  (1) 
232.5

>  <PUBCHEM_COORDINATE_TYPE>  (1) 
2
5
10

$$$$
