42469
     RDKit          3D

 24 26  0  0  1  0  0  0  0  0999 V2000
    0.3523    1.2201    2.5610 S   0  0  0  0  0  0  0  0  0  0  0  0
   -0.9402   -0.6315    1.3602 O   0  0  0  0  0  0  0  0  0  0  0  0
   -3.8890    0.6589   -0.4934 N   0  0  0  0  0  0  0  0  0  0  0  0
   -2.0220   -0.6749    0.4358 C   0  0  0  0  0  0  0  0  0  0  0  0
   -2.9975   -1.7597    0.8816 C   0  0  0  0  0  0  0  0  0  0  0  0
   -2.7069    0.6935    0.3767 C   0  0  0  0  0  0  0  0  0  0  0  0
   -4.2541   -1.7342    0.0214 C   0  0  0  0  0  0  0  0  0  0  0  0
   -4.8662   -0.3329   -0.0231 C   0  0  0  0  0  0  0  0  0  0  0  0
   -4.5033    1.9838   -0.5759 C   0  0  0  0  0  0  0  0  0  0  0  0
   -5.6383    1.9968   -1.5478 C   0  0  0  0  0  0  0  0  0  0  0  0
    1.0016    0.1340    0.0017 C   0  0  0  0  0  0  0  0  0  0  0  0
    0.1183    0.2107    1.2433 C   0  0  0  0  0  0  0  0  0  0  0  0
    2.0626    1.2345   -0.0905 C   0  0  0  0  0  0  0  0  0  0  0  0
    1.5566   -1.2624   -0.2817 C   0  0  0  0  0  0  0  0  0  0  0  0
    1.7378    2.4092   -0.7281 C   0  0  0  0  0  0  0  0  0  0  0  0
    1.8053   -1.6210   -1.5871 C   0  0  0  0  0  0  0  0  0  0  0  0
    3.2983    1.0053    0.4682 C   0  0  0  0  0  0  0  0  0  0  0  0
    1.7874   -2.1087    0.7791 C   0  0  0  0  0  0  0  0  0  0  0  0
    2.7039    3.4116   -0.8121 C   0  0  0  0  0  0  0  0  0  0  0  0
    2.3118   -2.8947   -1.8459 C   0  0  0  0  0  0  0  0  0  0  0  0
    4.2643    2.0079    0.3843 C   0  0  0  0  0  0  0  0  0  0  0  0
    2.2941   -3.3823    0.5203 C   0  0  0  0  0  0  0  0  0  0  0  0
    3.9671    3.2111   -0.2558 C   0  0  0  0  0  0  0  0  0  0  0  0
    2.5563   -3.7752   -0.7922 C   0  0  0  0  0  0  0  0  0  0  0  0
  1 12  2  0
  2  4  1  0
  2 12  1  0
  3  6  1  0
  3  8  1  0
  3  9  1  0
  4  5  1  0
  4  6  1  0
  5  7  1  0
  7  8  1  0
  9 10  1  0
 11 12  1  0
 11 13  1  0
 11 14  1  0
 13 15  2  0
 13 17  1  0
 14 16  2  0
 14 18  1  0
 15 19  1  0
 16 20  1  0
 17 21  2  0
 18 22  2  0
 19 23  2  0
 20 24  2  0
 21 23  1  0
 22 24  1  0
M  END
>  <PUBCHEM_COMPOUND_CID>  (1) 
42469

>  <PUBCHEM_CONFORMER_RMSD>  (1) 
0.8

>  <PUBCHEM_CONFORMER_DIVERSEORDER>  (1) 
1
138
149
127
63
167
99
126
55
119
152
153
78
154
130
144
113
66
164
132
150
173
19
67
59
165
116
46
17
60
169
87
29
92
91
68
32
170
18
145
98
139
100
160
6
93
22
94
26
24
137
110
82
97
41
86
56
25
161
61
133
51
27
14
172
107
134
39
111
8
115
118
53
75
74
12
171
71
128
37
7
36
166
84
142
73
155
9
16
64
57
89
120
162
125
28
10
105
50
15
158
123
23
106
175
129
80
136
88
124
117
47
143
103
44
121
147
108
45
77
146
104
159
112
72
52
81
34
102
141
38
148
54
140
135
101
174
4
70
83
20
163
40
157
62
69
43
156
30
3
168
58
122
13
65
79
109
48
131
5
114
31
33
151
49
95
2
76
96
11
85
42
90
35
21

>  <PUBCHEM_MMFF94_PARTIAL_CHARGES>  (1) 
31
1 -0.38
11 0.35
12 0.47
13 -0.14
14 -0.14
15 -0.15
16 -0.15
17 -0.15
18 -0.15
19 -0.15
2 -0.43
20 -0.15
21 -0.15
22 -0.15
23 -0.15
24 -0.15
3 -0.81
4 0.28
40 0.15
41 0.15
42 0.15
43 0.15
44 0.15
45 0.15
46 0.15
47 0.15
48 0.15
49 0.15
6 0.27
8 0.27
9 0.27

>  <PUBCHEM_EFFECTIVE_ROTOR_COUNT>  (1) 
7.2

>  <PUBCHEM_PHARMACOPHORE_FEATURES>  (1) 
5
1 1 acceptor
1 3 cation
6 13 15 17 19 21 23 rings
6 14 16 18 20 22 24 rings
6 3 4 5 6 7 8 rings

>  <PUBCHEM_HEAVY_ATOM_COUNT>  (1) 
24

>  <PUBCHEM_ATOM_DEF_STEREO_COUNT>  (1) 
0

>  <PUBCHEM_ATOM_UDEF_STEREO_COUNT>  (1) 
1

>  <PUBCHEM_BOND_DEF_STEREO_COUNT>  (1) 
0

>  <PUBCHEM_BOND_UDEF_STEREO_COUNT>  (1) 
0

>  <PUBCHEM_ISOTOPIC_ATOM_COUNT>  (1) 
0

>  <PUBCHEM_COMPONENT_COUNT>  (1) 
1

>  <PUBCHEM_CACTVS_TAUTO_COUNT>  (1) 
1

>  <PUBCHEM_CONFORMER_ID>  (1) 
0000A5E500000001

>  <PUBCHEM_MMFF94_ENERGY>  (1) 
69.0898

>  <PUBCHEM_FEATURE_SELFOVERLAP>  (1) 
25.373

>  <PUBCHEM_SHAPE_FINGERPRINT>  (1) 
10764073 3 17605249849589120474
10871710 139 15667622701085988284
11069576 57 17774997930272915727
11370993 70 18265616670074318490
12549972 3 17604730879647299363
12553582 1 17907602236496908834
12788726 201 17325219433294344442
13004483 165 17758662365913632378
133893 2 18126595395201136498
13681431 1 18199196096380358706
13911987 19 17841167845623853296
14251757 17 18190175690074880285
14508225 48 17909838630579200182
15163728 17 17897184595915125604
15502722 9 18412270548836496590
18681886 176 18194396917304618704
20197701 30 18199184165224785712
20600515 1 17907562649904343130
20645477 70 18201443549639888535
21304303 282 17481391174532536436
21524375 3 18052828228032876618
21860390 5 18337105679262064052
22393880 68 18340497728352452190
23114952 82 18411143528196234889
23419403 2 17336987575002084480
23559900 14 18339920411743961859
3298306 158 18270962465501576864
3472631 163 18040703784802410877
376196 1 18188764088564096176
4280585 95 18124319303169073438
44802255 64 17831603220582287260
46194498 28 18410579479048022103
5081480 168 18122089536299791757
5281201 14 18335987476416507399
59444896 2 13463858007860191410
59755656 215 18334290929585180332
60123966 16 18265318526720228301
6138700 20 18339655473456925406
7399639 24 18118420663740680091
81228 2 17480031791286696154
81539 233 18341055223961105694
9709674 26 18408326583964974019
9981440 41 18189896602814883953

>  <PUBCHEM_SHAPE_MULTIPOLES>  (1) 
486.91
9.61
4.61
1.62
13.84
1.4
0.4
-5.09
-3.04
-5.6
-1.59
-0.05
0.01
1.59

>  <PUBCHEM_SHAPE_SELFOVERLAP>  (1) 
1017.996

>  <PUBCHEM_SHAPE_VOLUME>  (1) 
277.6

>  <PUBCHEM_COORDINATE_TYPE>  (1) 
2
5
10

$$$$
