42463
     RDKit          3D

 15 16  0  0  0  0  0  0  0  0999 V2000
   -0.3009    1.5640    0.0002 O   0  0  0  0  0  0  0  0  0  0  0  0
    3.0793   -1.1248   -1.1009 O   0  0  0  0  0  0  0  0  0  0  0  0
    3.0786   -1.1257    1.1016 O   0  0  0  0  0  0  0  0  0  0  0  0
    2.5565   -0.9115    0.0003 N   0  0  0  0  0  0  0  0  0  0  0  0
    1.0832    1.1210   -0.0001 C   0  0  0  0  0  0  0  0  0  0  0  0
    1.2373   -0.3726    0.0000 C   0  0  0  0  0  0  0  0  0  0  0  0
    1.7111    1.7520    1.2522 C   0  0  0  0  0  0  0  0  0  0  0  0
    1.7104    1.7520   -1.2528 C   0  0  0  0  0  0  0  0  0  0  0  0
   -1.3086    0.6384    0.0000 C   0  0  0  0  0  0  0  0  0  0  0  0
   -1.0978   -0.7445   -0.0006 C   0  0  0  0  0  0  0  0  0  0  0  0
    0.2582   -1.2739   -0.0003 C   0  0  0  0  0  0  0  0  0  0  0  0
   -2.6097    1.1488    0.0006 C   0  0  0  0  0  0  0  0  0  0  0  0
   -2.1990   -1.6094   -0.0007 C   0  0  0  0  0  0  0  0  0  0  0  0
   -3.7018    0.2820    0.0006 C   0  0  0  0  0  0  0  0  0  0  0  0
   -3.4967   -1.0959    0.0000 C   0  0  0  0  0  0  0  0  0  0  0  0
  1  5  1  0
  1  9  1  0
  2  4  1  0
  3  4  2  0
  4  6  1  0
  5  6  1  0
  5  7  1  0
  5  8  1  0
  6 11  2  0
  9 10  2  0
  9 12  1  0
 10 11  1  0
 10 13  1  0
 12 14  2  0
 13 15  2  0
 14 15  1  0
M  CHG  2   2  -1   4   1
M  END
>  <PUBCHEM_COMPOUND_CID>  (1) 
42463

>  <PUBCHEM_CONFORMER_RMSD>  (1) 
0.6

>  <PUBCHEM_CONFORMER_DIVERSEORDER>  (1) 
1

>  <PUBCHEM_MMFF94_PARTIAL_CHARGES>  (1) 
18
1 -0.36
10 0.03
11 -0.18
12 -0.15
13 -0.15
14 -0.15
15 -0.15
2 -0.52
22 0.15
23 0.15
24 0.15
25 0.15
26 0.15
3 -0.52
4 0.84
5 0.42
6 0.07
9 0.08

>  <PUBCHEM_EFFECTIVE_ROTOR_COUNT>  (1) 
1.4

>  <PUBCHEM_PHARMACOPHORE_FEATURES>  (1) 
7
1 1 acceptor
1 2 acceptor
1 2 anion
1 3 acceptor
3 5 7 8 hydrophobe
6 1 5 6 9 10 11 rings
6 9 10 12 13 14 15 rings

>  <PUBCHEM_HEAVY_ATOM_COUNT>  (1) 
15

>  <PUBCHEM_ATOM_DEF_STEREO_COUNT>  (1) 
0

>  <PUBCHEM_ATOM_UDEF_STEREO_COUNT>  (1) 
0

>  <PUBCHEM_BOND_DEF_STEREO_COUNT>  (1) 
0

>  <PUBCHEM_BOND_UDEF_STEREO_COUNT>  (1) 
0

>  <PUBCHEM_ISOTOPIC_ATOM_COUNT>  (1) 
0

>  <PUBCHEM_COMPONENT_COUNT>  (1) 
1

>  <PUBCHEM_CACTVS_TAUTO_COUNT>  (1) 
1

>  <PUBCHEM_CONFORMER_ID>  (1) 
0000A5DF00000001

>  <PUBCHEM_MMFF94_ENERGY>  (1) 
52.3719

>  <PUBCHEM_FEATURE_SELFOVERLAP>  (1) 
35.63

>  <PUBCHEM_SHAPE_FINGERPRINT>  (1) 
10130415 120 18409730642706143203
10465860 71 18267606648950840918
10608611 8 18412819218382530345
10967382 1 18194683893885826599
11769659 78 18409442609483273867
12032990 46 18341056233099176095
12932764 1 17916031346401753303
13140716 1 18410855473435102771
13296908 3 18187645860011643219
13380535 21 18193571170854154659
14128692 85 18410020913881410084
14144814 61 18408603634782303123
15219456 202 18271237317638873129
15536298 74 18342738554477034448
15775835 57 18270688691591313849
16945 1 18266741281448845701
17804303 29 18341050731103365795
18186145 218 18187079572821166607
20511035 2 18340204205913166166
20559304 39 18340206404962723945
20645477 70 18340764931680430159
21501502 16 18337957891162945493
21501925 9 18338504330929901691
2255824 54 18114184172107598314
2334 1 18266458883307270051
23463225 33 18407759248485524325
23552423 10 18188209913402270895
23559900 14 18199187287887867910
2748010 2 18338513144440046397
5084963 1 18334858320502571553
5104073 3 18411984702384828899
7364860 26 18200032974952809232
74978 22 18259986002520146807
8809292 202 18333737931239587331

>  <PUBCHEM_SHAPE_MULTIPOLES>  (1) 
286.1
5.44
1.98
0.94
2.15
0.25
0
-1.19
0
-0.64
0
-0.79
0.21
0

>  <PUBCHEM_SHAPE_SELFOVERLAP>  (1) 
618.357

>  <PUBCHEM_SHAPE_VOLUME>  (1) 
157.2

>  <PUBCHEM_COORDINATE_TYPE>  (1) 
2
5
10

$$$$
