42472
     RDKit          3D

 17 17  0  0  1  0  0  0  0  0999 V2000
    1.4819    1.8498   -1.2022 O   0  0  0  0  0  0  0  0  0  0  0  0
   -0.5777   -0.1455    2.4322 O   0  0  0  0  0  0  0  0  0  0  0  0
    2.7688   -2.3729    0.2451 O   0  0  0  0  0  0  0  0  0  0  0  0
    2.0577   -0.3376   -0.6514 N   0  0  0  0  0  0  0  0  0  0  0  0
    1.0541   -1.2693    1.2761 N   0  0  0  0  0  0  0  0  0  0  0  0
   -0.0539    0.6147    0.1917 C   0  0  0  0  0  0  0  0  0  0  0  0
   -1.0738   -0.0728   -0.7341 C   0  0  0  0  0  0  0  0  0  0  0  0
   -0.6057    1.9852    0.6151 C   0  0  0  0  0  0  0  0  0  0  0  0
   -2.4432   -0.2528   -0.0596 C   0  0  0  0  0  0  0  0  0  0  0  0
    1.2348    0.7993   -0.6074 C   0  0  0  0  0  0  0  0  0  0  0  0
    0.1113   -0.2650    1.4202 C   0  0  0  0  0  0  0  0  0  0  0  0
   -1.2263    0.7431   -2.0173 C   0  0  0  0  0  0  0  0  0  0  0  0
   -3.4608   -0.9964   -0.9280 C   0  0  0  0  0  0  0  0  0  0  0  0
    0.3489    2.6852    1.5560 C   0  0  0  0  0  0  0  0  0  0  0  0
    2.0067   -1.4029    0.2684 C   0  0  0  0  0  0  0  0  0  0  0  0
   -4.7697   -1.2147   -0.1840 C   0  0  0  0  0  0  0  0  0  0  0  0
    3.1470   -0.3473   -1.6206 C   0  0  0  0  0  0  0  0  0  0  0  0
  1 10  2  0
  2 11  2  0
  3 15  2  0
  4 10  1  0
  4 15  1  0
  4 17  1  0
  5 11  1  0
  5 15  1  0
  6  7  1  0
  6  8  1  0
  6 10  1  0
  6 11  1  0
  7  9  1  0
  7 12  1  0
  8 14  1  0
  9 13  1  0
 13 16  1  0
M  END
>  <PUBCHEM_COMPOUND_CID>  (1) 
42472

>  <PUBCHEM_CONFORMER_RMSD>  (1) 
0.6

>  <PUBCHEM_CONFORMER_DIVERSEORDER>  (1) 
2
12
26
21
10
4
16
28
18
19
29
17
8
24
9
13
1
14
23
22
27
7
15
25
6
5
20
11
3

>  <PUBCHEM_MMFF94_PARTIAL_CHARGES>  (1) 
11
1 -0.57
10 0.57
11 0.57
15 0.69
17 0.3
2 -0.57
3 -0.57
31 0.37
4 -0.42
5 -0.49
6 0.12

>  <PUBCHEM_EFFECTIVE_ROTOR_COUNT>  (1) 
4.6

>  <PUBCHEM_PHARMACOPHORE_FEATURES>  (1) 
8
1 1 acceptor
1 12 hydrophobe
1 14 hydrophobe
1 16 hydrophobe
1 2 acceptor
1 3 acceptor
1 5 donor
6 4 5 6 10 11 15 rings

>  <PUBCHEM_HEAVY_ATOM_COUNT>  (1) 
17

>  <PUBCHEM_ATOM_DEF_STEREO_COUNT>  (1) 
0

>  <PUBCHEM_ATOM_UDEF_STEREO_COUNT>  (1) 
2

>  <PUBCHEM_BOND_DEF_STEREO_COUNT>  (1) 
0

>  <PUBCHEM_BOND_UDEF_STEREO_COUNT>  (1) 
0

>  <PUBCHEM_ISOTOPIC_ATOM_COUNT>  (1) 
0

>  <PUBCHEM_COMPONENT_COUNT>  (1) 
1

>  <PUBCHEM_CACTVS_TAUTO_COUNT>  (1) 
3

>  <PUBCHEM_CONFORMER_ID>  (1) 
0000A5E800000002

>  <PUBCHEM_MMFF94_ENERGY>  (1) 
44.468

>  <PUBCHEM_FEATURE_SELFOVERLAP>  (1) 
40.597

>  <PUBCHEM_SHAPE_FINGERPRINT>  (1) 
11086676 242 16271923817975045987
12138202 97 15792310300429990794
12326174 3 17841404201974069089
12423570 1 15289351883448159564
13299463 15 17894916217458742086
13538477 17 18125164831319828596
14617773 55 18118982294885524496
14817 1 13611754317523890448
15001771 113 18264764359478748990
15852999 172 17241055404616885938
15906896 17 17835547941067269401
16945 1 18114191864151205020
19010151 120 18059591203553688276
200 152 18336272266802333822
20231682 184 11314024656562794819
20339313 130 17988925613006591487
20361792 2 17917415528293122975
20645477 70 18041826420608072103
22112679 90 18120383051266698568
22802520 49 17531537571702269571
23419403 2 17757502557213009760
3060560 45 16153974855299604015
3323516 105 17603592971239009279
5845 1 10847191982110992569
59915604 170 16081093662210880463
6786 2 17190372526686340425
7364860 26 17844239851252342185
81228 2 17486764173881883569

>  <PUBCHEM_SHAPE_MULTIPOLES>  (1) 
322.28
5.09
2.21
1.86
5.57
1.3
-0.09
-4.04
1.17
-0.97
-0.65
-0.46
0.16
-0.35

>  <PUBCHEM_SHAPE_SELFOVERLAP>  (1) 
654.641

>  <PUBCHEM_SHAPE_VOLUME>  (1) 
186.2

>  <PUBCHEM_COORDINATE_TYPE>  (1) 
2
5
10

$$$$
