42477
     RDKit          3D

 10  9  0  0  0  0  0  0  0  0999 V2000
    4.0414    0.0393   -0.1005 O   0  0  0  0  0  0  0  0  0  0  0  0
    0.5633    0.6507   -0.0124 N   0  0  0  0  0  0  0  0  0  0  0  0
    1.7029   -0.1073   -0.0350 N   0  0  0  0  0  0  0  0  0  0  0  0
   -2.9080    0.2670   -0.0626 C   0  0  0  0  0  0  0  0  0  0  0  0
   -1.7499    1.0189    0.6061 C   0  0  0  0  0  0  0  0  0  0  0  0
   -2.5844    0.0061   -1.5342 C   0  0  0  0  0  0  0  0  0  0  0  0
   -3.2023   -1.0559    0.6486 C   0  0  0  0  0  0  0  0  0  0  0  0
   -0.4862    0.1956    0.5841 C   0  0  0  0  0  0  0  0  0  0  0  0
    1.6982   -1.5595   -0.0184 C   0  0  0  0  0  0  0  0  0  0  0  0
    2.9250    0.5451   -0.0757 C   0  0  0  0  0  0  0  0  0  0  0  0
  1 10  2  0
  2  3  1  0
  2  8  2  0
  3  9  1  0
  3 10  1  0
  4  5  1  0
  4  6  1  0
  4  7  1  0
  5  8  1  0
M  END
>  <PUBCHEM_COMPOUND_CID>  (1) 
42477

>  <PUBCHEM_CONFORMER_RMSD>  (1) 
0.6

>  <PUBCHEM_CONFORMER_DIVERSEORDER>  (1) 
1
16
12
3
13
4
8
15
11
10
2
14
9
6
7
5

>  <PUBCHEM_MMFF94_PARTIAL_CHARGES>  (1) 
9
1 -0.57
10 0.57
2 -0.51
20 0.06
24 0.06
3 -0.3
5 0.06
8 0.33
9 0.3

>  <PUBCHEM_EFFECTIVE_ROTOR_COUNT>  (1) 
4

>  <PUBCHEM_PHARMACOPHORE_FEATURES>  (1) 
3
1 1 acceptor
1 2 acceptor
3 4 6 7 hydrophobe

>  <PUBCHEM_HEAVY_ATOM_COUNT>  (1) 
10

>  <PUBCHEM_ATOM_DEF_STEREO_COUNT>  (1) 
0

>  <PUBCHEM_ATOM_UDEF_STEREO_COUNT>  (1) 
0

>  <PUBCHEM_BOND_DEF_STEREO_COUNT>  (1) 
0

>  <PUBCHEM_BOND_UDEF_STEREO_COUNT>  (1) 
1

>  <PUBCHEM_ISOTOPIC_ATOM_COUNT>  (1) 
0

>  <PUBCHEM_COMPONENT_COUNT>  (1) 
1

>  <PUBCHEM_CACTVS_TAUTO_COUNT>  (1) 
1

>  <PUBCHEM_CONFORMER_ID>  (1) 
0000A5ED00000001

>  <PUBCHEM_MMFF94_ENERGY>  (1) 
18.1663

>  <PUBCHEM_FEATURE_SELFOVERLAP>  (1) 
15.223

>  <PUBCHEM_SHAPE_FINGERPRINT>  (1) 
10857977 72 14692276348954308985
11062470 55 17022621974735079168
12162725 195 14779552291763828022
12897270 3 18409728460788962129
12932764 1 17417805123806445297
14325111 11 18411422786932878184
15310529 11 18342175531809764961
20201158 50 18334577953622317603
20645477 70 18269550538195841935
21061003 4 18340775948144833481
23402539 116 15430032197478405155
23557571 272 17385725781376450597
3248919 1 18337383851255838937
528716 315 18412549812041998541

>  <PUBCHEM_SHAPE_MULTIPOLES>  (1) 
189.96
6.43
1.17
0.97
3.14
0.37
0.31
0.43
0.47
0
-0.14
-0.88
0
0.11

>  <PUBCHEM_SHAPE_SELFOVERLAP>  (1) 
348.814

>  <PUBCHEM_SHAPE_VOLUME>  (1) 
121.3

>  <PUBCHEM_COORDINATE_TYPE>  (1) 
2
5
10

$$$$
