42478
     RDKit          3D

 11 10  0  0  0  0  0  0  0  0999 V2000
   -4.0914   -1.3567    0.3342 O   0  0  0  0  0  0  0  0  0  0  0  0
   -1.1482    0.5343    0.4981 N   0  0  0  0  0  0  0  0  0  0  0  0
   -2.2155   -0.0348   -0.1430 N   0  0  0  0  0  0  0  0  0  0  0  0
    2.4246   -0.1616    0.1841 C   0  0  0  0  0  0  0  0  0  0  0  0
    2.1947    1.3399   -0.0242 C   0  0  0  0  0  0  0  0  0  0  0  0
    3.7940   -0.6425   -0.2968 C   0  0  0  0  0  0  0  0  0  0  0  0
    0.8698    1.8708    0.5184 C   0  0  0  0  0  0  0  0  0  0  0  0
    4.0025   -2.1175    0.0118 C   0  0  0  0  0  0  0  0  0  0  0  0
   -0.2997    1.2283   -0.1819 C   0  0  0  0  0  0  0  0  0  0  0  0
   -2.4577    0.1013   -1.5685 C   0  0  0  0  0  0  0  0  0  0  0  0
   -3.0730   -0.7614    0.6679 C   0  0  0  0  0  0  0  0  0  0  0  0
  1 11  2  0
  2  3  1  0
  2  9  2  0
  3 10  1  0
  3 11  1  0
  4  5  1  0
  4  6  1  0
  5  7  1  0
  6  8  1  0
  7  9  1  0
M  END
>  <PUBCHEM_COMPOUND_CID>  (1) 
42478

>  <PUBCHEM_CONFORMER_RMSD>  (1) 
0.6

>  <PUBCHEM_CONFORMER_DIVERSEORDER>  (1) 
2
124
183
97
5
185
207
162
69
160
146
134
31
165
168
180
59
171
63
206
77
91
208
3
137
11
182
202
51
156
176
87
120
109
75
49
10
119
32
103
16
78
177
84
167
131
121
23
195
90
179
66
72
115
150
184
7
172
147
110
193
98
94
149
122
118
155
181
74
161
205
56
106
175
25
123
210
111
129
187
88
9
178
42
113
19
28
203
39
54
200
130
170
186
15
158
136
6
82
40
192
173
96
204
45
4
148
43
194
132
188
151
107
67
159
8
20
169
52
83
112
139
100
61
68
65
135
153
46
33
34
189
166
62
114
64
55
198
127
71
14
108
70
145
44
154
1
26
191
152
53
126
89
50
99
22
140
76
48
101
79
128
144
116
35
29
60
38
174
199
197
143
196
58
117
95
163
30
13
37
102
41
93
141
105
27
133
201
209
17
138
190
80
21
81
36
18
164
125
92
157
73
12
47
57
24
104
142
85
86

>  <PUBCHEM_MMFF94_PARTIAL_CHARGES>  (1) 
9
1 -0.57
10 0.3
11 0.57
2 -0.51
23 0.06
27 0.06
3 -0.3
7 0.06
9 0.33

>  <PUBCHEM_EFFECTIVE_ROTOR_COUNT>  (1) 
6

>  <PUBCHEM_PHARMACOPHORE_FEATURES>  (1) 
4
1 1 acceptor
1 2 acceptor
1 8 hydrophobe
4 4 5 6 7 hydrophobe

>  <PUBCHEM_HEAVY_ATOM_COUNT>  (1) 
11

>  <PUBCHEM_ATOM_DEF_STEREO_COUNT>  (1) 
0

>  <PUBCHEM_ATOM_UDEF_STEREO_COUNT>  (1) 
0

>  <PUBCHEM_BOND_DEF_STEREO_COUNT>  (1) 
0

>  <PUBCHEM_BOND_UDEF_STEREO_COUNT>  (1) 
1

>  <PUBCHEM_ISOTOPIC_ATOM_COUNT>  (1) 
0

>  <PUBCHEM_COMPONENT_COUNT>  (1) 
1

>  <PUBCHEM_CACTVS_TAUTO_COUNT>  (1) 
1

>  <PUBCHEM_CONFORMER_ID>  (1) 
0000A5EE00000002

>  <PUBCHEM_MMFF94_ENERGY>  (1) 
10.7506

>  <PUBCHEM_FEATURE_SELFOVERLAP>  (1) 
20.297

>  <PUBCHEM_SHAPE_FINGERPRINT>  (1) 
10149128 111 11314312719987279932
10465860 71 16515404088103370013
10857977 72 13686017669558335077
11137873 295 18409161095793647087
122479 349 10375577205784316612
12932764 1 17560518537842382217
14123260 362 12179850472090061950
14251705 54 18268716004718012118
14251710 61 18410859837016633346
14252887 29 18337109080849983568
15375462 189 17917428774109660456
19782 4 9078829641610059494
20281475 54 18409173177705676520
20645477 70 18336817697446829271
20671657 53 18260270716155451924
20767249 462 9439395822664535922
20871998 22 18411417319540120520
20871999 31 17313105241448024933
22169311 14 13254806728374068020
22485316 2 18412262852270835520
22926399 37 11458421345400866119
23403322 49 18262518083362641882
23500284 5 18198909115213194976
23557571 272 17313375777164658148
27216 239 10951464021254703870
4416823 128 18410296891342095314
8199 26 8862933979434332826
94968 8 18335424590624046338

>  <PUBCHEM_SHAPE_MULTIPOLES>  (1) 
210.54
7.8
1.94
0.94
0.55
0.07
0.31
5.91
0.07
1.35
-0.26
-0.73
-0.01
0.44

>  <PUBCHEM_SHAPE_SELFOVERLAP>  (1) 
382.186

>  <PUBCHEM_SHAPE_VOLUME>  (1) 
135.2

>  <PUBCHEM_COORDINATE_TYPE>  (1) 
2
5
10

$$$$
