42473
     RDKit          3D

 18 18  0  0  1  0  0  0  0  0999 V2000
    1.3321    1.8540   -1.0013 O   0  0  0  0  0  0  0  0  0  0  0  0
   -0.9764   -0.2312    2.4272 O   0  0  0  0  0  0  0  0  0  0  0  0
    2.4637   -2.4385    0.3686 O   0  0  0  0  0  0  0  0  0  0  0  0
    1.8398   -0.3610   -0.4956 N   0  0  0  0  0  0  0  0  0  0  0  0
    0.7059   -1.3420    1.3327 N   0  0  0  0  0  0  0  0  0  0  0  0
   -0.3048    0.5976    0.2515 C   0  0  0  0  0  0  0  0  0  0  0  0
   -1.2763   -0.0392   -0.7587 C   0  0  0  0  0  0  0  0  0  0  0  0
   -0.8606    1.9619    0.6897 C   0  0  0  0  0  0  0  0  0  0  0  0
   -2.6871   -0.2189   -0.1754 C   0  0  0  0  0  0  0  0  0  0  0  0
    1.0330    0.7878   -0.4608 C   0  0  0  0  0  0  0  0  0  0  0  0
   -0.2286   -0.3272    1.4552 C   0  0  0  0  0  0  0  0  0  0  0  0
   -1.3376    0.8236   -2.0186 C   0  0  0  0  0  0  0  0  0  0  0  0
   -3.6608   -0.9139   -1.1302 C   0  0  0  0  0  0  0  0  0  0  0  0
    0.0450    2.6119    1.7113 C   0  0  0  0  0  0  0  0  0  0  0  0
    1.7164   -1.4568    0.3805 C   0  0  0  0  0  0  0  0  0  0  0  0
    2.9861   -0.3557   -1.3966 C   0  0  0  0  0  0  0  0  0  0  0  0
   -5.0160   -1.1354   -0.4754 C   0  0  0  0  0  0  0  0  0  0  0  0
    4.2264    0.1829   -0.7039 C   0  0  0  0  0  0  0  0  0  0  0  0
  1 10  2  0
  2 11  2  0
  3 15  2  0
  4 10  1  0
  4 15  1  0
  4 16  1  0
  5 11  1  0
  5 15  1  0
  6  7  1  0
  6  8  1  0
  6 10  1  0
  6 11  1  0
  7  9  1  0
  7 12  1  0
  8 14  1  0
  9 13  1  0
 13 17  1  0
 16 18  1  0
M  END
>  <PUBCHEM_COMPOUND_CID>  (1) 
42473

>  <PUBCHEM_CONFORMER_RMSD>  (1) 
0.8

>  <PUBCHEM_CONFORMER_DIVERSEORDER>  (1) 
2
14
18
23
28
6
17
27
19
7
26
10
11
22
20
3
15
25
5
12
8
16
13
1
9
21
4
24

>  <PUBCHEM_MMFF94_PARTIAL_CHARGES>  (1) 
11
1 -0.57
10 0.57
11 0.57
15 0.69
16 0.3
2 -0.57
3 -0.57
32 0.37
4 -0.42
5 -0.49
6 0.12

>  <PUBCHEM_EFFECTIVE_ROTOR_COUNT>  (1) 
5.6

>  <PUBCHEM_PHARMACOPHORE_FEATURES>  (1) 
8
1 1 acceptor
1 12 hydrophobe
1 14 hydrophobe
1 17 hydrophobe
1 2 acceptor
1 3 acceptor
1 5 donor
6 4 5 6 10 11 15 rings

>  <PUBCHEM_HEAVY_ATOM_COUNT>  (1) 
18

>  <PUBCHEM_ATOM_DEF_STEREO_COUNT>  (1) 
0

>  <PUBCHEM_ATOM_UDEF_STEREO_COUNT>  (1) 
2

>  <PUBCHEM_BOND_DEF_STEREO_COUNT>  (1) 
0

>  <PUBCHEM_BOND_UDEF_STEREO_COUNT>  (1) 
0

>  <PUBCHEM_ISOTOPIC_ATOM_COUNT>  (1) 
0

>  <PUBCHEM_COMPONENT_COUNT>  (1) 
1

>  <PUBCHEM_CACTVS_TAUTO_COUNT>  (1) 
3

>  <PUBCHEM_CONFORMER_ID>  (1) 
0000A5E900000002

>  <PUBCHEM_MMFF94_ENERGY>  (1) 
42.6674

>  <PUBCHEM_FEATURE_SELFOVERLAP>  (1) 
40.597

>  <PUBCHEM_SHAPE_FINGERPRINT>  (1) 
11578080 2 18120627211262404980
11961588 58 15214153066061978774
12138202 97 16009041617149496402
12251169 10 12103845661394230023
12423570 1 13502444917397228192
12716301 132 15266229016287393747
13299463 15 18040998436089510452
13538477 17 18126567803824973728
14617773 55 18192721033496310424
14817 1 7873082474355745921
15207287 21 17530961406266301642
15852999 172 17240490212622204930
15906896 17 17909291095157656113
16945 1 18187089476614713997
1813 80 17489299802245363405
18534176 82 16443645569965869910
19010151 120 17988656219372224076
200 152 18410578374903608870
20361792 2 17702928301868284853
20600515 1 16773523273287511205
20723712 36 8574439733118374534
22112679 90 18121501254423361352
23419403 2 17836377307884051682
23526113 38 17821727225892652403
23559900 14 17022908995279538468
2748010 2 17317632085660018820
3060560 45 16226312807670192503
3323516 105 18194119840125914255
6786 2 17047376645884965673
7364860 26 17630034099767330409

>  <PUBCHEM_SHAPE_MULTIPOLES>  (1) 
342.86
5.99
2.12
1.83
3.51
1.36
-0.29
-4.03
2.01
-0.31
-0.68
-0.11
0.07
-0.58

>  <PUBCHEM_SHAPE_SELFOVERLAP>  (1) 
693.668

>  <PUBCHEM_SHAPE_VOLUME>  (1) 
198.8

>  <PUBCHEM_COORDINATE_TYPE>  (1) 
2
5
10

$$$$
