42499
     RDKit          3D

 19 20  0  0  0  0  0  0  0  0999 V2000
    2.7278    3.3097   -0.0387 Cl  0  0  0  0  0  0  0  0  0  0  0  0
   -0.4316   -1.8578   -1.3248 O   0  0  0  0  0  0  0  0  0  0  0  0
    1.8000   -2.4963   -0.0872 O   0  0  0  0  0  0  0  0  0  0  0  0
   -4.5741    0.9770    1.1567 N   0  0  0  0  0  0  0  0  0  0  0  0
   -1.3943    0.0830   -0.4983 N   0  0  0  0  0  0  0  0  0  0  0  0
    4.7839    1.1788    0.6639 N   0  0  0  0  0  0  0  0  0  0  0  0
   -2.7646   -0.2729   -0.7877 C   0  0  0  0  0  0  0  0  0  0  0  0
   -3.5967    0.9696   -1.1143 C   0  0  0  0  0  0  0  0  0  0  0  0
   -3.3942   -1.0516    0.3707 C   0  0  0  0  0  0  0  0  0  0  0  0
   -3.9186    1.7922    0.1344 C   0  0  0  0  0  0  0  0  0  0  0  0
   -3.7357   -0.1516    1.5600 C   0  0  0  0  0  0  0  0  0  0  0  0
   -0.3303   -0.7536   -0.7968 C   0  0  0  0  0  0  0  0  0  0  0  0
    1.0148   -0.2537   -0.4122 C   0  0  0  0  0  0  0  0  0  0  0  0
    2.0097   -1.1497   -0.0775 C   0  0  0  0  0  0  0  0  0  0  0  0
    1.2230    1.1113   -0.4038 C   0  0  0  0  0  0  0  0  0  0  0  0
    3.2660   -0.6607    0.2807 C   0  0  0  0  0  0  0  0  0  0  0  0
    2.4794    1.6002   -0.0455 C   0  0  0  0  0  0  0  0  0  0  0  0
    3.5009    0.7141    0.2966 C   0  0  0  0  0  0  0  0  0  0  0  0
    1.3347   -3.0879    1.1239 C   0  0  0  0  0  0  0  0  0  0  0  0
  1 17  1  0
  2 12  2  0
  3 14  1  0
  3 19  1  0
  4 10  1  0
  4 11  1  0
  5  7  1  0
  5 12  1  0
  6 18  1  0
  7  8  1  0
  7  9  1  0
  8 10  1  0
  9 11  1  0
 12 13  1  0
 13 14  2  0
 13 15  1  0
 14 16  1  0
 15 17  2  0
 16 18  2  0
 17 18  1  0
M  END
>  <PUBCHEM_COMPOUND_CID>  (1) 
42499

>  <PUBCHEM_CONFORMER_RMSD>  (1) 
0.8

>  <PUBCHEM_CONFORMER_DIVERSEORDER>  (1) 
1
9
12
18
4
14
19
3
10
8
17
11
16
15
21
6
2
20
22
13
5
7

>  <PUBCHEM_MMFF94_PARTIAL_CHARGES>  (1) 
23
1 -0.18
10 0.27
11 0.27
12 0.54
13 0.09
14 0.08
15 -0.15
16 -0.15
17 0.18
18 0.1
19 0.28
2 -0.57
29 0.36
3 -0.36
30 0.37
31 0.15
32 0.15
33 0.4
34 0.4
4 -0.9
5 -0.73
6 -0.9
7 0.3

>  <PUBCHEM_EFFECTIVE_ROTOR_COUNT>  (1) 
5.2

>  <PUBCHEM_PHARMACOPHORE_FEATURES>  (1) 
9
1 2 acceptor
1 3 acceptor
1 4 cation
1 4 donor
1 5 donor
1 6 cation
1 6 donor
6 13 14 15 16 17 18 rings
6 4 7 8 9 10 11 rings

>  <PUBCHEM_HEAVY_ATOM_COUNT>  (1) 
19

>  <PUBCHEM_ATOM_DEF_STEREO_COUNT>  (1) 
0

>  <PUBCHEM_ATOM_UDEF_STEREO_COUNT>  (1) 
0

>  <PUBCHEM_BOND_DEF_STEREO_COUNT>  (1) 
0

>  <PUBCHEM_BOND_UDEF_STEREO_COUNT>  (1) 
0

>  <PUBCHEM_ISOTOPIC_ATOM_COUNT>  (1) 
0

>  <PUBCHEM_COMPONENT_COUNT>  (1) 
1

>  <PUBCHEM_CACTVS_TAUTO_COUNT>  (1) 
3

>  <PUBCHEM_CONFORMER_ID>  (1) 
0000A60300000001

>  <PUBCHEM_MMFF94_ENERGY>  (1) 
55.9523

>  <PUBCHEM_FEATURE_SELFOVERLAP>  (1) 
45.681

>  <PUBCHEM_SHAPE_FINGERPRINT>  (1) 
10366900 7 18041005050555495175
10382601 240 18336257956076727026
10465860 228 18342177743580733516
10498660 4 15051734140926273697
10980938 120 18410568479277866382
11640471 11 17917715703573355193
12251169 10 18409172086884021831
12390115 104 18051705631077782052
12633257 1 17967529090538261171
12644460 14 18335415721537802674
13140716 1 18337387274624556440
13533116 47 18115593635099722811
13583140 156 18260265210060015447
14178342 30 17968106360356232827
14466204 15 18339066147550533976
14790565 3 18262803003346755588
15475509 8 18200612336751897940
1601671 61 18410013239260428244
1813 80 17413325563401935030
18186145 218 18130796658710219372
19049666 15 17751633248174250863
19784866 170 18259703385045218924
19784866 9 18412824677111747632
201361 129 18411135848652265390
20157964 124 18339074879603726765
20233049 118 17346594162491285232
20281475 54 7853588901973441357
20645477 70 18268136583300987655
20681677 76 18334572409209655869
20739085 24 18261393317738453032
21065199 12 18260836956085249641
21503847 285 18272378525046489882
21524375 3 18199747118824367006
21665062 11 18340208479448024956
21731228 192 18264207087773026778
21864079 5 17916594133247014497
22854114 111 18411419509656670445
23114952 82 11239992352389048899
23402539 116 14908186347958015408
23557571 272 13829833743722408157
23558518 356 17903628928471434790
23559900 14 17386854889529424407
2748010 2 17980181003836469334
2838139 119 15553586574213410224
474 4 18411133675314599504
49207404 50 18187939437789280865
5104073 3 18411131446321584098
602551 16 16226057703238570921
633830 44 18343307006473628964
7097593 13 18263081011851847651

>  <PUBCHEM_SHAPE_MULTIPOLES>  (1) 
366.2
8.7
2.97
1.14
4.36
0.2
0.11
-4.31
2.55
-2.52
0.4
0.99
0.23
-0.05

>  <PUBCHEM_SHAPE_SELFOVERLAP>  (1) 
757.093

>  <PUBCHEM_SHAPE_VOLUME>  (1) 
209.7

>  <PUBCHEM_COORDINATE_TYPE>  (1) 
2
5
10

$$$$
