4252
     RDKit          3D

 32 34  0  0  1  0  0  0  0  0999 V2000
   -2.7377   -0.0021   -0.5713 S   0  0  0  0  0  0  0  0  0  0  0  0
    3.8136   -3.8266    0.3587 S   0  0  0  0  0  0  0  0  0  0  0  0
    1.7221   -2.2626    0.3023 F   0  0  0  0  0  0  0  0  0  0  0  0
    1.8168   -3.7127   -1.3218 F   0  0  0  0  0  0  0  0  0  0  0  0
    1.4961    1.1045   -1.9572 O   0  0  0  0  0  0  0  0  0  0  0  0
    4.6612    1.9142   -0.2622 O   0  0  0  0  0  0  0  0  0  0  0  0
    2.9463    0.8361    2.2260 O   0  0  0  0  0  0  0  0  0  0  0  0
    0.1097    2.5036    2.6122 O   0  0  0  0  0  0  0  0  0  0  0  0
   -1.0011    0.5278    2.3082 O   0  0  0  0  0  0  0  0  0  0  0  0
    4.9502   -1.0150    1.0589 O   0  0  0  0  0  0  0  0  0  0  0  0
   -6.5682   -2.1775    1.5047 O   0  0  0  0  0  0  0  0  0  0  0  0
    1.5998    1.4696    0.4050 N   0  0  0  0  0  0  0  0  0  0  0  0
    3.7169   -0.2838   -0.7661 N   0  0  0  0  0  0  0  0  0  0  0  0
   -5.4538   -0.5271   -0.5999 N   0  0  0  0  0  0  0  0  0  0  0  0
   -5.0037    1.5942   -0.6288 N   0  0  0  0  0  0  0  0  0  0  0  0
   -6.6455    0.0859   -0.6254 N   0  0  0  0  0  0  0  0  0  0  0  0
   -6.3640    1.3830   -0.6425 N   0  0  0  0  0  0  0  0  0  0  0  0
    2.2135    1.7267   -0.8806 C   0  0  0  0  0  0  0  0  0  0  0  0
    3.4858    1.0819   -0.2835 C   0  0  0  0  0  0  0  0  0  0  0  0
    2.7118    1.1156    1.0741 C   0  0  0  0  0  0  0  0  0  0  0  0
    0.2547    1.5071    0.5436 C   0  0  0  0  0  0  0  0  0  0  0  0
   -0.5211    1.5499   -0.5649 C   0  0  0  0  0  0  0  0  0  0  0  0
    0.0993    1.4560   -1.9666 C   0  0  0  0  0  0  0  0  0  0  0  0
   -2.0221    1.6517   -0.5877 C   0  0  0  0  0  0  0  0  0  0  0  0
   -0.2931    1.4299    1.9018 C   0  0  0  0  0  0  0  0  0  0  0  0
    4.4396   -1.2248   -0.0404 C   0  0  0  0  0  0  0  0  0  0  0  0
    5.1645    2.2938   -1.5347 C   0  0  0  0  0  0  0  0  0  0  0  0
    4.5333   -2.5683   -0.7227 C   0  0  0  0  0  0  0  0  0  0  0  0
   -4.4601    0.3991   -0.6020 C   0  0  0  0  0  0  0  0  0  0  0  0
   -5.3752   -1.9657   -0.5764 C   0  0  0  0  0  0  0  0  0  0  0  0
    2.0715   -3.5384   -0.0004 C   0  0  0  0  0  0  0  0  0  0  0  0
   -5.3610   -2.5261    0.8395 C   0  0  0  0  0  0  0  0  0  0  0  0
  1 24  1  0
  1 29  1  0
  2 28  1  0
  2 31  1  0
  3 31  1  0
  4 31  1  0
  5 18  1  0
  5 23  1  0
  6 19  1  0
  6 27  1  0
  7 20  2  0
  8 25  1  0
  9 25  2  0
 10 26  2  0
 11 32  1  0
 12 18  1  0
 12 20  1  0
 12 21  1  0
 13 19  1  0
 13 26  1  0
 14 16  1  0
 14 29  1  0
 14 30  1  0
 15 17  1  0
 15 29  2  0
 16 17  2  0
 18 19  1  0
 19 20  1  0
 21 22  2  0
 21 25  1  0
 22 23  1  0
 22 24  1  0
 26 28  1  0
 30 32  1  0
M  END
>  <PUBCHEM_COMPOUND_CID>  (1) 
4252

>  <PUBCHEM_CONFORMER_RMSD>  (1) 
1.2

>  <PUBCHEM_CONFORMER_DIVERSEORDER>  (1) 
1
18
88
53
7
93
92
72
61
105
84
103
42
89
104
91
50
28
33
64
68
106
78
65
19
100
102
62
26
25
95
57
67
83
5
107
59
74
4
41
97
55
101
99
20
40
47
43
36
21
44
85
96
23
56
38
108
46
11
37
69
63
48
66
86
6
51
29
16
8
79
70
90
27
58
94
77
34
73
39
15
81
98
24
82
49
60
54
14
9
71
32
109
12
10
87
22
80
75
2
52
45
3
30
31
35
13
76
17

>  <PUBCHEM_MMFF94_PARTIAL_CHARGES>  (1) 
34
1 -0.29
10 -0.57
11 -0.68
12 -0.39
13 -0.65
14 0.31
15 -0.34
16 -0.42
18 0.48
19 0.54
2 -0.46
20 0.58
21 0.12
22 -0.28
23 0.42
24 0.37
25 0.71
26 0.57
27 0.28
28 0.29
29 0.24
3 -0.34
30 0.26
31 0.91
32 0.28
34 0.37
4 -0.34
44 0.5
5 -0.54
50 0.4
6 -0.54
7 -0.57
8 -0.65
9 -0.57

>  <PUBCHEM_EFFECTIVE_ROTOR_COUNT>  (1) 
12.6

>  <PUBCHEM_PHARMACOPHORE_FEATURES>  (1) 
14
1 10 acceptor
1 11 acceptor
1 11 donor
1 13 donor
1 5 acceptor
1 6 acceptor
1 7 acceptor
1 8 acceptor
1 9 acceptor
3 14 15 29 cation
3 8 9 25 anion
4 12 18 19 20 rings
5 14 15 16 17 29 rings
6 5 12 18 21 22 23 rings

>  <PUBCHEM_HEAVY_ATOM_COUNT>  (1) 
32

>  <PUBCHEM_ATOM_DEF_STEREO_COUNT>  (1) 
0

>  <PUBCHEM_ATOM_UDEF_STEREO_COUNT>  (1) 
2

>  <PUBCHEM_BOND_DEF_STEREO_COUNT>  (1) 
0

>  <PUBCHEM_BOND_UDEF_STEREO_COUNT>  (1) 
0

>  <PUBCHEM_ISOTOPIC_ATOM_COUNT>  (1) 
0

>  <PUBCHEM_COMPONENT_COUNT>  (1) 
1

>  <PUBCHEM_CACTVS_TAUTO_COUNT>  (1) 
2

>  <PUBCHEM_CONFORMER_ID>  (1) 
0000109C00000001

>  <PUBCHEM_MMFF94_ENERGY>  (1) 
60.4575

>  <PUBCHEM_FEATURE_SELFOVERLAP>  (1) 
71.448

>  <PUBCHEM_SHAPE_FINGERPRINT>  (1) 
11578080 2 13407947880865135558
11796584 16 18410851032439002829
12633257 1 16845565452856651637
12788726 201 17489315161043594152
13533116 47 18343016666473409365
1361 2 18187087278013679516
13782708 43 17987511676009291143
15475509 35 18201708557426799067
15537594 2 18059572541989268591
15799311 1 18337124392824825829
21197605 99 18263365944114064974
21315764 119 18261668174270930597
23559900 14 18409157823656646325
25222932 49 17845082051188929511
2838139 119 9078821983361428970
33382 64 18410859879955561985
338550 245 18334857268278230799
392239 28 17271121464606875938
4073 2 18261115201283470333
4340502 62 18342447184655621344
4435113 14 18187094970432508203
46194498 28 18040714728099331180
463206 1 18272078414033115503
5265222 85 18048886491468899604
6086070 43 17417511585248165429

>  <PUBCHEM_SHAPE_MULTIPOLES>  (1) 
580.73
14.69
4.16
1.84
22.36
4.68
0.94
6.16
-2
-3.61
-0.2
-0.42
-0.99
0.64

>  <PUBCHEM_SHAPE_SELFOVERLAP>  (1) 
1187.601

>  <PUBCHEM_SHAPE_VOLUME>  (1) 
338.5

>  <PUBCHEM_COORDINATE_TYPE>  (1) 
2
5
10

$$$$
