42528
     RDKit          3D

 28 30  0  0  0  0  0  0  0  0999 V2000
   -0.7420   -3.2211    4.0614 Cl  0  0  0  0  0  0  0  0  0  0  0  0
   -7.0188    1.0652   -1.0936 Cl  0  0  0  0  0  0  0  0  0  0  0  0
    2.2047    0.4771   -0.9773 N   0  0  0  0  0  0  0  0  0  0  0  0
    0.9483    0.1238   -0.4207 N   0  0  0  0  0  0  0  0  0  0  0  0
    2.7298    3.7132    0.8260 N   0  0  0  0  0  0  0  0  0  0  0  0
    2.8957   -2.2287   -1.7307 N   0  0  0  0  0  0  0  0  0  0  0  0
    2.5426    1.8994   -0.8070 C   0  0  0  0  0  0  0  0  0  0  0  0
    2.3593    0.0687   -2.3827 C   0  0  0  0  0  0  0  0  0  0  0  0
    0.7572   -0.6997    0.6658 C   0  0  0  0  0  0  0  0  0  0  0  0
   -0.6203   -0.7873    0.8780 C   0  0  0  0  0  0  0  0  0  0  0  0
   -1.2479    0.0115   -0.1185 C   0  0  0  0  0  0  0  0  0  0  0  0
   -0.2577    0.5588   -0.9013 C   0  0  0  0  0  0  0  0  0  0  0  0
    2.3778    2.3079    0.6538 C   0  0  0  0  0  0  0  0  0  0  0  0
    2.0058   -1.4068   -2.5435 C   0  0  0  0  0  0  0  0  0  0  0  0
    1.6890   -1.3670    1.4689 C   0  0  0  0  0  0  0  0  0  0  0  0
   -2.6405    0.2652   -0.3530 C   0  0  0  0  0  0  0  0  0  0  0  0
   -1.0935   -1.5788    1.9433 C   0  0  0  0  0  0  0  0  0  0  0  0
    1.1963   -2.1463    2.5197 C   0  0  0  0  0  0  0  0  0  0  0  0
   -0.1732   -2.2520    2.7549 C   0  0  0  0  0  0  0  0  0  0  0  0
    2.4933    4.1377    2.2066 C   0  0  0  0  0  0  0  0  0  0  0  0
    4.1273    3.9427    0.4560 C   0  0  0  0  0  0  0  0  0  0  0  0
    4.2859   -2.0567   -2.1552 C   0  0  0  0  0  0  0  0  0  0  0  0
    2.5106   -3.6386   -1.8108 C   0  0  0  0  0  0  0  0  0  0  0  0
   -3.3694   -0.5692   -1.2013 C   0  0  0  0  0  0  0  0  0  0  0  0
   -3.2674    1.3475    0.2659 C   0  0  0  0  0  0  0  0  0  0  0  0
   -4.7230   -0.3217   -1.4304 C   0  0  0  0  0  0  0  0  0  0  0  0
   -4.6210    1.5950    0.0369 C   0  0  0  0  0  0  0  0  0  0  0  0
   -5.3489    0.7603   -0.8113 C   0  0  0  0  0  0  0  0  0  0  0  0
  1 19  1  0
  2 28  1  0
  3  4  1  0
  3  7  1  0
  3  8  1  0
  4  9  1  0
  4 12  1  0
  5 13  1  0
  5 20  1  0
  5 21  1  0
  6 14  1  0
  6 22  1  0
  6 23  1  0
  7 13  1  0
  8 14  1  0
  9 10  2  0
  9 15  1  0
 10 11  1  0
 10 17  1  0
 11 12  2  0
 11 16  1  0
 15 18  2  0
 16 24  2  0
 16 25  1  0
 17 19  2  0
 18 19  1  0
 24 26  1  0
 25 27  2  0
 26 28  2  0
 27 28  1  0
M  END
>  <PUBCHEM_COMPOUND_CID>  (1) 
42528

>  <PUBCHEM_CONFORMER_RMSD>  (1) 
1

>  <PUBCHEM_CONFORMER_DIVERSEORDER>  (1) 
7
5
24
26
15
35
30
34
23
17
18
39
33
13
29
40
25
41
31
21
42
36
16
37
27
8
28
9
22
12
6
38
32
10
20
11
14
3
4
19
2
1

>  <PUBCHEM_MMFF94_PARTIAL_CHARGES>  (1) 
35
1 -0.18
11 -0.05
12 -0.3
13 0.27
14 0.27
15 -0.15
16 0.05
17 -0.15
18 -0.15
19 0.18
2 -0.18
20 0.27
21 0.27
22 0.27
23 0.27
24 -0.15
25 -0.15
26 -0.15
27 -0.15
28 0.18
3 -0.69
33 0.15
38 0.15
39 0.15
4 0.45
40 0.15
5 -0.81
53 0.15
54 0.15
55 0.15
56 0.15
6 -0.81
7 0.27
8 0.27
9 -0.15

>  <PUBCHEM_EFFECTIVE_ROTOR_COUNT>  (1) 
8

>  <PUBCHEM_PHARMACOPHORE_FEATURES>  (1) 
5
1 5 cation
1 6 cation
5 4 9 10 11 12 rings
6 16 24 25 26 27 28 rings
6 9 10 15 17 18 19 rings

>  <PUBCHEM_HEAVY_ATOM_COUNT>  (1) 
28

>  <PUBCHEM_ATOM_DEF_STEREO_COUNT>  (1) 
0

>  <PUBCHEM_ATOM_UDEF_STEREO_COUNT>  (1) 
0

>  <PUBCHEM_BOND_DEF_STEREO_COUNT>  (1) 
0

>  <PUBCHEM_BOND_UDEF_STEREO_COUNT>  (1) 
0

>  <PUBCHEM_ISOTOPIC_ATOM_COUNT>  (1) 
0

>  <PUBCHEM_COMPONENT_COUNT>  (1) 
1

>  <PUBCHEM_CACTVS_TAUTO_COUNT>  (1) 
1

>  <PUBCHEM_CONFORMER_ID>  (1) 
0000A62000000007

>  <PUBCHEM_MMFF94_ENERGY>  (1) 
67.9718

>  <PUBCHEM_FEATURE_SELFOVERLAP>  (1) 
25.465

>  <PUBCHEM_SHAPE_FINGERPRINT>  (1) 
10721379 63 16988563523869879081
11115154 58 17982746181264644837
11443803 9 17839712075038116184
11578080 2 17759287158942334472
11582403 64 18121757672629386820
11725454 13 18194953269771197300
11763715 3 17615114495397943779
12160290 23 17025170771774972163
12166972 35 16916511332895411750
12549972 3 18190483695037847576
12788726 201 17619656600140091974
13140716 1 17749376071219974995
13911987 19 18054261854336929382
14468879 13 17982449600729730880
15324884 4 17906195171399341508
15775530 1 18119835713619644594
20626108 58 17487618528686772527
21120745 212 17036398589143615082
21716022 299 17100874011200255475
22149856 69 17385726869206111841
22393880 68 18114184108326654519
23419403 2 17978268068152368442
23559900 14 17774712087657070109
244849 19 18265635323106982442
3493558 16 16700326400820301392
376196 1 18123733499219831969
474 4 18189044464482911429
495365 180 17676760994853757929
513532 50 18334009480166698703
57527295 17 18268733639515496084
59554788 281 17387962321213940347
9658208 31 17895771689335156563
9981440 41 17983853664436163744

>  <PUBCHEM_SHAPE_MULTIPOLES>  (1) 
560.04
9.77
4.62
3.37
17.86
2.08
-1.53
6.48
6.14
-6.88
-3.92
-2.68
-3.5
3.77

>  <PUBCHEM_SHAPE_SELFOVERLAP>  (1) 
1165.73

>  <PUBCHEM_SHAPE_VOLUME>  (1) 
324.3

>  <PUBCHEM_COORDINATE_TYPE>  (1) 
2
5
10

$$$$
