42532
     RDKit          3D

 28 30  0  0  0  0  0  0  0  0999 V2000
   -7.0314    0.9735   -1.1056 Cl  0  0  0  0  0  0  0  0  0  0  0  0
   -0.5925   -2.8274    3.9267 F   0  0  0  0  0  0  0  0  0  0  0  0
    2.1945    0.4322   -0.9969 N   0  0  0  0  0  0  0  0  0  0  0  0
    0.9422    0.0972   -0.4208 N   0  0  0  0  0  0  0  0  0  0  0  0
    2.7037    3.7522    0.6518 N   0  0  0  0  0  0  0  0  0  0  0  0
    2.9009   -2.3013   -1.6260 N   0  0  0  0  0  0  0  0  0  0  0  0
    2.5237    1.8631   -0.8941 C   0  0  0  0  0  0  0  0  0  0  0  0
    2.3480   -0.0400   -2.3824 C   0  0  0  0  0  0  0  0  0  0  0  0
    0.7587   -0.6720    0.7061 C   0  0  0  0  0  0  0  0  0  0  0  0
   -0.6177   -0.7551    0.9274 C   0  0  0  0  0  0  0  0  0  0  0  0
   -1.2524   -0.0100   -0.1054 C   0  0  0  0  0  0  0  0  0  0  0  0
   -0.2674    0.5021   -0.9182 C   0  0  0  0  0  0  0  0  0  0  0  0
    2.3602    2.3382    0.5465 C   0  0  0  0  0  0  0  0  0  0  0  0
    2.0036   -1.5237   -2.4736 C   0  0  0  0  0  0  0  0  0  0  0  0
    1.6963   -1.2939    1.5383 C   0  0  0  0  0  0  0  0  0  0  0  0
   -2.6472    0.2269   -0.3460 C   0  0  0  0  0  0  0  0  0  0  0  0
   -1.0834   -1.4946    2.0326 C   0  0  0  0  0  0  0  0  0  0  0  0
    1.2109   -2.0221    2.6283 C   0  0  0  0  0  0  0  0  0  0  0  0
   -0.1572   -2.1222    2.8735 C   0  0  0  0  0  0  0  0  0  0  0  0
    2.4681    4.2392    2.0119 C   0  0  0  0  0  0  0  0  0  0  0  0
    4.0986    3.9730    0.2675 C   0  0  0  0  0  0  0  0  0  0  0  0
    4.2889   -2.1405   -2.0620 C   0  0  0  0  0  0  0  0  0  0  0  0
    2.5247   -3.7158   -1.6395 C   0  0  0  0  0  0  0  0  0  0  0  0
   -3.3762   -0.6506   -1.1494 C   0  0  0  0  0  0  0  0  0  0  0  0
   -3.2755    1.3357    0.2222 C   0  0  0  0  0  0  0  0  0  0  0  0
   -4.7315   -0.4196   -1.3844 C   0  0  0  0  0  0  0  0  0  0  0  0
   -4.6310    1.5667   -0.0127 C   0  0  0  0  0  0  0  0  0  0  0  0
   -5.3591    0.6890   -0.8160 C   0  0  0  0  0  0  0  0  0  0  0  0
  1 28  1  0
  2 19  1  0
  3  4  1  0
  3  7  1  0
  3  8  1  0
  4  9  1  0
  4 12  1  0
  5 13  1  0
  5 20  1  0
  5 21  1  0
  6 14  1  0
  6 22  1  0
  6 23  1  0
  7 13  1  0
  8 14  1  0
  9 10  2  0
  9 15  1  0
 10 11  1  0
 10 17  1  0
 11 12  2  0
 11 16  1  0
 15 18  2  0
 16 24  2  0
 16 25  1  0
 17 19  2  0
 18 19  1  0
 24 26  1  0
 25 27  2  0
 26 28  2  0
 27 28  1  0
M  END
>  <PUBCHEM_COMPOUND_CID>  (1) 
42532

>  <PUBCHEM_CONFORMER_RMSD>  (1) 
1

>  <PUBCHEM_CONFORMER_DIVERSEORDER>  (1) 
7
28
24
40
22
35
30
5
42
43
23
16
31
41
17
29
15
34
21
37
25
27
26
18
39
33
20
13
8
12
9
6
11
32
36
38
10
14
2
3
4
19
1

>  <PUBCHEM_MMFF94_PARTIAL_CHARGES>  (1) 
35
1 -0.18
11 -0.05
12 -0.3
13 0.27
14 0.27
15 -0.15
16 0.05
17 -0.15
18 -0.15
19 0.19
2 -0.19
20 0.27
21 0.27
22 0.27
23 0.27
24 -0.15
25 -0.15
26 -0.15
27 -0.15
28 0.18
3 -0.69
33 0.15
38 0.15
39 0.15
4 0.45
40 0.15
5 -0.81
53 0.15
54 0.15
55 0.15
56 0.15
6 -0.81
7 0.27
8 0.27
9 -0.15

>  <PUBCHEM_EFFECTIVE_ROTOR_COUNT>  (1) 
8

>  <PUBCHEM_PHARMACOPHORE_FEATURES>  (1) 
5
1 5 cation
1 6 cation
5 4 9 10 11 12 rings
6 16 24 25 26 27 28 rings
6 9 10 15 17 18 19 rings

>  <PUBCHEM_HEAVY_ATOM_COUNT>  (1) 
28

>  <PUBCHEM_ATOM_DEF_STEREO_COUNT>  (1) 
0

>  <PUBCHEM_ATOM_UDEF_STEREO_COUNT>  (1) 
0

>  <PUBCHEM_BOND_DEF_STEREO_COUNT>  (1) 
0

>  <PUBCHEM_BOND_UDEF_STEREO_COUNT>  (1) 
0

>  <PUBCHEM_ISOTOPIC_ATOM_COUNT>  (1) 
0

>  <PUBCHEM_COMPONENT_COUNT>  (1) 
1

>  <PUBCHEM_CACTVS_TAUTO_COUNT>  (1) 
1

>  <PUBCHEM_CONFORMER_ID>  (1) 
0000A62400000007

>  <PUBCHEM_MMFF94_ENERGY>  (1) 
67.3169

>  <PUBCHEM_FEATURE_SELFOVERLAP>  (1) 
25.465

>  <PUBCHEM_SHAPE_FINGERPRINT>  (1) 
10721379 63 17275108344343291905
11115154 58 18053959350382990349
11443803 9 17839150228907133664
11578080 2 17685541806045002264
11582403 64 18121195826493097100
11725454 13 18194109948642372668
12160290 23 16952550227778348171
12166972 35 16988004877473578278
12549972 3 18117300201103659008
12788726 201 17690868669736266662
13140716 1 17676474060804874467
133893 2 17487647254028985940
14468879 13 17981887750282675568
14955137 171 18117826708091327683
15324884 4 17905351845986125076
21120745 212 17107893237554718018
21716022 299 17028252371965865579
22149856 69 17313107424726481449
22393880 68 18113621162668200495
23419403 2 17977423638927230194
23559900 14 17846207831269035255
238 59 18058184967026243038
244849 19 18264790893844959938
376196 1 18122890178069921257
474 4 18116143545010642085
495365 180 17604140450862421673
513532 50 18261107461203939535
57527295 17 18268170689572604788
57527452 28 16516521081076456906
9658208 31 17895208735113135235
9981440 41 18055067933060881696

>  <PUBCHEM_SHAPE_MULTIPOLES>  (1) 
550.9
9.91
4.48
3.07
18.74
3.94
-2.61
4.56
6.59
-8.4
-1.37
-1.82
-3.22
2.43

>  <PUBCHEM_SHAPE_SELFOVERLAP>  (1) 
1157.705

>  <PUBCHEM_SHAPE_VOLUME>  (1) 
317.9

>  <PUBCHEM_COORDINATE_TYPE>  (1) 
2
5
10

$$$$
