42547
     RDKit          3D

 17 17  0  0  0  0  0  0  0  0999 V2000
    0.9300   -2.0401    0.2826 O   0  0  0  0  0  0  0  0  0  0  0  0
   -1.7785   -1.7174    0.9342 O   0  0  0  0  0  0  0  0  0  0  0  0
   -5.0964    1.6930   -0.7710 O   0  0  0  0  0  0  0  0  0  0  0  0
   -0.5323   -0.4280   -0.5579 N   0  0  0  0  0  0  0  0  0  0  0  0
   -6.3220    0.4176    0.7002 N   0  0  0  0  0  0  0  0  0  0  0  0
    1.7486   -0.4265   -1.3270 C   0  0  0  0  0  0  0  0  0  0  0  0
    2.9285    0.1110   -0.5610 C   0  0  0  0  0  0  0  0  0  0  0  0
    2.9034    1.4188   -0.0973 C   0  0  0  0  0  0  0  0  0  0  0  0
    4.0238   -0.7092   -0.3294 C   0  0  0  0  0  0  0  0  0  0  0  0
    0.7013   -1.0741   -0.4407 C   0  0  0  0  0  0  0  0  0  0  0  0
    3.9961    1.9168    0.6125 C   0  0  0  0  0  0  0  0  0  0  0  0
    5.1164   -0.2111    0.3805 C   0  0  0  0  0  0  0  0  0  0  0  0
    5.1024    1.1018    0.8514 C   0  0  0  0  0  0  0  0  0  0  0  0
   -1.6851   -0.7915    0.1349 C   0  0  0  0  0  0  0  0  0  0  0  0
   -2.8359    0.0918   -0.2066 C   0  0  0  0  0  0  0  0  0  0  0  0
   -4.0266   -0.1169    0.3690 C   0  0  0  0  0  0  0  0  0  0  0  0
   -5.1739    0.7641    0.0256 C   0  0  0  0  0  0  0  0  0  0  0  0
  1 10  2  0
  2 14  2  0
  3 17  2  0
  4 10  1  0
  4 14  1  0
  5 17  1  0
  6  7  1  0
  6 10  1  0
  7  8  2  0
  7  9  1  0
  8 11  1  0
  9 12  2  0
 11 13  2  0
 12 13  1  0
 14 15  1  0
 15 16  2  0
 16 17  1  0
M  END
>  <PUBCHEM_COMPOUND_CID>  (1) 
42547

>  <PUBCHEM_CONFORMER_RMSD>  (1) 
0.8

>  <PUBCHEM_CONFORMER_DIVERSEORDER>  (1) 
2
11
5
29
18
3
10
28
15
17
24
19
9
14
20
30
12
8
26
25
1
22
27
13
23
16
7
4
21
6

>  <PUBCHEM_MMFF94_PARTIAL_CHARGES>  (1) 
27
1 -0.57
10 0.57
11 -0.15
12 -0.15
13 -0.15
14 0.62
15 -0.14
16 -0.14
17 0.62
2 -0.57
20 0.15
21 0.15
22 0.15
23 0.15
24 0.15
25 0.37
26 0.15
27 0.15
28 0.37
29 0.37
3 -0.57
4 -0.49
5 -0.8
6 0.2
7 -0.14
8 -0.15
9 -0.15

>  <PUBCHEM_EFFECTIVE_ROTOR_COUNT>  (1) 
6

>  <PUBCHEM_PHARMACOPHORE_FEATURES>  (1) 
6
1 1 acceptor
1 2 acceptor
1 3 acceptor
1 4 donor
1 5 donor
6 7 8 9 11 12 13 rings

>  <PUBCHEM_HEAVY_ATOM_COUNT>  (1) 
17

>  <PUBCHEM_ATOM_DEF_STEREO_COUNT>  (1) 
0

>  <PUBCHEM_ATOM_UDEF_STEREO_COUNT>  (1) 
0

>  <PUBCHEM_BOND_DEF_STEREO_COUNT>  (1) 
0

>  <PUBCHEM_BOND_UDEF_STEREO_COUNT>  (1) 
1

>  <PUBCHEM_ISOTOPIC_ATOM_COUNT>  (1) 
0

>  <PUBCHEM_COMPONENT_COUNT>  (1) 
1

>  <PUBCHEM_CACTVS_TAUTO_COUNT>  (1) 
6

>  <PUBCHEM_CONFORMER_ID>  (1) 
0000A63300000002

>  <PUBCHEM_MMFF94_ENERGY>  (1) 
37.5113

>  <PUBCHEM_FEATURE_SELFOVERLAP>  (1) 
30.45

>  <PUBCHEM_SHAPE_FINGERPRINT>  (1) 
10014705 185 18272087227521836311
11089746 13 18412537708681805238
11128504 68 14908179767756862081
11287383 113 18131635599531726991
11646440 116 18410304605446822321
12596602 18 15502664814391137277
12633257 1 16226048924309560579
12714333 28 16415478250793847467
13103583 49 14345800405484320541
13167372 99 17845661343651329761
13402501 40 18412259532335663841
13533116 47 18263081033258262090
13685833 64 9727626229334732021
13955234 65 18268999678570564595
14251718 22 12463565184140770417
14251764 18 17894910754740486578
14251764 30 13479400631696335512
14366163 111 16343984697884313307
14455015 7 10665229241828197117
14576447 43 8790619121693530816
15188451 53 16878790546980763251
15342816 4 11095898055287068268
15531645 54 18410576167717757958
15537594 2 12179846117246581256
17870717 6 11743840262184041973
17959699 21 18060703870771871713
193927 3 11458697279590085984
19489759 90 17458345239310948153
19784866 240 10665225926071129607
20157964 124 18060139816816656999
20281475 54 8141548807260557340
20621476 21 10591751147756360733
20645477 56 18409453583304186887
21150785 3 17632568341795819301
212847 35 18408326601218456028
212916 134 18040431109633135755
21452121 103 18337106770046768978
21713013 43 10087380918830218634
22950370 63 8214148472951916735
23016692 55 8935003698011580163
23402539 116 18342731936001003455
23402655 69 17418374705157703653
23503953 91 17677052446696560222
23559900 14 18202570544863794054
2767999 5 18131347518468125153
2838139 119 18131343107552783181
2916195 48 18410572877735879425
314194 84 11386370352353138665
33382 64 11169908368663990532
351380 180 18342737425074760856
351380 3 12829205585345237840
3545911 37 18409173194780070191
4047638 21 18273500069983121078
465052 167 13190340162661583520
5207 217 11239989093078303898
58807428 26 17530959198411006290
59682541 52 16414937296202068676
8509985 295 18341607127532942144
94968 8 8214149547221118492

>  <PUBCHEM_SHAPE_MULTIPOLES>  (1) 
322.28
14
1.7
0.94
12.6
0.14
0.08
6.79
-2.31
-0.66
-0.19
-0.12
-0.04
0.93

>  <PUBCHEM_SHAPE_SELFOVERLAP>  (1) 
665.064

>  <PUBCHEM_SHAPE_VOLUME>  (1) 
182.6

>  <PUBCHEM_COORDINATE_TYPE>  (1) 
2
5
10

$$$$
