42553
     RDKit          3D

 24 27  0  0  1  0  0  0  0  0999 V2000
    0.3552   -0.0451   -1.7397 O   0  0  0  0  0  0  0  0  0  0  0  0
    3.4818    1.1055   -0.2315 N   0  0  0  0  0  0  0  0  0  0  0  0
    2.1810   -1.0901    0.2694 C   0  0  0  0  0  0  0  0  0  0  0  0
    1.2620    0.1438    0.4221 C   0  0  0  0  0  0  0  0  0  0  0  0
    2.0507    1.4054    0.0030 C   0  0  0  0  0  0  0  0  0  0  0  0
    2.7883   -1.1146   -1.1431 C   0  0  0  0  0  0  0  0  0  0  0  0
    3.3503   -0.9011    1.2531 C   0  0  0  0  0  0  0  0  0  0  0  0
   -0.0467    0.0142   -0.3543 C   0  0  0  0  0  0  0  0  0  0  0  0
    3.5821    0.1799   -1.3811 C   0  0  0  0  0  0  0  0  0  0  0  0
    4.0414    0.4423    0.9663 C   0  0  0  0  0  0  0  0  0  0  0  0
   -0.9093    1.2665   -0.1192 C   0  0  0  0  0  0  0  0  0  0  0  0
   -0.8569   -1.2632   -0.0742 C   0  0  0  0  0  0  0  0  0  0  0  0
   -2.0534    1.4427   -0.8557 C   0  0  0  0  0  0  0  0  0  0  0  0
   -1.3836   -1.4650    1.1768 C   0  0  0  0  0  0  0  0  0  0  0  0
   -0.4810    2.1592    0.8329 C   0  0  0  0  0  0  0  0  0  0  0  0
   -1.0139   -2.1520   -1.1098 C   0  0  0  0  0  0  0  0  0  0  0  0
   -2.8202    2.5852   -0.6262 C   0  0  0  0  0  0  0  0  0  0  0  0
   -2.1147   -2.6302    1.4085 C   0  0  0  0  0  0  0  0  0  0  0  0
   -2.5047    0.4624   -1.8883 C   0  0  0  0  0  0  0  0  0  0  0  0
   -1.2028   -0.4888    2.2927 C   0  0  0  0  0  0  0  0  0  0  0  0
   -1.2478    3.3015    1.0623 C   0  0  0  0  0  0  0  0  0  0  0  0
   -1.7451   -3.3172   -0.8780 C   0  0  0  0  0  0  0  0  0  0  0  0
   -2.4173    3.5145    0.3328 C   0  0  0  0  0  0  0  0  0  0  0  0
   -2.2954   -3.5562    0.3811 C   0  0  0  0  0  0  0  0  0  0  0  0
  1  8  1  0
  2  5  1  0
  2  9  1  0
  2 10  1  0
  3  4  1  0
  3  6  1  0
  3  7  1  0
  4  5  1  0
  4  8  1  0
  6  9  1  0
  7 10  1  0
  8 11  1  0
  8 12  1  0
 11 13  2  0
 11 15  1  0
 12 14  2  0
 12 16  1  0
 13 17  1  0
 13 19  1  0
 14 18  1  0
 14 20  1  0
 15 21  2  0
 16 22  2  0
 17 23  2  0
 18 24  2  0
 21 23  1  0
 22 24  1  0
M  END
>  <PUBCHEM_COMPOUND_CID>  (1) 
42553

>  <PUBCHEM_CONFORMER_RMSD>  (1) 
0.8

>  <PUBCHEM_CONFORMER_DIVERSEORDER>  (1) 
1
3
2

>  <PUBCHEM_MMFF94_PARTIAL_CHARGES>  (1) 
29
1 -0.68
10 0.27
11 -0.14
12 -0.14
13 -0.14
14 -0.14
15 -0.15
16 -0.15
17 -0.15
18 -0.15
19 0.14
2 -0.81
20 0.14
21 -0.15
22 -0.15
23 -0.15
24 -0.15
37 0.4
38 0.15
39 0.15
40 0.15
41 0.15
48 0.15
49 0.15
5 0.27
50 0.15
51 0.15
8 0.57
9 0.27

>  <PUBCHEM_EFFECTIVE_ROTOR_COUNT>  (1) 
4.2

>  <PUBCHEM_PHARMACOPHORE_FEATURES>  (1) 
6
1 1 acceptor
1 1 donor
1 2 cation
6 11 13 15 17 21 23 rings
6 12 14 16 18 22 24 rings
8 2 3 4 5 6 7 9 10 rings

>  <PUBCHEM_HEAVY_ATOM_COUNT>  (1) 
24

>  <PUBCHEM_ATOM_DEF_STEREO_COUNT>  (1) 
0

>  <PUBCHEM_ATOM_UDEF_STEREO_COUNT>  (1) 
1

>  <PUBCHEM_BOND_DEF_STEREO_COUNT>  (1) 
0

>  <PUBCHEM_BOND_UDEF_STEREO_COUNT>  (1) 
0

>  <PUBCHEM_ISOTOPIC_ATOM_COUNT>  (1) 
0

>  <PUBCHEM_COMPONENT_COUNT>  (1) 
1

>  <PUBCHEM_CACTVS_TAUTO_COUNT>  (1) 
1

>  <PUBCHEM_CONFORMER_ID>  (1) 
0000A63900000001

>  <PUBCHEM_MMFF94_ENERGY>  (1) 
124.4582

>  <PUBCHEM_FEATURE_SELFOVERLAP>  (1) 
30.446

>  <PUBCHEM_SHAPE_FINGERPRINT>  (1) 
10764073 3 16335323758787831279
11578080 2 17414420994936685321
12035758 1 18340767165163339315
12160290 23 18335141977254051535
12173636 292 18338517409163704141
12553582 1 18050291663129265938
12643181 29 18050576149870283134
12714826 92 18336270162025629086
12788726 201 18335138730222157803
13004483 165 18339075024773168083
13009979 54 12692053712425873851
13134695 92 17687739854321840191
13140716 1 18267297823253052424
13149001 5 18049129410824751069
133893 2 17106206599744587381
13583140 156 17022907817604262048
13681431 1 17542237095387684263
13911987 19 16958736192033930308
13965767 371 17695114042522875387
14178342 30 18335405869188521090
14223421 5 18341051934163713560
14787075 74 18411692167735734373
14840074 17 16683130463900799328
14955137 171 17258258522132168882
15906896 17 18408602535228483755
16752209 62 18409167679720282671
16945 1 18412820270337950220
1813 80 17909001133114857398
18981168 100 18272384035747947984
20197701 30 18044922494542366549
20567600 347 17975978666031836361
20645476 183 18263650567359313060
21304303 282 17758066576286246741
21524375 3 18046623412965274677
21731228 192 18120937209121592649
22112679 90 17835557020643826915
22907989 373 18337411403413300357
23419403 2 14150059997898885347
23557571 272 18341043116659034978
23558518 356 18268424646577902638
23559900 14 18269838611154864238
23728640 28 18266162960003041194
238 59 17837501747459789123
2748010 2 17839160145975985928
3091708 16 9273744517304070345
3380486 145 18051691337157179867
35225 105 18189354410475249115
352729 6 18411413990586765470
394222 165 17317575727389427841
404807 78 17604409870636137871
4340502 62 17754747027067481665
474 4 17832991546415417865
5845 1 8561569683353559727
6138700 20 17188131189761732462
633830 44 17912640198706774380
6443956 14 17761496189682402991
70251023 43 18120953942815357046
7364860 26 17116910323865975413
81228 2 18261678163610123113
9709674 26 18272644637210006564
9981440 41 17915712372266119714

>  <PUBCHEM_SHAPE_MULTIPOLES>  (1) 
483.06
5.42
4.19
1.7
5.9
0.51
-0.11
-1.07
0.32
-5.17
-0.63
-0.3
0.36
0.31

>  <PUBCHEM_SHAPE_SELFOVERLAP>  (1) 
1069.68

>  <PUBCHEM_SHAPE_VOLUME>  (1) 
253.8

>  <PUBCHEM_COORDINATE_TYPE>  (1) 
2
5
10

$$$$
