4255
     RDKit          3D

 17 18  0  0  0  0  0  0  0  0999 V2000
   -5.1601   -0.9376    0.2140 O   0  0  0  0  0  0  0  0  0  0  0  0
    4.3283   -0.5718    0.4252 O   0  0  0  0  0  0  0  0  0  0  0  0
    2.7135   -0.6102    1.7440 O   0  0  0  0  0  0  0  0  0  0  0  0
   -2.5441    0.0518   -0.3322 N   0  0  0  0  0  0  0  0  0  0  0  0
   -1.1966    0.5879   -0.1636 N   0  0  0  0  0  0  0  0  0  0  0  0
   -0.9109    1.8130    0.2960 N   0  0  0  0  0  0  0  0  0  0  0  0
    2.3483    0.3017   -0.3975 N   0  0  0  0  0  0  0  0  0  0  0  0
   -3.6413    0.9464    0.0526 C   0  0  0  0  0  0  0  0  0  0  0  0
   -2.7626   -1.3038    0.1843 C   0  0  0  0  0  0  0  0  0  0  0  0
   -4.9867    0.3578   -0.3590 C   0  0  0  0  0  0  0  0  0  0  0  0
   -4.1346   -1.8249   -0.2307 C   0  0  0  0  0  0  0  0  0  0  0  0
   -0.0443   -0.1256   -0.4791 C   0  0  0  0  0  0  0  0  0  0  0  0
    0.5793    1.9333    0.2938 C   0  0  0  0  0  0  0  0  0  0  0  0
    1.0393    0.6110   -0.2318 C   0  0  0  0  0  0  0  0  0  0  0  0
    3.0033   -0.2556    0.5860 C   0  0  0  0  0  0  0  0  0  0  0  0
    4.9583   -0.2762   -0.8335 C   0  0  0  0  0  0  0  0  0  0  0  0
    6.4109   -0.6972   -0.7686 C   0  0  0  0  0  0  0  0  0  0  0  0
  1 10  1  0
  1 11  1  0
  2 15  1  0
  2 16  1  0
  3 15  1  0
  4  5  1  0
  4  8  1  0
  4  9  1  0
  5  6  2  0
  5 12  1  0
  6 13  1  0
  7 14  1  0
  7 15  2  0
  8 10  1  0
  9 11  1  0
 12 14  2  0
 13 14  1  0
 16 17  1  0
M  CHG  2   3  -1   5   1
M  END
>  <PUBCHEM_COMPOUND_CID>  (1) 
4255

>  <PUBCHEM_CONFORMER_RMSD>  (1) 
0.8

>  <PUBCHEM_CONFORMER_DIVERSEORDER>  (1) 
1
9
10
34
7
18
32
25
30
13
15
26
11
3
24
14
2
22
37
35
29
12
31
28
6
8
19
21
5
23
4
33
36
17
20
27
16

>  <PUBCHEM_MMFF94_PARTIAL_CHARGES>  (1) 
17
1 -0.56
10 0.28
11 0.28
12 0.14
13 0.38
14 0.03
15 0.46
16 0.28
2 -0.43
26 0.15
3 -0.86
4 -0.37
5 0.42
6 -0.13
7 -0.62
8 0.27
9 0.27

>  <PUBCHEM_EFFECTIVE_ROTOR_COUNT>  (1) 
5.4

>  <PUBCHEM_PHARMACOPHORE_FEATURES>  (1) 
3
1 1 acceptor
5 5 6 12 13 14 rings
6 1 4 8 9 10 11 rings

>  <PUBCHEM_HEAVY_ATOM_COUNT>  (1) 
17

>  <PUBCHEM_ATOM_DEF_STEREO_COUNT>  (1) 
0

>  <PUBCHEM_ATOM_UDEF_STEREO_COUNT>  (1) 
0

>  <PUBCHEM_BOND_DEF_STEREO_COUNT>  (1) 
0

>  <PUBCHEM_BOND_UDEF_STEREO_COUNT>  (1) 
0

>  <PUBCHEM_ISOTOPIC_ATOM_COUNT>  (1) 
0

>  <PUBCHEM_COMPONENT_COUNT>  (1) 
1

>  <PUBCHEM_CACTVS_TAUTO_COUNT>  (1) 
1

>  <PUBCHEM_CONFORMER_ID>  (1) 
0000109F00000001

>  <PUBCHEM_MMFF94_ENERGY>  (1) 
39.1904

>  <PUBCHEM_FEATURE_SELFOVERLAP>  (1) 
15.223

>  <PUBCHEM_SHAPE_FINGERPRINT>  (1) 
10968037 39 18334017202628594966
11046707 91 18408882945211320113
114248 4 14851606582961310002
12236239 1 18040719143446692484
124424 183 18411133654456805157
12596602 18 13614229391608402502
12714333 28 14851607687321773742
12788726 201 18262235499941588464
13288520 33 18412266133805080941
13675066 3 17774996908054763657
13740256 8 18412266172217154414
13760787 19 17967811617766205881
14251718 22 18260269655250816726
14251731 8 18334573534317014037
14252887 29 17775291551480331926
14386348 63 18131073722840121038
14576447 43 18040150725899825906
15188451 53 16486681589423435527
15242433 33 17967812725883781042
15501527 24 17894919533695701350
15537594 2 18186239519962293395
15880784 105 16773788251300261887
17804303 29 18411135866201484165
17834072 33 18259706709566099388
17834072 8 18334570240251106477
18222031 100 18201708574548652405
200 152 17385725777187153356
20281475 54 18187636973238848680
20374829 77 18410009940007834102
20871999 31 17894624833934743013
21033648 29 16701725065051047049
21150785 3 14923943488140937891
21267235 1 18409454717433989683
2297311 6 18272941496575078588
23035841 295 18408324363377016290
23402539 116 18411135827024448436
23402655 69 16950555541427648605
23557571 272 18130511812659467668
23559900 14 18340199790697718689
26918003 58 16630528444652922775
3004659 81 18259702319650625868
335352 9 18411418398199365269
351380 180 11600005453082304718
351380 3 18334293179942067875
4463277 17 18411983568065244380
465052 167 18271531995271380742
5104073 3 18199191862027623011
68521 5 18410293566753188749

>  <PUBCHEM_SHAPE_MULTIPOLES>  (1) 
312.32
12.93
1.55
0.89
7.85
0.25
0.22
-5.42
-2.1
-1.3
0.09
0.85
-0.12
0.11

>  <PUBCHEM_SHAPE_SELFOVERLAP>  (1) 
631.705

>  <PUBCHEM_SHAPE_VOLUME>  (1) 
183.1

>  <PUBCHEM_COORDINATE_TYPE>  (1) 
2
5
10

$$$$
