42559
     RDKit          3D

 38 43  0  0  0  0  0  0  0  0999 V2000
    4.6372    0.6208    0.1460 N   0  0  0  0  0  0  0  0  0  0  0  0
   -4.6189   -0.5269    0.1672 N   0  0  0  0  0  0  0  0  0  0  0  0
    8.5253   -0.6289   -0.6237 N   0  0  0  0  0  0  0  0  0  0  0  0
   -8.5607    0.4933   -0.6664 N   0  0  0  0  0  0  0  0  0  0  0  0
    0.4437    0.7423    1.2900 C   0  0  0  0  0  0  0  0  0  0  0  0
   -0.3832   -0.5445    1.3012 C   0  0  0  0  0  0  0  0  0  0  0  0
    1.9432    0.4404    1.2898 C   0  0  0  0  0  0  0  0  0  0  0  0
   -1.8827   -0.2422    1.3350 C   0  0  0  0  0  0  0  0  0  0  0  0
    2.7696    1.7262    1.2450 C   0  0  0  0  0  0  0  0  0  0  0  0
   -2.7097   -1.5315    1.3160 C   0  0  0  0  0  0  0  0  0  0  0  0
    4.2651    1.4275    1.2839 C   0  0  0  0  0  0  0  0  0  0  0  0
   -4.2128   -1.2666    1.3378 C   0  0  0  0  0  0  0  0  0  0  0  0
    5.9337    0.2040   -0.1106 C   0  0  0  0  0  0  0  0  0  0  0  0
   -5.9336   -0.1867   -0.1107 C   0  0  0  0  0  0  0  0  0  0  0  0
    6.3872   -1.0117    0.4112 C   0  0  0  0  0  0  0  0  0  0  0  0
   -6.4503    1.0249    0.3594 C   0  0  0  0  0  0  0  0  0  0  0  0
    6.7772    1.0029   -0.8893 C   0  0  0  0  0  0  0  0  0  0  0  0
   -6.7317   -1.0578   -0.8590 C   0  0  0  0  0  0  0  0  0  0  0  0
    7.7087   -1.3945    0.1257 C   0  0  0  0  0  0  0  0  0  0  0  0
   -7.7877    1.3289    0.0538 C   0  0  0  0  0  0  0  0  0  0  0  0
    8.0834    0.5411   -1.1240 C   0  0  0  0  0  0  0  0  0  0  0  0
   -8.0580   -0.6723   -1.1170 C   0  0  0  0  0  0  0  0  0  0  0  0
    5.5612   -1.8344    1.1968 C   0  0  0  0  0  0  0  0  0  0  0  0
   -5.6709    1.9194    1.1135 C   0  0  0  0  0  0  0  0  0  0  0  0
    6.3478    2.2289   -1.4265 C   0  0  0  0  0  0  0  0  0  0  0  0
   -6.2383   -2.2815   -1.3442 C   0  0  0  0  0  0  0  0  0  0  0  0
    8.1661   -2.6039    0.6424 C   0  0  0  0  0  0  0  0  0  0  0  0
   -8.3080    2.5337    0.5191 C   0  0  0  0  0  0  0  0  0  0  0  0
    8.9280    1.3320   -1.8985 C   0  0  0  0  0  0  0  0  0  0  0  0
   -8.8576   -1.5354   -1.8615 C   0  0  0  0  0  0  0  0  0  0  0  0
    6.0426   -3.0386    1.7013 C   0  0  0  0  0  0  0  0  0  0  0  0
   -6.2149    3.1174    1.5667 C   0  0  0  0  0  0  0  0  0  0  0  0
    7.2118    3.0006   -2.1975 C   0  0  0  0  0  0  0  0  0  0  0  0
   -7.0583   -3.1265   -2.0861 C   0  0  0  0  0  0  0  0  0  0  0  0
    7.3479   -3.4239    1.4234 C   0  0  0  0  0  0  0  0  0  0  0  0
   -7.5363    3.4248    1.2688 C   0  0  0  0  0  0  0  0  0  0  0  0
    8.5045    2.5510   -2.4338 C   0  0  0  0  0  0  0  0  0  0  0  0
   -8.3706   -2.7523   -2.3451 C   0  0  0  0  0  0  0  0  0  0  0  0
  1 11  1  0
  1 13  1  0
  2 12  1  0
  2 14  1  0
  3 19  2  0
  3 21  1  0
  4 20  2  0
  4 22  1  0
  5  6  1  0
  5  7  1  0
  6  8  1  0
  7  9  1  0
  8 10  1  0
  9 11  1  0
 10 12  1  0
 13 15  2  0
 13 17  1  0
 14 16  2  0
 14 18  1  0
 15 19  1  0
 15 23  1  0
 16 20  1  0
 16 24  1  0
 17 21  2  0
 17 25  1  0
 18 22  2  0
 18 26  1  0
 19 27  1  0
 20 28  1  0
 21 29  1  0
 22 30  1  0
 23 31  2  0
 24 32  2  0
 25 33  2  0
 26 34  2  0
 27 35  2  0
 28 36  2  0
 29 37  2  0
 30 38  2  0
 31 35  1  0
 32 36  1  0
 33 37  1  0
 34 38  1  0
M  END
>  <PUBCHEM_COMPOUND_CID>  (1) 
42559

>  <PUBCHEM_CONFORMER_RMSD>  (1) 
1.2

>  <PUBCHEM_CONFORMER_DIVERSEORDER>  (1) 
2
72
114
162
112
10
6
35
99
1
61
83
90
54
7
15
86
133
60
78
16
111
180
135
145
175
123
4
31
96
146
94
158
131
137
147
87
8
115
93
67
41
28
33
43
92
163
171
89
77
113
179
71
50
172
130
139
156
95
32
76
25
51
44
20
65
21
102
84
42
142
34
144
148
186
3
97
149
26
138
63
134
183
168
46
18
152
169
160
5
17
37
161
107
127
22
176
64
155
14
103
100
101
153
23
174
122
116
49
98
154
80
141
157
52
151
164
40
136
117
57
38
13
69
105
165
173
118
68
9
58
108
119
24
143
170
121
27
85
140
29
12
39
82
128
132
177
55
66
48
104
19
56
109
126
178
129
124
11
150
73
182
166
159
110
91
181
120
53
30
184
79
88
106
59
62
81
70
125
75
185
74
47
45
36
167

>  <PUBCHEM_MMFF94_PARTIAL_CHARGES>  (1) 
46
1 -0.87
11 0.37
12 0.37
13 0.1
14 0.1
19 0.31
2 -0.87
20 0.31
21 0.31
22 0.31
23 -0.15
24 -0.15
25 -0.15
26 -0.15
27 -0.15
28 -0.15
29 -0.15
3 -0.62
30 -0.15
31 -0.15
32 -0.15
33 -0.15
34 -0.15
35 -0.15
36 -0.15
37 -0.15
38 -0.15
4 -0.62
55 0.4
56 0.4
57 0.15
58 0.15
59 0.15
60 0.15
61 0.15
62 0.15
63 0.15
64 0.15
65 0.15
66 0.15
67 0.15
68 0.15
69 0.15
70 0.15
71 0.15
72 0.15

>  <PUBCHEM_EFFECTIVE_ROTOR_COUNT>  (1) 
11

>  <PUBCHEM_PHARMACOPHORE_FEATURES>  (1) 
14
1 1 cation
1 1 donor
1 2 cation
1 2 donor
1 3 acceptor
1 4 acceptor
3 5 7 9 hydrophobe
3 6 8 10 hydrophobe
6 15 19 23 27 31 35 rings
6 16 20 24 28 32 36 rings
6 17 21 25 29 33 37 rings
6 18 22 26 30 34 38 rings
6 3 13 15 17 19 21 rings
6 4 14 16 18 20 22 rings

>  <PUBCHEM_HEAVY_ATOM_COUNT>  (1) 
38

>  <PUBCHEM_ATOM_DEF_STEREO_COUNT>  (1) 
0

>  <PUBCHEM_ATOM_UDEF_STEREO_COUNT>  (1) 
0

>  <PUBCHEM_BOND_DEF_STEREO_COUNT>  (1) 
0

>  <PUBCHEM_BOND_UDEF_STEREO_COUNT>  (1) 
0

>  <PUBCHEM_ISOTOPIC_ATOM_COUNT>  (1) 
0

>  <PUBCHEM_COMPONENT_COUNT>  (1) 
1

>  <PUBCHEM_CACTVS_TAUTO_COUNT>  (1) 
3

>  <PUBCHEM_CONFORMER_ID>  (1) 
0000A63F00000002

>  <PUBCHEM_MMFF94_ENERGY>  (1) 
143.5578

>  <PUBCHEM_FEATURE_SELFOVERLAP>  (1) 
71.169

>  <PUBCHEM_SHAPE_FINGERPRINT>  (1) 
10029044 110 17459196343153492940
11135609 127 18261675987249380692
11181472 205 18335148553302909040
11408170 132 18411703192938311096
12082328 90 18260271863085858595
12098696 120 15791448236359188192
12559415 135 18131633348446943569
15183329 4 18342460326479730513
15230672 131 17846491548551639927
15276724 80 17967813821406617788
15461852 350 18131636703348858661
15554971 5 18408880733245127930
19304671 126 17312824884112371056
3383291 50 15626225757888187071
3711267 37 15719395031387525477
42767 23 18202846560646369120
9953998 17 10737279148475902649

>  <PUBCHEM_SHAPE_MULTIPOLES>  (1) 
762.1
42.8
4.11
2.29
0.53
0.16
-0.98
0.16
-19.83
0.55
-0.17
-0.48
0.05
-12.49

>  <PUBCHEM_SHAPE_SELFOVERLAP>  (1) 
1685.31

>  <PUBCHEM_SHAPE_VOLUME>  (1) 
403.6

>  <PUBCHEM_COORDINATE_TYPE>  (1) 
2
5
10

$$$$
