42572
     RDKit          3D

 12 12  0  0  0  0  0  0  0  0999 V2000
    2.9235    2.3037   -0.2229 Cl  0  0  0  0  0  0  0  0  0  0  0  0
    2.2287   -2.8002    0.1272 Cl  0  0  0  0  0  0  0  0  0  0  0  0
   -2.3393    1.4216    0.5634 O   0  0  0  0  0  0  0  0  0  0  0  0
   -4.0467   -0.4757   -0.2851 O   0  0  0  0  0  0  0  0  0  0  0  0
    2.3471   -0.2166   -0.0394 N   0  0  0  0  0  0  0  0  0  0  0  0
   -2.6593   -0.6699   -0.3512 N   0  0  0  0  0  0  0  0  0  0  0  0
   -0.4200    0.1666    0.0584 C   0  0  0  0  0  0  0  0  0  0  0  0
    0.4329    1.2598   -0.0472 C   0  0  0  0  0  0  0  0  0  0  0  0
    0.1091   -1.1179    0.1153 C   0  0  0  0  0  0  0  0  0  0  0  0
   -1.8593    0.3661    0.1103 C   0  0  0  0  0  0  0  0  0  0  0  0
    1.7962    1.0168   -0.0919 C   0  0  0  0  0  0  0  0  0  0  0  0
    1.4870   -1.2545    0.0630 C   0  0  0  0  0  0  0  0  0  0  0  0
  1 11  1  0
  2 12  1  0
  3 10  2  0
  4  6  1  0
  5 11  2  0
  5 12  1  0
  6 10  1  0
  7  8  2  0
  7  9  1  0
  7 10  1  0
  8 11  1  0
  9 12  2  0
M  END
>  <PUBCHEM_COMPOUND_CID>  (1) 
42572

>  <PUBCHEM_CONFORMER_RMSD>  (1) 
0.6

>  <PUBCHEM_CONFORMER_DIVERSEORDER>  (1) 
1

>  <PUBCHEM_MMFF94_PARTIAL_CHARGES>  (1) 
16
1 -0.18
10 0.54
11 0.49
12 0.49
13 0.15
14 0.15
15 0.37
16 0.4
2 -0.18
3 -0.57
4 -0.44
5 -0.62
6 -0.39
7 0.09
8 -0.15
9 -0.15

>  <PUBCHEM_EFFECTIVE_ROTOR_COUNT>  (1) 
2

>  <PUBCHEM_PHARMACOPHORE_FEATURES>  (1) 
4
1 3 acceptor
1 5 acceptor
1 6 donor
6 5 7 8 9 11 12 rings

>  <PUBCHEM_HEAVY_ATOM_COUNT>  (1) 
12

>  <PUBCHEM_ATOM_DEF_STEREO_COUNT>  (1) 
0

>  <PUBCHEM_ATOM_UDEF_STEREO_COUNT>  (1) 
0

>  <PUBCHEM_BOND_DEF_STEREO_COUNT>  (1) 
0

>  <PUBCHEM_BOND_UDEF_STEREO_COUNT>  (1) 
0

>  <PUBCHEM_ISOTOPIC_ATOM_COUNT>  (1) 
0

>  <PUBCHEM_COMPONENT_COUNT>  (1) 
1

>  <PUBCHEM_CACTVS_TAUTO_COUNT>  (1) 
4

>  <PUBCHEM_CONFORMER_ID>  (1) 
0000A64C00000001

>  <PUBCHEM_MMFF94_ENERGY>  (1) 
27.6043

>  <PUBCHEM_FEATURE_SELFOVERLAP>  (1) 
20.297

>  <PUBCHEM_SHAPE_FINGERPRINT>  (1) 
1 1 18337390538915505764
13380535 76 18263080079822403778
14128692 85 18268150842613359342
14325111 11 18411139172957264257
15442244 35 18124317103786621521
16945 1 18408891719760934130
17990270 104 18337953372588597658
19021347 11 18410574024033010158
193761 8 18193838137532046932
20645477 70 18409158901477283279
20653091 64 18339642235412703082
20871998 22 18053100627696757134
21040471 1 18193842771912334184
21499 59 18191864737187070476
21501502 16 18341052917568929497
21501925 9 18339067194994760498
21524375 3 18270120261523555332
228727 97 17917159406482350489
23402655 69 18340760525196660061
23530152 11 18266461103863819782
23552423 10 18410578353133191183
241688 4 17760931740880263378
2748010 2 17905597810077812262
3071541 37 18334017224340808316
366044 4 18192992840818324024
528862 383 18334849537341872114
7364860 26 18413388722508539402
81228 2 17185879394242059490
81539 233 18188204415833517734

>  <PUBCHEM_SHAPE_MULTIPOLES>  (1) 
228.99
4.97
2.57
0.64
4.26
0.83
0.01
-0.45
-0.4
-2.89
0.05
0.03
-0.02
-0.39

>  <PUBCHEM_SHAPE_SELFOVERLAP>  (1) 
459.903

>  <PUBCHEM_SHAPE_VOLUME>  (1) 
136.9

>  <PUBCHEM_COORDINATE_TYPE>  (1) 
2
5
10

$$$$
