42578
     RDKit          3D

 22 21  0  0  1  0  0  0  0  0999 V2000
    3.7977    2.3983    1.0784 O   0  0  0  0  0  0  0  0  0  0  0  0
    5.1159   -2.3281   -1.2588 O   0  0  0  0  0  0  0  0  0  0  0  0
    5.6990    0.1310    0.2765 N   0  0  0  0  0  0  0  0  0  0  0  0
    5.9491   -1.2250    0.6453 N   0  0  0  0  0  0  0  0  0  0  0  0
    4.2306    0.2416    0.0924 C   0  0  0  0  0  0  0  0  0  0  0  0
    3.8159    1.6904   -0.1602 C   0  0  0  0  0  0  0  0  0  0  0  0
    2.4491    1.8342   -0.8424 C   0  0  0  0  0  0  0  0  0  0  0  0
    1.3282    1.1949   -0.0133 C   0  0  0  0  0  0  0  0  0  0  0  0
   -0.0518    1.3004   -0.6710 C   0  0  0  0  0  0  0  0  0  0  0  0
   -1.2201    0.6971    0.1166 C   0  0  0  0  0  0  0  0  0  0  0  0
   -2.5591    0.7812   -0.6204 C   0  0  0  0  0  0  0  0  0  0  0  0
   -3.7399    0.2596    0.2063 C   0  0  0  0  0  0  0  0  0  0  0  0
    6.1893    0.9997    1.4235 C   0  0  0  0  0  0  0  0  0  0  0  0
    6.4492    0.3825   -1.0213 C   0  0  0  0  0  0  0  0  0  0  0  0
   -5.0844    0.3682   -0.5172 C   0  0  0  0  0  0  0  0  0  0  0  0
   -6.2641   -0.1436    0.3169 C   0  0  0  0  0  0  0  0  0  0  0  0
   -7.6258   -0.1406   -0.3866 C   0  0  0  0  0  0  0  0  0  0  0  0
   -8.7528   -0.7190    0.4728 C   0  0  0  0  0  0  0  0  0  0  0  0
    5.6378   -2.3223   -0.1484 C   0  0  0  0  0  0  0  0  0  0  0  0
  -10.1246   -0.6430   -0.2021 C   0  0  0  0  0  0  0  0  0  0  0  0
    6.0200   -3.6084    0.5377 C   0  0  0  0  0  0  0  0  0  0  0  0
  -11.2592   -1.1490    0.6753 C   0  0  0  0  0  0  0  0  0  0  0  0
  1  6  1  0
  2 19  2  0
  3  4  1  0
  3  5  1  0
  3 13  1  0
  3 14  1  0
  4 19  1  0
  5  6  1  0
  6  7  1  0
  7  8  1  0
  8  9  1  0
  9 10  1  0
 10 11  1  0
 11 12  1  0
 12 15  1  0
 15 16  1  0
 16 17  1  0
 17 18  1  0
 18 20  1  0
 19 21  1  0
 20 22  1  0
M  CHG  1   3   1
M  END
>  <PUBCHEM_COMPOUND_CID>  (1) 
42578

>  <PUBCHEM_CONFORMER_RMSD>  (1) 
1.6

>  <PUBCHEM_CONFORMER_DIVERSEORDER>  (1) 
1
61
60
17
33
3
70
37
21
27
48
52
30
58
46
6
54
44
38
2
35
25
42
20
36
39
11
67
45
66
41
57
68
53
65
22
56
71
47
55
4
32
34
31
8
29
49
12
26
63
50
59
64
5
51
62
15
13
40
43
7
23
14
19
16
24
28
10
69
18
9

>  <PUBCHEM_MMFF94_PARTIAL_CHARGES>  (1) 
12
1 -0.68
13 0.5
14 0.5
19 0.57
2 -0.57
21 0.06
3 -0.76
4 -0.18
46 0.37
5 0.5
51 0.4
6 0.28

>  <PUBCHEM_EFFECTIVE_ROTOR_COUNT>  (1) 
15

>  <PUBCHEM_PHARMACOPHORE_FEATURES>  (1) 
5
1 1 acceptor
1 1 donor
1 2 acceptor
1 22 hydrophobe
1 4 donor

>  <PUBCHEM_HEAVY_ATOM_COUNT>  (1) 
22

>  <PUBCHEM_ATOM_DEF_STEREO_COUNT>  (1) 
0

>  <PUBCHEM_ATOM_UDEF_STEREO_COUNT>  (1) 
1

>  <PUBCHEM_BOND_DEF_STEREO_COUNT>  (1) 
0

>  <PUBCHEM_BOND_UDEF_STEREO_COUNT>  (1) 
0

>  <PUBCHEM_ISOTOPIC_ATOM_COUNT>  (1) 
0

>  <PUBCHEM_COMPONENT_COUNT>  (1) 
1

>  <PUBCHEM_CACTVS_TAUTO_COUNT>  (1) 
2

>  <PUBCHEM_CONFORMER_ID>  (1) 
0000A65200000001

>  <PUBCHEM_MMFF94_ENERGY>  (1) 
37.2004

>  <PUBCHEM_FEATURE_SELFOVERLAP>  (1) 
25.371

>  <PUBCHEM_SHAPE_FINGERPRINT>  (1) 
10066227 49 18408040694041509811
10666366 153 17821722815778735453
11135609 127 12396592862037123182
11315181 36 8646775505058950613
11638347 137 17060627689555702269
125118 31 10087921882498301039
13533116 47 18343299267343546272
13617811 41 16008747996026358967
14202775 3 18114187493473755211
14216079 64 18334012787681763437
14251764 46 17385720322626413545
14428016 248 11097846377929953303
14598715 104 13614245824585501779
14617042 71 10375862000866459443
15152005 1 17905043656451113154
15840311 113 9655575222937756090
1754911 235 8358259238092159681
1768 124 18272649047767302262
1818759 1 17894635873066011811
19301679 30 18270965635140416908
20165401 70 18341608196416043470
20397935 70 18131352982262293638
20554085 129 14477242652502799623
20771845 140 16917065529806035334
21360443 126 13767930135130016097
21362267 313 17846227614458301169
22224240 67 12895356595257564805
246663 6 17458344161479943609
2835820 82 18336827472730000939
28498 318 18259982678806277629
33532 11 18409446986334575383
437795 160 14405176301896882661
57828716 16 17632582600538246259
59682541 35 12823296819644652053
9937071 3 18333450954926449699

>  <PUBCHEM_SHAPE_MULTIPOLES>  (1) 
431.05
34.9
2.59
1.01
95.48
2.33
0.05
20.1
4.56
-7.76
0.1
-1.18
-0.1
1.1

>  <PUBCHEM_SHAPE_SELFOVERLAP>  (1) 
794.028

>  <PUBCHEM_SHAPE_VOLUME>  (1) 
274

>  <PUBCHEM_COORDINATE_TYPE>  (1) 
2
5
10

$$$$
