42589
     RDKit          3D

 35 37  0  0  0  0  0  0  0  0999 V2000
    8.5835    0.0296   -1.0922 Cl  0  0  0  0  0  0  0  0  0  0  0  0
    1.2230   -4.4325    1.0580 O   0  0  0  0  0  0  0  0  0  0  0  0
   -1.9885    0.0997   -1.2198 O   0  0  0  0  0  0  0  0  0  0  0  0
    2.7807    3.0670   -0.0359 O   0  0  0  0  0  0  0  0  0  0  0  0
   -4.2850   -1.8879   -0.7507 O   0  0  0  0  0  0  0  0  0  0  0  0
   -5.8275    1.7285    0.4008 O   0  0  0  0  0  0  0  0  0  0  0  0
   -5.6091   -0.2132   -1.6238 O   0  0  0  0  0  0  0  0  0  0  0  0
   -3.7931    2.7005   -0.0856 O   0  0  0  0  0  0  0  0  0  0  0  0
    1.9246    1.0084    0.3547 N   0  0  0  0  0  0  0  0  0  0  0  0
   -0.1609    0.3337    0.8565 C   0  0  0  0  0  0  0  0  0  0  0  0
    0.6637   -0.8141    0.8021 C   0  0  0  0  0  0  0  0  0  0  0  0
    0.6247    1.4231    0.5754 C   0  0  0  0  0  0  0  0  0  0  0  0
    1.9598   -0.3843    0.4850 C   0  0  0  0  0  0  0  0  0  0  0  0
   -1.6143    0.3559    1.1576 C   0  0  0  0  0  0  0  0  0  0  0  0
    0.4147   -2.1892    0.9948 C   0  0  0  0  0  0  0  0  0  0  0  0
    3.0146   -1.3100    0.3679 C   0  0  0  0  0  0  0  0  0  0  0  0
    0.1911    2.8411    0.5127 C   0  0  0  0  0  0  0  0  0  0  0  0
   -2.4701    0.2240   -0.0935 C   0  0  0  0  0  0  0  0  0  0  0  0
    2.9992    1.8612    0.0205 C   0  0  0  0  0  0  0  0  0  0  0  0
    1.4619   -3.1046    0.8720 C   0  0  0  0  0  0  0  0  0  0  0  0
   -3.9831    0.2837    0.1195 C   0  0  0  0  0  0  0  0  0  0  0  0
    2.7439   -2.6682    0.5638 C   0  0  0  0  0  0  0  0  0  0  0  0
    4.3767    1.4091   -0.2544 C   0  0  0  0  0  0  0  0  0  0  0  0
   -4.7347   -0.6022   -0.8609 C   0  0  0  0  0  0  0  0  0  0  0  0
   -4.4896    1.7159    0.1247 C   0  0  0  0  0  0  0  0  0  0  0  0
    5.4512    2.2459    0.0365 C   0  0  0  0  0  0  0  0  0  0  0  0
    4.5958    0.1480   -0.8028 C   0  0  0  0  0  0  0  0  0  0  0  0
    6.7534    1.8187   -0.2229 C   0  0  0  0  0  0  0  0  0  0  0  0
    5.8981   -0.2791   -1.0620 C   0  0  0  0  0  0  0  0  0  0  0  0
   -0.1153   -4.8129    1.3721 C   0  0  0  0  0  0  0  0  0  0  0  0
    6.9770    0.5562   -0.7720 C   0  0  0  0  0  0  0  0  0  0  0  0
   -4.9130   -2.8372   -1.6180 C   0  0  0  0  0  0  0  0  0  0  0  0
   -6.4368    3.0229    0.4398 C   0  0  0  0  0  0  0  0  0  0  0  0
   -4.3076   -4.2032   -1.3748 C   0  0  0  0  0  0  0  0  0  0  0  0
   -7.9090    2.8654    0.7552 C   0  0  0  0  0  0  0  0  0  0  0  0
  1 31  1  0
  2 20  1  0
  2 30  1  0
  3 18  2  0
  4 19  2  0
  5 24  1  0
  5 32  1  0
  6 25  1  0
  6 33  1  0
  7 24  2  0
  8 25  2  0
  9 12  1  0
  9 13  1  0
  9 19  1  0
 10 11  1  0
 10 12  2  0
 10 14  1  0
 11 13  2  0
 11 15  1  0
 12 17  1  0
 13 16  1  0
 14 18  1  0
 15 20  2  0
 16 22  2  0
 18 21  1  0
 19 23  1  0
 20 22  1  0
 21 24  1  0
 21 25  1  0
 23 26  2  0
 23 27  1  0
 26 28  1  0
 27 29  2  0
 28 31  2  0
 29 31  1  0
 32 34  1  0
 33 35  1  0
M  END
>  <PUBCHEM_COMPOUND_CID>  (1) 
42589

>  <PUBCHEM_CONFORMER_RMSD>  (1) 
1.2

>  <PUBCHEM_CONFORMER_DIVERSEORDER>  (1) 
1
12
16
13
5
14
15
10
11
6
18
2
4
8
3
9
7
19
17

>  <PUBCHEM_MMFF94_PARTIAL_CHARGES>  (1) 
39
1 -0.18
10 -0.18
12 -0.33
13 -0.15
14 0.24
15 -0.15
16 -0.15
17 0.18
18 0.45
19 0.49
2 -0.36
20 0.08
21 0.18
22 -0.15
23 0.09
24 0.66
25 0.66
26 -0.15
27 -0.15
28 -0.15
29 -0.15
3 -0.57
30 0.28
31 0.18
32 0.28
33 0.28
38 0.15
39 0.15
4 -0.57
44 0.15
45 0.15
46 0.15
47 0.15
48 0.15
5 -0.43
6 -0.43
7 -0.57
8 -0.57
9 0.29

>  <PUBCHEM_EFFECTIVE_ROTOR_COUNT>  (1) 
12

>  <PUBCHEM_PHARMACOPHORE_FEATURES>  (1) 
9
1 2 acceptor
1 21 anion
1 3 acceptor
1 4 acceptor
1 7 acceptor
1 8 acceptor
5 9 10 11 12 13 rings
6 11 13 15 16 20 22 rings
6 23 26 27 28 29 31 rings

>  <PUBCHEM_HEAVY_ATOM_COUNT>  (1) 
35

>  <PUBCHEM_ATOM_DEF_STEREO_COUNT>  (1) 
0

>  <PUBCHEM_ATOM_UDEF_STEREO_COUNT>  (1) 
0

>  <PUBCHEM_BOND_DEF_STEREO_COUNT>  (1) 
0

>  <PUBCHEM_BOND_UDEF_STEREO_COUNT>  (1) 
0

>  <PUBCHEM_ISOTOPIC_ATOM_COUNT>  (1) 
0

>  <PUBCHEM_COMPONENT_COUNT>  (1) 
1

>  <PUBCHEM_CACTVS_TAUTO_COUNT>  (1) 
5

>  <PUBCHEM_CONFORMER_ID>  (1) 
0000A65D00000001

>  <PUBCHEM_MMFF94_ENERGY>  (1) 
125.6141

>  <PUBCHEM_FEATURE_SELFOVERLAP>  (1) 
45.762

>  <PUBCHEM_SHAPE_FINGERPRINT>  (1) 
10190108 129 18264215880256975299
10190206 1 18263921210280985574
10411042 1 17470728806440992506
10693767 8 18273208691060265782
11007060 377 18269276927356523600
11135609 187 18412548730290859200
11135926 11 18334851689020371149
11578080 2 17605821535189966413
12293681 160 18273501152446996072
12788726 201 17559959810327162377
13690498 29 18059004125128392823
14790565 3 18408324359103148216
14931854 50 18194665172345852639
15183329 4 18410571786482052356
15250474 111 18340188727537281703
15927050 60 18410856560046757699
15968369 153 17695334163760302170
16993438 75 18042979846258922755
21033648 29 18336543915258368624
22393880 68 18271801350040058433
23576562 1 17606692580870555508
24771293 8 18338790239099806752
2838139 119 16950561112506621164
335352 9 18335989736170808924
38695281 34 18408327670401516738
4058900 60 18186519890931961730
4073 2 18335144227700967601
4516262 110 18334572404973379957
484989 97 18119254110666052506
504579 68 18342163489143655893

>  <PUBCHEM_SHAPE_MULTIPOLES>  (1) 
676.09
19.09
5.15
1.26
3.32
5.49
0.22
-12.94
7.31
-5.35
-1.18
-0.67
1
-3

>  <PUBCHEM_SHAPE_SELFOVERLAP>  (1) 
1440.578

>  <PUBCHEM_SHAPE_VOLUME>  (1) 
376.2

>  <PUBCHEM_COORDINATE_TYPE>  (1) 
2
5
10

$$$$
