4258
     RDKit          3D

 29 31  0  0  1  0  0  0  0  0999 V2000
    1.9421   -1.8473   -1.2243 O   0  0  0  0  0  0  0  0  0  0  0  0
    0.4424   -1.5526    2.1239 O   0  0  0  0  0  0  0  0  0  0  0  0
    2.0666    1.2109    1.9859 O   0  0  0  0  0  0  0  0  0  0  0  0
   -0.8599    1.3354    1.5201 O   0  0  0  0  0  0  0  0  0  0  0  0
    5.7698    0.5360    0.9870 O   0  0  0  0  0  0  0  0  0  0  0  0
    4.6606    2.1468   -0.1984 O   0  0  0  0  0  0  0  0  0  0  0  0
   -3.0602    2.9287   -1.7234 O   0  0  0  0  0  0  0  0  0  0  0  0
   -1.7551    3.4503    0.0538 O   0  0  0  0  0  0  0  0  0  0  0  0
   -6.6790   -1.9089   -0.0026 O   0  0  0  0  0  0  0  0  0  0  0  0
    2.8427   -0.3740    0.4317 N   0  0  0  0  0  0  0  0  0  0  0  0
   -0.1244   -0.3316    0.0832 N   0  0  0  0  0  0  0  0  0  0  0  0
    0.9276   -0.8612    0.9572 C   0  0  0  0  0  0  0  0  0  0  0  0
    2.0621   -1.5665    0.1784 C   0  0  0  0  0  0  0  0  0  0  0  0
    2.0094    0.2102    1.3113 C   0  0  0  0  0  0  0  0  0  0  0  0
    3.9664   -0.1251   -0.2794 C   0  0  0  0  0  0  0  0  0  0  0  0
    3.2195   -1.9101   -1.8867 C   0  0  0  0  0  0  0  0  0  0  0  0
    4.2266   -0.8664   -1.3817 C   0  0  0  0  0  0  0  0  0  0  0  0
   -0.9382    0.7375    0.4484 C   0  0  0  0  0  0  0  0  0  0  0  0
    5.4519   -0.7586   -2.2481 C   0  0  0  0  0  0  0  0  0  0  0  0
    4.8130    0.9919    0.1527 C   0  0  0  0  0  0  0  0  0  0  0  0
   -1.9546    1.1109   -0.6291 C   0  0  0  0  0  0  0  0  0  0  0  0
   -0.5453   -2.5437    1.8805 C   0  0  0  0  0  0  0  0  0  0  0  0
   -3.2281    0.2966   -0.4600 C   0  0  0  0  0  0  0  0  0  0  0  0
   -2.2323    2.6066   -0.6938 C   0  0  0  0  0  0  0  0  0  0  0  0
   -3.6105   -0.5620   -1.4705 C   0  0  0  0  0  0  0  0  0  0  0  0
   -3.9637    0.4408    0.6989 C   0  0  0  0  0  0  0  0  0  0  0  0
   -4.7786   -1.3084   -1.3157 C   0  0  0  0  0  0  0  0  0  0  0  0
   -5.1317   -0.3057    0.8540 C   0  0  0  0  0  0  0  0  0  0  0  0
   -5.5392   -1.1804   -0.1533 C   0  0  0  0  0  0  0  0  0  0  0  0
  1 13  1  0
  1 16  1  0
  2 12  1  0
  2 22  1  0
  3 14  2  0
  4 18  2  0
  5 20  1  0
  6 20  2  0
  7 24  1  0
  8 24  2  0
  9 29  1  0
 10 13  1  0
 10 14  1  0
 10 15  1  0
 11 12  1  0
 11 18  1  0
 12 13  1  0
 12 14  1  0
 15 17  2  0
 15 20  1  0
 16 17  1  0
 17 19  1  0
 18 21  1  0
 21 23  1  0
 21 24  1  0
 23 25  2  0
 23 26  1  0
 25 27  1  0
 26 28  2  0
 27 29  2  0
 28 29  1  0
M  END
>  <PUBCHEM_COMPOUND_CID>  (1) 
4258

>  <PUBCHEM_CONFORMER_RMSD>  (1) 
1

>  <PUBCHEM_CONFORMER_DIVERSEORDER>  (1) 
5
22
25
21
13
46
42
51
49
58
20
47
9
48
37
12
53
57
43
10
36
19
32
44
1
56
35
30
7
28
17
55
29
23
63
31
8
52
38
4
65
34
59
27
3
45
14
16
2
18
60
33
61
26
50
62
6
64
24
15
39
41
54
40
11

>  <PUBCHEM_MMFF94_PARTIAL_CHARGES>  (1) 
37
1 -0.54
10 -0.39
11 -0.65
12 0.54
13 0.48
14 0.58
15 0.12
16 0.42
17 -0.28
18 0.57
19 0.14
2 -0.54
20 0.71
21 0.27
22 0.28
23 -0.14
24 0.66
25 -0.15
26 -0.15
27 -0.15
28 -0.15
29 0.08
3 -0.57
31 0.37
4 -0.57
41 0.5
42 0.15
43 0.15
44 0.15
45 0.15
46 0.5
47 0.45
5 -0.65
6 -0.57
7 -0.65
8 -0.57
9 -0.53

>  <PUBCHEM_EFFECTIVE_ROTOR_COUNT>  (1) 
7.6

>  <PUBCHEM_PHARMACOPHORE_FEATURES>  (1) 
16
1 1 acceptor
1 11 donor
1 2 acceptor
1 21 anion
1 3 acceptor
1 4 acceptor
1 5 acceptor
1 6 acceptor
1 7 acceptor
1 8 acceptor
1 9 donor
3 5 6 20 anion
3 7 8 24 anion
4 10 12 13 14 rings
6 1 10 13 15 16 17 rings
6 23 25 26 27 28 29 rings

>  <PUBCHEM_HEAVY_ATOM_COUNT>  (1) 
29

>  <PUBCHEM_ATOM_DEF_STEREO_COUNT>  (1) 
0

>  <PUBCHEM_ATOM_UDEF_STEREO_COUNT>  (1) 
3

>  <PUBCHEM_BOND_DEF_STEREO_COUNT>  (1) 
0

>  <PUBCHEM_BOND_UDEF_STEREO_COUNT>  (1) 
0

>  <PUBCHEM_ISOTOPIC_ATOM_COUNT>  (1) 
0

>  <PUBCHEM_COMPONENT_COUNT>  (1) 
1

>  <PUBCHEM_CACTVS_TAUTO_COUNT>  (1) 
4

>  <PUBCHEM_CONFORMER_ID>  (1) 
000010A200000005

>  <PUBCHEM_MMFF94_ENERGY>  (1) 
77.4501

>  <PUBCHEM_FEATURE_SELFOVERLAP>  (1) 
81.909

>  <PUBCHEM_SHAPE_FINGERPRINT>  (1) 
10498660 4 18115866295901812756
10670039 82 17604158026000342796
10928967 22 16056585509367825860
11089746 13 12540690427387169072
11135609 12 14835299645228215308
11135926 11 16271915009941237996
12166972 35 15864068767502604636
12553582 1 18336811075245724515
12633257 1 11959725001951869795
12670546 177 18343022194396726836
12788726 201 18187076240016099009
128620 24 18187079542429139965
13224815 77 18261105228063492897
13673619 4 17918000459894576183
13782708 43 18339932506804923510
13911987 19 17386301972767085175
14251758 9 11383837060641186903
14251764 30 17275390897594125575
14341114 176 17060345127978755883
14787075 74 18336262435458585041
17349148 13 16226054361859392348
173720 79 17240475944709270850
1813 80 18410577305899961381
20157964 124 13623525766631546635
20429585 67 18273216417130891541
20511986 3 13623807310121720025
21033650 10 18265630792528369280
21774942 28 13263769934791194463
22393880 68 18117559526765284022
22950370 63 17275108331690218995
23559900 14 17828467081921157459
351380 180 12324241676445086055
3737641 26 17917720049848481927
4325135 7 18342174496501113732
46194498 28 18272095998156382684
469060 322 17676784084645842561
497634 4 17917159312161920385
513202 73 12750148496211258732
54039377 194 15984557602898163406
5486654 2 17967537891380242667
77296 10 13551478093978525113

>  <PUBCHEM_SHAPE_MULTIPOLES>  (1) 
534.02
13.21
2.71
1.93
2.2
1.55
0
-2.74
4.13
1.43
0.33
-1.1
-0.58
1.43

>  <PUBCHEM_SHAPE_SELFOVERLAP>  (1) 
1148.538

>  <PUBCHEM_SHAPE_VOLUME>  (1) 
290.3

>  <PUBCHEM_COORDINATE_TYPE>  (1) 
2
5
10

$$$$
