42587
     RDKit          3D

 26 27  0  0  0  0  0  0  0  0999 V2000
    3.8861    1.2958    0.5321 O   0  0  0  0  0  0  0  0  0  0  0  0
    0.6753   -4.7052   -0.7252 O   0  0  0  0  0  0  0  0  0  0  0  0
   -4.7947    1.4990   -0.1077 O   0  0  0  0  0  0  0  0  0  0  0  0
    2.0392    1.2517   -0.8487 O   0  0  0  0  0  0  0  0  0  0  0  0
   -2.7942    1.2862   -1.2372 O   0  0  0  0  0  0  0  0  0  0  0  0
   -1.6847   -0.0479    0.9469 N   0  0  0  0  0  0  0  0  0  0  0  0
    0.5279   -0.0788    1.1204 C   0  0  0  0  0  0  0  0  0  0  0  0
   -0.5956    0.6863    1.3330 C   0  0  0  0  0  0  0  0  0  0  0  0
    0.1063   -1.3275    0.5840 C   0  0  0  0  0  0  0  0  0  0  0  0
   -1.2860   -1.2819    0.4850 C   0  0  0  0  0  0  0  0  0  0  0  0
    1.9218    0.3249    1.4008 C   0  0  0  0  0  0  0  0  0  0  0  0
   -3.0586    0.4068    1.0130 C   0  0  0  0  0  0  0  0  0  0  0  0
    0.7776   -2.4959    0.1718 C   0  0  0  0  0  0  0  0  0  0  0  0
   -2.0435   -2.3504   -0.0078 C   0  0  0  0  0  0  0  0  0  0  0  0
   -0.7254    2.0567    1.8731 C   0  0  0  0  0  0  0  0  0  0  0  0
    4.6400    1.9449   -0.4969 C   0  0  0  0  0  0  0  0  0  0  0  0
    2.5880    1.0052    0.2167 C   0  0  0  0  0  0  0  0  0  0  0  0
    0.0328   -3.5726   -0.3231 C   0  0  0  0  0  0  0  0  0  0  0  0
   -1.3559   -3.4988   -0.4107 C   0  0  0  0  0  0  0  0  0  0  0  0
    3.9582    3.2694   -0.8372 C   0  0  0  0  0  0  0  0  0  0  0  0
    6.0461    2.1884    0.0469 C   0  0  0  0  0  0  0  0  0  0  0  0
    4.6874    1.0270   -1.7177 C   0  0  0  0  0  0  0  0  0  0  0  0
   -3.4940    1.1050   -0.2500 C   0  0  0  0  0  0  0  0  0  0  0  0
   -5.3580    2.1818   -1.2323 C   0  0  0  0  0  0  0  0  0  0  0  0
    2.0966   -4.7187   -0.6106 C   0  0  0  0  0  0  0  0  0  0  0  0
   -6.7928    2.5486   -0.9184 C   0  0  0  0  0  0  0  0  0  0  0  0
  1 16  1  0
  1 17  1  0
  2 18  1  0
  2 25  1  0
  3 23  1  0
  3 24  1  0
  4 17  2  0
  5 23  2  0
  6  8  1  0
  6 10  1  0
  6 12  1  0
  7  8  2  0
  7  9  1  0
  7 11  1  0
  8 15  1  0
  9 10  2  0
  9 13  1  0
 10 14  1  0
 11 17  1  0
 12 23  1  0
 13 18  2  0
 14 19  2  0
 16 20  1  0
 16 21  1  0
 16 22  1  0
 18 19  1  0
 24 26  1  0
M  END
>  <PUBCHEM_COMPOUND_CID>  (1) 
42587

>  <PUBCHEM_CONFORMER_RMSD>  (1) 
1

>  <PUBCHEM_CONFORMER_DIVERSEORDER>  (1) 
1
50
76
40
70
48
53
73
67
75
11
63
29
58
57
78
84
85
74
24
79
19
16
80
20
77
49
72
61
59
30
31
34
55
33
9
65
23
54
71
45
68
56
82
18
66
26
51
43
83
62
69
22
37
60
41
81
42
46
5
27
13
47
15
8
25
28
64
32
17
21
39
38
7
12
14
4
52
35
3
2
6
36
10
44

>  <PUBCHEM_MMFF94_PARTIAL_CHARGES>  (1) 
24
1 -0.43
10 -0.15
11 0.24
12 0.32
13 -0.15
14 -0.15
15 0.18
16 0.28
17 0.66
18 0.08
19 -0.15
2 -0.36
23 0.66
24 0.28
25 0.28
3 -0.43
31 0.15
32 0.15
36 0.15
4 -0.57
5 -0.57
6 0.05
7 -0.18
8 -0.33

>  <PUBCHEM_EFFECTIVE_ROTOR_COUNT>  (1) 
9

>  <PUBCHEM_PHARMACOPHORE_FEATURES>  (1) 
7
1 2 acceptor
1 4 acceptor
1 5 acceptor
1 6 cation
4 16 20 21 22 hydrophobe
5 6 7 8 9 10 rings
6 9 10 13 14 18 19 rings

>  <PUBCHEM_HEAVY_ATOM_COUNT>  (1) 
26

>  <PUBCHEM_ATOM_DEF_STEREO_COUNT>  (1) 
0

>  <PUBCHEM_ATOM_UDEF_STEREO_COUNT>  (1) 
0

>  <PUBCHEM_BOND_DEF_STEREO_COUNT>  (1) 
0

>  <PUBCHEM_BOND_UDEF_STEREO_COUNT>  (1) 
0

>  <PUBCHEM_ISOTOPIC_ATOM_COUNT>  (1) 
0

>  <PUBCHEM_COMPONENT_COUNT>  (1) 
1

>  <PUBCHEM_CACTVS_TAUTO_COUNT>  (1) 
1

>  <PUBCHEM_CONFORMER_ID>  (1) 
0000A65B00000001

>  <PUBCHEM_MMFF94_ENERGY>  (1) 
59.2424

>  <PUBCHEM_FEATURE_SELFOVERLAP>  (1) 
35.612

>  <PUBCHEM_SHAPE_FINGERPRINT>  (1) 
10165383 225 18341906229160820425
105312 117 18335983150693616925
10673678 19 18336264553284007517
12293681 160 18060700593495846409
12788726 201 17975685414118072794
12895836 83 18335698390283767553
12895837 130 17824833475486680716
13149001 5 17844239846788940689
133893 2 18053399703137886219
13540713 4 18115887221826264131
13911987 19 18412829101197588009
14114206 34 17548681337808547862
14117953 113 18267584607938839582
14251757 5 17907580585919989482
14713325 29 18116434932703033907
14790565 3 18127434425541549337
15163728 17 18261407615014831245
15439362 3 18266739090941580804
15463212 79 18045495580892790002
16752209 62 18197488743637720010
167882 2 18338517417700832539
16988056 13 17615393771451722781
18785283 64 18264486183258968051
19958102 18 18268434701687348990
20554085 129 18058710469170548824
20715895 44 18409727335776828744
21344244 246 18197497324977323430
23114952 82 18192428567940921109
23419403 2 17685259064137427067
23559900 14 18197210356626606595
2838139 119 17749659753578338525
312425 83 17902541460148456444
394222 165 18187919522184185673
4015057 19 16558476412961738280
4017518 198 18201999899067762158
4409770 3 18123750013226627659
46194498 28 18046617911845456989
5283173 99 18124593339209550056
559249 180 18336827593826848538
6327066 14 18333726940207507749
6669772 16 18342745095923600110

>  <PUBCHEM_SHAPE_MULTIPOLES>  (1) 
500.74
11.06
5.61
1.42
3.48
8.24
0.16
-17.01
-5.42
-1.25
-2.14
0.05
-0.72
0.73

>  <PUBCHEM_SHAPE_SELFOVERLAP>  (1) 
1048.253

>  <PUBCHEM_SHAPE_VOLUME>  (1) 
287.9

>  <PUBCHEM_COORDINATE_TYPE>  (1) 
2
5
10

$$$$
