42591
     RDKit          3D

 33 35  0  0  1  0  0  0  0  0999 V2000
    7.5174   -0.2921   -2.5574 Cl  0  0  0  0  0  0  0  0  0  0  0  0
    0.1858   -4.4749    0.9894 O   0  0  0  0  0  0  0  0  0  0  0  0
   -2.1241    0.6641   -1.0041 O   0  0  0  0  0  0  0  0  0  0  0  0
    2.9806    2.6527    1.2923 O   0  0  0  0  0  0  0  0  0  0  0  0
   -4.7181   -1.0436   -0.9860 O   0  0  0  0  0  0  0  0  0  0  0  0
   -3.8755    3.3238   -0.3756 O   0  0  0  0  0  0  0  0  0  0  0  0
   -5.6808    0.8708   -1.8385 O   0  0  0  0  0  0  0  0  0  0  0  0
    1.6666    0.8532    0.8944 N   0  0  0  0  0  0  0  0  0  0  0  0
   -0.5244    0.4374    1.1826 C   0  0  0  0  0  0  0  0  0  0  0  0
    0.1403   -0.8057    1.0672 C   0  0  0  0  0  0  0  0  0  0  0  0
    0.4207    1.4258    1.0680 C   0  0  0  0  0  0  0  0  0  0  0  0
    1.5037   -0.5365    0.8839 C   0  0  0  0  0  0  0  0  0  0  0  0
   -1.9894    0.6387    1.3868 C   0  0  0  0  0  0  0  0  0  0  0  0
   -0.3059   -2.1435    1.1012 C   0  0  0  0  0  0  0  0  0  0  0  0
    2.4306   -1.5875    0.7443 C   0  0  0  0  0  0  0  0  0  0  0  0
    0.1865    2.8886    1.1215 C   0  0  0  0  0  0  0  0  0  0  0  0
   -2.7288    0.7416    0.0669 C   0  0  0  0  0  0  0  0  0  0  0  0
    2.8696    1.5723    0.7223 C   0  0  0  0  0  0  0  0  0  0  0  0
   -4.2361    0.9860    0.1162 C   0  0  0  0  0  0  0  0  0  0  0  0
    0.6152   -3.1828    0.9566 C   0  0  0  0  0  0  0  0  0  0  0  0
    1.9650   -2.9059    0.7818 C   0  0  0  0  0  0  0  0  0  0  0  0
    4.0153    1.1123   -0.0860 C   0  0  0  0  0  0  0  0  0  0  0  0
   -4.5620    2.4739    0.1917 C   0  0  0  0  0  0  0  0  0  0  0  0
   -4.9670    0.2993   -1.0246 C   0  0  0  0  0  0  0  0  0  0  0  0
    5.2615    0.9267    0.5125 C   0  0  0  0  0  0  0  0  0  0  0  0
    3.8521    0.8637   -1.4488 C   0  0  0  0  0  0  0  0  0  0  0  0
   -5.7942    2.8618    0.9681 C   0  0  0  0  0  0  0  0  0  0  0  0
    6.3445    0.4922   -0.2517 C   0  0  0  0  0  0  0  0  0  0  0  0
    4.9351    0.4293   -2.2131 C   0  0  0  0  0  0  0  0  0  0  0  0
   -1.2125   -4.6891    1.1720 C   0  0  0  0  0  0  0  0  0  0  0  0
    6.1812    0.2436   -1.6145 C   0  0  0  0  0  0  0  0  0  0  0  0
   -5.3640   -1.8202   -1.9997 C   0  0  0  0  0  0  0  0  0  0  0  0
   -4.9889   -3.2758   -1.8197 C   0  0  0  0  0  0  0  0  0  0  0  0
  1 31  1  0
  2 20  1  0
  2 30  1  0
  3 17  2  0
  4 18  2  0
  5 24  1  0
  5 32  1  0
  6 23  2  0
  7 24  2  0
  8 11  1  0
  8 12  1  0
  8 18  1  0
  9 10  1  0
  9 11  2  0
  9 13  1  0
 10 12  2  0
 10 14  1  0
 11 16  1  0
 12 15  1  0
 13 17  1  0
 14 20  2  0
 15 21  2  0
 17 19  1  0
 18 22  1  0
 19 23  1  0
 19 24  1  0
 20 21  1  0
 22 25  2  0
 22 26  1  0
 23 27  1  0
 25 28  1  0
 26 29  2  0
 28 31  2  0
 29 31  1  0
 32 33  1  0
M  END
>  <PUBCHEM_COMPOUND_CID>  (1) 
42591

>  <PUBCHEM_CONFORMER_RMSD>  (1) 
1

>  <PUBCHEM_CONFORMER_DIVERSEORDER>  (1) 
1
52
71
175
113
168
129
68
183
12
65
151
133
36
137
149
24
132
136
138
177
167
109
67
17
165
87
147
179
189
62
192
131
59
48
99
23
126
186
156
172
57
80
4
195
121
160
111
143
142
174
94
170
70
164
166
33
144
112
120
148
91
122
139
114
37
47
110
27
95
41
125
90
60
162
77
188
141
85
100
176
61
102
108
181
55
97
7
42
185
74
145
105
84
83
123
163
54
140
51
104
11
43
20
135
88
155
13
75
154
119
92
128
180
72
14
187
159
106
153
39
64
146
157
46
197
152
69
171
101
9
118
18
45
107
93
25
190
50
63
73
196
8
82
35
150
169
134
184
103
127
66
124
21
29
198
173
178
79
56
19
81
34
53
191
44
117
2
86
16
116
49
78
194
158
161
32
89
5
182
193
10
26
115
58
40
98
15
130
22
28
31
3
6
38
76
96
30

>  <PUBCHEM_MMFF94_PARTIAL_CHARGES>  (1) 
38
1 -0.18
11 -0.33
12 -0.15
13 0.24
14 -0.15
15 -0.15
16 0.18
17 0.45
18 0.49
19 0.18
2 -0.36
20 0.08
21 -0.15
22 0.09
23 0.45
24 0.66
25 -0.15
26 -0.15
27 0.06
28 -0.15
29 -0.15
3 -0.57
30 0.28
31 0.18
32 0.28
36 0.15
37 0.15
4 -0.57
42 0.15
43 0.15
44 0.15
48 0.15
49 0.15
5 -0.43
6 -0.57
7 -0.57
8 0.29
9 -0.18

>  <PUBCHEM_EFFECTIVE_ROTOR_COUNT>  (1) 
10

>  <PUBCHEM_PHARMACOPHORE_FEATURES>  (1) 
9
1 19 anion
1 2 acceptor
1 3 acceptor
1 4 acceptor
1 6 acceptor
1 7 acceptor
5 8 9 10 11 12 rings
6 10 12 14 15 20 21 rings
6 22 25 26 28 29 31 rings

>  <PUBCHEM_HEAVY_ATOM_COUNT>  (1) 
33

>  <PUBCHEM_ATOM_DEF_STEREO_COUNT>  (1) 
0

>  <PUBCHEM_ATOM_UDEF_STEREO_COUNT>  (1) 
1

>  <PUBCHEM_BOND_DEF_STEREO_COUNT>  (1) 
0

>  <PUBCHEM_BOND_UDEF_STEREO_COUNT>  (1) 
0

>  <PUBCHEM_ISOTOPIC_ATOM_COUNT>  (1) 
0

>  <PUBCHEM_COMPONENT_COUNT>  (1) 
1

>  <PUBCHEM_CACTVS_TAUTO_COUNT>  (1) 
12

>  <PUBCHEM_CONFORMER_ID>  (1) 
0000A65F00000001

>  <PUBCHEM_MMFF94_ENERGY>  (1) 
84.5213

>  <PUBCHEM_FEATURE_SELFOVERLAP>  (1) 
45.762

>  <PUBCHEM_SHAPE_FINGERPRINT>  (1) 
10190108 129 18337403742283459459
105312 117 18186813490954399690
10554248 39 17385716977205475722
10577160 183 17749380491348042114
10693767 8 18131062689475585942
11991303 11 17531528805553472627
12202916 173 18059858330046866342
12293681 160 18200319823118393312
13540713 4 18054797440943008904
13690498 29 18272367603482642519
13911987 19 18261682505917206264
14931854 50 18339907317059044631
15183329 4 18343019960908718620
15629462 23 17274558562806859114
15775530 1 17624415676801021120
16067689 391 18202013135234030046
20775438 99 17622988501986000396
21307412 95 18127155051500282318
21344244 181 18059575866173428758
21814621 53 16343984697731293938
22393880 68 18201430385507039121
22899556 105 18341325695132300095
23536364 44 18271529809449739315
23559900 14 15697702753725240337
23576562 1 17824276010538188932
25223398 141 17969231203189313883
2838139 119 17167580496977896452
4015057 19 17489034850736211736
4058900 60 18042128673786916603
504579 68 18270666620340098821
513532 50 17988634187112856786
563151 248 17201673036787632955
563151 40 18412272718470247059

>  <PUBCHEM_SHAPE_MULTIPOLES>  (1) 
640.8
15.66
4.61
2.06
6.8
4.89
1.21
-5.6
13.22
-5.33
-1.92
0.69
0.67
-1.54

>  <PUBCHEM_SHAPE_SELFOVERLAP>  (1) 
1365.442

>  <PUBCHEM_SHAPE_VOLUME>  (1) 
357.7

>  <PUBCHEM_COORDINATE_TYPE>  (1) 
2
5
10

$$$$
