42607
     RDKit          3D

 22 24  0  0  0  0  0  0  0  0999 V2000
   -0.5087   -0.1417   -0.9194 O   0  0  0  0  0  0  0  0  0  0  0  0
    5.9610    0.3363   -0.7695 O   0  0  0  0  0  0  0  0  0  0  0  0
   -4.6190   -1.4234   -1.0283 N   0  0  0  0  0  0  0  0  0  0  0  0
    0.8089   -0.8974    0.8706 N   0  0  0  0  0  0  0  0  0  0  0  0
   -2.8676   -1.0040    0.2694 C   0  0  0  0  0  0  0  0  0  0  0  0
   -3.7295    0.1277    0.3060 C   0  0  0  0  0  0  0  0  0  0  0  0
   -4.8205   -0.1614   -0.5165 C   0  0  0  0  0  0  0  0  0  0  0  0
   -1.5854   -1.1571    0.9865 C   0  0  0  0  0  0  0  0  0  0  0  0
   -3.4414   -1.9407   -0.5590 C   0  0  0  0  0  0  0  0  0  0  0  0
   -3.6860    1.3741    0.9617 C   0  0  0  0  0  0  0  0  0  0  0  0
   -5.8745    0.7372   -0.7166 C   0  0  0  0  0  0  0  0  0  0  0  0
   -0.3798   -0.6657    0.1824 C   0  0  0  0  0  0  0  0  0  0  0  0
   -4.7331    2.2830    0.7709 C   0  0  0  0  0  0  0  0  0  0  0  0
   -5.8096    1.9673   -0.0558 C   0  0  0  0  0  0  0  0  0  0  0  0
    2.1238   -0.5833    0.4523 C   0  0  0  0  0  0  0  0  0  0  0  0
    3.1904   -0.8926    1.2796 C   0  0  0  0  0  0  0  0  0  0  0  0
    2.3155    0.0284   -0.7755 C   0  0  0  0  0  0  0  0  0  0  0  0
    4.6967    0.0346   -0.3664 C   0  0  0  0  0  0  0  0  0  0  0  0
    4.4861   -0.5814    0.8674 C   0  0  0  0  0  0  0  0  0  0  0  0
    3.6113    0.3395   -1.1878 C   0  0  0  0  0  0  0  0  0  0  0  0
    6.9151    0.6300    0.2500 C   0  0  0  0  0  0  0  0  0  0  0  0
    7.9465    1.5908   -0.3019 C   0  0  0  0  0  0  0  0  0  0  0  0
  1 12  2  0
  2 18  1  0
  2 21  1  0
  3  7  1  0
  3  9  1  0
  4 12  1  0
  4 15  1  0
  5  6  1  0
  5  8  1  0
  5  9  2  0
  6  7  2  0
  6 10  1  0
  7 11  1  0
  8 12  1  0
 10 13  2  0
 11 14  2  0
 13 14  1  0
 15 16  2  0
 15 17  1  0
 16 19  1  0
 17 20  2  0
 18 19  2  0
 18 20  1  0
 21 22  1  0
M  END
>  <PUBCHEM_COMPOUND_CID>  (1) 
42607

>  <PUBCHEM_CONFORMER_RMSD>  (1) 
0.8

>  <PUBCHEM_CONFORMER_DIVERSEORDER>  (1) 
1
46
48
47
41
56
44
55
2
42
49
28
11
39
17
37
26
53
40
21
27
33
30
25
57
60
59
23
15
34
13
24
50
7
43
58
8
45
5
19
54
6
20
31
35
9
36
18
3
38
4
10
51
52
29
12
32
16
14
22

>  <PUBCHEM_MMFF94_PARTIAL_CHARGES>  (1) 
31
1 -0.57
10 -0.15
11 -0.15
12 0.57
13 -0.15
14 -0.15
15 0.12
16 -0.15
17 -0.15
18 0.08
19 -0.15
2 -0.36
20 -0.15
21 0.28
25 0.15
26 0.27
27 0.15
28 0.15
29 0.15
3 0.03
30 0.15
31 0.37
32 0.15
33 0.15
34 0.15
35 0.15
4 -0.55
5 -0.18
7 -0.15
8 0.24
9 -0.3

>  <PUBCHEM_EFFECTIVE_ROTOR_COUNT>  (1) 
6

>  <PUBCHEM_PHARMACOPHORE_FEATURES>  (1) 
8
1 1 acceptor
1 2 acceptor
1 3 cation
1 3 donor
1 4 donor
5 3 5 6 7 9 rings
6 15 16 17 18 19 20 rings
6 6 7 10 11 13 14 rings

>  <PUBCHEM_HEAVY_ATOM_COUNT>  (1) 
22

>  <PUBCHEM_ATOM_DEF_STEREO_COUNT>  (1) 
0

>  <PUBCHEM_ATOM_UDEF_STEREO_COUNT>  (1) 
0

>  <PUBCHEM_BOND_DEF_STEREO_COUNT>  (1) 
0

>  <PUBCHEM_BOND_UDEF_STEREO_COUNT>  (1) 
0

>  <PUBCHEM_ISOTOPIC_ATOM_COUNT>  (1) 
0

>  <PUBCHEM_COMPONENT_COUNT>  (1) 
1

>  <PUBCHEM_CACTVS_TAUTO_COUNT>  (1) 
2

>  <PUBCHEM_CONFORMER_ID>  (1) 
0000A66F00000001

>  <PUBCHEM_MMFF94_ENERGY>  (1) 
57.0075

>  <PUBCHEM_FEATURE_SELFOVERLAP>  (1) 
40.688

>  <PUBCHEM_SHAPE_FINGERPRINT>  (1) 
10 15 14273461392267060414
10087517 78 18408885122544208596
10411042 1 17909545401026619359
106641 1 17458070370136292489
10730089 173 18341896272983665497
10906281 52 17603600638156383926
11089746 13 18335421296521293204
11315181 36 18261110815916249775
11524674 6 14201120115244126353
11719270 70 17203609243111653614
11991303 11 16056309648367480516
12091667 2 18412266167975272378
12236239 1 18260545610662126818
12596602 18 17385729067306299601
12616971 3 14851893590404939910
13073987 5 18187087247532462867
13288520 33 10375870771225944779
13631057 29 17750517454843259035
13675066 3 14418136201464932011
13690498 29 17845364634636993703
13862211 1 13686301249564633294
14251752 14 17989488490104038846
14251764 18 17821447975693241555
14573314 32 17775568602624877415
14729087 3 18408319999790548232
15048467 5 18259984868574836768
15183329 4 18059575754514087802
15348495 7 13912617081846780284
15352257 5 8286210452785008848
1577012 14 18334572413267285131
17780758 139 10665223761602986143
18222031 100 14261348029756734786
18643901 69 16486683780194067951
18927931 339 13758079627472634583
19489759 90 18131632283600631563
20281389 69 18040433265564364628
20511986 3 18261097561277863729
20645477 70 15051737456240216430
21130935 74 17822007636577733218
21150785 3 17346596391584612212
21267235 1 12247680495537763910
21623969 137 14851605462418035936
21756936 100 18187369831222230379
22061861 79 16056881303723237468
23035841 295 8574714606883059076
23081809 10 18333723620371633866
23198884 109 18272933795693208095
23402539 116 18411980278109564390
23559900 14 17632569474627780083
300161 21 18260546718985092226
328310 630 17895203254724439676
34797466 226 17632580486839588901
4073 2 18260271867159812426
4169191 19 17459474532300348084
4340502 62 13406790030912848992
445580 37 18273220798345979024
5104073 3 16299240175730392832
542803 24 18334011683421773595
543368 44 18333731321247586097
5758199 1 17894350004095086040
6327066 14 18266175020983656885
6328613 192 18335704970579645420
636775 72 18336263526845294168

>  <PUBCHEM_SHAPE_MULTIPOLES>  (1) 
431.05
19.34
1.79
1.13
21.45
0.51
0.04
10.37
-2.44
-2.4
0.18
0.1
-0.09
-1.4

>  <PUBCHEM_SHAPE_SELFOVERLAP>  (1) 
935.186

>  <PUBCHEM_SHAPE_VOLUME>  (1) 
236.5

>  <PUBCHEM_COORDINATE_TYPE>  (1) 
2
5
10

$$$$
