42603
     RDKit          3D

  9 10  0  0  1  0  0  0  0  0999 V2000
   -1.5179    0.0012    0.9964 N   0  0  0  0  0  0  0  0  0  0  0  0
   -0.0145    1.2349   -0.6330 C   0  0  0  0  0  0  0  0  0  0  0  0
   -0.0171   -1.2348   -0.6332 C   0  0  0  0  0  0  0  0  0  0  0  0
    0.0052    0.0001   -1.5321 C   0  0  0  0  0  0  0  0  0  0  0  0
    1.2788    1.2808    0.1996 C   0  0  0  0  0  0  0  0  0  0  0  0
    1.2756   -1.2834    0.2003 C   0  0  0  0  0  0  0  0  0  0  0  0
    1.5944   -0.0015    0.9720 C   0  0  0  0  0  0  0  0  0  0  0  0
   -1.3008    1.2202    0.2154 C   0  0  0  0  0  0  0  0  0  0  0  0
   -1.3038   -1.2176    0.2145 C   0  0  0  0  0  0  0  0  0  0  0  0
  1  8  1  0
  1  9  1  0
  2  4  1  0
  2  5  1  0
  2  8  1  0
  3  4  1  0
  3  6  1  0
  3  9  1  0
  5  7  1  0
  6  7  1  0
M  END
>  <PUBCHEM_COMPOUND_CID>  (1) 
42603

>  <PUBCHEM_CONFORMER_RMSD>  (1) 
0.4

>  <PUBCHEM_CONFORMER_DIVERSEORDER>  (1) 
1
2

>  <PUBCHEM_MMFF94_PARTIAL_CHARGES>  (1) 
4
1 -0.9
24 0.36
8 0.27
9 0.27

>  <PUBCHEM_EFFECTIVE_ROTOR_COUNT>  (1) 
1.4

>  <PUBCHEM_PHARMACOPHORE_FEATURES>  (1) 
4
1 1 cation
1 1 donor
6 1 2 3 4 8 9 rings
6 2 3 4 5 6 7 rings

>  <PUBCHEM_HEAVY_ATOM_COUNT>  (1) 
9

>  <PUBCHEM_ATOM_DEF_STEREO_COUNT>  (1) 
0

>  <PUBCHEM_ATOM_UDEF_STEREO_COUNT>  (1) 
2

>  <PUBCHEM_BOND_DEF_STEREO_COUNT>  (1) 
0

>  <PUBCHEM_BOND_UDEF_STEREO_COUNT>  (1) 
0

>  <PUBCHEM_ISOTOPIC_ATOM_COUNT>  (1) 
0

>  <PUBCHEM_COMPONENT_COUNT>  (1) 
1

>  <PUBCHEM_CACTVS_TAUTO_COUNT>  (1) 
1

>  <PUBCHEM_CONFORMER_ID>  (1) 
0000A66B00000001

>  <PUBCHEM_MMFF94_ENERGY>  (1) 
11.2989

>  <PUBCHEM_FEATURE_SELFOVERLAP>  (1) 
21.815

>  <PUBCHEM_SHAPE_FINGERPRINT>  (1) 
12423570 1 15443499277313313388
13024252 1 15142901182366668680
137420 1 15676297104719904172
16945 1 18410572885645098242
18185500 45 17618213353035443994
21040471 1 18268151967715351881
29004967 10 16301176466486670000
5084963 1 17775286070838194474

>  <PUBCHEM_SHAPE_MULTIPOLES>  (1) 
180.23
1.86
1.67
1.18
0.14
0
-0.25
0
0.65
0
-0.05
-0.07
0
0

>  <PUBCHEM_SHAPE_SELFOVERLAP>  (1) 
365.254

>  <PUBCHEM_SHAPE_VOLUME>  (1) 
100.5

>  <PUBCHEM_COORDINATE_TYPE>  (1) 
2
5
10

$$$$
