42610
     RDKit          3D

 25 29  0  0  1  0  0  0  0  0999 V2000
    2.8669   -0.6061    1.3310 S   0  0  0  0  0  0  0  0  0  0  0  0
   -0.3636    2.6726    0.0905 N   0  0  0  0  0  0  0  0  0  0  0  0
   -4.7342   -0.9957   -1.7597 N   0  0  0  0  0  0  0  0  0  0  0  0
    4.4036    0.2619   -0.6818 N   0  0  0  0  0  0  0  0  0  0  0  0
   -1.5367    1.7562    0.1341 C   0  0  0  0  0  0  0  0  0  0  0  0
   -1.2436    0.4136    0.8681 C   0  0  0  0  0  0  0  0  0  0  0  0
   -2.0899    1.5483   -1.3242 C   0  0  0  0  0  0  0  0  0  0  0  0
    0.9324    1.3018    1.7050 C   0  0  0  0  0  0  0  0  0  0  0  0
    0.3432    2.6848    1.3808 C   0  0  0  0  0  0  0  0  0  0  0  0
   -3.1019    0.4583   -1.3565 C   0  0  0  0  0  0  0  0  0  0  0  0
   -2.2603   -0.6567    0.7637 C   0  0  0  0  0  0  0  0  0  0  0  0
   -0.1024    0.2222    1.5522 C   0  0  0  0  0  0  0  0  0  0  0  0
   -3.1032   -0.5266   -0.3467 C   0  0  0  0  0  0  0  0  0  0  0  0
   -4.1195   -1.4310   -0.6057 C   0  0  0  0  0  0  0  0  0  0  0  0
    2.1509    0.9797    0.8368 C   0  0  0  0  0  0  0  0  0  0  0  0
   -0.7439    4.0424   -0.2692 C   0  0  0  0  0  0  0  0  0  0  0  0
   -4.1226    0.1490   -2.2241 C   0  0  0  0  0  0  0  0  0  0  0  0
   -2.4833   -1.7472    1.6127 C   0  0  0  0  0  0  0  0  0  0  0  0
   -4.3549   -2.5239    0.2298 C   0  0  0  0  0  0  0  0  0  0  0  0
   -3.5130   -2.6608    1.3449 C   0  0  0  0  0  0  0  0  0  0  0  0
    4.2426   -0.7516    0.1937 C   0  0  0  0  0  0  0  0  0  0  0  0
    5.0571   -1.8665    0.2603 C   0  0  0  0  0  0  0  0  0  0  0  0
    6.1153   -1.9476   -0.6382 C   0  0  0  0  0  0  0  0  0  0  0  0
    5.4425    0.1481   -1.5393 C   0  0  0  0  0  0  0  0  0  0  0  0
    6.3186   -0.9252   -1.5583 C   0  0  0  0  0  0  0  0  0  0  0  0
  1 15  1  0
  1 21  1  0
  2  5  1  0
  2  9  1  0
  2 16  1  0
  3 14  1  0
  3 17  1  0
  4 21  2  0
  4 24  1  0
  5  6  1  0
  5  7  1  0
  6 11  1  0
  6 12  2  0
  7 10  1  0
  8  9  1  0
  8 12  1  0
  8 15  1  0
 10 13  1  0
 10 17  2  0
 11 13  2  0
 11 18  1  0
 13 14  1  0
 14 19  2  0
 18 20  2  0
 19 20  1  0
 21 22  1  0
 22 23  2  0
 23 25  1  0
 24 25  2  0
M  END
>  <PUBCHEM_COMPOUND_CID>  (1) 
42610

>  <PUBCHEM_CONFORMER_RMSD>  (1) 
0.8

>  <PUBCHEM_CONFORMER_DIVERSEORDER>  (1) 
1
89
93
46
54
50
41
99
91
82
39
61
51
49
31
45
84
29
57
60
32
73
78
38
34
66
90
12
86
35
97
40
21
53
58
80
83
100
98
56
47
77
52
76
23
88
62
30
87
75
33
19
7
37
42
55
48
59
14
96
95
27
3
70
25
85
17
44
64
6
15
36
20
68
2
10
63
94
5
8
16
65
81
9
69
26
43
18
11
22
13
72
92
28
79
4
24
71
74
67

>  <PUBCHEM_MMFF94_PARTIAL_CHARGES>  (1) 
34
1 -0.33
10 -0.18
11 0.03
12 -0.29
14 -0.15
15 0.23
16 0.27
17 -0.3
18 -0.15
19 -0.15
2 -0.81
20 -0.15
21 0.41
22 -0.15
23 -0.15
24 0.16
25 -0.15
3 0.03
32 0.15
38 0.15
39 0.15
4 -0.62
40 0.27
41 0.15
42 0.15
43 0.15
44 0.15
45 0.15
46 0.15
5 0.41
6 -0.17
7 0.18
8 0.14
9 0.27

>  <PUBCHEM_EFFECTIVE_ROTOR_COUNT>  (1) 
3.8

>  <PUBCHEM_PHARMACOPHORE_FEATURES>  (1) 
9
1 2 cation
1 3 cation
1 3 donor
1 4 acceptor
5 3 10 13 14 17 rings
6 11 13 14 18 19 20 rings
6 2 5 6 8 9 12 rings
6 4 21 22 23 24 25 rings
6 5 6 7 10 11 13 rings

>  <PUBCHEM_HEAVY_ATOM_COUNT>  (1) 
25

>  <PUBCHEM_ATOM_DEF_STEREO_COUNT>  (1) 
0

>  <PUBCHEM_ATOM_UDEF_STEREO_COUNT>  (1) 
2

>  <PUBCHEM_BOND_DEF_STEREO_COUNT>  (1) 
0

>  <PUBCHEM_BOND_UDEF_STEREO_COUNT>  (1) 
0

>  <PUBCHEM_ISOTOPIC_ATOM_COUNT>  (1) 
0

>  <PUBCHEM_COMPONENT_COUNT>  (1) 
1

>  <PUBCHEM_CACTVS_TAUTO_COUNT>  (1) 
1

>  <PUBCHEM_CONFORMER_ID>  (1) 
0000A67200000001

>  <PUBCHEM_MMFF94_ENERGY>  (1) 
65.1032

>  <PUBCHEM_FEATURE_SELFOVERLAP>  (1) 
45.918

>  <PUBCHEM_SHAPE_FINGERPRINT>  (1) 
10319926 262 12319470916919237100
105312 117 13045954503573782960
10692045 39 8213882361769984764
10730089 88 18335129900022312307
10764073 3 13036698745634395976
10928967 22 17417811717209486462
11370993 144 11959461050520925804
11991303 11 17913502246199276729
12363563 72 18202279212678143360
12422481 6 12823028516504612348
12553582 1 18408037399030993659
12623949 98 17469049208108907251
12633257 1 12679463118412693514
12788726 201 18193828250306173049
12892183 10 12751242514602347244
13103583 49 14979964683069454514
13544653 18 17918270978420336032
13673619 4 17896333587264534803
13690498 29 17968943122991290923
13994607 96 13045954477186690191
14114211 68 17314212386071702635
14251757 5 18260824852572413133
14251764 30 18271248321271687182
14790565 3 17903624199729045513
14932701 244 14129924598636026201
14950920 106 13829837007734282886
15475509 35 15692622134470091919
15475509 8 18339349804671168325
15950262 2 14276248474097947333
16110190 28 10735865176354498810
16994733 274 13623514754894783999
17780758 139 14333127451389397954
1813 80 17417820573125952048
18393751 57 9799404560003413517
19377110 9 14548440467503653202
193927 3 17918274268449537522
20693207 138 18263063544056168529
21307412 95 18412257359630760823
21591331 117 18263380199273284795
22182313 1 18192134104677432217
22393880 68 17821727243610650074
22907989 373 18261116227427473096
23559900 14 18188481483994739853
2838139 119 14707200020547164366
3117164 225 10663828451541173244
312425 83 16734095739930403382
329604 57 18409735067102901590
3886686 26 14044093306488623351
4280585 95 18187348931816740536
44062 13 18199753531764589996
445580 182 11815615221467115062
46194498 28 17606965267405063973
474113 269 14692274163412503565
484985 159 16773514339602405125
4938544 92 15410624623089138626
563151 40 18052537673791539393
6669772 16 17693383648024776772
7918774 8 18202004356335920950
7970288 3 17846495954629150518
9709674 26 17754992518691161081

>  <PUBCHEM_SHAPE_MULTIPOLES>  (1) 
503.39
12.97
3.34
1.96
19.81
2.25
-0.34
-11
-7.79
-2.01
0.72
-0.61
-0.02
1.31

>  <PUBCHEM_SHAPE_SELFOVERLAP>  (1) 
1104.253

>  <PUBCHEM_SHAPE_VOLUME>  (1) 
275.2

>  <PUBCHEM_COORDINATE_TYPE>  (1) 
2
5
10

$$$$
