42616
     RDKit          3D

 26 28  0  0  0  0  0  0  0  0999 V2000
   -1.4850    2.2062    0.1114 O   0  0  0  0  0  0  0  0  0  0  0  0
    1.4845   -2.2063   -0.1146 O   0  0  0  0  0  0  0  0  0  0  0  0
   -4.9523    0.1302    0.4066 O   0  0  0  0  0  0  0  0  0  0  0  0
    4.9523   -0.1306   -0.4066 O   0  0  0  0  0  0  0  0  0  0  0  0
   -3.5716    0.7722   -1.3120 O   0  0  0  0  0  0  0  0  0  0  0  0
    3.5717   -0.7718    1.3124 O   0  0  0  0  0  0  0  0  0  0  0  0
    1.1068    2.5139   -0.5126 N   0  0  0  0  0  0  0  0  0  0  0  0
   -1.1068   -2.5139    0.5131 N   0  0  0  0  0  0  0  0  0  0  0  0
   -2.7423   -0.1669    0.6458 N   0  0  0  0  0  0  0  0  0  0  0  0
    2.7424    0.1668   -0.6456 N   0  0  0  0  0  0  0  0  0  0  0  0
    2.3188    2.9260    0.1874 C   0  0  0  0  0  0  0  0  0  0  0  0
    0.9891    3.4824    0.5724 C   0  0  0  0  0  0  0  0  0  0  0  0
   -2.3187   -2.9260   -0.1868 C   0  0  0  0  0  0  0  0  0  0  0  0
   -0.9890   -3.4824   -0.5718 C   0  0  0  0  0  0  0  0  0  0  0  0
    0.6443    1.2447   -0.2759 C   0  0  0  0  0  0  0  0  0  0  0  0
   -0.6442   -1.2446    0.2763 C   0  0  0  0  0  0  0  0  0  0  0  0
   -1.4116   -0.1461    0.3390 C   0  0  0  0  0  0  0  0  0  0  0  0
    1.4116    0.1462   -0.3386 C   0  0  0  0  0  0  0  0  0  0  0  0
   -0.8014    1.1853    0.0614 C   0  0  0  0  0  0  0  0  0  0  0  0
    0.8013   -1.1853   -0.0616 C   0  0  0  0  0  0  0  0  0  0  0  0
   -3.7352    0.2913   -0.1949 C   0  0  0  0  0  0  0  0  0  0  0  0
    3.7353   -0.2915    0.1951 C   0  0  0  0  0  0  0  0  0  0  0  0
   -6.0864    0.5647   -0.3521 C   0  0  0  0  0  0  0  0  0  0  0  0
    6.0865   -0.5644    0.3524 C   0  0  0  0  0  0  0  0  0  0  0  0
   -7.3435    0.3164    0.4539 C   0  0  0  0  0  0  0  0  0  0  0  0
    7.3435   -0.3165   -0.4540 C   0  0  0  0  0  0  0  0  0  0  0  0
  1 19  2  0
  2 20  2  0
  3 21  1  0
  3 23  1  0
  4 22  1  0
  4 24  1  0
  5 21  2  0
  6 22  2  0
  7 11  1  0
  7 12  1  0
  7 15  1  0
  8 13  1  0
  8 14  1  0
  8 16  1  0
  9 17  1  0
  9 21  1  0
 10 18  1  0
 10 22  1  0
 11 12  1  0
 13 14  1  0
 15 18  2  0
 15 19  1  0
 16 17  2  0
 16 20  1  0
 17 19  1  0
 18 20  1  0
 23 25  1  0
 24 26  1  0
M  END
>  <PUBCHEM_COMPOUND_CID>  (1) 
42616

>  <PUBCHEM_CONFORMER_RMSD>  (1) 
1

>  <PUBCHEM_CONFORMER_DIVERSEORDER>  (1) 
1
7
17
8
9
16
15
11
12
3
14
13
6
4
18
10
2
5

>  <PUBCHEM_MMFF94_PARTIAL_CHARGES>  (1) 
34
1 -0.57
10 -0.54
11 -0.03
12 -0.03
13 -0.03
14 -0.03
15 0.11
16 0.11
17 0.12
18 0.12
19 0.54
2 -0.57
20 0.54
21 0.78
22 0.78
23 0.28
24 0.28
27 0.1
28 0.1
29 0.1
3 -0.43
30 0.1
31 0.1
32 0.1
33 0.1
34 0.1
35 0.37
36 0.37
4 -0.43
5 -0.57
6 -0.57
7 -0.44
8 -0.44
9 -0.54

>  <PUBCHEM_EFFECTIVE_ROTOR_COUNT>  (1) 
11.2

>  <PUBCHEM_PHARMACOPHORE_FEATURES>  (1) 
9
1 1 acceptor
1 10 donor
1 2 acceptor
1 5 acceptor
1 6 acceptor
1 7 cation
1 8 cation
1 9 donor
6 15 16 17 18 19 20 rings

>  <PUBCHEM_HEAVY_ATOM_COUNT>  (1) 
26

>  <PUBCHEM_ATOM_DEF_STEREO_COUNT>  (1) 
0

>  <PUBCHEM_ATOM_UDEF_STEREO_COUNT>  (1) 
0

>  <PUBCHEM_BOND_DEF_STEREO_COUNT>  (1) 
0

>  <PUBCHEM_BOND_UDEF_STEREO_COUNT>  (1) 
0

>  <PUBCHEM_ISOTOPIC_ATOM_COUNT>  (1) 
0

>  <PUBCHEM_COMPONENT_COUNT>  (1) 
1

>  <PUBCHEM_CACTVS_TAUTO_COUNT>  (1) 
10

>  <PUBCHEM_CONFORMER_ID>  (1) 
0000A67800000001

>  <PUBCHEM_MMFF94_ENERGY>  (1) 
126.2403

>  <PUBCHEM_FEATURE_SELFOVERLAP>  (1) 
45.675

>  <PUBCHEM_SHAPE_FINGERPRINT>  (1) 
10050765 1 18122907791608781155
10906281 52 18270983287645862004
10967382 1 18410575067488516975
1100329 8 18411136982391743402
11578080 2 17415266506055621792
11646440 116 18272093790279435313
11680986 33 18268141153415247928
12011746 2 18411135818814328124
12035758 1 18337659884493466928
12236239 1 17676207966601870142
12553582 1 18337094718837794594
12788726 201 18261952934876283680
12838862 33 18337655460645347124
13140716 1 18266742561301555955
13583140 156 17894919554849103363
14466204 15 18267021661673743529
14790565 3 18338526252427929044
15099037 51 18409730668354562695
15131766 46 15938688344203728118
15849732 13 18040437685096197142
16087824 20 18337674105805832549
16728300 4 17462540846100794154
16945 1 18412272734911332358
17492 89 17979071918569237426
18681886 176 18343012316293797163
20028762 73 18201715180841824623
20600515 1 18200329770357634508
20642791 35 18409445929899390304
20691752 17 17314773299635424320
20905425 154 17693384747060734910
21029758 11 18413387618544052576
21267235 1 18409735036747941108
22311459 1 18411139121253782118
2334 1 17978515565257424903
23366157 5 17826228790317830940
23402539 116 18343577443204995118
23557571 272 18201727207097977412
23558518 356 17901385911718397563
23559900 14 18270958059535349688
23569943 247 17556880034628171895
2748010 2 18050577527324643717
283562 15 18197220252183660232
3178227 256 18335714831924245265
335352 9 18410857680642085007
34934 24 18408038503228497778
350125 39 18265621072706265539
484989 97 18265050418035462175
5104073 3 18265900331896239403
59554788 191 18270401731941691414
59755656 215 18339647733662432294

>  <PUBCHEM_SHAPE_MULTIPOLES>  (1) 
479.93
13.38
3.4
0.82
0
0
0
0
0
0
0
0
0
0

>  <PUBCHEM_SHAPE_SELFOVERLAP>  (1) 
1012.714

>  <PUBCHEM_SHAPE_VOLUME>  (1) 
268.1

>  <PUBCHEM_COORDINATE_TYPE>  (1) 
2
5
10

$$$$
