42628
     RDKit          3D

 19 19  0  0  0  0  0  0  0  0999 V2000
   -6.1695   -2.4320    1.2173 Cl  0  0  0  0  0  0  0  0  0  0  0  0
   -3.9091    4.0470   -0.0478 Cl  0  0  0  0  0  0  0  0  0  0  0  0
    1.3093   -0.4217   -0.4172 O   0  0  0  0  0  0  0  0  0  0  0  0
    0.0940   -1.1529   -2.2251 O   0  0  0  0  0  0  0  0  0  0  0  0
   -3.2151    0.0798    0.1211 N   0  0  0  0  0  0  0  0  0  0  0  0
   -0.9277   -0.5167   -0.2447 N   0  0  0  0  0  0  0  0  0  0  0  0
   -4.5438   -0.5348    0.1611 C   0  0  0  0  0  0  0  0  0  0  0  0
   -3.3126    1.4302   -0.4406 C   0  0  0  0  0  0  0  0  0  0  0  0
   -2.2983   -0.7589   -0.6553 C   0  0  0  0  0  0  0  0  0  0  0  0
   -4.5630   -1.6669    1.1765 C   0  0  0  0  0  0  0  0  0  0  0  0
   -3.7694    2.4078    0.6312 C   0  0  0  0  0  0  0  0  0  0  0  0
    0.1530   -0.7361   -1.0728 C   0  0  0  0  0  0  0  0  0  0  0  0
    2.5181   -0.6053   -1.1627 C   0  0  0  0  0  0  0  0  0  0  0  0
    3.6864   -0.2174   -0.3047 C   0  0  0  0  0  0  0  0  0  0  0  0
    4.1509    1.0979   -0.3120 C   0  0  0  0  0  0  0  0  0  0  0  0
    4.3079   -1.1720    0.5005 C   0  0  0  0  0  0  0  0  0  0  0  0
    5.2368    1.4586    0.4858 C   0  0  0  0  0  0  0  0  0  0  0  0
    5.3938   -0.8111    1.2983 C   0  0  0  0  0  0  0  0  0  0  0  0
    5.8581    0.5042    1.2909 C   0  0  0  0  0  0  0  0  0  0  0  0
  1 10  1  0
  2 11  1  0
  3 12  1  0
  3 13  1  0
  4 12  2  0
  5  7  1  0
  5  8  1  0
  5  9  1  0
  6  9  1  0
  6 12  1  0
  7 10  1  0
  8 11  1  0
 13 14  1  0
 14 15  2  0
 14 16  1  0
 15 17  1  0
 16 18  2  0
 17 19  2  0
 18 19  1  0
M  END
>  <PUBCHEM_COMPOUND_CID>  (1) 
42628

>  <PUBCHEM_CONFORMER_RMSD>  (1) 
1

>  <PUBCHEM_CONFORMER_DIVERSEORDER>  (1) 
1
19
102
60
108
47
15
10
39
92
79
64
62
96
41
18
6
89
101
57
65
25
106
42
75
91
37
61
68
20
14
88
70
83
84
105
100
49
30
7
103
80
63
52
36
44
35
51
4
8
98
2
17
67
110
26
54
107
95
9
27
40
78
73
58
24
66
69
77
104
82
59
13
97
33
74
109
90
21
38
86
32
29
28
16
71
72
34
45
76
11
81
5
56
94
3
93
53
22
55
99
85
43
50
23
31
48
46
87
12

>  <PUBCHEM_MMFF94_PARTIAL_CHARGES>  (1) 
25
1 -0.29
10 0.29
11 0.29
12 0.78
13 0.42
14 -0.14
15 -0.15
16 -0.15
17 -0.15
18 -0.15
19 -0.15
2 -0.29
3 -0.43
30 0.37
33 0.15
34 0.15
35 0.15
36 0.15
37 0.15
4 -0.57
5 -0.81
6 -0.73
7 0.27
8 0.27
9 0.57

>  <PUBCHEM_EFFECTIVE_ROTOR_COUNT>  (1) 
10

>  <PUBCHEM_PHARMACOPHORE_FEATURES>  (1) 
4
1 4 acceptor
1 5 cation
1 6 donor
6 14 15 16 17 18 19 rings

>  <PUBCHEM_HEAVY_ATOM_COUNT>  (1) 
19

>  <PUBCHEM_ATOM_DEF_STEREO_COUNT>  (1) 
0

>  <PUBCHEM_ATOM_UDEF_STEREO_COUNT>  (1) 
0

>  <PUBCHEM_BOND_DEF_STEREO_COUNT>  (1) 
0

>  <PUBCHEM_BOND_UDEF_STEREO_COUNT>  (1) 
0

>  <PUBCHEM_ISOTOPIC_ATOM_COUNT>  (1) 
0

>  <PUBCHEM_COMPONENT_COUNT>  (1) 
1

>  <PUBCHEM_CACTVS_TAUTO_COUNT>  (1) 
2

>  <PUBCHEM_CONFORMER_ID>  (1) 
0000A68400000001

>  <PUBCHEM_MMFF94_ENERGY>  (1) 
30.9535

>  <PUBCHEM_FEATURE_SELFOVERLAP>  (1) 
20.297

>  <PUBCHEM_SHAPE_FINGERPRINT>  (1) 
10319926 262 18337958874578990390
10912923 1 17531258252783200590
11796584 16 8646775482429202876
12107183 9 17830727665053622674
12403259 118 18411975849877248676
12403259 415 17775015552470827390
12523318 42 18187366554014711123
12596602 18 17967809478983418616
12892183 10 18408323272107287126
12969540 114 15913319187450491156
13073987 5 18407755933023999298
13914758 101 16370714929953012791
14123255 352 18131063784280724428
14178342 30 18115883923064423207
14366163 111 13039193610780222454
15188451 53 17603862351440205987
15880784 105 16950280732361441868
17844677 252 18410581673459454618
17870717 6 8070026671074577497
18222031 100 15285356241150362550
193927 3 13840547311908721622
20645477 56 17632857546473907575
20871999 31 10951757569547922869
21065199 12 18411422778105911142
21401589 2 18126011464718135393
2215653 11 12035722141472315475
22224240 67 17418102057215226583
22849339 104 9367055628764403625
23402655 69 12391518581066863646
23559900 14 17841720607999140846
3004659 81 9439413423793929876
312425 54 17822570508519726618
314194 84 14779552279432833310
5104073 3 18340209574601401914
5969126 39 18343012325416397325
90127 26 18272376325880920270
9981440 41 18339643309713813211

>  <PUBCHEM_SHAPE_MULTIPOLES>  (1) 
373.05
16.4
3.01
1.39
5.31
3.49
-0.29
-1.46
8.37
-6.98
0.74
0.48
-0.58
1.12

>  <PUBCHEM_SHAPE_SELFOVERLAP>  (1) 
722.409

>  <PUBCHEM_SHAPE_VOLUME>  (1) 
227.9

>  <PUBCHEM_COORDINATE_TYPE>  (1) 
2
5
10

$$$$
