42621
     RDKit          3D

 18 20  0  0  0  0  0  0  0  0999 V2000
    0.0242    3.1102    0.0195 S   0  0  0  0  0  0  0  0  0  0  0  0
    2.4840    1.1519   -0.0487 O   0  0  0  0  0  0  0  0  0  0  0  0
    0.0566    1.3721   -0.0146 C   0  0  0  0  0  0  0  0  0  0  0  0
    1.1995    0.6486   -0.0266 C   0  0  0  0  0  0  0  0  0  0  0  0
    1.7565    3.4309    0.4294 C   0  0  0  0  0  0  0  0  0  0  0  0
    2.6201    2.5230   -0.4225 C   0  0  0  0  0  0  0  0  0  0  0  0
   -1.2837    0.7586   -0.0136 C   0  0  0  0  0  0  0  0  0  0  0  0
    1.1969   -0.8237   -0.0011 C   0  0  0  0  0  0  0  0  0  0  0  0
   -1.9113    0.4580    1.1949 C   0  0  0  0  0  0  0  0  0  0  0  0
   -1.9234    0.4799   -1.2209 C   0  0  0  0  0  0  0  0  0  0  0  0
    1.1698   -1.5418   -1.1965 C   0  0  0  0  0  0  0  0  0  0  0  0
    1.2221   -1.5002    1.2185 C   0  0  0  0  0  0  0  0  0  0  0  0
   -3.1800   -0.1220    1.1961 C   0  0  0  0  0  0  0  0  0  0  0  0
   -3.1920   -0.1000   -1.2197 C   0  0  0  0  0  0  0  0  0  0  0  0
    1.1678   -2.9366   -1.1725 C   0  0  0  0  0  0  0  0  0  0  0  0
    1.2203   -2.8949    1.2426 C   0  0  0  0  0  0  0  0  0  0  0  0
   -3.8203   -0.4010   -0.0112 C   0  0  0  0  0  0  0  0  0  0  0  0
    1.1931   -3.6131    0.0470 C   0  0  0  0  0  0  0  0  0  0  0  0
  1  3  1  0
  1  5  1  0
  2  4  1  0
  2  6  1  0
  3  4  2  0
  3  7  1  0
  4  8  1  0
  5  6  1  0
  7  9  2  0
  7 10  1  0
  8 11  2  0
  8 12  1  0
  9 13  1  0
 10 14  2  0
 11 15  1  0
 12 16  2  0
 13 17  2  0
 14 17  1  0
 15 18  2  0
 16 18  1  0
M  END
>  <PUBCHEM_COMPOUND_CID>  (1) 
42621

>  <PUBCHEM_CONFORMER_RMSD>  (1) 
0.6

>  <PUBCHEM_CONFORMER_DIVERSEORDER>  (1) 
1

>  <PUBCHEM_MMFF94_PARTIAL_CHARGES>  (1) 
28
1 -0.33
10 -0.15
11 -0.15
12 -0.15
13 -0.15
14 -0.15
15 -0.15
16 -0.15
17 -0.15
18 -0.15
2 -0.36
23 0.15
24 0.15
25 0.15
26 0.15
27 0.15
28 0.15
29 0.15
3 0.07
30 0.15
31 0.15
32 0.15
4 0.05
5 0.23
6 0.28
7 0.03
8 0.03
9 -0.15

>  <PUBCHEM_EFFECTIVE_ROTOR_COUNT>  (1) 
2.8

>  <PUBCHEM_PHARMACOPHORE_FEATURES>  (1) 
4
1 2 acceptor
6 1 2 3 4 5 6 rings
6 7 9 10 13 14 17 rings
6 8 11 12 15 16 18 rings

>  <PUBCHEM_HEAVY_ATOM_COUNT>  (1) 
18

>  <PUBCHEM_ATOM_DEF_STEREO_COUNT>  (1) 
0

>  <PUBCHEM_ATOM_UDEF_STEREO_COUNT>  (1) 
0

>  <PUBCHEM_BOND_DEF_STEREO_COUNT>  (1) 
0

>  <PUBCHEM_BOND_UDEF_STEREO_COUNT>  (1) 
0

>  <PUBCHEM_ISOTOPIC_ATOM_COUNT>  (1) 
0

>  <PUBCHEM_COMPONENT_COUNT>  (1) 
1

>  <PUBCHEM_CACTVS_TAUTO_COUNT>  (1) 
1

>  <PUBCHEM_CONFORMER_ID>  (1) 
0000A67D00000001

>  <PUBCHEM_MMFF94_ENERGY>  (1) 
57.1057

>  <PUBCHEM_FEATURE_SELFOVERLAP>  (1) 
20.297

>  <PUBCHEM_SHAPE_FINGERPRINT>  (1) 
11578080 2 16953940809360509612
11582403 64 15947310683907380925
116883 192 17764855910612132725
12035758 1 18051444995455796048
12326174 3 18409166601677995749
12553582 1 18051140185468630871
12730499 353 18262230140750271853
12788726 201 17400367749974277441
13004483 165 17472383605647149651
13083527 12 18192403338902279906
13140716 1 18338796852525438144
13149001 5 17907890605296881324
13681431 1 18265888068989343388
14817 1 7849135969990723059
15309172 13 18193276523160545329
16752209 62 16677814818868865073
16945 1 18410571764732545356
17138139 8 17052149579065063511
19591789 44 18120937462714417510
20361792 2 18052536573878523687
20600515 1 16670730773141856608
20645477 70 18410284818642759199
21160774 45 17545317944338635255
21197605 99 17328323836041327611
21524375 3 18192711378441516200
21731516 1 18050577235504608067
23184049 29 17904479597682479026
23419403 2 14208360330476970625
23557571 272 17405418911125649746
23558518 356 16819667817864096960
23598288 3 16966360806365642706
238 59 18120346973715408023
257057 1 17977085878034612649
2748010 2 18046364177334302712
3060560 45 18265043815900380901
31174 14 18335713697942297283
34934 24 17979651034562743872
350125 39 16249414963750694705
5364581 5 17185004204852831098
5845 1 17055529090549035162
7364860 26 18411420583366689889
81228 2 17330259585646886744
8272917 22 18341057384741021245

>  <PUBCHEM_SHAPE_MULTIPOLES>  (1) 
368.41
4.52
4.41
1.29
4.65
0.24
-0.01
-0.27
-0.16
-4.67
0.09
0.37
0.61
-0.09

>  <PUBCHEM_SHAPE_SELFOVERLAP>  (1) 
789.6

>  <PUBCHEM_SHAPE_VOLUME>  (1) 
204.3

>  <PUBCHEM_COORDINATE_TYPE>  (1) 
2
5
10

$$$$
