42635
     RDKit          3D

 19 20  0  0  0  0  0  0  0  0999 V2000
    0.9972    2.4153    1.3204 O   0  0  0  0  0  0  0  0  0  0  0  0
   -2.9572    1.0395   -2.5298 O   0  0  0  0  0  0  0  0  0  0  0  0
   -2.9657   -1.4337    2.2993 O   0  0  0  0  0  0  0  0  0  0  0  0
    4.1129   -1.6476   -0.8795 O   0  0  0  0  0  0  0  0  0  0  0  0
    4.2984    0.2743    0.1650 O   0  0  0  0  0  0  0  0  0  0  0  0
   -2.1662   -0.2246   -0.1280 N   0  0  0  0  0  0  0  0  0  0  0  0
   -0.2141    1.8281    0.9970 N   0  0  0  0  0  0  0  0  0  0  0  0
    2.0704    1.6462    0.9042 N   0  0  0  0  0  0  0  0  0  0  0  0
    3.5921   -0.6399   -0.3344 N   0  0  0  0  0  0  0  0  0  0  0  0
   -0.7667   -0.2973   -0.1628 C   0  0  0  0  0  0  0  0  0  0  0  0
   -2.8436    1.0616   -0.1408 C   0  0  0  0  0  0  0  0  0  0  0  0
   -2.9718   -1.4343   -0.0925 C   0  0  0  0  0  0  0  0  0  0  0  0
    0.0888    0.6826    0.3736 C   0  0  0  0  0  0  0  0  0  0  0  0
   -0.1027   -1.3870   -0.7546 C   0  0  0  0  0  0  0  0  0  0  0  0
    1.5409    0.5670    0.3147 C   0  0  0  0  0  0  0  0  0  0  0  0
   -2.5312    1.8201   -1.4208 C   0  0  0  0  0  0  0  0  0  0  0  0
   -2.6776   -2.2386    1.1636 C   0  0  0  0  0  0  0  0  0  0  0  0
    2.1849   -0.5322   -0.2825 C   0  0  0  0  0  0  0  0  0  0  0  0
    1.3114   -1.4995   -0.8121 C   0  0  0  0  0  0  0  0  0  0  0  0
  1  7  1  0
  1  8  1  0
  2 16  1  0
  3 17  1  0
  4  9  1  0
  5  9  2  0
  6 10  1  0
  6 11  1  0
  6 12  1  0
  7 13  2  0
  8 15  2  0
  9 18  1  0
 10 13  1  0
 10 14  2  0
 11 16  1  0
 12 17  1  0
 13 15  1  0
 14 19  1  0
 15 18  1  0
 18 19  2  0
M  CHG  2   4  -1   9   1
M  END
>  <PUBCHEM_COMPOUND_CID>  (1) 
42635

>  <PUBCHEM_CONFORMER_RMSD>  (1) 
0.8

>  <PUBCHEM_CONFORMER_DIVERSEORDER>  (1) 
1
10
4
9
7
15
8
14
13
3
12
6
11
2
5

>  <PUBCHEM_MMFF94_PARTIAL_CHARGES>  (1) 
23
1 0.24
10 0.1
11 0.37
12 0.37
13 0.29
14 -0.15
15 0.29
16 0.28
17 0.28
18 0.13
19 -0.15
2 -0.68
24 0.15
29 0.15
3 -0.68
30 0.4
31 0.4
4 -0.52
5 -0.52
6 -0.84
7 -0.41
8 -0.41
9 0.91

>  <PUBCHEM_EFFECTIVE_ROTOR_COUNT>  (1) 
6

>  <PUBCHEM_PHARMACOPHORE_FEATURES>  (1) 
12
1 2 acceptor
1 2 donor
1 3 acceptor
1 3 donor
1 4 acceptor
1 4 anion
1 5 acceptor
1 6 cation
1 7 acceptor
1 8 acceptor
5 1 7 8 13 15 rings
6 10 13 14 15 18 19 rings

>  <PUBCHEM_HEAVY_ATOM_COUNT>  (1) 
19

>  <PUBCHEM_ATOM_DEF_STEREO_COUNT>  (1) 
0

>  <PUBCHEM_ATOM_UDEF_STEREO_COUNT>  (1) 
0

>  <PUBCHEM_BOND_DEF_STEREO_COUNT>  (1) 
0

>  <PUBCHEM_BOND_UDEF_STEREO_COUNT>  (1) 
0

>  <PUBCHEM_ISOTOPIC_ATOM_COUNT>  (1) 
0

>  <PUBCHEM_COMPONENT_COUNT>  (1) 
1

>  <PUBCHEM_CACTVS_TAUTO_COUNT>  (1) 
1

>  <PUBCHEM_CONFORMER_ID>  (1) 
0000A68B00000001

>  <PUBCHEM_MMFF94_ENERGY>  (1) 
66.2059

>  <PUBCHEM_FEATURE_SELFOVERLAP>  (1) 
61.16

>  <PUBCHEM_SHAPE_FINGERPRINT>  (1) 
11471102 22 18198914784216773283
11543360 7 17386021588949418646
12138202 97 18042115484332584503
124424 183 18338787919183587214
12500047 106 17822844282477754207
12714826 92 18260561021062826483
13294875 104 17467591977186290069
13296908 3 18343303660836477638
15219456 202 18341608269429759641
15653759 3 18334577966338277939
16945 1 18197202677192912645
17357779 13 18192417774920527231
17844478 74 18263086672428430459
18219364 16 18272650185796179835
18534176 82 18187923941731919237
19049666 15 18408597050523513915
200 152 17418086646661000391
21061003 4 18201453483672183107
21339142 51 18412266099345239190
22112679 90 15625943200484362345
22182313 1 18341602776472789984
23402539 116 17631441277345976678
23493267 7 18187643540270179112
23526113 38 18339075974055723315
23557571 272 17968648432146626229
25 1 18051682262128796957
2748010 2 18270669978271203040
3286 77 18057335079014073219
6049 1 18336546126548678057
6438718 38 16915386485445785049
81228 2 17698732406651791712
8809292 202 18410015407664745315

>  <PUBCHEM_SHAPE_MULTIPOLES>  (1) 
341.74
6.29
2.39
1.57
3.85
0.21
-0.08
-1.6
-0.77
-1.02
0.45
-1.41
0.24
2.28

>  <PUBCHEM_SHAPE_SELFOVERLAP>  (1) 
718.712

>  <PUBCHEM_SHAPE_VOLUME>  (1) 
193.6

>  <PUBCHEM_COORDINATE_TYPE>  (1) 
2
5
10

$$$$
