42631
     RDKit          3D

  8  7  0  0  1  0  0  0  0  0999 V2000
   -2.2220   -1.6131    0.4592 S   0  0  0  0  0  0  0  0  0  0  0  0
    0.4765   -0.7116   -1.2349 O   0  0  0  0  0  0  0  0  0  0  0  0
   -0.5378    2.0613   -0.1497 N   0  0  0  0  0  0  0  0  0  0  0  0
    1.6426    0.0713    0.6151 N   0  0  0  0  0  0  0  0  0  0  0  0
    2.8195   -0.5403    0.2341 N   0  0  0  0  0  0  0  0  0  0  0  0
   -0.6811    0.6951    0.3607 C   0  0  0  0  0  0  0  0  0  0  0  0
   -2.0192    0.1088   -0.0992 C   0  0  0  0  0  0  0  0  0  0  0  0
    0.5214   -0.0716   -0.1853 C   0  0  0  0  0  0  0  0  0  0  0  0
  1  7  1  0
  2  8  2  0
  3  6  1  0
  4  5  1  0
  4  8  1  0
  6  7  1  0
  6  8  1  0
M  END
>  <PUBCHEM_COMPOUND_CID>  (1) 
42631

>  <PUBCHEM_CONFORMER_RMSD>  (1) 
0.6

>  <PUBCHEM_CONFORMER_DIVERSEORDER>  (1) 
1
5
10
8
4
2
3
9
7
6

>  <PUBCHEM_MMFF94_PARTIAL_CHARGES>  (1) 
14
1 -0.41
12 0.36
13 0.36
14 0.37
15 0.18
16 0.36
17 0.36
2 -0.57
3 -0.99
4 -0.42
5 -0.73
6 0.33
7 0.23
8 0.57

>  <PUBCHEM_EFFECTIVE_ROTOR_COUNT>  (1) 
3

>  <PUBCHEM_PHARMACOPHORE_FEATURES>  (1) 
5
1 2 acceptor
1 3 cation
1 3 donor
1 4 donor
1 5 donor

>  <PUBCHEM_HEAVY_ATOM_COUNT>  (1) 
8

>  <PUBCHEM_ATOM_DEF_STEREO_COUNT>  (1) 
1

>  <PUBCHEM_ATOM_UDEF_STEREO_COUNT>  (1) 
0

>  <PUBCHEM_BOND_DEF_STEREO_COUNT>  (1) 
0

>  <PUBCHEM_BOND_UDEF_STEREO_COUNT>  (1) 
0

>  <PUBCHEM_ISOTOPIC_ATOM_COUNT>  (1) 
0

>  <PUBCHEM_COMPONENT_COUNT>  (1) 
1

>  <PUBCHEM_CACTVS_TAUTO_COUNT>  (1) 
2

>  <PUBCHEM_CONFORMER_ID>  (1) 
0000A68700000001

>  <PUBCHEM_MMFF94_ENERGY>  (1) 
9.5578

>  <PUBCHEM_FEATURE_SELFOVERLAP>  (1) 
26.884

>  <PUBCHEM_SHAPE_FINGERPRINT>  (1) 
10857977 72 18341320197367308906
14128692 85 17531252828039344071
21040471 1 17832999247333763317
23552449 1 18409726218805769912
23552449 11 18050577536389487931
29004967 10 18201164333673187011

>  <PUBCHEM_SHAPE_MULTIPOLES>  (1) 
147.67
3.23
1.59
0.84
0.7
0.6
-0.14
-1.7
0.56
-0.6
0.04
0.07
-0.14
0.14

>  <PUBCHEM_SHAPE_SELFOVERLAP>  (1) 
262.599

>  <PUBCHEM_SHAPE_VOLUME>  (1) 
97.7

>  <PUBCHEM_COORDINATE_TYPE>  (1) 
2
5
10

$$$$
