42637
     RDKit          3D

 27 30  0  0  0  0  0  0  0  0999 V2000
    2.6636    1.5750    0.8835 S   0  0  0  0  0  0  0  0  0  0  0  0
   -3.7240    1.5224   -0.0727 S   0  0  0  0  0  0  0  0  0  0  0  0
    2.8993    1.6943    2.3184 O   0  0  0  0  0  0  0  0  0  0  0  0
    3.2373    2.5617   -0.0235 O   0  0  0  0  0  0  0  0  0  0  0  0
   -0.0875    1.4929   -2.8231 O   0  0  0  0  0  0  0  0  0  0  0  0
   -4.3516   -0.3054    2.2133 O   0  0  0  0  0  0  0  0  0  0  0  0
    0.9458    1.5154   -1.9021 N   0  0  0  0  0  0  0  0  0  0  0  0
   -1.3274    1.4967   -2.2074 N   0  0  0  0  0  0  0  0  0  0  0  0
   -4.2740   -0.9142    1.0942 N   0  0  0  0  0  0  0  0  0  0  0  0
    0.9499    1.5598    0.5809 C   0  0  0  0  0  0  0  0  0  0  0  0
    3.3319   -0.0091    0.4441 C   0  0  0  0  0  0  0  0  0  0  0  0
    0.3622    1.5335   -0.6973 C   0  0  0  0  0  0  0  0  0  0  0  0
   -1.0827    1.5217   -0.8912 C   0  0  0  0  0  0  0  0  0  0  0  0
    0.0283    1.5734    1.6437 C   0  0  0  0  0  0  0  0  0  0  0  0
   -1.9870    1.5357    0.1866 C   0  0  0  0  0  0  0  0  0  0  0  0
   -1.3788    1.5619    1.4547 C   0  0  0  0  0  0  0  0  0  0  0  0
    3.7790   -0.2121   -0.8464 C   0  0  0  0  0  0  0  0  0  0  0  0
    3.3888   -1.0002    1.4037 C   0  0  0  0  0  0  0  0  0  0  0  0
    4.3722   -2.4739   -0.2390 C   0  0  0  0  0  0  0  0  0  0  0  0
    4.3046   -1.4573   -1.1916 C   0  0  0  0  0  0  0  0  0  0  0  0
    3.9143   -2.2454    1.0587 C   0  0  0  0  0  0  0  0  0  0  0  0
    4.9353   -3.8048   -0.6073 C   0  0  0  0  0  0  0  0  0  0  0  0
   -3.9896   -0.2321   -0.0815 C   0  0  0  0  0  0  0  0  0  0  0  0
   -3.9111   -0.9258   -1.2923 C   0  0  0  0  0  0  0  0  0  0  0  0
   -4.4781   -2.2800    1.0554 C   0  0  0  0  0  0  0  0  0  0  0  0
   -4.1179   -2.3007   -1.3198 C   0  0  0  0  0  0  0  0  0  0  0  0
   -4.4028   -2.9833   -0.1423 C   0  0  0  0  0  0  0  0  0  0  0  0
  1  3  2  0
  1  4  2  0
  1 10  1  0
  1 11  1  0
  2 15  1  0
  2 23  1  0
  5  7  1  0
  5  8  1  0
  6  9  1  0
  7 12  2  0
  8 13  2  0
  9 23  2  0
  9 25  1  0
 10 12  1  0
 10 14  2  0
 11 17  2  0
 11 18  1  0
 12 13  1  0
 13 15  1  0
 14 16  1  0
 15 16  2  0
 17 20  1  0
 18 21  2  0
 19 20  2  0
 19 21  1  0
 19 22  1  0
 23 24  1  0
 24 26  2  0
 25 27  2  0
 26 27  1  0
M  CHG  2   6  -1   9   1
M  END
>  <PUBCHEM_COMPOUND_CID>  (1) 
42637

>  <PUBCHEM_CONFORMER_RMSD>  (1) 
0.8

>  <PUBCHEM_CONFORMER_DIVERSEORDER>  (1) 
1
32
22
36
26
39
30
17
29
20
40
35
24
38
18
19
2
14
21
6
23
13
37
34
31
10
33
4
28
27
12
15
25
9
7
16
8
11
3
5

>  <PUBCHEM_MMFF94_PARTIAL_CHARGES>  (1) 
37
1 1.32
10 -0.01
11 -0.01
12 0.29
13 0.29
14 -0.15
15 0.1
16 -0.15
17 -0.15
18 -0.15
19 -0.14
2 -0.2
20 -0.15
21 -0.15
22 0.14
23 0.19
24 -0.15
25 -0.06
26 -0.15
27 -0.15
28 0.15
29 0.15
3 -0.65
30 0.15
31 0.15
32 0.15
33 0.15
37 0.15
38 0.15
39 0.15
4 -0.65
40 0.15
5 0.24
6 -0.75
7 -0.41
8 -0.41
9 0.57

>  <PUBCHEM_EFFECTIVE_ROTOR_COUNT>  (1) 
4

>  <PUBCHEM_PHARMACOPHORE_FEATURES>  (1) 
9
1 3 acceptor
1 4 acceptor
1 6 anion
1 7 acceptor
1 8 acceptor
5 5 7 8 12 13 rings
6 10 12 13 14 15 16 rings
6 11 17 18 19 20 21 rings
6 9 23 24 25 26 27 rings

>  <PUBCHEM_HEAVY_ATOM_COUNT>  (1) 
27

>  <PUBCHEM_ATOM_DEF_STEREO_COUNT>  (1) 
0

>  <PUBCHEM_ATOM_UDEF_STEREO_COUNT>  (1) 
0

>  <PUBCHEM_BOND_DEF_STEREO_COUNT>  (1) 
0

>  <PUBCHEM_BOND_UDEF_STEREO_COUNT>  (1) 
0

>  <PUBCHEM_ISOTOPIC_ATOM_COUNT>  (1) 
0

>  <PUBCHEM_COMPONENT_COUNT>  (1) 
1

>  <PUBCHEM_CACTVS_TAUTO_COUNT>  (1) 
1

>  <PUBCHEM_CONFORMER_ID>  (1) 
0000A68D00000001

>  <PUBCHEM_MMFF94_ENERGY>  (1) 
60.9236

>  <PUBCHEM_FEATURE_SELFOVERLAP>  (1) 
45.865

>  <PUBCHEM_SHAPE_FINGERPRINT>  (1) 
10042902 136 18336554892492838631
10074138 170 17270889325260073160
10305334 12 16476002775358184355
10498660 4 12252486396855098878
10928967 22 18261110729622083770
11387372 6 17195463880093929950
11477941 20 17024611992656938358
11756154 5 17840022945547084670
11796584 16 18341620286816884261
11991303 11 15947412049293813148
12422481 6 18341626893146615531
12633257 1 17561092397149372143
13103583 49 17775017760147373003
13383661 66 15877362103163358683
13544653 18 18410851109695705561
13583140 156 17774425200779629409
14347329 18 10735009829290858850
14848178 5 18410847776648356439
14950920 106 17418093239008811123
15510800 12 18335975450028907931
15669420 48 14925375107492476027
1813 80 17822568412797309861
20715895 44 10737821215401726855
20775530 9 18263082137043816466
21401589 2 10303516330127936207
21475661 188 10807944764133459130
22620623 9 17604697864265745853
22907989 373 13768210450217272653
23559900 14 18340198609697847856
25222932 49 17485085529027334975
2838139 119 8286200535251445370
44062 13 18263924341385496775
46194498 28 16372713966124192739
463206 1 17899689060107331986
5486654 36 18199753535748054866
7970288 3 17981047410631690422
999808 66 16987446304999459302

>  <PUBCHEM_SHAPE_MULTIPOLES>  (1) 
524.93
11.49
3.8
2.09
0.49
2.67
-0.4
11.58
1.3
-1.45
-0.09
0.45
-0.75
0.74

>  <PUBCHEM_SHAPE_SELFOVERLAP>  (1) 
1125.847

>  <PUBCHEM_SHAPE_VOLUME>  (1) 
290.1

>  <PUBCHEM_COORDINATE_TYPE>  (1) 
2
5
10

$$$$
