42647
     RDKit          3D

 16 17  0  0  0  0  0  0  0  0999 V2000
    1.3340    0.7673    0.0005 S   0  0  0  0  0  0  0  0  0  0  0  0
   -3.2094   -1.9885    0.0003 S   0  0  0  0  0  0  0  0  0  0  0  0
    5.1695    0.3308    0.0005 O   0  0  0  0  0  0  0  0  0  0  0  0
    3.8847    2.1161    0.0004 O   0  0  0  0  0  0  0  0  0  0  0  0
   -3.3616    2.6960   -0.0023 O   0  0  0  0  0  0  0  0  0  0  0  0
   -1.7601    0.1519    0.0009 N   0  0  0  0  0  0  0  0  0  0  0  0
   -4.1504    0.4577    0.0014 N   0  0  0  0  0  0  0  0  0  0  0  0
    4.0234    0.8610    0.0005 N   0  0  0  0  0  0  0  0  0  0  0  0
    0.5602   -0.7602   -0.0004 C   0  0  0  0  0  0  0  0  0  0  0  0
   -0.9052   -0.9323   -0.0001 C   0  0  0  0  0  0  0  0  0  0  0  0
    1.4656   -1.7983   -0.0011 C   0  0  0  0  0  0  0  0  0  0  0  0
    2.8852    0.0420   -0.0002 C   0  0  0  0  0  0  0  0  0  0  0  0
    2.8125   -1.3337   -0.0010 C   0  0  0  0  0  0  0  0  0  0  0  0
   -1.5045   -2.1739   -0.0007 C   0  0  0  0  0  0  0  0  0  0  0  0
   -2.9998   -0.2854    0.0013 C   0  0  0  0  0  0  0  0  0  0  0  0
   -4.2441    1.8495   -0.0003 C   0  0  0  0  0  0  0  0  0  0  0  0
  1  9  1  0
  1 12  1  0
  2 14  1  0
  2 15  1  0
  3  8  1  0
  4  8  2  0
  5 16  2  0
  6 10  1  0
  6 15  2  0
  7 15  1  0
  7 16  1  0
  8 12  1  0
  9 10  1  0
  9 11  2  0
 10 14  2  0
 11 13  1  0
 12 13  2  0
M  CHG  2   3  -1   8   1
M  END
>  <PUBCHEM_COMPOUND_CID>  (1) 
42647

>  <PUBCHEM_CONFORMER_RMSD>  (1) 
0.6

>  <PUBCHEM_CONFORMER_DIVERSEORDER>  (1) 
1
11
7
12
2
8
5
4
9
3
6
10

>  <PUBCHEM_MMFF94_PARTIAL_CHARGES>  (1) 
21
1 -0.08
10 0.23
11 -0.15
12 0.12
13 -0.15
14 -0.11
15 0.44
16 0.57
17 0.15
18 0.15
19 0.15
2 -0.08
20 0.37
21 0.06
3 -0.52
4 -0.52
5 -0.57
6 -0.57
7 -0.49
8 0.96
9 0.04

>  <PUBCHEM_EFFECTIVE_ROTOR_COUNT>  (1) 
4

>  <PUBCHEM_PHARMACOPHORE_FEATURES>  (1) 
7
1 3 acceptor
1 3 anion
1 4 acceptor
1 5 acceptor
1 7 donor
5 1 9 11 12 13 rings
5 2 6 10 14 15 rings

>  <PUBCHEM_HEAVY_ATOM_COUNT>  (1) 
16

>  <PUBCHEM_ATOM_DEF_STEREO_COUNT>  (1) 
0

>  <PUBCHEM_ATOM_UDEF_STEREO_COUNT>  (1) 
0

>  <PUBCHEM_BOND_DEF_STEREO_COUNT>  (1) 
0

>  <PUBCHEM_BOND_UDEF_STEREO_COUNT>  (1) 
0

>  <PUBCHEM_ISOTOPIC_ATOM_COUNT>  (1) 
0

>  <PUBCHEM_COMPONENT_COUNT>  (1) 
1

>  <PUBCHEM_CACTVS_TAUTO_COUNT>  (1) 
3

>  <PUBCHEM_CONFORMER_ID>  (1) 
0000A69700000001

>  <PUBCHEM_MMFF94_ENERGY>  (1) 
20.9398

>  <PUBCHEM_FEATURE_SELFOVERLAP>  (1) 
35.602

>  <PUBCHEM_SHAPE_FINGERPRINT>  (1) 
10014705 185 18333726923338121199
10608611 8 18412262852334119547
10646746 165 18411700997813649532
12173636 292 18410572881851622511
122479 349 18408325466951528819
12500047 106 18341608230801466659
14123255 52 18410011005328567523
14252887 29 13334730211791490234
14415576 193 18412266116588476886
14897335 6 18411418410145198479
15196674 1 18410855451564873798
15239154 128 18410014342444335980
15442244 35 18265612087365644026
1741750 31 18412827962835451875
17834072 32 18267305331436588949
18186145 218 18130238063932997571
20510252 161 18413394254616548491
20645477 56 18408889520959179151
20645477 70 17060069098941657470
21652331 79 18409731742687451137
23402539 116 18343296003110067262
23402655 69 18272930496752201422
23557571 272 18271253810265849551
23559900 14 18200313213327390622
27216 239 18333737910022797977
2916195 48 17986382498799893080
335352 9 18266458711693610718
3545911 37 18412267233148020419
4214541 1 18410575084668353670
474 4 17749113326331728548
4990 188 18059305339621593886
5104073 3 18335420162154231194
77779 3 18410576210224462094
8199 26 18410576184290965605
9709674 26 18412831286871704879

>  <PUBCHEM_SHAPE_MULTIPOLES>  (1) 
304.42
9.29
2.56
0.59
3.34
0.65
0
4.9
0
-1.89
0
-0.04
-0.05
0

>  <PUBCHEM_SHAPE_SELFOVERLAP>  (1) 
626.112

>  <PUBCHEM_SHAPE_VOLUME>  (1) 
176.3

>  <PUBCHEM_COORDINATE_TYPE>  (1) 
2
5
10

$$$$
