42642
     RDKit          3D

 17 17  0  0  1  0  0  0  0  0999 V2000
    0.6585    0.3283   -0.6322 O   0  0  0  0  0  0  0  0  0  0  0  0
    1.1614    1.2311    1.4425 O   0  0  0  0  0  0  0  0  0  0  0  0
    4.4202   -0.7629   -1.1207 O   0  0  0  0  0  0  0  0  0  0  0  0
    2.8570    0.2407    0.2047 N   0  0  0  0  0  0  0  0  0  0  0  0
    3.2237   -0.4605   -1.0555 N   0  0  0  0  0  0  0  0  0  0  0  0
   -1.1374   -1.4993    0.6322 C   0  0  0  0  0  0  0  0  0  0  0  0
   -1.9062   -2.6437   -0.0595 C   0  0  0  0  0  0  0  0  0  0  0  0
   -1.5606   -0.1210    0.1541 C   0  0  0  0  0  0  0  0  0  0  0  0
   -1.2803   -1.6066    2.1553 C   0  0  0  0  0  0  0  0  0  0  0  0
   -0.6366    0.7104   -0.4499 C   0  0  0  0  0  0  0  0  0  0  0  0
   -1.6634   -2.7042   -1.5627 C   0  0  0  0  0  0  0  0  0  0  0  0
   -2.8753    0.2632    0.3412 C   0  0  0  0  0  0  0  0  0  0  0  0
   -1.0420    1.9728   -0.8830 C   0  0  0  0  0  0  0  0  0  0  0  0
   -3.2805    1.5257   -0.0920 C   0  0  0  0  0  0  0  0  0  0  0  0
   -2.3639    2.3805   -0.7040 C   0  0  0  0  0  0  0  0  0  0  0  0
    1.5406    0.6476    0.4279 C   0  0  0  0  0  0  0  0  0  0  0  0
    3.8848    0.4977    1.2016 C   0  0  0  0  0  0  0  0  0  0  0  0
  1 10  1  0
  1 16  1  0
  2 16  2  0
  3  5  2  0
  4  5  1  0
  4 16  1  0
  4 17  1  0
  6  7  1  0
  6  8  1  0
  6  9  1  0
  7 11  1  0
  8 10  2  0
  8 12  1  0
 10 13  1  0
 12 14  2  0
 13 15  2  0
 14 15  1  0
M  END
>  <PUBCHEM_COMPOUND_CID>  (1) 
42642

>  <PUBCHEM_CONFORMER_RMSD>  (1) 
0.8

>  <PUBCHEM_CONFORMER_DIVERSEORDER>  (1) 
1
102
71
35
77
66
69
47
44
85
76
50
59
80
34
96
89
82
36
32
86
75
53
81
51
65
92
15
100
17
49
78
8
43
97
40
94
21
95
56
16
84
54
37
57
61
73
42
12
90
62
22
45
55
39
63
6
26
101
33
9
87
52
25
7
99
24
72
27
67
38
93
13
68
91
70
23
29
83
5
88
103
79
41
30
18
58
98
10
19
3
74
4
31
60
11
20
28
14
2
46
48
64

>  <PUBCHEM_MMFF94_PARTIAL_CHARGES>  (1) 
18
1 -0.23
10 0.08
12 -0.15
13 -0.15
14 -0.15
15 -0.15
16 0.78
17 0.3
2 -0.57
27 0.15
28 0.15
29 0.15
3 -0.16
30 0.15
4 -0.18
5 -0.02
6 0.14
8 -0.14

>  <PUBCHEM_EFFECTIVE_ROTOR_COUNT>  (1) 
6

>  <PUBCHEM_PHARMACOPHORE_FEATURES>  (1) 
4
1 11 hydrophobe
1 2 acceptor
1 9 hydrophobe
6 8 10 12 13 14 15 rings

>  <PUBCHEM_HEAVY_ATOM_COUNT>  (1) 
17

>  <PUBCHEM_ATOM_DEF_STEREO_COUNT>  (1) 
0

>  <PUBCHEM_ATOM_UDEF_STEREO_COUNT>  (1) 
1

>  <PUBCHEM_BOND_DEF_STEREO_COUNT>  (1) 
0

>  <PUBCHEM_BOND_UDEF_STEREO_COUNT>  (1) 
0

>  <PUBCHEM_ISOTOPIC_ATOM_COUNT>  (1) 
0

>  <PUBCHEM_COMPONENT_COUNT>  (1) 
1

>  <PUBCHEM_CACTVS_TAUTO_COUNT>  (1) 
1

>  <PUBCHEM_CONFORMER_ID>  (1) 
0000A69200000001

>  <PUBCHEM_MMFF94_ENERGY>  (1) 
45.0559

>  <PUBCHEM_FEATURE_SELFOVERLAP>  (1) 
20.297

>  <PUBCHEM_SHAPE_FINGERPRINT>  (1) 
107951 10 17678480579025848866
11322862 65 18412544288767031183
12500047 106 18339078190485175428
13538477 17 17313390049335272264
15375358 24 18131060516395791400
15669948 3 18186803590859584212
16752209 62 17968079916168517293
16945 1 18408876339557036521
18186145 218 18200027322601943384
19422 9 16732987479285232768
20524608 308 18413105065493257135
20600515 1 16958680043462505481
20645476 183 17313115119925539945
20645477 70 17203327772176104732
20871998 184 18409173242130004063
21501502 16 18193269913179496600
21524375 3 18117267065415347169
23388829 49 17331676263793625989
23402539 116 18269821147353225439
23419403 2 16125532787365081667
23557571 272 18337109081314401672
23559900 14 18341895144166584110
23728640 28 18334006194416893315
257057 1 17762888167182092239
2748010 2 18045781457825934761
43471831 8 17823412700262017387
6338986 31 17763734791045971535
69090 78 18342450444181981431
7364860 26 17619337715876920053
77492 1 16732704926298110740
81228 2 18190448540725482121
81539 233 17680138578599781621

>  <PUBCHEM_SHAPE_MULTIPOLES>  (1) 
322.28
5.95
2.77
1.5
7.96
0.97
-0.32
-0.6
0.54
-3.02
0.69
0.3
0.75
0.61

>  <PUBCHEM_SHAPE_SELFOVERLAP>  (1) 
652.87

>  <PUBCHEM_SHAPE_VOLUME>  (1) 
186.9

>  <PUBCHEM_COORDINATE_TYPE>  (1) 
2
5
10

$$$$
