42643
     RDKit          3D

 16 16  0  0  0  0  0  0  0  0999 V2000
    0.5625    0.4027    0.6201 O   0  0  0  0  0  0  0  0  0  0  0  0
    0.9383    0.6786   -1.6505 O   0  0  0  0  0  0  0  0  0  0  0  0
    4.4045   -0.2743    1.2206 O   0  0  0  0  0  0  0  0  0  0  0  0
    2.7356    0.1991   -0.2619 N   0  0  0  0  0  0  0  0  0  0  0  0
    3.1885   -0.0740    1.1290 N   0  0  0  0  0  0  0  0  0  0  0  0
   -1.1390   -1.8171    0.0361 C   0  0  0  0  0  0  0  0  0  0  0  0
   -1.6340   -0.4103    0.1091 C   0  0  0  0  0  0  0  0  0  0  0  0
   -1.3244   -2.4329   -1.3630 C   0  0  0  0  0  0  0  0  0  0  0  0
   -1.7882   -2.7238    1.0978 C   0  0  0  0  0  0  0  0  0  0  0  0
   -0.7609    0.6386    0.3980 C   0  0  0  0  0  0  0  0  0  0  0  0
   -2.9860   -0.1506   -0.1152 C   0  0  0  0  0  0  0  0  0  0  0  0
   -1.2401    1.9471    0.4623 C   0  0  0  0  0  0  0  0  0  0  0  0
   -3.4650    1.1580   -0.0508 C   0  0  0  0  0  0  0  0  0  0  0  0
   -2.5920    2.2067    0.2380 C   0  0  0  0  0  0  0  0  0  0  0  0
    1.3880    0.4454   -0.5292 C   0  0  0  0  0  0  0  0  0  0  0  0
    3.7121    0.2068   -1.3402 C   0  0  0  0  0  0  0  0  0  0  0  0
  1 10  1  0
  1 15  1  0
  2 15  2  0
  3  5  2  0
  4  5  1  0
  4 15  1  0
  4 16  1  0
  6  7  1  0
  6  8  1  0
  6  9  1  0
  7 10  2  0
  7 11  1  0
 10 12  1  0
 11 13  2  0
 12 14  2  0
 13 14  1  0
M  END
>  <PUBCHEM_COMPOUND_CID>  (1) 
42643

>  <PUBCHEM_CONFORMER_RMSD>  (1) 
0.6

>  <PUBCHEM_CONFORMER_DIVERSEORDER>  (1) 
1
42
56
71
54
13
62
57
51
21
69
35
63
15
20
6
38
59
19
29
31
45
40
39
61
60
53
46
27
28
67
9
24
47
64
52
17
30
48
41
14
49
26
2
44
25
58
16
55
3
23
36
7
32
12
10
66
33
11
4
70
18
5
8
50
68
65
37
43
22
34

>  <PUBCHEM_MMFF94_PARTIAL_CHARGES>  (1) 
18
1 -0.23
10 0.08
11 -0.15
12 -0.15
13 -0.15
14 -0.15
15 0.78
16 0.3
2 -0.57
24 0.15
25 0.15
26 0.15
27 0.15
3 -0.16
4 -0.18
5 -0.02
6 0.14
7 -0.14

>  <PUBCHEM_EFFECTIVE_ROTOR_COUNT>  (1) 
5

>  <PUBCHEM_PHARMACOPHORE_FEATURES>  (1) 
3
1 2 acceptor
3 6 8 9 hydrophobe
6 7 10 11 12 13 14 rings

>  <PUBCHEM_HEAVY_ATOM_COUNT>  (1) 
16

>  <PUBCHEM_ATOM_DEF_STEREO_COUNT>  (1) 
0

>  <PUBCHEM_ATOM_UDEF_STEREO_COUNT>  (1) 
0

>  <PUBCHEM_BOND_DEF_STEREO_COUNT>  (1) 
0

>  <PUBCHEM_BOND_UDEF_STEREO_COUNT>  (1) 
0

>  <PUBCHEM_ISOTOPIC_ATOM_COUNT>  (1) 
0

>  <PUBCHEM_COMPONENT_COUNT>  (1) 
1

>  <PUBCHEM_CACTVS_TAUTO_COUNT>  (1) 
1

>  <PUBCHEM_CONFORMER_ID>  (1) 
0000A69300000001

>  <PUBCHEM_MMFF94_ENERGY>  (1) 
44.8662

>  <PUBCHEM_FEATURE_SELFOVERLAP>  (1) 
15.223

>  <PUBCHEM_SHAPE_FINGERPRINT>  (1) 
12500047 106 18343019956882282932
12553582 1 17835529588577580798
12592029 89 18115596924500988987
12824470 246 17314503944766773219
13083527 12 16908877715721551295
13380535 76 18339924809927557903
13538477 17 18187087294755425464
13931106 250 17844796161023119031
15207287 21 17703782622271165501
15669948 3 18337958986200297052
15852999 172 18271253702933793799
16945 1 18336276694860614969
18186145 218 17774447053266996760
20279233 1 17561083609815011662
20524608 308 18273215300471173215
20645476 183 17967544483938523687
20871998 184 18271538601273856215
21524375 3 18338232640294814553
232386 152 18336825389886113642
23402539 116 18272354374661831549
23419403 2 13611100297395336647
23557571 272 18200031896979269824
23559900 14 18202008694774850284
23598291 2 17894634768452386102
23728640 28 18410847772142665771
257057 1 17624398076135655327
2748010 2 18126022480823309479
305870 269 18046350730108346277
3071541 236 18408606954828835739
43471831 8 18265052436311109539
5706482 22 18410290268681860083
69090 78 18201712938425192727
6992083 37 17822013094547092853
7364860 26 17552077295223287389
74978 22 18260837033020458772
77492 1 17894916221753955864
81228 2 18340768264358423153
81539 233 18045783386693564109
9709674 26 18344149185241515758

>  <PUBCHEM_SHAPE_MULTIPOLES>  (1) 
301.7
6.17
2.5
1.26
6.98
1.3
0.18
-1.17
-0.57
-2.84
-0.14
0.91
0.4
-0.21

>  <PUBCHEM_SHAPE_SELFOVERLAP>  (1) 
613.539

>  <PUBCHEM_SHAPE_VOLUME>  (1) 
174.2

>  <PUBCHEM_COORDINATE_TYPE>  (1) 
2
5
10

$$$$
