42646
     RDKit          3D

 14 14  0  0  0  0  0  0  0  0999 V2000
    0.5482    0.1628    0.6033 O   0  0  0  0  0  0  0  0  0  0  0  0
    0.8647   -0.0151   -1.6860 O   0  0  0  0  0  0  0  0  0  0  0  0
    4.4339   -0.1867    1.2119 O   0  0  0  0  0  0  0  0  0  0  0  0
    2.7127   -0.1103   -0.2845 N   0  0  0  0  0  0  0  0  0  0  0  0
    3.2073   -0.0696    1.1184 N   0  0  0  0  0  0  0  0  0  0  0  0
   -2.9648   -0.7323    0.1104 C   0  0  0  0  0  0  0  0  0  0  0  0
   -0.7888    0.2826    0.3786 C   0  0  0  0  0  0  0  0  0  0  0  0
   -1.5944   -0.8554    0.3401 C   0  0  0  0  0  0  0  0  0  0  0  0
   -3.5294    0.5288   -0.0808 C   0  0  0  0  0  0  0  0  0  0  0  0
   -1.3535    1.5437    0.1874 C   0  0  0  0  0  0  0  0  0  0  0  0
   -2.7238    1.6668   -0.0423 C   0  0  0  0  0  0  0  0  0  0  0  0
   -3.8265   -1.9486    0.0694 C   0  0  0  0  0  0  0  0  0  0  0  0
    1.3487    0.0093   -0.5549 C   0  0  0  0  0  0  0  0  0  0  0  0
    3.6657   -0.2759   -1.3710 C   0  0  0  0  0  0  0  0  0  0  0  0
  1  7  1  0
  1 13  1  0
  2 13  2  0
  3  5  2  0
  4  5  1  0
  4 13  1  0
  4 14  1  0
  6  8  2  0
  6  9  1  0
  6 12  1  0
  7  8  1  0
  7 10  2  0
  9 11  2  0
 10 11  1  0
M  END
>  <PUBCHEM_COMPOUND_CID>  (1) 
42646

>  <PUBCHEM_CONFORMER_RMSD>  (1) 
0.6

>  <PUBCHEM_CONFORMER_DIVERSEORDER>  (1) 
1
57
87
80
59
67
20
72
17
33
34
63
64
55
22
39
3
76
62
52
42
81
82
71
30
49
28
56
73
79
60
4
25
37
9
10
2
16
31
50
75
51
11
69
19
68
41
38
5
21
54
44
6
36
53
47
7
8
40
66
48
23
84
29
43
24
27
85
26
18
78
70
13
74
15
35
46
58
61
14
77
12
65
45
32
83
86

>  <PUBCHEM_MMFF94_PARTIAL_CHARGES>  (1) 
18
1 -0.23
10 -0.15
11 -0.15
12 0.14
13 0.78
14 0.3
15 0.15
16 0.15
17 0.15
18 0.15
2 -0.57
3 -0.16
4 -0.18
5 -0.02
6 -0.14
7 0.08
8 -0.15
9 -0.15

>  <PUBCHEM_EFFECTIVE_ROTOR_COUNT>  (1) 
4

>  <PUBCHEM_PHARMACOPHORE_FEATURES>  (1) 
2
1 2 acceptor
6 6 7 8 9 10 11 rings

>  <PUBCHEM_HEAVY_ATOM_COUNT>  (1) 
14

>  <PUBCHEM_ATOM_DEF_STEREO_COUNT>  (1) 
0

>  <PUBCHEM_ATOM_UDEF_STEREO_COUNT>  (1) 
0

>  <PUBCHEM_BOND_DEF_STEREO_COUNT>  (1) 
0

>  <PUBCHEM_BOND_UDEF_STEREO_COUNT>  (1) 
0

>  <PUBCHEM_ISOTOPIC_ATOM_COUNT>  (1) 
0

>  <PUBCHEM_COMPONENT_COUNT>  (1) 
1

>  <PUBCHEM_CACTVS_TAUTO_COUNT>  (1) 
1

>  <PUBCHEM_CONFORMER_ID>  (1) 
0000A69600000001

>  <PUBCHEM_MMFF94_ENERGY>  (1) 
39.0221

>  <PUBCHEM_FEATURE_SELFOVERLAP>  (1) 
10.148

>  <PUBCHEM_SHAPE_FINGERPRINT>  (1) 
10062212 137 17821725022853913555
11987891 27 17821725052655070186
12932764 1 17822297872396040444
13296908 3 17846503616607361886
14144814 61 17167869659718888108
15219456 202 17561083583538831624
16945 1 18410862023503075185
17834072 33 18187370939450185094
18175812 5 17775006769204827436
18186145 218 17774731869949432954
19026448 4 17917713478706345436
19026448 5 17821731636908370356
200 152 16949994842153024195
20201158 50 17846504694870928703
20279233 1 17917991659242718999
20281407 28 18273223005716322611
204376 136 16343408609937039792
20645477 56 18339646620896559145
20645477 70 16199869440978380124
20715346 28 17703791401311016228
21061003 4 16988851587610985465
21728266 224 18262782043177941659
22169311 21 18130507439986764134
23402539 116 18411407419872150717
23532345 42 18273216434426753404
23557571 272 18129959900608239429
23559900 14 18271249301167308814
573450 72 18187355502583440384
57812782 119 18201718444457299516
633830 44 13830140511381820532
77492 1 17603589612088988361

>  <PUBCHEM_SHAPE_MULTIPOLES>  (1) 
260.54
7.77
1.43
1.12
5.09
0.03
-0.18
-1.84
0.61
-2.13
0.02
1.38
-0.07
0.14

>  <PUBCHEM_SHAPE_SELFOVERLAP>  (1) 
531.732

>  <PUBCHEM_SHAPE_VOLUME>  (1) 
149.9

>  <PUBCHEM_COORDINATE_TYPE>  (1) 
2
5
10

$$$$
