42652
     RDKit          3D

 16 17  0  0  0  0  0  0  0  0999 V2000
    3.1429   -1.9820   -0.0003 S   0  0  0  0  0  0  0  0  0  0  0  0
   -3.6077    2.1965   -0.0022 O   0  0  0  0  0  0  0  0  0  0  0  0
   -4.9846    0.4813    0.0009 O   0  0  0  0  0  0  0  0  0  0  0  0
    3.2552    2.7036    0.0028 O   0  0  0  0  0  0  0  0  0  0  0  0
   -1.5448   -1.8126    0.0019 N   0  0  0  0  0  0  0  0  0  0  0  0
    1.6754    0.1461   -0.0013 N   0  0  0  0  0  0  0  0  0  0  0  0
   -3.8155    0.9531   -0.0001 N   0  0  0  0  0  0  0  0  0  0  0  0
    4.0631    0.4722   -0.0008 N   0  0  0  0  0  0  0  0  0  0  0  0
   -0.6371   -0.7857   -0.0009 C   0  0  0  0  0  0  0  0  0  0  0  0
    0.8249   -0.9449   -0.0006 C   0  0  0  0  0  0  0  0  0  0  0  0
   -1.3400    0.3988   -0.0015 C   0  0  0  0  0  0  0  0  0  0  0  0
   -2.7187    0.0725    0.0002 C   0  0  0  0  0  0  0  0  0  0  0  0
   -2.8163   -1.3014    0.0022 C   0  0  0  0  0  0  0  0  0  0  0  0
    1.4395   -2.1818    0.0000 C   0  0  0  0  0  0  0  0  0  0  0  0
    2.9187   -0.2806   -0.0013 C   0  0  0  0  0  0  0  0  0  0  0  0
    4.1450    1.8648    0.0011 C   0  0  0  0  0  0  0  0  0  0  0  0
  1 14  1  0
  1 15  1  0
  2  7  1  0
  3  7  2  0
  4 16  2  0
  5  9  1  0
  5 13  1  0
  6 10  1  0
  6 15  2  0
  7 12  1  0
  8 15  1  0
  8 16  1  0
  9 10  1  0
  9 11  2  0
 10 14  2  0
 11 12  1  0
 12 13  2  0
M  CHG  2   2  -1   7   1
M  END
>  <PUBCHEM_COMPOUND_CID>  (1) 
42652

>  <PUBCHEM_CONFORMER_RMSD>  (1) 
0.6

>  <PUBCHEM_CONFORMER_DIVERSEORDER>  (1) 
1
11
7
8
4
2
3
9
5
6
12
10

>  <PUBCHEM_MMFF94_PARTIAL_CHARGES>  (1) 
22
1 -0.08
10 0.23
11 -0.15
12 0.08
13 -0.3
14 -0.11
15 0.44
16 0.57
17 0.15
18 0.27
19 0.15
2 -0.52
20 0.15
21 0.37
22 0.06
3 -0.52
4 -0.57
5 0.03
6 -0.57
7 0.96
8 -0.49
9 -0.15

>  <PUBCHEM_EFFECTIVE_ROTOR_COUNT>  (1) 
4

>  <PUBCHEM_PHARMACOPHORE_FEATURES>  (1) 
9
1 2 acceptor
1 2 anion
1 3 acceptor
1 4 acceptor
1 5 cation
1 5 donor
1 8 donor
5 1 6 10 14 15 rings
5 5 9 11 12 13 rings

>  <PUBCHEM_HEAVY_ATOM_COUNT>  (1) 
16

>  <PUBCHEM_ATOM_DEF_STEREO_COUNT>  (1) 
0

>  <PUBCHEM_ATOM_UDEF_STEREO_COUNT>  (1) 
0

>  <PUBCHEM_BOND_DEF_STEREO_COUNT>  (1) 
0

>  <PUBCHEM_BOND_UDEF_STEREO_COUNT>  (1) 
0

>  <PUBCHEM_ISOTOPIC_ATOM_COUNT>  (1) 
0

>  <PUBCHEM_COMPONENT_COUNT>  (1) 
1

>  <PUBCHEM_CACTVS_TAUTO_COUNT>  (1) 
3

>  <PUBCHEM_CONFORMER_ID>  (1) 
0000A69C00000001

>  <PUBCHEM_MMFF94_ENERGY>  (1) 
16.039

>  <PUBCHEM_FEATURE_SELFOVERLAP>  (1) 
45.749

>  <PUBCHEM_SHAPE_FINGERPRINT>  (1) 
10014705 185 18333444353181757813
10465860 228 18409450271910508854
10608611 8 18409448076749742910
11471102 20 18411417267963440150
122479 349 18263083365535812130
13081056 2 18337393747134827909
13675066 3 17894919503346197411
14123255 52 18411418448984254118
14415576 193 18412265030088247550
14897335 6 18411417306301686647
15196674 1 18410855477313331718
15342168 16 18188494691245924908
15442244 35 18195528091156337746
15536298 74 18412265012781888246
17834072 32 18412266150753036257
17834072 33 18342171185445520375
18186145 218 18129959956690486986
20449540 30 18200601405110115459
20645477 56 18333453140442239167
20645477 70 18200877266591587190
21652331 79 18409167714370359773
23402655 69 18272650125671893054
23559900 14 18271524191880526770
3545911 37 18409733958304805590
449060 50 18409169909209021607
474 4 17894918472453910716
5104073 3 18334859407008212923
7364860 26 18412264996029501334
77779 3 18411139108632988115
8199 26 18411139173031071812
9709674 26 18411986844825124095

>  <PUBCHEM_SHAPE_MULTIPOLES>  (1) 
295.59
8.91
2.55
0.58
3.23
0.76
0
4.79
0
-1.89
0
-0.06
-0.05
0

>  <PUBCHEM_SHAPE_SELFOVERLAP>  (1) 
623.109

>  <PUBCHEM_SHAPE_VOLUME>  (1) 
168.4

>  <PUBCHEM_COORDINATE_TYPE>  (1) 
2
5
10

$$$$
