42659
     RDKit          3D

 24 26  0  0  1  0  0  0  0  0999 V2000
   -0.0563   -1.6468   -1.6989 O   0  0  0  0  0  0  0  0  0  0  0  0
   -4.2429    1.8885    0.4425 O   0  0  0  0  0  0  0  0  0  0  0  0
   -5.6732   -0.4531    0.8835 O   0  0  0  0  0  0  0  0  0  0  0  0
    4.9520   -1.3315    0.1688 N   0  0  0  0  0  0  0  0  0  0  0  0
    0.4115    0.3756   -0.6663 N   0  0  0  0  0  0  0  0  0  0  0  0
    2.7261   -0.2526   -0.1036 C   0  0  0  0  0  0  0  0  0  0  0  0
    2.9393    0.5642    1.1903 C   0  0  0  0  0  0  0  0  0  0  0  0
    1.7905    0.4680   -1.0993 C   0  0  0  0  0  0  0  0  0  0  0  0
    3.3458    2.0184    0.9014 C   0  0  0  0  0  0  0  0  0  0  0  0
    3.9604   -0.1412    2.0938 C   0  0  0  0  0  0  0  0  0  0  0  0
    4.0746   -0.6114   -0.7655 C   0  0  0  0  0  0  0  0  0  0  0  0
    2.1764    1.9320   -1.3334 C   0  0  0  0  0  0  0  0  0  0  0  0
    2.3529    2.7059   -0.0296 C   0  0  0  0  0  0  0  0  0  0  0  0
    5.2454   -0.5210    1.3564 C   0  0  0  0  0  0  0  0  0  0  0  0
    6.1919   -1.7309   -0.4968 C   0  0  0  0  0  0  0  0  0  0  0  0
   -0.4017   -0.6904   -1.0102 C   0  0  0  0  0  0  0  0  0  0  0  0
   -1.7989   -0.6238   -0.5094 C   0  0  0  0  0  0  0  0  0  0  0  0
   -2.3628    0.6123   -0.2700 C   0  0  0  0  0  0  0  0  0  0  0  0
   -2.4875   -1.8004   -0.2981 C   0  0  0  0  0  0  0  0  0  0  0  0
   -3.6740    0.6745    0.2018 C   0  0  0  0  0  0  0  0  0  0  0  0
   -3.7985   -1.7383    0.1737 C   0  0  0  0  0  0  0  0  0  0  0  0
   -4.3919   -0.5008    0.4234 C   0  0  0  0  0  0  0  0  0  0  0  0
   -4.9421    2.5025   -0.6383 C   0  0  0  0  0  0  0  0  0  0  0  0
   -6.3369   -1.6995    1.0836 C   0  0  0  0  0  0  0  0  0  0  0  0
  1 16  2  0
  2 20  1  0
  2 23  1  0
  3 22  1  0
  3 24  1  0
  4 11  1  0
  4 14  1  0
  4 15  1  0
  5  8  1  0
  5 16  1  0
  6  7  1  0
  6  8  1  0
  6 11  1  0
  7  9  1  0
  7 10  1  0
  8 12  1  0
  9 13  1  0
 10 14  1  0
 12 13  1  0
 16 17  1  0
 17 18  2  0
 17 19  1  0
 18 20  1  0
 19 21  2  0
 20 22  2  0
 21 22  1  0
M  END
>  <PUBCHEM_COMPOUND_CID>  (1) 
42659

>  <PUBCHEM_CONFORMER_RMSD>  (1) 
0.8

>  <PUBCHEM_CONFORMER_DIVERSEORDER>  (1) 
15
26
27
20
45
51
33
28
17
47
1
58
29
21
52
39
56
40
31
16
8
59
50
19
7
54
32
22
60
48
25
5
24
42
12
3
38
57
49
11
2
55
4
46
13
43
35
37
34
23
53
41
36
44
30
18
6
10
14
9

>  <PUBCHEM_MMFF94_PARTIAL_CHARGES>  (1) 
22
1 -0.57
11 0.27
14 0.27
15 0.27
16 0.54
17 0.09
18 -0.15
19 -0.15
2 -0.36
20 0.08
21 -0.15
22 0.08
23 0.28
24 0.28
3 -0.36
4 -0.81
40 0.37
44 0.15
45 0.15
46 0.15
5 -0.73
8 0.3

>  <PUBCHEM_EFFECTIVE_ROTOR_COUNT>  (1) 
6.6

>  <PUBCHEM_PHARMACOPHORE_FEATURES>  (1) 
8
1 1 acceptor
1 2 acceptor
1 3 acceptor
1 4 cation
1 5 donor
6 17 18 19 20 21 22 rings
6 4 6 7 10 11 14 rings
6 6 7 8 9 12 13 rings

>  <PUBCHEM_HEAVY_ATOM_COUNT>  (1) 
24

>  <PUBCHEM_ATOM_DEF_STEREO_COUNT>  (1) 
2

>  <PUBCHEM_ATOM_UDEF_STEREO_COUNT>  (1) 
1

>  <PUBCHEM_BOND_DEF_STEREO_COUNT>  (1) 
0

>  <PUBCHEM_BOND_UDEF_STEREO_COUNT>  (1) 
0

>  <PUBCHEM_ISOTOPIC_ATOM_COUNT>  (1) 
0

>  <PUBCHEM_COMPONENT_COUNT>  (1) 
1

>  <PUBCHEM_CACTVS_TAUTO_COUNT>  (1) 
2

>  <PUBCHEM_CONFORMER_ID>  (1) 
0000A6A30000000F

>  <PUBCHEM_MMFF94_ENERGY>  (1) 
72.7084

>  <PUBCHEM_FEATURE_SELFOVERLAP>  (1) 
40.656

>  <PUBCHEM_SHAPE_FINGERPRINT>  (1) 
10319926 262 18409732854920301243
10366900 7 16443347576471242033
10498660 4 9007060179505284996
10928967 22 16878208823292800666
11140007 195 18272649022535087476
11405975 8 18411418440151628945
11545043 162 18409448072649961161
11991303 11 14781764398139013927
12107183 9 18044086861273334737
12166972 35 18272374191139911872
12236239 1 17676492761102945663
12403259 118 18412261736138728685
12403259 415 17989211442869332109
12507560 40 18412542141135715764
12596602 18 18187081767038012161
12616971 3 17917992810726477751
12633257 1 18187362095485171437
12670546 177 8935010282006553618
128620 24 8574711321206593500
13103583 49 18041272180093621656
13533116 47 17895758529523427121
13583140 156 18187909673956180367
13675066 3 18131067143018645702
14223995 32 18052255090407525569
14251758 9 18341325613352756572
14251764 30 18041558036580916210
14341114 176 18341613732902304506
14420673 8 18337112242146821130
14528608 73 10231751193535347802
14617045 38 8142083170086080269
14790565 3 17834952350122962656
15188451 53 18187639241535741843
15527383 91 18411414021421682556
15537594 2 16153707622265681362
15788980 27 18060414716193052069
16988056 13 11156498626379383931
17349148 13 18060700597938220213
17492 89 18264773344677497935
17844677 252 18409735070807077297
1813 80 17530680996678929308
18222031 100 15574711439061102335
20511986 3 11383837009011902257
20645477 70 14273729698336094667
20871999 31 10809337819870191783
21033648 29 17702645697272990520
21054139 6 10447631488297393068
21065198 48 18113338647787294453
21315764 268 18341889740554946025
21503847 285 18408038529045397560
21521721 280 15936706917187294828
21792934 111 18342181068877100369
21859007 373 18189318101107319181
22950370 63 17822290146335268270
23522609 53 17024616415956087068
23559900 14 18127705846005334927
239999 70 12468642737865721966
2838139 119 14979950363601036906
2871803 45 11674874481610248254
312423 11 17968101966266851669
3411729 13 18264487472535348148
351380 3 17385722478657739858
3680242 22 18201170935370458305
3737641 26 17532640240516520450
465052 167 17894354397071741402
474 4 13686300213997486322
5104073 3 18410012156353799977
57724786 102 16486689285788363720
6328613 192 18412268324798188292
8509985 295 17632858650728700664

>  <PUBCHEM_SHAPE_MULTIPOLES>  (1) 
466.34
14.74
2.49
1.42
5.89
1.29
-0.24
-4.51
-4.77
0.78
0.27
-1.22
-0.11
0.84

>  <PUBCHEM_SHAPE_SELFOVERLAP>  (1) 
976.647

>  <PUBCHEM_SHAPE_VOLUME>  (1) 
262.4

>  <PUBCHEM_COORDINATE_TYPE>  (1) 
2
5
10

$$$$
