42658
     RDKit          3D

 22 24  0  0  1  0  0  0  0  0999 V2000
   -0.9880   -2.2991    0.9776 O   0  0  0  0  0  0  0  0  0  0  0  0
   -5.9924    1.4473   -0.0497 O   0  0  0  0  0  0  0  0  0  0  0  0
    4.7110    0.6611    1.2320 N   0  0  0  0  0  0  0  0  0  0  0  0
    0.0718   -0.4757    0.0433 N   0  0  0  0  0  0  0  0  0  0  0  0
    2.4380    0.1260    0.3720 C   0  0  0  0  0  0  0  0  0  0  0  0
    2.7100    0.9369   -0.9146 C   0  0  0  0  0  0  0  0  0  0  0  0
    1.4153   -1.0082    0.1398 C   0  0  0  0  0  0  0  0  0  0  0  0
    3.0487    0.0342   -2.1120 C   0  0  0  0  0  0  0  0  0  0  0  0
    3.8113    1.9748   -0.6575 C   0  0  0  0  0  0  0  0  0  0  0  0
    3.7504   -0.4216    0.9743 C   0  0  0  0  0  0  0  0  0  0  0  0
    1.7367   -1.8639   -1.0895 C   0  0  0  0  0  0  0  0  0  0  0  0
    1.9741   -1.0233   -2.3413 C   0  0  0  0  0  0  0  0  0  0  0  0
    5.0561    1.3725   -0.0042 C   0  0  0  0  0  0  0  0  0  0  0  0
    5.9164    0.1353    1.8728 C   0  0  0  0  0  0  0  0  0  0  0  0
   -1.0677   -1.1762    0.4803 C   0  0  0  0  0  0  0  0  0  0  0  0
   -2.3584   -0.4887    0.3420 C   0  0  0  0  0  0  0  0  0  0  0  0
   -3.5187   -1.2364    0.2015 C   0  0  0  0  0  0  0  0  0  0  0  0
   -2.3978    0.8983    0.3536 C   0  0  0  0  0  0  0  0  0  0  0  0
   -4.7443   -0.5836    0.0697 C   0  0  0  0  0  0  0  0  0  0  0  0
   -3.6235    1.5514    0.2220 C   0  0  0  0  0  0  0  0  0  0  0  0
   -4.7968    0.8104    0.0801 C   0  0  0  0  0  0  0  0  0  0  0  0
   -7.1522    0.6286   -0.1924 C   0  0  0  0  0  0  0  0  0  0  0  0
  1 15  2  0
  2 21  1  0
  2 22  1  0
  3 10  1  0
  3 13  1  0
  3 14  1  0
  4  7  1  0
  4 15  1  0
  5  6  1  0
  5  7  1  0
  5 10  1  0
  6  8  1  0
  6  9  1  0
  7 11  1  0
  8 12  1  0
  9 13  1  0
 11 12  1  0
 15 16  1  0
 16 17  2  0
 16 18  1  0
 17 19  1  0
 18 20  2  0
 19 21  2  0
 20 21  1  0
M  END
>  <PUBCHEM_COMPOUND_CID>  (1) 
42658

>  <PUBCHEM_CONFORMER_RMSD>  (1) 
0.8

>  <PUBCHEM_CONFORMER_DIVERSEORDER>  (1) 
8
3
14
5
11
7
12
4
13
10
6
9
2
1

>  <PUBCHEM_MMFF94_PARTIAL_CHARGES>  (1) 
21
1 -0.57
10 0.27
13 0.27
14 0.27
15 0.54
16 0.09
17 -0.15
18 -0.15
19 -0.15
2 -0.36
20 -0.15
21 0.08
22 0.28
3 -0.81
38 0.37
4 -0.73
42 0.15
43 0.15
44 0.15
45 0.15
7 0.3

>  <PUBCHEM_EFFECTIVE_ROTOR_COUNT>  (1) 
5.6

>  <PUBCHEM_PHARMACOPHORE_FEATURES>  (1) 
7
1 1 acceptor
1 2 acceptor
1 3 cation
1 4 donor
6 16 17 18 19 20 21 rings
6 3 5 6 9 10 13 rings
6 5 6 7 8 11 12 rings

>  <PUBCHEM_HEAVY_ATOM_COUNT>  (1) 
22

>  <PUBCHEM_ATOM_DEF_STEREO_COUNT>  (1) 
2

>  <PUBCHEM_ATOM_UDEF_STEREO_COUNT>  (1) 
1

>  <PUBCHEM_BOND_DEF_STEREO_COUNT>  (1) 
0

>  <PUBCHEM_BOND_UDEF_STEREO_COUNT>  (1) 
0

>  <PUBCHEM_ISOTOPIC_ATOM_COUNT>  (1) 
0

>  <PUBCHEM_COMPONENT_COUNT>  (1) 
1

>  <PUBCHEM_CACTVS_TAUTO_COUNT>  (1) 
2

>  <PUBCHEM_CONFORMER_ID>  (1) 
0000A6A200000008

>  <PUBCHEM_MMFF94_ENERGY>  (1) 
56.0019

>  <PUBCHEM_FEATURE_SELFOVERLAP>  (1) 
35.577

>  <PUBCHEM_SHAPE_FINGERPRINT>  (1) 
10498660 4 18337966631479564637
11128504 68 13830136100355319128
12107183 9 18113888339519376642
12166972 35 16081089285697436261
12236239 1 17603583058084874563
12596602 18 17022904587846793793
12616971 3 16298390184353729471
12633257 1 18040992968960204148
12730499 353 17274827968904498367
12788726 201 17027713976224321251
128620 24 16486979500474797250
13402501 40 18272646878603336313
13533116 47 16878218663094147371
13685833 64 12829204460406574144
13911987 19 16701460216330829440
13914758 101 15574979686145222287
14211702 104 10738442474702298665
14341114 176 13190343473822931823
14576447 43 11527954460909939536
14617045 38 9439404648696092409
15238133 3 18113623395634462964
15375358 24 18342463659337460726
15527383 91 15719109163286900550
15537594 2 10231753383900532109
17980427 23 18263637519185208756
1813 80 15864346897180163898
18222031 100 10375863048953835555
20281475 54 10231768768161708342
20645477 70 16343430500752416751
20715895 44 18188204287396657125
21065198 48 17750233771899182666
21150785 3 16415471671832546749
21267235 1 9727629540669932697
21304303 94 13542466462312630404
21521239 73 13326585072951284348
21859007 373 16951672594239769831
22149856 69 18191896486750939467
22950370 63 10375878484586307747
23016692 55 9439403549141701721
23402539 116 18337944683975220327
23503953 91 15574723529298952129
23557571 272 18199759192236229895
23559900 14 18269008521860371406
23622692 88 17458340832337035378
3060560 45 16343704348574045460
341906 21 18261683656841646278
345986 75 16806703141554156832
3472631 163 18335988661284448229
34797466 226 17846225466589719685
351380 3 11095884861063340153
3680242 22 18187369804925308417
4072396 5 18343576340015338098
465052 167 8574710217331719289
495365 180 18131354072767742510
5104073 3 17531530995891198601
6328613 192 17822583802208567476
8509985 295 18186516609946069528
8863177 126 10881698904892938457
960060 61 15482673442540210159
9981440 41 18334015012454510611

>  <PUBCHEM_SHAPE_MULTIPOLES>  (1) 
431.05
14.85
1.84
1.53
13.77
0.18
-0.54
-7.25
2.5
0.02
-0.18
-2.72
0.36
0.51

>  <PUBCHEM_SHAPE_SELFOVERLAP>  (1) 
903.144

>  <PUBCHEM_SHAPE_VOLUME>  (1) 
241.8

>  <PUBCHEM_COORDINATE_TYPE>  (1) 
2
5
10

$$$$
