42662
     RDKit          3D

 22 24  0  0  1  0  0  0  0  0999 V2000
    5.8832   -1.0758   -1.2888 Cl  0  0  0  0  0  0  0  0  0  0  0  0
    6.3099    1.0111    1.1478 Cl  0  0  0  0  0  0  0  0  0  0  0  0
    0.6278   -0.8716   -1.7910 O   0  0  0  0  0  0  0  0  0  0  0  0
   -2.9478    1.9572   -0.6271 N   0  0  0  0  0  0  0  0  0  0  0  0
   -0.1656   -0.4100    0.3380 N   0  0  0  0  0  0  0  0  0  0  0  0
   -2.5244    0.0693    0.9576 C   0  0  0  0  0  0  0  0  0  0  0  0
   -3.9896   -0.3939    0.7796 C   0  0  0  0  0  0  0  0  0  0  0  0
   -1.5480   -0.7560    0.0787 C   0  0  0  0  0  0  0  0  0  0  0  0
   -4.1366   -1.9085    0.9650 C   0  0  0  0  0  0  0  0  0  0  0  0
   -4.5532    0.0758   -0.5725 C   0  0  0  0  0  0  0  0  0  0  0  0
   -2.4467    1.5923    0.7053 C   0  0  0  0  0  0  0  0  0  0  0  0
   -1.7342   -2.2625    0.3069 C   0  0  0  0  0  0  0  0  0  0  0  0
   -3.1740   -2.7113    0.0986 C   0  0  0  0  0  0  0  0  0  0  0  0
   -4.3600    1.5801   -0.7705 C   0  0  0  0  0  0  0  0  0  0  0  0
   -2.7768    3.3905   -0.8647 C   0  0  0  0  0  0  0  0  0  0  0  0
    0.8145   -0.5000   -0.6353 C   0  0  0  0  0  0  0  0  0  0  0  0
    2.1881   -0.1342   -0.2034 C   0  0  0  0  0  0  0  0  0  0  0  0
    3.2645   -0.6968   -0.8578 C   0  0  0  0  0  0  0  0  0  0  0  0
    2.3435    0.7556    0.8392 C   0  0  0  0  0  0  0  0  0  0  0  0
    4.5540   -0.3538   -0.4514 C   0  0  0  0  0  0  0  0  0  0  0  0
    3.6330    1.0985    1.2456 C   0  0  0  0  0  0  0  0  0  0  0  0
    4.7382    0.5440    0.6002 C   0  0  0  0  0  0  0  0  0  0  0  0
  1 20  1  0
  2 22  1  0
  3 16  2  0
  4 11  1  0
  4 14  1  0
  4 15  1  0
  5  8  1  0
  5 16  1  0
  6  7  1  0
  6  8  1  0
  6 11  1  0
  7  9  1  0
  7 10  1  0
  8 12  1  0
  9 13  1  0
 10 14  1  0
 12 13  1  0
 16 17  1  0
 17 18  2  0
 17 19  1  0
 18 20  1  0
 19 21  2  0
 20 22  2  0
 21 22  1  0
M  END
>  <PUBCHEM_COMPOUND_CID>  (1) 
42662

>  <PUBCHEM_CONFORMER_RMSD>  (1) 
0.8

>  <PUBCHEM_CONFORMER_DIVERSEORDER>  (1) 
6
14
29
22
1
20
27
16
25
24
23
28
32
12
3
18
9
2
13
31
26
30
4
19
11
17
15
10
8
21
5
7

>  <PUBCHEM_MMFF94_PARTIAL_CHARGES>  (1) 
20
1 -0.18
11 0.27
14 0.27
15 0.27
16 0.54
17 0.09
18 -0.15
19 -0.15
2 -0.18
20 0.18
21 -0.15
22 0.18
3 -0.57
38 0.37
4 -0.81
42 0.15
43 0.15
44 0.15
5 -0.73
8 0.3

>  <PUBCHEM_EFFECTIVE_ROTOR_COUNT>  (1) 
4.6

>  <PUBCHEM_PHARMACOPHORE_FEATURES>  (1) 
6
1 3 acceptor
1 4 cation
1 5 donor
6 17 18 19 20 21 22 rings
6 4 6 7 10 11 14 rings
6 6 7 8 9 12 13 rings

>  <PUBCHEM_HEAVY_ATOM_COUNT>  (1) 
22

>  <PUBCHEM_ATOM_DEF_STEREO_COUNT>  (1) 
2

>  <PUBCHEM_ATOM_UDEF_STEREO_COUNT>  (1) 
1

>  <PUBCHEM_BOND_DEF_STEREO_COUNT>  (1) 
0

>  <PUBCHEM_BOND_UDEF_STEREO_COUNT>  (1) 
0

>  <PUBCHEM_ISOTOPIC_ATOM_COUNT>  (1) 
0

>  <PUBCHEM_COMPONENT_COUNT>  (1) 
1

>  <PUBCHEM_CACTVS_TAUTO_COUNT>  (1) 
2

>  <PUBCHEM_CONFORMER_ID>  (1) 
0000A6A600000006

>  <PUBCHEM_MMFF94_ENERGY>  (1) 
44.8066

>  <PUBCHEM_FEATURE_SELFOVERLAP>  (1) 
30.503

>  <PUBCHEM_SHAPE_FINGERPRINT>  (1) 
10 15 18200863102691109720
10319926 262 18337660946136268786
10646746 165 18410012109182505444
11315181 36 17530962522788961088
11370993 144 17917163701454661251
11545043 162 18410580582749017994
11595378 159 17894904122662128888
12035758 1 18336000726902390577
12107183 9 17682382664514793992
12236239 1 16732985331701045850
12403259 415 18271812293569314368
12507557 5 18342458183280740352
12507560 40 18202004348056995234
12596602 18 16950845911545542232
13402501 40 18272366464752345345
13403585 85 18336822091182607352
13583140 156 18272929423364097670
13675066 3 18202283632653138998
13911987 19 16988562441791275648
14341114 176 18272098222754119850
14573314 32 18409451358489924678
15788980 27 17989489623764427798
15961568 22 18117277180254078100
17349148 13 15482673451235860774
17844677 252 18334581265390229752
18927931 339 18335425698752235631
19489759 90 18187080659036241033
200 152 16271928211863636051
20567600 75 18343308037761561150
20645477 56 18338242570322389561
20645477 70 17203615852865348574
21033648 29 18059844069890559760
21033650 10 17970936413302434780
21065201 7 18409166623601530858
2132832 1 17822857622851761661
21792961 116 18059864931585491668
2297311 6 18335150812165504387
23402539 116 18411414051301999959
23557571 272 18410584985100760047
23559900 14 18342459231685205498
341906 21 18187644678616204740
351380 180 18202281411616885944
3545911 37 18411986849045673091
4214541 1 18411705378543134986
469060 322 18115612429744371603
508706 21 18410568466388092405
5104073 3 18131637768638100178
59755656 215 18339929220727362167
602551 16 18260550047874916434
9981440 41 18114462241718419979

>  <PUBCHEM_SHAPE_MULTIPOLES>  (1) 
440.66
13.42
2.58
1.29
14.84
0.77
-0.12
1.03
0.61
-3.94
-0.35
0.75
0.09
2.49

>  <PUBCHEM_SHAPE_SELFOVERLAP>  (1) 
909.833

>  <PUBCHEM_SHAPE_VOLUME>  (1) 
253.4

>  <PUBCHEM_COORDINATE_TYPE>  (1) 
2
5
10

$$$$
