42664
     RDKit          3D

 14 14  0  0  0  0  0  0  0  0999 V2000
   -1.0120   -2.5289   -0.2009 Cl  0  0  0  0  0  0  0  0  0  0  0  0
    0.3294    0.0378    0.6056 O   0  0  0  0  0  0  0  0  0  0  0  0
    0.6641    0.5392   -1.6326 O   0  0  0  0  0  0  0  0  0  0  0  0
    4.2259   -0.2060    1.1824 O   0  0  0  0  0  0  0  0  0  0  0  0
    2.5090    0.1753   -0.2716 N   0  0  0  0  0  0  0  0  0  0  0  0
    2.9943   -0.1505    1.0968 N   0  0  0  0  0  0  0  0  0  0  0  0
   -1.0141    0.1257    0.3917 C   0  0  0  0  0  0  0  0  0  0  0  0
   -1.7610   -0.9900    0.0140 C   0  0  0  0  0  0  0  0  0  0  0  0
   -1.6408    1.3605    0.5591 C   0  0  0  0  0  0  0  0  0  0  0  0
   -3.1348   -0.8709   -0.1964 C   0  0  0  0  0  0  0  0  0  0  0  0
   -3.0146    1.4797    0.3486 C   0  0  0  0  0  0  0  0  0  0  0  0
   -3.7616    0.3641   -0.0292 C   0  0  0  0  0  0  0  0  0  0  0  0
    1.1408    0.2741   -0.5298 C   0  0  0  0  0  0  0  0  0  0  0  0
    3.4754    0.3899   -1.3376 C   0  0  0  0  0  0  0  0  0  0  0  0
  1  8  1  0
  2  7  1  0
  2 13  1  0
  3 13  2  0
  4  6  2  0
  5  6  1  0
  5 13  1  0
  5 14  1  0
  7  8  2  0
  7  9  1  0
  8 10  1  0
  9 11  2  0
 10 12  2  0
 11 12  1  0
M  END
>  <PUBCHEM_COMPOUND_CID>  (1) 
42664

>  <PUBCHEM_CONFORMER_RMSD>  (1) 
0.6

>  <PUBCHEM_CONFORMER_DIVERSEORDER>  (1) 
1
26
46
51
49
55
56
64
58
59
31
70
40
61
39
2
34
67
66
44
32
57
14
62
27
47
4
22
43
48
19
69
10
5
52
25
37
72
68
33
42
36
7
65
17
60
13
53
54
71
8
20
18
50
29
12
41
24
3
63
28
21
6
45
23
9
38
16
30
15
35
11

>  <PUBCHEM_MMFF94_PARTIAL_CHARGES>  (1) 
18
1 -0.18
10 -0.15
11 -0.15
12 -0.15
13 0.78
14 0.3
15 0.15
16 0.15
17 0.15
18 0.15
2 -0.23
3 -0.57
4 -0.16
5 -0.18
6 -0.02
7 0.08
8 0.18
9 -0.15

>  <PUBCHEM_EFFECTIVE_ROTOR_COUNT>  (1) 
4

>  <PUBCHEM_PHARMACOPHORE_FEATURES>  (1) 
2
1 3 acceptor
6 7 8 9 10 11 12 rings

>  <PUBCHEM_HEAVY_ATOM_COUNT>  (1) 
14

>  <PUBCHEM_ATOM_DEF_STEREO_COUNT>  (1) 
0

>  <PUBCHEM_ATOM_UDEF_STEREO_COUNT>  (1) 
0

>  <PUBCHEM_BOND_DEF_STEREO_COUNT>  (1) 
0

>  <PUBCHEM_BOND_UDEF_STEREO_COUNT>  (1) 
0

>  <PUBCHEM_ISOTOPIC_ATOM_COUNT>  (1) 
0

>  <PUBCHEM_COMPONENT_COUNT>  (1) 
1

>  <PUBCHEM_CACTVS_TAUTO_COUNT>  (1) 
1

>  <PUBCHEM_CONFORMER_ID>  (1) 
0000A6A800000001

>  <PUBCHEM_MMFF94_ENERGY>  (1) 
37.6036

>  <PUBCHEM_FEATURE_SELFOVERLAP>  (1) 
10.148

>  <PUBCHEM_SHAPE_FINGERPRINT>  (1) 
12500047 106 18343585135797331726
12716758 59 18201447964654947355
12932764 1 17967817179938979420
13024252 1 12901544680862597591
13296908 3 17275392001284370268
13581323 91 18411706503898361047
14144814 61 18259990378822750628
14614273 12 18264488395678653085
14993402 34 18187369839247629877
15207287 21 17703785950966051239
15219456 202 16988565684174891121
15669948 3 18338240486788757334
15775835 57 18041007240851770293
15852999 172 18131079203197363263
16945 1 18342464767771299999
18175812 5 17132119043378943532
18186145 218 17632305522985767905
19422 9 17676772045198033410
20201158 50 17346326985481645807
20279233 1 17489870444764864614
20645464 45 17775564251954758451
20645476 183 17968388951718478735
20645477 70 16081080476967327986
23402539 116 18201424892480926229
23557571 272 17774458147684207845
23559900 14 18131641058556232916
23598291 2 17894912961952971150
2748010 2 18197233459614004407
305870 269 18264494975267681639
43471831 8 18410575037888658259
474 4 17170690053448185948
5706482 22 18410854339701126747
57812782 119 17775566433471246356
6992083 37 18040154024139219351
7364860 26 17841716205747293775
77492 1 17968097533696883153

>  <PUBCHEM_SHAPE_MULTIPOLES>  (1) 
262.41
6.74
1.64
1.12
4.46
0.97
0.16
-1.01
-0.55
-1.51
-0.04
1.21
-0.11
-0.4

>  <PUBCHEM_SHAPE_SELFOVERLAP>  (1) 
529.547

>  <PUBCHEM_SHAPE_VOLUME>  (1) 
153.4

>  <PUBCHEM_COORDINATE_TYPE>  (1) 
2
5
10

$$$$
