42675
     RDKit          3D

 21 21  0  0  1  0  0  0  0  0999 V2000
    4.8317   -2.2306   -0.7663 O   0  0  0  0  0  0  0  0  0  0  0  0
    6.6312   -0.7886    0.9546 O   0  0  0  0  0  0  0  0  0  0  0  0
   -0.8897    2.2598   -1.5131 O   0  0  0  0  0  0  0  0  0  0  0  0
   -3.6036    2.3710    0.1760 O   0  0  0  0  0  0  0  0  0  0  0  0
    2.7318    0.7351    0.2550 C   0  0  0  0  0  0  0  0  0  0  0  0
    3.1744   -0.5001   -0.5375 C   0  0  0  0  0  0  0  0  0  0  0  0
    3.8896    1.7323    0.3958 C   0  0  0  0  0  0  0  0  0  0  0  0
    4.4098   -1.1596    0.0767 C   0  0  0  0  0  0  0  0  0  0  0  0
    5.5584   -0.1630    0.2524 C   0  0  0  0  0  0  0  0  0  0  0  0
    5.1166    1.0793    1.0236 C   0  0  0  0  0  0  0  0  0  0  0  0
    1.5266    1.3988   -0.4087 C   0  0  0  0  0  0  0  0  0  0  0  0
    0.2458    0.6064   -0.1634 C   0  0  0  0  0  0  0  0  0  0  0  0
   -0.9628    1.2306   -0.8422 C   0  0  0  0  0  0  0  0  0  0  0  0
   -2.2950    0.5325   -0.6333 C   0  0  0  0  0  0  0  0  0  0  0  0
   -3.0341    1.1219    0.5663 C   0  0  0  0  0  0  0  0  0  0  0  0
    4.0457   -3.3933   -0.5561 C   0  0  0  0  0  0  0  0  0  0  0  0
   -4.1367    0.1974    1.1013 C   0  0  0  0  0  0  0  0  0  0  0  0
   -5.2225   -0.1425    0.0735 C   0  0  0  0  0  0  0  0  0  0  0  0
   -6.2749   -1.0796    0.6710 C   0  0  0  0  0  0  0  0  0  0  0  0
   -7.3384   -1.4517   -0.3620 C   0  0  0  0  0  0  0  0  0  0  0  0
   -8.4040   -2.3560    0.2364 C   0  0  0  0  0  0  0  0  0  0  0  0
  1  8  1  0
  1 16  1  0
  2  9  1  0
  3 13  2  0
  4 15  1  0
  5  6  1  0
  5  7  1  0
  5 11  1  0
  6  8  1  0
  7 10  1  0
  8  9  1  0
  9 10  1  0
 11 12  1  0
 12 13  1  0
 13 14  1  0
 14 15  1  0
 15 17  1  0
 17 18  1  0
 18 19  1  0
 19 20  1  0
 20 21  1  0
M  END
>  <PUBCHEM_COMPOUND_CID>  (1) 
42675

>  <PUBCHEM_CONFORMER_RMSD>  (1) 
1.4

>  <PUBCHEM_CONFORMER_DIVERSEORDER>  (1) 
1
13
46
38
74
3
25
50
15
19
23
40
70
2
43
5
42
56
77
65
21
9
20
10
48
63
52
67
66
26
68
55
72
71
12
79
39
4
8
53
24
60
7
29
51
6
30
37
28
49
27
32
61
47
14
11
22
64
80
41
59
18
33
73
31
34
75
44
54
62
76
78
45
57
35
69
16
58
36
17

>  <PUBCHEM_MMFF94_PARTIAL_CHARGES>  (1) 
13
1 -0.56
12 0.06
13 0.45
14 0.06
15 0.28
16 0.28
2 -0.68
3 -0.57
35 0.4
4 -0.68
50 0.4
8 0.28
9 0.28

>  <PUBCHEM_EFFECTIVE_ROTOR_COUNT>  (1) 
11.2

>  <PUBCHEM_PHARMACOPHORE_FEATURES>  (1) 
9
1 1 acceptor
1 2 acceptor
1 2 donor
1 21 hydrophobe
1 3 acceptor
1 4 acceptor
1 4 donor
4 17 18 19 20 hydrophobe
6 5 6 7 8 9 10 rings

>  <PUBCHEM_HEAVY_ATOM_COUNT>  (1) 
21

>  <PUBCHEM_ATOM_DEF_STEREO_COUNT>  (1) 
0

>  <PUBCHEM_ATOM_UDEF_STEREO_COUNT>  (1) 
4

>  <PUBCHEM_BOND_DEF_STEREO_COUNT>  (1) 
0

>  <PUBCHEM_BOND_UDEF_STEREO_COUNT>  (1) 
0

>  <PUBCHEM_ISOTOPIC_ATOM_COUNT>  (1) 
0

>  <PUBCHEM_COMPONENT_COUNT>  (1) 
1

>  <PUBCHEM_CACTVS_TAUTO_COUNT>  (1) 
3

>  <PUBCHEM_CONFORMER_ID>  (1) 
0000A6B300000001

>  <PUBCHEM_MMFF94_ENERGY>  (1) 
29.3268

>  <PUBCHEM_FEATURE_SELFOVERLAP>  (1) 
45.674

>  <PUBCHEM_SHAPE_FINGERPRINT>  (1) 
10 15 15698002959507495905
10066227 112 8646775491382971839
10316853 100 18409172112628237706
106641 1 18131067186015960496
12596602 18 17703794686797558867
12623949 98 18272380724070097070
13073987 5 18059575754440436248
13533116 47 18342740749521730009
13668630 136 17968093170980950779
14211702 104 18337964471412182195
14216079 64 18334857225871720371
14251740 57 18339932519705155982
14251752 14 14707197843267763841
14251764 18 17775286105751833863
14598715 104 13254531808372448667
15183329 4 12901536945510511543
15188451 53 18334292085041736633
15510800 12 18041854999188578203
15690457 1 18342453803432365607
1768 124 18341613750193593039
1813 80 17603873282031715604
18222031 100 17603589642365113533
20028762 73 18412265055916833607
20281389 69 11383845852824240355
20526848 3 10159707897844429411
20621476 66 11383832688348571153
21197605 99 18342459265866291014
21424621 283 11023834976707687853
21623969 137 18412262814148977226
23198884 109 11602534326274754465
25122255 55 18113911498067659811
2838139 119 9295293803084887043
2916195 48 10591755472719115045
29717793 49 17748829635389497533
3014063 24 18411138061177867815
312425 54 18271255915285011225
3663271 9 17846505824626721531
5104073 3 17988364750001412977
5718773 13 18114738240327452722
59755656 215 17603581928661846603
8863177 126 18338803286940796526
9689198 14 9511191763648579743

>  <PUBCHEM_SHAPE_MULTIPOLES>  (1) 
408.69
21.22
2.8
1.01
28.29
1.73
-0.04
15.75
4.55
-0.99
-0.6
-0.09
-0.21
1.03

>  <PUBCHEM_SHAPE_SELFOVERLAP>  (1) 
786.707

>  <PUBCHEM_SHAPE_VOLUME>  (1) 
248

>  <PUBCHEM_COORDINATE_TYPE>  (1) 
2
5
10

$$$$
