42678
     RDKit          3D

 14 15  0  0  1  0  0  0  0  0999 V2000
   -0.0323    2.3569    0.5357 O   0  0  0  0  0  0  0  0  0  0  0  0
   -2.4528    0.0937    0.0551 N   0  0  0  0  0  0  0  0  0  0  0  0
   -0.0207   -0.0700   -0.0324 C   0  0  0  0  0  0  0  0  0  0  0  0
    1.2951   -0.1391   -0.8712 C   0  0  0  0  0  0  0  0  0  0  0  0
    2.1530   -0.3189    0.4069 C   0  0  0  0  0  0  0  0  0  0  0  0
    0.2609    1.0545    1.0122 C   0  0  0  0  0  0  0  0  0  0  0  0
    0.0282   -1.3979    0.7779 C   0  0  0  0  0  0  0  0  0  0  0  0
    1.7728    0.9066    1.2720 C   0  0  0  0  0  0  0  0  0  0  0  0
    1.5268   -1.5559    1.0891 C   0  0  0  0  0  0  0  0  0  0  0  0
   -1.3111    0.0937   -0.8140 C   0  0  0  0  0  0  0  0  0  0  0  0
    1.4069   -1.3058   -1.8715 C   0  0  0  0  0  0  0  0  0  0  0  0
    1.6267    1.1347   -1.6780 C   0  0  0  0  0  0  0  0  0  0  0  0
   -2.5526   -1.1643    0.8134 C   0  0  0  0  0  0  0  0  0  0  0  0
   -3.7009    0.3117   -0.6950 C   0  0  0  0  0  0  0  0  0  0  0  0
  1  6  1  0
  2 10  1  0
  2 13  1  0
  2 14  1  0
  3  4  1  0
  3  6  1  0
  3  7  1  0
  3 10  1  0
  4  5  1  0
  4 11  1  0
  4 12  1  0
  5  8  1  0
  5  9  1  0
  6  8  1  0
  7  9  1  0
M  END
>  <PUBCHEM_COMPOUND_CID>  (1) 
42678

>  <PUBCHEM_CONFORMER_RMSD>  (1) 
0.6

>  <PUBCHEM_CONFORMER_DIVERSEORDER>  (1) 
2
1
3
5
4

>  <PUBCHEM_MMFF94_PARTIAL_CHARGES>  (1) 
7
1 -0.68
10 0.27
13 0.27
14 0.27
2 -0.81
31 0.4
6 0.28

>  <PUBCHEM_EFFECTIVE_ROTOR_COUNT>  (1) 
3

>  <PUBCHEM_PHARMACOPHORE_FEATURES>  (1) 
5
1 1 acceptor
1 1 donor
1 2 cation
3 4 11 12 hydrophobe
7 3 4 5 6 7 8 9 rings

>  <PUBCHEM_HEAVY_ATOM_COUNT>  (1) 
14

>  <PUBCHEM_ATOM_DEF_STEREO_COUNT>  (1) 
0

>  <PUBCHEM_ATOM_UDEF_STEREO_COUNT>  (1) 
3

>  <PUBCHEM_BOND_DEF_STEREO_COUNT>  (1) 
0

>  <PUBCHEM_BOND_UDEF_STEREO_COUNT>  (1) 
0

>  <PUBCHEM_ISOTOPIC_ATOM_COUNT>  (1) 
0

>  <PUBCHEM_COMPONENT_COUNT>  (1) 
1

>  <PUBCHEM_CACTVS_TAUTO_COUNT>  (1) 
1

>  <PUBCHEM_CONFORMER_ID>  (1) 
0000A6B600000002

>  <PUBCHEM_MMFF94_ENERGY>  (1) 
84.9145

>  <PUBCHEM_FEATURE_SELFOVERLAP>  (1) 
25.371

>  <PUBCHEM_SHAPE_FINGERPRINT>  (1) 
10219947 1 17561072627172224674
12326174 3 18131346431762122098
12423570 1 17130685228919146682
12725867 57 18187914032999800108
13024252 1 11613005761105694994
14128692 85 17822011947880787794
14344429 50 18412818097221674377
14817 1 14807805291333279828
16945 1 18195782172852714162
20711985 344 17912378523665999801
21524375 3 17335891765457256505
23419403 2 16888859663587101258
23559900 14 18409738387492189276
2748010 2 17699568348599260777
5084963 1 17894908520835324827
528886 8 17458063754895035350
5337951 7 18056499436906822643
68250623 7 17483093227053494954

>  <PUBCHEM_SHAPE_MULTIPOLES>  (1) 
277.26
3.79
1.71
1.61
4.27
0
0.45
-0.05
0.47
-0.33
-0.31
-0.92
0.24
0.1

>  <PUBCHEM_SHAPE_SELFOVERLAP>  (1) 
577.454

>  <PUBCHEM_SHAPE_VOLUME>  (1) 
165.3

>  <PUBCHEM_COORDINATE_TYPE>  (1) 
2
5
10

$$$$
