42671
     RDKit          3D

 20 22  0  0  0  0  0  0  0  0999 V2000
   -2.1752   -2.9256   -0.0004 Cl  0  0  0  0  0  0  0  0  0  0  0  0
    2.4974   -2.8839   -0.0006 Cl  0  0  0  0  0  0  0  0  0  0  0  0
    2.5069    3.3743    0.0008 Cl  0  0  0  0  0  0  0  0  0  0  0  0
   -4.9440   -1.3736    0.0017 Cl  0  0  0  0  0  0  0  0  0  0  0  0
   -4.9172    1.8181   -0.0003 Cl  0  0  0  0  0  0  0  0  0  0  0  0
    5.2480   -1.2241    0.0020 Cl  0  0  0  0  0  0  0  0  0  0  0  0
    0.1396   -1.1972   -0.0005 O   0  0  0  0  0  0  0  0  0  0  0  0
    0.1151    1.6565   -0.0004 O   0  0  0  0  0  0  0  0  0  0  0  0
   -1.0282   -0.4773   -0.0003 C   0  0  0  0  0  0  0  0  0  0  0  0
   -1.0402    0.9166   -0.0002 C   0  0  0  0  0  0  0  0  0  0  0  0
    1.2950   -0.4574   -0.0003 C   0  0  0  0  0  0  0  0  0  0  0  0
    1.2830    0.9367   -0.0004 C   0  0  0  0  0  0  0  0  0  0  0  0
   -2.2273   -1.1891   -0.0002 C   0  0  0  0  0  0  0  0  0  0  0  0
   -2.2512    1.6076    0.0001 C   0  0  0  0  0  0  0  0  0  0  0  0
    2.5062   -1.1484   -0.0003 C   0  0  0  0  0  0  0  0  0  0  0  0
    2.4822    1.6484   -0.0004 C   0  0  0  0  0  0  0  0  0  0  0  0
   -3.4398   -0.4991    0.0000 C   0  0  0  0  0  0  0  0  0  0  0  0
   -3.4518    0.8969    0.0002 C   0  0  0  0  0  0  0  0  0  0  0  0
    3.7068   -0.4376   -0.0002 C   0  0  0  0  0  0  0  0  0  0  0  0
    3.6947    0.9583   -0.0003 C   0  0  0  0  0  0  0  0  0  0  0  0
  1 13  1  0
  2 15  1  0
  3 16  1  0
  4 17  1  0
  5 18  1  0
  6 19  1  0
  7  9  1  0
  7 11  1  0
  8 10  1  0
  8 12  1  0
  9 10  2  0
  9 13  1  0
 10 14  1  0
 11 12  2  0
 11 15  1  0
 12 16  1  0
 13 17  2  0
 14 18  2  0
 15 19  2  0
 16 20  2  0
 17 18  1  0
 19 20  1  0
M  END
>  <PUBCHEM_COMPOUND_CID>  (1) 
42671

>  <PUBCHEM_CONFORMER_RMSD>  (1) 
0.6

>  <PUBCHEM_CONFORMER_DIVERSEORDER>  (1) 
1

>  <PUBCHEM_MMFF94_PARTIAL_CHARGES>  (1) 
22
1 -0.18
10 0.08
11 0.08
12 0.08
13 0.18
14 -0.15
15 0.18
16 0.18
17 0.18
18 0.18
19 0.18
2 -0.18
20 -0.15
21 0.15
22 0.15
3 -0.18
4 -0.18
5 -0.18
6 -0.18
7 -0.17
8 -0.17
9 0.08

>  <PUBCHEM_EFFECTIVE_ROTOR_COUNT>  (1) 
0.4

>  <PUBCHEM_PHARMACOPHORE_FEATURES>  (1) 
5
1 7 acceptor
1 8 acceptor
6 11 12 15 16 19 20 rings
6 7 8 9 10 11 12 rings
6 9 10 13 14 17 18 rings

>  <PUBCHEM_HEAVY_ATOM_COUNT>  (1) 
20

>  <PUBCHEM_ATOM_DEF_STEREO_COUNT>  (1) 
0

>  <PUBCHEM_ATOM_UDEF_STEREO_COUNT>  (1) 
0

>  <PUBCHEM_BOND_DEF_STEREO_COUNT>  (1) 
0

>  <PUBCHEM_BOND_UDEF_STEREO_COUNT>  (1) 
0

>  <PUBCHEM_ISOTOPIC_ATOM_COUNT>  (1) 
0

>  <PUBCHEM_COMPONENT_COUNT>  (1) 
1

>  <PUBCHEM_CACTVS_TAUTO_COUNT>  (1) 
1

>  <PUBCHEM_CONFORMER_ID>  (1) 
0000A6AF00000001

>  <PUBCHEM_MMFF94_ENERGY>  (1) 
55.4658

>  <PUBCHEM_FEATURE_SELFOVERLAP>  (1) 
25.449

>  <PUBCHEM_SHAPE_FINGERPRINT>  (1) 
10608611 8 18410008874961751501
10616163 171 18339926033793108599
10967382 1 18338517422048215974
11471102 20 18410571795129723356
11578080 2 17201904041492787547
12403259 226 18408598158588666164
12553582 1 18337662006645004610
13140716 1 18339356465664044128
14178342 30 18339062891674569146
14790565 3 17979080375090843985
14866123 147 17117767942972694130
15099037 51 18338797814745863757
15196674 1 18410573998052365669
15442244 35 18339643313306984920
15536298 74 18341894121273563440
16945 1 18410575072010441508
17492 89 18265614471188992562
17804303 29 18410578374692618700
18186145 218 17749382676489181373
18681886 176 18342451565437614154
19591789 44 18339080509330054831
200 152 18131066034769286179
20510252 161 18343868818745948385
20645477 70 18335978769847917790
21065198 57 18410575119033373305
21267235 1 18410582794224781995
21421861 104 17751915827163662194
21501502 16 18338797921924854229
21709351 56 18411975858213592789
221490 88 18264776622069406066
2255824 54 18335986462757038540
2334 1 18122626325522724416
23366157 5 18041839648954213100
23402539 116 18343013368265339943
23558518 356 18043252546537825419
23559900 14 18413101762795385896
2748010 2 18120659290736135164
2871803 45 18334570278378641895
3004659 81 18187933820906117486
335352 9 18338516343937591580
34934 24 18338793421152919642
350125 39 18410015450503914693
3545911 37 18410856512685423085
4214541 1 18410573976946625413
474 4 17532093984742230116
5104073 3 18410575101964495697
559249 180 18336541625344122914
58051976 100 18409167692974177079
633830 44 17240484740506860976
69090 78 18410852144888214943
7364860 26 18340205288767404392
77779 3 18410576210229535465
7832392 63 18411415107504953056
8809292 202 18334016128808071986
9709674 26 18411423924967855991
9981440 41 17543627986572644424

>  <PUBCHEM_SHAPE_MULTIPOLES>  (1) 
411.07
9.68
3.3
0.62
2.23
0.17
0
-0.76
0
-0.84
0
0
-0.01
0

>  <PUBCHEM_SHAPE_SELFOVERLAP>  (1) 
860.518

>  <PUBCHEM_SHAPE_VOLUME>  (1) 
237.5

>  <PUBCHEM_COORDINATE_TYPE>  (1) 
2
5
10

$$$$
