42688
     RDKit          3D

 17 17  0  0  0  0  0  0  0  0999 V2000
    0.8189    3.4687   -0.0641 Br  0  0  0  0  0  0  0  0  0  0  0  0
    2.9141   -1.3745   -3.3704 Cl  0  0  0  0  0  0  0  0  0  0  0  0
    3.1924   -1.2594    3.2846 Cl  0  0  0  0  0  0  0  0  0  0  0  0
   -4.3240   -0.9301    0.0726 O   0  0  0  0  0  0  0  0  0  0  0  0
   -2.6941   -2.5142    0.0905 O   0  0  0  0  0  0  0  0  0  0  0  0
    1.5473    0.3960   -0.0095 N   0  0  0  0  0  0  0  0  0  0  0  0
    2.2549    0.2334   -1.2622 C   0  0  0  0  0  0  0  0  0  0  0  0
    2.2787    0.3007    1.2365 C   0  0  0  0  0  0  0  0  0  0  0  0
    0.1586    0.6586   -0.0033 C   0  0  0  0  0  0  0  0  0  0  0  0
   -0.7238   -0.4213    0.0273 C   0  0  0  0  0  0  0  0  0  0  0  0
   -0.3361    1.9627   -0.0272 C   0  0  0  0  0  0  0  0  0  0  0  0
    2.0562   -1.1659   -1.8232 C   0  0  0  0  0  0  0  0  0  0  0  0
    2.2861   -1.1281    1.7568 C   0  0  0  0  0  0  0  0  0  0  0  0
   -2.1006   -0.1972    0.0342 C   0  0  0  0  0  0  0  0  0  0  0  0
   -1.7129    2.1868   -0.0204 C   0  0  0  0  0  0  0  0  0  0  0  0
   -2.5951    1.1067    0.0103 C   0  0  0  0  0  0  0  0  0  0  0  0
   -3.0206   -1.3230    0.0675 C   0  0  0  0  0  0  0  0  0  0  0  0
  1 11  1  0
  2 12  1  0
  3 13  1  0
  4 17  1  0
  5 17  2  0
  6  7  1  0
  6  8  1  0
  6  9  1  0
  7 12  1  0
  8 13  1  0
  9 10  2  0
  9 11  1  0
 10 14  1  0
 11 15  2  0
 14 16  2  0
 14 17  1  0
 15 16  1  0
M  END
>  <PUBCHEM_COMPOUND_CID>  (1) 
42688

>  <PUBCHEM_CONFORMER_RMSD>  (1) 
0.8

>  <PUBCHEM_CONFORMER_DIVERSEORDER>  (1) 
1
11
21
16
13
14
18
19
8
7
20
5
15
9
6
17
12
23
22
10
4
2
3

>  <PUBCHEM_MMFF94_PARTIAL_CHARGES>  (1) 
21
1 -0.11
10 -0.15
11 0.11
12 0.29
13 0.29
14 0.09
15 -0.15
16 -0.15
17 0.63
2 -0.29
22 0.15
27 0.15
28 0.15
29 0.5
3 -0.29
4 -0.65
5 -0.57
6 -0.84
7 0.37
8 0.37
9 0.1

>  <PUBCHEM_EFFECTIVE_ROTOR_COUNT>  (1) 
6

>  <PUBCHEM_PHARMACOPHORE_FEATURES>  (1) 
6
1 1 hydrophobe
1 4 acceptor
1 5 acceptor
1 6 cation
3 4 5 17 anion
6 9 10 11 14 15 16 rings

>  <PUBCHEM_HEAVY_ATOM_COUNT>  (1) 
17

>  <PUBCHEM_ATOM_DEF_STEREO_COUNT>  (1) 
0

>  <PUBCHEM_ATOM_UDEF_STEREO_COUNT>  (1) 
0

>  <PUBCHEM_BOND_DEF_STEREO_COUNT>  (1) 
0

>  <PUBCHEM_BOND_UDEF_STEREO_COUNT>  (1) 
0

>  <PUBCHEM_ISOTOPIC_ATOM_COUNT>  (1) 
0

>  <PUBCHEM_COMPONENT_COUNT>  (1) 
1

>  <PUBCHEM_CACTVS_TAUTO_COUNT>  (1) 
1

>  <PUBCHEM_CONFORMER_ID>  (1) 
0000A6C000000001

>  <PUBCHEM_MMFF94_ENERGY>  (1) 
59.2741

>  <PUBCHEM_FEATURE_SELFOVERLAP>  (1) 
30.503

>  <PUBCHEM_SHAPE_FINGERPRINT>  (1) 
11582403 64 16255815758312636960
12202030 40 17703519787299597070
12553582 1 18408605881308700803
13083527 12 17906700916287331505
14022347 108 18336564762786237355
14252887 29 18127707112941390043
14817 1 13053741257706393436
15295992 7 16199321863060908657
15342816 4 18117836823055787783
15375462 175 17833845875481975780
15375462 189 18114461266370453539
16945 1 18410293562943316649
19765921 60 17315671506320383276
20600515 1 18122888863815424464
20645476 183 17169857508191306901
20645477 70 18052820544663750199
21452121 71 18040702684805077456
21524375 3 17258775344089696161
21650355 55 18046877451733311560
22112679 90 18115028485210422672
22802520 49 17915474804218076908
232386 152 18261099751700732762
23419403 2 17550612999175785345
23557571 272 18272653394342601624
23559900 14 18272657817926775868
23598291 2 17241900778212492677
23598294 1 18120115908474574377
266924 78 15865222090480102834
2748010 2 18130788897852119141
4175511 335 17241038941690852678
5902787 121 18336820996023917209
68419 9 17753061496709866100
6992083 37 17100573870273668152
7364860 26 18056491779033329629
81228 2 18128816331222090049

>  <PUBCHEM_SHAPE_MULTIPOLES>  (1) 
342.81
5.72
2.97
2.64
2.51
2.31
0.18
-3.84
-0.66
1.14
0.2
-5.59
-2.06
0.23

>  <PUBCHEM_SHAPE_SELFOVERLAP>  (1) 
666.177

>  <PUBCHEM_SHAPE_VOLUME>  (1) 
214

>  <PUBCHEM_COORDINATE_TYPE>  (1) 
2
5
10

$$$$
