42684
     RDKit          3D

 14 16  0  0  1  0  0  0  0  0999 V2000
    3.0138   -1.3499    0.0369 O   0  0  0  0  0  0  0  0  0  0  0  0
    3.1967    1.0511   -0.0419 O   0  0  0  0  0  0  0  0  0  0  0  0
   -2.9417    1.0029    0.3541 N   0  0  0  0  0  0  0  0  0  0  0  0
   -3.0747   -0.2826   -0.3430 C   0  0  0  0  0  0  0  0  0  0  0  0
   -1.9409   -1.2328    0.0750 C   0  0  0  0  0  0  0  0  0  0  0  0
   -0.5822   -0.5784    0.0153 C   0  0  0  0  0  0  0  0  0  0  0  0
   -0.4754    0.8351   -0.0096 C   0  0  0  0  0  0  0  0  0  0  0  0
   -1.7169    1.6919   -0.0678 C   0  0  0  0  0  0  0  0  0  0  0  0
    0.5737   -1.3737    0.0434 C   0  0  0  0  0  0  0  0  0  0  0  0
   -4.4364   -0.8914   -0.0159 C   0  0  0  0  0  0  0  0  0  0  0  0
    0.7883    1.4448   -0.0416 C   0  0  0  0  0  0  0  0  0  0  0  0
    1.7978   -0.7386    0.0208 C   0  0  0  0  0  0  0  0  0  0  0  0
    1.9022    0.6312   -0.0221 C   0  0  0  0  0  0  0  0  0  0  0  0
    3.8957   -0.2096   -0.0036 C   0  0  0  0  0  0  0  0  0  0  0  0
  1 12  1  0
  1 14  1  0
  2 13  1  0
  2 14  1  0
  3  4  1  0
  3  8  1  0
  4  5  1  0
  4 10  1  0
  5  6  1  0
  6  7  2  0
  6  9  1  0
  7  8  1  0
  7 11  1  0
  9 12  2  0
 11 13  2  0
 12 13  1  0
M  END
>  <PUBCHEM_COMPOUND_CID>  (1) 
42684

>  <PUBCHEM_CONFORMER_RMSD>  (1) 
0.6

>  <PUBCHEM_CONFORMER_DIVERSEORDER>  (1) 
1

>  <PUBCHEM_MMFF94_PARTIAL_CHARGES>  (1) 
16
1 -0.36
11 -0.15
12 0.08
13 0.08
14 0.56
2 -0.36
20 0.36
21 0.15
25 0.15
3 -0.9
4 0.27
5 0.14
6 -0.14
7 -0.14
8 0.41
9 -0.15

>  <PUBCHEM_EFFECTIVE_ROTOR_COUNT>  (1) 
1.4

>  <PUBCHEM_PHARMACOPHORE_FEATURES>  (1) 
7
1 1 acceptor
1 2 acceptor
1 3 cation
1 3 donor
5 1 2 12 13 14 rings
6 3 4 5 6 7 8 rings
6 6 7 9 11 12 13 rings

>  <PUBCHEM_HEAVY_ATOM_COUNT>  (1) 
14

>  <PUBCHEM_ATOM_DEF_STEREO_COUNT>  (1) 
0

>  <PUBCHEM_ATOM_UDEF_STEREO_COUNT>  (1) 
1

>  <PUBCHEM_BOND_DEF_STEREO_COUNT>  (1) 
0

>  <PUBCHEM_BOND_UDEF_STEREO_COUNT>  (1) 
0

>  <PUBCHEM_ISOTOPIC_ATOM_COUNT>  (1) 
0

>  <PUBCHEM_COMPONENT_COUNT>  (1) 
1

>  <PUBCHEM_CACTVS_TAUTO_COUNT>  (1) 
1

>  <PUBCHEM_CONFORMER_ID>  (1) 
0000A6BC00000001

>  <PUBCHEM_MMFF94_ENERGY>  (1) 
27.8522

>  <PUBCHEM_FEATURE_SELFOVERLAP>  (1) 
35.697

>  <PUBCHEM_SHAPE_FINGERPRINT>  (1) 
10608611 8 18411132524311077240
10967382 1 18338516442663699750
11132069 177 18411975841023212672
11471102 20 18409442613767568415
11543360 7 15575006108040273955
11769659 78 18410288082089923051
11806522 49 18338514244030925367
12032990 46 18411422790980061982
13221675 6 18410854373665161135
13380535 76 18409730672697463874
13690532 89 18408039610923429907
14115302 16 17822019751915408023
14144814 61 18410573967982144563
14325111 11 18411138013210475880
14576447 43 18056465382512442991
15196674 1 18410855438663894317
15442244 35 18194682562340599882
15536298 74 18343301474777056840
15775835 57 18411987935693433081
16945 1 18337397126946996656
17802600 8 18411130346646314849
17844478 74 18041002834442047813
18186145 218 18041277681893921638
18522853 276 18413387644234319457
19422 9 18412830157268249961
200 152 18202272616125166151
20201158 50 18409167718485784155
20510252 161 18273215270427631345
20645477 70 18411413982377035343
21267235 1 18410865360070399358
21501502 16 18338518534323354960
21501925 9 18409438181387718730
221490 88 17903075874159963419
23402539 116 18271516568360633791
23402655 69 18412536596860288677
23463225 33 18408603630539842862
23559900 14 18270113497282217618
2748010 2 18338796697980507348
2871803 45 18334288765047815063
5104073 3 18411418384338206049
528886 8 18410569617196214970
53655031 270 18411419514188878131
53812653 166 18272082855334916968
57096353 35 18410293652646623796
69090 78 18272365399542264767
7364860 26 18269273641659679600
8809292 202 18187650262094951275
9709674 26 18411424994319825622

>  <PUBCHEM_SHAPE_MULTIPOLES>  (1) 
271.39
6.64
1.67
0.61
1.17
0.24
0.01
-1.22
0.06
0.15
-0.02
0.07
0
-0.08

>  <PUBCHEM_SHAPE_SELFOVERLAP>  (1) 
593.541

>  <PUBCHEM_SHAPE_VOLUME>  (1) 
146.3

>  <PUBCHEM_COORDINATE_TYPE>  (1) 
2
5
10

$$$$
