42693
     RDKit          3D

 23 26  0  0  0  0  0  0  0  0999 V2000
   -3.5649    1.8963   -0.0965 O   0  0  0  0  0  0  0  0  0  0  0  0
    2.6745    2.6507    0.8123 O   0  0  0  0  0  0  0  0  0  0  0  0
   -1.8535   -1.7565   -0.1766 N   0  0  0  0  0  0  0  0  0  0  0  0
    0.5840   -0.5518   -0.5196 N   0  0  0  0  0  0  0  0  0  0  0  0
   -2.6040   -2.9182   -0.6523 C   0  0  0  0  0  0  0  0  0  0  0  0
   -2.0490   -1.7459    1.2729 C   0  0  0  0  0  0  0  0  0  0  0  0
   -2.2712   -3.9846    0.3806 C   0  0  0  0  0  0  0  0  0  0  0  0
   -1.9100   -3.2142    1.6468 C   0  0  0  0  0  0  0  0  0  0  0  0
   -2.2891   -0.5182   -0.8051 C   0  0  0  0  0  0  0  0  0  0  0  0
   -1.5163    0.6662   -0.3130 C   0  0  0  0  0  0  0  0  0  0  0  0
   -0.1240    0.6107   -0.1881 C   0  0  0  0  0  0  0  0  0  0  0  0
    0.5633    1.7436    0.2783 C   0  0  0  0  0  0  0  0  0  0  0  0
   -2.2083    1.8316    0.0214 C   0  0  0  0  0  0  0  0  0  0  0  0
    1.9764   -0.6662   -0.4147 C   0  0  0  0  0  0  0  0  0  0  0  0
   -0.1280    2.9114    0.6133 C   0  0  0  0  0  0  0  0  0  0  0  0
   -1.5157    2.9506    0.4829 C   0  0  0  0  0  0  0  0  0  0  0  0
    2.0426    1.6822    0.4109 C   0  0  0  0  0  0  0  0  0  0  0  0
    2.7385    0.4210    0.0442 C   0  0  0  0  0  0  0  0  0  0  0  0
    2.6295   -1.8540   -0.7610 C   0  0  0  0  0  0  0  0  0  0  0  0
    4.1286    0.3232    0.1550 C   0  0  0  0  0  0  0  0  0  0  0  0
    4.0176   -1.9533   -0.6510 C   0  0  0  0  0  0  0  0  0  0  0  0
    4.7645   -0.8676   -0.1943 C   0  0  0  0  0  0  0  0  0  0  0  0
   -4.0854    2.3429   -1.3464 C   0  0  0  0  0  0  0  0  0  0  0  0
  1 13  1  0
  1 23  1  0
  2 17  2  0
  3  5  1  0
  3  6  1  0
  3  9  1  0
  4 11  1  0
  4 14  1  0
  5  7  1  0
  6  8  1  0
  7  8  1  0
  9 10  1  0
 10 11  2  0
 10 13  1  0
 11 12  1  0
 12 15  2  0
 12 17  1  0
 13 16  2  0
 14 18  2  0
 14 19  1  0
 15 16  1  0
 17 18  1  0
 18 20  1  0
 19 21  2  0
 20 22  2  0
 21 22  1  0
M  END
>  <PUBCHEM_COMPOUND_CID>  (1) 
42693

>  <PUBCHEM_CONFORMER_RMSD>  (1) 
0.6

>  <PUBCHEM_CONFORMER_DIVERSEORDER>  (1) 
2
3
4
1
7
6
5
8

>  <PUBCHEM_MMFF94_PARTIAL_CHARGES>  (1) 
28
1 -0.36
10 -0.14
11 0.1
12 0.09
13 0.08
14 0.1
15 -0.15
16 -0.15
17 0.4
18 0.09
19 -0.15
2 -0.57
20 -0.15
21 -0.15
22 -0.15
23 0.28
3 -0.81
34 0.4
35 0.15
36 0.15
37 0.15
38 0.15
39 0.15
4 -0.6
40 0.15
5 0.27
6 0.27
9 0.41

>  <PUBCHEM_EFFECTIVE_ROTOR_COUNT>  (1) 
4

>  <PUBCHEM_PHARMACOPHORE_FEATURES>  (1) 
9
1 1 acceptor
1 2 acceptor
1 3 cation
1 4 cation
1 4 donor
5 3 5 6 7 8 rings
6 10 11 12 13 15 16 rings
6 14 18 19 20 21 22 rings
6 4 11 12 14 17 18 rings

>  <PUBCHEM_HEAVY_ATOM_COUNT>  (1) 
23

>  <PUBCHEM_ATOM_DEF_STEREO_COUNT>  (1) 
0

>  <PUBCHEM_ATOM_UDEF_STEREO_COUNT>  (1) 
0

>  <PUBCHEM_BOND_DEF_STEREO_COUNT>  (1) 
0

>  <PUBCHEM_BOND_UDEF_STEREO_COUNT>  (1) 
0

>  <PUBCHEM_ISOTOPIC_ATOM_COUNT>  (1) 
0

>  <PUBCHEM_COMPONENT_COUNT>  (1) 
1

>  <PUBCHEM_CACTVS_TAUTO_COUNT>  (1) 
3

>  <PUBCHEM_CONFORMER_ID>  (1) 
0000A6C500000002

>  <PUBCHEM_MMFF94_ENERGY>  (1) 
83.2838

>  <PUBCHEM_FEATURE_SELFOVERLAP>  (1) 
45.722

>  <PUBCHEM_SHAPE_FINGERPRINT>  (1) 
10616163 171 18413392046902917078
10693767 8 17698134298422867383
10906281 52 17986686886873460468
10967382 1 18126284147400385804
1100329 8 18339640031883464041
11578080 2 16772086250466175627
11582403 64 15238551371375489575
11680986 33 18343014506442742360
12553582 1 18050865590850297374
12788726 201 18334851749245313787
13140716 1 18342460382620578384
138480 1 16465304484275389159
14115302 16 18262529091342696956
14223421 5 18268992153808122904
14790565 3 17981052915972824304
14844126 61 18409724050253838226
15420108 30 15468612574090728320
15422964 175 17832704947737512163
16945 1 18271249317952019472
19591789 44 17835243346139042582
19930381 70 17619350905262822959
20028762 73 18130508540447964311
20739085 24 17182791398771918305
21033648 29 18190729856562426613
21267235 1 18057046805140861356
221490 88 18340772649868107286
22182313 1 18128533963187483236
23184049 29 18337674229773847394
2334 1 18198058282086699796
23558518 356 18115306820708477744
23559900 14 18342730807142418904
2748010 2 18199462336971180268
3084891 72 18194960729939122467
3178227 256 18266470811102079113
3380486 145 18194695975850623857
3383291 50 18122627145593537883
3759504 43 18041564616217086237
5309563 4 17906175405443289482
54173680 148 18411984658828474032
6443956 14 17759522562190092863
81228 2 18188209935262131779
8809292 202 18411702049954036492
9709674 26 18341609334708054820
9981440 41 17339800417440436009

>  <PUBCHEM_SHAPE_MULTIPOLES>  (1) 
451.63
7.3
4.68
1.07
5.6
1.99
-0.13
0.96
1.45
-4.35
-1.06
-0.61
0.34
1.72

>  <PUBCHEM_SHAPE_SELFOVERLAP>  (1) 
996.056

>  <PUBCHEM_SHAPE_VOLUME>  (1) 
243.3

>  <PUBCHEM_COORDINATE_TYPE>  (1) 
2
5
10

$$$$
