42694
     RDKit          3D

 24 27  0  0  0  0  0  0  0  0999 V2000
   -3.1449    2.5761    0.0944 O   0  0  0  0  0  0  0  0  0  0  0  0
    3.1228    2.3471   -0.9002 O   0  0  0  0  0  0  0  0  0  0  0  0
   -1.9997   -1.2943    0.2981 N   0  0  0  0  0  0  0  0  0  0  0  0
    0.5946   -0.4524    0.5736 N   0  0  0  0  0  0  0  0  0  0  0  0
   -2.1870   -1.2504   -1.1589 C   0  0  0  0  0  0  0  0  0  0  0  0
   -2.8787   -2.2967    0.9167 C   0  0  0  0  0  0  0  0  0  0  0  0
   -1.8955   -2.6109   -1.7941 C   0  0  0  0  0  0  0  0  0  0  0  0
   -2.6101   -3.6912    0.3493 C   0  0  0  0  0  0  0  0  0  0  0  0
   -2.7484   -3.7088   -1.1688 C   0  0  0  0  0  0  0  0  0  0  0  0
   -2.2361    0.0248    0.8844 C   0  0  0  0  0  0  0  0  0  0  0  0
   -1.3016    1.0599    0.3390 C   0  0  0  0  0  0  0  0  0  0  0  0
    0.0646    0.7906    0.2037 C   0  0  0  0  0  0  0  0  0  0  0  0
   -1.8154    2.3033   -0.0334 C   0  0  0  0  0  0  0  0  0  0  0  0
    0.9076    1.7894   -0.3112 C   0  0  0  0  0  0  0  0  0  0  0  0
    1.9524   -0.7788    0.4614 C   0  0  0  0  0  0  0  0  0  0  0  0
   -0.9694    3.2874   -0.5441 C   0  0  0  0  0  0  0  0  0  0  0  0
    0.3947    3.0349   -0.6849 C   0  0  0  0  0  0  0  0  0  0  0  0
    2.3589    1.5014   -0.4535 C   0  0  0  0  0  0  0  0  0  0  0  0
    2.8628    0.1642   -0.0439 C   0  0  0  0  0  0  0  0  0  0  0  0
    2.4246   -2.0381    0.8469 C   0  0  0  0  0  0  0  0  0  0  0  0
    4.2209   -0.1453   -0.1618 C   0  0  0  0  0  0  0  0  0  0  0  0
    3.7806   -2.3490    0.7295 C   0  0  0  0  0  0  0  0  0  0  0  0
    4.6756   -1.4050    0.2266 C   0  0  0  0  0  0  0  0  0  0  0  0
   -3.5735    3.1416    1.3311 C   0  0  0  0  0  0  0  0  0  0  0  0
  1 13  1  0
  1 24  1  0
  2 18  2  0
  3  5  1  0
  3  6  1  0
  3 10  1  0
  4 12  1  0
  4 15  1  0
  5  7  1  0
  6  8  1  0
  7  9  1  0
  8  9  1  0
 10 11  1  0
 11 12  2  0
 11 13  1  0
 12 14  1  0
 13 16  2  0
 14 17  2  0
 14 18  1  0
 15 19  2  0
 15 20  1  0
 16 17  1  0
 18 19  1  0
 19 21  1  0
 20 22  2  0
 21 23  2  0
 22 23  1  0
M  END
>  <PUBCHEM_COMPOUND_CID>  (1) 
42694

>  <PUBCHEM_CONFORMER_RMSD>  (1) 
0.8

>  <PUBCHEM_CONFORMER_DIVERSEORDER>  (1) 
1
3
2
4
5
6

>  <PUBCHEM_MMFF94_PARTIAL_CHARGES>  (1) 
28
1 -0.36
10 0.41
11 -0.14
12 0.1
13 0.08
14 0.09
15 0.1
16 -0.15
17 -0.15
18 0.4
19 0.09
2 -0.57
20 -0.15
21 -0.15
22 -0.15
23 -0.15
24 0.28
3 -0.81
37 0.4
38 0.15
39 0.15
4 -0.6
40 0.15
41 0.15
42 0.15
43 0.15
5 0.27
6 0.27

>  <PUBCHEM_EFFECTIVE_ROTOR_COUNT>  (1) 
4.2

>  <PUBCHEM_PHARMACOPHORE_FEATURES>  (1) 
9
1 1 acceptor
1 2 acceptor
1 3 cation
1 4 cation
1 4 donor
6 11 12 13 14 16 17 rings
6 15 19 20 21 22 23 rings
6 3 5 6 7 8 9 rings
6 4 12 14 15 18 19 rings

>  <PUBCHEM_HEAVY_ATOM_COUNT>  (1) 
24

>  <PUBCHEM_ATOM_DEF_STEREO_COUNT>  (1) 
0

>  <PUBCHEM_ATOM_UDEF_STEREO_COUNT>  (1) 
0

>  <PUBCHEM_BOND_DEF_STEREO_COUNT>  (1) 
0

>  <PUBCHEM_BOND_UDEF_STEREO_COUNT>  (1) 
0

>  <PUBCHEM_ISOTOPIC_ATOM_COUNT>  (1) 
0

>  <PUBCHEM_COMPONENT_COUNT>  (1) 
1

>  <PUBCHEM_CACTVS_TAUTO_COUNT>  (1) 
3

>  <PUBCHEM_CONFORMER_ID>  (1) 
0000A6C600000001

>  <PUBCHEM_MMFF94_ENERGY>  (1) 
79.0779

>  <PUBCHEM_FEATURE_SELFOVERLAP>  (1) 
45.722

>  <PUBCHEM_SHAPE_FINGERPRINT>  (1) 
10616163 171 18410578374993448374
10967382 1 17973726870465658672
11014199 57 18338799047423330130
11578080 2 17845922043639154145
11725454 13 14187365156562130139
12403259 327 13611752277662539975
12422481 6 18126032411236195299
12553582 1 18265615579068781562
12788726 201 18131069355486206277
13004483 165 18340758351611236267
13140716 1 18409450267573818088
138480 1 16031825297747504851
14178342 30 18337378414244311720
14790565 3 17904772072393123472
15042514 8 18336551499605383155
15131766 46 15577008302062132838
16728300 4 16668232643683774699
18603816 31 16914236375362365510
19141452 34 18267864982817638682
19319366 153 17460897102393013898
19591789 44 17615406961385536810
19930381 70 17543072737089155763
20028762 73 18127126378129867213
20291156 8 18268429216481510942
20775438 99 17689946428240662861
21033648 29 17838594688210336912
21041028 32 18336833116411401643
21267235 1 17755877320466528416
21452121 199 18050266356917694522
21634736 98 18335421305127097590
22033318 11 17766876027886685875
23558518 356 18261396693245001520
23559900 14 18268425747144513312
23598288 3 18342184383500037535
23728640 28 18340764819657722515
238 59 17110689806640955343
283562 15 17906741649541824216
3298306 158 17041759790608027302
34934 24 18116432536248055960
46194498 28 16955892811946685839
463206 1 17761209216900322278
6438718 38 18272363122982777094
81228 2 18266433504398246435
90525 40 18340488850728637511
9953998 17 18053075365480150290

>  <PUBCHEM_SHAPE_MULTIPOLES>  (1) 
472.21
7.16
5.21
1.17
5.84
0.47
0.19
2.89
-0.95
-5.08
0.68
-0.72
0.42
-2.06

>  <PUBCHEM_SHAPE_SELFOVERLAP>  (1) 
1033.516

>  <PUBCHEM_SHAPE_VOLUME>  (1) 
254.7

>  <PUBCHEM_COORDINATE_TYPE>  (1) 
2
5
10

$$$$
