42697
     RDKit          3D

 20 21  0  0  0  0  0  0  0  0999 V2000
    3.6248   -1.1818   -1.0990 O   0  0  0  0  0  0  0  0  0  0  0  0
   -1.8784   -1.4753    2.0750 O   0  0  0  0  0  0  0  0  0  0  0  0
    2.3753    2.3468    0.5089 N   0  0  0  0  0  0  0  0  0  0  0  0
    1.9897   -0.0684    0.2548 C   0  0  0  0  0  0  0  0  0  0  0  0
    2.9735    1.0158    0.6065 C   0  0  0  0  0  0  0  0  0  0  0  0
    0.7056   -0.0041    0.7801 C   0  0  0  0  0  0  0  0  0  0  0  0
    2.3668   -1.1120   -0.5802 C   0  0  0  0  0  0  0  0  0  0  0  0
   -0.2175   -1.0010    0.4646 C   0  0  0  0  0  0  0  0  0  0  0  0
    1.4436   -2.1090   -0.8954 C   0  0  0  0  0  0  0  0  0  0  0  0
    0.1514   -2.0534   -0.3731 C   0  0  0  0  0  0  0  0  0  0  0  0
   -1.5657   -0.9425    1.0066 C   0  0  0  0  0  0  0  0  0  0  0  0
    1.9047    2.5970   -0.8529 C   0  0  0  0  0  0  0  0  0  0  0  0
    3.3379    3.3707    0.9133 C   0  0  0  0  0  0  0  0  0  0  0  0
   -2.6427   -0.2349    0.2685 C   0  0  0  0  0  0  0  0  0  0  0  0
   -2.3389    0.3750   -0.9312 C   0  0  0  0  0  0  0  0  0  0  0  0
   -3.9135   -0.2099    0.8054 C   0  0  0  0  0  0  0  0  0  0  0  0
    4.6022   -1.8861   -0.3357 C   0  0  0  0  0  0  0  0  0  0  0  0
   -3.3504    1.0395   -1.6247 C   0  0  0  0  0  0  0  0  0  0  0  0
   -4.9250    0.4545    0.1118 C   0  0  0  0  0  0  0  0  0  0  0  0
   -4.6435    1.0792   -1.1032 C   0  0  0  0  0  0  0  0  0  0  0  0
  1  7  1  0
  1 17  1  0
  2 11  2  0
  3  5  1  0
  3 12  1  0
  3 13  1  0
  4  5  1  0
  4  6  2  0
  4  7  1  0
  6  8  1  0
  7  9  2  0
  8 10  2  0
  8 11  1  0
  9 10  1  0
 11 14  1  0
 14 15  2  0
 14 16  1  0
 15 18  1  0
 16 19  2  0
 18 20  2  0
 19 20  1  0
M  END
>  <PUBCHEM_COMPOUND_CID>  (1) 
42697

>  <PUBCHEM_CONFORMER_RMSD>  (1) 
0.8

>  <PUBCHEM_CONFORMER_DIVERSEORDER>  (1) 
1
2
4
3

>  <PUBCHEM_MMFF94_PARTIAL_CHARGES>  (1) 
28
1 -0.36
10 -0.15
11 0.4
12 0.27
13 0.27
14 0.09
15 -0.15
16 -0.15
17 0.28
18 -0.15
19 -0.15
2 -0.57
20 -0.15
23 0.15
24 0.15
25 0.15
3 -0.81
32 0.15
33 0.15
37 0.15
38 0.15
39 0.15
4 -0.14
5 0.41
6 -0.15
7 0.08
8 0.09
9 -0.15

>  <PUBCHEM_EFFECTIVE_ROTOR_COUNT>  (1) 
5

>  <PUBCHEM_PHARMACOPHORE_FEATURES>  (1) 
5
1 1 acceptor
1 2 acceptor
1 3 cation
6 14 15 16 18 19 20 rings
6 4 6 7 8 9 10 rings

>  <PUBCHEM_HEAVY_ATOM_COUNT>  (1) 
20

>  <PUBCHEM_ATOM_DEF_STEREO_COUNT>  (1) 
0

>  <PUBCHEM_ATOM_UDEF_STEREO_COUNT>  (1) 
0

>  <PUBCHEM_BOND_DEF_STEREO_COUNT>  (1) 
0

>  <PUBCHEM_BOND_UDEF_STEREO_COUNT>  (1) 
0

>  <PUBCHEM_ISOTOPIC_ATOM_COUNT>  (1) 
0

>  <PUBCHEM_COMPONENT_COUNT>  (1) 
1

>  <PUBCHEM_CACTVS_TAUTO_COUNT>  (1) 
1

>  <PUBCHEM_CONFORMER_ID>  (1) 
0000A6C900000001

>  <PUBCHEM_MMFF94_ENERGY>  (1) 
80.7366

>  <PUBCHEM_FEATURE_SELFOVERLAP>  (1) 
25.371

>  <PUBCHEM_SHAPE_FINGERPRINT>  (1) 
11221954 11 18115305725444500317
11595378 159 15357692007113338373
11759241 127 18264484173625457591
12035758 1 18338502089674294256
12236239 1 16630241407830837255
12403259 415 18114183025699418477
12596602 18 13912622540850310533
12633257 1 17024293322440614320
12730499 353 18335425626059525707
12788726 201 17829044313274224146
13134695 92 18341897334146419518
13402501 40 18260828168033977836
13583140 156 18260552237944773778
14115302 16 16845282830981371311
14178342 30 17023743575216369498
14250199 8 18271805688141734685
14508225 48 18053963766384519150
15295992 7 18333739008996557035
17349148 13 17703789172154970034
17357779 13 18270121184841037588
1813 80 17344367565867576566
18186145 218 18335419041578865617
192875 21 17988646255269487970
200 152 17417529112223697115
20233049 118 17968097461025402118
20645477 70 18201727240624525606
20681677 76 18336550524605992171
21033648 29 17749104479021222509
21486144 27 18408322207208228325
21639500 275 18202002161296078120
221357 26 18266454317947322213
22892500 29 18409728435188132590
23175994 123 18267596718886433182
23402539 116 18056764221967882854
23503958 25 17749392542493530861
23557571 272 17823710848222708139
23559900 14 17894917316870487054
3060560 45 18200870678159104582
3524813 1 18114740443392130125
474 4 18342451569231447409
495365 180 18272363209003331928
5281201 14 18412826867692696485
6049 1 18115606948501113451
633830 44 18412256212879091341
7471813 234 17417809496347104912
7495541 125 18334304153551919107
7808743 9 17168439223895526655
9709674 26 18261675990641553387
9862522 239 17976526536176083996
9971528 1 17988359274477149298

>  <PUBCHEM_SHAPE_MULTIPOLES>  (1) 
394.87
8.96
2.89
1.37
5.03
2
-0.09
1.99
1.33
-4.25
-0.02
0.74
-0.04
1.95

>  <PUBCHEM_SHAPE_SELFOVERLAP>  (1) 
840.303

>  <PUBCHEM_SHAPE_VOLUME>  (1) 
221.6

>  <PUBCHEM_COORDINATE_TYPE>  (1) 
2
5
10

$$$$
