42709
     RDKit          3D

 24 25  0  0  0  0  0  0  0  0999 V2000
   -0.2761    0.7978   -1.2460 O   0  0  0  0  0  0  0  0  0  0  0  0
   -3.0411   -2.1916    1.2709 O   0  0  0  0  0  0  0  0  0  0  0  0
    2.2310   -1.2998   -2.1033 O   0  0  0  0  0  0  0  0  0  0  0  0
   -2.4495    1.6440    0.0795 N   0  0  0  0  0  0  0  0  0  0  0  0
   -2.8306    0.2531   -0.1632 C   0  0  0  0  0  0  0  0  0  0  0  0
   -1.6662   -0.6857    0.0087 C   0  0  0  0  0  0  0  0  0  0  0  0
   -3.5867    2.5336   -0.1533 C   0  0  0  0  0  0  0  0  0  0  0  0
   -1.9448    1.8054    1.4425 C   0  0  0  0  0  0  0  0  0  0  0  0
   -0.4337   -0.3634   -0.5469 C   0  0  0  0  0  0  0  0  0  0  0  0
   -1.8367   -1.8661    0.7222 C   0  0  0  0  0  0  0  0  0  0  0  0
    0.6440   -1.2343   -0.3864 C   0  0  0  0  0  0  0  0  0  0  0  0
   -4.0858    2.4239   -1.5840 C   0  0  0  0  0  0  0  0  0  0  0  0
   -1.5437    3.2457    1.7125 C   0  0  0  0  0  0  0  0  0  0  0  0
   -0.7590   -2.7371    0.8825 C   0  0  0  0  0  0  0  0  0  0  0  0
    0.4813   -2.4212    0.3282 C   0  0  0  0  0  0  0  0  0  0  0  0
    1.9483   -0.9260   -0.9564 C   0  0  0  0  0  0  0  0  0  0  0  0
    2.9875   -0.1610   -0.2056 C   0  0  0  0  0  0  0  0  0  0  0  0
   -0.5274    0.7469   -2.6479 C   0  0  0  0  0  0  0  0  0  0  0  0
   -3.9390   -2.9468    0.4603 C   0  0  0  0  0  0  0  0  0  0  0  0
    2.6981    0.2649    1.0704 C   0  0  0  0  0  0  0  0  0  0  0  0
    4.1939    0.0878   -0.8187 C   0  0  0  0  0  0  0  0  0  0  0  0
    3.6690    0.9794    1.7722 C   0  0  0  0  0  0  0  0  0  0  0  0
    5.1648    0.8022   -0.1167 C   0  0  0  0  0  0  0  0  0  0  0  0
    4.9022    1.2480    1.1786 C   0  0  0  0  0  0  0  0  0  0  0  0
  1  9  1  0
  1 18  1  0
  2 10  1  0
  2 19  1  0
  3 16  2  0
  4  5  1  0
  4  7  1  0
  4  8  1  0
  5  6  1  0
  6  9  2  0
  6 10  1  0
  7 12  1  0
  8 13  1  0
  9 11  1  0
 10 14  2  0
 11 15  2  0
 11 16  1  0
 14 15  1  0
 16 17  1  0
 17 20  2  0
 17 21  1  0
 20 22  1  0
 21 23  2  0
 22 24  2  0
 23 24  1  0
M  END
>  <PUBCHEM_COMPOUND_CID>  (1) 
42709

>  <PUBCHEM_CONFORMER_RMSD>  (1) 
0.8

>  <PUBCHEM_CONFORMER_DIVERSEORDER>  (1) 
1
15
7
5
10
14
4
9
2
8
13
6
3
12
11

>  <PUBCHEM_MMFF94_PARTIAL_CHARGES>  (1) 
29
1 -0.36
10 0.08
11 0.09
14 -0.15
15 -0.15
16 0.4
17 0.09
18 0.28
19 0.28
2 -0.36
20 -0.15
21 -0.15
22 -0.15
23 -0.15
24 -0.15
3 -0.57
37 0.15
38 0.15
4 -0.81
45 0.15
46 0.15
47 0.15
48 0.15
49 0.15
5 0.41
6 -0.14
7 0.27
8 0.27
9 0.08

>  <PUBCHEM_EFFECTIVE_ROTOR_COUNT>  (1) 
8

>  <PUBCHEM_PHARMACOPHORE_FEATURES>  (1) 
6
1 1 acceptor
1 2 acceptor
1 3 acceptor
1 4 cation
6 17 20 21 22 23 24 rings
6 6 9 10 11 14 15 rings

>  <PUBCHEM_HEAVY_ATOM_COUNT>  (1) 
24

>  <PUBCHEM_ATOM_DEF_STEREO_COUNT>  (1) 
0

>  <PUBCHEM_ATOM_UDEF_STEREO_COUNT>  (1) 
0

>  <PUBCHEM_BOND_DEF_STEREO_COUNT>  (1) 
0

>  <PUBCHEM_BOND_UDEF_STEREO_COUNT>  (1) 
0

>  <PUBCHEM_ISOTOPIC_ATOM_COUNT>  (1) 
0

>  <PUBCHEM_COMPONENT_COUNT>  (1) 
1

>  <PUBCHEM_CACTVS_TAUTO_COUNT>  (1) 
1

>  <PUBCHEM_CONFORMER_ID>  (1) 
0000A6D500000001

>  <PUBCHEM_MMFF94_ENERGY>  (1) 
96.1576

>  <PUBCHEM_FEATURE_SELFOVERLAP>  (1) 
30.446

>  <PUBCHEM_SHAPE_FINGERPRINT>  (1) 
10165383 225 17831047657323293924
10319926 262 18409440389586738026
10366900 7 17988358187571173392
10498660 4 18342734087890849688
11221954 11 17702393844643924872
11370993 70 18263357006260287057
11646440 116 18193289692147713899
12633257 1 18040705962160925700
12788726 201 17971209246235408931
13140716 1 17610360589667266027
13965767 371 17677891219381275788
13994607 96 18273210936848119756
14081887 123 18411142454354470251
14142880 1 18187072962687111311
14178342 30 18113905944126397283
14787075 74 18270949194670245973
19049666 15 18129116558147067758
200 152 15286185320209818402
20510252 161 18338242655715729835
20600515 1 17972890425184212663
21033648 29 17988353867123841144
229495 10 17131561569466893126
23419403 2 17688279680429478103
23557571 272 18340501052588684006
23559900 14 18339089172859327166
238 59 17274527755370486440
23845131 108 17907882617000446609
283562 15 18335703888126678355
4340502 62 18263639568385878701
469060 322 18041860488214161483
474 4 18340763737268220972
633830 44 17841152147908581477
7808743 9 18260836977439319140
81228 2 18190203298061550371
84936 182 17762615093014037905
90316 7 17313094263849220348
9981440 41 18272076167738625410

>  <PUBCHEM_SHAPE_MULTIPOLES>  (1) 
471.32
8.62
3.47
1.88
7.38
0.14
0.67
-3.64
-0.85
-4.85
-1.31
0.09
-0.74
1.73

>  <PUBCHEM_SHAPE_SELFOVERLAP>  (1) 
993.172

>  <PUBCHEM_SHAPE_VOLUME>  (1) 
266.4

>  <PUBCHEM_COORDINATE_TYPE>  (1) 
2
5
10

$$$$
