42705
     RDKit          3D

 23 25  0  0  0  0  0  0  0  0999 V2000
    4.7177    2.5637    0.3206 O   0  0  0  0  0  0  0  0  0  0  0  0
    2.6224   -1.8996    0.7548 O   0  0  0  0  0  0  0  0  0  0  0  0
   -3.2626   -1.7112   -1.5464 O   0  0  0  0  0  0  0  0  0  0  0  0
    3.1646    0.3764   -0.6307 N   0  0  0  0  0  0  0  0  0  0  0  0
    2.5849    1.4100    0.2384 C   0  0  0  0  0  0  0  0  0  0  0  0
    4.2602    0.9453   -1.4278 C   0  0  0  0  0  0  0  0  0  0  0  0
    2.1419   -0.2071   -1.4963 C   0  0  0  0  0  0  0  0  0  0  0  0
    3.6725    2.0130    1.1229 C   0  0  0  0  0  0  0  0  0  0  0  0
    5.3085    1.5582   -0.5035 C   0  0  0  0  0  0  0  0  0  0  0  0
    1.0353   -0.8496   -0.7028 C   0  0  0  0  0  0  0  0  0  0  0  0
    1.3332   -1.6629    0.3826 C   0  0  0  0  0  0  0  0  0  0  0  0
   -0.2813   -0.6128   -1.0761 C   0  0  0  0  0  0  0  0  0  0  0  0
   -1.3183   -1.1999   -0.3509 C   0  0  0  0  0  0  0  0  0  0  0  0
    0.2961   -2.2498    1.1077 C   0  0  0  0  0  0  0  0  0  0  0  0
   -1.0296   -2.0184    0.7408 C   0  0  0  0  0  0  0  0  0  0  0  0
   -2.7006   -0.9612   -0.7342 C   0  0  0  0  0  0  0  0  0  0  0  0
   -3.5002    0.1742   -0.1826 C   0  0  0  0  0  0  0  0  0  0  0  0
    2.8257   -2.7484    1.8825 C   0  0  0  0  0  0  0  0  0  0  0  0
   -2.9018    1.0222    0.7197 C   0  0  0  0  0  0  0  0  0  0  0  0
   -4.8019    0.3256   -0.6000 C   0  0  0  0  0  0  0  0  0  0  0  0
   -3.6479    2.0823    1.2346 C   0  0  0  0  0  0  0  0  0  0  0  0
   -5.5479    1.3858   -0.0852 C   0  0  0  0  0  0  0  0  0  0  0  0
   -4.9709    2.2642    0.8321 C   0  0  0  0  0  0  0  0  0  0  0  0
  1  8  1  0
  1  9  1  0
  2 11  1  0
  2 18  1  0
  3 16  2  0
  4  5  1  0
  4  6  1  0
  4  7  1  0
  5  8  1  0
  6  9  1  0
  7 10  1  0
 10 11  2  0
 10 12  1  0
 11 14  1  0
 12 13  2  0
 13 15  1  0
 13 16  1  0
 14 15  2  0
 16 17  1  0
 17 19  2  0
 17 20  1  0
 19 21  1  0
 20 22  2  0
 21 23  2  0
 22 23  1  0
M  END
>  <PUBCHEM_COMPOUND_CID>  (1) 
42705

>  <PUBCHEM_CONFORMER_RMSD>  (1) 
0.8

>  <PUBCHEM_CONFORMER_DIVERSEORDER>  (1) 
5
9
3
12
8
2
7
1
11
4
10
6

>  <PUBCHEM_MMFF94_PARTIAL_CHARGES>  (1) 
31
1 -0.56
10 -0.14
11 0.08
12 -0.15
13 0.09
14 -0.15
15 -0.15
16 0.4
17 0.09
18 0.28
19 -0.15
2 -0.36
20 -0.15
21 -0.15
22 -0.15
23 -0.15
3 -0.57
34 0.15
35 0.15
36 0.15
4 -0.81
40 0.15
41 0.15
42 0.15
43 0.15
44 0.15
5 0.27
6 0.27
7 0.41
8 0.28
9 0.28

>  <PUBCHEM_EFFECTIVE_ROTOR_COUNT>  (1) 
6.2

>  <PUBCHEM_PHARMACOPHORE_FEATURES>  (1) 
7
1 1 acceptor
1 2 acceptor
1 3 acceptor
1 4 cation
6 1 4 5 6 8 9 rings
6 10 11 12 13 14 15 rings
6 17 19 20 21 22 23 rings

>  <PUBCHEM_HEAVY_ATOM_COUNT>  (1) 
23

>  <PUBCHEM_ATOM_DEF_STEREO_COUNT>  (1) 
0

>  <PUBCHEM_ATOM_UDEF_STEREO_COUNT>  (1) 
0

>  <PUBCHEM_BOND_DEF_STEREO_COUNT>  (1) 
0

>  <PUBCHEM_BOND_UDEF_STEREO_COUNT>  (1) 
0

>  <PUBCHEM_ISOTOPIC_ATOM_COUNT>  (1) 
0

>  <PUBCHEM_COMPONENT_COUNT>  (1) 
1

>  <PUBCHEM_CACTVS_TAUTO_COUNT>  (1) 
1

>  <PUBCHEM_CONFORMER_ID>  (1) 
0000A6D100000005

>  <PUBCHEM_MMFF94_ENERGY>  (1) 
81.399

>  <PUBCHEM_FEATURE_SELFOVERLAP>  (1) 
35.522

>  <PUBCHEM_SHAPE_FINGERPRINT>  (1) 
10006869 2 18265607676766969621
10382601 240 17894629228018485546
10498660 4 18059858372089502425
10968037 57 9295297144511310213
11089746 13 18342455933049959260
12390115 104 17824843349789534526
12644460 14 17676483909254736402
13140716 1 18040151794867382155
13464514 151 18413112775117796026
13590594 115 17902231114058222122
13878862 14 17971170566155749709
14178342 30 17822862007713196483
1420 369 8358254830791465205
14251764 38 18126848432999588944
14739800 52 18200577181679371136
14848178 5 8286201613267170209
14848178 96 18409450301627568676
14849402 71 18261396620504785952
14955137 171 17975698285950643770
15209294 21 18335139816685002773
15238133 3 17916860201642901576
15475509 8 18053394193375885774
17980427 23 18055325012750107474
1813 80 17757271474961703314
19752476 56 18342178856246320906
20739085 24 17823143336708063438
21475661 188 18270118045304879124
21864079 5 18272652333606699997
22122407 14 18048045065117296689
22849341 161 17975977566378277778
23559900 14 17345474777997492543
25147074 1 18337657668359231927
283562 15 17609500780074726002
2838139 119 18131349726107955436
3472631 163 18201441342269291829
350125 39 18043246851811890300
38570 142 18264790812498810478
392239 28 18118980319601651355
469060 322 17824279304651231371
474 4 18260271875385152261
5104073 3 18114750343829765907
57527295 17 18341626936175682910
5895379 119 17487061063580407976
59755656 520 18334858346214593814
6034566 193 17460334362597461292
6328613 192 18191313869932110748
633830 44 18337952411064270724
7288768 16 18040720285702382251
7808743 9 18202283593871871753
7970288 3 10591766463124591029
9981440 41 18339639065627066922

>  <PUBCHEM_SHAPE_MULTIPOLES>  (1) 
450.74
11.59
3.08
1.48
3.59
0.27
0.05
-10.06
-0.13
-1.68
1.49
-0.57
0.4
-1.87

>  <PUBCHEM_SHAPE_SELFOVERLAP>  (1) 
968.816

>  <PUBCHEM_SHAPE_VOLUME>  (1) 
248.1

>  <PUBCHEM_COORDINATE_TYPE>  (1) 
2
5
10

$$$$
