4272
     RDKit          3D

 23 24  0  0  0  0  0  0  0  0999 V2000
    3.4733   -2.4991   -0.1795 O   0  0  0  0  0  0  0  0  0  0  0  0
    1.1937    2.9359   -0.5117 O   0  0  0  0  0  0  0  0  0  0  0  0
   -0.1130   -1.0970    1.7277 O   0  0  0  0  0  0  0  0  0  0  0  0
    1.7884   -3.2666    1.2031 O   0  0  0  0  0  0  0  0  0  0  0  0
   -3.6233   -2.6459   -0.9022 O   0  0  0  0  0  0  0  0  0  0  0  0
   -2.6056   -0.8979   -1.9344 O   0  0  0  0  0  0  0  0  0  0  0  0
    2.7510   -0.3495   -0.4310 C   0  0  0  0  0  0  0  0  0  0  0  0
    0.5370    0.9216    0.6082 C   0  0  0  0  0  0  0  0  0  0  0  0
    1.8634   -1.0187    0.3867 C   0  0  0  0  0  0  0  0  0  0  0  0
    2.5464    0.9807   -0.7475 C   0  0  0  0  0  0  0  0  0  0  0  0
    1.4220    1.6218   -0.2181 C   0  0  0  0  0  0  0  0  0  0  0  0
    0.7429   -0.4144    0.9258 C   0  0  0  0  0  0  0  0  0  0  0  0
   -0.6697    1.6356    1.1690 C   0  0  0  0  0  0  0  0  0  0  0  0
    3.8345   -1.2605   -0.8414 C   0  0  0  0  0  0  0  0  0  0  0  0
    2.3189   -2.3900    0.5506 C   0  0  0  0  0  0  0  0  0  0  0  0
   -1.8678    1.5261    0.2668 C   0  0  0  0  0  0  0  0  0  0  0  0
    3.5041    1.7079   -1.6285 C   0  0  0  0  0  0  0  0  0  0  0  0
   -3.0856    1.0316    0.5643 C   0  0  0  0  0  0  0  0  0  0  0  0
   -4.2368    0.9302   -0.4101 C   0  0  0  0  0  0  0  0  0  0  0  0
   -4.6502   -0.5197   -0.6673 C   0  0  0  0  0  0  0  0  0  0  0  0
   -3.3692    0.5022    1.9466 C   0  0  0  0  0  0  0  0  0  0  0  0
    1.7623    3.9013    0.3684 C   0  0  0  0  0  0  0  0  0  0  0  0
   -3.5165   -1.3356   -1.2456 C   0  0  0  0  0  0  0  0  0  0  0  0
  1 14  1  0
  1 15  1  0
  2 11  1  0
  2 22  1  0
  3 12  1  0
  4 15  2  0
  5 23  1  0
  6 23  2  0
  7  9  2  0
  7 10  1  0
  7 14  1  0
  8 11  1  0
  8 12  2  0
  8 13  1  0
  9 12  1  0
  9 15  1  0
 10 11  2  0
 10 17  1  0
 13 16  1  0
 16 18  2  0
 18 19  1  0
 18 21  1  0
 19 20  1  0
 20 23  1  0
M  END
>  <PUBCHEM_COMPOUND_CID>  (1) 
4272

>  <PUBCHEM_CONFORMER_RMSD>  (1) 
0.8

>  <PUBCHEM_CONFORMER_DIVERSEORDER>  (1) 
6
61
83
36
97
57
78
25
96
3
88
89
111
110
13
58
65
56
34
27
106
108
77
18
32
74
31
102
24
4
92
51
30
20
9
98
48
44
64
7
99
35
63
71
54
84
11
81
101
14
29
103
91
62
59
12
52
104
1
39
2
72
68
69
5
80
109
107
38
37
46
8
67
75
87
26
49
28
15
70
82
53
100
45
90
16
23
43
66
40
42
79
33
105
94
41
55
86
73
47
76
10
95
21
85
19
50
60
22
17
93

>  <PUBCHEM_MMFF94_PARTIAL_CHARGES>  (1) 
26
1 -0.43
10 -0.14
11 0.08
12 0.08
13 0.28
14 0.42
15 0.63
16 -0.29
17 0.14
18 -0.28
19 0.14
2 -0.36
20 0.06
21 0.14
22 0.28
23 0.66
28 0.15
3 -0.53
39 0.45
4 -0.57
43 0.5
5 -0.65
6 -0.57
7 -0.14
8 -0.14
9 0.09

>  <PUBCHEM_EFFECTIVE_ROTOR_COUNT>  (1) 
6.4

>  <PUBCHEM_PHARMACOPHORE_FEATURES>  (1) 
9
1 2 acceptor
1 21 hydrophobe
1 3 donor
1 4 acceptor
1 5 acceptor
1 6 acceptor
3 5 6 23 anion
5 1 7 9 14 15 rings
6 7 8 9 10 11 12 rings

>  <PUBCHEM_HEAVY_ATOM_COUNT>  (1) 
23

>  <PUBCHEM_ATOM_DEF_STEREO_COUNT>  (1) 
0

>  <PUBCHEM_ATOM_UDEF_STEREO_COUNT>  (1) 
0

>  <PUBCHEM_BOND_DEF_STEREO_COUNT>  (1) 
0

>  <PUBCHEM_BOND_UDEF_STEREO_COUNT>  (1) 
1

>  <PUBCHEM_ISOTOPIC_ATOM_COUNT>  (1) 
0

>  <PUBCHEM_COMPONENT_COUNT>  (1) 
1

>  <PUBCHEM_CACTVS_TAUTO_COUNT>  (1) 
4

>  <PUBCHEM_CONFORMER_ID>  (1) 
000010B000000006

>  <PUBCHEM_MMFF94_ENERGY>  (1) 
60.8776

>  <PUBCHEM_FEATURE_SELFOVERLAP>  (1) 
45.821

>  <PUBCHEM_SHAPE_FINGERPRINT>  (1) 
10498660 4 13912328967119551543
10759866 29 18412266168043578391
11578080 2 18056172714529634504
12400797 292 18412544335837519745
12553582 1 18339079259642141563
12788726 201 17703803483476416265
13004483 165 17758948234350859416
14576447 43 18410857620692033462
15537594 2 18271257113670608975
16752209 62 17846486008101453741
17349148 13 18260264132054840528
18915474 69 18343019978003853935
20291156 8 18341889637153457783
20645477 70 18041008323030574209
21634736 98 18341610442841291467
221490 88 18337677524097938707
23379529 103 18131361829199364527
23402539 116 17898857838328530698
235170 7 17240480338539825407
23598288 3 18055092985853201665
23598291 2 18270973353365270769
238 59 18262523722295687152
2748010 2 17757857875567929728
339767 52 18199454498539664655
463206 1 18337116678515221954
59444896 2 11363307607130532154
602551 16 17060054787767618070
633830 44 17676777495764934369
7471813 234 18263928731237900580

>  <PUBCHEM_SHAPE_MULTIPOLES>  (1) 
438.11
8.05
3.64
1.54
6.42
0.55
-0.05
-2.59
2.93
-2.78
-0.26
0.71
-0.27
-1.81

>  <PUBCHEM_SHAPE_SELFOVERLAP>  (1) 
929.762

>  <PUBCHEM_SHAPE_VOLUME>  (1) 
247.6

>  <PUBCHEM_COORDINATE_TYPE>  (1) 
2
5
10

$$$$
