42730
     RDKit          3D

 18 19  0  0  1  0  0  0  0  0999 V2000
    2.8447    0.9092   -1.6744 O   0  0  0  0  0  0  0  0  0  0  0  0
   -3.9902    1.8082    0.1907 O   0  0  0  0  0  0  0  0  0  0  0  0
   -5.3326   -0.1774    0.4413 O   0  0  0  0  0  0  0  0  0  0  0  0
    4.8507    0.0305    0.5171 C   0  0  0  0  0  0  0  0  0  0  0  0
    3.3114    0.2373    0.6256 C   0  0  0  0  0  0  0  0  0  0  0  0
    2.4817   -0.0099   -0.6475 C   0  0  0  0  0  0  0  0  0  0  0  0
    5.5343    0.2456    1.8782 C   0  0  0  0  0  0  0  0  0  0  0  0
    5.2157   -1.3641   -0.0149 C   0  0  0  0  0  0  0  0  0  0  0  0
    5.3991    1.0817   -0.4707 C   0  0  0  0  0  0  0  0  0  0  0  0
    1.0120    0.1720   -0.3675 C   0  0  0  0  0  0  0  0  0  0  0  0
    0.0982   -0.7887   -0.5781 C   0  0  0  0  0  0  0  0  0  0  0  0
   -1.3436   -0.6636   -0.3079 C   0  0  0  0  0  0  0  0  0  0  0  0
   -1.9043    0.6022   -0.2025 C   0  0  0  0  0  0  0  0  0  0  0  0
   -3.2589    0.6689    0.0516 C   0  0  0  0  0  0  0  0  0  0  0  0
   -2.1100   -1.8235   -0.1647 C   0  0  0  0  0  0  0  0  0  0  0  0
   -4.0255   -0.4650    0.1948 C   0  0  0  0  0  0  0  0  0  0  0  0
   -3.4798   -1.7280    0.0920 C   0  0  0  0  0  0  0  0  0  0  0  0
   -5.3031    1.2644    0.4368 C   0  0  0  0  0  0  0  0  0  0  0  0
  1  6  1  0
  2 14  1  0
  2 18  1  0
  3 16  1  0
  3 18  1  0
  4  5  1  0
  4  7  1  0
  4  8  1  0
  4  9  1  0
  5  6  1  0
  6 10  1  0
 10 11  2  0
 11 12  1  0
 12 13  1  0
 12 15  2  0
 13 14  2  0
 14 16  1  0
 15 17  1  0
 16 17  2  0
M  END
>  <PUBCHEM_COMPOUND_CID>  (1) 
42730

>  <PUBCHEM_CONFORMER_RMSD>  (1) 
0.6

>  <PUBCHEM_CONFORMER_DIVERSEORDER>  (1) 
1
8
5
10
11
4
15
6
7
2
13
17
3
12
9
16
18
14

>  <PUBCHEM_MMFF94_PARTIAL_CHARGES>  (1) 
19
1 -0.68
10 -0.29
11 -0.18
12 0.03
13 -0.15
14 0.08
15 -0.15
16 0.08
17 -0.15
18 0.56
2 -0.36
3 -0.36
31 0.15
32 0.15
33 0.4
34 0.15
35 0.15
36 0.15
6 0.42

>  <PUBCHEM_EFFECTIVE_ROTOR_COUNT>  (1) 
4.6

>  <PUBCHEM_PHARMACOPHORE_FEATURES>  (1) 
7
1 1 acceptor
1 1 donor
1 2 acceptor
1 3 acceptor
4 4 7 8 9 hydrophobe
5 2 3 14 16 18 rings
6 12 13 14 15 16 17 rings

>  <PUBCHEM_HEAVY_ATOM_COUNT>  (1) 
18

>  <PUBCHEM_ATOM_DEF_STEREO_COUNT>  (1) 
0

>  <PUBCHEM_ATOM_UDEF_STEREO_COUNT>  (1) 
0

>  <PUBCHEM_BOND_DEF_STEREO_COUNT>  (1) 
0

>  <PUBCHEM_BOND_UDEF_STEREO_COUNT>  (1) 
1

>  <PUBCHEM_ISOTOPIC_ATOM_COUNT>  (1) 
0

>  <PUBCHEM_COMPONENT_COUNT>  (1) 
1

>  <PUBCHEM_CACTVS_TAUTO_COUNT>  (1) 
1

>  <PUBCHEM_CONFORMER_ID>  (1) 
0000A6EA00000001

>  <PUBCHEM_MMFF94_ENERGY>  (1) 
49.7554

>  <PUBCHEM_FEATURE_SELFOVERLAP>  (1) 
35.677

>  <PUBCHEM_SHAPE_FINGERPRINT>  (1) 
10014705 185 16630519669834095270
10912923 1 17968094274296727382
117890 112 17988924457423148600
12107183 9 17757826728422394744
12236239 1 17967250909822603905
12596602 18 17748828539740346560
12616971 3 17603588551247903807
13167823 11 18260547853035949354
13288520 33 7925911478872617803
13533116 47 17917434164515494414
13675066 3 18343018904599717990
13914758 101 17168132422314322879
1420 363 12107507022145354376
14251718 22 9007053565398112898
14341114 176 18411141325020482440
14420673 8 18263364681752506186
14455015 7 14706922922004919592
14528608 73 11600002167928013770
15042514 8 18265619969353877299
15348495 7 18201430428714993522
15375358 24 17131836464663904326
15501527 24 11815892366457057188
15537594 2 15791450431330407874
15880784 105 15141255368348021721
17844677 252 18412552024256390440
1813 80 16515689909893283974
19050596 39 18114183063768503351
19489759 90 18344143700615445987
200 152 14706922951879825487
20279233 1 17489595570852318326
20281389 69 18342738498806224097
20645477 56 18131072640803592415
20645477 70 13623521326183800824
21033648 29 17489574689021908434
21065198 48 18187646959333165566
21623969 137 15068337896113816792
220451 1 17385726906953547338
23402539 116 18343577443600419669
23503953 91 18334293193111377684
23559900 14 18130243574834819158
2916195 48 17632289081829886009
345986 75 17314209117443666376
351380 180 17917989481794617800
351380 3 17095238103848143138
3545911 37 18272375252154881342
42 15 18334856117432340070
4214541 1 18410856559639789580
465052 167 15719396114289047682
5104073 3 18114466772181196272
542803 24 18334575759046711148
573450 72 18334572477333247714
5758199 1 17676769890359125996
5924683 9 18129934714920405607
59755656 215 18270971128946966278
67856867 119 18116437135921114596
9981440 41 18339931424726177747

>  <PUBCHEM_SHAPE_MULTIPOLES>  (1) 
352.82
14.77
1.54
1.06
6.66
0.26
-0.11
-2.71
-3.93
-1.32
0.03
1.56
-0.18
-0.27

>  <PUBCHEM_SHAPE_SELFOVERLAP>  (1) 
737.346

>  <PUBCHEM_SHAPE_VOLUME>  (1) 
202.1

>  <PUBCHEM_COORDINATE_TYPE>  (1) 
2
5
10

$$$$
