42734
     RDKit          3D

 19 19  0  0  1  0  0  0  0  0999 V2000
   -0.3317    0.5461   -1.6543 O   0  0  0  0  0  0  0  0  0  0  0  0
   -2.4794   -0.6368    0.2839 N   0  0  0  0  0  0  0  0  0  0  0  0
    0.4801    0.2294    0.5249 N   0  0  0  0  0  0  0  0  0  0  0  0
   -1.8676    0.6900    0.1982 C   0  0  0  0  0  0  0  0  0  0  0  0
   -2.7661    1.6075   -0.6409 C   0  0  0  0  0  0  0  0  0  0  0  0
   -2.6102   -1.2250   -1.0483 C   0  0  0  0  0  0  0  0  0  0  0  0
   -3.7843   -0.5556    0.9382 C   0  0  0  0  0  0  0  0  0  0  0  0
   -0.4944    0.4732   -0.4393 C   0  0  0  0  0  0  0  0  0  0  0  0
   -2.1575    2.9915   -0.8317 C   0  0  0  0  0  0  0  0  0  0  0  0
   -3.1884   -2.6280   -0.9745 C   0  0  0  0  0  0  0  0  0  0  0  0
   -3.6663    0.0539    2.3248 C   0  0  0  0  0  0  0  0  0  0  0  0
    1.8583   -0.0155    0.3158 C   0  0  0  0  0  0  0  0  0  0  0  0
    2.2998   -1.3185    0.1399 C   0  0  0  0  0  0  0  0  0  0  0  0
    2.7439    1.0516    0.2912 C   0  0  0  0  0  0  0  0  0  0  0  0
    3.6582   -1.5599   -0.0650 C   0  0  0  0  0  0  0  0  0  0  0  0
    4.1023    0.8100    0.0860 C   0  0  0  0  0  0  0  0  0  0  0  0
    1.3591   -2.4795    0.1645 C   0  0  0  0  0  0  0  0  0  0  0  0
    2.2848    2.4614    0.4787 C   0  0  0  0  0  0  0  0  0  0  0  0
    4.5594   -0.4958   -0.0921 C   0  0  0  0  0  0  0  0  0  0  0  0
  1  8  2  0
  2  4  1  0
  2  6  1  0
  2  7  1  0
  3  8  1  0
  3 12  1  0
  4  5  1  0
  4  8  1  0
  5  9  1  0
  6 10  1  0
  7 11  1  0
 12 13  2  0
 12 14  1  0
 13 15  1  0
 13 17  1  0
 14 16  2  0
 14 18  1  0
 15 19  2  0
 16 19  1  0
M  END
>  <PUBCHEM_COMPOUND_CID>  (1) 
42734

>  <PUBCHEM_CONFORMER_RMSD>  (1) 
0.8

>  <PUBCHEM_CONFORMER_DIVERSEORDER>  (1) 
4
13
7
21
17
1
14
20
10
11
19
12
16
18
5
9
15
6
8
2
3

>  <PUBCHEM_MMFF94_PARTIAL_CHARGES>  (1) 
19
1 -0.57
12 0.12
13 -0.14
14 -0.14
15 -0.15
16 -0.15
17 0.14
18 0.14
19 -0.15
2 -0.81
3 -0.55
30 0.37
37 0.15
38 0.15
4 0.33
45 0.15
6 0.27
7 0.27
8 0.57

>  <PUBCHEM_EFFECTIVE_ROTOR_COUNT>  (1) 
7

>  <PUBCHEM_PHARMACOPHORE_FEATURES>  (1) 
5
1 1 acceptor
1 2 cation
1 3 donor
1 9 hydrophobe
6 12 13 14 15 16 19 rings

>  <PUBCHEM_HEAVY_ATOM_COUNT>  (1) 
19

>  <PUBCHEM_ATOM_DEF_STEREO_COUNT>  (1) 
0

>  <PUBCHEM_ATOM_UDEF_STEREO_COUNT>  (1) 
1

>  <PUBCHEM_BOND_DEF_STEREO_COUNT>  (1) 
0

>  <PUBCHEM_BOND_UDEF_STEREO_COUNT>  (1) 
0

>  <PUBCHEM_ISOTOPIC_ATOM_COUNT>  (1) 
0

>  <PUBCHEM_COMPONENT_COUNT>  (1) 
1

>  <PUBCHEM_CACTVS_TAUTO_COUNT>  (1) 
2

>  <PUBCHEM_CONFORMER_ID>  (1) 
0000A6EE00000004

>  <PUBCHEM_MMFF94_ENERGY>  (1) 
69.8416

>  <PUBCHEM_FEATURE_SELFOVERLAP>  (1) 
25.371

>  <PUBCHEM_SHAPE_FINGERPRINT>  (1) 
10366900 7 18259990395965605986
10608611 8 18336540534649191996
10616163 171 18412821391230027814
11552529 35 17774720990945504519
11578080 2 17559081416031304737
12251169 10 18130796654747509371
12500047 106 18192140512705308069
12596599 1 17917162666246392518
12633257 1 18131078116707676731
12916754 54 18200307839752974015
13224815 77 17967811656568591618
14289901 80 18408880750393510592
15238133 3 16844747351495941723
15375462 189 18411983537852858458
17834074 16 18336826394676410868
18186145 218 18131071541487084920
19422 9 17917150614557480382
200 152 18130775781290859933
20645477 70 18198615545424163942
221490 88 18411138069583250874
23402539 116 17095239177748144606
23503953 91 18060703887661584243
23557571 272 16660359264434651279
23559900 14 18339907294808468101
2871803 45 18338220674173524079
3286 77 18335690676970123956
5104073 3 18201716288821847010
58051976 100 18343016700959469173
6049 1 18335420144953398552
6287921 2 18261961859444220052
633830 44 17240770528110459842
81228 2 17604418605676828253
9709674 26 18265892454261852527

>  <PUBCHEM_SHAPE_MULTIPOLES>  (1) 
375.18
8.28
2.79
1.28
2.79
0.33
0.39
-1.31
1.34
-0.8
-0.74
-1.74
0.04
0.11

>  <PUBCHEM_SHAPE_SELFOVERLAP>  (1) 
756.32

>  <PUBCHEM_SHAPE_VOLUME>  (1) 
222

>  <PUBCHEM_COORDINATE_TYPE>  (1) 
2
5
10

$$$$
