42741
     RDKit          3D

 11 12  0  0  0  0  0  0  0  0999 V2000
    1.8596    0.0000    0.0001 P   0  0  0  0  0  0  0  0  0  0  0  0
    1.1419    0.4274   -1.3883 O   0  0  0  0  0  0  0  0  0  0  0  0
    1.1418    0.9887    1.0642 O   0  0  0  0  0  0  0  0  0  0  0  0
    1.1419   -1.4159    0.3241 O   0  0  0  0  0  0  0  0  0  0  0  0
   -1.5687   -0.0001    0.0000 N   0  0  0  0  0  0  0  0  0  0  0  0
   -1.2998    0.1675   -1.4242 C   0  0  0  0  0  0  0  0  0  0  0  0
   -1.2999    1.1495    0.8573 C   0  0  0  0  0  0  0  0  0  0  0  0
   -1.2998   -1.3173    0.5669 C   0  0  0  0  0  0  0  0  0  0  0  0
    0.0611   -0.3117   -1.9399 C   0  0  0  0  0  0  0  0  0  0  0  0
    0.0608    1.8359    0.7000 C   0  0  0  0  0  0  0  0  0  0  0  0
    0.0611   -1.5241    1.2398 C   0  0  0  0  0  0  0  0  0  0  0  0
  1  2  1  0
  1  3  1  0
  1  4  1  0
  2  9  1  0
  3 10  1  0
  4 11  1  0
  5  6  1  0
  5  7  1  0
  5  8  1  0
  6  9  1  0
  7 10  1  0
  8 11  1  0
M  END
>  <PUBCHEM_COMPOUND_CID>  (1) 
42741

>  <PUBCHEM_CONFORMER_RMSD>  (1) 
0.4

>  <PUBCHEM_CONFORMER_DIVERSEORDER>  (1) 
1
2

>  <PUBCHEM_MMFF94_PARTIAL_CHARGES>  (1) 
11
1 0.3
10 0.28
11 0.28
2 -0.38
3 -0.38
4 -0.38
5 -0.81
6 0.27
7 0.27
8 0.27
9 0.28

>  <PUBCHEM_EFFECTIVE_ROTOR_COUNT>  (1) 
1.8

>  <PUBCHEM_PHARMACOPHORE_FEATURES>  (1) 
1
1 5 cation

>  <PUBCHEM_HEAVY_ATOM_COUNT>  (1) 
11

>  <PUBCHEM_ATOM_DEF_STEREO_COUNT>  (1) 
0

>  <PUBCHEM_ATOM_UDEF_STEREO_COUNT>  (1) 
0

>  <PUBCHEM_BOND_DEF_STEREO_COUNT>  (1) 
0

>  <PUBCHEM_BOND_UDEF_STEREO_COUNT>  (1) 
0

>  <PUBCHEM_ISOTOPIC_ATOM_COUNT>  (1) 
0

>  <PUBCHEM_COMPONENT_COUNT>  (1) 
1

>  <PUBCHEM_CACTVS_TAUTO_COUNT>  (1) 
1

>  <PUBCHEM_CONFORMER_ID>  (1) 
0000A6F500000001

>  <PUBCHEM_MMFF94_ENERGY>  (1) 
45.8908

>  <PUBCHEM_FEATURE_SELFOVERLAP>  (1) 
5.074

>  <PUBCHEM_SHAPE_FINGERPRINT>  (1) 
10702982 57 11723761770346616787
12423570 1 17060063686950112549
13024252 1 12540694816943900776
137420 1 9187307140778107265
14817 1 12267713180762844408
16945 1 8992534492641137369
18185500 45 9364193599242435120
21922407 69 15194456393218408914
5084963 1 10012248922487277231

>  <PUBCHEM_SHAPE_MULTIPOLES>  (1) 
207.64
1.96
1.7
1.69
0.23
0.79
0.17
0
0
-0.08
-0.17
-0.08
-0.79
0

>  <PUBCHEM_SHAPE_SELFOVERLAP>  (1) 
403.979

>  <PUBCHEM_SHAPE_VOLUME>  (1) 
123.7

>  <PUBCHEM_COORDINATE_TYPE>  (1) 
2
5
10

$$$$
