42745
     RDKit          3D

 13 12  0  0  1  0  0  0  0  0999 V2000
   -2.1708    0.3212    0.3021 O   0  0  0  0  0  0  0  0  0  0  0  0
   -3.7131   -0.7522   -1.0417 O   0  0  0  0  0  0  0  0  0  0  0  0
    2.4741   -0.7969   -0.0957 C   0  0  0  0  0  0  0  0  0  0  0  0
    1.2727    0.0212   -0.6506 C   0  0  0  0  0  0  0  0  0  0  0  0
    0.6730    1.0912    0.2967 C   0  0  0  0  0  0  0  0  0  0  0  0
   -0.4748    1.8722   -0.3737 C   0  0  0  0  0  0  0  0  0  0  0  0
    2.5765   -2.1831   -0.7492 C   0  0  0  0  0  0  0  0  0  0  0  0
    2.3674   -0.9594    1.4312 C   0  0  0  0  0  0  0  0  0  0  0  0
    3.7685   -0.0174   -0.4063 C   0  0  0  0  0  0  0  0  0  0  0  0
    1.7567    2.0869    0.7333 C   0  0  0  0  0  0  0  0  0  0  0  0
   -1.6233    0.9797   -0.8334 C   0  0  0  0  0  0  0  0  0  0  0  0
   -3.2180   -0.5218    0.0532 C   0  0  0  0  0  0  0  0  0  0  0  0
   -3.6888   -1.1414    1.3341 C   0  0  0  0  0  0  0  0  0  0  0  0
  1 11  1  0
  1 12  1  0
  2 12  2  0
  3  4  1  0
  3  7  1  0
  3  8  1  0
  3  9  1  0
  4  5  1  0
  5  6  1  0
  5 10  1  0
  6 11  1  0
 12 13  1  0
M  END
>  <PUBCHEM_COMPOUND_CID>  (1) 
42745

>  <PUBCHEM_CONFORMER_RMSD>  (1) 
0.6

>  <PUBCHEM_CONFORMER_DIVERSEORDER>  (1) 
2
6
45
33
44
22
34
46
38
23
32
47
10
35
17
12
29
30
25
14
19
31
28
20
16
24
42
9
26
11
4
41
18
36
7
27
8
1
39
43
5
40
13
15
37
21
3

>  <PUBCHEM_MMFF94_PARTIAL_CHARGES>  (1) 
5
1 -0.43
11 0.28
12 0.66
13 0.06
2 -0.57

>  <PUBCHEM_EFFECTIVE_ROTOR_COUNT>  (1) 
6

>  <PUBCHEM_PHARMACOPHORE_FEATURES>  (1) 
4
1 10 hydrophobe
1 2 acceptor
4 3 4 5 6 hydrophobe
4 3 7 8 9 hydrophobe

>  <PUBCHEM_HEAVY_ATOM_COUNT>  (1) 
13

>  <PUBCHEM_ATOM_DEF_STEREO_COUNT>  (1) 
0

>  <PUBCHEM_ATOM_UDEF_STEREO_COUNT>  (1) 
1

>  <PUBCHEM_BOND_DEF_STEREO_COUNT>  (1) 
0

>  <PUBCHEM_BOND_UDEF_STEREO_COUNT>  (1) 
0

>  <PUBCHEM_ISOTOPIC_ATOM_COUNT>  (1) 
0

>  <PUBCHEM_COMPONENT_COUNT>  (1) 
1

>  <PUBCHEM_CACTVS_TAUTO_COUNT>  (1) 
1

>  <PUBCHEM_CONFORMER_ID>  (1) 
0000A6F900000002

>  <PUBCHEM_MMFF94_ENERGY>  (1) 
33.1633

>  <PUBCHEM_FEATURE_SELFOVERLAP>  (1) 
20.547

>  <PUBCHEM_SHAPE_FINGERPRINT>  (1) 
10618630 7 18411141290249384991
13296908 3 18271240500362483870
13705890 14 16588029000229452802
14251717 144 18270956955021632406
14252887 29 18413116064756848242
14957384 54 14620515571453210507
15375462 189 18272094893853732822
15635459 17 18334577975113199315
19107657 9 9871465469466034251
19766037 51 18336278872203442223
20201158 50 18408323284902407595
20281407 28 18342455911311449901
20281475 54 18410860927732383949
20645477 70 18339069493234494847
20671657 53 17385729088253459156
20711985 344 17896304836537222357
20871998 22 18342179925392575276
21061003 4 17988922228187539144
23402539 116 14056998330414624406
23557571 272 17968650515411467420
581208 293 18268983357388228401
81228 2 17623555463761298336
81539 233 18118113908444144036
83771 10 18410579491494937333
94968 8 18260835929102996499

>  <PUBCHEM_SHAPE_MULTIPOLES>  (1) 
255.8
6.84
2.08
1.19
4.31
0.33
-0.24
-3.54
-0.19
-0.86
-0.07
0.18
-0.28
0.73

>  <PUBCHEM_SHAPE_SELFOVERLAP>  (1) 
476.939

>  <PUBCHEM_SHAPE_VOLUME>  (1) 
161.6

>  <PUBCHEM_COORDINATE_TYPE>  (1) 
2
5
10

$$$$
