42776
     RDKit          3D

 18 18  0  0  1  0  0  0  0  0999 V2000
   -0.0314   -1.5324    0.2665 O   0  0  0  0  0  0  0  0  0  0  0  0
   -1.5426   -2.9327   -0.7655 O   0  0  0  0  0  0  0  0  0  0  0  0
   -3.6501   -1.6952    0.4070 N   0  0  0  0  0  0  0  0  0  0  0  0
    3.7127    0.6305    0.1082 C   0  0  0  0  0  0  0  0  0  0  0  0
    2.4387   -0.1351   -0.3387 C   0  0  0  0  0  0  0  0  0  0  0  0
    2.3582   -1.6025    0.0917 C   0  0  0  0  0  0  0  0  0  0  0  0
    3.5839    2.0927   -0.3626 C   0  0  0  0  0  0  0  0  0  0  0  0
    3.8581    0.6229    1.6390 C   0  0  0  0  0  0  0  0  0  0  0  0
    4.9768    0.0248   -0.5240 C   0  0  0  0  0  0  0  0  0  0  0  0
    1.0420   -2.2362   -0.3437 C   0  0  0  0  0  0  0  0  0  0  0  0
   -2.3273   -1.1244    0.6753 C   0  0  0  0  0  0  0  0  0  0  0  0
   -1.2925   -1.9864   -0.0296 C   0  0  0  0  0  0  0  0  0  0  0  0
   -2.2544    0.3265    0.2495 C   0  0  0  0  0  0  0  0  0  0  0  0
   -2.6177    1.3132    1.1494 C   0  0  0  0  0  0  0  0  0  0  0  0
   -1.8256    0.6341   -1.0298 C   0  0  0  0  0  0  0  0  0  0  0  0
   -2.5503    2.6501    0.7573 C   0  0  0  0  0  0  0  0  0  0  0  0
   -1.7581    1.9712   -1.4217 C   0  0  0  0  0  0  0  0  0  0  0  0
   -2.1206    2.9790   -0.5281 C   0  0  0  0  0  0  0  0  0  0  0  0
  1 10  1  0
  1 12  1  0
  2 12  2  0
  3 11  1  0
  4  5  1  0
  4  7  1  0
  4  8  1  0
  4  9  1  0
  5  6  1  0
  6 10  1  0
 11 12  1  0
 11 13  1  0
 13 14  2  0
 13 15  1  0
 14 16  1  0
 15 17  2  0
 16 18  2  0
 17 18  1  0
M  END
>  <PUBCHEM_COMPOUND_CID>  (1) 
42776

>  <PUBCHEM_CONFORMER_RMSD>  (1) 
0.8

>  <PUBCHEM_CONFORMER_DIVERSEORDER>  (1) 
1
156
78
4
46
182
41
40
175
121
163
178
158
9
162
166
3
116
10
88
172
13
145
183
79
109
170
93
126
42
104
77
71
23
180
89
17
84
7
142
54
119
81
85
133
55
171
106
143
45
185
21
92
188
114
65
28
91
72
39
150
167
131
68
129
59
60
105
189
52
120
101
191
22
98
5
32
149
135
57
177
47
161
136
67
38
50
154
159
14
80
187
69
66
82
112
115
58
173
74
103
26
20
137
134
37
12
96
62
2
148
83
141
27
100
35
157
53
19
6
36
127
56
51
61
111
87
110
97
75
30
76
95
25
153
155
125
128
16
31
144
147
124
130
108
132
179
190
11
181
90
146
102
99
24
168
15
34
176
192
94
117
18
33
8
70
118
86
63
164
64
160
48
43
184
174
44
152
186
122
107
138
139
113
140
165
123
73
29
169
49
151

>  <PUBCHEM_MMFF94_PARTIAL_CHARGES>  (1) 
19
1 -0.43
10 0.28
11 0.47
12 0.66
13 -0.14
14 -0.15
15 -0.15
16 -0.15
17 -0.15
18 -0.15
2 -0.57
3 -0.99
35 0.15
36 0.15
37 0.36
38 0.36
39 0.15
40 0.15
41 0.15

>  <PUBCHEM_EFFECTIVE_ROTOR_COUNT>  (1) 
7

>  <PUBCHEM_PHARMACOPHORE_FEATURES>  (1) 
5
1 2 acceptor
1 3 cation
1 3 donor
4 4 7 8 9 hydrophobe
6 13 14 15 16 17 18 rings

>  <PUBCHEM_HEAVY_ATOM_COUNT>  (1) 
18

>  <PUBCHEM_ATOM_DEF_STEREO_COUNT>  (1) 
0

>  <PUBCHEM_ATOM_UDEF_STEREO_COUNT>  (1) 
1

>  <PUBCHEM_BOND_DEF_STEREO_COUNT>  (1) 
0

>  <PUBCHEM_BOND_UDEF_STEREO_COUNT>  (1) 
0

>  <PUBCHEM_ISOTOPIC_ATOM_COUNT>  (1) 
0

>  <PUBCHEM_COMPONENT_COUNT>  (1) 
1

>  <PUBCHEM_CACTVS_TAUTO_COUNT>  (1) 
1

>  <PUBCHEM_CONFORMER_ID>  (1) 
0000A71800000001

>  <PUBCHEM_MMFF94_ENERGY>  (1) 
40.5212

>  <PUBCHEM_FEATURE_SELFOVERLAP>  (1) 
25.371

>  <PUBCHEM_SHAPE_FINGERPRINT>  (1) 
10498660 4 18265046010844505092
10670039 82 18263097638123723988
11595378 159 18116975875539157168
11615756 256 18410863148626335668
11715629 250 18342455958909810226
12173636 292 18272369716095043593
12363563 72 9150588215619128832
12633257 1 18044649794262690224
128993 33 18339646629122172088
14123250 116 18129374921598758057
14142880 1 18408322160090467981
14251751 93 18407758140758527946
14251757 17 18057627390488632118
14466204 15 18409720756619719570
18186145 218 18199754648323906340
18219364 16 17975700484983805265
18981168 100 18270387305098694458
20510252 161 18411139155777258859
20621476 13 17254829780994311684
21095088 737 18199164304631565852
21524375 3 18120374255237311091
21652331 79 18264773327723942890
22182937 141 18341056207202693993
22749437 52 18339068311986944168
23557571 272 18339651138785501391
238 59 17106468313471482933
27216 239 18261400996580776929
350125 39 18339368456817413738
3524813 1 18201156662903788288
474 4 17909261378310589481
5048184 11 18337956679908945180
574716 61 12822169931426041640
7097593 13 17679001726415746850
8050 44 18339356344982732538

>  <PUBCHEM_SHAPE_MULTIPOLES>  (1) 
353.71
8
3.49
1.17
8.85
0.11
-0.13
-2.85
-0.96
-2.57
0.48
-0.07
-0.45
0.23

>  <PUBCHEM_SHAPE_SELFOVERLAP>  (1) 
710.682

>  <PUBCHEM_SHAPE_VOLUME>  (1) 
208.8

>  <PUBCHEM_COORDINATE_TYPE>  (1) 
2
5
10

$$$$
