42771
     RDKit          3D

 20 21  0  0  0  0  0  0  0  0999 V2000
    1.3265    0.6979   -0.5646 S   0  0  0  0  0  0  0  0  0  0  0  0
   -3.0499    3.3673   -0.6389 S   0  0  0  0  0  0  0  0  0  0  0  0
    5.5596   -0.1431    0.2745 S   0  0  0  0  0  0  0  0  0  0  0  0
   -1.2007   -0.3135   -0.5469 N   0  0  0  0  0  0  0  0  0  0  0  0
    0.3602   -1.7334    0.1514 N   0  0  0  0  0  0  0  0  0  0  0  0
   -1.8187    0.8949   -1.0490 C   0  0  0  0  0  0  0  0  0  0  0  0
   -1.8702   -1.4688   -0.2345 C   0  0  0  0  0  0  0  0  0  0  0  0
    0.1278   -0.5210   -0.2996 C   0  0  0  0  0  0  0  0  0  0  0  0
   -0.8741   -2.3396    0.1988 C   0  0  0  0  0  0  0  0  0  0  0  0
   -2.2614    1.8747    0.0376 C   0  0  0  0  0  0  0  0  0  0  0  0
   -3.2203   -1.8164   -0.2918 C   0  0  0  0  0  0  0  0  0  0  0  0
   -1.2278   -3.6382    0.6025 C   0  0  0  0  0  0  0  0  0  0  0  0
    2.8367   -0.1762   -0.0630 C   0  0  0  0  0  0  0  0  0  0  0  0
   -3.5544   -3.1126    0.1139 C   0  0  0  0  0  0  0  0  0  0  0  0
   -2.5774   -4.0088    0.5533 C   0  0  0  0  0  0  0  0  0  0  0  0
    4.0461    0.7344   -0.2197 C   0  0  0  0  0  0  0  0  0  0  0  0
   -3.3985    4.2072    0.9226 C   0  0  0  0  0  0  0  0  0  0  0  0
   -4.0837    5.5369    0.6710 C   0  0  0  0  0  0  0  0  0  0  0  0
    6.7366    1.2040    0.0192 C   0  0  0  0  0  0  0  0  0  0  0  0
    8.1438    0.7544    0.3632 C   0  0  0  0  0  0  0  0  0  0  0  0
  1  8  1  0
  1 13  1  0
  2 10  1  0
  2 17  1  0
  3 16  1  0
  3 19  1  0
  4  6  1  0
  4  7  1  0
  4  8  1  0
  5  8  2  0
  5  9  1  0
  6 10  1  0
  7  9  2  0
  7 11  1  0
  9 12  1  0
 11 14  2  0
 12 15  2  0
 13 16  1  0
 14 15  1  0
 17 18  1  0
 19 20  1  0
M  END
>  <PUBCHEM_COMPOUND_CID>  (1) 
42771

>  <PUBCHEM_CONFORMER_RMSD>  (1) 
1

>  <PUBCHEM_CONFORMER_DIVERSEORDER>  (1) 
1
21
181
83
91
10
121
148
124
143
27
108
147
188
112
174
30
132
25
6
61
166
162
164
93
171
135
170
173
26
144
75
4
70
156
122
43
16
163
7
187
154
182
106
72
115
39
48
126
153
123
186
9
179
96
68
34
150
69
22
18
81
73
13
129
160
67
80
105
79
169
63
152
142
185
107
99
82
92
52
23
89
86
8
114
66
161
103
64
140
120
146
100
5
11
14
158
19
37
159
183
149
119
29
139
60
42
165
98
71
50
24
127
57
151
17
51
110
38
117
2
177
175
178
184
54
131
88
125
94
74
155
33
180
65
31
157
32
104
15
167
56
12
36
85
130
58
90
128
138
145
40
141
133
45
111
78
3
59
55
95
62
87
46
137
116
101
28
168
113
49
77
41
172
97
84
176
20
44
118
35
109
47
76
134
102
136
53

>  <PUBCHEM_MMFF94_PARTIAL_CHARGES>  (1) 
22
1 -0.29
10 0.23
11 -0.15
12 -0.15
13 0.23
14 -0.15
15 -0.15
16 0.23
17 0.23
19 0.23
2 -0.46
25 0.15
26 0.15
29 0.15
3 -0.46
30 0.15
4 0.05
5 -0.57
6 0.26
7 -0.15
8 0.24
9 0.23

>  <PUBCHEM_EFFECTIVE_ROTOR_COUNT>  (1) 
9

>  <PUBCHEM_PHARMACOPHORE_FEATURES>  (1) 
6
1 18 hydrophobe
1 20 hydrophobe
3 4 5 8 cation
5 1 3 13 16 19 hydrophobe
5 4 5 7 8 9 rings
6 7 9 11 12 14 15 rings

>  <PUBCHEM_HEAVY_ATOM_COUNT>  (1) 
20

>  <PUBCHEM_ATOM_DEF_STEREO_COUNT>  (1) 
0

>  <PUBCHEM_ATOM_UDEF_STEREO_COUNT>  (1) 
0

>  <PUBCHEM_BOND_DEF_STEREO_COUNT>  (1) 
0

>  <PUBCHEM_BOND_UDEF_STEREO_COUNT>  (1) 
0

>  <PUBCHEM_ISOTOPIC_ATOM_COUNT>  (1) 
0

>  <PUBCHEM_COMPONENT_COUNT>  (1) 
1

>  <PUBCHEM_CACTVS_TAUTO_COUNT>  (1) 
1

>  <PUBCHEM_CONFORMER_ID>  (1) 
0000A71300000001

>  <PUBCHEM_MMFF94_ENERGY>  (1) 
30.1143

>  <PUBCHEM_FEATURE_SELFOVERLAP>  (1) 
30.553

>  <PUBCHEM_SHAPE_FINGERPRINT>  (1) 
10411042 1 17976821209682487679
11315181 36 17968935418330683862
12293681 160 18192965258949702495
12390115 104 18340215072291545572
12788726 201 18262525921356047802
13073987 5 18335976541878320698
13140716 1 18120100730213293411
13288520 33 18116992389404066782
13955234 65 17328314545994754841
14565420 104 17907868305885033817
14790565 3 17905607705360955684
15778101 99 18411138001138132772
16126227 98 18340491066769128608
17844677 252 18336549438923459724
17980427 26 17835790907472491693
21267235 1 17825106162480268395
21426921 1 18336826485123905710
2297311 6 18264210390919596350
23402539 116 18268707397492898359
23522609 53 17822592555631953140
23558518 356 18261119542842045390
23559900 14 17973996547267174092
23845131 108 18119815703720765257
23929065 36 18269818947797427688
283562 15 18408316705455966031
335352 9 18188765197219650567
4214541 1 18261669376813917350
5104073 3 18334563635060891018
57634706 229 18128552478485905592
77188 2 17834397096238005101
9981440 41 18120383064352710713

>  <PUBCHEM_SHAPE_MULTIPOLES>  (1) 
413.18
13.53
6.69
0.86
41.58
4.77
-0.02
10.45
2.19
-16.42
2.3
-0.4
0.32
-0.61

>  <PUBCHEM_SHAPE_SELFOVERLAP>  (1) 
797.415

>  <PUBCHEM_SHAPE_VOLUME>  (1) 
256.4

>  <PUBCHEM_COORDINATE_TYPE>  (1) 
2
5
10

$$$$
