42782
     RDKit          3D

 17 16  0  0  1  0  0  0  0  0999 V2000
    1.2961    1.8475   -0.4454 O   0  0  0  0  0  0  0  0  0  0  0  0
    0.8325    1.1920    1.7165 O   0  0  0  0  0  0  0  0  0  0  0  0
    1.4860   -1.3578    0.3967 N   0  0  0  0  0  0  0  0  0  0  0  0
   -3.4091   -0.0607   -0.0288 C   0  0  0  0  0  0  0  0  0  0  0  0
   -1.9220    0.2398   -0.3608 C   0  0  0  0  0  0  0  0  0  0  0  0
   -0.8990   -0.7703    0.1833 C   0  0  0  0  0  0  0  0  0  0  0  0
    0.5483   -0.3652   -0.1327 C   0  0  0  0  0  0  0  0  0  0  0  0
   -3.8605   -1.3921   -0.6509 C   0  0  0  0  0  0  0  0  0  0  0  0
   -4.3304    1.0674   -0.5219 C   0  0  0  0  0  0  0  0  0  0  0  0
   -3.5456   -0.1656    1.5031 C   0  0  0  0  0  0  0  0  0  0  0  0
    1.1755   -2.6846   -0.1323 C   0  0  0  0  0  0  0  0  0  0  0  0
    2.8609   -0.9844    0.0698 C   0  0  0  0  0  0  0  0  0  0  0  0
    0.9080    0.9586    0.5166 C   0  0  0  0  0  0  0  0  0  0  0  0
    1.3269   -2.7223   -1.6436 C   0  0  0  0  0  0  0  0  0  0  0  0
    3.8532   -1.9711    0.6613 C   0  0  0  0  0  0  0  0  0  0  0  0
    1.6370    3.1556    0.0244 C   0  0  0  0  0  0  0  0  0  0  0  0
    2.0423    4.0132   -1.1553 C   0  0  0  0  0  0  0  0  0  0  0  0
  1 13  1  0
  1 16  1  0
  2 13  2  0
  3  7  1  0
  3 11  1  0
  3 12  1  0
  4  5  1  0
  4  8  1  0
  4  9  1  0
  4 10  1  0
  5  6  1  0
  6  7  1  0
  7 13  1  0
 11 14  1  0
 12 15  1  0
 16 17  1  0
M  END
>  <PUBCHEM_COMPOUND_CID>  (1) 
42782

>  <PUBCHEM_CONFORMER_RMSD>  (1) 
0.8

>  <PUBCHEM_CONFORMER_DIVERSEORDER>  (1) 
2
70
67
16
57
41
53
60
20
65
51
69
55
26
27
71
43
19
24
42
49
66
21
72
63
40
18
56
22
47
28
48
33
34
15
31
17
54
23
52
38
6
32
39
64
37
14
62
50
25
3
12
4
59
68
36
35
30
58
44
7
8
5
46
13
29
11
61
9
10
45
1

>  <PUBCHEM_MMFF94_PARTIAL_CHARGES>  (1) 
8
1 -0.43
11 0.27
12 0.27
13 0.66
16 0.28
2 -0.57
3 -0.81
7 0.33

>  <PUBCHEM_EFFECTIVE_ROTOR_COUNT>  (1) 
9

>  <PUBCHEM_PHARMACOPHORE_FEATURES>  (1) 
3
1 2 acceptor
1 3 cation
4 4 8 9 10 hydrophobe

>  <PUBCHEM_HEAVY_ATOM_COUNT>  (1) 
17

>  <PUBCHEM_ATOM_DEF_STEREO_COUNT>  (1) 
0

>  <PUBCHEM_ATOM_UDEF_STEREO_COUNT>  (1) 
1

>  <PUBCHEM_BOND_DEF_STEREO_COUNT>  (1) 
0

>  <PUBCHEM_BOND_UDEF_STEREO_COUNT>  (1) 
0

>  <PUBCHEM_ISOTOPIC_ATOM_COUNT>  (1) 
0

>  <PUBCHEM_COMPONENT_COUNT>  (1) 
1

>  <PUBCHEM_CACTVS_TAUTO_COUNT>  (1) 
1

>  <PUBCHEM_CONFORMER_ID>  (1) 
0000A71E00000002

>  <PUBCHEM_MMFF94_ENERGY>  (1) 
34.9064

>  <PUBCHEM_FEATURE_SELFOVERLAP>  (1) 
15.223

>  <PUBCHEM_SHAPE_FINGERPRINT>  (1) 
116883 192 17764589819865001668
12173636 292 17255963897347457044
12759256 9 18411987961447412619
13134695 92 18261383417290086462
13681431 1 18340217292778769732
14181834 199 18409454712553297838
14250199 8 18409727366157786165
14648413 74 18334295387781825553
16945 1 18339934739733742675
17134986 127 18120093046332347276
1813 80 18198075689573177046
18785283 64 18189629391308725992
20511035 2 18127400362092984250
20600515 1 18268437849629539626
20645477 70 18411130364522594463
20671657 1 18268989963105873960
20739085 24 18340494378689229416
21285901 2 17551502254810516349
21501502 16 18269837678418973499
21524375 3 17979074112911936136
2255824 54 18412265072816484831
23402539 116 18268136570558821762
23419403 2 17896575359378697844
23526113 38 18115308865255439659
23557571 272 17903074439355686566
23558518 356 18050268564837534586
23559900 14 18341314666198504619
2748010 2 17910391688895605207
298252 57 17830455346805190672
312423 11 18130511941792991679
3250762 1 17971486336082451746
458136 41 18121235417570398409
6049 1 17749680653336924369
68521 5 18048314449364578572
7364860 26 18410572920121231893
81228 2 17762911960926359448

>  <PUBCHEM_SHAPE_MULTIPOLES>  (1) 
333.13
6.77
4.01
1.23
6.81
3.64
-0.09
-1.4
-0.25
-5.01
1.67
0.03
-0.06
-0.44

>  <PUBCHEM_SHAPE_SELFOVERLAP>  (1) 
628.312

>  <PUBCHEM_SHAPE_VOLUME>  (1) 
209.8

>  <PUBCHEM_COORDINATE_TYPE>  (1) 
2
5
10

$$$$
