42788
     RDKit          3D

 13 12  0  0  0  0  0  0  0  0999 V2000
    3.4954    0.4000    0.2633 N   0  0  0  0  0  0  0  0  0  0  0  0
   -3.0977   -0.1270    0.3622 N   0  0  0  0  0  0  0  0  0  0  0  0
    5.7750    0.0049    0.4034 N   0  0  0  0  0  0  0  0  0  0  0  0
    4.5175   -1.5608   -0.6749 N   0  0  0  0  0  0  0  0  0  0  0  0
   -4.6933   -1.7849    0.6400 N   0  0  0  0  0  0  0  0  0  0  0  0
   -5.2287   -0.0547   -0.7438 N   0  0  0  0  0  0  0  0  0  0  0  0
   -0.2671    0.5143   -0.2375 C   0  0  0  0  0  0  0  0  0  0  0  0
    1.1267    0.9439    0.2220 C   0  0  0  0  0  0  0  0  0  0  0  0
   -1.3259    1.5472    0.1599 C   0  0  0  0  0  0  0  0  0  0  0  0
    2.1879   -0.0628   -0.2040 C   0  0  0  0  0  0  0  0  0  0  0  0
   -2.7297    1.1394   -0.2729 C   0  0  0  0  0  0  0  0  0  0  0  0
    4.5125   -0.3595   -0.0015 C   0  0  0  0  0  0  0  0  0  0  0  0
   -4.2725   -0.5999    0.0837 C   0  0  0  0  0  0  0  0  0  0  0  0
  1 10  1  0
  1 12  2  3
  2 11  1  0
  2 13  2  3
  3 12  1  0
  4 12  1  0
  5 13  1  0
  6 13  1  0
  7  8  1  0
  7  9  1  0
  8 10  1  0
  9 11  1  0
M  END
>  <PUBCHEM_COMPOUND_CID>  (1) 
42788

>  <PUBCHEM_CONFORMER_RMSD>  (1) 
0.6

>  <PUBCHEM_CONFORMER_DIVERSEORDER>  (1) 
1
113
148
4
135
22
106
30
85
76
201
34
175
217
108
2
221
19
209
158
169
82
9
97
220
153
23
214
43
72
183
65
32
188
3
171
14
194
118
8
131
95
12
144
11
206
99
5
105
207
134
182
168
13
164
10
179
80
21
93
63
192
17
75
218
104
66
137
133
215
126
117
52
136
121
210
33
145
89
69
18
176
187
48
114
45
160
110
170
27
222
191
204
116
20
81
62
111
202
53
186
142
39
44
213
46
130
84
159
178
120
102
161
96
88
143
141
211
6
25
15
122
154
132
181
138
7
92
103
91
196
216
127
64
35
24
67
162
165
100
156
163
78
123
173
70
98
77
87
208
42
129
31
29
101
125
57
157
174
112
147
86
140
146
200
59
128
152
68
60
26
219
193
61
71
150
155
109
115
38
49
90
47
41
58
83
119
190
73
79
197
149
51
205
199
107
56
139
185
212
16
36
172
198
28
195
151
124
177
184
74
54
50
166
180
167
55
40
94
189
203
37

>  <PUBCHEM_MMFF94_PARTIAL_CHARGES>  (1) 
18
1 -0.7
10 0.25
11 0.25
12 0.55
13 0.55
2 -0.7
24 0.4
25 0.4
26 0.4
27 0.4
28 0.4
29 0.4
3 -0.85
30 0.4
31 0.4
4 -0.85
5 -0.85
6 -0.85

>  <PUBCHEM_EFFECTIVE_ROTOR_COUNT>  (1) 
6

>  <PUBCHEM_PHARMACOPHORE_FEATURES>  (1) 
6
1 3 donor
1 4 donor
1 5 donor
1 6 donor
4 1 3 4 12 cation
4 2 5 6 13 cation

>  <PUBCHEM_HEAVY_ATOM_COUNT>  (1) 
13

>  <PUBCHEM_ATOM_DEF_STEREO_COUNT>  (1) 
0

>  <PUBCHEM_ATOM_UDEF_STEREO_COUNT>  (1) 
0

>  <PUBCHEM_BOND_DEF_STEREO_COUNT>  (1) 
0

>  <PUBCHEM_BOND_UDEF_STEREO_COUNT>  (1) 
0

>  <PUBCHEM_ISOTOPIC_ATOM_COUNT>  (1) 
0

>  <PUBCHEM_COMPONENT_COUNT>  (1) 
1

>  <PUBCHEM_CACTVS_TAUTO_COUNT>  (1) 
3

>  <PUBCHEM_CONFORMER_ID>  (1) 
0000A72400000001

>  <PUBCHEM_MMFF94_ENERGY>  (1) 
28.3548

>  <PUBCHEM_FEATURE_SELFOVERLAP>  (1) 
30.56

>  <PUBCHEM_SHAPE_FINGERPRINT>  (1) 
100836 57 10231755608613820680
10354089 29 12967128319954729922
10803635 8 17458335343416264731
12032990 46 18341897368226745100
13237642 15 18131626790495624960
14123238 8 17918274251280211212
14123255 352 9799418802014623195
1420 363 18343023289697815734
14251718 22 18187366545413979836
14251732 16 18336826494120334056
14252887 29 17203616956365858420
14455015 7 17917436384934030022
17834072 33 18187651336063381732
17834072 8 18040425599865074813
17834076 25 13623529047933670301
17870717 6 18113622261910750743
20374829 77 18259981587420256713
20432913 95 17917715690477508686
20605781 2 9007063456950382267
20621476 51 17699845417515390343
20645477 56 9367344847113234313
20724930 31 18343584044828120184
20724930 69 9871750195516632181
212847 35 10015860986363453038
23402539 116 17312818260286505901
23402655 69 12324231776539797521
23403322 49 18407760348371795995
23559900 14 18261948647950743785
474229 33 18413107268911986174
49783359 22 17989204837088194743
5104073 3 17988078860425803370

>  <PUBCHEM_SHAPE_MULTIPOLES>  (1) 
237.65
13.45
1.41
0.71
4.35
0.22
0.03
5.83
0.02
-0.86
-0.06
-0.15
0.07
0.77

>  <PUBCHEM_SHAPE_SELFOVERLAP>  (1) 
443.497

>  <PUBCHEM_SHAPE_VOLUME>  (1) 
144.5

>  <PUBCHEM_COORDINATE_TYPE>  (1) 
2
5
10

$$$$
