42799
     RDKit          3D

 13 14  0  0  1  0  0  0  0  0999 V2000
    2.4962    0.9562    0.3036 O   0  0  0  0  0  0  0  0  0  0  0  0
   -3.8026    0.6480   -0.2653 O   0  0  0  0  0  0  0  0  0  0  0  0
    3.0578   -0.3802    0.2202 C   0  0  0  0  0  0  0  0  0  0  0  0
    1.9439   -1.4118    0.4651 C   0  0  0  0  0  0  0  0  0  0  0  0
    0.7562   -0.5571    0.2474 C   0  0  0  0  0  0  0  0  0  0  0  0
    1.1425    0.7720    0.1923 C   0  0  0  0  0  0  0  0  0  0  0  0
    3.7206   -0.5415   -1.1457 C   0  0  0  0  0  0  0  0  0  0  0  0
   -0.5777   -0.9125    0.1591 C   0  0  0  0  0  0  0  0  0  0  0  0
    0.2250    1.7949    0.0475 C   0  0  0  0  0  0  0  0  0  0  0  0
   -1.5231    0.1045    0.0025 C   0  0  0  0  0  0  0  0  0  0  0  0
   -1.1241    1.4500   -0.0521 C   0  0  0  0  0  0  0  0  0  0  0  0
   -2.9330   -0.2332   -0.1160 C   0  0  0  0  0  0  0  0  0  0  0  0
   -3.3818   -1.6892   -0.0587 C   0  0  0  0  0  0  0  0  0  0  0  0
  1  3  1  0
  1  6  1  0
  2 12  2  0
  3  4  1  0
  3  7  1  0
  4  5  1  0
  5  6  2  0
  5  8  1  0
  6  9  1  0
  8 10  2  0
  9 11  2  0
 10 11  1  0
 10 12  1  0
 12 13  1  0
M  END
>  <PUBCHEM_COMPOUND_CID>  (1) 
42799

>  <PUBCHEM_CONFORMER_RMSD>  (1) 
0.6

>  <PUBCHEM_CONFORMER_DIVERSEORDER>  (1) 
3
6
2
8
1
7
4
5

>  <PUBCHEM_MMFF94_PARTIAL_CHARGES>  (1) 
15
1 -0.36
10 0.09
11 -0.15
12 0.42
13 0.06
2 -0.57
20 0.15
21 0.15
22 0.15
3 0.28
4 0.14
5 -0.14
6 0.08
8 -0.15
9 -0.15

>  <PUBCHEM_EFFECTIVE_ROTOR_COUNT>  (1) 
1.6

>  <PUBCHEM_PHARMACOPHORE_FEATURES>  (1) 
4
1 1 acceptor
1 2 acceptor
5 1 3 4 5 6 rings
6 5 6 8 9 10 11 rings

>  <PUBCHEM_HEAVY_ATOM_COUNT>  (1) 
13

>  <PUBCHEM_ATOM_DEF_STEREO_COUNT>  (1) 
0

>  <PUBCHEM_ATOM_UDEF_STEREO_COUNT>  (1) 
1

>  <PUBCHEM_BOND_DEF_STEREO_COUNT>  (1) 
0

>  <PUBCHEM_BOND_UDEF_STEREO_COUNT>  (1) 
0

>  <PUBCHEM_ISOTOPIC_ATOM_COUNT>  (1) 
0

>  <PUBCHEM_COMPONENT_COUNT>  (1) 
1

>  <PUBCHEM_CACTVS_TAUTO_COUNT>  (1) 
2

>  <PUBCHEM_CONFORMER_ID>  (1) 
0000A72F00000003

>  <PUBCHEM_MMFF94_ENERGY>  (1) 
37.2217

>  <PUBCHEM_FEATURE_SELFOVERLAP>  (1) 
20.398

>  <PUBCHEM_SHAPE_FINGERPRINT>  (1) 
10219947 1 17703791431069734767
10465860 71 18339660983082035468
11132069 177 18412256237984159651
11206711 2 18334575690011009460
11471102 20 18409721872441018421
11543360 7 15792016730846622979
11769659 78 18412536635114203755
12032990 46 18412831308356609927
12897270 3 18409165493692490946
12932764 1 17676756618033994259
13296908 3 18341891922065594119
14128692 85 18411139160008851021
14144814 61 18410852153283035907
14252887 29 18060143158506986794
14325111 11 18410289246247586889
14911166 2 18409167696936834999
14993402 34 18342173367040843935
15536298 74 18271524298895642872
161256 15 18412538825690053520
16945 1 18408881811071013208
18186145 218 18261106383219843477
19026448 5 15863782898415562657
193761 8 17617936933319591299
20201158 50 18408319973593385731
20281407 28 18411138021784398019
20645477 70 18269828891031833399
21501502 16 18120938300211804922
221490 88 18119533390771770627
23402539 116 18409160013810275518
23402655 69 18335136453899865109
23463225 33 18409163281684230171
23552423 10 18260829327632637441
23559900 14 18411699873107172402
2748010 2 18048036560326903026
3312278 4 18408604751552745995
528886 8 18410567383855393171
7364860 26 18127691753990958248
8030462 33 18114750334849369050
8809292 202 18260832622210482227

>  <PUBCHEM_SHAPE_MULTIPOLES>  (1) 
255.8
6.04
1.68
0.75
1.07
0.19
0.1
-1.76
1.2
0.43
-0.07
-0.43
-0.08
0.11

>  <PUBCHEM_SHAPE_SELFOVERLAP>  (1) 
549.309

>  <PUBCHEM_SHAPE_VOLUME>  (1) 
144

>  <PUBCHEM_COORDINATE_TYPE>  (1) 
2
5
10

$$$$
