42793
     RDKit          3D

 36 37  0  0  0  0  0  0  0  0999 V2000
    5.3484   -1.5275    1.0161 O   0  0  0  0  0  0  0  0  0  0  0  0
   -5.3583   -1.5304   -1.0155 O   0  0  0  0  0  0  0  0  0  0  0  0
    7.0174    3.2790    1.8246 O   0  0  0  0  0  0  0  0  0  0  0  0
   -6.9752    3.2902   -1.8226 O   0  0  0  0  0  0  0  0  0  0  0  0
    7.2651   -1.4042   -0.3471 N   0  0  0  0  0  0  0  0  0  0  0  0
   -7.2785   -1.3931    0.3414 N   0  0  0  0  0  0  0  0  0  0  0  0
    7.7723   -0.0573   -0.8450 C   0  0  0  0  0  0  0  0  0  0  0  0
   -7.7739   -0.0420    0.8394 C   0  0  0  0  0  0  0  0  0  0  0  0
    7.4985    1.0002    0.2172 C   0  0  0  0  0  0  0  0  0  0  0  0
   -7.4855    1.0141   -0.2203 C   0  0  0  0  0  0  0  0  0  0  0  0
    5.7614   -1.2981   -0.1169 C   0  0  0  0  0  0  0  0  0  0  0  0
   -5.7729   -1.3021    0.1171 C   0  0  0  0  0  0  0  0  0  0  0  0
    7.5680   -2.4731   -1.4000 C   0  0  0  0  0  0  0  0  0  0  0  0
    7.9849   -1.7917    0.9396 C   0  0  0  0  0  0  0  0  0  0  0  0
   -7.9972   -1.7717   -0.9486 C   0  0  0  0  0  0  0  0  0  0  0  0
   -7.5961   -2.4605    1.3915 C   0  0  0  0  0  0  0  0  0  0  0  0
    4.8345   -0.9297   -1.2680 C   0  0  0  0  0  0  0  0  0  0  0  0
   -4.8613   -0.9452    1.2760 C   0  0  0  0  0  0  0  0  0  0  0  0
    7.9340    2.3937   -0.2326 C   0  0  0  0  0  0  0  0  0  0  0  0
   -7.9087    2.4113    0.2298 C   0  0  0  0  0  0  0  0  0  0  0  0
    3.3919   -0.9322   -0.8903 C   0  0  0  0  0  0  0  0  0  0  0  0
   -3.4036   -0.9430    0.8943 C   0  0  0  0  0  0  0  0  0  0  0  0
    7.6108    3.4907    0.7683 C   0  0  0  0  0  0  0  0  0  0  0  0
   -7.5705    3.5064   -0.7683 C   0  0  0  0  0  0  0  0  0  0  0  0
    2.7967    0.2320   -0.4045 C   0  0  0  0  0  0  0  0  0  0  0  0
   -2.8089    0.2264    0.4204 C   0  0  0  0  0  0  0  0  0  0  0  0
    2.6380   -2.0984   -1.0223 C   0  0  0  0  0  0  0  0  0  0  0  0
   -2.6491   -2.1101    1.0141 C   0  0  0  0  0  0  0  0  0  0  0  0
    0.6937   -0.9362   -0.1821 C   0  0  0  0  0  0  0  0  0  0  0  0
   -0.7053   -0.9384    0.1861 C   0  0  0  0  0  0  0  0  0  0  0  0
    1.4475    0.2300   -0.0504 C   0  0  0  0  0  0  0  0  0  0  0  0
   -1.4597    0.2287    0.0665 C   0  0  0  0  0  0  0  0  0  0  0  0
    1.2889   -2.1004   -0.6681 C   0  0  0  0  0  0  0  0  0  0  0  0
   -1.3000   -2.1078    0.6600 C   0  0  0  0  0  0  0  0  0  0  0  0
    8.0291    4.8854    0.3809 C   0  0  0  0  0  0  0  0  0  0  0  0
   -7.9763    4.9047   -0.3804 C   0  0  0  0  0  0  0  0  0  0  0  0
  1 11  2  0
  2 12  2  0
  3 23  2  0
  4 24  2  0
  5  7  1  0
  5 11  1  0
  5 13  1  0
  5 14  1  0
  6  8  1  0
  6 12  1  0
  6 15  1  0
  6 16  1  0
  7  9  1  0
  8 10  1  0
  9 19  1  0
 10 20  1  0
 11 17  1  0
 12 18  1  0
 17 21  1  0
 18 22  1  0
 19 23  1  0
 20 24  1  0
 21 25  2  0
 21 27  1  0
 22 26  2  0
 22 28  1  0
 23 35  1  0
 24 36  1  0
 25 31  1  0
 26 32  1  0
 27 33  2  0
 28 34  2  0
 29 30  1  0
 29 31  2  0
 29 33  1  0
 30 32  2  0
 30 34  1  0
M  CHG  2   5   1   6   1
M  END
>  <PUBCHEM_COMPOUND_CID>  (1) 
42793

>  <PUBCHEM_CONFORMER_RMSD>  (1) 
1.4

>  <PUBCHEM_CONFORMER_DIVERSEORDER>  (1) 
1
14
22
40
15
49
27
30
45
47
42
32
24
7
20
48
2
18
3
44
26
34
37
16
39
19
12
25
38
33
35
4
43
23
5
13
36
11
31
9
41
10
29
28
46
8
6
21
17

>  <PUBCHEM_MMFF94_PARTIAL_CHARGES>  (1) 
40
1 -0.57
11 0.9
12 0.9
13 0.5
14 0.5
15 0.5
16 0.5
17 0.2
18 0.2
19 0.06
2 -0.57
20 0.06
21 -0.14
22 -0.14
23 0.45
24 0.45
25 -0.15
26 -0.15
27 -0.15
28 -0.15
3 -0.57
31 -0.15
32 -0.15
33 -0.15
34 -0.15
35 0.06
36 0.06
4 -0.57
5 -0.91
6 -0.91
65 0.15
66 0.15
67 0.15
68 0.15
69 0.15
7 0.5
70 0.15
71 0.15
72 0.15
8 0.5

>  <PUBCHEM_EFFECTIVE_ROTOR_COUNT>  (1) 
15

>  <PUBCHEM_PHARMACOPHORE_FEATURES>  (1) 
6
1 1 acceptor
1 2 acceptor
1 3 acceptor
1 4 acceptor
6 21 25 27 29 31 33 rings
6 22 26 28 30 32 34 rings

>  <PUBCHEM_HEAVY_ATOM_COUNT>  (1) 
36

>  <PUBCHEM_ATOM_DEF_STEREO_COUNT>  (1) 
0

>  <PUBCHEM_ATOM_UDEF_STEREO_COUNT>  (1) 
0

>  <PUBCHEM_BOND_DEF_STEREO_COUNT>  (1) 
0

>  <PUBCHEM_BOND_UDEF_STEREO_COUNT>  (1) 
0

>  <PUBCHEM_ISOTOPIC_ATOM_COUNT>  (1) 
0

>  <PUBCHEM_COMPONENT_COUNT>  (1) 
1

>  <PUBCHEM_CACTVS_TAUTO_COUNT>  (1) 
6

>  <PUBCHEM_CONFORMER_ID>  (1) 
0000A72900000001

>  <PUBCHEM_MMFF94_ENERGY>  (1) 
101.5496

>  <PUBCHEM_FEATURE_SELFOVERLAP>  (1) 
30.449

>  <PUBCHEM_SHAPE_FINGERPRINT>  (1) 
11181472 205 18264490581289414682
11578821 258 18343867701643787377
12013929 2 18335426708708107222
12082328 90 18333734611667840943
14017579 104 18410848885002789522
14040221 8 18187934959177757820
14400156 413 18272368660055841584
15183329 4 15791730797651972819
15530121 191 18412266164034343576
15604295 49 18411981373690812673
15840311 113 18411423951718198806
16120349 18 18271526494325349706
21781051 124 8646765612636502848
4258327 124 17632021978357436798
444735 82 18410578426886841156
44802255 64 18060415773989897399
4625314 4 18343867710581530654
49967989 163 14045442489251193309
636775 72 18335703832771969129
6691757 9 15430047560887633979

>  <PUBCHEM_SHAPE_MULTIPOLES>  (1) 
707.42
35.82
5.05
1.28
0.44
8.95
0
23.45
0.03
-0.03
-0.01
0
-0.05
5.36

>  <PUBCHEM_SHAPE_SELFOVERLAP>  (1) 
1445.411

>  <PUBCHEM_SHAPE_VOLUME>  (1) 
411.2

>  <PUBCHEM_COORDINATE_TYPE>  (1) 
2
5
10

$$$$
