42802
     RDKit          3D

 10  9  0  0  1  0  0  0  0  0999 V2000
   -2.8499   -0.4519    1.0564 O   0  0  0  0  0  0  0  0  0  0  0  0
    1.1481   -1.1585   -0.5484 C   0  0  0  0  0  0  0  0  0  0  0  0
    1.9264    0.1636   -0.7118 C   0  0  0  0  0  0  0  0  0  0  0  0
   -0.2559   -1.0029    0.0752 C   0  0  0  0  0  0  0  0  0  0  0  0
    2.2279    0.9090    0.5911 C   0  0  0  0  0  0  0  0  0  0  0  0
    1.9550   -2.1844    0.2562 C   0  0  0  0  0  0  0  0  0  0  0  0
   -1.1539    0.0375   -0.5955 C   0  0  0  0  0  0  0  0  0  0  0  0
    2.9259    2.2338    0.3188 C   0  0  0  0  0  0  0  0  0  0  0  0
   -2.4995    0.2175    0.0858 C   0  0  0  0  0  0  0  0  0  0  0  0
   -3.4242    1.2363   -0.5278 C   0  0  0  0  0  0  0  0  0  0  0  0
  1  9  2  0
  2  3  1  0
  2  4  1  0
  2  6  1  0
  3  5  1  0
  4  7  1  0
  5  8  1  0
  7  9  1  0
  9 10  1  0
M  END
>  <PUBCHEM_COMPOUND_CID>  (1) 
42802

>  <PUBCHEM_CONFORMER_RMSD>  (1) 
0.6

>  <PUBCHEM_CONFORMER_DIVERSEORDER>  (1) 
2
127
50
131
52
87
106
67
104
111
72
75
117
16
128
132
110
62
118
96
37
140
119
74
142
98
66
120
107
21
78
115
97
71
92
133
44
138
73
121
102
80
59
100
32
113
81
109
79
45
134
42
143
70
129
5
89
85
126
86
88
19
112
56
68
94
76
136
36
25
69
137
26
93
90
41
15
124
101
34
48
105
83
130
54
12
114
63
91
60
125
77
46
49
65
95
58
103
55
108
61
27
123
53
135
31
116
33
43
84
39
82
24
141
47
28
64
13
57
139
99
18
8
122
29
17
11
35
40
4
38
22
10
1
7
51
30
3
20
14
144
23
9
6

>  <PUBCHEM_MMFF94_PARTIAL_CHARGES>  (1) 
4
1 -0.57
10 0.06
7 0.06
9 0.45

>  <PUBCHEM_EFFECTIVE_ROTOR_COUNT>  (1) 
5

>  <PUBCHEM_PHARMACOPHORE_FEATURES>  (1) 
4
1 1 acceptor
1 6 hydrophobe
1 8 hydrophobe
5 2 3 4 5 7 hydrophobe

>  <PUBCHEM_HEAVY_ATOM_COUNT>  (1) 
10

>  <PUBCHEM_ATOM_DEF_STEREO_COUNT>  (1) 
0

>  <PUBCHEM_ATOM_UDEF_STEREO_COUNT>  (1) 
1

>  <PUBCHEM_BOND_DEF_STEREO_COUNT>  (1) 
0

>  <PUBCHEM_BOND_UDEF_STEREO_COUNT>  (1) 
0

>  <PUBCHEM_ISOTOPIC_ATOM_COUNT>  (1) 
0

>  <PUBCHEM_COMPONENT_COUNT>  (1) 
1

>  <PUBCHEM_CACTVS_TAUTO_COUNT>  (1) 
3

>  <PUBCHEM_CONFORMER_ID>  (1) 
0000A73200000002

>  <PUBCHEM_MMFF94_ENERGY>  (1) 
6.8183

>  <PUBCHEM_FEATURE_SELFOVERLAP>  (1) 
20.338

>  <PUBCHEM_SHAPE_FINGERPRINT>  (1) 
10149128 76 18340763844610501292
10857977 72 17603877727507092799
12932741 1 18187934919726544727
12932764 1 18339091418910899303
13618510 140 18341611555064397472
13922767 16 18192141612158731367
14390081 3 18411419501383233957
15775835 57 18201999979458258708
170605 34 18201722898417415940
17841504 4 18192148196396577562
19973954 147 18338801096127465865
20605781 55 18055064630320636720
20653085 51 17701549630430576956
20671657 1 18413952784832019334
20711985 344 16756079160367287222
20715346 28 18186809062785082335
21028194 46 18337959003364406776
21524375 3 18056474187131556524
22096605 113 18341320154765905837
230 275 18201716254198052056
305870 269 18337945783660713570
3248919 1 17385447630847001039
8050 44 18410004447024679141
81228 2 17259336099641422154

>  <PUBCHEM_SHAPE_MULTIPOLES>  (1) 
199.93
5.5
2.12
0.89
3.44
0.11
-0.03
2.73
-0.45
-2.18
-0.21
0.14
-0.01
0.52

>  <PUBCHEM_SHAPE_SELFOVERLAP>  (1) 
359.894

>  <PUBCHEM_SHAPE_VOLUME>  (1) 
129.5

>  <PUBCHEM_COORDINATE_TYPE>  (1) 
2
5
10

$$$$
