42805
     RDKit          3D

 22 25  0  0  0  0  0  0  0  0999 V2000
   -0.7852   -0.0016   -1.2363 N   0  0  0  0  0  0  0  0  0  0  0  0
    3.0028    0.0019    0.5579 N   0  0  0  0  0  0  0  0  0  0  0  0
   -3.7561   -0.0012    2.6086 N   0  0  0  0  0  0  0  0  0  0  0  0
    0.4991   -0.0003   -0.6274 C   0  0  0  0  0  0  0  0  0  0  0  0
    1.1246    1.2149   -0.3308 C   0  0  0  0  0  0  0  0  0  0  0  0
    1.1267   -1.2144   -0.3307 C   0  0  0  0  0  0  0  0  0  0  0  0
    2.3939    1.1686    0.2701 C   0  0  0  0  0  0  0  0  0  0  0  0
    2.3959   -1.1658    0.2702 C   0  0  0  0  0  0  0  0  0  0  0  0
    0.5170    2.4497   -0.6179 C   0  0  0  0  0  0  0  0  0  0  0  0
    0.5212   -2.4502   -0.6176 C   0  0  0  0  0  0  0  0  0  0  0  0
   -2.0812   -0.0014   -0.7042 C   0  0  0  0  0  0  0  0  0  0  0  0
    3.0218    2.3751    0.5676 C   0  0  0  0  0  0  0  0  0  0  0  0
    3.0257   -2.3712    0.5682 C   0  0  0  0  0  0  0  0  0  0  0  0
    1.1660    3.6418   -0.3103 C   0  0  0  0  0  0  0  0  0  0  0  0
    1.1721   -3.6411   -0.3098 C   0  0  0  0  0  0  0  0  0  0  0  0
    2.4210    3.6039    0.2837 C   0  0  0  0  0  0  0  0  0  0  0  0
    2.4270   -3.6011    0.2844 C   0  0  0  0  0  0  0  0  0  0  0  0
   -2.2764   -0.0012    0.6818 C   0  0  0  0  0  0  0  0  0  0  0  0
   -3.1938   -0.0019   -1.5534 C   0  0  0  0  0  0  0  0  0  0  0  0
   -3.5670   -0.0011    1.2113 C   0  0  0  0  0  0  0  0  0  0  0  0
   -4.4843   -0.0018   -1.0238 C   0  0  0  0  0  0  0  0  0  0  0  0
   -4.6708   -0.0015    0.3584 C   0  0  0  0  0  0  0  0  0  0  0  0
  1  4  1  0
  1 11  1  0
  2  7  2  0
  2  8  1  0
  3 20  1  0
  4  5  2  0
  4  6  1  0
  5  7  1  0
  5  9  1  0
  6  8  2  0
  6 10  1  0
  7 12  1  0
  8 13  1  0
  9 14  2  0
 10 15  2  0
 11 18  2  0
 11 19  1  0
 12 16  2  0
 13 17  2  0
 14 16  1  0
 15 17  1  0
 18 20  1  0
 19 21  2  0
 20 22  2  0
 21 22  1  0
M  END
>  <PUBCHEM_COMPOUND_CID>  (1) 
42805

>  <PUBCHEM_CONFORMER_RMSD>  (1) 
0.6

>  <PUBCHEM_CONFORMER_DIVERSEORDER>  (1) 
1
4
5
7
6
3
8
2

>  <PUBCHEM_MMFF94_PARTIAL_CHARGES>  (1) 
35
1 -0.6
10 -0.15
11 0.1
12 -0.15
13 -0.15
14 -0.15
15 -0.15
16 -0.15
17 -0.15
18 -0.15
19 -0.15
2 -0.62
20 0.1
21 -0.15
22 -0.15
23 0.4
24 0.15
25 0.15
26 0.15
27 0.15
28 0.15
29 0.15
3 -0.9
30 0.15
31 0.15
32 0.15
33 0.15
34 0.15
35 0.15
36 0.4
37 0.4
4 0.1
7 0.31
8 0.31
9 -0.15

>  <PUBCHEM_EFFECTIVE_ROTOR_COUNT>  (1) 
2

>  <PUBCHEM_PHARMACOPHORE_FEATURES>  (1) 
9
1 1 cation
1 1 donor
1 2 acceptor
1 3 cation
1 3 donor
6 11 18 19 20 21 22 rings
6 2 4 5 6 7 8 rings
6 5 7 9 12 14 16 rings
6 6 8 10 13 15 17 rings

>  <PUBCHEM_HEAVY_ATOM_COUNT>  (1) 
22

>  <PUBCHEM_ATOM_DEF_STEREO_COUNT>  (1) 
0

>  <PUBCHEM_ATOM_UDEF_STEREO_COUNT>  (1) 
0

>  <PUBCHEM_BOND_DEF_STEREO_COUNT>  (1) 
0

>  <PUBCHEM_BOND_UDEF_STEREO_COUNT>  (1) 
0

>  <PUBCHEM_ISOTOPIC_ATOM_COUNT>  (1) 
0

>  <PUBCHEM_COMPONENT_COUNT>  (1) 
1

>  <PUBCHEM_CACTVS_TAUTO_COUNT>  (1) 
2

>  <PUBCHEM_CONFORMER_ID>  (1) 
0000A73500000001

>  <PUBCHEM_MMFF94_ENERGY>  (1) 
102.085

>  <PUBCHEM_FEATURE_SELFOVERLAP>  (1) 
45.732

>  <PUBCHEM_SHAPE_FINGERPRINT>  (1) 
10064457 181 17978797036150801504
10411042 1 18051400778193334726
1100329 8 18267574879404708442
11582403 64 16235265065407670373
11640471 11 17775293797906561097
11725454 13 16955017441697415319
12363563 72 18118403934489724891
12390115 104 17762627591511683700
12403259 327 16444724208095311601
12553582 1 18267868272388645286
12788726 201 17253987550665230707
12954195 1 16678393781057154140
13009979 54 17703505511066084387
13134695 92 18335980852917800926
13140716 1 18193824058918888024
13533116 47 18335712633185943019
138480 1 18339070480844799198
14790565 3 18410015468386001644
14844126 61 17184724923723095547
14955137 171 18410583868509989934
17138139 8 17123922382168746791
1813 80 17986120604099257926
19591789 44 18410570696045519460
20157964 124 18411129261053544741
20645477 70 18262222374874537215
20739085 24 18342459184398347666
21197605 99 17902518413217373635
21427221 339 17702116776382339505
21524375 3 17985829473729974037
2255824 54 18413671326708221302
23558518 356 17762895872379808406
23559900 14 18409721855609315323
2748010 2 17908112432073206996
3091708 16 9687804099465930236
350125 39 17904765831688649422
3729539 64 18118432664311471764
3886686 26 17261552655202040568
4409770 3 15537593739063231711
474 4 18341890852676792177
54173680 148 17402603053151011694
633830 44 17986971806355829405
6443956 14 18192706756951100589
7097593 13 18270973327869481507
81228 2 17470445127881424484
8272917 22 18412543215225569645
9937071 3 17679038234925589251

>  <PUBCHEM_SHAPE_MULTIPOLES>  (1) 
437.81
7.18
4.43
1.31
9.33
0.01
-0.51
-0.01
-1.77
-6.71
0.12
1.74
0
0

>  <PUBCHEM_SHAPE_SELFOVERLAP>  (1) 
989.68

>  <PUBCHEM_SHAPE_VOLUME>  (1) 
227.8

>  <PUBCHEM_COORDINATE_TYPE>  (1) 
2
5
10

$$$$
