42811
     RDKit          3D

  9  8  0  0  1  0  0  0  0  0999 V2000
    3.3295   -0.4079    0.4225 O   0  0  0  0  0  0  0  0  0  0  0  0
    2.2342    1.2724   -0.6377 O   0  0  0  0  0  0  0  0  0  0  0  0
   -0.2528    0.1789   -0.1376 N   0  0  0  0  0  0  0  0  0  0  0  0
   -1.4590   -0.5588    0.2377 C   0  0  0  0  0  0  0  0  0  0  0  0
   -2.7293    0.1777   -0.2162 C   0  0  0  0  0  0  0  0  0  0  0  0
   -1.3982   -1.9521   -0.3867 C   0  0  0  0  0  0  0  0  0  0  0  0
   -2.8743    1.5709    0.3827 C   0  0  0  0  0  0  0  0  0  0  0  0
    0.9380   -0.5010    0.3469 C   0  0  0  0  0  0  0  0  0  0  0  0
    2.2120    0.2198   -0.0117 C   0  0  0  0  0  0  0  0  0  0  0  0
  1  9  1  0
  2  9  2  0
  3  4  1  0
  3  8  1  0
  4  5  1  0
  4  6  1  0
  5  7  1  0
  8  9  1  0
M  END
>  <PUBCHEM_COMPOUND_CID>  (1) 
42811

>  <PUBCHEM_CONFORMER_RMSD>  (1) 
0.6

>  <PUBCHEM_CONFORMER_DIVERSEORDER>  (1) 
4
13
28
6
7
18
8
20
24
25
12
14
19
5
2
26
23
11
1
17
15
16
3
10
9
22
21
27

>  <PUBCHEM_MMFF94_PARTIAL_CHARGES>  (1) 
8
1 -0.65
13 0.36
2 -0.57
22 0.5
3 -0.9
4 0.27
8 0.33
9 0.66

>  <PUBCHEM_EFFECTIVE_ROTOR_COUNT>  (1) 
4

>  <PUBCHEM_PHARMACOPHORE_FEATURES>  (1) 
6
1 1 acceptor
1 2 acceptor
1 3 cation
1 3 donor
1 7 hydrophobe
3 1 2 9 anion

>  <PUBCHEM_HEAVY_ATOM_COUNT>  (1) 
9

>  <PUBCHEM_ATOM_DEF_STEREO_COUNT>  (1) 
0

>  <PUBCHEM_ATOM_UDEF_STEREO_COUNT>  (1) 
1

>  <PUBCHEM_BOND_DEF_STEREO_COUNT>  (1) 
0

>  <PUBCHEM_BOND_UDEF_STEREO_COUNT>  (1) 
0

>  <PUBCHEM_ISOTOPIC_ATOM_COUNT>  (1) 
0

>  <PUBCHEM_COMPONENT_COUNT>  (1) 
1

>  <PUBCHEM_CACTVS_TAUTO_COUNT>  (1) 
1

>  <PUBCHEM_CONFORMER_ID>  (1) 
0000A73B00000004

>  <PUBCHEM_MMFF94_ENERGY>  (1) 
4.9022

>  <PUBCHEM_FEATURE_SELFOVERLAP>  (1) 
30.504

>  <PUBCHEM_SHAPE_FINGERPRINT>  (1) 
12716758 59 18273210915277935019
12932741 1 17060057107160519962
12932764 1 18129107890670611706
14325111 11 18410575084678909691
14390081 3 18343017804771566105
19973954 147 18267022941051355224
20653085 51 18337967717810787521
21028194 46 18272933795582464305
21040471 1 18342454816295275363
23402539 116 18201424883943654837
23552423 10 18260826055094645066
3248919 1 18410568517811226646
9939556 21 18408603690680019006

>  <PUBCHEM_SHAPE_MULTIPOLES>  (1) 
168.5
5.08
1.59
0.7
1.78
0.29
0.01
-1.57
-0.23
-1.04
0.14
0.04
-0.02
-0.48

>  <PUBCHEM_SHAPE_SELFOVERLAP>  (1) 
306.437

>  <PUBCHEM_SHAPE_VOLUME>  (1) 
108.3

>  <PUBCHEM_COORDINATE_TYPE>  (1) 
2
5
10

$$$$
