42823
     RDKit          3D

 17 17  0  0  0  0  0  0  0  0999 V2000
    4.3314   -1.5789    0.4216 Cl  0  0  0  0  0  0  0  0  0  0  0  0
   -0.5717    1.5283   -0.4862 O   0  0  0  0  0  0  0  0  0  0  0  0
   -1.6849   -0.8372   -0.9670 O   0  0  0  0  0  0  0  0  0  0  0  0
   -0.8979   -2.4728    0.4761 N   0  0  0  0  0  0  0  0  0  0  0  0
    0.5001   -0.5832   -0.1547 C   0  0  0  0  0  0  0  0  0  0  0  0
    0.5657    0.8047   -0.2756 C   0  0  0  0  0  0  0  0  0  0  0  0
    1.7957    1.4558   -0.1808 C   0  0  0  0  0  0  0  0  0  0  0  0
    1.6645   -1.3203    0.0609 C   0  0  0  0  0  0  0  0  0  0  0  0
    2.9602    0.7187    0.0348 C   0  0  0  0  0  0  0  0  0  0  0  0
   -0.7734   -1.2839   -0.2502 C   0  0  0  0  0  0  0  0  0  0  0  0
    2.8946   -0.6694    0.1555 C   0  0  0  0  0  0  0  0  0  0  0  0
    1.8863    2.9410   -0.3074 C   0  0  0  0  0  0  0  0  0  0  0  0
   -2.0880   -3.2926    0.4654 C   0  0  0  0  0  0  0  0  0  0  0  0
   -1.2684    1.9877    0.6691 C   0  0  0  0  0  0  0  0  0  0  0  0
   -3.1621   -2.6998   -0.4230 C   0  0  0  0  0  0  0  0  0  0  0  0
   -2.4416    2.7998    0.2307 C   0  0  0  0  0  0  0  0  0  0  0  0
   -3.7105    2.5020    0.5308 C   0  0  0  0  0  0  0  0  0  0  0  0
  1 11  1  0
  2  6  1  0
  2 14  1  0
  3 10  2  0
  4 10  1  0
  4 13  1  0
  5  6  2  0
  5  8  1  0
  5 10  1  0
  6  7  1  0
  7  9  2  0
  7 12  1  0
  8 11  2  0
  9 11  1  0
 13 15  1  0
 14 16  1  0
 16 17  2  0
M  END
>  <PUBCHEM_COMPOUND_CID>  (1) 
42823

>  <PUBCHEM_CONFORMER_RMSD>  (1) 
0.8

>  <PUBCHEM_CONFORMER_DIVERSEORDER>  (1) 
3
8
14
16
11
2
4
7
9
12
15
6
13
5
1
10

>  <PUBCHEM_MMFF94_PARTIAL_CHARGES>  (1) 
22
1 -0.18
10 0.54
11 0.18
12 0.14
13 0.3
14 0.42
16 -0.29
17 -0.3
18 0.15
19 0.15
2 -0.36
23 0.37
3 -0.57
31 0.15
32 0.15
33 0.15
4 -0.73
5 0.09
6 0.08
7 -0.14
8 -0.15
9 -0.15

>  <PUBCHEM_EFFECTIVE_ROTOR_COUNT>  (1) 
6

>  <PUBCHEM_PHARMACOPHORE_FEATURES>  (1) 
5
1 17 hydrophobe
1 2 acceptor
1 3 acceptor
1 4 donor
6 5 6 7 8 9 11 rings

>  <PUBCHEM_HEAVY_ATOM_COUNT>  (1) 
17

>  <PUBCHEM_ATOM_DEF_STEREO_COUNT>  (1) 
0

>  <PUBCHEM_ATOM_UDEF_STEREO_COUNT>  (1) 
0

>  <PUBCHEM_BOND_DEF_STEREO_COUNT>  (1) 
0

>  <PUBCHEM_BOND_UDEF_STEREO_COUNT>  (1) 
0

>  <PUBCHEM_ISOTOPIC_ATOM_COUNT>  (1) 
0

>  <PUBCHEM_COMPONENT_COUNT>  (1) 
1

>  <PUBCHEM_CACTVS_TAUTO_COUNT>  (1) 
2

>  <PUBCHEM_CONFORMER_ID>  (1) 
0000A74700000003

>  <PUBCHEM_MMFF94_ENERGY>  (1) 
54.2892

>  <PUBCHEM_FEATURE_SELFOVERLAP>  (1) 
25.38

>  <PUBCHEM_SHAPE_FINGERPRINT>  (1) 
104564 63 18269284636585624669
10493431 412 18196369221741234160
10967382 1 18050288063708749404
1100329 8 18339642239660541824
11578080 2 17274245279360272755
116883 192 18341336668509295503
12954195 1 18124905557609742596
13052359 8 18337389331956082755
13134695 92 17908694382635268823
13140716 1 18337955717693690331
14178342 30 18337938078769336592
14790565 3 17906464229736726172
14866123 147 18265610979127523050
15042514 8 18192991522332228418
15309172 13 18050288068030525736
15442244 35 18409729577538539826
15502708 68 17834960767572203153
15906896 17 18272365352408141247
16945 1 18337673143484497772
193761 8 18410294761075558036
19591789 44 17330557545030073094
20028762 73 18200308819707501647
20645477 70 18047741895575107710
21041028 32 18266457804970194679
21501502 16 18408887356316962452
21524375 3 18056473942007476629
2334 1 17977946009723690086
23419403 2 16611866450943031352
23557571 272 18272656719354112270
23558518 356 18334860566738955448
25147074 1 18186804691014666780
266924 87 18049167958077319012
2748010 2 17906750102031336983
3060560 45 18050007684117842277
33824 294 17833554492564346017
352729 6 18342183232612455629
394222 165 16451210433383169048
43471831 8 17472983896098379258
54173680 148 18410855451775720978
589210 1 18337957890941815120
6438718 38 17846228799547384895
7164475 11 18339641255943803638
7364860 26 17257934226394742615
81228 2 18334848463304603593

>  <PUBCHEM_SHAPE_MULTIPOLES>  (1) 
335
5.94
4.4
0.77
1.58
0.76
0
0.19
-0.87
-4.11
-0.33
-0.15
0.03
-0.85

>  <PUBCHEM_SHAPE_SELFOVERLAP>  (1) 
678.9

>  <PUBCHEM_SHAPE_VOLUME>  (1) 
197.1

>  <PUBCHEM_COORDINATE_TYPE>  (1) 
2
5
10

$$$$
