42821
     RDKit          3D

 15 15  0  0  0  0  0  0  0  0999 V2000
    2.7473    3.2907   -0.1109 Br  0  0  0  0  0  0  0  0  0  0  0  0
    0.1548   -2.1592    0.2199 O   0  0  0  0  0  0  0  0  0  0  0  0
   -2.0535   -0.7993    0.8023 O   0  0  0  0  0  0  0  0  0  0  0  0
   -2.2291    1.1435   -0.4511 N   0  0  0  0  0  0  0  0  0  0  0  0
   -0.0529    0.2210    0.1280 C   0  0  0  0  0  0  0  0  0  0  0  0
    0.7376   -0.9280    0.1450 C   0  0  0  0  0  0  0  0  0  0  0  0
    2.1271   -0.8197    0.0863 C   0  0  0  0  0  0  0  0  0  0  0  0
    0.5461    1.4785    0.0521 C   0  0  0  0  0  0  0  0  0  0  0  0
   -1.5057    0.1314    0.1879 C   0  0  0  0  0  0  0  0  0  0  0  0
    2.7259    0.4378    0.0106 C   0  0  0  0  0  0  0  0  0  0  0  0
    1.9355    1.5869   -0.0065 C   0  0  0  0  0  0  0  0  0  0  0  0
   -3.6731    1.2069   -0.4604 C   0  0  0  0  0  0  0  0  0  0  0  0
    2.9903   -2.0381    0.1040 C   0  0  0  0  0  0  0  0  0  0  0  0
   -4.2787    0.0433    0.3059 C   0  0  0  0  0  0  0  0  0  0  0  0
   -0.1715   -2.7957   -1.0131 C   0  0  0  0  0  0  0  0  0  0  0  0
  1 11  1  0
  2  6  1  0
  2 15  1  0
  3  9  2  0
  4  9  1  0
  4 12  1  0
  5  6  2  0
  5  8  1  0
  5  9  1  0
  6  7  1  0
  7 10  2  0
  7 13  1  0
  8 11  2  0
 10 11  1  0
 12 14  1  0
M  END
>  <PUBCHEM_COMPOUND_CID>  (1) 
42821

>  <PUBCHEM_CONFORMER_RMSD>  (1) 
0.6

>  <PUBCHEM_CONFORMER_DIVERSEORDER>  (1) 
2
3
4
1

>  <PUBCHEM_MMFF94_PARTIAL_CHARGES>  (1) 
17
1 -0.11
10 -0.15
11 0.11
12 0.3
13 0.14
15 0.28
16 0.15
17 0.15
2 -0.36
20 0.37
3 -0.57
4 -0.73
5 0.09
6 0.08
7 -0.14
8 -0.15
9 0.54

>  <PUBCHEM_EFFECTIVE_ROTOR_COUNT>  (1) 
4

>  <PUBCHEM_PHARMACOPHORE_FEATURES>  (1) 
5
1 1 hydrophobe
1 2 acceptor
1 3 acceptor
1 4 donor
6 5 6 7 8 10 11 rings

>  <PUBCHEM_HEAVY_ATOM_COUNT>  (1) 
15

>  <PUBCHEM_ATOM_DEF_STEREO_COUNT>  (1) 
0

>  <PUBCHEM_ATOM_UDEF_STEREO_COUNT>  (1) 
0

>  <PUBCHEM_BOND_DEF_STEREO_COUNT>  (1) 
0

>  <PUBCHEM_BOND_UDEF_STEREO_COUNT>  (1) 
0

>  <PUBCHEM_ISOTOPIC_ATOM_COUNT>  (1) 
0

>  <PUBCHEM_COMPONENT_COUNT>  (1) 
1

>  <PUBCHEM_CACTVS_TAUTO_COUNT>  (1) 
2

>  <PUBCHEM_CONFORMER_ID>  (1) 
0000A74500000002

>  <PUBCHEM_MMFF94_ENERGY>  (1) 
55.5163

>  <PUBCHEM_FEATURE_SELFOVERLAP>  (1) 
25.38

>  <PUBCHEM_SHAPE_FINGERPRINT>  (1) 
1 1 18410291397830997519
10219947 1 18269272374348499443
10608611 8 18333447634379009925
10967382 1 18410292518981232264
11471102 20 18337948983343011221
11680986 33 18409172138297165394
116883 192 17044288671524981877
13140716 1 18409451396928138289
13380536 305 18411422799807224060
13380536 55 18122334942162028550
13897977 150 18408322202755297741
14123255 52 18194402422977886052
14251717 144 18340481184449449567
14648413 74 18334859415492625792
15219456 202 18333453144821680513
15490181 7 18194690490892224788
15775835 57 18341335612131703461
16945 1 18266466416442530570
17134986 127 18265338476785431868
18186145 218 18272377468368678865
193761 8 18194962066090877794
20201158 50 18192431875023690459
20510252 161 17405996635629380656
20511035 2 18188502361925613726
20606313 2 18338232648515432102
20645477 70 18338791226788173855
20671657 1 18410858793439878772
21501502 16 18123180466624796210
21524375 3 18264486354904549168
21639500 275 18411125935962990789
221490 88 18335709355424600827
2334 1 18339080513635233889
23402655 69 18339353068566647517
23558518 356 17684645816243663432
2748010 2 18336554896750440676
3060560 45 18342454785966793198
3071541 12 18410578396521110304
5104073 3 18334298665242936281
58051976 378 18341609360509780005
7364860 26 18411138043681571784
81228 2 16756067680256834384
8272917 22 18271532975251651373
84936 182 18202280337728194433

>  <PUBCHEM_SHAPE_MULTIPOLES>  (1) 
297.92
5.86
3.26
0.75
5.13
0.18
-0.06
-2.9
0.12
-2.78
-0.59
0.16
0.14
-0.01

>  <PUBCHEM_SHAPE_SELFOVERLAP>  (1) 
601.096

>  <PUBCHEM_SHAPE_VOLUME>  (1) 
180.2

>  <PUBCHEM_COORDINATE_TYPE>  (1) 
2
5
10

$$$$
