42839
     RDKit          3D

 18 20  0  0  0  0  0  0  0  0999 V2000
   -1.2664    2.9258   -0.0004 Cl  0  0  0  0  0  0  0  0  0  0  0  0
   -2.9019   -3.1219   -0.0004 Cl  0  0  0  0  0  0  0  0  0  0  0  0
   -4.3911    2.0498   -0.0005 Cl  0  0  0  0  0  0  0  0  0  0  0  0
    4.2237    2.1005    0.0012 Cl  0  0  0  0  0  0  0  0  0  0  0  0
    4.9984   -1.0277   -0.0007 Cl  0  0  0  0  0  0  0  0  0  0  0  0
   -0.0590   -1.8488    0.0005 O   0  0  0  0  0  0  0  0  0  0  0  0
   -0.7612    0.3008    0.0000 C   0  0  0  0  0  0  0  0  0  0  0  0
    0.6644    0.2938   -0.0001 C   0  0  0  0  0  0  0  0  0  0  0  0
   -1.1511   -1.0349    0.0003 C   0  0  0  0  0  0  0  0  0  0  0  0
    1.0411   -1.0456    0.0001 C   0  0  0  0  0  0  0  0  0  0  0  0
   -1.7621    1.2897    0.0000 C   0  0  0  0  0  0  0  0  0  0  0  0
    1.6751    1.2728   -0.0002 C   0  0  0  0  0  0  0  0  0  0  0  0
   -2.4779   -1.4620    0.0006 C   0  0  0  0  0  0  0  0  0  0  0  0
    2.3635   -1.4859   -0.0001 C   0  0  0  0  0  0  0  0  0  0  0  0
   -3.1055    0.8906   -0.0001 C   0  0  0  0  0  0  0  0  0  0  0  0
   -3.4545   -0.4619    0.0004 C   0  0  0  0  0  0  0  0  0  0  0  0
    3.0144    0.8603   -0.0001 C   0  0  0  0  0  0  0  0  0  0  0  0
    3.3500   -0.4954   -0.0003 C   0  0  0  0  0  0  0  0  0  0  0  0
  1 11  1  0
  2 13  1  0
  3 15  1  0
  4 17  1  0
  5 18  1  0
  6  9  1  0
  6 10  1  0
  7  8  1  0
  7  9  2  0
  7 11  1  0
  8 10  2  0
  8 12  1  0
  9 13  1  0
 10 14  1  0
 11 15  2  0
 12 17  2  0
 13 16  2  0
 14 18  2  0
 15 16  1  0
 17 18  1  0
M  END
>  <PUBCHEM_COMPOUND_CID>  (1) 
42839

>  <PUBCHEM_CONFORMER_RMSD>  (1) 
0.4

>  <PUBCHEM_CONFORMER_DIVERSEORDER>  (1) 
1

>  <PUBCHEM_MMFF94_PARTIAL_CHARGES>  (1) 
19
1 -0.18
10 0.14
11 0.18
12 -0.15
13 0.18
14 -0.15
15 0.18
16 -0.15
17 0.18
18 0.18
19 0.15
2 -0.18
20 0.15
21 0.15
3 -0.18
4 -0.18
5 -0.18
6 -0.28
9 0.14

>  <PUBCHEM_EFFECTIVE_ROTOR_COUNT>  (1) 
0

>  <PUBCHEM_PHARMACOPHORE_FEATURES>  (1) 
4
1 6 acceptor
5 6 7 8 9 10 rings
6 7 9 11 13 15 16 rings
6 8 10 12 14 17 18 rings

>  <PUBCHEM_HEAVY_ATOM_COUNT>  (1) 
18

>  <PUBCHEM_ATOM_DEF_STEREO_COUNT>  (1) 
0

>  <PUBCHEM_ATOM_UDEF_STEREO_COUNT>  (1) 
0

>  <PUBCHEM_BOND_DEF_STEREO_COUNT>  (1) 
0

>  <PUBCHEM_BOND_UDEF_STEREO_COUNT>  (1) 
0

>  <PUBCHEM_ISOTOPIC_ATOM_COUNT>  (1) 
0

>  <PUBCHEM_COMPONENT_COUNT>  (1) 
1

>  <PUBCHEM_CACTVS_TAUTO_COUNT>  (1) 
1

>  <PUBCHEM_CONFORMER_ID>  (1) 
0000A75700000001

>  <PUBCHEM_MMFF94_ENERGY>  (1) 
37.041

>  <PUBCHEM_FEATURE_SELFOVERLAP>  (1) 
20.499

>  <PUBCHEM_SHAPE_FINGERPRINT>  (1) 
10319926 262 18269533024062767666
10411042 1 17689999363512579467
10498660 4 18410013260176231892
10608611 8 18411697690525450680
10616163 171 18411982468253280566
10967382 1 18266459810740650629
11132069 177 18411976957735867160
11405975 8 18409728452531285314
11578080 2 17273958311273377731
12251169 10 18336263427674930674
12403259 226 18341326786237758296
13140716 1 18410293618292172923
13380535 76 18269554953485252639
138480 1 16897364210298396259
14787075 74 17537720275782788234
14790565 3 18196660592718961249
15042514 8 18409452492461699363
15196674 1 18410856577004450468
15442244 35 18265330608420903282
15536298 74 18413389860854129972
16945 1 18338517413468941319
17492 89 18410012182445824274
17804303 29 18411984633164074388
18186145 218 18040991839257178838
200 152 17774995769788093143
20510252 161 18341615974521772793
20645477 56 18335705988238565629
21065198 57 18411136931231982818
21267235 1 18410019839997492411
21501502 16 18410009961640984570
21524375 3 18117002070027619737
221490 88 18338242660554022314
23227448 37 18411417310702123357
2334 1 18338799047459584263
23366157 5 18113901542386117218
23402539 116 18270953562292991277
23463225 33 18408322189922922548
23557571 272 18271816751597531887
23558518 356 18187932849151569882
23559900 14 18343017762470479722
238 59 15876701863832334213
2748010 2 18340766052328978679
335352 9 18338797797602950588
34934 24 18409441514324551237
350125 39 18337394816508377156
4214541 1 18410855456170811104
5104073 3 18410574011274696728
54173680 148 18410294748158955683
58051976 100 18410576158821920430
58051976 378 18270397166195835052
633830 44 17168148953100210240
69090 78 18339075991467207357
7097593 13 17898836964481751306
7364860 26 18124595284486824078
77779 3 18410576214687877174
7832392 63 18410008827595395700
8809292 202 18335143102335360810
9709674 26 18342461409001821542
9981440 41 17541101300367627368

>  <PUBCHEM_SHAPE_MULTIPOLES>  (1) 
373.91
8.42
3.09
0.62
4.73
0.02
0
-1.1
0
-2.07
0
0
-0.02
0

>  <PUBCHEM_SHAPE_SELFOVERLAP>  (1) 
793.885

>  <PUBCHEM_SHAPE_VOLUME>  (1) 
215.3

>  <PUBCHEM_COORDINATE_TYPE>  (1) 
2
5
10

$$$$
