42854
     RDKit          3D

 18 19  0  0  0  0  0  0  0  0999 V2000
    0.1134   -0.6078   -1.3722 S   0  0  0  0  0  0  0  0  0  0  0  0
    2.5176   -2.2414    0.7969 O   0  0  0  0  0  0  0  0  0  0  0  0
    3.5393   -1.8697   -1.1992 O   0  0  0  0  0  0  0  0  0  0  0  0
   -2.5349    0.0001   -0.7424 C   0  0  0  0  0  0  0  0  0  0  0  0
   -3.6212    0.0667    0.1302 C   0  0  0  0  0  0  0  0  0  0  0  0
   -1.3091   -0.5003   -0.2985 C   0  0  0  0  0  0  0  0  0  0  0  0
   -3.4840   -0.3672    1.4488 C   0  0  0  0  0  0  0  0  0  0  0  0
   -1.1745   -0.9339    1.0221 C   0  0  0  0  0  0  0  0  0  0  0  0
   -2.7081    0.4709   -2.1535 C   0  0  0  0  0  0  0  0  0  0  0  0
    1.2791    0.4346   -0.5021 C   0  0  0  0  0  0  0  0  0  0  0  0
   -2.2607   -0.8674    1.8947 C   0  0  0  0  0  0  0  0  0  0  0  0
   -4.9430    0.5973   -0.3194 C   0  0  0  0  0  0  0  0  0  0  0  0
    2.5004   -0.0540   -0.0383 C   0  0  0  0  0  0  0  0  0  0  0  0
    0.9380    1.7709   -0.2935 C   0  0  0  0  0  0  0  0  0  0  0  0
    3.3806    0.7936    0.6344 C   0  0  0  0  0  0  0  0  0  0  0  0
    1.8182    2.6187    0.3790 C   0  0  0  0  0  0  0  0  0  0  0  0
    3.0395    2.1300    0.8430 C   0  0  0  0  0  0  0  0  0  0  0  0
    2.9095   -1.4411   -0.2301 C   0  0  0  0  0  0  0  0  0  0  0  0
  1  6  1  0
  1 10  1  0
  2 18  1  0
  3 18  2  0
  4  5  2  0
  4  6  1  0
  4  9  1  0
  5  7  1  0
  5 12  1  0
  6  8  2  0
  7 11  2  0
  8 11  1  0
 10 13  2  0
 10 14  1  0
 13 15  1  0
 13 18  1  0
 14 16  2  0
 15 17  2  0
 16 17  1  0
M  END
>  <PUBCHEM_COMPOUND_CID>  (1) 
42854

>  <PUBCHEM_CONFORMER_RMSD>  (1) 
0.6

>  <PUBCHEM_CONFORMER_DIVERSEORDER>  (1) 
1
8
11
20
19
14
22
18
5
21
12
3
10
16
9
4
17
6
7
2
15
13

>  <PUBCHEM_MMFF94_PARTIAL_CHARGES>  (1) 
26
1 -0.2
10 0.1
11 -0.15
12 0.14
13 0.09
14 -0.15
15 -0.15
16 -0.15
17 -0.15
18 0.63
19 0.15
2 -0.65
20 0.15
24 0.15
28 0.15
29 0.15
3 -0.57
30 0.15
31 0.15
32 0.5
4 -0.14
5 -0.14
6 0.1
7 -0.15
8 -0.15
9 0.14

>  <PUBCHEM_EFFECTIVE_ROTOR_COUNT>  (1) 
3

>  <PUBCHEM_PHARMACOPHORE_FEATURES>  (1) 
5
1 2 acceptor
1 3 acceptor
3 2 3 18 anion
6 10 13 14 15 16 17 rings
6 4 5 6 7 8 11 rings

>  <PUBCHEM_HEAVY_ATOM_COUNT>  (1) 
18

>  <PUBCHEM_ATOM_DEF_STEREO_COUNT>  (1) 
0

>  <PUBCHEM_ATOM_UDEF_STEREO_COUNT>  (1) 
0

>  <PUBCHEM_BOND_DEF_STEREO_COUNT>  (1) 
0

>  <PUBCHEM_BOND_UDEF_STEREO_COUNT>  (1) 
0

>  <PUBCHEM_ISOTOPIC_ATOM_COUNT>  (1) 
0

>  <PUBCHEM_COMPONENT_COUNT>  (1) 
1

>  <PUBCHEM_CACTVS_TAUTO_COUNT>  (1) 
1

>  <PUBCHEM_CONFORMER_ID>  (1) 
0000A76600000001

>  <PUBCHEM_MMFF94_ENERGY>  (1) 
59.535

>  <PUBCHEM_FEATURE_SELFOVERLAP>  (1) 
25.429

>  <PUBCHEM_SHAPE_FINGERPRINT>  (1) 
10366900 7 18114179799704180157
10498660 4 14620529912554467377
11640471 11 17346038994786657592
12236239 1 17203607094582850470
12553582 1 18199469857802028166
12633257 1 17532636017967653568
12670545 47 18041284352247170583
13134695 92 18341611486682121796
13583140 156 18270685397652013355
14251739 40 18060135436118761735
14386348 63 18113339704111599530
15375358 24 18114735031617331224
15653759 3 17894631469833151957
15775835 57 17489309745131895265
16945 1 18342458196592896812
17349148 13 16917350316481579511
17492 89 18130787897310102815
17804303 29 17313110756565840783
1813 80 17559134077089109470
18186145 218 18260824878436759599
19049666 15 18041831818574438517
192875 21 17203325585621071369
20645477 70 18342172258738847630
20715895 44 17272020753401910793
20832881 197 18117556219630046499
21486144 27 18334574680856958551
22892500 29 18409729568879871148
23048698 100 17917993884109663779
23175994 123 18265341620511373998
23184049 59 18272931605017378686
23402539 116 14045167512427637773
23557571 272 17822860921613439539
23559900 14 17676212363804434334
2838139 119 18057041299552808009
3286 77 18408891728640973799
4409770 3 15180142547411421631
474 4 18131349755998120393
495365 180 18335972117123086923
6049 1 18113341920246126597
74978 22 18272376403047997599
7615 1 17203604900018196365
77492 1 17203326732108158031
81228 2 17762617292327125352

>  <PUBCHEM_SHAPE_MULTIPOLES>  (1) 
362.54
7.78
2.11
1.6
3.82
0.4
0.13
0.45
-0.57
-2.92
-0.27
1.2
-0.27
1.23

>  <PUBCHEM_SHAPE_SELFOVERLAP>  (1) 
763.699

>  <PUBCHEM_SHAPE_VOLUME>  (1) 
205.1

>  <PUBCHEM_COORDINATE_TYPE>  (1) 
2
5
10

$$$$
