42851
     RDKit          3D

 20 20  0  0  0  0  0  0  0  0999 V2000
   -0.0815   -0.6800    0.0126 O   0  0  0  0  0  0  0  0  0  0  0  0
   -1.0650   -2.7611   -0.0207 O   0  0  0  0  0  0  0  0  0  0  0  0
   -6.0617    1.2959   -0.0098 N   0  0  0  0  0  0  0  0  0  0  0  0
    4.7211    0.3788    0.0871 C   0  0  0  0  0  0  0  0  0  0  0  0
    6.1635   -0.1347    0.0539 C   0  0  0  0  0  0  0  0  0  0  0  0
    3.6762   -0.7375    0.0234 C   0  0  0  0  0  0  0  0  0  0  0  0
    7.2078    0.9838    0.0433 C   0  0  0  0  0  0  0  0  0  0  0  0
    2.2580   -0.1688    0.0361 C   0  0  0  0  0  0  0  0  0  0  0  0
    8.6244    0.4169   -0.0633 C   0  0  0  0  0  0  0  0  0  0  0  0
    1.2099   -1.2726    0.0146 C   0  0  0  0  0  0  0  0  0  0  0  0
    9.6651    1.5242   -0.1129 C   0  0  0  0  0  0  0  0  0  0  0  0
   -1.1359   -1.5419   -0.0061 C   0  0  0  0  0  0  0  0  0  0  0  0
   -2.4224   -0.8009   -0.0077 C   0  0  0  0  0  0  0  0  0  0  0  0
   -4.8397    0.5917   -0.0100 C   0  0  0  0  0  0  0  0  0  0  0  0
   -2.4239    0.5939    0.0103 C   0  0  0  0  0  0  0  0  0  0  0  0
   -3.6298   -1.4994   -0.0267 C   0  0  0  0  0  0  0  0  0  0  0  0
   -3.6325    1.2902    0.0092 C   0  0  0  0  0  0  0  0  0  0  0  0
   -4.8384   -0.8031   -0.0278 C   0  0  0  0  0  0  0  0  0  0  0  0
   -7.3216    0.5796   -0.0282 C   0  0  0  0  0  0  0  0  0  0  0  0
   -6.0737    2.7449    0.0227 C   0  0  0  0  0  0  0  0  0  0  0  0
  1 10  1  0
  1 12  1  0
  2 12  2  0
  3 14  1  0
  3 19  1  0
  3 20  1  0
  4  5  1  0
  4  6  1  0
  5  7  1  0
  6  8  1  0
  7  9  1  0
  8 10  1  0
  9 11  1  0
 12 13  1  0
 13 15  2  0
 13 16  1  0
 14 17  2  0
 14 18  1  0
 15 17  1  0
 16 18  2  0
M  END
>  <PUBCHEM_COMPOUND_CID>  (1) 
42851

>  <PUBCHEM_CONFORMER_RMSD>  (1) 
1

>  <PUBCHEM_CONFORMER_DIVERSEORDER>  (1) 
1
58
24
2
61
36
74
29
62
32
70
72
77
78
41
13
37
65
9
59
4
75
19
53
5
12
55
7
6
64
54
38
51
45
76
50
73
27
63
15
71
49
11
31
28
10
52
42
69
8
66
22
56
16
68
35
60
18
46
14
57
17
25
3
48
20
23
21
26
39
30
67
44
43
34
40
47
33

>  <PUBCHEM_MMFF94_PARTIAL_CHARGES>  (1) 
17
1 -0.43
10 0.28
12 0.63
13 0.09
14 0.1
15 -0.15
16 -0.15
17 -0.15
18 -0.15
19 0.37
2 -0.57
20 0.37
3 -0.84
38 0.15
39 0.15
40 0.15
41 0.15

>  <PUBCHEM_EFFECTIVE_ROTOR_COUNT>  (1) 
10

>  <PUBCHEM_PHARMACOPHORE_FEATURES>  (1) 
6
1 11 hydrophobe
1 2 acceptor
1 3 cation
3 4 6 8 hydrophobe
3 5 7 9 hydrophobe
6 13 14 15 16 17 18 rings

>  <PUBCHEM_HEAVY_ATOM_COUNT>  (1) 
20

>  <PUBCHEM_ATOM_DEF_STEREO_COUNT>  (1) 
0

>  <PUBCHEM_ATOM_UDEF_STEREO_COUNT>  (1) 
0

>  <PUBCHEM_BOND_DEF_STEREO_COUNT>  (1) 
0

>  <PUBCHEM_BOND_UDEF_STEREO_COUNT>  (1) 
0

>  <PUBCHEM_ISOTOPIC_ATOM_COUNT>  (1) 
0

>  <PUBCHEM_COMPONENT_COUNT>  (1) 
1

>  <PUBCHEM_CACTVS_TAUTO_COUNT>  (1) 
1

>  <PUBCHEM_CONFORMER_ID>  (1) 
0000A76300000001

>  <PUBCHEM_MMFF94_ENERGY>  (1) 
46.454

>  <PUBCHEM_FEATURE_SELFOVERLAP>  (1) 
30.458

>  <PUBCHEM_SHAPE_FINGERPRINT>  (1) 
10 15 18186239519634758338
10411042 1 17906452487586704831
106641 1 17749394771744678795
10730089 173 18412826893441316688
11315181 36 17967812790403352811
12091667 2 18411982502802773474
125118 31 18336547218504794196
14251764 18 18187641423563607994
14344974 52 17775277317705544121
14556957 393 15267073587599557008
14729087 3 18412261740375439760
14933364 13 18411419523274606864
15048467 5 18409448085803836170
15183329 4 18059858351136574498
15461852 350 17846213405582931630
155225 1 18410855439366033953
15690457 1 9727634995442123668
15716309 27 11530486635993606746
1577012 14 18335413565580394450
15778101 99 18409167740393299746
16989713 51 17487891422514505239
1768 4 18342185432290144873
18006028 8 10809346641870472911
20281389 69 18187080638115389804
20526848 3 18408044000696562996
20554085 129 17846483826216487042
20621476 66 18334015012833596822
20621476 8 18411140221820509910
21095123 293 17676212377618167420
21150785 3 14620794903831843052
21304253 13 18334575767790439124
22224240 67 15502095263030193160
22288116 15 17631999936716695191
23559900 14 18131625711989328920
246663 6 11241968171069222600
33532 11 10087653589836654892
335352 9 18413103983014000509
4073 2 18187088364735974578
5758199 1 17748544849372634538
59567204 34 18412544297320568353
6327066 14 18411133594163642021
636775 72 18411136935211309520
636775 8 12895061955947616325
9980921 7 18113613444987166125

>  <PUBCHEM_SHAPE_MULTIPOLES>  (1) 
394.87
26.94
2.11
0.6
54.45
0.1
0
18.27
-0.55
-2.8
-0.01
0.04
0.01
-0.11

>  <PUBCHEM_SHAPE_SELFOVERLAP>  (1) 
779.224

>  <PUBCHEM_SHAPE_VOLUME>  (1) 
236.5

>  <PUBCHEM_COORDINATE_TYPE>  (1) 
2
5
10

$$$$
