42859
     RDKit          3D

 13 15  0  0  0  0  0  0  0  0999 V2000
    4.0230   -0.8808   -0.0005 Br  0  0  0  0  0  0  0  0  0  0  0  0
    1.1185   -0.4001    0.0001 N   0  0  0  0  0  0  0  0  0  0  0  0
   -1.5708   -0.8270    0.0000 N   0  0  0  0  0  0  0  0  0  0  0  0
    0.9501    1.8406    0.0002 N   0  0  0  0  0  0  0  0  0  0  0  0
   -2.1048    1.3556   -0.0002 N   0  0  0  0  0  0  0  0  0  0  0  0
    0.2860    0.7108    0.0000 C   0  0  0  0  0  0  0  0  0  0  0  0
   -1.1234    0.4869    0.0000 C   0  0  0  0  0  0  0  0  0  0  0  0
    0.6316   -1.7129    0.0002 C   0  0  0  0  0  0  0  0  0  0  0  0
   -0.7011   -1.9245    0.0001 C   0  0  0  0  0  0  0  0  0  0  0  0
    2.4012    0.0822    0.0001 C   0  0  0  0  0  0  0  0  0  0  0  0
   -2.9398   -0.7660    0.0000 C   0  0  0  0  0  0  0  0  0  0  0  0
    2.2703    1.4551    0.0002 C   0  0  0  0  0  0  0  0  0  0  0  0
   -3.2406    0.5800   -0.0002 C   0  0  0  0  0  0  0  0  0  0  0  0
  1 10  1  0
  2  6  1  0
  2  8  1  0
  2 10  1  0
  3  7  1  0
  3  9  1  0
  3 11  1  0
  4  6  2  0
  4 12  1  0
  5  7  2  0
  5 13  1  0
  6  7  1  0
  8  9  2  0
 10 12  2  0
 11 13  2  0
M  END
>  <PUBCHEM_COMPOUND_CID>  (1) 
42859

>  <PUBCHEM_CONFORMER_RMSD>  (1) 
0.4

>  <PUBCHEM_CONFORMER_DIVERSEORDER>  (1) 
1

>  <PUBCHEM_MMFF94_PARTIAL_CHARGES>  (1) 
18
1 -0.06
10 -0.09
11 -0.3
12 0.08
13 0.08
14 0.15
15 0.15
16 0.15
17 0.15
18 0.15
2 0.33
3 0.33
4 -0.57
5 -0.57
6 0.19
7 0.19
8 -0.18
9 -0.18

>  <PUBCHEM_EFFECTIVE_ROTOR_COUNT>  (1) 
0

>  <PUBCHEM_PHARMACOPHORE_FEATURES>  (1) 
6
1 1 hydrophobe
3 2 4 6 cation
3 3 5 7 cation
5 2 4 6 10 12 rings
5 3 5 7 11 13 rings
6 2 3 6 7 8 9 rings

>  <PUBCHEM_HEAVY_ATOM_COUNT>  (1) 
13

>  <PUBCHEM_ATOM_DEF_STEREO_COUNT>  (1) 
0

>  <PUBCHEM_ATOM_UDEF_STEREO_COUNT>  (1) 
0

>  <PUBCHEM_BOND_DEF_STEREO_COUNT>  (1) 
0

>  <PUBCHEM_BOND_UDEF_STEREO_COUNT>  (1) 
0

>  <PUBCHEM_ISOTOPIC_ATOM_COUNT>  (1) 
0

>  <PUBCHEM_COMPONENT_COUNT>  (1) 
1

>  <PUBCHEM_CACTVS_TAUTO_COUNT>  (1) 
1

>  <PUBCHEM_CONFORMER_ID>  (1) 
0000A76B00000001

>  <PUBCHEM_MMFF94_ENERGY>  (1) 
19.1493

>  <PUBCHEM_FEATURE_SELFOVERLAP>  (1) 
30.705

>  <PUBCHEM_SHAPE_FINGERPRINT>  (1) 
10130415 120 18335136484333745322
10608611 8 18411415154533776744
10967382 1 18338517542233414758
11132069 177 18412256212594228874
12032990 46 18411143515306272622
13380535 76 18410855438938597191
13690532 89 18410291389483902706
14144814 61 18410011044030609688
14325111 11 18410855498788363073
14911166 2 18410291384935572246
14993402 34 18408885114196243422
15536298 74 18343300401214626480
15775835 57 18335144206146938149
16945 1 18410575093342833703
17804303 29 18411985758471892642
193761 8 17978511167458859622
200 152 18059844078807197453
20201158 50 18412263904490428255
20511035 2 18198061589321923902
20645476 183 17823719614335634710
21040471 1 18338517567939928000
21501502 16 18267867374792773086
2334 1 18194683902090606860
23402539 116 18201428160381241845
23402655 69 18196354933071089837
23463225 33 18335700503612833770
23552423 10 18045501078097357750
23559900 14 18342461422872738230
2748010 2 18266177416593452989
5084963 1 18202002161396278899
528886 8 18410851027727206746
53812653 166 18341328899029020768
63268167 104 18339364054591460379
8809292 202 18260554449741816843

>  <PUBCHEM_SHAPE_MULTIPOLES>  (1) 
253.55
5.46
1.9
0.6
1.63
0.12
0
0.34
0
0.2
0
0.06
0.02
0

>  <PUBCHEM_SHAPE_SELFOVERLAP>  (1) 
556.369

>  <PUBCHEM_SHAPE_VOLUME>  (1) 
141.5

>  <PUBCHEM_COORDINATE_TYPE>  (1) 
2
5
10

$$$$
