4286
     RDKit          3D

 25 28  0  0  0  0  0  0  0  0999 V2000
   -0.8475   -1.2862    1.1943 O   0  0  0  0  0  0  0  0  0  0  0  0
   -1.7939   -0.9584   -0.9000 N   0  0  0  0  0  0  0  0  0  0  0  0
    0.1552   -2.1581   -0.7079 N   0  0  0  0  0  0  0  0  0  0  0  0
    5.7103    0.7482    0.3669 N   0  0  0  0  0  0  0  0  0  0  0  0
    6.6541    2.8442   -0.0478 N   0  0  0  0  0  0  0  0  0  0  0  0
    4.5106    2.5116   -0.7567 N   0  0  0  0  0  0  0  0  0  0  0  0
   -2.9363   -0.1853   -0.4644 C   0  0  0  0  0  0  0  0  0  0  0  0
   -5.0236    1.0330   -1.2179 C   0  0  0  0  0  0  0  0  0  0  0  0
   -5.0115   -0.1910    0.9856 C   0  0  0  0  0  0  0  0  0  0  0  0
   -3.6742    1.9290    0.7142 C   0  0  0  0  0  0  0  0  0  0  0  0
   -3.8089    0.2081   -1.6770 C   0  0  0  0  0  0  0  0  0  0  0  0
   -3.7968   -1.0109    0.5175 C   0  0  0  0  0  0  0  0  0  0  0  0
   -2.4644    1.1009    0.2475 C   0  0  0  0  0  0  0  0  0  0  0  0
   -5.8613    0.1962   -0.2364 C   0  0  0  0  0  0  0  0  0  0  0  0
   -4.5311    2.3049   -0.5067 C   0  0  0  0  0  0  0  0  0  0  0  0
   -4.5189    1.0871    1.6855 C   0  0  0  0  0  0  0  0  0  0  0  0
   -0.8314   -1.4513   -0.0248 C   0  0  0  0  0  0  0  0  0  0  0  0
    1.2769   -2.7777   -0.0422 C   0  0  0  0  0  0  0  0  0  0  0  0
    2.4514   -1.8421    0.0663 C   0  0  0  0  0  0  0  0  0  0  0  0
    2.5716   -1.0220    1.1793 C   0  0  0  0  0  0  0  0  0  0  0  0
    3.3980   -1.8144   -0.9483 C   0  0  0  0  0  0  0  0  0  0  0  0
    3.6610   -0.1565    1.2799 C   0  0  0  0  0  0  0  0  0  0  0  0
    4.4873   -0.9490   -0.8475 C   0  0  0  0  0  0  0  0  0  0  0  0
    4.6188   -0.1200    0.2665 C   0  0  0  0  0  0  0  0  0  0  0  0
    5.6045    1.9596   -0.1259 C   0  0  0  0  0  0  0  0  0  0  0  0
  1 17  2  0
  2  7  1  0
  2 17  1  0
  3 17  1  0
  3 18  1  0
  4 24  1  0
  4 25  2  3
  5 25  1  0
  6 25  1  0
  7 11  1  0
  7 12  1  0
  7 13  1  0
  8 11  1  0
  8 14  1  0
  8 15  1  0
  9 12  1  0
  9 14  1  0
  9 16  1  0
 10 13  1  0
 10 15  1  0
 10 16  1  0
 18 19  1  0
 19 20  2  0
 19 21  1  0
 20 22  1  0
 21 23  2  0
 22 24  2  0
 23 24  1  0
M  END
>  <PUBCHEM_COMPOUND_CID>  (1) 
4286

>  <PUBCHEM_CONFORMER_RMSD>  (1) 
0.8

>  <PUBCHEM_CONFORMER_DIVERSEORDER>  (1) 
2
6
17
8
16
13
15
5
22
11
3
20
7
21
14
19
12
4
1
18
9
23
24
10

>  <PUBCHEM_MMFF94_PARTIAL_CHARGES>  (1) 
26
1 -0.57
17 0.69
18 0.44
19 -0.14
2 -0.73
20 -0.15
21 -0.15
22 -0.15
23 -0.15
24 0.18
25 0.55
3 -0.73
4 -0.63
41 0.37
42 0.37
45 0.15
46 0.15
47 0.15
48 0.15
49 0.4
5 -0.85
50 0.4
51 0.4
52 0.4
6 -0.85
7 0.3

>  <PUBCHEM_EFFECTIVE_ROTOR_COUNT>  (1) 
7.2

>  <PUBCHEM_PHARMACOPHORE_FEATURES>  (1) 
11
1 1 acceptor
1 2 donor
1 3 donor
1 5 donor
1 6 donor
4 4 5 6 25 cation
6 19 20 21 22 23 24 rings
6 7 8 10 11 13 15 rings
6 7 8 9 11 12 14 rings
6 7 9 10 12 13 16 rings
6 8 9 10 14 15 16 rings

>  <PUBCHEM_HEAVY_ATOM_COUNT>  (1) 
25

>  <PUBCHEM_ATOM_DEF_STEREO_COUNT>  (1) 
0

>  <PUBCHEM_ATOM_UDEF_STEREO_COUNT>  (1) 
0

>  <PUBCHEM_BOND_DEF_STEREO_COUNT>  (1) 
0

>  <PUBCHEM_BOND_UDEF_STEREO_COUNT>  (1) 
0

>  <PUBCHEM_ISOTOPIC_ATOM_COUNT>  (1) 
0

>  <PUBCHEM_COMPONENT_COUNT>  (1) 
1

>  <PUBCHEM_CACTVS_TAUTO_COUNT>  (1) 
6

>  <PUBCHEM_CONFORMER_ID>  (1) 
000010BE00000002

>  <PUBCHEM_MMFF94_ENERGY>  (1) 
68.2336

>  <PUBCHEM_FEATURE_SELFOVERLAP>  (1) 
68.462

>  <PUBCHEM_SHAPE_FINGERPRINT>  (1) 
10 15 18040719194453589090
10074138 170 16878797143475848707
10622 236 12246031160121039740
10670039 82 18341339873203569348
12523318 42 16950574311125887579
12596602 18 17967248702103906347
12633257 1 15647059300026822054
12760667 363 8646497309849501306
13103583 49 11675147130371325694
13885169 86 18264211473256727188
13911852 28 8718565899726568920
13914758 101 12035446143502196587
13955234 65 18188771618148493186
14251751 18 9943809993204884658
14257110 125 18411138060992939510
14420673 8 9727641617727786741
14528608 73 18059565854778182567
14739800 52 18040705940369117378
14840074 17 18412544318842611485
14848178 5 9799688190810834006
14848178 96 18341327816950619066
14849402 71 18263364703580588834
14910302 57 11023826128389704202
15142526 21 18041559247560837642
15183329 4 15698001821077606406
15188451 53 14418424325314462571
15575132 122 18130503029693823421
15788980 27 10231743492643259243
15961568 22 18335422365683703508
16067690 210 17532083908680985897
17844677 252 18339085861001483671
18608769 82 18269837682576966395
20511986 3 16660630840176681747
21033648 29 16877937205239426407
21033650 10 14835861563625289242
21315764 119 12679189292983402425
21401589 2 18260551164339677602
21623110 236 18412267203547791409
22061861 79 11887949951846989387
22849339 104 15123212386630530981
23559900 14 18047751494948385483
245318 6 17896616161557759420
25122255 55 10159699118155907212
2748736 6 18340758334705751792
2838139 119 18411414012678663406
2916195 48 18187363229161176651
316301 35 8935000361349440196
34797466 226 18201442437406753159
44062 13 10591771965040415723
474 4 18409727339734094946
497634 4 17131826552697062487
5104073 3 17968380022639674555
543368 44 18272650164648345441
559249 180 8574444127355143439
57724786 102 18199193879866049723
633830 44 18269552754193381103
7808743 9 18339920536793911578
7970288 3 9222964664230250492

>  <PUBCHEM_SHAPE_MULTIPOLES>  (1) 
483.71
16.42
2.83
1.31
9.1
0.82
0.08
11.28
-0.48
3.57
-0.33
-0.97
0.02
-0.06

>  <PUBCHEM_SHAPE_SELFOVERLAP>  (1) 
1046.64

>  <PUBCHEM_SHAPE_VOLUME>  (1) 
256.8

>  <PUBCHEM_COORDINATE_TYPE>  (1) 
2
5
10

$$$$
