42865
     RDKit          3D

 20 20  0  0  1  0  0  0  0  0999 V2000
    2.9796   -1.9740    1.8430 O   0  0  0  0  0  0  0  0  0  0  0  0
    2.8768    2.3409   -1.5427 O   0  0  0  0  0  0  0  0  0  0  0  0
   -4.0399    0.1860    0.3852 O   0  0  0  0  0  0  0  0  0  0  0  0
   -3.8770   -1.1878   -1.4546 O   0  0  0  0  0  0  0  0  0  0  0  0
    2.2399    0.1036    0.0771 N   0  0  0  0  0  0  0  0  0  0  0  0
    3.1610   -0.9394   -0.3142 C   0  0  0  0  0  0  0  0  0  0  0  0
    2.7835    1.3414    0.6366 C   0  0  0  0  0  0  0  0  0  0  0  0
    2.8423   -2.2246    0.4456 C   0  0  0  0  0  0  0  0  0  0  0  0
    2.3626    2.5289   -0.2256 C   0  0  0  0  0  0  0  0  0  0  0  0
    0.8564   -0.0479   -0.0822 C   0  0  0  0  0  0  0  0  0  0  0  0
    3.7967   -3.3455    0.0560 C   0  0  0  0  0  0  0  0  0  0  0  0
    2.9136    3.8352    0.3302 C   0  0  0  0  0  0  0  0  0  0  0  0
   -0.0304    0.5884    0.7941 C   0  0  0  0  0  0  0  0  0  0  0  0
    0.3469   -0.8371   -1.1198 C   0  0  0  0  0  0  0  0  0  0  0  0
   -1.4080    0.4373    0.6350 C   0  0  0  0  0  0  0  0  0  0  0  0
   -1.0308   -0.9884   -1.2787 C   0  0  0  0  0  0  0  0  0  0  0  0
   -1.9083   -0.3514   -0.4012 C   0  0  0  0  0  0  0  0  0  0  0  0
   -3.3446   -0.5092   -0.5663 C   0  0  0  0  0  0  0  0  0  0  0  0
   -5.4683    0.1079    0.3288 C   0  0  0  0  0  0  0  0  0  0  0  0
   -6.0521    0.9359    1.4538 C   0  0  0  0  0  0  0  0  0  0  0  0
  1  8  1  0
  2  9  1  0
  3 18  1  0
  3 19  1  0
  4 18  2  0
  5  6  1  0
  5  7  1  0
  5 10  1  0
  6  8  1  0
  7  9  1  0
  8 11  1  0
  9 12  1  0
 10 13  2  0
 10 14  1  0
 13 15  1  0
 14 16  2  0
 15 17  2  0
 16 17  1  0
 17 18  1  0
 19 20  1  0
M  END
>  <PUBCHEM_COMPOUND_CID>  (1) 
42865

>  <PUBCHEM_CONFORMER_RMSD>  (1) 
0.8

>  <PUBCHEM_CONFORMER_DIVERSEORDER>  (1) 
1
18
118
92
68
96
87
71
76
35
86
54
113
58
65
22
74
61
75
84
114
10
120
108
47
44
111
97
28
73
66
77
55
104
105
82
36
102
53
70
72
85
99
95
109
2
21
52
106
60
34
39
80
107
40
90
101
59
110
26
69
9
117
27
89
98
57
93
48
64
94
43
81
56
37
8
91
79
103
32
20
62
42
45
119
121
46
38
116
88
63
50
30
11
67
3
51
115
19
5
78
25
23
17
16
33
112
4
24
83
31
7
100
49
6
15
13
12
29
41
14

>  <PUBCHEM_MMFF94_PARTIAL_CHARGES>  (1) 
23
1 -0.68
10 0.1
13 -0.15
14 -0.15
15 -0.15
16 -0.15
17 0.09
18 0.63
19 0.28
2 -0.68
3 -0.43
33 0.15
34 0.15
35 0.15
36 0.15
37 0.4
38 0.4
4 -0.57
5 -0.84
6 0.37
7 0.37
8 0.28
9 0.28

>  <PUBCHEM_EFFECTIVE_ROTOR_COUNT>  (1) 
8

>  <PUBCHEM_PHARMACOPHORE_FEATURES>  (1) 
7
1 1 acceptor
1 1 donor
1 2 acceptor
1 2 donor
1 4 acceptor
1 5 cation
6 10 13 14 15 16 17 rings

>  <PUBCHEM_HEAVY_ATOM_COUNT>  (1) 
20

>  <PUBCHEM_ATOM_DEF_STEREO_COUNT>  (1) 
0

>  <PUBCHEM_ATOM_UDEF_STEREO_COUNT>  (1) 
2

>  <PUBCHEM_BOND_DEF_STEREO_COUNT>  (1) 
0

>  <PUBCHEM_BOND_UDEF_STEREO_COUNT>  (1) 
0

>  <PUBCHEM_ISOTOPIC_ATOM_COUNT>  (1) 
0

>  <PUBCHEM_COMPONENT_COUNT>  (1) 
1

>  <PUBCHEM_CACTVS_TAUTO_COUNT>  (1) 
1

>  <PUBCHEM_CONFORMER_ID>  (1) 
0000A77100000001

>  <PUBCHEM_MMFF94_ENERGY>  (1) 
59.2796

>  <PUBCHEM_FEATURE_SELFOVERLAP>  (1) 
35.522

>  <PUBCHEM_SHAPE_FINGERPRINT>  (1) 
10062212 137 17774992493277069087
11405975 8 18411702084720093371
12107183 9 18126852590970277067
12293681 160 17700428150098746120
12553582 1 18265603287273495294
12616971 3 18273213076379519399
12644460 14 18410860970650356618
13533116 47 18333739013792482827
13583140 156 18263943157959046025
13878862 14 18264188289186911253
13955234 65 18408605885308009498
15238133 3 17346606223255233769
15806764 133 17677042448033911741
15842332 3 17987218096965570479
17818456 19 17774162280172004705
17868525 174 18264764351110912849
1813 80 18197224646320293534
18186145 218 18186795898620714303
19765921 60 17911514617080730808
19784866 34 18124592247908022584
20559304 39 18201433675636240282
20645477 70 18334856121268657291
20832881 197 17897723167560289315
21421861 104 18410848854922356144
2255824 54 18411133671531296222
22849341 161 18269848509956949786
23559900 14 18411416215480402234
25147074 1 17988069097669902495
268830 7 18413384354743103317
31174 14 18334006181832151860
394222 165 18198337549555325986
4072396 5 17274537608236498967
4409770 3 17253988654909935548
465052 167 18339932510851879567
474 4 18191579972365910412
5104073 3 18131070446545160411
6049 1 17604134948539745965
621550 5 17677896716986901038
633830 44 18343303691038444711
7364860 26 18410849993341630292
81228 2 17470990507793505344
8272917 22 18409452500740053122
9841814 1 18115014222019600466

>  <PUBCHEM_SHAPE_MULTIPOLES>  (1) 
383.13
10.16
3.34
1.3
16.71
1.68
-0.01
-0.13
-2.72
-6.84
-0.15
0.26
-0.18
-1.82

>  <PUBCHEM_SHAPE_SELFOVERLAP>  (1) 
772.178

>  <PUBCHEM_SHAPE_VOLUME>  (1) 
225.5

>  <PUBCHEM_COORDINATE_TYPE>  (1) 
2
5
10

$$$$
