42867
     RDKit          3D

 43 49  0  0  0  0  0  0  0  0999 V2000
    8.0014    5.4078   -0.9588 F   0  0  0  0  0  0  0  0  0  0  0  0
   -8.0645    5.3157   -1.0870 F   0  0  0  0  0  0  0  0  0  0  0  0
    3.2540   -1.3399    0.6497 N   0  0  0  0  0  0  0  0  0  0  0  0
   -3.3191   -1.4012    0.6496 N   0  0  0  0  0  0  0  0  0  0  0  0
    0.6968   -1.7758    1.9020 N   0  0  0  0  0  0  0  0  0  0  0  0
    4.8551    0.9159   -0.0631 N   0  0  0  0  0  0  0  0  0  0  0  0
   -4.9635    0.8126   -0.0949 N   0  0  0  0  0  0  0  0  0  0  0  0
    1.1043   -2.4191    0.7553 C   0  0  0  0  0  0  0  0  0  0  0  0
   -1.1357   -2.4117    0.8074 C   0  0  0  0  0  0  0  0  0  0  0  0
    2.5379   -2.5942    0.4210 C   0  0  0  0  0  0  0  0  0  0  0  0
   -2.5658   -2.6362    0.4352 C   0  0  0  0  0  0  0  0  0  0  0  0
   -0.0161   -2.8221    0.0612 C   0  0  0  0  0  0  0  0  0  0  0  0
    2.6996   -0.2699   -0.1885 C   0  0  0  0  0  0  0  0  0  0  0  0
    4.6852   -1.5051    0.3665 C   0  0  0  0  0  0  0  0  0  0  0  0
   -4.7386   -1.6026    0.3346 C   0  0  0  0  0  0  0  0  0  0  0  0
   -2.7738   -0.3157   -0.1749 C   0  0  0  0  0  0  0  0  0  0  0  0
   -0.6943   -1.7714    1.9339 C   0  0  0  0  0  0  0  0  0  0  0  0
    3.4036    1.0621    0.0822 C   0  0  0  0  0  0  0  0  0  0  0  0
    5.4549   -0.2147    0.6568 C   0  0  0  0  0  0  0  0  0  0  0  0
   -5.5486   -0.3329    0.6085 C   0  0  0  0  0  0  0  0  0  0  0  0
   -3.5176    0.9966    0.0831 C   0  0  0  0  0  0  0  0  0  0  0  0
    0.0497   -3.5273   -1.1881 C   0  0  0  0  0  0  0  0  0  0  0  0
    1.4832   -1.2034    2.9021 C   0  0  0  0  0  0  0  0  0  0  0  0
   -1.3242   -1.1475    3.0497 C   0  0  0  0  0  0  0  0  0  0  0  0
    5.6476    2.0470   -0.2882 C   0  0  0  0  0  0  0  0  0  0  0  0
   -5.7447    1.9463   -0.3451 C   0  0  0  0  0  0  0  0  0  0  0  0
    0.8848   -0.6166    3.9514 C   0  0  0  0  0  0  0  0  0  0  0  0
   -0.5673   -0.5939    4.0166 C   0  0  0  0  0  0  0  0  0  0  0  0
    0.0711   -2.8179   -2.3888 C   0  0  0  0  0  0  0  0  0  0  0  0
    0.0923   -4.9214   -1.2005 C   0  0  0  0  0  0  0  0  0  0  0  0
    5.2711    3.3085    0.2142 C   0  0  0  0  0  0  0  0  0  0  0  0
    6.8458    1.9585   -1.0246 C   0  0  0  0  0  0  0  0  0  0  0  0
   -5.5125    2.7521   -1.4775 C   0  0  0  0  0  0  0  0  0  0  0  0
   -6.7866    2.3166    0.5284 C   0  0  0  0  0  0  0  0  0  0  0  0
    0.1349   -3.5028   -3.6023 C   0  0  0  0  0  0  0  0  0  0  0  0
    0.1560   -5.6061   -2.4140 C   0  0  0  0  0  0  0  0  0  0  0  0
    0.1773   -4.8968   -3.6148 C   0  0  0  0  0  0  0  0  0  0  0  0
    6.0607    4.4360   -0.0109 C   0  0  0  0  0  0  0  0  0  0  0  0
    7.6356    3.0861   -1.2497 C   0  0  0  0  0  0  0  0  0  0  0  0
   -6.2907    3.8826   -1.7265 C   0  0  0  0  0  0  0  0  0  0  0  0
   -7.5651    3.4472    0.2796 C   0  0  0  0  0  0  0  0  0  0  0  0
    7.2430    4.3249   -0.7427 C   0  0  0  0  0  0  0  0  0  0  0  0
   -7.3172    4.2301   -0.8480 C   0  0  0  0  0  0  0  0  0  0  0  0
  1 42  1  0
  2 43  1  0
  3 10  1  0
  3 13  1  0
  3 14  1  0
  4 11  1  0
  4 15  1  0
  4 16  1  0
  5  8  1  0
  5 17  1  0
  5 23  1  0
  6 18  1  0
  6 19  1  0
  6 25  1  0
  7 20  1  0
  7 21  1  0
  7 26  1  0
  8 10  1  0
  8 12  2  0
  9 11  1  0
  9 12  1  0
  9 17  2  0
 12 22  1  0
 13 18  1  0
 14 19  1  0
 15 20  1  0
 16 21  1  0
 17 24  1  0
 22 29  2  0
 22 30  1  0
 23 27  2  0
 24 28  2  0
 25 31  2  0
 25 32  1  0
 26 33  2  0
 26 34  1  0
 27 28  1  0
 29 35  1  0
 30 36  2  0
 31 38  1  0
 32 39  2  0
 33 40  1  0
 34 41  2  0
 35 37  2  0
 36 37  1  0
 38 42  2  0
 39 42  1  0
 40 43  2  0
 41 43  1  0
M  END
>  <PUBCHEM_COMPOUND_CID>  (1) 
42867

>  <PUBCHEM_CONFORMER_RMSD>  (1) 
1.2

>  <PUBCHEM_CONFORMER_DIVERSEORDER>  (1) 
1
64
4
25
40
57
58
17
3
34
22
47
26
42
61
36
15
52
29
45
48
39
32
43
23
12
53
62
16
33
55
56
14
63
35
60
38
20
31
9
51
37
18
54
28
41
30
21
10
44
13
24
6
8
5
11
59
49
27
7
50
19
2
46

>  <PUBCHEM_MMFF94_PARTIAL_CHARGES>  (1) 
60
1 -0.19
10 0.45
11 0.45
12 -0.05
13 0.27
14 0.27
15 0.27
16 0.27
17 -0.2
18 0.37
19 0.37
2 -0.19
20 0.37
21 0.37
22 0.05
23 -0.18
24 -0.11
25 0.1
26 0.1
27 -0.15
28 -0.15
29 -0.15
3 -0.81
30 -0.15
31 -0.15
32 -0.15
33 -0.15
34 -0.15
35 -0.15
36 -0.15
37 -0.15
38 -0.15
39 -0.15
4 -0.81
40 -0.15
41 -0.15
42 0.19
43 0.19
5 0.33
6 -0.84
64 0.15
65 0.15
66 0.15
67 0.15
68 0.15
69 0.15
7 -0.84
70 0.15
71 0.15
72 0.15
73 0.15
74 0.15
75 0.15
76 0.15
77 0.15
78 0.15
79 0.15
8 -0.33
80 0.15
9 -0.18

>  <PUBCHEM_EFFECTIVE_ROTOR_COUNT>  (1) 
9.4

>  <PUBCHEM_PHARMACOPHORE_FEATURES>  (1) 
12
1 3 cation
1 4 cation
1 5 cation
1 6 cation
1 7 cation
5 5 8 9 12 17 rings
6 22 29 30 35 36 37 rings
6 25 31 32 38 39 42 rings
6 26 33 34 40 41 43 rings
6 3 6 13 14 18 19 rings
6 4 7 15 16 20 21 rings
6 5 17 23 24 27 28 rings

>  <PUBCHEM_HEAVY_ATOM_COUNT>  (1) 
43

>  <PUBCHEM_ATOM_DEF_STEREO_COUNT>  (1) 
0

>  <PUBCHEM_ATOM_UDEF_STEREO_COUNT>  (1) 
0

>  <PUBCHEM_BOND_DEF_STEREO_COUNT>  (1) 
0

>  <PUBCHEM_BOND_UDEF_STEREO_COUNT>  (1) 
0

>  <PUBCHEM_ISOTOPIC_ATOM_COUNT>  (1) 
0

>  <PUBCHEM_COMPONENT_COUNT>  (1) 
1

>  <PUBCHEM_CACTVS_TAUTO_COUNT>  (1) 
1

>  <PUBCHEM_CONFORMER_ID>  (1) 
0000A77300000001

>  <PUBCHEM_MMFF94_ENERGY>  (1) 
143.7793

>  <PUBCHEM_FEATURE_SELFOVERLAP>  (1) 
61.013

>  <PUBCHEM_SHAPE_FINGERPRINT>  (1) 
10673678 19 18341614763779247843
10985338 8 18410846638386779131
11093857 51 17987500542552109803
11505856 67 18195516207003760575
11621639 254 18125437764228866039
11621639 307 18052528057486117612
117089 54 9943809992868131956
11828422 8 18339085873918957174
13636023 51 17982729680659936863
13690498 29 17126211574284663198
13726171 33 18335143081672999297
13911987 19 17631749273150446667
15064981 113 17417268593135774332
15705408 1 16838565725653896094
15803439 3 17560802155881005230
15950262 2 18259705596679024450
15975801 100 18199183065534544311
16114785 44 18117277176048014738
17899979 129 18341618053333851805
19053607 189 18337099155545046752
19309040 13 18334571347888841118
19438510 23 17967814976546852160
21792965 106 17758399957046399632
21796203 349 12396592840261872162
23191077 185 18337659932012809858
25025965 108 14259978008689247436
2838139 119 18334009497304707474
4112364 45 17677039145246551321
44249763 50 17771904111417541976
44802255 64 18127143080973143910
50009960 94 8286193938720002841
57527358 35 18260826020830645618
5951187 136 18191867829663652751
6677587 24 18193816181690612885

>  <PUBCHEM_SHAPE_MULTIPOLES>  (1) 
845.47
20.45
8.67
3.3
1.8
2.02
-1.63
49.85
8.29
-0.92
8.58
0.21
-3.98
0.62

>  <PUBCHEM_SHAPE_SELFOVERLAP>  (1) 
1861.966

>  <PUBCHEM_SHAPE_VOLUME>  (1) 
455.8

>  <PUBCHEM_COORDINATE_TYPE>  (1) 
2
5
10

$$$$
