42874
     RDKit          3D

 21 23  0  0  1  0  0  0  0  0999 V2000
   -6.3338    1.0251   -0.0561 Cl  0  0  0  0  0  0  0  0  0  0  0  0
    0.2432    0.0666   -0.1875 O   0  0  0  0  0  0  0  0  0  0  0  0
    2.7959    3.5487    0.4405 O   0  0  0  0  0  0  0  0  0  0  0  0
    1.9579    1.8269    1.6527 O   0  0  0  0  0  0  0  0  0  0  0  0
   -0.2395   -2.1180    0.1751 N   0  0  0  0  0  0  0  0  0  0  0  0
    2.7064   -0.1090   -0.2645 C   0  0  0  0  0  0  0  0  0  0  0  0
    2.9962    1.3311   -0.5018 C   0  0  0  0  0  0  0  0  0  0  0  0
    1.4217   -0.6209   -0.1299 C   0  0  0  0  0  0  0  0  0  0  0  0
    1.1224   -1.9569    0.0923 C   0  0  0  0  0  0  0  0  0  0  0  0
    3.7437   -1.0422   -0.1618 C   0  0  0  0  0  0  0  0  0  0  0  0
    2.4024    1.8845   -1.8148 C   0  0  0  0  0  0  0  0  0  0  0  0
   -0.6997   -0.8982    0.0032 C   0  0  0  0  0  0  0  0  0  0  0  0
    2.1738   -2.8793    0.1926 C   0  0  0  0  0  0  0  0  0  0  0  0
    3.4854   -2.4002    0.0621 C   0  0  0  0  0  0  0  0  0  0  0  0
    2.5270    2.2324    0.6474 C   0  0  0  0  0  0  0  0  0  0  0  0
   -2.0594   -0.4341   -0.0112 C   0  0  0  0  0  0  0  0  0  0  0  0
   -2.3377    0.9211   -0.2107 C   0  0  0  0  0  0  0  0  0  0  0  0
   -3.1118   -1.3347    0.1745 C   0  0  0  0  0  0  0  0  0  0  0  0
   -3.6576    1.3719   -0.2243 C   0  0  0  0  0  0  0  0  0  0  0  0
   -4.4318   -0.8841    0.1608 C   0  0  0  0  0  0  0  0  0  0  0  0
   -4.7047    0.4693   -0.0385 C   0  0  0  0  0  0  0  0  0  0  0  0
  1 21  1  0
  2  8  1  0
  2 12  1  0
  3 15  1  0
  4 15  2  0
  5  9  1  0
  5 12  2  0
  6  7  1  0
  6  8  2  0
  6 10  1  0
  7 11  1  0
  7 15  1  0
  8  9  1  0
  9 13  2  0
 10 14  2  0
 12 16  1  0
 13 14  1  0
 16 17  2  0
 16 18  1  0
 17 19  1  0
 18 20  2  0
 19 21  2  0
 20 21  1  0
M  END
>  <PUBCHEM_COMPOUND_CID>  (1) 
42874

>  <PUBCHEM_CONFORMER_RMSD>  (1) 
0.6

>  <PUBCHEM_CONFORMER_DIVERSEORDER>  (1) 
2
3
6
4
7
5
1

>  <PUBCHEM_MMFF94_PARTIAL_CHARGES>  (1) 
28
1 -0.18
10 -0.15
12 0.43
13 -0.15
14 -0.15
15 0.66
16 0.05
17 -0.15
18 -0.15
19 -0.15
2 -0.28
20 -0.15
21 0.18
23 0.15
27 0.15
28 0.15
29 0.15
3 -0.65
30 0.15
31 0.15
32 0.15
33 0.5
4 -0.57
5 -0.57
6 -0.14
7 0.2
8 0.14
9 0.23

>  <PUBCHEM_EFFECTIVE_ROTOR_COUNT>  (1) 
3

>  <PUBCHEM_PHARMACOPHORE_FEATURES>  (1) 
7
1 11 hydrophobe
1 3 acceptor
1 4 acceptor
3 3 4 15 anion
5 2 5 8 9 12 rings
6 16 17 18 19 20 21 rings
6 6 8 9 10 13 14 rings

>  <PUBCHEM_HEAVY_ATOM_COUNT>  (1) 
21

>  <PUBCHEM_ATOM_DEF_STEREO_COUNT>  (1) 
0

>  <PUBCHEM_ATOM_UDEF_STEREO_COUNT>  (1) 
1

>  <PUBCHEM_BOND_DEF_STEREO_COUNT>  (1) 
0

>  <PUBCHEM_BOND_UDEF_STEREO_COUNT>  (1) 
0

>  <PUBCHEM_ISOTOPIC_ATOM_COUNT>  (1) 
0

>  <PUBCHEM_COMPONENT_COUNT>  (1) 
1

>  <PUBCHEM_CACTVS_TAUTO_COUNT>  (1) 
1

>  <PUBCHEM_CONFORMER_ID>  (1) 
0000A77A00000002

>  <PUBCHEM_MMFF94_ENERGY>  (1) 
43.0559

>  <PUBCHEM_FEATURE_SELFOVERLAP>  (1) 
35.698

>  <PUBCHEM_SHAPE_FINGERPRINT>  (1) 
10165383 225 18261964045566742996
10411042 1 17906734704948945678
10608611 8 18408321081863662119
11405975 8 18409168792749821963
11582403 64 16555913520166611056
11595378 159 15647044916308000789
11725454 13 16626857343306380912
12403259 226 18189893123854372439
12616971 3 18202278075186997919
12730499 353 18337964483911468803
13134695 92 18199739268051333278
13140716 1 18263357148210557354
13533116 47 18411138013890776125
138480 1 18411418376059968120
13878862 14 18263061268282847029
13965767 371 17970891479059808468
14170010 4 18411696556806877074
14178342 30 17975687613135695650
14528608 73 18341891922693166533
14848178 96 18410854404046755153
14866123 147 16394368387697876283
15196674 1 18408606972483555935
15420108 30 18127951196555495794
17868525 174 18118676630515859257
17980427 23 17914865778341053798
18186145 218 17987812919718008705
18681886 176 18271800190394315418
21065198 57 18409449163920034667
21133410 127 17895190064754371853
21267235 1 18265341607611037399
21452121 103 18411973693740083424
221357 26 18339643313544400933
221490 88 18335991912553929867
22149856 69 18192168173481910283
22289505 5 18264203608632947238
22854114 111 18412544340058484550
23419403 2 17696717045177953160
23558518 356 17972032810589038394
23559900 14 18409164390123578131
283562 15 17759528772987525442
3060560 45 17632302259106113590
335352 9 18336829693042996190
345986 75 17027945642908139306
350125 39 18335986393473007557
3545911 37 18334298639304170719
474 4 18040439935806551741
49207404 50 18116440417159648787
495365 180 18272923955527546219
5104073 3 18335424569534312947
57124632 79 18269823363166518816
5895379 119 16270820926181765144
6443956 14 18339645517058023310
67856867 119 18411692205941826107
7364860 26 18411981351883199094
7471813 234 17987787510633573680
7808743 9 17616534394876077780
84936 182 18342459287314097688
9709674 26 18336553741869319227
9971528 1 18200308806522029350
9981440 41 17978501259101281344
9999458 23 18040439875666966830

>  <PUBCHEM_SHAPE_MULTIPOLES>  (1) 
411.45
10.1
3.2
0.92
15.68
0.88
0.06
1.9
0.27
-4.08
-0.4
-0.67
0.62
0.23

>  <PUBCHEM_SHAPE_SELFOVERLAP>  (1) 
900.277

>  <PUBCHEM_SHAPE_VOLUME>  (1) 
225.2

>  <PUBCHEM_COORDINATE_TYPE>  (1) 
2
5
10

$$$$
