42872
     RDKit          3D

 41 47  0  0  0  0  0  0  0  0999 V2000
    3.2524    1.0356   -0.6713 N   0  0  0  0  0  0  0  0  0  0  0  0
   -3.3206    1.1034   -0.6641 N   0  0  0  0  0  0  0  0  0  0  0  0
    0.6934    1.3951   -1.9441 N   0  0  0  0  0  0  0  0  0  0  0  0
    4.8527   -1.1728    0.1782 N   0  0  0  0  0  0  0  0  0  0  0  0
   -4.9657   -1.0581    0.2198 N   0  0  0  0  0  0  0  0  0  0  0  0
    1.1035    2.1083   -0.8405 C   0  0  0  0  0  0  0  0  0  0  0  0
   -1.1366    2.0999   -0.8883 C   0  0  0  0  0  0  0  0  0  0  0  0
    2.5377    2.3025   -0.5201 C   0  0  0  0  0  0  0  0  0  0  0  0
   -2.5659    2.3486   -0.5284 C   0  0  0  0  0  0  0  0  0  0  0  0
   -0.0154    2.5549   -0.1710 C   0  0  0  0  0  0  0  0  0  0  0  0
    2.6985    0.0206    0.2330 C   0  0  0  0  0  0  0  0  0  0  0  0
    4.6842    1.2168   -0.4013 C   0  0  0  0  0  0  0  0  0  0  0  0
   -4.7394    1.3253   -0.3599 C   0  0  0  0  0  0  0  0  0  0  0  0
   -2.7749    0.0709    0.2256 C   0  0  0  0  0  0  0  0  0  0  0  0
   -0.6978    1.3901   -1.9734 C   0  0  0  0  0  0  0  0  0  0  0  0
    3.4008   -1.3264    0.0447 C   0  0  0  0  0  0  0  0  0  0  0  0
    5.4523   -0.0900   -0.6119 C   0  0  0  0  0  0  0  0  0  0  0  0
   -5.5511    0.0418   -0.5527 C   0  0  0  0  0  0  0  0  0  0  0  0
   -3.5203   -1.2542    0.0512 C   0  0  0  0  0  0  0  0  0  0  0  0
    0.0532    3.3366    1.0317 C   0  0  0  0  0  0  0  0  0  0  0  0
    1.4776    0.7606   -2.9079 C   0  0  0  0  0  0  0  0  0  0  0  0
   -1.3301    0.6984   -3.0470 C   0  0  0  0  0  0  0  0  0  0  0  0
    5.6446   -2.2885    0.4721 C   0  0  0  0  0  0  0  0  0  0  0  0
   -5.7474   -2.1732    0.5416 C   0  0  0  0  0  0  0  0  0  0  0  0
    0.8768    0.1101   -3.9175 C   0  0  0  0  0  0  0  0  0  0  0  0
   -0.5754    0.0848   -3.9787 C   0  0  0  0  0  0  0  0  0  0  0  0
    0.0760    2.7035    2.2744 C   0  0  0  0  0  0  0  0  0  0  0  0
    0.0970    4.7287    0.9570 C   0  0  0  0  0  0  0  0  0  0  0  0
    5.2663   -3.5788    0.0500 C   0  0  0  0  0  0  0  0  0  0  0  0
    6.8443   -2.1554    1.1994 C   0  0  0  0  0  0  0  0  0  0  0  0
   -5.5143   -2.9073    1.7217 C   0  0  0  0  0  0  0  0  0  0  0  0
   -6.7915   -2.5962   -0.3054 C   0  0  0  0  0  0  0  0  0  0  0  0
    0.1425    3.4627    3.4427 C   0  0  0  0  0  0  0  0  0  0  0  0
    0.1634    5.4878    2.1254 C   0  0  0  0  0  0  0  0  0  0  0  0
    0.1862    4.8547    3.3681 C   0  0  0  0  0  0  0  0  0  0  0  0
    6.0555   -4.6909    0.3437 C   0  0  0  0  0  0  0  0  0  0  0  0
    7.6335   -3.2676    1.4930 C   0  0  0  0  0  0  0  0  0  0  0  0
   -6.2932   -4.0193    2.0419 C   0  0  0  0  0  0  0  0  0  0  0  0
   -7.5704   -3.7081    0.0149 C   0  0  0  0  0  0  0  0  0  0  0  0
    7.2390   -4.5352    1.0650 C   0  0  0  0  0  0  0  0  0  0  0  0
   -7.3212   -4.4196    1.1886 C   0  0  0  0  0  0  0  0  0  0  0  0
  1  8  1  0
  1 11  1  0
  1 12  1  0
  2  9  1  0
  2 13  1  0
  2 14  1  0
  3  6  1  0
  3 15  1  0
  3 21  1  0
  4 16  1  0
  4 17  1  0
  4 23  1  0
  5 18  1  0
  5 19  1  0
  5 24  1  0
  6  8  1  0
  6 10  2  0
  7  9  1  0
  7 10  1  0
  7 15  2  0
 10 20  1  0
 11 16  1  0
 12 17  1  0
 13 18  1  0
 14 19  1  0
 15 22  1  0
 20 27  2  0
 20 28  1  0
 21 25  2  0
 22 26  2  0
 23 29  2  0
 23 30  1  0
 24 31  2  0
 24 32  1  0
 25 26  1  0
 27 33  1  0
 28 34  2  0
 29 36  1  0
 30 37  2  0
 31 38  1  0
 32 39  2  0
 33 35  2  0
 34 35  1  0
 36 40  2  0
 37 40  1  0
 38 41  2  0
 39 41  1  0
M  END
>  <PUBCHEM_COMPOUND_CID>  (1) 
42872

>  <PUBCHEM_CONFORMER_RMSD>  (1) 
1.2

>  <PUBCHEM_CONFORMER_DIVERSEORDER>  (1) 
1
40
49
10
41
26
47
32
29
48
31
18
38
3
50
35
53
44
30
45
4
54
52
37
20
21
24
39
23
51
46
22
15
34
13
28
17
43
12
8
14
25
11
7
42
27
5
33
16
9
36
19
6
2

>  <PUBCHEM_MMFF94_PARTIAL_CHARGES>  (1) 
60
1 -0.81
10 -0.05
11 0.27
12 0.27
13 0.27
14 0.27
15 -0.2
16 0.37
17 0.37
18 0.37
19 0.37
2 -0.81
20 0.05
21 -0.18
22 -0.11
23 0.1
24 0.1
25 -0.15
26 -0.15
27 -0.15
28 -0.15
29 -0.15
3 0.33
30 -0.15
31 -0.15
32 -0.15
33 -0.15
34 -0.15
35 -0.15
36 -0.15
37 -0.15
38 -0.15
39 -0.15
4 -0.84
40 -0.15
41 -0.15
5 -0.84
6 -0.33
62 0.15
63 0.15
64 0.15
65 0.15
66 0.15
67 0.15
68 0.15
69 0.15
7 -0.18
70 0.15
71 0.15
72 0.15
73 0.15
74 0.15
75 0.15
76 0.15
77 0.15
78 0.15
79 0.15
8 0.45
80 0.15
9 0.45

>  <PUBCHEM_EFFECTIVE_ROTOR_COUNT>  (1) 
9.4

>  <PUBCHEM_PHARMACOPHORE_FEATURES>  (1) 
12
1 1 cation
1 2 cation
1 3 cation
1 4 cation
1 5 cation
5 3 6 7 10 15 rings
6 1 4 11 12 16 17 rings
6 2 5 13 14 18 19 rings
6 20 27 28 33 34 35 rings
6 23 29 30 36 37 40 rings
6 24 31 32 38 39 41 rings
6 3 15 21 22 25 26 rings

>  <PUBCHEM_HEAVY_ATOM_COUNT>  (1) 
41

>  <PUBCHEM_ATOM_DEF_STEREO_COUNT>  (1) 
0

>  <PUBCHEM_ATOM_UDEF_STEREO_COUNT>  (1) 
0

>  <PUBCHEM_BOND_DEF_STEREO_COUNT>  (1) 
0

>  <PUBCHEM_BOND_UDEF_STEREO_COUNT>  (1) 
0

>  <PUBCHEM_ISOTOPIC_ATOM_COUNT>  (1) 
0

>  <PUBCHEM_COMPONENT_COUNT>  (1) 
1

>  <PUBCHEM_CACTVS_TAUTO_COUNT>  (1) 
1

>  <PUBCHEM_CONFORMER_ID>  (1) 
0000A77800000001

>  <PUBCHEM_MMFF94_ENERGY>  (1) 
143.6408

>  <PUBCHEM_FEATURE_SELFOVERLAP>  (1) 
61.013

>  <PUBCHEM_SHAPE_FINGERPRINT>  (1) 
10305334 12 17476919052662215564
11497681 19 18041001731078961230
117089 54 18335141981386437010
12202916 173 17844234130831262413
12633046 712 18336817659009084125
12988421 55 14691136082967482908
131258 38 18119237609195979294
13636023 51 17695353960081779489
13782708 43 18186235134473272343
13947947 140 18336555945134775187
14068700 675 18335984169075483184
14400156 147 18333445439260287131
15064981 113 12685372895397634778
15219463 3 17687209503318623549
15448158 6 18261103101860373035
15475509 35 18193841668026585349
15513586 35 15261650788299688592
15803439 3 12757155675135743616
19315092 285 18335143089861590540
19319366 153 18125719243654408132
20775438 99 16733561549362579622
21033648 29 15626227871059568561
21796203 349 17846216713050880572
21987483 16 17266943586936568335
244849 19 18121191403299931077
32027 91 18267579286226257827
3886686 26 17191232924873776174
4616759 239 17908964536447264586
484985 159 17828479168201721308
50009960 94 18341326778012262759
57527358 35 18259705584032545764
58260988 114 18120937209796591734
6679774 75 17692512822062773208
6700243 42 17096630167336875431
9896288 288 17627507134563441112
9981440 41 16338621082854761988

>  <PUBCHEM_SHAPE_MULTIPOLES>  (1) 
818.86
19.01
7.96
3.33
1.8
0.21
1.88
-43.03
-8.79
-0.95
-8.3
0.24
3.04
0.56

>  <PUBCHEM_SHAPE_SELFOVERLAP>  (1) 
1800.111

>  <PUBCHEM_SHAPE_VOLUME>  (1) 
433.7

>  <PUBCHEM_COORDINATE_TYPE>  (1) 
2
5
10

$$$$
