42873
     RDKit          3D

 29 33  0  0  0  0  0  0  0  0999 V2000
   -0.5368   -0.0368    1.0863 N   0  0  0  0  0  0  0  0  0  0  0  0
   -3.2411    0.3374    0.2464 N   0  0  0  0  0  0  0  0  0  0  0  0
    1.7290   -1.7598    0.4096 N   0  0  0  0  0  0  0  0  0  0  0  0
   -0.8505    0.1907   -0.3295 C   0  0  0  0  0  0  0  0  0  0  0  0
   -1.4811    0.7036    1.9323 C   0  0  0  0  0  0  0  0  0  0  0  0
    0.8384    0.3664    1.3784 C   0  0  0  0  0  0  0  0  0  0  0  0
   -2.2690   -0.2795   -0.6613 C   0  0  0  0  0  0  0  0  0  0  0  0
   -2.9199    0.2494    1.6764 C   0  0  0  0  0  0  0  0  0  0  0  0
    1.8360   -0.4079    0.5586 C   0  0  0  0  0  0  0  0  0  0  0  0
    2.9257    0.0509   -0.1207 C   0  0  0  0  0  0  0  0  0  0  0  0
    3.5352   -1.0736   -0.7290 C   0  0  0  0  0  0  0  0  0  0  0  0
    2.7856   -2.1803   -0.3922 C   0  0  0  0  0  0  0  0  0  0  0  0
   -4.5895    0.4037   -0.1218 C   0  0  0  0  0  0  0  0  0  0  0  0
    3.3162    1.4322   -0.1626 C   0  0  0  0  0  0  0  0  0  0  0  0
    0.7724   -2.6329    0.9283 C   0  0  0  0  0  0  0  0  0  0  0  0
    2.8754   -3.5722   -0.6846 C   0  0  0  0  0  0  0  0  0  0  0  0
    4.7512   -1.0640   -1.5699 C   0  0  0  0  0  0  0  0  0  0  0  0
   -5.1635   -0.5769   -0.9557 C   0  0  0  0  0  0  0  0  0  0  0  0
   -5.4143    1.4533    0.3299 C   0  0  0  0  0  0  0  0  0  0  0  0
    0.8614   -3.9436    0.6497 C   0  0  0  0  0  0  0  0  0  0  0  0
    1.9530   -4.4173   -0.1853 C   0  0  0  0  0  0  0  0  0  0  0  0
    2.8242    2.2656   -1.1670 C   0  0  0  0  0  0  0  0  0  0  0  0
    4.1874    1.9399    0.8009 C   0  0  0  0  0  0  0  0  0  0  0  0
   -6.5074   -0.5103   -1.3231 C   0  0  0  0  0  0  0  0  0  0  0  0
   -6.7583    1.5197   -0.0375 C   0  0  0  0  0  0  0  0  0  0  0  0
    3.2037    3.6072   -1.2080 C   0  0  0  0  0  0  0  0  0  0  0  0
    4.5667    3.2817    0.7599 C   0  0  0  0  0  0  0  0  0  0  0  0
   -7.3048    0.5379   -0.8640 C   0  0  0  0  0  0  0  0  0  0  0  0
    4.0748    4.1153   -0.2446 C   0  0  0  0  0  0  0  0  0  0  0  0
  1  4  1  0
  1  5  1  0
  1  6  1  0
  2  7  1  0
  2  8  1  0
  2 13  1  0
  3  9  1  0
  3 12  1  0
  3 15  1  0
  4  7  1  0
  5  8  1  0
  6  9  1  0
  9 10  2  0
 10 11  1  0
 10 14  1  0
 11 12  2  0
 11 17  1  0
 12 16  1  0
 13 18  2  0
 13 19  1  0
 14 22  2  0
 14 23  1  0
 15 20  2  0
 16 21  2  0
 18 24  1  0
 19 25  2  0
 20 21  1  0
 22 26  1  0
 23 27  2  0
 24 28  2  0
 25 28  1  0
 26 29  2  0
 27 29  1  0
M  END
>  <PUBCHEM_COMPOUND_CID>  (1) 
42873

>  <PUBCHEM_CONFORMER_RMSD>  (1) 
0.8

>  <PUBCHEM_CONFORMER_DIVERSEORDER>  (1) 
1
18
23
21
24
9
20
11
14
15
3
8
12
5
4
16
10
6
7
13
2
17
22
19

>  <PUBCHEM_MMFF94_PARTIAL_CHARGES>  (1) 
43
1 -0.81
10 -0.05
11 -0.18
12 -0.2
13 0.1
14 0.05
15 -0.18
16 -0.11
17 0.18
18 -0.15
19 -0.15
2 -0.84
20 -0.15
21 -0.15
22 -0.15
23 -0.15
24 -0.15
25 -0.15
26 -0.15
27 -0.15
28 -0.15
29 -0.15
3 0.33
4 0.27
40 0.15
41 0.15
45 0.15
46 0.15
47 0.15
48 0.15
49 0.15
5 0.27
50 0.15
51 0.15
52 0.15
53 0.15
54 0.15
55 0.15
56 0.15
6 0.45
7 0.37
8 0.37
9 -0.33

>  <PUBCHEM_EFFECTIVE_ROTOR_COUNT>  (1) 
5.2

>  <PUBCHEM_PHARMACOPHORE_FEATURES>  (1) 
8
1 1 cation
1 2 cation
1 3 cation
5 3 9 10 11 12 rings
6 1 2 4 5 7 8 rings
6 13 18 19 24 25 28 rings
6 14 22 23 26 27 29 rings
6 3 12 15 16 20 21 rings

>  <PUBCHEM_HEAVY_ATOM_COUNT>  (1) 
29

>  <PUBCHEM_ATOM_DEF_STEREO_COUNT>  (1) 
0

>  <PUBCHEM_ATOM_UDEF_STEREO_COUNT>  (1) 
0

>  <PUBCHEM_BOND_DEF_STEREO_COUNT>  (1) 
0

>  <PUBCHEM_BOND_UDEF_STEREO_COUNT>  (1) 
0

>  <PUBCHEM_ISOTOPIC_ATOM_COUNT>  (1) 
0

>  <PUBCHEM_COMPONENT_COUNT>  (1) 
1

>  <PUBCHEM_CACTVS_TAUTO_COUNT>  (1) 
1

>  <PUBCHEM_CONFORMER_ID>  (1) 
0000A77900000001

>  <PUBCHEM_MMFF94_ENERGY>  (1) 
93.9407

>  <PUBCHEM_FEATURE_SELFOVERLAP>  (1) 
40.705

>  <PUBCHEM_SHAPE_FINGERPRINT>  (1) 
10411042 1 17905888081227595234
10554248 39 17986380115404462317
10595046 47 18343298172443325333
10673678 19 18337952415016937233
10675989 125 18412547608560966864
10693767 8 17985838029954291838
10930396 42 18336811011507232474
11135609 127 18339347639628089653
11135609 149 18047451353779484430
12107183 9 17622729713770358665
12730499 353 18334584529201508131
12788726 201 16819965192920026850
13150687 139 17703235130612418132
1361 2 18336263530828336845
13773456 30 18337954622840708280
13955234 65 18335419019793267227
14068700 675 18058451998413020000
14528608 73 18409729560801548613
15082195 135 18265888073854406189
15183329 4 17845369952365129097
15324884 4 17825698752518918490
15439362 3 18339365275190971172
15684393 108 18198038444650918119
16993427 108 17318997348749101290
17844677 252 18338518517940415221
19319366 153 18272643584437058615
19427546 62 18336826497681928750
1979834 28 18113340833873115485
20157964 124 18409728474148903597
20511986 3 17989193868027051205
20554085 129 17773862272865261880
20642791 105 17835517507556653376
20715895 44 18337387248981535344
21049683 118 18051384539343359040
21304303 282 17767673216227399006
21403212 168 18339912815017928216
22149856 69 18266199364952671715
23522609 53 17846236444948492193
23559900 14 18336268959419066251
239999 70 18272652311815898518
283562 15 17759539772715093046
3004659 81 18060417967657511399
34797466 226 18261107475027818333
3680242 22 10809622563860424959
4073 2 18409447025416724467
4149490 64 18335419076176643907
4366758 6 18270668900888773992
44317340 157 18409737231919386761
46194498 28 18261391105418657541
474 4 18340209686845401760
495365 180 18334017206960725696
6327066 14 18120091951627844284
6695519 79 18055088806654740715
70251023 43 18268151954840876250
960060 61 18340204081976565803

>  <PUBCHEM_SHAPE_MULTIPOLES>  (1) 
581.86
14.7
4.93
1.42
31.2
1.94
0.22
-8.81
-5.21
-9.87
-0.41
0.17
-0.18
-0.05

>  <PUBCHEM_SHAPE_SELFOVERLAP>  (1) 
1282.002

>  <PUBCHEM_SHAPE_VOLUME>  (1) 
309.8

>  <PUBCHEM_COORDINATE_TYPE>  (1) 
2
5
10

$$$$
