42881
     RDKit          3D

 11 10  0  0  0  0  0  0  0  0999 V2000
   -3.6431   -1.4151   -0.1179 O   0  0  0  0  0  0  0  0  0  0  0  0
    0.1649    3.6395   -0.0734 O   0  0  0  0  0  0  0  0  0  0  0  0
   -0.2413   -0.0184    0.1422 N   0  0  0  0  0  0  0  0  0  0  0  0
    0.5180   -1.1286   -0.4257 C   0  0  0  0  0  0  0  0  0  0  0  0
   -1.6477   -0.1031   -0.2526 C   0  0  0  0  0  0  0  0  0  0  0  0
    0.3294    1.2620   -0.2778 C   0  0  0  0  0  0  0  0  0  0  0  0
    1.9778   -1.0894   -0.0488 C   0  0  0  0  0  0  0  0  0  0  0  0
   -2.2769   -1.3832    0.2735 C   0  0  0  0  0  0  0  0  0  0  0  0
   -0.4326    2.4199    0.3469 C   0  0  0  0  0  0  0  0  0  0  0  0
    2.3105   -1.1310    1.4159 C   0  0  0  0  0  0  0  0  0  0  0  0
    2.9411   -1.0525   -0.9824 C   0  0  0  0  0  0  0  0  0  0  0  0
  1  8  1  0
  2  9  1  0
  3  4  1  0
  3  5  1  0
  3  6  1  0
  4  7  1  0
  5  8  1  0
  6  9  1  0
  7 10  1  0
  7 11  2  0
M  END
>  <PUBCHEM_COMPOUND_CID>  (1) 
42881

>  <PUBCHEM_CONFORMER_RMSD>  (1) 
0.6

>  <PUBCHEM_CONFORMER_DIVERSEORDER>  (1) 
1
12
31
18
28
24
22
26
32
25
14
29
10
2
3
30
20
19
15
16
23
8
6
4
21
27
13
17
11
9
7
5

>  <PUBCHEM_MMFF94_PARTIAL_CHARGES>  (1) 
15
1 -0.68
10 0.14
11 -0.3
2 -0.68
25 0.15
26 0.15
27 0.4
28 0.4
3 -0.81
4 0.41
5 0.27
6 0.27
7 -0.28
8 0.28
9 0.28

>  <PUBCHEM_EFFECTIVE_ROTOR_COUNT>  (1) 
6

>  <PUBCHEM_PHARMACOPHORE_FEATURES>  (1) 
5
1 1 acceptor
1 1 donor
1 2 acceptor
1 2 donor
1 3 cation

>  <PUBCHEM_HEAVY_ATOM_COUNT>  (1) 
11

>  <PUBCHEM_ATOM_DEF_STEREO_COUNT>  (1) 
0

>  <PUBCHEM_ATOM_UDEF_STEREO_COUNT>  (1) 
0

>  <PUBCHEM_BOND_DEF_STEREO_COUNT>  (1) 
0

>  <PUBCHEM_BOND_UDEF_STEREO_COUNT>  (1) 
0

>  <PUBCHEM_ISOTOPIC_ATOM_COUNT>  (1) 
0

>  <PUBCHEM_COMPONENT_COUNT>  (1) 
1

>  <PUBCHEM_CACTVS_TAUTO_COUNT>  (1) 
1

>  <PUBCHEM_CONFORMER_ID>  (1) 
0000A78100000001

>  <PUBCHEM_MMFF94_ENERGY>  (1) 
17.305

>  <PUBCHEM_FEATURE_SELFOVERLAP>  (1) 
25.371

>  <PUBCHEM_SHAPE_FINGERPRINT>  (1) 
1 1 17761773262080447021
100427 49 18341046393270994252
10857977 72 18342729706865854538
14817 1 15221743179596363312
16945 1 18122904226870392960
18380122 1 17987782043578283210
18410436 195 18412538834253360965
19021347 4 16968294301931712241
20645477 70 18051126193008928479
20711985 344 18194406588969101434
21040471 1 17474949827178587172
21524375 3 17186150410704541213
21930827 45 17838614453385315202
228727 97 17968959516828134014
23598294 1 18192439571267410219
2748010 2 18341599421744447333
528862 383 18123180479166845747
58734987 43 18339084907408039119
7364860 26 18053386779776184957
81228 2 18196931063540287049
81539 233 17613991215826884567

>  <PUBCHEM_SHAPE_MULTIPOLES>  (1) 
209.66
4.13
3.03
0.94
0.06
3.89
0.19
-3.46
-0.15
-1.96
0.1
0.74
-0.21
-0.09

>  <PUBCHEM_SHAPE_SELFOVERLAP>  (1) 
385.459

>  <PUBCHEM_SHAPE_VOLUME>  (1) 
134.5

>  <PUBCHEM_COORDINATE_TYPE>  (1) 
2
5
10

$$$$
