42888
     RDKit          3D

 13 13  0  0  0  0  0  0  0  0999 V2000
    4.7839    0.4153    1.3406 Cl  0  0  0  0  0  0  0  0  0  0  0  0
    1.6288   -0.1089   -1.8495 O   0  0  0  0  0  0  0  0  0  0  0  0
   -0.8534   -1.0340    0.0255 C   0  0  0  0  0  0  0  0  0  0  0  0
   -0.1518    0.1157   -0.3371 C   0  0  0  0  0  0  0  0  0  0  0  0
   -2.8616    0.2798    0.3050 C   0  0  0  0  0  0  0  0  0  0  0  0
   -2.2083   -0.9520    0.3466 C   0  0  0  0  0  0  0  0  0  0  0  0
   -0.8049    1.3475   -0.3785 C   0  0  0  0  0  0  0  0  0  0  0  0
   -2.1598    1.4295   -0.0576 C   0  0  0  0  0  0  0  0  0  0  0  0
   -0.1784   -2.3661    0.0774 C   0  0  0  0  0  0  0  0  0  0  0  0
   -4.3102    0.3681    0.6488 C   0  0  0  0  0  0  0  0  0  0  0  0
    1.2635    0.0587   -0.6770 C   0  0  0  0  0  0  0  0  0  0  0  0
    2.2735    0.2381    0.4171 C   0  0  0  0  0  0  0  0  0  0  0  0
    3.5786    0.2083    0.1387 C   0  0  0  0  0  0  0  0  0  0  0  0
  1 13  1  0
  2 11  2  0
  3  4  2  0
  3  6  1  0
  3  9  1  0
  4  7  1  0
  4 11  1  0
  5  6  2  0
  5  8  1  0
  5 10  1  0
  7  8  2  0
 11 12  1  0
 12 13  2  0
M  END
>  <PUBCHEM_COMPOUND_CID>  (1) 
42888

>  <PUBCHEM_CONFORMER_RMSD>  (1) 
0.6

>  <PUBCHEM_CONFORMER_DIVERSEORDER>  (1) 
1
7
5
4
6
2
3

>  <PUBCHEM_MMFF94_PARTIAL_CHARGES>  (1) 
18
1 -0.14
10 0.14
11 0.47
12 -0.14
13 -0.01
14 0.15
15 0.15
16 0.15
2 -0.57
23 0.15
24 0.15
3 -0.14
4 0.09
5 -0.14
6 -0.15
7 -0.15
8 -0.15
9 0.14

>  <PUBCHEM_EFFECTIVE_ROTOR_COUNT>  (1) 
2

>  <PUBCHEM_PHARMACOPHORE_FEATURES>  (1) 
2
1 2 acceptor
6 3 4 5 6 7 8 rings

>  <PUBCHEM_HEAVY_ATOM_COUNT>  (1) 
13

>  <PUBCHEM_ATOM_DEF_STEREO_COUNT>  (1) 
0

>  <PUBCHEM_ATOM_UDEF_STEREO_COUNT>  (1) 
0

>  <PUBCHEM_BOND_DEF_STEREO_COUNT>  (1) 
0

>  <PUBCHEM_BOND_UDEF_STEREO_COUNT>  (1) 
1

>  <PUBCHEM_ISOTOPIC_ATOM_COUNT>  (1) 
0

>  <PUBCHEM_COMPONENT_COUNT>  (1) 
1

>  <PUBCHEM_CACTVS_TAUTO_COUNT>  (1) 
1

>  <PUBCHEM_CONFORMER_ID>  (1) 
0000A78800000001

>  <PUBCHEM_MMFF94_ENERGY>  (1) 
37.4816

>  <PUBCHEM_FEATURE_SELFOVERLAP>  (1) 
10.148

>  <PUBCHEM_SHAPE_FINGERPRINT>  (1) 
11031198 65 16486979492196267996
11132069 177 18410017628389560595
11401426 45 18409726258172300877
12119455 92 17346593076017390396
12251169 10 18335415794636551536
13214271 11 17489302022833360029
13538477 17 17677628616285122406
13581323 91 18260267451642540740
15048467 5 15051738577754116945
15219456 202 17989211412909926326
15375462 478 17240202118631275765
15775835 57 18411982446683018051
16945 1 18263380156518718701
17846911 113 18412827979936277745
1813 80 16443627879628872838
200 152 14273448176468217288
20510252 161 18342739563810602393
20645464 45 18202284718593978188
20645476 183 17097802267653292591
20871998 184 18270406129824678519
21501502 16 18124875921786377124
22926399 37 14476959016946444610
23402539 116 18271231798885368797
23403322 49 12468899972078942368
23419403 2 17408762925295927549
23463225 33 18040720238077991655
23559900 14 18270415935962522326
257057 1 17334202923970759575
27216 239 17344046718914990312
2748010 2 17901117326069917605
4072396 5 18186800254012795729
43471831 8 18187926123243606907
53812653 166 18343023281018204057
69090 78 17989486320765811335
7364860 26 18054513504164397847
77492 1 17386015000205556588

>  <PUBCHEM_SHAPE_MULTIPOLES>  (1) 
263.53
7.19
1.55
1.07
4.69
0.76
0.21
-1.93
-3.43
-0.74
-0.01
0.79
-0.06
0.22

>  <PUBCHEM_SHAPE_SELFOVERLAP>  (1) 
536.259

>  <PUBCHEM_SHAPE_VOLUME>  (1) 
155.2

>  <PUBCHEM_COORDINATE_TYPE>  (1) 
2
5
10

$$$$
