42894
     RDKit          3D

 21 23  0  0  1  0  0  0  0  0999 V2000
   -1.0083    0.9845   -0.0951 N   0  0  0  0  0  0  0  0  0  0  0  0
    4.3883    0.5089    1.0945 N   0  0  0  0  0  0  0  0  0  0  0  0
    1.1723   -0.0974   -0.8765 C   0  0  0  0  0  0  0  0  0  0  0  0
   -0.2717   -0.1153   -0.4442 C   0  0  0  0  0  0  0  0  0  0  0  0
    1.5233   -1.5012   -1.4656 C   0  0  0  0  0  0  0  0  0  0  0  0
   -1.0702   -1.2322   -0.2866 C   0  0  0  0  0  0  0  0  0  0  0  0
    2.0691    0.2048    0.3381 C   0  0  0  0  0  0  0  0  0  0  0  0
    0.9426   -2.6703   -0.6470 C   0  0  0  0  0  0  0  0  0  0  0  0
   -0.5926   -2.6132   -0.5781 C   0  0  0  0  0  0  0  0  0  0  0  0
    1.4171    0.9658   -1.9603 C   0  0  0  0  0  0  0  0  0  0  0  0
   -2.3478   -0.7883    0.1592 C   0  0  0  0  0  0  0  0  0  0  0  0
   -2.2802    0.6034    0.2712 C   0  0  0  0  0  0  0  0  0  0  0  0
    3.5385    0.2541   -0.0357 C   0  0  0  0  0  0  0  0  0  0  0  0
   -0.5501    2.3578   -0.0459 C   0  0  0  0  0  0  0  0  0  0  0  0
   -3.5590   -1.4344    0.4800 C   0  0  0  0  0  0  0  0  0  0  0  0
   -3.3661    1.3801    0.6913 C   0  0  0  0  0  0  0  0  0  0  0  0
   -0.8069    3.0965   -1.3481 C   0  0  0  0  0  0  0  0  0  0  0  0
   -4.6529   -0.6694    0.9003 C   0  0  0  0  0  0  0  0  0  0  0  0
   -4.5555    0.7164    1.0039 C   0  0  0  0  0  0  0  0  0  0  0  0
    5.8054    0.5560    0.7008 C   0  0  0  0  0  0  0  0  0  0  0  0
    4.2051   -0.5066    2.1438 C   0  0  0  0  0  0  0  0  0  0  0  0
  1  4  1  0
  1 12  1  0
  1 14  1  0
  2 13  1  0
  2 20  1  0
  2 21  1  0
  3  4  1  0
  3  5  1  0
  3  7  1  0
  3 10  1  0
  4  6  2  0
  5  8  1  0
  6  9  1  0
  6 11  1  0
  7 13  1  0
  8  9  1  0
 11 12  2  0
 11 15  1  0
 12 16  1  0
 14 17  1  0
 15 18  2  0
 16 19  2  0
 18 19  1  0
M  END
>  <PUBCHEM_COMPOUND_CID>  (1) 
42894

>  <PUBCHEM_CONFORMER_RMSD>  (1) 
0.8

>  <PUBCHEM_CONFORMER_DIVERSEORDER>  (1) 
2
14
9
11
1
13
3
4
10
5
6
12
7
8

>  <PUBCHEM_MMFF94_PARTIAL_CHARGES>  (1) 
19
1 0.05
12 -0.15
13 0.27
14 0.26
15 -0.15
16 -0.15
18 -0.15
19 -0.15
2 -0.81
20 0.27
21 0.27
3 0.18
37 0.15
38 0.15
4 -0.33
42 0.15
43 0.15
6 -0.18
9 0.18

>  <PUBCHEM_EFFECTIVE_ROTOR_COUNT>  (1) 
4.8

>  <PUBCHEM_PHARMACOPHORE_FEATURES>  (1) 
5
1 1 cation
1 2 cation
5 1 4 6 11 12 rings
6 11 12 15 16 18 19 rings
6 3 4 5 6 8 9 rings

>  <PUBCHEM_HEAVY_ATOM_COUNT>  (1) 
21

>  <PUBCHEM_ATOM_DEF_STEREO_COUNT>  (1) 
0

>  <PUBCHEM_ATOM_UDEF_STEREO_COUNT>  (1) 
1

>  <PUBCHEM_BOND_DEF_STEREO_COUNT>  (1) 
0

>  <PUBCHEM_BOND_UDEF_STEREO_COUNT>  (1) 
0

>  <PUBCHEM_ISOTOPIC_ATOM_COUNT>  (1) 
0

>  <PUBCHEM_COMPONENT_COUNT>  (1) 
1

>  <PUBCHEM_CACTVS_TAUTO_COUNT>  (1) 
1

>  <PUBCHEM_CONFORMER_ID>  (1) 
0000A78E00000002

>  <PUBCHEM_MMFF94_ENERGY>  (1) 
56.6715

>  <PUBCHEM_FEATURE_SELFOVERLAP>  (1) 
25.545

>  <PUBCHEM_SHAPE_FINGERPRINT>  (1) 
10967382 1 18266762271592370423
11132069 177 18410584959346806353
11578080 2 17985269564898598817
11595378 159 18041559148797454348
11961588 58 12678881429358372731
12236239 1 17895197735659503452
12251169 10 18340203089606635048
12403259 415 18200318714821300612
12553582 1 18263669336788305093
12596602 18 18113335349362980160
12633257 1 18201990071501320896
12839892 36 18410292531871818339
12892183 10 18041549253271952096
12930653 34 18198061374167857713
13140716 1 18196373842893695601
13544653 18 15430028834387085202
13583140 156 17385989689768141428
13941206 138 16600143719871551348
14178342 30 18341063960204004883
14223421 5 18195531385032308886
14341114 328 18187362142987930632
14420673 8 17758948235158858274
14787075 74 17417527042307540265
15209294 21 17989207044664559107
15295992 7 17059762434435195866
15375462 478 18040431096742757372
15536298 74 18129394721572150631
15685185 35 16592834060303755708
16945 1 18046643217491850655
17349148 13 18337106869268834415
17980427 23 18200312255180230629
1813 80 17095244688138795350
19784866 170 18413393115864333986
19784866 240 15285644265561406761
200 152 15357691998507501080
20600515 1 18270690881771700212
21069387 34 15791739602308042841
21452121 103 18129948862357548827
21475661 188 17060615594553471729
21637258 2 16009018540416614594
22182313 1 18193277394837927325
22224240 67 18059852895926825643
23175994 123 14706926246019644935
2334 1 18267324087664044975
23402539 116 18270954743271971047
23557571 272 18339938008261883981
23559900 14 18195264233866612894
2748010 2 18267887003189123847
2838139 119 15339120143545114498
3286 77 15430043179229609725
34934 24 18341894052960210159
350125 39 18197227944860107134
394222 165 17462034207647933780
4072396 5 18335139782863418691
4340502 62 17846503621335086283
474 4 14908176486765695698
484985 159 15361037662394022914
5104073 3 18198359376991023163
58807428 26 18410855438780549770
59755656 215 18059584546955851078
7364860 26 17914628163048228271
81228 2 17972623003757147953
90316 7 18260542316485715580

>  <PUBCHEM_SHAPE_MULTIPOLES>  (1) 
422.21
8.88
2.62
1.5
5.18
0.19
0
0.85
6.18
-1
-1.11
1.27
0.14
0.15

>  <PUBCHEM_SHAPE_SELFOVERLAP>  (1) 
896.699

>  <PUBCHEM_SHAPE_VOLUME>  (1) 
237.6

>  <PUBCHEM_COORDINATE_TYPE>  (1) 
2
5
10

$$$$
