429
     RDKit          3D

 27 29  0  0  1  0  0  0  0  0999 V2000
    1.5472    1.7548    0.8032 O   0  0  0  0  0  0  0  0  0  0  0  0
    3.7281    0.0702   -1.6188 O   0  0  0  0  0  0  0  0  0  0  0  0
    5.6583    1.5728   -0.2956 O   0  0  0  0  0  0  0  0  0  0  0  0
   -4.7929    1.3606    1.1345 O   0  0  0  0  0  0  0  0  0  0  0  0
    5.6360    0.2580    2.1728 O   0  0  0  0  0  0  0  0  0  0  0  0
   -2.0956    4.5287   -0.7490 O   0  0  0  0  0  0  0  0  0  0  0  0
   -0.4078    0.2042   -0.5217 N   0  0  0  0  0  0  0  0  0  0  0  0
   -2.9386   -0.5676    0.4068 N   0  0  0  0  0  0  0  0  0  0  0  0
   -1.2910    2.4001   -0.7017 N   0  0  0  0  0  0  0  0  0  0  0  0
   -3.4402    2.9416    0.1597 N   0  0  0  0  0  0  0  0  0  0  0  0
    0.8649    0.5437   -1.1596 C   0  0  0  0  0  0  0  0  0  0  0  0
    1.9542    0.7220   -0.0956 C   0  0  0  0  0  0  0  0  0  0  0  0
   -2.4995    0.7839    0.6904 C   0  0  0  0  0  0  0  0  0  0  0  0
   -0.6854   -1.1694   -0.2968 C   0  0  0  0  0  0  0  0  0  0  0  0
   -1.3697    1.1826   -0.2432 C   0  0  0  0  0  0  0  0  0  0  0  0
    3.3233    1.0869   -0.7031 C   0  0  0  0  0  0  0  0  0  0  0  0
   -1.9736   -1.5387    0.1530 C   0  0  0  0  0  0  0  0  0  0  0  0
    4.4263    1.2618    0.3581 C   0  0  0  0  0  0  0  0  0  0  0  0
    0.2478   -2.1965   -0.5368 C   0  0  0  0  0  0  0  0  0  0  0  0
   -2.3053   -2.8957    0.3033 C   0  0  0  0  0  0  0  0  0  0  0  0
   -3.7001    1.6890    0.6770 C   0  0  0  0  0  0  0  0  0  0  0  0
   -0.0877   -3.5412   -0.3592 C   0  0  0  0  0  0  0  0  0  0  0  0
   -1.3658   -3.8916    0.0543 C   0  0  0  0  0  0  0  0  0  0  0  0
    4.6286    0.0021    1.1991 C   0  0  0  0  0  0  0  0  0  0  0  0
   -2.2528    3.3462   -0.4399 C   0  0  0  0  0  0  0  0  0  0  0  0
    0.9443   -4.5867   -0.6310 C   0  0  0  0  0  0  0  0  0  0  0  0
   -1.7531   -5.3215    0.2395 C   0  0  0  0  0  0  0  0  0  0  0  0
  1 12  1  0
  2 16  1  0
  3 18  1  0
  4 21  2  0
  5 24  1  0
  6 25  2  0
  7 11  1  0
  7 14  1  0
  7 15  1  0
  8 13  1  0
  8 17  1  0
  9 15  2  0
  9 25  1  0
 10 21  1  0
 10 25  1  0
 11 12  1  0
 12 16  1  0
 13 15  1  0
 13 21  1  0
 14 17  2  0
 14 19  1  0
 16 18  1  0
 17 20  1  0
 18 24  1  0
 19 22  2  0
 20 23  2  0
 22 23  1  0
 22 26  1  0
 23 27  1  0
M  END
>  <PUBCHEM_COMPOUND_CID>  (1) 
429

>  <PUBCHEM_CONFORMER_RMSD>  (1) 
0.8

>  <PUBCHEM_CONFORMER_DIVERSEORDER>  (1) 
1
16
33
20
42
46
50
26
17
13
35
25
49
2
53
41
29
34
5
43
44
23
24
6
39
22
45
37
56
47
40
9
51
15
30
36
48
4
54
27
11
7
57
31
32
38
8
3
12
28
10
21
55
52
18
19
14

>  <PUBCHEM_MMFF94_PARTIAL_CHARGES>  (1) 
35
1 -0.68
10 -0.49
11 0.37
12 0.28
13 0.49
14 0.1
15 0.44
16 0.28
17 0.1
18 0.28
19 -0.15
2 -0.68
20 -0.15
21 0.57
22 -0.14
23 -0.14
24 0.28
25 0.84
26 0.14
27 0.14
3 -0.68
33 0.4
35 0.15
36 0.15
39 0.4
4 -0.57
40 0.37
41 0.4
48 0.4
49 0.4
5 -0.68
6 -0.57
7 -0.52
8 -0.87
9 -0.66

>  <PUBCHEM_EFFECTIVE_ROTOR_COUNT>  (1) 
5.6

>  <PUBCHEM_PHARMACOPHORE_FEATURES>  (1) 
17
1 1 acceptor
1 1 donor
1 10 donor
1 2 acceptor
1 2 donor
1 3 acceptor
1 3 donor
1 4 acceptor
1 5 acceptor
1 5 donor
1 6 acceptor
1 8 cation
1 8 donor
1 9 donor
6 14 17 19 20 22 23 rings
6 7 8 13 14 15 17 rings
6 9 10 13 15 21 25 rings

>  <PUBCHEM_HEAVY_ATOM_COUNT>  (1) 
27

>  <PUBCHEM_ATOM_DEF_STEREO_COUNT>  (1) 
0

>  <PUBCHEM_ATOM_UDEF_STEREO_COUNT>  (1) 
4

>  <PUBCHEM_BOND_DEF_STEREO_COUNT>  (1) 
0

>  <PUBCHEM_BOND_UDEF_STEREO_COUNT>  (1) 
0

>  <PUBCHEM_ISOTOPIC_ATOM_COUNT>  (1) 
0

>  <PUBCHEM_COMPONENT_COUNT>  (1) 
1

>  <PUBCHEM_CACTVS_TAUTO_COUNT>  (1) 
3

>  <PUBCHEM_CONFORMER_ID>  (1) 
000001AD00000001

>  <PUBCHEM_MMFF94_ENERGY>  (1) 
92.2993

>  <PUBCHEM_FEATURE_SELFOVERLAP>  (1) 
86.392

>  <PUBCHEM_SHAPE_FINGERPRINT>  (1) 
10074138 170 18266443468411461907
10319926 262 18270951458592550792
10411042 1 17690849281721707494
10930396 42 17480541230448162698
1100329 8 17977674435380066531
11049842 53 18192176857456863910
11582403 64 17630584774682939324
11720765 8 16333252627153579919
12422481 6 17898841358475219026
12523318 42 18197483216446813882
12553582 1 17547308047294747670
12633257 1 17986407791165668272
12788726 201 17831032577883359278
12839892 36 18408604725867370841
13004483 165 17979347895607591930
13140716 1 17979358886534267435
13540713 4 17683257871951062181
138480 1 17329433839582298535
14178342 30 18337665425745018286
14844126 61 18263360463518959522
14866123 147 18410854373829191778
15042514 8 18265621059589274515
15131766 46 15322994504049430267
15230672 131 18264778663023579494
15326921 28 18049132533577926104
15842332 3 17895761836970278028
15927050 60 18341901736198384295
16728300 4 17605820439630245625
19591789 44 18266192625283924223
20028762 73 18128549330997135127
20554085 129 18057585621499259425
20600515 1 17983318181051320525
21033648 29 18341890736945648024
21120745 212 17976833308473167164
21650355 55 18194401323333701095
21796203 349 17035604149343606298
22182313 1 17681004993984372629
23559900 14 17543913408417934509
23598288 3 17899438628884658750
3091708 16 9197188808159307351
3298306 158 18196656185612133812
4409770 3 18262507204136297221
508706 21 18342462564748853566
5265222 85 18337408067289061830
532947 4 17763457323178841390
5385378 56 18126296241870101129
58807428 26 18410582751422548987
79837 15 18410294700661277091
81228 2 18053936527068781613
90316 7 18194123155534770038
9862522 239 18263072249764947637
9981440 41 18264764359906563105

>  <PUBCHEM_SHAPE_MULTIPOLES>  (1) 
500.51
8.52
6.5
1.14
13.71
5.64
-0.22
-5.33
-3.56
-7.46
0.93
1.17
-0.19
0.01

>  <PUBCHEM_SHAPE_SELFOVERLAP>  (1) 
1067.796

>  <PUBCHEM_SHAPE_VOLUME>  (1) 
275.5

>  <PUBCHEM_COORDINATE_TYPE>  (1) 
2
5
10

$$$$
