42905
     RDKit          3D

 21 22  0  0  1  0  0  0  0  0999 V2000
   -0.2686    1.2203   -0.2265 O   0  0  0  0  0  0  0  0  0  0  0  0
   -2.4184    0.8120   -1.1142 O   0  0  0  0  0  0  0  0  0  0  0  0
    1.4461   -1.7946   -0.0204 N   0  0  0  0  0  0  0  0  0  0  0  0
    1.4806   -0.3942   -0.1664 N   0  0  0  0  0  0  0  0  0  0  0  0
   -2.0381   -1.0160    0.2794 N   0  0  0  0  0  0  0  0  0  0  0  0
   -4.9491    1.0709   -0.0471 N   0  0  0  0  0  0  0  0  0  0  0  0
    0.1186   -2.1558    0.2137 C   0  0  0  0  0  0  0  0  0  0  0  0
   -0.6961   -1.0959    0.1416 C   0  0  0  0  0  0  0  0  0  0  0  0
    0.1642    0.0830   -0.1379 C   0  0  0  0  0  0  0  0  0  0  0  0
    2.6616    0.3757   -0.0207 C   0  0  0  0  0  0  0  0  0  0  0  0
    2.3003   -2.6036   -0.8844 C   0  0  0  0  0  0  0  0  0  0  0  0
   -0.2652   -3.5772    0.4534 C   0  0  0  0  0  0  0  0  0  0  0  0
   -2.8371   -0.0684   -0.3657 C   0  0  0  0  0  0  0  0  0  0  0  0
   -4.3018   -0.2327   -0.0121 C   0  0  0  0  0  0  0  0  0  0  0  0
    2.6889    1.7097   -0.4396 C   0  0  0  0  0  0  0  0  0  0  0  0
    3.8081   -0.1925    0.5435 C   0  0  0  0  0  0  0  0  0  0  0  0
    3.8510    2.4677   -0.2959 C   0  0  0  0  0  0  0  0  0  0  0  0
    4.9701    0.5657    0.6873 C   0  0  0  0  0  0  0  0  0  0  0  0
    4.9915    1.8958    0.2675 C   0  0  0  0  0  0  0  0  0  0  0  0
   -4.3251    1.9847    0.9125 C   0  0  0  0  0  0  0  0  0  0  0  0
   -6.3815    0.9455    0.2319 C   0  0  0  0  0  0  0  0  0  0  0  0
  1  9  2  0
  2 13  2  0
  3  4  1  0
  3  7  1  0
  3 11  1  0
  4  9  1  0
  4 10  1  0
  5  8  1  0
  5 13  1  0
  6 14  1  0
  6 20  1  0
  6 21  1  0
  7  8  2  0
  7 12  1  0
  8  9  1  0
 10 15  2  0
 10 16  1  0
 13 14  1  0
 15 17  1  0
 16 18  2  0
 17 19  2  0
 18 19  1  0
M  END
>  <PUBCHEM_COMPOUND_CID>  (1) 
42905

>  <PUBCHEM_CONFORMER_RMSD>  (1) 
0.8

>  <PUBCHEM_CONFORMER_DIVERSEORDER>  (1) 
2
9
4
10
1
3
8
11
5
7
6

>  <PUBCHEM_MMFF94_PARTIAL_CHARGES>  (1) 
27
1 -0.57
10 0.12
11 0.37
12 0.14
13 0.57
14 0.33
15 -0.15
16 -0.15
17 -0.15
18 -0.15
19 -0.15
2 -0.57
20 0.27
21 0.27
25 0.37
3 -0.49
31 0.15
32 0.15
33 0.15
34 0.15
35 0.15
4 -0.16
5 -0.54
6 -0.81
7 -0.04
8 0.12
9 0.62

>  <PUBCHEM_EFFECTIVE_ROTOR_COUNT>  (1) 
5

>  <PUBCHEM_PHARMACOPHORE_FEATURES>  (1) 
6
1 1 acceptor
1 2 acceptor
1 5 donor
1 6 cation
5 3 4 7 8 9 rings
6 10 15 16 17 18 19 rings

>  <PUBCHEM_HEAVY_ATOM_COUNT>  (1) 
21

>  <PUBCHEM_ATOM_DEF_STEREO_COUNT>  (1) 
0

>  <PUBCHEM_ATOM_UDEF_STEREO_COUNT>  (1) 
0

>  <PUBCHEM_BOND_DEF_STEREO_COUNT>  (1) 
0

>  <PUBCHEM_BOND_UDEF_STEREO_COUNT>  (1) 
0

>  <PUBCHEM_ISOTOPIC_ATOM_COUNT>  (1) 
0

>  <PUBCHEM_COMPONENT_COUNT>  (1) 
1

>  <PUBCHEM_CACTVS_TAUTO_COUNT>  (1) 
2

>  <PUBCHEM_CONFORMER_ID>  (1) 
0000A79900000002

>  <PUBCHEM_MMFF94_ENERGY>  (1) 
84.5141

>  <PUBCHEM_FEATURE_SELFOVERLAP>  (1) 
30.484

>  <PUBCHEM_SHAPE_FINGERPRINT>  (1) 
10411042 1 17689997834578445418
10493431 412 18409730694520018269
12236239 1 17917990551805840373
12390115 104 18267883820048476089
12644460 14 18041554746239900154
12730499 353 18409740542832919059
12769317 202 18341883074407012969
12788726 201 17830724718559046642
13103583 49 11747208018569879455
13140716 1 18264201590552199320
13544653 18 10591769817461373672
13583140 156 16226866948160055308
13631057 29 18128245878741459663
13785724 45 17976815381702121882
13955234 65 18191027798833874307
14251764 75 18119258499969979396
14790565 3 18410296934018293089
15188451 53 14924234884560557921
15196674 1 18337389439108576078
15342168 16 18408608084421137045
15342816 4 8862672334447955944
15475509 35 16298943126569219674
17834072 32 18337390555984786844
1813 80 7997695345374439978
18222031 100 8646771079765743773
19784866 34 18411699876885084195
19784866 9 18411697664623674505
20157964 124 18337951182925429461
204376 136 18408602582393924715
20739085 24 18187373077690375004
21033648 29 17915727881599098552
21236236 1 18337388370152719563
21452121 103 18410572842822214194
21524375 3 18337385041078194574
22182313 1 17822846455910431293
22224240 67 18335980943802898753
22950370 63 9223238459193122977
23402539 116 18342167916479373564
23559900 14 18342459240702661366
25147074 1 18269253760293080823
335352 9 18410012131290578870
350125 39 18337674092798994196
351380 3 8430317935346449361
42630746 31 18411981325875921175
4340502 62 18409172108401218643
474 4 18410575067704788531
5104073 3 18043238245051136824
58807428 26 18187355532849087362
59755656 215 18341620270164276054
621550 34 18114741521803272887
633830 44 18342737394825341543
7970288 3 9006788570021987488
8272917 22 18342459201325035502
960060 61 11095879388879230144

>  <PUBCHEM_SHAPE_MULTIPOLES>  (1) 
400.51
11.6
3.12
0.81
9.57
2.18
-0.02
-9.6
1.62
-1.4
0.1
-0.02
-0.02
-0.11

>  <PUBCHEM_SHAPE_SELFOVERLAP>  (1) 
841.058

>  <PUBCHEM_SHAPE_VOLUME>  (1) 
226.9

>  <PUBCHEM_COORDINATE_TYPE>  (1) 
2
5
10

$$$$
