4290
     RDKit          3D

 21 22  0  0  0  0  0  0  0  0999 V2000
   -5.1813    0.5198   -0.6135 S   0  0  0  0  0  0  0  0  0  0  0  0
    3.8402    2.3103    0.7246 F   0  0  0  0  0  0  0  0  0  0  0  0
    0.7781   -2.1545    0.9115 O   0  0  0  0  0  0  0  0  0  0  0  0
   -5.3247    1.9635   -0.4872 O   0  0  0  0  0  0  0  0  0  0  0  0
   -5.5055   -0.1317   -1.8748 O   0  0  0  0  0  0  0  0  0  0  0  0
    1.2880    0.0843    1.2343 N   0  0  0  0  0  0  0  0  0  0  0  0
   -6.0690   -0.2338    0.6370 N   0  0  0  0  0  0  0  0  0  0  0  0
    2.6730   -0.1102    1.5987 C   0  0  0  0  0  0  0  0  0  0  0  0
   -0.9408   -0.6035    0.5399 C   0  0  0  0  0  0  0  0  0  0  0  0
   -3.5488    0.0876   -0.1696 C   0  0  0  0  0  0  0  0  0  0  0  0
    3.5840   -0.0283    0.4081 C   0  0  0  0  0  0  0  0  0  0  0  0
    0.4187   -0.9638    0.9100 C   0  0  0  0  0  0  0  0  0  0  0  0
   -1.6777   -1.4351   -0.3031 C   0  0  0  0  0  0  0  0  0  0  0  0
   -1.5078    0.5737    1.0284 C   0  0  0  0  0  0  0  0  0  0  0  0
   -2.9817   -1.0895   -0.6579 C   0  0  0  0  0  0  0  0  0  0  0  0
   -2.8119    0.9191    0.6736 C   0  0  0  0  0  0  0  0  0  0  0  0
    4.1240    1.1968    0.0348 C   0  0  0  0  0  0  0  0  0  0  0  0
    3.8783   -1.1818   -0.3095 C   0  0  0  0  0  0  0  0  0  0  0  0
    4.9701    1.2695   -1.0718 C   0  0  0  0  0  0  0  0  0  0  0  0
    4.7244   -1.1091   -1.4161 C   0  0  0  0  0  0  0  0  0  0  0  0
    5.2703    0.1166   -1.7973 C   0  0  0  0  0  0  0  0  0  0  0  0
  1  4  2  0
  1  5  2  0
  1  7  1  0
  1 10  1  0
  2 17  1  0
  3 12  2  0
  6  8  1  0
  6 12  1  0
  8 11  1  0
  9 12  1  0
  9 13  2  0
  9 14  1  0
 10 15  2  0
 10 16  1  0
 11 17  2  0
 11 18  1  0
 13 15  1  0
 14 16  2  0
 17 19  1  0
 18 20  2  0
 19 21  2  0
 20 21  1  0
M  END
>  <PUBCHEM_COMPOUND_CID>  (1) 
4290

>  <PUBCHEM_CONFORMER_RMSD>  (1) 
0.8

>  <PUBCHEM_CONFORMER_DIVERSEORDER>  (1) 
2
28
34
24
37
15
18
7
22
35
26
33
1
21
14
23
32
36
10
3
27
16
31
20
6
25
5
8
17
19
29
9
13
30
12
4
11

>  <PUBCHEM_MMFF94_PARTIAL_CHARGES>  (1) 
32
1 1.45
10 -0.01
11 -0.14
12 0.54
13 -0.15
14 -0.15
15 -0.15
16 -0.15
17 0.19
18 -0.15
19 -0.15
2 -0.19
20 -0.15
21 -0.15
24 0.37
25 0.15
26 0.15
27 0.15
28 0.15
29 0.15
3 -0.57
30 0.15
31 0.15
32 0.15
33 0.42
34 0.42
4 -0.65
5 -0.65
6 -0.73
7 -0.98
8 0.44
9 0.09

>  <PUBCHEM_EFFECTIVE_ROTOR_COUNT>  (1) 
5

>  <PUBCHEM_PHARMACOPHORE_FEATURES>  (1) 
7
1 3 acceptor
1 4 acceptor
1 5 acceptor
1 6 donor
1 7 donor
6 11 17 18 19 20 21 rings
6 9 10 13 14 15 16 rings

>  <PUBCHEM_HEAVY_ATOM_COUNT>  (1) 
21

>  <PUBCHEM_ATOM_DEF_STEREO_COUNT>  (1) 
0

>  <PUBCHEM_ATOM_UDEF_STEREO_COUNT>  (1) 
0

>  <PUBCHEM_BOND_DEF_STEREO_COUNT>  (1) 
0

>  <PUBCHEM_BOND_UDEF_STEREO_COUNT>  (1) 
0

>  <PUBCHEM_ISOTOPIC_ATOM_COUNT>  (1) 
0

>  <PUBCHEM_COMPONENT_COUNT>  (1) 
1

>  <PUBCHEM_CACTVS_TAUTO_COUNT>  (1) 
2

>  <PUBCHEM_CONFORMER_ID>  (1) 
000010C200000002

>  <PUBCHEM_MMFF94_ENERGY>  (1) 
33.0887

>  <PUBCHEM_FEATURE_SELFOVERLAP>  (1) 
35.538

>  <PUBCHEM_SHAPE_FINGERPRINT>  (1) 
10378564 45 18201717306507334980
10498660 4 18114184163765486200
10670039 82 18041564637687077124
11128504 68 18272650160068457101
11796584 16 14189570849637745653
12363563 72 14261361245465887706
12596602 18 12685094774073464237
12616971 3 17531512239964364378
12633257 1 12973892549848552990
12670543 26 17703789180981729105
12670546 177 18273498970292067270
12730499 353 18261120664028846730
12892183 10 11458413644392524922
12954195 1 17131278939565719945
13668630 136 15051740797999261284
13782708 43 14117219720924795429
13955234 65 15792003421122509080
1420 369 11815898955074058908
14211702 104 11815310751130364277
14251740 57 9367352561033110952
14251751 18 14908168764113895269
14251764 75 14130781131475085934
14528608 73 18334853913850210693
14848160 23 10519987041322173417
14848178 5 12895066319069600493
15183329 4 17131837542922247965
15188451 53 11311777237272541996
15210252 30 17603875533175217292
15342168 16 17168144550532092874
15575132 122 18113616734304074853
15885798 251 11527950053825542898
17349148 13 13182743675195160901
17857418 61 12463569577966245349
17959699 21 18335136471063948737
1813 80 12607408801640527986
18222031 100 11959735992630859402
19377110 9 14562531816576776283
193927 3 13830141602366551006
19784866 240 14476968878096455682
200 152 14620794898977862619
20369508 70 15913322494886500034
20567600 234 14634877461312945191
20645477 70 15770053947848792682
22061861 79 16559029389589420189
22079108 93 16443068322113780411
221357 26 18202567263234310856
2215653 11 17132112433640318917
23253445 4 12685095890521938831
23559900 14 17489299828289493698
270888 7 16589163791346495828
3004659 81 17346602959037955302
312425 54 7997698627014583253
3472631 163 17604439612535433134
34797466 226 18130507530360457797
465052 167 14692572143378611860
474 4 17749111105823028448
5104073 3 11891319916611141893
5374978 207 11458423535696893954
53794403 172 17970354938623219252
542803 24 17821729416579057379
59682541 52 17489301941392356389
633830 44 18409160034873778598
7970288 3 13829864491235382732
960060 61 17346882273450937092
9841814 1 10159406678386523474

>  <PUBCHEM_SHAPE_MULTIPOLES>  (1) 
401.18
14.71
1.69
1.51
6.3
0.23
0.25
4.03
7.06
-0.71
-0.05
-0.76
-0.06
0.22

>  <PUBCHEM_SHAPE_SELFOVERLAP>  (1) 
845.521

>  <PUBCHEM_SHAPE_VOLUME>  (1) 
228.2

>  <PUBCHEM_COORDINATE_TYPE>  (1) 
2
5
10

$$$$
