42900
     RDKit          3D

 22 24  0  0  1  0  0  0  0  0999 V2000
   -0.9934    0.7639    0.0659 N   0  0  0  0  0  0  0  0  0  0  0  0
    4.3781    0.2112    1.1860 N   0  0  0  0  0  0  0  0  0  0  0  0
    1.1948   -0.1906   -0.8489 C   0  0  0  0  0  0  0  0  0  0  0  0
   -0.2486   -0.2756   -0.4227 C   0  0  0  0  0  0  0  0  0  0  0  0
    1.5562   -1.5035   -1.6149 C   0  0  0  0  0  0  0  0  0  0  0  0
   -1.0384   -1.4097   -0.4113 C   0  0  0  0  0  0  0  0  0  0  0  0
    2.0903   -0.0415    0.3948 C   0  0  0  0  0  0  0  0  0  0  0  0
    0.9851   -2.7733   -0.9548 C   0  0  0  0  0  0  0  0  0  0  0  0
   -0.5504   -2.7375   -0.8792 C   0  0  0  0  0  0  0  0  0  0  0  0
    1.4305    1.0059   -1.7857 C   0  0  0  0  0  0  0  0  0  0  0  0
   -2.3190   -1.0372    0.0881 C   0  0  0  0  0  0  0  0  0  0  0  0
   -2.2620    0.3287    0.3795 C   0  0  0  0  0  0  0  0  0  0  0  0
    3.5501    0.0871   -0.0077 C   0  0  0  0  0  0  0  0  0  0  0  0
   -0.5457    2.1227    0.2927 C   0  0  0  0  0  0  0  0  0  0  0  0
   -3.5248   -1.7288    0.3223 C   0  0  0  0  0  0  0  0  0  0  0  0
   -3.3534    1.0360    0.8966 C   0  0  0  0  0  0  0  0  0  0  0  0
   -0.8123    3.0237   -0.9109 C   0  0  0  0  0  0  0  0  0  0  0  0
   -4.6243   -1.0332    0.8381 C   0  0  0  0  0  0  0  0  0  0  0  0
   -4.5374    0.3282    1.1204 C   0  0  0  0  0  0  0  0  0  0  0  0
   -0.3261    4.4416   -0.6595 C   0  0  0  0  0  0  0  0  0  0  0  0
    5.7937    0.3031    0.8242 C   0  0  0  0  0  0  0  0  0  0  0  0
    4.1570   -0.9213    2.0870 C   0  0  0  0  0  0  0  0  0  0  0  0
  1  4  1  0
  1 12  1  0
  1 14  1  0
  2 13  1  0
  2 21  1  0
  2 22  1  0
  3  4  1  0
  3  5  1  0
  3  7  1  0
  3 10  1  0
  4  6  2  0
  5  8  1  0
  6  9  1  0
  6 11  1  0
  7 13  1  0
  8  9  1  0
 11 12  2  0
 11 15  1  0
 12 16  1  0
 14 17  1  0
 15 18  2  0
 16 19  2  0
 17 20  1  0
 18 19  1  0
M  END
>  <PUBCHEM_COMPOUND_CID>  (1) 
42900

>  <PUBCHEM_CONFORMER_RMSD>  (1) 
0.8

>  <PUBCHEM_CONFORMER_DIVERSEORDER>  (1) 
4
8
12
10
3
6
9
7
11
2
5
1

>  <PUBCHEM_MMFF94_PARTIAL_CHARGES>  (1) 
19
1 0.05
12 -0.15
13 0.27
14 0.26
15 -0.15
16 -0.15
18 -0.15
19 -0.15
2 -0.81
21 0.27
22 0.27
3 0.18
38 0.15
39 0.15
4 -0.33
42 0.15
43 0.15
6 -0.18
9 0.18

>  <PUBCHEM_EFFECTIVE_ROTOR_COUNT>  (1) 
5.8

>  <PUBCHEM_PHARMACOPHORE_FEATURES>  (1) 
6
1 1 cation
1 2 cation
1 20 hydrophobe
5 1 4 6 11 12 rings
6 11 12 15 16 18 19 rings
6 3 4 5 6 8 9 rings

>  <PUBCHEM_HEAVY_ATOM_COUNT>  (1) 
22

>  <PUBCHEM_ATOM_DEF_STEREO_COUNT>  (1) 
0

>  <PUBCHEM_ATOM_UDEF_STEREO_COUNT>  (1) 
1

>  <PUBCHEM_BOND_DEF_STEREO_COUNT>  (1) 
0

>  <PUBCHEM_BOND_UDEF_STEREO_COUNT>  (1) 
0

>  <PUBCHEM_ISOTOPIC_ATOM_COUNT>  (1) 
0

>  <PUBCHEM_COMPONENT_COUNT>  (1) 
1

>  <PUBCHEM_CACTVS_TAUTO_COUNT>  (1) 
1

>  <PUBCHEM_CONFORMER_ID>  (1) 
0000A79400000004

>  <PUBCHEM_MMFF94_ENERGY>  (1) 
57.7785

>  <PUBCHEM_FEATURE_SELFOVERLAP>  (1) 
30.619

>  <PUBCHEM_SHAPE_FINGERPRINT>  (1) 
10967382 1 18268452225222332167
11132069 177 18340779169407085435
11578080 2 17843126896282413433
11595378 159 18188208706906792418
11961588 58 12103265093384779051
12236239 1 18113622321897744510
12553582 1 18265358182290278677
12633257 1 17988069084906118682
12788726 201 18042139699179227800
12839892 36 18412543227820990083
12892183 10 18187915128849450586
13140716 1 18198061584625990992
13544653 18 15864344723457116554
13583140 156 17604414271695701382
13941206 138 16746785594294874588
13965767 371 17837516075681965321
14178342 30 18045788888061289244
14223421 5 18196375805720331486
14420673 8 17760075221687249410
14787075 74 17203323485508664243
15375462 478 18186235130399792574
15475509 35 17024613298210412763
15685185 35 16883031467073709340
16945 1 17977684021430326519
17876694 64 17676777482859063980
17980427 23 18059292201026589013
1813 80 17458065937429687478
19784866 170 18343024371723768658
20600515 1 18200603612649751124
21033648 29 17775850124651270883
21069387 34 16225774012037506195
21304303 282 17247480748495819389
21452121 103 17987805098641020227
21475661 188 16702017573735444473
22182313 1 18195812868593601934
2334 1 18269576991263317255
23366157 5 17682687572801955189
23402539 116 18272079539351197519
23557571 272 18268443355545231733
23559900 14 18197235662599989742
2748010 2 18198362692484138103
2838139 119 14836406934651802994
3286 77 15791737429065127599
345986 75 17604409839484878128
34934 24 18342458102409564879
350125 39 18126579916086338390
394222 165 17607836050866249796
4072396 5 18409449176709952019
4409770 3 18115571652792723533
484985 159 15723017772383788890
5104073 3 18128554686563053363
58807428 26 18413108342422071938
81228 2 18046652026391140409
90316 7 18408315584073648600
9862522 239 18127670687376454574
9981440 41 17693337124442498208

>  <PUBCHEM_SHAPE_MULTIPOLES>  (1) 
442.79
8.44
3.48
1.5
5.01
3.4
0.08
-1.51
6.12
-1.21
-1.61
1.22
-0.2
0

>  <PUBCHEM_SHAPE_SELFOVERLAP>  (1) 
935.195

>  <PUBCHEM_SHAPE_VOLUME>  (1) 
251.4

>  <PUBCHEM_COORDINATE_TYPE>  (1) 
2
5
10

$$$$
