4291
     RDKit          3D

 18 18  0  0  1  0  0  0  0  0999 V2000
    0.2107   -0.1352   -1.3986 S   0  0  0  0  0  0  0  0  0  0  0  0
    3.9613    0.5295    0.1199 O   0  0  0  0  0  0  0  0  0  0  0  0
    0.1968   -1.3460   -2.1987 O   0  0  0  0  0  0  0  0  0  0  0  0
    0.4808    1.1394   -2.0378 O   0  0  0  0  0  0  0  0  0  0  0  0
    3.2920   -2.3177    0.4079 O   0  0  0  0  0  0  0  0  0  0  0  0
    1.2775   -0.3466   -0.0585 N   0  0  0  0  0  0  0  0  0  0  0  0
    1.6629    0.8563    0.7172 C   0  0  0  0  0  0  0  0  0  0  0  0
    1.0624   -1.5292    0.8154 C   0  0  0  0  0  0  0  0  0  0  0  0
    2.9040    1.4863    0.0942 C   0  0  0  0  0  0  0  0  0  0  0  0
   -1.3720   -0.0048   -0.6148 C   0  0  0  0  0  0  0  0  0  0  0  0
    2.3819   -1.9498    1.4366 C   0  0  0  0  0  0  0  0  0  0  0  0
    3.3438    2.7192    0.8720 C   0  0  0  0  0  0  0  0  0  0  0  0
   -1.8345    1.2425   -0.2383 C   0  0  0  0  0  0  0  0  0  0  0  0
   -2.1113   -1.1523   -0.3960 C   0  0  0  0  0  0  0  0  0  0  0  0
   -3.8424    0.2004    0.6093 C   0  0  0  0  0  0  0  0  0  0  0  0
   -3.0809    1.3460    0.3794 C   0  0  0  0  0  0  0  0  0  0  0  0
   -3.3576   -1.0489    0.2216 C   0  0  0  0  0  0  0  0  0  0  0  0
   -5.1754    0.3108    1.2692 C   0  0  0  0  0  0  0  0  0  0  0  0
  1  3  2  0
  1  4  2  0
  1  6  1  0
  1 10  1  0
  2  9  1  0
  5 11  1  0
  6  7  1  0
  6  8  1  0
  7  9  1  0
  8 11  1  0
  9 12  1  0
 10 13  2  0
 10 14  1  0
 13 16  1  0
 14 17  2  0
 15 16  2  0
 15 17  1  0
 15 18  1  0
M  END
>  <PUBCHEM_COMPOUND_CID>  (1) 
4291

>  <PUBCHEM_CONFORMER_RMSD>  (1) 
0.8

>  <PUBCHEM_CONFORMER_DIVERSEORDER>  (1) 
1
18
19
41
23
50
42
29
32
58
12
34
39
51
53
36
6
61
33
24
16
26
38
45
52
55
59
20
46
57
8
49
31
56
14
4
47
35
25
28
48
11
5
43
7
44
54
60
37
40
27
21
15
22
17
30
13
10
2
9
3

>  <PUBCHEM_MMFF94_PARTIAL_CHARGES>  (1) 
23
1 1.45
10 -0.01
11 0.28
13 -0.15
14 -0.15
15 -0.14
16 -0.15
17 -0.15
18 0.14
2 -0.68
29 0.15
3 -0.65
30 0.15
31 0.15
32 0.15
33 0.4
37 0.4
4 -0.65
5 -0.68
6 -0.85
7 0.36
8 0.36
9 0.28

>  <PUBCHEM_EFFECTIVE_ROTOR_COUNT>  (1) 
6

>  <PUBCHEM_PHARMACOPHORE_FEATURES>  (1) 
7
1 2 acceptor
1 2 donor
1 3 acceptor
1 4 acceptor
1 5 acceptor
1 5 donor
6 10 13 14 15 16 17 rings

>  <PUBCHEM_HEAVY_ATOM_COUNT>  (1) 
18

>  <PUBCHEM_ATOM_DEF_STEREO_COUNT>  (1) 
0

>  <PUBCHEM_ATOM_UDEF_STEREO_COUNT>  (1) 
1

>  <PUBCHEM_BOND_DEF_STEREO_COUNT>  (1) 
0

>  <PUBCHEM_BOND_UDEF_STEREO_COUNT>  (1) 
0

>  <PUBCHEM_ISOTOPIC_ATOM_COUNT>  (1) 
0

>  <PUBCHEM_COMPONENT_COUNT>  (1) 
1

>  <PUBCHEM_CACTVS_TAUTO_COUNT>  (1) 
1

>  <PUBCHEM_CONFORMER_ID>  (1) 
000010C300000001

>  <PUBCHEM_MMFF94_ENERGY>  (1) 
28.3264

>  <PUBCHEM_FEATURE_SELFOVERLAP>  (1) 
35.544

>  <PUBCHEM_SHAPE_FINGERPRINT>  (1) 
10366900 7 18261392303535347377
11132069 177 17532639329619053236
11578080 2 17604982633218596324
12251169 10 18340762642072386531
12363563 72 14707201128348169345
12507560 40 18187643557835384357
12633257 1 18271524196038084595
12644460 14 18271253745899277986
12892183 10 18334580148635416569
13296908 3 16950555537370005919
13533116 47 18333731287199383251
13583140 156 18334284354090132445
13675066 3 17821733819374222977
14178342 30 17896043307282899115
14787075 74 17473813408670119879
15527383 91 18187645747825561370
15775835 57 18272090543094138145
16945 1 18263349442627388285
17804303 29 18118125771064375883
1813 80 16226053253757947158
201361 129 18411696612657302296
20233049 118 17060339634552126064
21041028 32 18195235629948800104
23557571 272 16415488194492463967
23558518 356 17552905639506134992
25 1 14476695129665619093
2748010 2 17459729467845662414
3060560 45 12823017474006771717
31174 14 18187635865438083570
3286 77 17896315827073384602
458136 41 18186802517481620754
474 4 18191305085821617496
5104073 3 18336838511517684057
6049 1 17605260805565448124
633830 44 18270119161890628012
7097593 13 18193829354002219043
7364860 26 18411700954795541234
81228 2 15120093166405048295
9999458 23 18337396036474209732

>  <PUBCHEM_SHAPE_MULTIPOLES>  (1) 
345.82
7.81
2.3
1.53
4.4
0.02
0.7
1.85
-3.86
-2.67
-0.63
-0.14
-0.26
-0.36

>  <PUBCHEM_SHAPE_SELFOVERLAP>  (1) 
682.73

>  <PUBCHEM_SHAPE_VOLUME>  (1) 
206.9

>  <PUBCHEM_COORDINATE_TYPE>  (1) 
2
5
10

$$$$
