4293
     RDKit          3D

 19 20  0  0  0  0  0  0  0  0999 V2000
   -2.2190    1.7631    0.3079 S   0  0  0  0  0  0  0  0  0  0  0  0
    0.5468    1.0094    0.8771 S   0  0  0  0  0  0  0  0  0  0  0  0
    3.3440    0.3571    0.3365 S   0  0  0  0  0  0  0  0  0  0  0  0
   -1.3619   -2.5194    1.2789 S   0  0  0  0  0  0  0  0  0  0  0  0
   -2.0146    2.6473    1.4387 O   0  0  0  0  0  0  0  0  0  0  0  0
   -2.9540    2.1960   -0.8645 O   0  0  0  0  0  0  0  0  0  0  0  0
    4.3562    0.7845   -0.6135 O   0  0  0  0  0  0  0  0  0  0  0  0
    3.4108    0.7891    1.7219 O   0  0  0  0  0  0  0  0  0  0  0  0
   -2.8732    0.2787    0.8615 N   0  0  0  0  0  0  0  0  0  0  0  0
    3.2170   -1.3440    0.2903 N   0  0  0  0  0  0  0  0  0  0  0  0
   -0.5798    1.4130   -0.3276 C   0  0  0  0  0  0  0  0  0  0  0  0
   -3.0279   -0.8173   -0.1143 C   0  0  0  0  0  0  0  0  0  0  0  0
    1.7724    0.8161   -0.3029 C   0  0  0  0  0  0  0  0  0  0  0  0
   -0.0742    1.4094   -1.5835 C   0  0  0  0  0  0  0  0  0  0  0  0
    1.3070    1.0596   -1.5763 C   0  0  0  0  0  0  0  0  0  0  0  0
   -1.8243   -1.7144   -0.1470 C   0  0  0  0  0  0  0  0  0  0  0  0
   -1.0132   -1.9849   -1.2097 C   0  0  0  0  0  0  0  0  0  0  0  0
    0.0297   -2.8864   -0.8491 C   0  0  0  0  0  0  0  0  0  0  0  0
   -0.0417   -3.2569    0.4756 C   0  0  0  0  0  0  0  0  0  0  0  0
  1  5  2  0
  1  6  2  0
  1  9  1  0
  1 11  1  0
  2 11  1  0
  2 13  1  0
  3  7  2  0
  3  8  2  0
  3 10  1  0
  3 13  1  0
  4 16  1  0
  4 19  1  0
  9 12  1  0
 11 14  2  0
 12 16  1  0
 13 15  2  0
 14 15  1  0
 16 17  2  0
 17 18  1  0
 18 19  2  0
M  END
>  <PUBCHEM_COMPOUND_CID>  (1) 
4293

>  <PUBCHEM_CONFORMER_RMSD>  (1) 
0.6

>  <PUBCHEM_CONFORMER_DIVERSEORDER>  (1) 
1
210
63
169
231
216
192
211
251
136
146
215
154
190
244
2
212
183
161
230
200
250
35
73
209
141
193
221
8
199
142
79
184
135
245
218
150
6
214
257
100
70
34
120
196
195
227
204
177
254
201
51
225
240
181
165
229
205
255
166
170
115
194
140
178
237
243
162
238
191
9
242
236
109
207
172
228
202
58
56
223
126
26
174
131
144
97
111
40
217
138
206
132
24
102
145
107
139
198
168
106
249
57
171
197
147
105
55
167
208
156
33
241
127
53
224
133
22
122
64
248
256
90
39
143
239
222
128
129
226
89
148
52
176
155
21
189
203
92
258
65
86
10
123
130
101
49
108
75
137
62
88
38
149
47
118
14
116
78
232
91
77
20
179
76
117
253
66
175
125
159
98
25
233
54
252
61
152
87
173
160
30
153
219
41
110
23
151
134
18
182
28
121
220
67
84
13
85
81
180
95
213
15
188
247
112
12
36
27
246
50
16
19
29
119
71
83
235
99
17
68
234
185
114
82
74
164
187
80
69
93
48
11
94
7
96
59
72
32
158
157
186
113
124
60
5
163
103
31
42
43
104
4
45
37
44
3
46

>  <PUBCHEM_MMFF94_PARTIAL_CHARGES>  (1) 
27
1 1.5
10 -0.98
11 -0.02
12 0.54
13 -0.02
14 -0.15
15 -0.15
16 -0.14
17 -0.15
18 -0.15
19 -0.11
2 -0.08
22 0.42
23 0.15
24 0.15
25 0.15
26 0.15
27 0.42
28 0.42
29 0.15
3 1.5
4 -0.08
5 -0.65
6 -0.65
7 -0.65
8 -0.65
9 -0.91

>  <PUBCHEM_EFFECTIVE_ROTOR_COUNT>  (1) 
5

>  <PUBCHEM_PHARMACOPHORE_FEATURES>  (1) 
8
1 10 donor
1 5 acceptor
1 6 acceptor
1 7 acceptor
1 8 acceptor
1 9 donor
5 2 11 13 14 15 rings
5 4 16 17 18 19 rings

>  <PUBCHEM_HEAVY_ATOM_COUNT>  (1) 
19

>  <PUBCHEM_ATOM_DEF_STEREO_COUNT>  (1) 
0

>  <PUBCHEM_ATOM_UDEF_STEREO_COUNT>  (1) 
0

>  <PUBCHEM_BOND_DEF_STEREO_COUNT>  (1) 
0

>  <PUBCHEM_BOND_UDEF_STEREO_COUNT>  (1) 
0

>  <PUBCHEM_ISOTOPIC_ATOM_COUNT>  (1) 
0

>  <PUBCHEM_COMPONENT_COUNT>  (1) 
1

>  <PUBCHEM_CACTVS_TAUTO_COUNT>  (1) 
1

>  <PUBCHEM_CONFORMER_ID>  (1) 
000010C500000001

>  <PUBCHEM_MMFF94_ENERGY>  (1) 
18.097

>  <PUBCHEM_FEATURE_SELFOVERLAP>  (1) 
40.632

>  <PUBCHEM_SHAPE_FINGERPRINT>  (1) 
10366900 7 17988356096037936904
104564 63 18338520849706678246
11321824 6 17909840069229688071
11370993 70 18268136587532462680
12500047 106 18412257329328248544
12553582 1 17762063541671717950
12592029 89 18043245735146974761
12633257 1 17988079031776134824
13140716 1 17978517764301909634
14081887 123 18126831923366265024
14178342 30 18195826084651641569
14251711 518 17115805859988141015
14817 1 18127992972968804133
16752209 62 18337382833438241167
16945 1 18263646323662371620
20691752 17 17680167191618964991
20905425 154 18269561550734555951
21731516 1 17474964593007528287
232386 152 18123194760075601500
23419403 2 16320559370874173641
23559900 14 18273216387815408108
23728640 28 18338517555087084162
238 59 17252830911619441901
257057 1 17550093106015863535
2748010 2 18047489828618442815
4340502 62 18198061370711809949
465052 167 17606705749245559659
6992083 37 18113904883042511773
81228 2 18265037206151005184
90525 40 18333735710377166973

>  <PUBCHEM_SHAPE_MULTIPOLES>  (1) 
372.97
5.34
3.65
1.48
4.99
1.74
0.01
-1.01
-0.95
-2.57
-0.19
0.18
-0.26
-0.21

>  <PUBCHEM_SHAPE_SELFOVERLAP>  (1) 
733.578

>  <PUBCHEM_SHAPE_VOLUME>  (1) 
223.4

>  <PUBCHEM_COORDINATE_TYPE>  (1) 
2
5
10

$$$$
