42949
     RDKit          3D

 14 14  0  0  1  0  0  0  0  0999 V2000
    2.4116   -2.3742    0.0610 O   0  0  0  0  0  0  0  0  0  0  0  0
    3.6223   -0.5647   -0.5919 O   0  0  0  0  0  0  0  0  0  0  0  0
    0.9138    1.2876   -0.4293 C   0  0  0  0  0  0  0  0  0  0  0  0
    1.8206    1.1360    0.8096 C   0  0  0  0  0  0  0  0  0  0  0  0
   -0.4489    0.6385   -0.2588 C   0  0  0  0  0  0  0  0  0  0  0  0
    0.7622    2.7709   -0.7881 C   0  0  0  0  0  0  0  0  0  0  0  0
    2.0375   -0.3214    1.2135 C   0  0  0  0  0  0  0  0  0  0  0  0
   -0.8198   -0.3773   -1.1183 C   0  0  0  0  0  0  0  0  0  0  0  0
   -1.2801    1.0819    0.7515 C   0  0  0  0  0  0  0  0  0  0  0  0
   -2.9270   -0.5415    0.0516 C   0  0  0  0  0  0  0  0  0  0  0  0
   -2.0712   -0.9731   -0.9616 C   0  0  0  0  0  0  0  0  0  0  0  0
   -2.5315    0.4860    0.9082 C   0  0  0  0  0  0  0  0  0  0  0  0
    2.7749   -1.0696    0.1329 C   0  0  0  0  0  0  0  0  0  0  0  0
   -4.2645   -1.1793    0.2198 C   0  0  0  0  0  0  0  0  0  0  0  0
  1 13  1  0
  2 13  2  0
  3  4  1  0
  3  5  1  0
  3  6  1  0
  4  7  1  0
  5  8  2  0
  5  9  1  0
  7 13  1  0
  8 11  1  0
  9 12  2  0
 10 11  2  0
 10 12  1  0
 10 14  1  0
M  END
>  <PUBCHEM_COMPOUND_CID>  (1) 
42949

>  <PUBCHEM_CONFORMER_RMSD>  (1) 
0.6

>  <PUBCHEM_CONFORMER_DIVERSEORDER>  (1) 
3
7
24
16
13
25
12
1
19
18
23
27
10
6
14
22
8
4
21
5
26
11
15
20
9
2
17

>  <PUBCHEM_MMFF94_PARTIAL_CHARGES>  (1) 
17
1 -0.65
10 -0.14
11 -0.15
12 -0.15
13 0.66
14 0.14
2 -0.57
23 0.15
24 0.15
25 0.15
26 0.15
3 0.14
30 0.5
5 -0.14
7 0.06
8 -0.15
9 -0.15

>  <PUBCHEM_EFFECTIVE_ROTOR_COUNT>  (1) 
4

>  <PUBCHEM_PHARMACOPHORE_FEATURES>  (1) 
5
1 1 acceptor
1 2 acceptor
1 6 hydrophobe
3 1 2 13 anion
6 5 8 9 10 11 12 rings

>  <PUBCHEM_HEAVY_ATOM_COUNT>  (1) 
14

>  <PUBCHEM_ATOM_DEF_STEREO_COUNT>  (1) 
0

>  <PUBCHEM_ATOM_UDEF_STEREO_COUNT>  (1) 
1

>  <PUBCHEM_BOND_DEF_STEREO_COUNT>  (1) 
0

>  <PUBCHEM_BOND_UDEF_STEREO_COUNT>  (1) 
0

>  <PUBCHEM_ISOTOPIC_ATOM_COUNT>  (1) 
0

>  <PUBCHEM_COMPONENT_COUNT>  (1) 
1

>  <PUBCHEM_CACTVS_TAUTO_COUNT>  (1) 
1

>  <PUBCHEM_CONFORMER_ID>  (1) 
0000A7C500000003

>  <PUBCHEM_MMFF94_ENERGY>  (1) 
28.6676

>  <PUBCHEM_FEATURE_SELFOVERLAP>  (1) 
25.429

>  <PUBCHEM_SHAPE_FINGERPRINT>  (1) 
11769659 78 18342734113654930267
12251169 10 17703785937780280307
12326174 3 17823123696055090816
13538477 17 17843966077178198349
13571099 22 18411409631674968829
15076042 46 17775004565918194681
15279307 12 18054791955393941847
15375462 189 18272647922791675986
15775835 57 17346035700615131723
16945 1 18266167516905118149
17804303 29 17775012249609256382
19422 9 18340215081139624690
20361792 2 18261664913651936652
20559304 39 18271247247761744321
20645477 70 18116143570969855999
20711985 344 17827057533794759988
20871998 22 18335976502353215840
22445834 79 18273212001857116563
2255824 54 18264495168288113012
230 275 8862945008899377230
23402539 116 17895473610399825722
23463225 33 18272373096307918127
23552423 10 18268428121385806093
23557571 272 15069163663342134708
23598291 2 18268732600218338649
2748010 2 18265309773302571836
598444 67 17261038718697254390
7364860 26 18267586994964579744
81228 2 17973421231797718892
83771 10 18410856542739514802
94968 8 18260548935130389714

>  <PUBCHEM_SHAPE_MULTIPOLES>  (1) 
276.37
5.81
2.13
1.12
2.27
0.56
-0.03
-3.32
-0.61
-1.42
0.37
0
0.11
-0.33

>  <PUBCHEM_SHAPE_SELFOVERLAP>  (1) 
562.994

>  <PUBCHEM_SHAPE_VOLUME>  (1) 
161.3

>  <PUBCHEM_COORDINATE_TYPE>  (1) 
2
5
10

$$$$
