42950
     RDKit          3D

 16 16  0  0  0  0  0  0  0  0999 V2000
   -3.9992   -0.4981    0.0003 Si  0  0  0  0  0  4  0  0  0  0  0  0
    3.3853   -0.6453   -0.0005 O   0  0  0  0  0  0  0  0  0  0  0  0
    3.5942    1.6471    0.0009 O   0  0  0  0  0  0  0  0  0  0  0  0
   -2.7657    0.6587   -0.0003 N   0  0  0  0  0  0  0  0  0  0  0  0
   -5.6223    0.4237    0.0003 C   0  0  0  0  0  0  0  0  0  0  0  0
   -3.8518   -1.5335   -1.5369 C   0  0  0  0  0  0  0  0  0  0  0  0
   -3.8515   -1.5316    1.5391 C   0  0  0  0  0  0  0  0  0  0  0  0
   -1.3489    0.6513   -0.0006 C   0  0  0  0  0  0  0  0  0  0  0  0
   -0.6516    1.8558    0.0005 C   0  0  0  0  0  0  0  0  0  0  0  0
   -0.6642   -0.5602   -0.0017 C   0  0  0  0  0  0  0  0  0  0  0  0
    1.4344    0.6371   -0.0010 C   0  0  0  0  0  0  0  0  0  0  0  0
    0.7432    1.8485    0.0001 C   0  0  0  0  0  0  0  0  0  0  0  0
    0.7307   -0.5673   -0.0019 C   0  0  0  0  0  0  0  0  0  0  0  0
    2.8885    0.6296   -0.0005 C   0  0  0  0  0  0  0  0  0  0  0  0
    4.8101   -0.7847    0.0013 C   0  0  0  0  0  0  0  0  0  0  0  0
    5.1687   -2.2310    0.0010 C   0  0  0  0  0  0  0  0  0  0  0  0
  1  4  1  0
  1  5  1  0
  1  6  1  0
  1  7  1  0
  2 14  1  0
  2 15  1  0
  3 14  2  0
  4  8  1  0
  8  9  2  0
  8 10  1  0
  9 12  1  0
 10 13  2  0
 11 12  2  0
 11 13  1  0
 11 14  1  0
 15 16  1  0
M  END
>  <PUBCHEM_COMPOUND_CID>  (1) 
42950

>  <PUBCHEM_CONFORMER_RMSD>  (1) 
0.6

>  <PUBCHEM_CONFORMER_DIVERSEORDER>  (1) 
1
26
20
22
2
10
4
13
8
23
7
3
6
17
19
21
5
16
27
24
18
12
15
9
14
28
11
25

>  <PUBCHEM_MMFF94_PARTIAL_CHARGES>  (1) 
20
1 0.6
10 -0.15
11 0.09
12 -0.15
13 -0.15
14 0.63
15 0.28
17 0.4
2 -0.43
27 0.15
28 0.15
29 0.15
3 -0.57
30 0.15
4 -0.86
5 -0.08
6 -0.08
7 -0.08
8 0.1
9 -0.15

>  <PUBCHEM_EFFECTIVE_ROTOR_COUNT>  (1) 
5

>  <PUBCHEM_PHARMACOPHORE_FEATURES>  (1) 
2
1 3 acceptor
6 8 9 10 11 12 13 rings

>  <PUBCHEM_HEAVY_ATOM_COUNT>  (1) 
16

>  <PUBCHEM_ATOM_DEF_STEREO_COUNT>  (1) 
0

>  <PUBCHEM_ATOM_UDEF_STEREO_COUNT>  (1) 
0

>  <PUBCHEM_BOND_DEF_STEREO_COUNT>  (1) 
0

>  <PUBCHEM_BOND_UDEF_STEREO_COUNT>  (1) 
0

>  <PUBCHEM_ISOTOPIC_ATOM_COUNT>  (1) 
0

>  <PUBCHEM_COMPONENT_COUNT>  (1) 
1

>  <PUBCHEM_CACTVS_TAUTO_COUNT>  (1) 
2

>  <PUBCHEM_CONFORMER_ID>  (1) 
0000A7C600000001

>  <PUBCHEM_MMFF94_ENERGY>  (1) 
35.8936

>  <PUBCHEM_FEATURE_SELFOVERLAP>  (1) 
10.148

>  <PUBCHEM_SHAPE_FINGERPRINT>  (1) 
10912923 1 17489592311130220641
12032990 46 18335424577369833776
12236239 1 18131351934395703019
12596602 18 16343695556344078106
12670546 56 14117528597064775679
12760667 363 18338233756886565602
12916748 109 10881400902881501213
13167823 11 18413105069577409767
13288520 33 18410014299410195567
13583140 156 15195279790242055411
13675066 3 18337390543136886225
13690532 89 18410292501764238428
13760787 5 18409447020330239173
13862211 1 18412259519329065927
14455015 7 18261118473568774995
15188451 53 16343123832251999919
15196674 1 18410855503441838115
15788980 27 18412544323237396039
15880784 105 17704065230998377611
17862501 102 18131068225192064178
18186145 218 17240477048378422985
19141452 34 18131631188515937751
193927 3 18339371781570233862
200 152 18201717384133023433
20281475 54 18272366520433575597
20621476 91 13757493618050837503
20645477 70 18334856138749050874
21267235 1 18410581656037135187
221490 88 18189060961092793737
22485316 2 18271805765408954461
23402539 116 18271801319959463343
23557571 272 18041278764479050829
23559900 14 18186521033693598336
26918003 58 18334858320549927627
2871803 45 18186517683529378186
314194 84 18341332279411141962
3286 77 17704065205402393976
34797466 226 16226057724724008751
351380 3 18409165485044956370
465052 167 18341337725524911430
5104073 3 18271809059654022643
559249 180 18266175028987346697
59755656 215 18115587032964959239
633830 44 17967528012770527021
76465 3 18272080617245414590

>  <PUBCHEM_SHAPE_MULTIPOLES>  (1) 
330.77
11.66
2.02
0.93
3.61
0.03
0
5.74
-0.01
1.33
0
-1.22
0.45
0

>  <PUBCHEM_SHAPE_SELFOVERLAP>  (1) 
649.225

>  <PUBCHEM_SHAPE_VOLUME>  (1) 
200.2

>  <PUBCHEM_COORDINATE_TYPE>  (1) 
2
5
10

$$$$
