42952
     RDKit          3D

  9  8  0  0  0  0  0  0  0  0999 V2000
    2.9883    1.8399   -0.3100 Br  0  0  0  0  0  0  0  0  0  0  0  0
    4.2934   -1.0899   -0.1181 Br  0  0  0  0  0  0  0  0  0  0  0  0
   -1.0356   -0.4850   -0.2085 C   0  0  0  0  0  0  0  0  0  0  0  0
    0.2356    0.1813    0.3257 C   0  0  0  0  0  0  0  0  0  0  0  0
   -2.3219    0.2307    0.2142 C   0  0  0  0  0  0  0  0  0  0  0  0
    1.4870   -0.6043   -0.0903 C   0  0  0  0  0  0  0  0  0  0  0  0
   -3.5924   -0.4483   -0.2990 C   0  0  0  0  0  0  0  0  0  0  0  0
    2.7813    0.0362    0.4002 C   0  0  0  0  0  0  0  0  0  0  0  0
   -4.8356    0.3393    0.0857 C   0  0  0  0  0  0  0  0  0  0  0  0
  1  8  1  0
  2  8  1  0
  3  4  1  0
  3  5  1  0
  4  6  1  0
  5  7  1  0
  6  8  1  0
  7  9  1  0
M  END
>  <PUBCHEM_COMPOUND_CID>  (1) 
42952

>  <PUBCHEM_CONFORMER_RMSD>  (1) 
0.6

>  <PUBCHEM_CONFORMER_DIVERSEORDER>  (1) 
1
33
50
42
20
46
61
23
16
9
44
31
56
18
34
5
63
57
12
6
36
68
32
8
43
47
55
10
11
22
64
39
2
54
59
3
40
30
66
27
67
26
52
25
24
49
14
65
62
4
15
17
21
19
28
53
51
7
60
41
13
45
29
38
35
58
37
48

>  <PUBCHEM_MMFF94_PARTIAL_CHARGES>  (1) 
3
1 -0.23
2 -0.23
8 0.46

>  <PUBCHEM_EFFECTIVE_ROTOR_COUNT>  (1) 
5

>  <PUBCHEM_PHARMACOPHORE_FEATURES>  (1) 
5
1 1 hydrophobe
1 2 hydrophobe
1 9 hydrophobe
3 1 2 8 hydrophobe
5 3 4 5 6 7 hydrophobe

>  <PUBCHEM_HEAVY_ATOM_COUNT>  (1) 
9

>  <PUBCHEM_ATOM_DEF_STEREO_COUNT>  (1) 
0

>  <PUBCHEM_ATOM_UDEF_STEREO_COUNT>  (1) 
0

>  <PUBCHEM_BOND_DEF_STEREO_COUNT>  (1) 
0

>  <PUBCHEM_BOND_UDEF_STEREO_COUNT>  (1) 
0

>  <PUBCHEM_ISOTOPIC_ATOM_COUNT>  (1) 
0

>  <PUBCHEM_COMPONENT_COUNT>  (1) 
1

>  <PUBCHEM_CACTVS_TAUTO_COUNT>  (1) 
1

>  <PUBCHEM_CONFORMER_ID>  (1) 
0000A7C800000001

>  <PUBCHEM_MMFF94_ENERGY>  (1) 
1.4109

>  <PUBCHEM_FEATURE_SELFOVERLAP>  (1) 
26.715

>  <PUBCHEM_SHAPE_FINGERPRINT>  (1) 
11062470 55 18408321090548392851
12932764 1 17168129161738020418
14123238 8 9799686000266782211
14325111 11 18410574023932861307
17834072 33 18341610468985739327
17834076 25 15864073156811442059
18186145 218 17894905247943514603
190213 19 18060137643552512523
20606313 2 18408885174363072580
20645477 70 18411702080003340750
20719005 15 18341894086839913563
21119208 17 18342175557247343838
22485316 2 17203602687967744095
23402539 116 16486965164338290769
23532345 12 18130512933550629104
449060 62 18262521506462191348
522135 26 18335422365867734774

>  <PUBCHEM_SHAPE_MULTIPOLES>  (1) 
197.1
9.79
1.37
0.71
6.96
0.6
0.01
-0.47
0.37
-1.89
0.15
-0.12
0.02
-0.19

>  <PUBCHEM_SHAPE_SELFOVERLAP>  (1) 
322.164

>  <PUBCHEM_SHAPE_VOLUME>  (1) 
137.1

>  <PUBCHEM_COORDINATE_TYPE>  (1) 
2
5
10

$$$$
