42951
     RDKit          3D

 13 13  0  0  1  0  0  0  0  0999 V2000
   -1.5556   -0.0169   -0.0978 O   0  0  0  0  0  0  0  0  0  0  0  0
   -1.0350    2.1631   -0.6776 O   0  0  0  0  0  0  0  0  0  0  0  0
    2.4945   -1.0126   -0.4064 N   0  0  0  0  0  0  0  0  0  0  0  0
    3.1785   -0.3553    0.7150 C   0  0  0  0  0  0  0  0  0  0  0  0
    1.0349   -0.8157   -0.3162 C   0  0  0  0  0  0  0  0  0  0  0  0
    2.9467    1.1630    0.6724 C   0  0  0  0  0  0  0  0  0  0  0  0
    0.6496    0.6137   -0.0620 C   0  0  0  0  0  0  0  0  0  0  0  0
    1.5220    1.5318    0.3756 C   0  0  0  0  0  0  0  0  0  0  0  0
    2.8199   -2.4367   -0.4576 C   0  0  0  0  0  0  0  0  0  0  0  0
   -0.7278    1.0358   -0.3205 C   0  0  0  0  0  0  0  0  0  0  0  0
   -2.9474    0.2403   -0.3106 C   0  0  0  0  0  0  0  0  0  0  0  0
   -3.7150   -1.0077   -0.0254 C   0  0  0  0  0  0  0  0  0  0  0  0
   -4.6653   -1.1028    0.9111 C   0  0  0  0  0  0  0  0  0  0  0  0
  1 10  1  0
  1 11  1  0
  2 10  2  0
  3  4  1  0
  3  5  1  0
  3  9  1  0
  4  6  1  0
  5  7  1  0
  6  8  1  0
  7  8  2  0
  7 10  1  0
 11 12  1  0
 12 13  2  0
M  END
>  <PUBCHEM_COMPOUND_CID>  (1) 
42951

>  <PUBCHEM_CONFORMER_RMSD>  (1) 
0.6

>  <PUBCHEM_CONFORMER_DIVERSEORDER>  (1) 
1
114
121
109
97
115
20
96
103
3
61
65
98
107
7
64
66
83
88
91
39
120
8
122
99
34
82
47
104
12
85
93
84
10
102
27
123
11
43
112
41
118
111
18
80
22
37
35
113
6
79
100
2
30
119
95
117
75
58
46
19
55
81
62
16
59
71
40
74
21
31
52
101
56
77
48
105
92
53
33
108
24
15
90
69
67
86
45
89
23
4
42
49
76
70
32
116
57
28
106
72
60
87
110
54
94
14
44
73
51
13
29
68
17
25
36
50
9
38
78
63
5
26

>  <PUBCHEM_MMFF94_PARTIAL_CHARGES>  (1) 
17
1 -0.43
10 0.71
11 0.42
12 -0.29
13 -0.3
2 -0.57
20 0.15
26 0.15
27 0.15
28 0.15
3 -0.81
4 0.27
5 0.41
6 0.14
7 -0.12
8 -0.29
9 0.27

>  <PUBCHEM_EFFECTIVE_ROTOR_COUNT>  (1) 
4.8

>  <PUBCHEM_PHARMACOPHORE_FEATURES>  (1) 
4
1 13 hydrophobe
1 2 acceptor
1 3 cation
6 3 4 5 6 7 8 rings

>  <PUBCHEM_HEAVY_ATOM_COUNT>  (1) 
13

>  <PUBCHEM_ATOM_DEF_STEREO_COUNT>  (1) 
0

>  <PUBCHEM_ATOM_UDEF_STEREO_COUNT>  (1) 
0

>  <PUBCHEM_BOND_DEF_STEREO_COUNT>  (1) 
0

>  <PUBCHEM_BOND_UDEF_STEREO_COUNT>  (1) 
0

>  <PUBCHEM_ISOTOPIC_ATOM_COUNT>  (1) 
0

>  <PUBCHEM_COMPONENT_COUNT>  (1) 
1

>  <PUBCHEM_CACTVS_TAUTO_COUNT>  (1) 
1

>  <PUBCHEM_CONFORMER_ID>  (1) 
0000A7C700000001

>  <PUBCHEM_MMFF94_ENERGY>  (1) 
17.9906

>  <PUBCHEM_FEATURE_SELFOVERLAP>  (1) 
20.297

>  <PUBCHEM_SHAPE_FINGERPRINT>  (1) 
11543360 7 12829493683720395859
12032990 46 18334296470182045331
12251169 10 18059856198841013503
12932764 1 17346585391962597828
13296908 3 18334290968402720837
14251710 61 18336272266786632827
14251717 144 18341888636526622927
14252887 29 18336269028322912459
14350558 41 18334862748550504821
14911166 2 8718558245751943336
15219456 202 18412254017565500621
15375462 189 17917989516291493115
15501101 241 18341047514299747429
16945 1 18271507776414911564
17834074 16 18411697664824069271
17844478 74 18410569578610236949
18380122 1 18337377314447905340
20281407 28 18336831905156329357
20281475 54 18337399240176401413
20645477 70 18341317934399845383
20671657 53 16660360402774993093
20871998 22 18409451375448137125
21501925 9 18336260227945491553
221490 88 18338800009695938366
23557571 272 17677036993467890557
2748010 2 18126269870981822084
31174 14 18272365382304191344
33824 294 18411414050732456530
4416823 128 18340210678576827606
5493415 88 18196646290350478746
581208 293 18341607169875758374

>  <PUBCHEM_SHAPE_MULTIPOLES>  (1) 
250.81
7.37
2.09
0.83
7.44
0.35
0.09
3.55
1.91
-1.3
-0.3
0.08
0.01
0.97

>  <PUBCHEM_SHAPE_SELFOVERLAP>  (1) 
496.739

>  <PUBCHEM_SHAPE_VOLUME>  (1) 
149.7

>  <PUBCHEM_COORDINATE_TYPE>  (1) 
2
5
10

$$$$
