42954
     RDKit          3D

 16 18  0  0  0  0  0  0  0  0999 V2000
    3.1723    2.5188    0.0000 Cl  0  0  0  0  0  0  0  0  0  0  0  0
    3.4634   -2.8060   -0.0004 Cl  0  0  0  0  0  0  0  0  0  0  0  0
    0.2609   -0.3437    0.0001 C   0  0  0  0  0  0  0  0  0  0  0  0
   -1.1779   -0.4005    0.0001 C   0  0  0  0  0  0  0  0  0  0  0  0
    0.9041    0.9215    0.0001 C   0  0  0  0  0  0  0  0  0  0  0  0
   -1.9183    0.8106    0.0000 C   0  0  0  0  0  0  0  0  0  0  0  0
    0.1407    2.0919    0.0001 C   0  0  0  0  0  0  0  0  0  0  0  0
   -1.2492    2.0371    0.0000 C   0  0  0  0  0  0  0  0  0  0  0  0
    1.1015   -1.4849    0.0003 C   0  0  0  0  0  0  0  0  0  0  0  0
   -1.9268   -1.6041    0.0002 C   0  0  0  0  0  0  0  0  0  0  0  0
    2.3067    1.0106   -0.0001 C   0  0  0  0  0  0  0  0  0  0  0  0
   -3.3236    0.7894   -0.0003 C   0  0  0  0  0  0  0  0  0  0  0  0
    2.4953   -1.3822    0.0001 C   0  0  0  0  0  0  0  0  0  0  0  0
    3.0980   -0.1339   -0.0001 C   0  0  0  0  0  0  0  0  0  0  0  0
   -3.3242   -1.6109    0.0002 C   0  0  0  0  0  0  0  0  0  0  0  0
   -4.0227   -0.4136   -0.0003 C   0  0  0  0  0  0  0  0  0  0  0  0
  1 11  1  0
  2 13  1  0
  3  4  2  0
  3  5  1  0
  3  9  1  0
  4  6  1  0
  4 10  1  0
  5  7  2  0
  5 11  1  0
  6  8  2  0
  6 12  1  0
  7  8  1  0
  9 13  2  0
 10 15  2  0
 11 14  2  0
 12 16  2  0
 13 14  1  0
 15 16  1  0
M  END
>  <PUBCHEM_COMPOUND_CID>  (1) 
42954

>  <PUBCHEM_CONFORMER_RMSD>  (1) 
0.4

>  <PUBCHEM_CONFORMER_DIVERSEORDER>  (1) 
1

>  <PUBCHEM_MMFF94_PARTIAL_CHARGES>  (1) 
20
1 -0.18
10 -0.15
11 0.18
12 -0.15
13 0.18
14 -0.15
15 -0.15
16 -0.15
17 0.15
18 0.15
19 0.15
2 -0.18
20 0.15
21 0.15
22 0.15
23 0.15
24 0.15
7 -0.15
8 -0.15
9 -0.15

>  <PUBCHEM_EFFECTIVE_ROTOR_COUNT>  (1) 
0

>  <PUBCHEM_PHARMACOPHORE_FEATURES>  (1) 
3
6 3 4 5 6 7 8 rings
6 3 5 9 11 13 14 rings
6 4 6 10 12 15 16 rings

>  <PUBCHEM_HEAVY_ATOM_COUNT>  (1) 
16

>  <PUBCHEM_ATOM_DEF_STEREO_COUNT>  (1) 
0

>  <PUBCHEM_ATOM_UDEF_STEREO_COUNT>  (1) 
0

>  <PUBCHEM_BOND_DEF_STEREO_COUNT>  (1) 
0

>  <PUBCHEM_BOND_UDEF_STEREO_COUNT>  (1) 
0

>  <PUBCHEM_ISOTOPIC_ATOM_COUNT>  (1) 
0

>  <PUBCHEM_COMPONENT_COUNT>  (1) 
1

>  <PUBCHEM_CACTVS_TAUTO_COUNT>  (1) 
1

>  <PUBCHEM_CONFORMER_ID>  (1) 
0000A7CA00000001

>  <PUBCHEM_MMFF94_ENERGY>  (1) 
52.7366

>  <PUBCHEM_FEATURE_SELFOVERLAP>  (1) 
15.272

>  <PUBCHEM_SHAPE_FINGERPRINT>  (1) 
10608611 8 18409163316249911261
10616163 171 18340490074673335471
10967382 1 18338797943404926438
10980938 120 18338797934946893152
11132069 177 18338228374986322289
11471102 20 18338512044933797373
11578080 2 17169249465718955238
11769659 78 18411416181072866159
12032990 46 18409452457827511347
12553582 1 18121217580460773010
12839892 36 18195788877581552138
13140716 1 18339086999352433747
13296908 3 18409449185041332763
13380535 76 18190739941276512464
14144814 61 18411138060729221491
14576447 43 17912913174523292831
14790565 3 16899911791794186416
15042514 8 17617094707782571242
15196674 1 18410575102391535303
15219456 202 18409164437273058397
15375462 6 18410575123513041516
15442244 35 18339925896337798184
15536298 74 18342459265849667508
16945 1 18266459806482775492
17804303 29 18268153050142095110
18186145 218 17676203555026982879
193761 8 18338517443523331780
19591789 44 17690284132770819524
200 152 18059562582339890959
20559304 39 18410573977099567280
20645477 70 18409441501461021391
21267235 1 18411146839531961863
21501502 16 18412831261122480265
21634736 98 18410297986680335070
221490 88 18336273404799966090
23184049 29 18338515223167352746
2334 1 18410855507393920551
23366157 5 18113620084441342332
23402539 116 18126553527754361951
23463225 33 18411138026031840431
23557571 272 17913211954255593622
23559900 14 18340198592865683402
2748010 2 18410291423584957493
335352 9 18122626054976799421
34934 24 18340761667198992021
394222 165 17534897795586609400
43471831 8 18265611168606373216
4409770 3 17033588246481932636
5104073 3 18410576197550239451
53812653 166 18199185281230909320
54173680 148 17834677093851720770
7364860 26 18413107264848789504
8809292 202 18262524688763912843
9709674 26 18409169926035950147

>  <PUBCHEM_SHAPE_MULTIPOLES>  (1) 
333.01
6.55
2.9
0.62
1.62
0.01
0
1.91
0
-2.38
0
-0.02
0
0

>  <PUBCHEM_SHAPE_SELFOVERLAP>  (1) 
730.67

>  <PUBCHEM_SHAPE_VOLUME>  (1) 
173.1

>  <PUBCHEM_COORDINATE_TYPE>  (1) 
2
5
10

$$$$
