42960
     RDKit          3D

 16 17  0  0  0  0  0  0  0  0999 V2000
    3.5368    1.8049   -0.4143 O   0  0  0  0  0  0  0  0  0  0  0  0
    0.3302   -1.4367   -0.1304 N   0  0  0  0  0  0  0  0  0  0  0  0
    0.5013    2.0796    0.1583 N   0  0  0  0  0  0  0  0  0  0  0  0
   -0.2882   -0.2169   -0.0239 C   0  0  0  0  0  0  0  0  0  0  0  0
    1.9459    0.0832   -0.0208 C   0  0  0  0  0  0  0  0  0  0  0  0
    1.6901   -1.2657   -0.1301 C   0  0  0  0  0  0  0  0  0  0  0  0
    0.6957    0.7468    0.0462 C   0  0  0  0  0  0  0  0  0  0  0  0
   -1.7256   -0.0983   -0.0001 C   0  0  0  0  0  0  0  0  0  0  0  0
    2.6001   -2.4234   -0.2349 C   0  0  0  0  0  0  0  0  0  0  0  0
    3.2601    0.6620    0.0141 C   0  0  0  0  0  0  0  0  0  0  0  0
   -2.4317    0.0584   -1.1929 C   0  0  0  0  0  0  0  0  0  0  0  0
   -2.4096   -0.1397    1.2150 C   0  0  0  0  0  0  0  0  0  0  0  0
    4.4216   -0.1370    0.6032 C   0  0  0  0  0  0  0  0  0  0  0  0
   -3.8216    0.1741   -1.1706 C   0  0  0  0  0  0  0  0  0  0  0  0
   -3.7996   -0.0241    1.2370 C   0  0  0  0  0  0  0  0  0  0  0  0
   -4.5054    0.1328    0.0442 C   0  0  0  0  0  0  0  0  0  0  0  0
  1 10  2  0
  2  4  1  0
  2  6  1  0
  3  7  1  0
  4  7  2  0
  4  8  1  0
  5  6  2  0
  5  7  1  0
  5 10  1  0
  6  9  1  0
  8 11  2  0
  8 12  1  0
 10 13  1  0
 11 14  1  0
 12 15  2  0
 14 16  2  0
 15 16  1  0
M  END
>  <PUBCHEM_COMPOUND_CID>  (1) 
42960

>  <PUBCHEM_CONFORMER_RMSD>  (1) 
0.6

>  <PUBCHEM_CONFORMER_DIVERSEORDER>  (1) 
6
5
3
1
7
4
2

>  <PUBCHEM_MMFF94_PARTIAL_CHARGES>  (1) 
24
1 -0.57
10 0.6
11 -0.15
12 -0.15
13 0.06
14 -0.15
15 -0.15
16 -0.15
17 0.27
2 0.03
21 0.15
22 0.15
23 0.4
24 0.4
28 0.15
29 0.15
3 -0.88
30 0.15
4 -0.2
5 -0.09
6 -0.33
7 0.08
8 0.05
9 0.18

>  <PUBCHEM_EFFECTIVE_ROTOR_COUNT>  (1) 
2

>  <PUBCHEM_PHARMACOPHORE_FEATURES>  (1) 
7
1 1 acceptor
1 2 cation
1 2 donor
1 3 cation
1 3 donor
5 2 4 5 6 7 rings
6 8 11 12 14 15 16 rings

>  <PUBCHEM_HEAVY_ATOM_COUNT>  (1) 
16

>  <PUBCHEM_ATOM_DEF_STEREO_COUNT>  (1) 
0

>  <PUBCHEM_ATOM_UDEF_STEREO_COUNT>  (1) 
0

>  <PUBCHEM_BOND_DEF_STEREO_COUNT>  (1) 
0

>  <PUBCHEM_BOND_UDEF_STEREO_COUNT>  (1) 
0

>  <PUBCHEM_ISOTOPIC_ATOM_COUNT>  (1) 
0

>  <PUBCHEM_COMPONENT_COUNT>  (1) 
1

>  <PUBCHEM_CACTVS_TAUTO_COUNT>  (1) 
20

>  <PUBCHEM_CONFORMER_ID>  (1) 
0000A7D000000006

>  <PUBCHEM_MMFF94_ENERGY>  (1) 
36.7886

>  <PUBCHEM_FEATURE_SELFOVERLAP>  (1) 
35.52

>  <PUBCHEM_SHAPE_FINGERPRINT>  (1) 
10219947 1 18411702084113217312
10980938 120 18343019982309325182
11132069 177 18339632434518782042
11471102 20 18410855469050509796
11543360 7 15410615955718520864
12236239 1 17632857516867883647
12346645 6 18272653420249568638
124424 183 17821721745556567657
13140716 1 18267580398363707760
13296908 3 18187367584484926555
13581323 91 15068618301205774651
13760787 5 18411699902549613812
14144814 61 17918275333633107723
14251717 144 18341890783851911430
14576447 43 17987782133793669911
14993402 34 17775282781067390717
15219456 202 18113337492382835583
15309172 13 18412266150995752807
15375358 24 18040712567545839475
15375462 189 17989488515404162433
15653759 3 17022902371669775769
16945 1 18412266151085215700
1813 80 17628089892764133750
18186145 218 18342182145843344142
19026448 4 16950278524843262184
19049666 15 17750508473585743287
19422 9 17775287123432554599
19784866 34 18269555112473161848
200 152 18272926142383317975
20279233 1 17894352163915250107
204376 136 18338237184280458478
20645476 183 17703784856155384583
20645477 70 18338791209176353199
23402539 116 16056876927162274560
23402655 69 18271519819635091477
23557571 272 17022900116801279613
23559900 14 16950563225572826146
25 1 18410011078321906084
2748010 2 18051686643142839438
42 15 15719386222493912192
474 4 17844796186856193824
581208 293 18342173362819716430
633830 44 18059027179990565300
77492 1 17632577128475772319
81539 233 18260551147397080742
8272917 22 18270686368161758471
9981440 41 16335508807495959176

>  <PUBCHEM_SHAPE_MULTIPOLES>  (1) 
313.44
8.3
1.63
1.02
1.73
0.24
0.05
-0.56
0.46
-2.05
-0.15
1.04
0.01
0.06

>  <PUBCHEM_SHAPE_SELFOVERLAP>  (1) 
678.621

>  <PUBCHEM_SHAPE_VOLUME>  (1) 
174.3

>  <PUBCHEM_COORDINATE_TYPE>  (1) 
2
5
10

$$$$
