42966
     RDKit          3D

 14 16  0  0  1  0  0  0  0  0999 V2000
   -0.7754    2.5999    0.0021 Cl  0  0  0  0  0  0  0  0  0  0  0  0
   -2.8322   -0.3735   -0.4330 N   0  0  0  0  0  0  0  0  0  0  0  0
   -0.5331   -0.1677    0.3552 C   0  0  0  0  0  0  0  0  0  0  0  0
    1.2717    1.0453   -0.9585 C   0  0  0  0  0  0  0  0  0  0  0  0
    1.8328   -0.0048    1.2670 C   0  0  0  0  0  0  0  0  0  0  0  0
    1.3692   -1.4655   -0.7295 C   0  0  0  0  0  0  0  0  0  0  0  0
   -0.2370    1.0066   -0.6246 C   0  0  0  0  0  0  0  0  0  0  0  0
    0.3374   -0.0290    1.6304 C   0  0  0  0  0  0  0  0  0  0  0  0
   -0.1238   -1.4849   -0.3608 C   0  0  0  0  0  0  0  0  0  0  0  0
    2.1161    1.1761    0.3246 C   0  0  0  0  0  0  0  0  0  0  0  0
    1.6496   -0.2738   -1.6595 C   0  0  0  0  0  0  0  0  0  0  0  0
    2.2015   -1.3157    0.5537 C   0  0  0  0  0  0  0  0  0  0  0  0
   -2.0185   -0.2491    0.7344 C   0  0  0  0  0  0  0  0  0  0  0  0
   -4.2582   -0.4640   -0.1013 C   0  0  0  0  0  0  0  0  0  0  0  0
  1  7  1  0
  2 13  1  0
  2 14  1  0
  3  7  1  0
  3  8  1  0
  3  9  1  0
  3 13  1  0
  4  7  1  0
  4 10  1  0
  4 11  1  0
  5  8  1  0
  5 10  1  0
  5 12  1  0
  6  9  1  0
  6 11  1  0
  6 12  1  0
M  END
>  <PUBCHEM_COMPOUND_CID>  (1) 
42966

>  <PUBCHEM_CONFORMER_RMSD>  (1) 
0.6

>  <PUBCHEM_CONFORMER_DIVERSEORDER>  (1) 
2
1

>  <PUBCHEM_MMFF94_PARTIAL_CHARGES>  (1) 
6
1 -0.29
13 0.27
14 0.27
2 -0.9
31 0.36
7 0.29

>  <PUBCHEM_EFFECTIVE_ROTOR_COUNT>  (1) 
3.2

>  <PUBCHEM_PHARMACOPHORE_FEATURES>  (1) 
6
1 2 cation
1 2 donor
6 3 4 5 7 8 10 rings
6 3 4 6 7 9 11 rings
6 3 5 6 8 9 12 rings
6 4 5 6 10 11 12 rings

>  <PUBCHEM_HEAVY_ATOM_COUNT>  (1) 
14

>  <PUBCHEM_ATOM_DEF_STEREO_COUNT>  (1) 
0

>  <PUBCHEM_ATOM_UDEF_STEREO_COUNT>  (1) 
3

>  <PUBCHEM_BOND_DEF_STEREO_COUNT>  (1) 
0

>  <PUBCHEM_BOND_UDEF_STEREO_COUNT>  (1) 
0

>  <PUBCHEM_ISOTOPIC_ATOM_COUNT>  (1) 
0

>  <PUBCHEM_COMPONENT_COUNT>  (1) 
1

>  <PUBCHEM_CACTVS_TAUTO_COUNT>  (1) 
1

>  <PUBCHEM_CONFORMER_ID>  (1) 
0000A7D600000002

>  <PUBCHEM_MMFF94_ENERGY>  (1) 
34.6016

>  <PUBCHEM_FEATURE_SELFOVERLAP>  (1) 
42.901

>  <PUBCHEM_SHAPE_FINGERPRINT>  (1) 
10219947 1 18411411843435374739
10948715 1 18051691350021164544
11680611 10 17752192890707754033
12423570 1 17032209480053647958
12725867 57 18413387631149015901
13024252 1 14934290755572073202
14142880 1 15902576082389351665
14344429 50 16877939460007435883
14817 1 15582909616938080722
15557651 10 17416668323578774904
16945 1 18188511128180490792
21501502 16 18265621974501581176
22112679 90 17607254155748599972
23419403 2 17753570695084339628
23559900 14 17333648277023006478
2748010 2 18339354150265318772
5084963 1 18059581239160957230
528886 8 18340496680316881198
5337951 7 17458068187359300859
68250623 7 18044095657650744976

>  <PUBCHEM_SHAPE_MULTIPOLES>  (1) 
285
4.1
1.87
1.35
5.28
0.97
-0.06
-1.09
0.1
-0.18
0.2
-0.66
-0.07
0

>  <PUBCHEM_SHAPE_SELFOVERLAP>  (1) 
596.551

>  <PUBCHEM_SHAPE_VOLUME>  (1) 
162.3

>  <PUBCHEM_COORDINATE_TYPE>  (1) 
2
5
10

$$$$
