42964
     RDKit          3D

 10 10  0  0  0  0  0  0  0  0999 V2000
    1.7220    2.3313   -0.0006 Br  0  0  0  0  0  0  0  0  0  0  0  0
   -1.3820    1.9863    0.0003 O   0  0  0  0  0  0  0  0  0  0  0  0
   -2.4185    0.0511    0.0001 O   0  0  0  0  0  0  0  0  0  0  0  0
    0.0043   -1.3002    0.0009 N   0  0  0  0  0  0  0  0  0  0  0  0
    2.0804   -0.5116   -0.0003 N   0  0  0  0  0  0  0  0  0  0  0  0
   -1.3472    0.7225    0.0003 N   0  0  0  0  0  0  0  0  0  0  0  0
   -0.1125    0.0612    0.0000 C   0  0  0  0  0  0  0  0  0  0  0  0
    1.3389   -1.5970    0.0009 C   0  0  0  0  0  0  0  0  0  0  0  0
   -1.0671   -2.2692   -0.0014 C   0  0  0  0  0  0  0  0  0  0  0  0
    1.1818    0.5256   -0.0003 C   0  0  0  0  0  0  0  0  0  0  0  0
  1 10  1  0
  2  6  1  0
  3  6  2  0
  4  7  1  0
  4  8  1  0
  4  9  1  0
  5  8  2  0
  5 10  1  0
  6  7  1  0
  7 10  2  0
M  CHG  2   2  -1   6   1
M  END
>  <PUBCHEM_COMPOUND_CID>  (1) 
42964

>  <PUBCHEM_CONFORMER_RMSD>  (1) 
0.4

>  <PUBCHEM_CONFORMER_DIVERSEORDER>  (1) 
1

>  <PUBCHEM_MMFF94_PARTIAL_CHARGES>  (1) 
11
1 -0.06
10 0.28
11 0.15
2 -0.52
3 -0.52
4 0.05
5 -0.57
6 0.96
7 -0.07
8 0.04
9 0.26

>  <PUBCHEM_EFFECTIVE_ROTOR_COUNT>  (1) 
1

>  <PUBCHEM_PHARMACOPHORE_FEATURES>  (1) 
6
1 1 hydrophobe
1 2 acceptor
1 2 anion
1 3 acceptor
3 4 5 8 cation
5 4 5 7 8 10 rings

>  <PUBCHEM_HEAVY_ATOM_COUNT>  (1) 
10

>  <PUBCHEM_ATOM_DEF_STEREO_COUNT>  (1) 
0

>  <PUBCHEM_ATOM_UDEF_STEREO_COUNT>  (1) 
0

>  <PUBCHEM_BOND_DEF_STEREO_COUNT>  (1) 
0

>  <PUBCHEM_BOND_UDEF_STEREO_COUNT>  (1) 
0

>  <PUBCHEM_ISOTOPIC_ATOM_COUNT>  (1) 
0

>  <PUBCHEM_COMPONENT_COUNT>  (1) 
1

>  <PUBCHEM_CACTVS_TAUTO_COUNT>  (1) 
1

>  <PUBCHEM_CONFORMER_ID>  (1) 
0000A7D400000001

>  <PUBCHEM_MMFF94_ENERGY>  (1) 
18.4615

>  <PUBCHEM_FEATURE_SELFOVERLAP>  (1) 
30.527

>  <PUBCHEM_SHAPE_FINGERPRINT>  (1) 
16945 1 18410573989583737382
18185500 45 17836081165504282417
193761 8 18338797935068303366
21040471 1 18338517422132709442
23552423 10 18118119401675205814
241688 4 17835241147226446722
2748010 2 18122628528677443110
29004967 10 17832432994428886410
5084963 1 18130784512621762425
66348 1 18410014338065063580

>  <PUBCHEM_SHAPE_MULTIPOLES>  (1) 
185.06
2.97
2.41
0.59
1.04
0.66
0
-0.03
0
-0.33
0
0.06
-0.03
0

>  <PUBCHEM_SHAPE_SELFOVERLAP>  (1) 
369.475

>  <PUBCHEM_SHAPE_VOLUME>  (1) 
113.7

>  <PUBCHEM_COORDINATE_TYPE>  (1) 
2
5
10

$$$$
