42979
     RDKit          3D

 24 26  0  0  0  0  0  0  0  0999 V2000
   -2.9645    0.3187    0.7947 S   0  0  0  0  0  0  0  0  0  0  0  0
   -2.1122   -0.4318   -0.3849 O   0  0  0  0  0  0  0  0  0  0  0  0
   -2.6006    1.7221    0.8290 O   0  0  0  0  0  0  0  0  0  0  0  0
   -2.9169   -0.5118    1.9836 O   0  0  0  0  0  0  0  0  0  0  0  0
    7.1361    1.1637    0.0958 O   0  0  0  0  0  0  0  0  0  0  0  0
    6.3404   -0.9746   -0.0241 O   0  0  0  0  0  0  0  0  0  0  0  0
    2.5354    1.0868   -0.1130 N   0  0  0  0  0  0  0  0  0  0  0  0
    3.3699   -0.9726   -0.1583 N   0  0  0  0  0  0  0  0  0  0  0  0
    4.9002    0.8832   -0.0152 N   0  0  0  0  0  0  0  0  0  0  0  0
    1.4495    0.2536   -0.1960 C   0  0  0  0  0  0  0  0  0  0  0  0
    1.9965   -1.0262   -0.2229 C   0  0  0  0  0  0  0  0  0  0  0  0
   -0.7615   -0.6142   -0.3317 C   0  0  0  0  0  0  0  0  0  0  0  0
    0.0774    0.5019   -0.2483 C   0  0  0  0  0  0  0  0  0  0  0  0
    1.1388   -2.1359   -0.3066 C   0  0  0  0  0  0  0  0  0  0  0  0
    3.6587    0.3078   -0.0935 C   0  0  0  0  0  0  0  0  0  0  0  0
   -0.2424   -1.9106   -0.3603 C   0  0  0  0  0  0  0  0  0  0  0  0
   -4.6341    0.2763    0.2174 C   0  0  0  0  0  0  0  0  0  0  0  0
   -5.4383   -0.8001    0.5515 C   0  0  0  0  0  0  0  0  0  0  0  0
   -5.1081    1.3201   -0.5591 C   0  0  0  0  0  0  0  0  0  0  0  0
   -6.7560   -0.8338    0.0953 C   0  0  0  0  0  0  0  0  0  0  0  0
   -6.4259    1.2863   -1.0151 C   0  0  0  0  0  0  0  0  0  0  0  0
   -7.2497    0.2093   -0.6878 C   0  0  0  0  0  0  0  0  0  0  0  0
    6.1346    0.2321    0.0143 C   0  0  0  0  0  0  0  0  0  0  0  0
    8.4727    0.6497    0.1352 C   0  0  0  0  0  0  0  0  0  0  0  0
  1  2  1  0
  1  3  2  0
  1  4  2  0
  1 17  1  0
  2 12  1  0
  5 23  1  0
  5 24  1  0
  6 23  2  0
  7 10  1  0
  7 15  1  0
  8 11  1  0
  8 15  2  0
  9 15  1  0
  9 23  1  0
 10 11  2  0
 10 13  1  0
 11 14  1  0
 12 13  2  0
 12 16  1  0
 14 16  2  0
 17 18  2  0
 17 19  1  0
 18 20  1  0
 19 21  2  0
 20 22  2  0
 21 22  1  0
M  END
>  <PUBCHEM_COMPOUND_CID>  (1) 
42979

>  <PUBCHEM_CONFORMER_RMSD>  (1) 
0.8

>  <PUBCHEM_CONFORMER_DIVERSEORDER>  (1) 
1
30
5
33
17
36
11
9
25
7
13
16
18
23
35
22
3
32
31
6
12
10
15
19
28
24
34
4
2
14
29
8
20
27
26
21

>  <PUBCHEM_MMFF94_PARTIAL_CHARGES>  (1) 
34
1 1.49
10 -0.15
11 0.23
12 0.08
13 -0.15
14 -0.15
15 0.25
16 -0.15
17 -0.01
18 -0.15
19 -0.15
2 -0.27
20 -0.15
21 -0.15
22 -0.15
23 0.78
24 0.28
25 0.15
26 0.27
27 0.15
28 0.15
29 0.15
3 -0.65
30 0.15
31 0.37
32 0.15
33 0.15
34 0.15
4 -0.65
5 -0.43
6 -0.57
7 0.03
8 -0.57
9 -0.49

>  <PUBCHEM_EFFECTIVE_ROTOR_COUNT>  (1) 
6

>  <PUBCHEM_PHARMACOPHORE_FEATURES>  (1) 
8
1 3 acceptor
1 4 acceptor
1 6 acceptor
1 7 donor
1 9 donor
5 7 8 10 11 15 rings
6 10 11 12 13 14 16 rings
6 17 18 19 20 21 22 rings

>  <PUBCHEM_HEAVY_ATOM_COUNT>  (1) 
24

>  <PUBCHEM_ATOM_DEF_STEREO_COUNT>  (1) 
0

>  <PUBCHEM_ATOM_UDEF_STEREO_COUNT>  (1) 
0

>  <PUBCHEM_BOND_DEF_STEREO_COUNT>  (1) 
0

>  <PUBCHEM_BOND_UDEF_STEREO_COUNT>  (1) 
0

>  <PUBCHEM_ISOTOPIC_ATOM_COUNT>  (1) 
0

>  <PUBCHEM_COMPONENT_COUNT>  (1) 
1

>  <PUBCHEM_CACTVS_TAUTO_COUNT>  (1) 
5

>  <PUBCHEM_CONFORMER_ID>  (1) 
0000A7E300000001

>  <PUBCHEM_MMFF94_ENERGY>  (1) 
46.9909

>  <PUBCHEM_FEATURE_SELFOVERLAP>  (1) 
40.756

>  <PUBCHEM_SHAPE_FINGERPRINT>  (1) 
10 15 18260264183816247240
10050765 1 18050567348510634540
10087517 78 17167858626649902445
10299344 5 11743840274240716893
106641 1 18114183072390118986
10835480 77 18336260138405650781
11315181 36 18342740715753023785
11524674 6 14490193821051131441
11719270 70 18411976932277903738
12091667 2 18113057147494057835
12236239 1 17632580414257635583
12838862 33 18341033182326229072
13533116 47 16271652183580995726
13631057 29 18130783525734859199
13673619 4 11455885867466411651
13885169 127 17748824103097008684
13947920 75 16487248885540641351
14123256 10 17775566442477860369
14251757 52 17313395560632934164
14251764 18 17967809457534838522
14251764 46 18410573993741392252
14350574 20 11095881566411824571
15131766 46 17026296697984616100
15183329 4 16128374870108511070
15301273 46 17458626692744373934
15461852 350 18339928207025188919
1577012 14 17489316234753444955
15849732 13 18408323298172249980
18006028 8 13262394470775502702
18335252 98 18131073757822663455
18681886 176 18342169012086372201
19489759 90 17675926495867307857
200 152 18130786729711116873
20281389 69 18411135849169463960
20567600 254 18411415115936846554
21150785 3 14764629725006202920
21365058 27 16056882442211305823
21403212 168 18334570236061997778
22224240 67 18187362151578118074
23035841 295 10665228159496457936
23198884 109 15339124541317409023
23559900 14 18408881867623272849
246663 6 12103843479946475917
335352 9 18341897411914766852
34797466 226 15626508315660690776
3545911 37 18272370879941457999
4073 2 17822016440290115755
4325135 7 16702302352154077261
5104073 3 18189624848040241091
5283173 99 18115583743821870405
59682541 35 18341054116218311459
59755656 215 18412547582912112014
59755656 520 18040428923716925515

>  <PUBCHEM_SHAPE_MULTIPOLES>  (1) 
453.47
21.82
1.58
0.9
16.24
0.38
-0.24
-6.37
1.15
-0.11
0.14
-1.12
-0.02
0.73

>  <PUBCHEM_SHAPE_SELFOVERLAP>  (1) 
974.835

>  <PUBCHEM_SHAPE_VOLUME>  (1) 
250.2

>  <PUBCHEM_COORDINATE_TYPE>  (1) 
2
5
10

$$$$
