4298
     RDKit          3D

 19 20  0  0  0  0  0  0  0  0999 V2000
    1.0203   -1.5920    0.5912 S   0  0  0  0  0  0  0  0  0  0  0  0
    1.3181   -1.1259    1.9395 O   0  0  0  0  0  0  0  0  0  0  0  0
    1.1181   -3.0142    0.2906 O   0  0  0  0  0  0  0  0  0  0  0  0
    2.0014   -0.7323   -0.5130 N   0  0  0  0  0  0  0  0  0  0  0  0
    6.9235    0.8976    0.3442 N   0  0  0  0  0  0  0  0  0  0  0  0
    3.3306    1.2857   -0.9728 C   0  0  0  0  0  0  0  0  0  0  0  0
    1.9808    0.7375   -0.5202 C   0  0  0  0  0  0  0  0  0  0  0  0
    4.4818    0.8326   -0.0660 C   0  0  0  0  0  0  0  0  0  0  0  0
   -0.5865   -1.0649    0.1566 C   0  0  0  0  0  0  0  0  0  0  0  0
   -2.4333    0.4946    0.4323 C   0  0  0  0  0  0  0  0  0  0  0  0
   -1.1420    0.0582    0.7704 C   0  0  0  0  0  0  0  0  0  0  0  0
    5.8492    1.3260   -0.5433 C   0  0  0  0  0  0  0  0  0  0  0  0
   -3.1716   -0.2177   -0.5425 C   0  0  0  0  0  0  0  0  0  0  0  0
   -1.3126   -1.7654   -0.8020 C   0  0  0  0  0  0  0  0  0  0  0  0
   -2.5967   -1.3457   -1.1505 C   0  0  0  0  0  0  0  0  0  0  0  0
   -3.0078    1.6229    1.0401 C   0  0  0  0  0  0  0  0  0  0  0  0
   -4.4630    0.2189   -0.8805 C   0  0  0  0  0  0  0  0  0  0  0  0
   -4.2921    2.0424    0.6922 C   0  0  0  0  0  0  0  0  0  0  0  0
   -5.0183    1.3417   -0.2661 C   0  0  0  0  0  0  0  0  0  0  0  0
  1  2  2  0
  1  3  2  0
  1  4  1  0
  1  9  1  0
  4  7  1  0
  5 12  1  0
  6  7  1  0
  6  8  1  0
  8 12  1  0
  9 11  2  0
  9 14  1  0
 10 11  1  0
 10 13  2  0
 10 16  1  0
 13 15  1  0
 13 17  1  0
 14 15  2  0
 16 18  2  0
 17 19  2  0
 18 19  1  0
M  END
>  <PUBCHEM_COMPOUND_CID>  (1) 
4298

>  <PUBCHEM_CONFORMER_RMSD>  (1) 
0.8

>  <PUBCHEM_CONFORMER_DIVERSEORDER>  (1) 
1
20
35
21
44
23
34
5
40
17
27
42
31
25
4
33
8
45
19
11
14
30
15
16
36
32
12
28
22
2
13
7
9
29
26
38
3
46
24
41
37
39
6
10
18
43

>  <PUBCHEM_MMFF94_PARTIAL_CHARGES>  (1) 
25
1 1.45
11 -0.15
12 0.27
14 -0.15
15 -0.15
16 -0.15
17 -0.15
18 -0.15
19 -0.15
2 -0.65
26 0.42
27 0.15
3 -0.65
30 0.15
31 0.15
32 0.15
33 0.15
34 0.15
35 0.15
36 0.36
37 0.36
4 -0.91
5 -0.99
7 0.36
9 -0.01

>  <PUBCHEM_EFFECTIVE_ROTOR_COUNT>  (1) 
6

>  <PUBCHEM_PHARMACOPHORE_FEATURES>  (1) 
7
1 2 acceptor
1 3 acceptor
1 4 donor
1 5 cation
1 5 donor
6 10 13 16 17 18 19 rings
6 9 10 11 13 14 15 rings

>  <PUBCHEM_HEAVY_ATOM_COUNT>  (1) 
19

>  <PUBCHEM_ATOM_DEF_STEREO_COUNT>  (1) 
0

>  <PUBCHEM_ATOM_UDEF_STEREO_COUNT>  (1) 
0

>  <PUBCHEM_BOND_DEF_STEREO_COUNT>  (1) 
0

>  <PUBCHEM_BOND_UDEF_STEREO_COUNT>  (1) 
0

>  <PUBCHEM_ISOTOPIC_ATOM_COUNT>  (1) 
0

>  <PUBCHEM_COMPONENT_COUNT>  (1) 
1

>  <PUBCHEM_CACTVS_TAUTO_COUNT>  (1) 
1

>  <PUBCHEM_CONFORMER_ID>  (1) 
000010CA00000001

>  <PUBCHEM_MMFF94_ENERGY>  (1) 
22.6086

>  <PUBCHEM_FEATURE_SELFOVERLAP>  (1) 
35.565

>  <PUBCHEM_SHAPE_FINGERPRINT>  (1) 
10382601 240 17895475821780436490
11046707 91 9223238420627945148
12236239 1 18409443674376641994
12633257 1 15575008294057366941
13177829 73 18411419514526806540
13288520 33 8718830885637904621
14251764 30 11170178849326400112
14251764 38 18055911245858643968
14341114 176 12685095895365279558
15183329 4 18342745092371956814
17780758 139 11386356071755515940
1813 80 17758107108294182450
19489759 90 17918276480542493084
200 152 12967139310881581068
20645476 183 18343015597649136095
20871999 31 16630532808313211665
21403212 168 17749660831909820568
21524375 3 18187086203997515874
2255824 54 18121497956126556339
22950370 63 9151180852808441228
23402539 116 18341891935362115356
23559900 14 17489862774016863744
2838139 119 18342174475317005716
314194 84 10879991372019713948
441001 317 18131070454370073316
474 4 18187086165157992572
59755656 520 17967531311110712466
6328613 192 18189906490853797484
9981440 41 18408890654361684083

>  <PUBCHEM_SHAPE_MULTIPOLES>  (1) 
373.16
12.2
2.32
1.18
16.42
0.93
-0.21
-9.5
1.61
-0.36
-0.24
-0.18
0.15
-1.39

>  <PUBCHEM_SHAPE_SELFOVERLAP>  (1) 
766.817

>  <PUBCHEM_SHAPE_VOLUME>  (1) 
214.8

>  <PUBCHEM_COORDINATE_TYPE>  (1) 
2
5
10

$$$$
