42982
     RDKit          3D

 23 24  0  0  1  0  0  0  0  0999 V2000
    2.9081    4.7384    1.1494 Cl  0  0  0  0  0  0  0  0  0  0  0  0
    0.5423   -0.6578   -1.2833 Si  0  0  0  0  0  4  0  0  0  0  0  0
   -1.1008   -0.6688   -0.9924 O   0  0  0  0  0  0  0  0  0  0  0  0
   -3.5009    0.2275    0.1956 N   0  0  0  0  0  0  0  0  0  0  0  0
    1.2427    0.9364   -0.5639 C   0  0  0  0  0  0  0  0  0  0  0  0
    1.3255   -1.9730   -0.1919 C   0  0  0  0  0  0  0  0  0  0  0  0
   -3.3862    0.0248   -1.2482 C   0  0  0  0  0  0  0  0  0  0  0  0
   -1.9480    0.2356   -1.6900 C   0  0  0  0  0  0  0  0  0  0  0  0
    0.9688   -0.8335   -3.0829 C   0  0  0  0  0  0  0  0  0  0  0  0
   -4.8754   -0.0056    0.6369 C   0  0  0  0  0  0  0  0  0  0  0  0
   -3.0696    1.5771    0.5581 C   0  0  0  0  0  0  0  0  0  0  0  0
    1.9987    1.7693   -1.3718 C   0  0  0  0  0  0  0  0  0  0  0  0
    0.9891    1.2501    0.7609 C   0  0  0  0  0  0  0  0  0  0  0  0
    2.7069   -2.0798   -0.1396 C   0  0  0  0  0  0  0  0  0  0  0  0
    0.5110   -2.8191    0.5451 C   0  0  0  0  0  0  0  0  0  0  0  0
   -5.3406   -1.4043    0.2683 C   0  0  0  0  0  0  0  0  0  0  0  0
   -3.1240    1.7854    2.0621 C   0  0  0  0  0  0  0  0  0  0  0  0
    2.5158    2.9504   -0.8396 C   0  0  0  0  0  0  0  0  0  0  0  0
    1.5064    2.4313    1.2932 C   0  0  0  0  0  0  0  0  0  0  0  0
    3.2880   -3.0563    0.6698 C   0  0  0  0  0  0  0  0  0  0  0  0
    1.0921   -3.7955    1.3543 C   0  0  0  0  0  0  0  0  0  0  0  0
    2.2695    3.2815    0.4929 C   0  0  0  0  0  0  0  0  0  0  0  0
    2.4807   -3.9141    1.4170 C   0  0  0  0  0  0  0  0  0  0  0  0
  1 22  1  0
  2  3  1  0
  2  5  1  0
  2  6  1  0
  2  9  1  0
  3  8  1  0
  4  7  1  0
  4 10  1  0
  4 11  1  0
  5 12  2  0
  5 13  1  0
  6 14  2  0
  6 15  1  0
  7  8  1  0
 10 16  1  0
 11 17  1  0
 12 18  1  0
 13 19  2  0
 14 20  1  0
 15 21  2  0
 18 22  2  0
 19 22  1  0
 20 23  2  0
 21 23  1  0
M  END
>  <PUBCHEM_COMPOUND_CID>  (1) 
42982

>  <PUBCHEM_CONFORMER_RMSD>  (1) 
0.8

>  <PUBCHEM_CONFORMER_DIVERSEORDER>  (1) 
36
82
78
106
120
42
100
37
28
127
89
107
109
97
108
174
79
83
117
64
157
73
112
62
165
172
171
67
84
29
163
91
150
123
92
130
95
98
131
46
72
74
41
170
77
138
93
75
154
142
70
63
155
141
90
32
45
76
111
5
65
99
159
110
23
60
86
118
14
43
6
156
116
2
85
69
58
168
140
88
94
53
132
35
68
101
169
102
137
105
56
96
115
55
161
143
87
52
9
31
66
81
49
54
51
145
125
167
128
16
152
133
40
33
147
30
24
104
50
25
114
164
122
18
26
124
21
11
148
113
39
162
134
173
103
12
27
119
61
48
146
126
158
34
8
129
151
3
153
20
59
121
17
1
166
71
44
19
149
15
160
80
7
57
13
22
139
47
135
10
144
38
4
136

>  <PUBCHEM_MMFF94_PARTIAL_CHARGES>  (1) 
30
1 -0.18
10 0.27
11 0.27
12 -0.15
13 -0.15
14 -0.15
15 -0.15
18 -0.15
19 -0.15
2 0.82
20 -0.15
21 -0.15
22 0.18
23 -0.15
3 -0.58
35 0.15
36 0.15
37 0.15
38 0.15
4 -0.81
45 0.15
46 0.15
47 0.15
48 0.15
49 0.15
5 -0.22
6 -0.22
7 0.27
8 0.28
9 -0.08

>  <PUBCHEM_EFFECTIVE_ROTOR_COUNT>  (1) 
8

>  <PUBCHEM_PHARMACOPHORE_FEATURES>  (1) 
3
1 4 cation
6 5 12 13 18 19 22 rings
6 6 14 15 20 21 23 rings

>  <PUBCHEM_HEAVY_ATOM_COUNT>  (1) 
23

>  <PUBCHEM_ATOM_DEF_STEREO_COUNT>  (1) 
0

>  <PUBCHEM_ATOM_UDEF_STEREO_COUNT>  (1) 
1

>  <PUBCHEM_BOND_DEF_STEREO_COUNT>  (1) 
0

>  <PUBCHEM_BOND_UDEF_STEREO_COUNT>  (1) 
0

>  <PUBCHEM_ISOTOPIC_ATOM_COUNT>  (1) 
0

>  <PUBCHEM_COMPONENT_COUNT>  (1) 
1

>  <PUBCHEM_CACTVS_TAUTO_COUNT>  (1) 
1

>  <PUBCHEM_CONFORMER_ID>  (1) 
0000A7E600000024

>  <PUBCHEM_MMFF94_ENERGY>  (1) 
43.8555

>  <PUBCHEM_FEATURE_SELFOVERLAP>  (1) 
15.223

>  <PUBCHEM_SHAPE_FINGERPRINT>  (1) 
10165383 225 18115322205355146692
10382601 240 18271533086451809349
107951 10 18051420866097808492
11036077 51 17690256619600841736
11578080 2 18114176390038653453
12104220 1 17976816485556371626
12160290 23 17401196167756548340
12549972 3 17896026651774388517
12788726 201 17472720034693015258
13004483 165 17324928053763619553
13134695 92 18122885573790542828
13140716 1 18193548085436632626
13275264 69 17617080418109508950
133893 2 18053065588967909015
13533116 47 18334862706408167755
13583140 156 18337101285958763773
14787075 74 18262531286234651726
14955137 171 18272094838093570198
15238133 3 17688608069381909885
17868525 174 18192148184092177617
17980427 23 17558807521782289957
18785283 64 18260822752417430976
19078846 21 18125171428769143773
19315092 285 18412541029520148347
20600515 1 17770223747499927639
20681677 274 18409730651934595571
20739085 24 18199181794149845002
21033648 29 16341440290776433211
21120745 212 17763192341293311470
2132832 1 17843374359913981077
21524375 3 18200037394168325612
23558518 356 17835518602224720398
23559900 14 17894628124559901271
23845131 108 18048026664996890923
35225 105 17539963296609227641
394222 165 18130226068031038441
4058900 60 18266751362165202065
427121 178 18193848260637685935
550186 83 16033594566576102113
5895379 119 17201097897738026681
59755656 520 17904473348838009204
6442390 28 17975703001808208503
7097593 13 18194689168311550355
7288768 16 17910392024035390637
81228 2 8926749659742295438
8509985 295 17761227513961974857
90316 7 17694491555526684258

>  <PUBCHEM_SHAPE_MULTIPOLES>  (1) 
482.56
7.26
5.76
2.1
12.69
0.43
0.98
1.11
-2.08
-8.65
-3.86
-0.16
-0.15
-0.88

>  <PUBCHEM_SHAPE_SELFOVERLAP>  (1) 
970.513

>  <PUBCHEM_SHAPE_VOLUME>  (1) 
285.6

>  <PUBCHEM_COORDINATE_TYPE>  (1) 
2
5
10

$$$$
