42990
     RDKit          3D

 28 30  0  0  1  0  0  0  0  0999 V2000
   -6.5908    1.9705   -0.5615 F   0  0  0  0  0  0  0  0  0  0  0  0
   -6.2862    1.7996    1.5791 F   0  0  0  0  0  0  0  0  0  0  0  0
   -5.2406    3.3392    0.4544 F   0  0  0  0  0  0  0  0  0  0  0  0
    1.3420   -2.5812    0.6411 O   0  0  0  0  0  0  0  0  0  0  0  0
    3.8655    0.9572   -1.2113 O   0  0  0  0  0  0  0  0  0  0  0  0
    6.6437    2.0251    0.9600 N   0  0  0  0  0  0  0  0  0  0  0  0
    0.1849   -3.4317    0.5639 C   0  0  0  0  0  0  0  0  0  0  0  0
   -1.1826   -1.5752   -0.5126 C   0  0  0  0  0  0  0  0  0  0  0  0
   -1.1092   -2.6074    0.6242 C   0  0  0  0  0  0  0  0  0  0  0  0
    0.1628   -0.8995   -0.6958 C   0  0  0  0  0  0  0  0  0  0  0  0
    1.3193   -1.4365   -0.1119 C   0  0  0  0  0  0  0  0  0  0  0  0
   -2.3506   -0.6283   -0.2712 C   0  0  0  0  0  0  0  0  0  0  0  0
    0.2803   -4.3145   -0.6898 C   0  0  0  0  0  0  0  0  0  0  0  0
    0.2512   -4.3406    1.8009 C   0  0  0  0  0  0  0  0  0  0  0  0
    0.2910    0.2430   -1.5046 C   0  0  0  0  0  0  0  0  0  0  0  0
    2.5561   -0.8027   -0.2733 C   0  0  0  0  0  0  0  0  0  0  0  0
   -3.4042   -0.5866   -1.1787 C   0  0  0  0  0  0  0  0  0  0  0  0
   -2.3555    0.1892    0.8548 C   0  0  0  0  0  0  0  0  0  0  0  0
    2.6595    0.3480   -1.0512 C   0  0  0  0  0  0  0  0  0  0  0  0
    1.5285    0.8658   -1.6744 C   0  0  0  0  0  0  0  0  0  0  0  0
   -4.4738    0.2814   -0.9583 C   0  0  0  0  0  0  0  0  0  0  0  0
   -3.4250    1.0571    1.0754 C   0  0  0  0  0  0  0  0  0  0  0  0
   -4.4842    1.1032    0.1689 C   0  0  0  0  0  0  0  0  0  0  0  0
    4.7951    0.8513   -0.1338 C   0  0  0  0  0  0  0  0  0  0  0  0
   -5.6275    2.0312    0.4051 C   0  0  0  0  0  0  0  0  0  0  0  0
    5.6881    2.0817   -0.1361 C   0  0  0  0  0  0  0  0  0  0  0  0
    7.4768    3.2298    0.9839 C   0  0  0  0  0  0  0  0  0  0  0  0
    7.4854    0.8308    0.8528 C   0  0  0  0  0  0  0  0  0  0  0  0
  1 25  1  0
  2 25  1  0
  3 25  1  0
  4  7  1  0
  4 11  1  0
  5 19  1  0
  5 24  1  0
  6 26  1  0
  6 27  1  0
  6 28  1  0
  7  9  1  0
  7 13  1  0
  7 14  1  0
  8  9  1  0
  8 10  1  0
  8 12  1  0
 10 11  2  0
 10 15  1  0
 11 16  1  0
 12 17  2  0
 12 18  1  0
 15 20  2  0
 16 19  2  0
 17 21  1  0
 18 22  2  0
 19 20  1  0
 21 23  2  0
 22 23  1  0
 23 25  1  0
 24 26  1  0
M  END
>  <PUBCHEM_COMPOUND_CID>  (1) 
42990

>  <PUBCHEM_CONFORMER_RMSD>  (1) 
0.8

>  <PUBCHEM_CONFORMER_DIVERSEORDER>  (1) 
11
10
73
20
55
44
75
67
34
60
21
2
64
51
41
58
36
17
53
27
52
14
39
5
47
31
72
26
29
50
71
1
69
30
46
16
12
76
65
19
59
43
66
6
62
18
23
74
49
35
9
37
25
32
63
3
28
56
33
57
8
70
48
68
38
45
24
61
22
42
40
15
7
13
54
4

>  <PUBCHEM_MMFF94_PARTIAL_CHARGES>  (1) 
32
1 -0.34
10 -0.14
11 0.08
12 -0.14
15 -0.15
16 -0.15
17 -0.15
18 -0.15
19 0.08
2 -0.34
20 -0.15
21 -0.15
22 -0.15
23 -0.14
24 0.28
25 1.16
26 0.27
27 0.27
28 0.27
3 -0.34
38 0.15
39 0.15
4 -0.36
40 0.15
41 0.15
42 0.15
43 0.15
44 0.15
5 -0.36
6 -0.81
7 0.28
8 0.29

>  <PUBCHEM_EFFECTIVE_ROTOR_COUNT>  (1) 
6.8

>  <PUBCHEM_PHARMACOPHORE_FEATURES>  (1) 
7
1 4 acceptor
1 5 acceptor
1 6 cation
3 7 13 14 hydrophobe
6 10 11 15 16 19 20 rings
6 12 17 18 21 22 23 rings
6 4 7 8 9 10 11 rings

>  <PUBCHEM_HEAVY_ATOM_COUNT>  (1) 
28

>  <PUBCHEM_ATOM_DEF_STEREO_COUNT>  (1) 
0

>  <PUBCHEM_ATOM_UDEF_STEREO_COUNT>  (1) 
1

>  <PUBCHEM_BOND_DEF_STEREO_COUNT>  (1) 
0

>  <PUBCHEM_BOND_UDEF_STEREO_COUNT>  (1) 
0

>  <PUBCHEM_ISOTOPIC_ATOM_COUNT>  (1) 
0

>  <PUBCHEM_COMPONENT_COUNT>  (1) 
1

>  <PUBCHEM_CACTVS_TAUTO_COUNT>  (1) 
1

>  <PUBCHEM_CONFORMER_ID>  (1) 
0000A7EE0000000B

>  <PUBCHEM_MMFF94_ENERGY>  (1) 
86.1933

>  <PUBCHEM_FEATURE_SELFOVERLAP>  (1) 
35.548

>  <PUBCHEM_SHAPE_FINGERPRINT>  (1) 
10622 236 11821287735188943345
10693767 8 9439105568785053152
11135609 127 18049152273563843517
11135609 201 18413111680101576739
12107183 9 18187639259058586576
12293681 160 17917716790057605176
12633257 1 16081668745763469325
12895837 130 17988643063813979044
12977781 61 17773902924462148238
12988421 55 18260818315447241332
13140716 1 18187931642334877130
13540713 4 18197240190139630438
13673619 4 11963385263413205076
13726171 33 17703801288995671057
13782708 43 11530751635834985884
13955234 65 18045228141679928795
14251764 30 8142089758212607848
14739800 52 18200866279901401993
15420108 30 18408595959554913078
16994733 274 16916800556372770251
1813 80 17474396768804939631
19438510 23 18202290194782899537
19784866 240 8646763387959273581
19784866 34 18410858741820929063
20505436 4 18201718423600064471
20511986 3 18200587000222906061
20554085 129 18200863024542759194
20739085 24 17823429201167711582
20775438 99 9580935898521188973
21033648 29 18336277811494258512
21304303 282 18270112547372512927
21424621 283 18412825798293409776
21756936 100 18341891943371846598
23379529 103 9078530617102176061
23559900 14 16771541751998628895
23569917 315 18261111911002275682
23929065 36 17981875651607800642
2838139 119 17846210116113151628
3117164 225 18117555344163956868
4144715 1 17976262654223863352
44802255 64 16915946360877726460
474 4 18262244309525959055
5104073 3 18186801383183526298
531348 171 9869823864879165620
5385378 56 18261112920418829594
563151 74 18261122816133925099
57527293 21 15647633257934015575
6058803 2 17245559137720461958
636775 72 18055344989192010848
6371380 46 18338811022620028118
6679774 75 17022915536446867010
7226269 152 18271807964727953624
7970288 3 9007056855153891696
9896288 288 18043817691742489618
9981440 41 18336272309588658779

>  <PUBCHEM_SHAPE_MULTIPOLES>  (1) 
537.69
16.32
4.66
1.42
17.59
4.59
0
-25.04
-5.63
-0.76
-1.99
-0.05
0.12
-0.07

>  <PUBCHEM_SHAPE_SELFOVERLAP>  (1) 
1146.501

>  <PUBCHEM_SHAPE_VOLUME>  (1) 
303.5

>  <PUBCHEM_COORDINATE_TYPE>  (1) 
2
5
10

$$$$
