42998
     RDKit          3D

 17 18  0  0  0  0  0  0  0  0999 V2000
   -2.5818    0.9281    0.3361 O   0  0  0  0  0  0  0  0  0  0  0  0
   -2.1174    3.1505    0.4073 O   0  0  0  0  0  0  0  0  0  0  0  0
    1.4375    0.1535   -0.6217 N   0  0  0  0  0  0  0  0  0  0  0  0
    0.4940    2.8241   -0.1971 N   0  0  0  0  0  0  0  0  0  0  0  0
    2.5256    1.0545   -0.3668 C   0  0  0  0  0  0  0  0  0  0  0  0
    3.8542    0.3005   -0.3843 C   0  0  0  0  0  0  0  0  0  0  0  0
    0.1334    0.4456   -0.3105 C   0  0  0  0  0  0  0  0  0  0  0  0
    3.8904   -0.7804    0.6968 C   0  0  0  0  0  0  0  0  0  0  0  0
   -0.8237   -0.6750   -0.1896 C   0  0  0  0  0  0  0  0  0  0  0  0
   -0.2996    1.7100   -0.1119 C   0  0  0  0  0  0  0  0  0  0  0  0
   -2.1498   -0.3917    0.1311 C   0  0  0  0  0  0  0  0  0  0  0  0
   -0.4919   -2.0270   -0.3776 C   0  0  0  0  0  0  0  0  0  0  0  0
    5.1959   -1.5591    0.6629 C   0  0  0  0  0  0  0  0  0  0  0  0
   -1.7184    2.0034    0.2275 C   0  0  0  0  0  0  0  0  0  0  0  0
   -3.1234   -1.3856    0.2668 C   0  0  0  0  0  0  0  0  0  0  0  0
   -1.4549   -3.0360   -0.2457 C   0  0  0  0  0  0  0  0  0  0  0  0
   -2.7702   -2.7154    0.0766 C   0  0  0  0  0  0  0  0  0  0  0  0
  1 11  1  0
  1 14  1  0
  2 14  2  0
  3  5  1  0
  3  7  1  0
  4 10  1  0
  5  6  1  0
  6  8  1  0
  7  9  1  0
  7 10  2  0
  8 13  1  0
  9 11  2  0
  9 12  1  0
 10 14  1  0
 11 15  1  0
 12 16  2  0
 15 17  2  0
 16 17  1  0
M  END
>  <PUBCHEM_COMPOUND_CID>  (1) 
42998

>  <PUBCHEM_CONFORMER_RMSD>  (1) 
0.6

>  <PUBCHEM_CONFORMER_DIVERSEORDER>  (1) 
2
10
11
8
9
7
5
12
1
6
3
4

>  <PUBCHEM_MMFF94_PARTIAL_CHARGES>  (1) 
21
1 -0.23
10 0.11
11 0.08
12 -0.15
14 0.71
15 -0.15
16 -0.15
17 -0.15
2 -0.57
22 0.4
25 0.15
29 0.15
3 -0.87
30 0.15
31 0.15
32 0.4
33 0.4
4 -0.9
5 0.37
7 0.07
9 0.03

>  <PUBCHEM_EFFECTIVE_ROTOR_COUNT>  (1) 
4

>  <PUBCHEM_PHARMACOPHORE_FEATURES>  (1) 
8
1 13 hydrophobe
1 2 acceptor
1 3 cation
1 3 donor
1 4 cation
1 4 donor
6 1 7 9 10 11 14 rings
6 9 11 12 15 16 17 rings

>  <PUBCHEM_HEAVY_ATOM_COUNT>  (1) 
17

>  <PUBCHEM_ATOM_DEF_STEREO_COUNT>  (1) 
0

>  <PUBCHEM_ATOM_UDEF_STEREO_COUNT>  (1) 
0

>  <PUBCHEM_BOND_DEF_STEREO_COUNT>  (1) 
0

>  <PUBCHEM_BOND_UDEF_STEREO_COUNT>  (1) 
0

>  <PUBCHEM_ISOTOPIC_ATOM_COUNT>  (1) 
0

>  <PUBCHEM_COMPONENT_COUNT>  (1) 
1

>  <PUBCHEM_CACTVS_TAUTO_COUNT>  (1) 
4

>  <PUBCHEM_CONFORMER_ID>  (1) 
0000A7F600000002

>  <PUBCHEM_MMFF94_ENERGY>  (1) 
60.6466

>  <PUBCHEM_FEATURE_SELFOVERLAP>  (1) 
40.626

>  <PUBCHEM_SHAPE_FINGERPRINT>  (1) 
10319926 262 18198320920286235042
10616163 171 18410577271514193254
10967382 1 18194972846284470751
11357001 24 18410856568351244955
12553582 1 18195251246086196734
13140716 1 18268720570383733841
13862211 1 18412261779178319255
14420673 8 17978509733668803074
15042514 8 18409736157702770027
15375462 189 18118412975337451522
15442244 35 18409168835551580652
16110190 28 17613980912802839802
16752209 62 18337376180444371511
16945 1 18340785813563230469
17780758 139 18192972861158101386
17804303 29 18342179964379492790
19784866 135 18410569600264473914
20291156 8 18335137648243755458
20510252 161 18272939318768190248
21650355 55 18411695470159337984
23184049 29 18339644571938280396
2334 1 17764597907652364767
23402539 116 18271798017482930343
23419403 2 17344890018637758041
23463225 33 18337676441840312566
23559900 14 18340761633214124768
23598291 2 17967543359031645476
23598294 1 18410014317022620528
23728640 28 18338796715160668986
257057 1 18124872623419948143
2748010 2 17978252469010328397
3091708 16 8987480076496086761
352729 6 18340497672612945933
532947 4 17258491141876798406
54173680 148 18410857680689680836
5706482 22 18268707216887233625
58807428 26 18051421660191816065
6992083 37 18187371978268255636
7364860 26 17333376100032377533
81228 2 18268730418332260577
90316 7 18340211889762607033
9709674 26 18272090444737463798

>  <PUBCHEM_SHAPE_MULTIPOLES>  (1) 
328.15
6.95
3.61
0.73
10.18
0.73
0.01
-4.09
1.46
-2.63
0.17
0.26
-0.07
-0.82

>  <PUBCHEM_SHAPE_SELFOVERLAP>  (1) 
692.591

>  <PUBCHEM_SHAPE_VOLUME>  (1) 
183.4

>  <PUBCHEM_COORDINATE_TYPE>  (1) 
2
5
10

$$$$
