4300
     RDKit          3D

 22 23  0  0  0  0  0  0  0  0999 V2000
    5.6038   -2.5851   -0.9550 I   0  0  0  0  0  0  0  0  0  0  0  0
   -4.3826    0.3770   -2.5658 Cl  0  0  0  0  0  0  0  0  0  0  0  0
    2.5453   -2.2090    0.0809 O   0  0  0  0  0  0  0  0  0  0  0  0
    0.8255   -0.1165    2.0183 O   0  0  0  0  0  0  0  0  0  0  0  0
    0.1302    0.1901   -0.1926 N   0  0  0  0  0  0  0  0  0  0  0  0
   -6.0676   -0.3037    1.5128 N   0  0  0  0  0  0  0  0  0  0  0  0
   -6.2652    0.0330   -0.7912 N   0  0  0  0  0  0  0  0  0  0  0  0
    2.4871    0.1494    0.3886 C   0  0  0  0  0  0  0  0  0  0  0  0
    4.4243    1.4938   -0.0711 C   0  0  0  0  0  0  0  0  0  0  0  0
   -1.2594    0.1215   -0.0914 C   0  0  0  0  0  0  0  0  0  0  0  0
    3.0967    1.3948    0.3451 C   0  0  0  0  0  0  0  0  0  0  0  0
    1.0852    0.0721    0.8334 C   0  0  0  0  0  0  0  0  0  0  0  0
    3.1750   -0.9987    0.0255 C   0  0  0  0  0  0  0  0  0  0  0  0
    5.1273    0.3465   -0.4390 C   0  0  0  0  0  0  0  0  0  0  0  0
    4.5026   -0.8996   -0.3907 C   0  0  0  0  0  0  0  0  0  0  0  0
   -2.0495    0.2638   -1.2321 C   0  0  0  0  0  0  0  0  0  0  0  0
   -1.8587   -0.0886    1.1504 C   0  0  0  0  0  0  0  0  0  0  0  0
   -4.0384   -0.0142    0.1110 C   0  0  0  0  0  0  0  0  0  0  0  0
   -3.4391    0.1960   -1.1308 C   0  0  0  0  0  0  0  0  0  0  0  0
   -3.2482   -0.1564    1.2516 C   0  0  0  0  0  0  0  0  0  0  0  0
    5.0913    2.8267   -0.1242 C   0  0  0  0  0  0  0  0  0  0  0  0
   -5.4858   -0.0928    0.2660 C   0  0  0  0  0  0  0  0  0  0  0  0
  1 15  1  0
  2 19  1  0
  3 13  1  0
  4 12  2  0
  5 10  1  0
  5 12  1  0
  6 22  1  0
  7 22  2  0
  8 11  1  0
  8 12  1  0
  8 13  2  0
  9 11  2  0
  9 14  1  0
  9 21  1  0
 10 16  2  0
 10 17  1  0
 13 15  1  0
 14 15  2  0
 16 19  1  0
 17 20  2  0
 18 19  2  0
 18 20  1  0
 18 22  1  0
M  END
>  <PUBCHEM_COMPOUND_CID>  (1) 
4300

>  <PUBCHEM_CONFORMER_RMSD>  (1) 
0.6

>  <PUBCHEM_CONFORMER_DIVERSEORDER>  (1) 
1
6
11
8
9
2
7
5
4
10
12
3

>  <PUBCHEM_MMFF94_PARTIAL_CHARGES>  (1) 
32
1 -0.08
10 0.12
11 -0.15
12 0.54
13 0.08
14 -0.15
15 0.08
16 -0.15
17 -0.15
18 0.09
19 0.18
2 -0.18
20 -0.15
21 0.14
22 0.41
23 0.15
24 0.37
25 0.15
26 0.15
27 0.15
28 0.15
3 -0.53
32 0.45
33 0.4
34 0.4
35 0.4
4 -0.57
5 -0.55
6 -0.85
7 -0.85
8 0.09
9 -0.14

>  <PUBCHEM_EFFECTIVE_ROTOR_COUNT>  (1) 
4

>  <PUBCHEM_PHARMACOPHORE_FEATURES>  (1) 
9
1 1 hydrophobe
1 3 donor
1 4 acceptor
1 5 donor
1 6 donor
1 7 donor
3 6 7 22 cation
6 10 16 17 18 19 20 rings
6 8 9 11 13 14 15 rings

>  <PUBCHEM_HEAVY_ATOM_COUNT>  (1) 
22

>  <PUBCHEM_ATOM_DEF_STEREO_COUNT>  (1) 
0

>  <PUBCHEM_ATOM_UDEF_STEREO_COUNT>  (1) 
0

>  <PUBCHEM_BOND_DEF_STEREO_COUNT>  (1) 
0

>  <PUBCHEM_BOND_UDEF_STEREO_COUNT>  (1) 
0

>  <PUBCHEM_ISOTOPIC_ATOM_COUNT>  (1) 
0

>  <PUBCHEM_COMPONENT_COUNT>  (1) 
1

>  <PUBCHEM_CACTVS_TAUTO_COUNT>  (1) 
15

>  <PUBCHEM_CONFORMER_ID>  (1) 
000010CC00000001

>  <PUBCHEM_MMFF94_ENERGY>  (1) 
83.8307

>  <PUBCHEM_FEATURE_SELFOVERLAP>  (1) 
45.714

>  <PUBCHEM_SHAPE_FINGERPRINT>  (1) 
10498660 4 16805595928432340396
10670039 82 15647336278283706534
11796584 16 14046024108952325772
12107183 9 17481441378035845491
12236239 1 17561084696077779755
12403259 415 17894347765604748117
12616971 3 17846214440664677406
12730499 353 18186806885279011034
12788726 201 16845307011430749595
13533116 47 18202848742764055298
13760787 5 18130784559787339933
13782708 43 18040155093412659090
13955234 65 18412541020940360730
14251752 14 17703228412856058553
15081414 286 18334015025413395052
15183329 4 16630812110205470225
15188451 53 14117213076167341717
15250474 111 17203597190409866031
15475509 35 13685750347363821324
15537594 2 17346599685798167543
17844677 252 18410297973394701437
17857418 61 17060614482251808886
18335252 98 18267307706511195451
200 152 18202281381457188912
20612939 158 18342462539031380992
20645477 70 18410857634009692354
21033648 29 18114166567126771181
21033650 10 15503505816068206542
21315763 178 17060331899458450510
220451 1 17561085834249388021
22061861 79 18408604734156813510
221357 26 18335702711278953532
22950370 63 17918272069378802509
2297311 6 17385733469700232663
2303208 19 17968105213341274515
23081809 10 17561083609720079097
23402539 116 14117795800429807241
23522609 53 17416990450495153225
23557571 272 17022906717970918959
23559900 14 18187086169426592728
23569914 152 17182748019275383487
29717793 49 17988929937912071068
3004659 81 17275112708794514140
341906 21 15864063256864404460
34797466 226 17531260473381591054
351380 3 17418091001367539071
3545911 37 17967816063321127344
46194498 28 18261115154154972756
5104073 3 16298933265778351697
5281201 14 18335985281646326692
542803 24 17775288274504700377
6025842 7 18342461456963418790
960060 61 17847057809396955036

>  <PUBCHEM_SHAPE_MULTIPOLES>  (1) 
439.87
16.03
1.96
1.57
8
0.11
-0.39
2.32
-2.81
-6.03
-0.38
2.53
0.03
-0.26

>  <PUBCHEM_SHAPE_SELFOVERLAP>  (1) 
918.41

>  <PUBCHEM_SHAPE_VOLUME>  (1) 
256

>  <PUBCHEM_COORDINATE_TYPE>  (1) 
2
5
10

$$$$
