43002
     RDKit          3D

 18 20  0  0  0  0  0  0  0  0999 V2000
   -4.1834    0.8644   -0.0097 O   0  0  0  0  0  0  0  0  0  0  0  0
    2.3969   -1.3987   -0.0151 O   0  0  0  0  0  0  0  0  0  0  0  0
    1.4538   -3.4649   -0.0420 O   0  0  0  0  0  0  0  0  0  0  0  0
   -1.4339    0.3120    0.0216 N   0  0  0  0  0  0  0  0  0  0  0  0
   -1.0775   -2.5250   -0.0165 N   0  0  0  0  0  0  0  0  0  0  0  0
   -2.1327    0.6362    1.2654 C   0  0  0  0  0  0  0  0  0  0  0  0
   -2.0637    0.8413   -1.1882 C   0  0  0  0  0  0  0  0  0  0  0  0
   -0.2053   -0.2802    0.0066 C   0  0  0  0  0  0  0  0  0  0  0  0
   -3.5993    0.2420    1.1373 C   0  0  0  0  0  0  0  0  0  0  0  0
   -3.5331    0.4375   -1.2094 C   0  0  0  0  0  0  0  0  0  0  0  0
    0.9897    0.5904    0.0108 C   0  0  0  0  0  0  0  0  0  0  0  0
   -0.0466   -1.6219   -0.0108 C   0  0  0  0  0  0  0  0  0  0  0  0
    2.2507   -0.0026    0.0008 C   0  0  0  0  0  0  0  0  0  0  0  0
    0.9497    1.9945    0.0238 C   0  0  0  0  0  0  0  0  0  0  0  0
    1.3039   -2.2465   -0.0244 C   0  0  0  0  0  0  0  0  0  0  0  0
    3.4351    0.7398    0.0044 C   0  0  0  0  0  0  0  0  0  0  0  0
    2.1268    2.7544    0.0276 C   0  0  0  0  0  0  0  0  0  0  0  0
    3.3690    2.1272    0.0180 C   0  0  0  0  0  0  0  0  0  0  0  0
  1  9  1  0
  1 10  1  0
  2 13  1  0
  2 15  1  0
  3 15  2  0
  4  6  1  0
  4  7  1  0
  4  8  1  0
  5 12  1  0
  6  9  1  0
  7 10  1  0
  8 11  1  0
  8 12  2  0
 11 13  2  0
 11 14  1  0
 12 15  1  0
 13 16  1  0
 14 17  2  0
 16 18  2  0
 17 18  1  0
M  END
>  <PUBCHEM_COMPOUND_CID>  (1) 
43002

>  <PUBCHEM_CONFORMER_RMSD>  (1) 
0.6

>  <PUBCHEM_CONFORMER_DIVERSEORDER>  (1) 
1
2

>  <PUBCHEM_MMFF94_PARTIAL_CHARGES>  (1) 
24
1 -0.56
10 0.28
11 0.03
12 0.11
13 0.08
14 -0.15
15 0.71
16 -0.15
17 -0.15
18 -0.15
2 -0.23
27 0.15
28 0.15
29 0.15
3 -0.57
30 0.4
31 0.4
32 0.15
4 -0.84
5 -0.9
6 0.37
7 0.37
8 0.07
9 0.28

>  <PUBCHEM_EFFECTIVE_ROTOR_COUNT>  (1) 
2.2

>  <PUBCHEM_PHARMACOPHORE_FEATURES>  (1) 
8
1 1 acceptor
1 3 acceptor
1 4 cation
1 5 cation
1 5 donor
6 1 4 6 7 9 10 rings
6 11 13 14 16 17 18 rings
6 2 8 11 12 13 15 rings

>  <PUBCHEM_HEAVY_ATOM_COUNT>  (1) 
18

>  <PUBCHEM_ATOM_DEF_STEREO_COUNT>  (1) 
0

>  <PUBCHEM_ATOM_UDEF_STEREO_COUNT>  (1) 
0

>  <PUBCHEM_BOND_DEF_STEREO_COUNT>  (1) 
0

>  <PUBCHEM_BOND_UDEF_STEREO_COUNT>  (1) 
0

>  <PUBCHEM_ISOTOPIC_ATOM_COUNT>  (1) 
0

>  <PUBCHEM_COMPONENT_COUNT>  (1) 
1

>  <PUBCHEM_CACTVS_TAUTO_COUNT>  (1) 
2

>  <PUBCHEM_CONFORMER_ID>  (1) 
0000A7FA00000001

>  <PUBCHEM_MMFF94_ENERGY>  (1) 
69.1302

>  <PUBCHEM_FEATURE_SELFOVERLAP>  (1) 
40.623

>  <PUBCHEM_SHAPE_FINGERPRINT>  (1) 
10411042 1 17762338007267485463
10608611 8 18188486874621912013
10871710 139 16456030734976670836
10967382 1 18410855434690758340
10980938 120 18409729543157650504
11471102 20 18410572864202202580
11582403 64 16811741198179118341
11725454 13 16953339552593755565
12236239 1 17704070673185976585
12390115 104 17980781637675475816
12553582 1 17763190137342429819
12730499 353 18335138687868317325
13009979 54 17487339235711742403
13140716 1 18338794623906864496
13380535 76 18337947995315793290
13583140 156 16951386871087163809
14251717 144 18411694361925582013
14787075 74 17914904377348773587
15219456 202 18186522073160112273
15309172 13 18337676411596212769
16945 1 18411138004847147752
1813 80 17555184549122030526
18186145 218 18343025505489821708
18219364 16 18335987553077416561
19049666 15 17824539673757956085
19591789 44 18266184009553264802
204376 136 18337675333564696144
20510252 161 17693941095427837280
20645477 70 18335972070141989519
21041028 32 17907022772309162681
21499 59 18339640139363342781
21501502 16 18121496014805853092
21524375 3 18263077884951736138
21639500 275 18410846651377195117
22112679 90 17203320062351300273
2255824 54 18342177722053389918
22854114 111 18411700971832966069
2334 1 18122625226074452140
23558518 356 17829889090169439266
23598291 2 17916862418178433085
238 59 17902469832255849685
25 1 18410009948771991500
2748010 2 18266187299798621158
3060560 45 18411416211480425116
3091708 16 9187905640371399858
31174 14 18263095326988057075
350125 39 18049730916372365016
458136 41 18337407001071528925
474 4 18413672422009544073
49207404 50 18189069727358422027
6333272 397 18339646736543736441
633830 44 18130241418360712053
7364860 26 18339643343461582606
77492 1 17632009750469058601
81228 2 17399508421428448816
8272917 22 18341618049603114029
84936 182 18202556280844920129

>  <PUBCHEM_SHAPE_MULTIPOLES>  (1) 
342.86
6.07
3.06
0.94
3.05
2.22
0
-3.37
0.04
-2.35
-0.06
0.96
-0.24
0.11

>  <PUBCHEM_SHAPE_SELFOVERLAP>  (1) 
744.945

>  <PUBCHEM_SHAPE_VOLUME>  (1) 
185.2

>  <PUBCHEM_COORDINATE_TYPE>  (1) 
2
5
10

$$$$
