43003
     RDKit          3D

 19 21  0  0  0  0  0  0  0  0999 V2000
    2.7422    1.3352    0.0222 O   0  0  0  0  0  0  0  0  0  0  0  0
    1.8678    3.4315    0.0483 O   0  0  0  0  0  0  0  0  0  0  0  0
   -1.1434   -0.2480   -0.0307 N   0  0  0  0  0  0  0  0  0  0  0  0
   -3.9572   -0.7004   -0.0074 N   0  0  0  0  0  0  0  0  0  0  0  0
   -0.6930    2.5757    0.0123 N   0  0  0  0  0  0  0  0  0  0  0  0
   -1.8440   -0.5459   -1.2793 C   0  0  0  0  0  0  0  0  0  0  0  0
   -1.7893   -0.7600    1.1772 C   0  0  0  0  0  0  0  0  0  0  0  0
   -3.3050   -0.1025   -1.1815 C   0  0  0  0  0  0  0  0  0  0  0  0
   -3.2515   -0.3117    1.2221 C   0  0  0  0  0  0  0  0  0  0  0  0
    0.1046    0.3034   -0.0105 C   0  0  0  0  0  0  0  0  0  0  0  0
    1.2702   -0.6063   -0.0115 C   0  0  0  0  0  0  0  0  0  0  0  0
   -5.3624   -0.3014    0.0584 C   0  0  0  0  0  0  0  0  0  0  0  0
    0.3075    1.6391    0.0093 C   0  0  0  0  0  0  0  0  0  0  0  0
    2.5500   -0.0553    0.0040 C   0  0  0  0  0  0  0  0  0  0  0  0
    1.1838   -2.0083   -0.0264 C   0  0  0  0  0  0  0  0  0  0  0  0
    1.6778    2.2187    0.0286 C   0  0  0  0  0  0  0  0  0  0  0  0
    3.7092   -0.8364    0.0038 C   0  0  0  0  0  0  0  0  0  0  0  0
    2.3352   -2.8066   -0.0269 C   0  0  0  0  0  0  0  0  0  0  0  0
    3.5974   -2.2209   -0.0119 C   0  0  0  0  0  0  0  0  0  0  0  0
  1 14  1  0
  1 16  1  0
  2 16  2  0
  3  6  1  0
  3  7  1  0
  3 10  1  0
  4  8  1  0
  4  9  1  0
  4 12  1  0
  5 13  1  0
  6  8  1  0
  7  9  1  0
 10 11  1  0
 10 13  2  0
 11 14  2  0
 11 15  1  0
 13 16  1  0
 14 17  1  0
 15 18  2  0
 17 19  2  0
 18 19  1  0
M  END
>  <PUBCHEM_COMPOUND_CID>  (1) 
43003

>  <PUBCHEM_CONFORMER_RMSD>  (1) 
0.6

>  <PUBCHEM_CONFORMER_DIVERSEORDER>  (1) 
1
2
3

>  <PUBCHEM_MMFF94_PARTIAL_CHARGES>  (1) 
25
1 -0.23
10 0.07
11 0.03
12 0.27
13 0.11
14 0.08
15 -0.15
16 0.71
17 -0.15
18 -0.15
19 -0.15
2 -0.57
3 -0.84
31 0.15
32 0.15
33 0.4
34 0.4
35 0.15
36 0.15
4 -0.81
5 -0.9
6 0.37
7 0.37
8 0.27
9 0.27

>  <PUBCHEM_EFFECTIVE_ROTOR_COUNT>  (1) 
2.2

>  <PUBCHEM_PHARMACOPHORE_FEATURES>  (1) 
8
1 2 acceptor
1 3 cation
1 4 cation
1 5 cation
1 5 donor
6 1 10 11 13 14 16 rings
6 11 14 15 17 18 19 rings
6 3 4 6 7 8 9 rings

>  <PUBCHEM_HEAVY_ATOM_COUNT>  (1) 
19

>  <PUBCHEM_ATOM_DEF_STEREO_COUNT>  (1) 
0

>  <PUBCHEM_ATOM_UDEF_STEREO_COUNT>  (1) 
0

>  <PUBCHEM_BOND_DEF_STEREO_COUNT>  (1) 
0

>  <PUBCHEM_BOND_UDEF_STEREO_COUNT>  (1) 
0

>  <PUBCHEM_ISOTOPIC_ATOM_COUNT>  (1) 
0

>  <PUBCHEM_COMPONENT_COUNT>  (1) 
1

>  <PUBCHEM_CACTVS_TAUTO_COUNT>  (1) 
2

>  <PUBCHEM_CONFORMER_ID>  (1) 
0000A7FB00000001

>  <PUBCHEM_MMFF94_ENERGY>  (1) 
69.6229

>  <PUBCHEM_FEATURE_SELFOVERLAP>  (1) 
40.626

>  <PUBCHEM_SHAPE_FINGERPRINT>  (1) 
10411042 1 18194683661926658678
10967382 1 18410855494941574310
10989021 7 18341050726892716616
11471102 20 18409448111014431815
116883 192 18267021648292501501
12236239 1 17704072902142114923
12553582 1 18341045220961479846
13134695 92 18410008819153206412
13140716 1 18194676206078970474
14178342 30 17840568620254687435
14251717 144 18411699902270181779
14790565 3 18121512498981090836
15042514 8 17690561888284590538
15442244 35 18341055099417701209
16945 1 18411138060845207444
17357779 13 18263073344954955292
1813 80 18058464114162652646
18785283 64 18116437127077718613
19049666 15 18041551456373955229
200 152 18272646823269394659
20645477 70 18335134332333707163
20832881 197 18115869599200739659
21041028 32 18340488863814350201
21267235 1 18340495469147140342
21296965 67 18339922602092750194
21639500 275 18339354287788349895
221357 26 18263068956405987133
2255824 54 18341615970574971374
23175994 123 18335707087665914255
2334 1 17834393802103694502
23402539 116 18267298729834452250
23526113 38 18113617859179006003
23559900 14 18409447015982491947
25 1 18264203788969014173
2748010 2 18267855091618888124
3091708 16 9069641083150758184
3323516 105 18187363225225119867
474 4 18269272546131438696
495365 180 18268421511510414881
54173680 148 17690280413582329282
6443956 14 18409451345145995796
7364860 26 18411418448957977792
7471813 234 17988633095600741913
77492 1 17632018640961658063
81228 2 17832422004082472512
8272917 22 18412269466778817391
84936 182 17843398737526140417
9709674 26 18261678194166089459

>  <PUBCHEM_SHAPE_MULTIPOLES>  (1) 
364.33
7.52
2.94
0.93
7.08
1.91
0.02
-3.44
-0.05
-3.3
-0.05
0.84
-0.18
0.12

>  <PUBCHEM_SHAPE_SELFOVERLAP>  (1) 
785.05

>  <PUBCHEM_SHAPE_VOLUME>  (1) 
199.6

>  <PUBCHEM_COORDINATE_TYPE>  (1) 
2
5
10

$$$$
