43027
     RDKit          3D

 14 15  0  0  1  0  0  0  0  0999 V2000
    2.1640   -0.2063   -0.2261 O   0  0  0  0  0  0  0  0  0  0  0  0
    1.6652    1.1616    1.5442 O   0  0  0  0  0  0  0  0  0  0  0  0
    0.0544    0.6266   -0.0165 N   0  0  0  0  0  0  0  0  0  0  0  0
   -2.2666   -1.0087    0.1873 N   0  0  0  0  0  0  0  0  0  0  0  0
   -0.4422   -0.0265   -1.2162 C   0  0  0  0  0  0  0  0  0  0  0  0
   -1.1147    1.1641    0.6526 C   0  0  0  0  0  0  0  0  0  0  0  0
   -1.4313    1.0168   -1.7574 C   0  0  0  0  0  0  0  0  0  0  0  0
   -1.8777    1.8117   -0.5117 C   0  0  0  0  0  0  0  0  0  0  0  0
   -1.1642   -1.3116   -0.7502 C   0  0  0  0  0  0  0  0  0  0  0  0
   -1.8815   -0.0434    1.2389 C   0  0  0  0  0  0  0  0  0  0  0  0
    1.3244    0.5764    0.5190 C   0  0  0  0  0  0  0  0  0  0  0  0
   -2.8302   -2.2259    0.7603 C   0  0  0  0  0  0  0  0  0  0  0  0
    3.5076   -0.3202    0.2557 C   0  0  0  0  0  0  0  0  0  0  0  0
    4.2928   -1.2145   -0.6799 C   0  0  0  0  0  0  0  0  0  0  0  0
  1 11  1  0
  1 13  1  0
  2 11  2  0
  3  5  1  0
  3  6  1  0
  3 11  1  0
  4  9  1  0
  4 10  1  0
  4 12  1  0
  5  7  1  0
  5  9  1  0
  6  8  1  0
  6 10  1  0
  7  8  1  0
 13 14  1  0
M  END
>  <PUBCHEM_COMPOUND_CID>  (1) 
43027

>  <PUBCHEM_CONFORMER_RMSD>  (1) 
0.6

>  <PUBCHEM_CONFORMER_DIVERSEORDER>  (1) 
1
11
6
3
5
12
13
7
10
9
2
4
8

>  <PUBCHEM_MMFF94_PARTIAL_CHARGES>  (1) 
11
1 -0.43
10 0.27
11 0.78
12 0.27
13 0.28
2 -0.57
3 -0.66
4 -0.81
5 0.3
6 0.3
9 0.27

>  <PUBCHEM_EFFECTIVE_ROTOR_COUNT>  (1) 
4.2

>  <PUBCHEM_PHARMACOPHORE_FEATURES>  (1) 
3
1 2 acceptor
1 4 cation
8 3 4 5 6 7 8 9 10 rings

>  <PUBCHEM_HEAVY_ATOM_COUNT>  (1) 
14

>  <PUBCHEM_ATOM_DEF_STEREO_COUNT>  (1) 
0

>  <PUBCHEM_ATOM_UDEF_STEREO_COUNT>  (1) 
2

>  <PUBCHEM_BOND_DEF_STEREO_COUNT>  (1) 
0

>  <PUBCHEM_BOND_UDEF_STEREO_COUNT>  (1) 
0

>  <PUBCHEM_ISOTOPIC_ATOM_COUNT>  (1) 
0

>  <PUBCHEM_COMPONENT_COUNT>  (1) 
1

>  <PUBCHEM_CACTVS_TAUTO_COUNT>  (1) 
1

>  <PUBCHEM_CONFORMER_ID>  (1) 
0000A81300000001

>  <PUBCHEM_MMFF94_ENERGY>  (1) 
35.246

>  <PUBCHEM_FEATURE_SELFOVERLAP>  (1) 
15.223

>  <PUBCHEM_SHAPE_FINGERPRINT>  (1) 
12138202 97 17968928670293561775
12186901 62 17968377840563776445
12423570 1 11978199979795750909
12932764 1 17676486104046159016
13024252 1 14490479647056357509
14713566 1 15840685397605992597
14817 1 10713815844673867597
15061688 2 10951506850737476179
16945 1 18265918898596825485
20711985 344 17749377174868157789
20871998 22 18118967137972330107
21061003 4 17847066584025547466
23419403 2 11453308551964909033
25 1 17767958745163113581
2748010 2 18199447996059359736
369184 2 10735873988909426084
53812653 217 16878770622200000949
8030462 33 15792002381561197768
81228 2 18115570656581590121

>  <PUBCHEM_SHAPE_MULTIPOLES>  (1) 
266.41
5.35
1.85
1.4
7.27
0.52
0.1
2.64
0.11
-1.63
-0.02
-0.27
-0.31
0.9

>  <PUBCHEM_SHAPE_SELFOVERLAP>  (1) 
542.413

>  <PUBCHEM_SHAPE_VOLUME>  (1) 
155

>  <PUBCHEM_COORDINATE_TYPE>  (1) 
2
5
10

$$$$
