43026
     RDKit          3D

 12 12  0  0  1  0  0  0  0  0999 V2000
   -3.7373    0.2449   -0.3555 O   0  0  0  0  0  0  0  0  0  0  0  0
   -1.9598    1.6409   -0.5212 O   0  0  0  0  0  0  0  0  0  0  0  0
    4.0270    0.4427    0.0140 N   0  0  0  0  0  0  0  0  0  0  0  0
   -1.5453   -0.7158   -0.0311 C   0  0  0  0  0  0  0  0  0  0  0  0
   -0.0852   -0.4122   -0.0192 C   0  0  0  0  0  0  0  0  0  0  0  0
   -2.0614   -1.3583    1.2726 C   0  0  0  0  0  0  0  0  0  0  0  0
    0.7608   -1.0196   -0.9471 C   0  0  0  0  0  0  0  0  0  0  0  0
    0.4344    0.4789    0.9198 C   0  0  0  0  0  0  0  0  0  0  0  0
   -2.4057    0.5169   -0.3303 C   0  0  0  0  0  0  0  0  0  0  0  0
    2.1265   -0.7360   -0.9358 C   0  0  0  0  0  0  0  0  0  0  0  0
    1.8001    0.7625    0.9308 C   0  0  0  0  0  0  0  0  0  0  0  0
    2.6461    0.1551    0.0031 C   0  0  0  0  0  0  0  0  0  0  0  0
  1  9  1  0
  2  9  2  0
  3 12  1  0
  4  5  1  0
  4  6  1  0
  4  9  1  0
  5  7  2  0
  5  8  1  0
  7 10  1  0
  8 11  2  0
 10 12  2  0
 11 12  1  0
M  END
>  <PUBCHEM_COMPOUND_CID>  (1) 
43026

>  <PUBCHEM_CONFORMER_RMSD>  (1) 
0.6

>  <PUBCHEM_CONFORMER_DIVERSEORDER>  (1) 
1
3
5
2
4

>  <PUBCHEM_MMFF94_PARTIAL_CHARGES>  (1) 
18
1 -0.65
10 -0.15
11 -0.15
12 0.1
17 0.15
18 0.15
19 0.15
2 -0.57
20 0.15
21 0.4
22 0.4
23 0.5
3 -0.9
4 0.2
5 -0.14
7 -0.15
8 -0.15
9 0.66

>  <PUBCHEM_EFFECTIVE_ROTOR_COUNT>  (1) 
2

>  <PUBCHEM_PHARMACOPHORE_FEATURES>  (1) 
7
1 1 acceptor
1 2 acceptor
1 3 cation
1 3 donor
1 6 hydrophobe
3 1 2 9 anion
6 5 7 8 10 11 12 rings

>  <PUBCHEM_HEAVY_ATOM_COUNT>  (1) 
12

>  <PUBCHEM_ATOM_DEF_STEREO_COUNT>  (1) 
0

>  <PUBCHEM_ATOM_UDEF_STEREO_COUNT>  (1) 
1

>  <PUBCHEM_BOND_DEF_STEREO_COUNT>  (1) 
0

>  <PUBCHEM_BOND_UDEF_STEREO_COUNT>  (1) 
0

>  <PUBCHEM_ISOTOPIC_ATOM_COUNT>  (1) 
0

>  <PUBCHEM_COMPONENT_COUNT>  (1) 
1

>  <PUBCHEM_CACTVS_TAUTO_COUNT>  (1) 
1

>  <PUBCHEM_CONFORMER_ID>  (1) 
0000A81200000001

>  <PUBCHEM_MMFF94_ENERGY>  (1) 
37.7583

>  <PUBCHEM_FEATURE_SELFOVERLAP>  (1) 
35.579

>  <PUBCHEM_SHAPE_FINGERPRINT>  (1) 
11031198 65 18131634473690944557
12138202 97 18335693953629601423
124424 183 18411131420820662138
12716758 59 18187371978036075403
12932764 1 18271810154797076102
13839132 238 18262514763141704821
14993402 34 15913328000612528172
15219456 202 18341901770267471718
15775835 57 17775563156379434485
16945 1 17489595575542833274
17844478 74 18340782523481079747
18534176 82 18334577970749283227
19026448 5 17458062703313648650
20201158 50 18202002118341188727
20279233 1 18341899601367074462
21293036 1 17561361794540838052
23402539 116 18260818311479334487
23402655 69 17703220720669981549
2748010 2 17129010870494739330
276578 36 17532092700699476257
305870 269 17460305551919610499
3248919 1 17676487267549850966
5084963 1 17774153655513598970
528886 8 17418371398159648418
63268167 104 17275105020228281242
77492 1 16153428376170976115

>  <PUBCHEM_SHAPE_MULTIPOLES>  (1) 
230.23
5.33
1.25
1.08
0.62
0.03
0.23
0.82
-0.45
-0.26
-0.05
-0.28
-0.14
0.86

>  <PUBCHEM_SHAPE_SELFOVERLAP>  (1) 
477.04

>  <PUBCHEM_SHAPE_VOLUME>  (1) 
131.6

>  <PUBCHEM_COORDINATE_TYPE>  (1) 
2
5
10

$$$$
