43033
     RDKit          3D

 18 18  0  0  0  0  0  0  0  0999 V2000
    3.8423    3.3252   -0.3497 O   0  0  0  0  0  0  0  0  0  0  0  0
    4.3726   -2.5708   -1.2573 O   0  0  0  0  0  0  0  0  0  0  0  0
   -3.6433   -1.6024    0.7434 O   0  0  0  0  0  0  0  0  0  0  0  0
    2.4858    0.0261    0.5297 N   0  0  0  0  0  0  0  0  0  0  0  0
    1.0831   -0.1156    0.4900 C   0  0  0  0  0  0  0  0  0  0  0  0
    3.0861    1.3272    0.7481 C   0  0  0  0  0  0  0  0  0  0  0  0
    3.3452   -1.1296    0.3664 C   0  0  0  0  0  0  0  0  0  0  0  0
   -1.6533   -0.3932    0.4155 C   0  0  0  0  0  0  0  0  0  0  0  0
    0.2639    1.0002    0.6616 C   0  0  0  0  0  0  0  0  0  0  0  0
    0.5150   -1.3722    0.2807 C   0  0  0  0  0  0  0  0  0  0  0  0
    3.2861    2.0369   -0.5801 C   0  0  0  0  0  0  0  0  0  0  0  0
    3.4997   -1.4581   -1.1088 C   0  0  0  0  0  0  0  0  0  0  0  0
   -1.1234    0.8595    0.6239 C   0  0  0  0  0  0  0  0  0  0  0  0
   -0.8722   -1.5130    0.2428 C   0  0  0  0  0  0  0  0  0  0  0  0
   -3.9781    0.6237   -0.1186 C   0  0  0  0  0  0  0  0  0  0  0  0
   -3.1378   -0.5441    0.3763 C   0  0  0  0  0  0  0  0  0  0  0  0
   -5.2801    0.1619   -0.7732 C   0  0  0  0  0  0  0  0  0  0  0  0
   -6.0915    1.3385   -1.2907 C   0  0  0  0  0  0  0  0  0  0  0  0
  1 11  1  0
  2 12  1  0
  3 16  2  0
  4  5  1  0
  4  6  1  0
  4  7  1  0
  5  9  2  0
  5 10  1  0
  6 11  1  0
  7 12  1  0
  8 13  2  0
  8 14  1  0
  8 16  1  0
  9 13  1  0
 10 14  2  0
 15 16  1  0
 15 17  1  0
 17 18  1  0
M  END
>  <PUBCHEM_COMPOUND_CID>  (1) 
43033

>  <PUBCHEM_CONFORMER_RMSD>  (1) 
0.8

>  <PUBCHEM_CONFORMER_DIVERSEORDER>  (1) 
6
32
79
133
74
125
127
111
87
30
57
135
56
75
34
107
126
58
63
128
109
114
52
110
121
93
101
86
65
44
97
99
95
88
115
85
77
9
48
131
84
69
11
41
120
47
83
108
130
100
91
33
113
50
112
105
31
21
123
117
29
45
78
70
71
38
80
102
81
76
10
129
23
19
28
94
53
61
124
54
106
2
62
26
67
119
92
96
5
118
60
104
12
24
15
89
17
82
55
66
116
42
40
25
14
72
122
16
1
36
134
4
49
51
64
46
18
37
20
90
39
103
43
35
27
73
132
22
7
3
98
68
13
59
8

>  <PUBCHEM_MMFF94_PARTIAL_CHARGES>  (1) 
22
1 -0.68
10 -0.15
11 0.28
12 0.28
13 -0.15
14 -0.15
15 0.06
16 0.42
2 -0.68
23 0.15
24 0.15
29 0.15
3 -0.57
30 0.15
38 0.4
39 0.4
4 -0.84
5 0.1
6 0.37
7 0.37
8 0.09
9 -0.15

>  <PUBCHEM_EFFECTIVE_ROTOR_COUNT>  (1) 
8

>  <PUBCHEM_PHARMACOPHORE_FEATURES>  (1) 
8
1 1 acceptor
1 1 donor
1 18 hydrophobe
1 2 acceptor
1 2 donor
1 3 acceptor
1 4 cation
6 5 8 9 10 13 14 rings

>  <PUBCHEM_HEAVY_ATOM_COUNT>  (1) 
18

>  <PUBCHEM_ATOM_DEF_STEREO_COUNT>  (1) 
0

>  <PUBCHEM_ATOM_UDEF_STEREO_COUNT>  (1) 
0

>  <PUBCHEM_BOND_DEF_STEREO_COUNT>  (1) 
0

>  <PUBCHEM_BOND_UDEF_STEREO_COUNT>  (1) 
0

>  <PUBCHEM_ISOTOPIC_ATOM_COUNT>  (1) 
0

>  <PUBCHEM_COMPONENT_COUNT>  (1) 
1

>  <PUBCHEM_CACTVS_TAUTO_COUNT>  (1) 
2

>  <PUBCHEM_CONFORMER_ID>  (1) 
0000A81900000006

>  <PUBCHEM_MMFF94_ENERGY>  (1) 
51.622

>  <PUBCHEM_FEATURE_SELFOVERLAP>  (1) 
40.596

>  <PUBCHEM_SHAPE_FINGERPRINT>  (1) 
10014705 185 18114173169029049017
11471102 20 18342172258749351507
12403259 415 18186809084497276315
12596602 18 12396590581404363813
12670543 26 18267864982770380415
13760787 5 18202572773951177571
15196674 1 18335980956503197299
17834072 8 18336827498662548975
17959699 21 18334569140660896209
18186145 218 18260551112641658179
19784866 240 16630246896466667646
200 152 17274816918459924403
20612939 158 18412827967109430477
20645477 56 17749104466420715311
20645477 70 18343301461465263855
22289505 5 18410571799393483916
23402655 69 18272640252391314517
23557571 272 17823144582375081909
23559900 14 18411983550938161826
29717793 49 17775279418566979325
312425 54 9078828654485130533
3286 77 16702014236625177546
5104073 3 18113898290784580345
5281201 14 18411138004588970997
59682541 52 18059563651902890237
60123966 16 18409158905223657436
633830 44 18334004008668792823
7164475 11 17845660235449800504
7364860 26 18271815653009024504
90127 26 18113341920789374345
960060 61 18131630092988040821
9709674 26 18338241564968317818

>  <PUBCHEM_SHAPE_MULTIPOLES>  (1) 
347.84
11.18
2.51
1.06
11.62
1.03
0.24
2.37
4.91
-3.74
0.62
-0.05
-0.11
1.44

>  <PUBCHEM_SHAPE_SELFOVERLAP>  (1) 
699.241

>  <PUBCHEM_SHAPE_VOLUME>  (1) 
204.6

>  <PUBCHEM_COORDINATE_TYPE>  (1) 
2
5
10

$$$$
