43042
     RDKit          3D

 38 43  0  0  0  0  0  0  0  0999 V2000
   -2.8011    3.0177    1.1870 O   0  0  0  0  0  0  0  0  0  0  0  0
    2.2419    3.2590   -0.6260 O   0  0  0  0  0  0  0  0  0  0  0  0
   -0.6575    2.1651    1.1778 O   0  0  0  0  0  0  0  0  0  0  0  0
    0.2957    2.9200   -1.8171 O   0  0  0  0  0  0  0  0  0  0  0  0
   -4.2318   -0.4334    1.4159 N   0  0  0  0  0  0  0  0  0  0  0  0
    3.4683   -0.1015   -1.5960 N   0  0  0  0  0  0  0  0  0  0  0  0
   -4.2163   -1.5823    0.4723 C   0  0  0  0  0  0  0  0  0  0  0  0
    3.7909   -1.3460   -0.7576 C   0  0  0  0  0  0  0  0  0  0  0  0
   -4.6887   -1.1404   -0.9262 C   0  0  0  0  0  0  0  0  0  0  0  0
   -2.8036   -2.1914    0.3840 C   0  0  0  0  0  0  0  0  0  0  0  0
    2.5945   -1.7202    0.1386 C   0  0  0  0  0  0  0  0  0  0  0  0
    5.0434   -1.1060    0.1074 C   0  0  0  0  0  0  0  0  0  0  0  0
   -2.2894   -0.5905   -1.5043 C   0  0  0  0  0  0  0  0  0  0  0  0
   -3.2123   -2.8790   -2.0128 C   0  0  0  0  0  0  0  0  0  0  0  0
    4.1551   -2.6633    1.8877 C   0  0  0  0  0  0  0  0  0  0  0  0
    3.5428   -0.2200    1.9394 C   0  0  0  0  0  0  0  0  0  0  0  0
   -3.7263   -0.0403   -1.4212 C   0  0  0  0  0  0  0  0  0  0  0  0
   -4.6405   -2.3132   -1.9262 C   0  0  0  0  0  0  0  0  0  0  0  0
   -1.8468   -1.0883   -0.1148 C   0  0  0  0  0  0  0  0  0  0  0  0
   -2.7632   -3.3597   -0.6218 C   0  0  0  0  0  0  0  0  0  0  0  0
    2.9186   -2.9458    1.0166 C   0  0  0  0  0  0  0  0  0  0  0  0
    2.3093   -0.5204    1.0663 C   0  0  0  0  0  0  0  0  0  0  0  0
    5.3571   -2.3343    0.9852 C   0  0  0  0  0  0  0  0  0  0  0  0
    4.7509    0.0920    1.0352 C   0  0  0  0  0  0  0  0  0  0  0  0
   -2.2604   -1.7692   -2.4920 C   0  0  0  0  0  0  0  0  0  0  0  0
    3.8639   -1.4562    2.7964 C   0  0  0  0  0  0  0  0  0  0  0  0
   -3.6824    0.8300    0.7413 C   0  0  0  0  0  0  0  0  0  0  0  0
    2.7478    0.9097   -0.7819 C   0  0  0  0  0  0  0  0  0  0  0  0
   -5.6607   -0.1407    1.8907 C   0  0  0  0  0  0  0  0  0  0  0  0
   -3.3687   -0.7320    2.6485 C   0  0  0  0  0  0  0  0  0  0  0  0
    2.6178   -0.5410   -2.7955 C   0  0  0  0  0  0  0  0  0  0  0  0
    4.7887    0.4697   -2.1303 C   0  0  0  0  0  0  0  0  0  0  0  0
   -3.2775    1.8302    1.8061 C   0  0  0  0  0  0  0  0  0  0  0  0
    2.9038    2.2734   -1.4254 C   0  0  0  0  0  0  0  0  0  0  0  0
   -1.4563    3.0562    0.9243 C   0  0  0  0  0  0  0  0  0  0  0  0
    0.9297    3.4822   -0.9348 C   0  0  0  0  0  0  0  0  0  0  0  0
   -1.1163    4.3737    0.2612 C   0  0  0  0  0  0  0  0  0  0  0  0
    0.3798    4.5363    0.0020 C   0  0  0  0  0  0  0  0  0  0  0  0
  1 33  1  0
  1 35  1  0
  2 34  1  0
  2 36  1  0
  3 35  2  0
  4 36  2  0
  5  7  1  0
  5 27  1  0
  5 29  1  0
  5 30  1  0
  6  8  1  0
  6 28  1  0
  6 31  1  0
  6 32  1  0
  7  9  1  0
  7 10  1  0
  8 11  1  0
  8 12  1  0
  9 17  1  0
  9 18  1  0
 10 19  1  0
 10 20  1  0
 11 21  1  0
 11 22  1  0
 12 23  1  0
 12 24  1  0
 13 17  1  0
 13 19  1  0
 13 25  1  0
 14 18  1  0
 14 20  1  0
 14 25  1  0
 15 21  1  0
 15 23  1  0
 15 26  1  0
 16 22  1  0
 16 24  1  0
 16 26  1  0
 27 33  1  0
 28 34  1  0
 35 37  1  0
 36 38  1  0
 37 38  1  0
M  CHG  2   5   1   6   1
M  END
>  <PUBCHEM_COMPOUND_CID>  (1) 
43042

>  <PUBCHEM_CONFORMER_RMSD>  (1) 
1.4

>  <PUBCHEM_CONFORMER_DIVERSEORDER>  (1) 
1
56
77
40
76
51
20
18
19
47
54
68
25
26
90
63
9
6
13
8
2
21
78
23
75
57
3
41
4
43
5
85
71
84
79
66
45
93
42
34
7
53
49
17
81
35
59
72
33
10
27
82
74
31
67
61
50
83
24
87
29
39
14
48
44
55
15
11
62
91
46
89
52
80
86
38
28
37
60
16
22
36
70
58
64
30
73
69
12
65
32
92
88

>  <PUBCHEM_MMFF94_PARTIAL_CHARGES>  (1) 
20
1 -0.43
2 -0.43
27 0.5
28 0.5
29 0.5
3 -0.57
30 0.5
31 0.5
32 0.5
33 0.28
34 0.28
35 0.66
36 0.66
37 0.06
38 0.06
4 -0.57
5 -1.01
6 -1.01
7 0.5
8 0.5

>  <PUBCHEM_EFFECTIVE_ROTOR_COUNT>  (1) 
15.4

>  <PUBCHEM_PHARMACOPHORE_FEATURES>  (1) 
12
1 3 acceptor
1 4 acceptor
1 5 cation
1 6 cation
6 10 13 14 19 20 25 rings
6 11 15 16 21 22 26 rings
6 12 15 16 23 24 26 rings
6 7 9 10 13 17 19 rings
6 7 9 10 14 18 20 rings
6 8 11 12 15 21 23 rings
6 8 11 12 16 22 24 rings
6 9 13 14 17 18 25 rings

>  <PUBCHEM_HEAVY_ATOM_COUNT>  (1) 
38

>  <PUBCHEM_ATOM_DEF_STEREO_COUNT>  (1) 
0

>  <PUBCHEM_ATOM_UDEF_STEREO_COUNT>  (1) 
0

>  <PUBCHEM_BOND_DEF_STEREO_COUNT>  (1) 
0

>  <PUBCHEM_BOND_UDEF_STEREO_COUNT>  (1) 
0

>  <PUBCHEM_ISOTOPIC_ATOM_COUNT>  (1) 
0

>  <PUBCHEM_COMPONENT_COUNT>  (1) 
1

>  <PUBCHEM_CACTVS_TAUTO_COUNT>  (1) 
1

>  <PUBCHEM_CONFORMER_ID>  (1) 
0000A82200000001

>  <PUBCHEM_MMFF94_ENERGY>  (1) 
263.3862

>  <PUBCHEM_FEATURE_SELFOVERLAP>  (1) 
85.943

>  <PUBCHEM_SHAPE_FINGERPRINT>  (1) 
10462674 125 16839894223372912998
10928967 22 18333452040820257654
11434127 23 15482381023934855202
11595378 159 18340209587639095754
12422481 6 17983043080049210153
12553582 1 18410580595111400941
12633046 712 18041284369743908659
12788726 201 18339371776916596540
13692114 37 17836080075137653081
14040222 380 17326671153720738371
14251757 17 15430029946451227282
14279260 333 17824273592482611690
14705955 166 15983437152450562809
14950920 106 18041011626182555307
15001296 14 18199197363105638925
15297060 5 16771860781683636751
15403338 16 18115041757286796587
15484559 13 14169545830550448767
17809404 112 18194091179524421857
19026451 147 18125146380214171702
19315092 285 17552051310698027983
19319366 153 17900287460631065644
20764821 26 18118692251333053074
20775530 9 18334853918050687136
208703 8 18262252035744824482
21033648 29 17416979326497622977
21458453 9 17843655955192046176
4066623 53 18193807502000044965
4394409 98 18265038155850461557
44344687 77 17189259830222096815
44880168 125 17702398268222837295
4573279 79 13252789232375882629
463206 1 18194698170109627689
469060 322 18343580738020157811
474144 1 17983005941023389317
5085150 59 18125440813877977913
508706 21 17489867111738679727
86090 222 16324003629734698403

>  <PUBCHEM_SHAPE_MULTIPOLES>  (1) 
748.58
12.18
5.1
2.78
1.51
5.73
-0.12
-8.06
2.35
-0.73
-0.32
0.06
-0.89
-4.03

>  <PUBCHEM_SHAPE_SELFOVERLAP>  (1) 
1603.225

>  <PUBCHEM_SHAPE_VOLUME>  (1) 
404.1

>  <PUBCHEM_COORDINATE_TYPE>  (1) 
2
5
10

$$$$
