43052
     RDKit          3D

 19 21  0  0  0  0  0  0  0  0999 V2000
    0.0029    0.2171    0.0012 O   0  0  0  0  0  0  0  0  0  0  0  0
    0.6958    2.3443   -0.0005 N   0  0  0  0  0  0  0  0  0  0  0  0
   -0.6866    2.3453    0.0004 N   0  0  0  0  0  0  0  0  0  0  0  0
    2.3577    0.4844   -0.0005 C   0  0  0  0  0  0  0  0  0  0  0  0
   -2.3515    0.4877    0.0009 C   0  0  0  0  0  0  0  0  0  0  0  0
    1.0465    1.0852    0.0002 C   0  0  0  0  0  0  0  0  0  0  0  0
   -1.0471    1.0832    0.0011 C   0  0  0  0  0  0  0  0  0  0  0  0
    3.7579   -1.4846    0.0005 C   0  0  0  0  0  0  0  0  0  0  0  0
   -3.7620   -1.4830   -0.0007 C   0  0  0  0  0  0  0  0  0  0  0  0
    2.4894   -0.9043    0.0005 C   0  0  0  0  0  0  0  0  0  0  0  0
   -2.4927   -0.9044    0.0002 C   0  0  0  0  0  0  0  0  0  0  0  0
    3.4946    1.2927   -0.0015 C   0  0  0  0  0  0  0  0  0  0  0  0
   -3.4949    1.2940    0.0009 C   0  0  0  0  0  0  0  0  0  0  0  0
    4.8947   -0.6760   -0.0006 C   0  0  0  0  0  0  0  0  0  0  0  0
   -4.8977   -0.6729   -0.0007 C   0  0  0  0  0  0  0  0  0  0  0  0
    4.7630    0.7126   -0.0015 C   0  0  0  0  0  0  0  0  0  0  0  0
   -4.7641    0.7155    0.0001 C   0  0  0  0  0  0  0  0  0  0  0  0
    3.8992   -2.9693    0.0019 C   0  0  0  0  0  0  0  0  0  0  0  0
   -3.9051   -2.9675   -0.0019 C   0  0  0  0  0  0  0  0  0  0  0  0
  1  6  1  0
  1  7  1  0
  2  3  1  0
  2  6  2  0
  3  7  2  0
  4  6  1  0
  4 10  1  0
  4 12  2  0
  5  7  1  0
  5 11  1  0
  5 13  2  0
  8 10  2  0
  8 14  1  0
  8 18  1  0
  9 11  2  0
  9 15  1  0
  9 19  1  0
 12 16  1  0
 13 17  1  0
 14 16  2  0
 15 17  2  0
M  END
>  <PUBCHEM_COMPOUND_CID>  (1) 
43052

>  <PUBCHEM_CONFORMER_RMSD>  (1) 
0.6

>  <PUBCHEM_CONFORMER_DIVERSEORDER>  (1) 
1
3
2

>  <PUBCHEM_MMFF94_PARTIAL_CHARGES>  (1) 
27
1 -0.28
10 -0.15
11 -0.15
12 -0.15
13 -0.15
14 -0.15
15 -0.15
16 -0.15
17 -0.15
18 0.14
19 0.14
2 -0.34
20 0.15
21 0.15
22 0.15
23 0.15
24 0.15
25 0.15
26 0.15
27 0.15
3 -0.34
4 0.05
5 0.05
6 0.43
7 0.43
8 -0.14
9 -0.14

>  <PUBCHEM_EFFECTIVE_ROTOR_COUNT>  (1) 
2

>  <PUBCHEM_PHARMACOPHORE_FEATURES>  (1) 
3
5 1 2 3 6 7 rings
6 4 8 10 12 14 16 rings
6 5 9 11 13 15 17 rings

>  <PUBCHEM_HEAVY_ATOM_COUNT>  (1) 
19

>  <PUBCHEM_ATOM_DEF_STEREO_COUNT>  (1) 
0

>  <PUBCHEM_ATOM_UDEF_STEREO_COUNT>  (1) 
0

>  <PUBCHEM_BOND_DEF_STEREO_COUNT>  (1) 
0

>  <PUBCHEM_BOND_UDEF_STEREO_COUNT>  (1) 
0

>  <PUBCHEM_ISOTOPIC_ATOM_COUNT>  (1) 
0

>  <PUBCHEM_COMPONENT_COUNT>  (1) 
1

>  <PUBCHEM_CACTVS_TAUTO_COUNT>  (1) 
1

>  <PUBCHEM_CONFORMER_ID>  (1) 
0000A82C00000001

>  <PUBCHEM_MMFF94_ENERGY>  (1) 
42.5129

>  <PUBCHEM_FEATURE_SELFOVERLAP>  (1) 
15.223

>  <PUBCHEM_SHAPE_FINGERPRINT>  (1) 
10616163 171 18412827992584108158
10835480 77 18410282623271711021
108634 29 17968668236531290634
11552529 35 17845650477505513079
11806522 49 18408041836070001548
12107183 9 17765159371214987720
12555020 224 18337943520687910559
12596602 18 16988564657825693266
13167823 11 18410855460128363175
13255334 9 18411141324804691790
13544653 18 18335427871615024496
13551218 46 18411986849779143003
13911882 115 17989495095885364966
14252887 29 17561092401618497492
14866123 147 17693661415958595945
15196674 1 18410856563935036199
15352361 1 18410855473108308047
15537594 2 18337408096278055651
17492 89 18338516310011064530
17857418 61 18411131433262569147
1813 80 17458348528438304469
19141452 34 18410577275724277309
200 152 18272369775918682593
20261772 1 17846213384387845278
20281475 54 18410576188470089748
20374829 77 18335135384305107339
20403669 9 18341898441720825015
20645477 70 18409448047043823926
21033648 29 14117518679874526451
21065198 57 18412543232347721657
21250096 35 18342737416284301313
21267235 1 18410865360027857026
21279426 13 18264766550481880037
21673915 165 18411136961096683546
221490 88 18191592049860874027
2215653 11 18412255126194330597
22485316 2 18410573989446450913
22950370 63 18410860961981430373
23379529 103 18199194992727407398
23402539 116 18333726923174720612
23559900 14 18412257350571087096
239999 70 18202571687783322772
26918003 58 18272367559736585408
2871803 45 18261109643321651586
3004659 81 18187364299098643686
314194 84 18341332292195869051
335352 9 18410855456819846389
33824 294 18410291411470344810
3421961 26 18341047522873903488
4073 2 18260834842476283930
4214541 1 18410856538492364481
4283 87 18336255803818635554
46194498 28 17386563699547206685
4921388 177 16371297726581070067
5104073 3 18342457036518899248
5283173 99 18115860815650215221
559249 180 18335978671596530395
633830 44 16877667854945024045
6433294 58 18339361842916281730
77779 3 18410856559639874021
9709674 26 18261961837526063730

>  <PUBCHEM_SHAPE_MULTIPOLES>  (1) 
375.18
11.73
2.8
0.6
0.03
1.47
0
4.91
0
0
0
0
0.02
0

>  <PUBCHEM_SHAPE_SELFOVERLAP>  (1) 
825.916

>  <PUBCHEM_SHAPE_VOLUME>  (1) 
205.3

>  <PUBCHEM_COORDINATE_TYPE>  (1) 
2
5
10

$$$$
