43050
     RDKit          3D

 16 17  0  0  0  0  0  0  0  0999 V2000
   -2.1121   -2.5133   -0.2464 Cl  0  0  0  0  0  0  0  0  0  0  0  0
   -2.6380    0.4124   -0.4958 O   0  0  0  0  0  0  0  0  0  0  0  0
   -0.6508    2.3123   -0.3880 O   0  0  0  0  0  0  0  0  0  0  0  0
    0.7925   -2.8147    0.1082 O   0  0  0  0  0  0  0  0  0  0  0  0
    1.1037    0.7704   -0.0863 C   0  0  0  0  0  0  0  0  0  0  0  0
    1.4777   -0.5678    0.0440 C   0  0  0  0  0  0  0  0  0  0  0  0
   -1.3167    0.0496   -0.3191 C   0  0  0  0  0  0  0  0  0  0  0  0
   -0.3119    1.1400   -0.2736 C   0  0  0  0  0  0  0  0  0  0  0  0
    0.4640   -1.6393   -0.0037 C   0  0  0  0  0  0  0  0  0  0  0  0
   -0.9505   -1.2327   -0.1934 C   0  0  0  0  0  0  0  0  0  0  0  0
    2.0773    1.7755   -0.0389 C   0  0  0  0  0  0  0  0  0  0  0  0
    2.8260   -0.9013    0.2223 C   0  0  0  0  0  0  0  0  0  0  0  0
    3.4196    1.4389    0.1385 C   0  0  0  0  0  0  0  0  0  0  0  0
    3.7932    0.1031    0.2689 C   0  0  0  0  0  0  0  0  0  0  0  0
   -3.2681    0.6289    0.7510 C   0  0  0  0  0  0  0  0  0  0  0  0
   -4.7060    1.0378    0.5123 C   0  0  0  0  0  0  0  0  0  0  0  0
  1 10  1  0
  2  7  1  0
  2 15  1  0
  3  8  2  0
  4  9  2  0
  5  6  2  0
  5  8  1  0
  5 11  1  0
  6  9  1  0
  6 12  1  0
  7  8  1  0
  7 10  2  0
  9 10  1  0
 11 13  2  0
 12 14  2  0
 13 14  1  0
 15 16  1  0
M  END
>  <PUBCHEM_COMPOUND_CID>  (1) 
43050

>  <PUBCHEM_CONFORMER_RMSD>  (1) 
0.6

>  <PUBCHEM_CONFORMER_DIVERSEORDER>  (1) 
1
2

>  <PUBCHEM_MMFF94_PARTIAL_CHARGES>  (1) 
19
1 -0.14
10 0.15
11 -0.15
12 -0.15
13 -0.15
14 -0.15
15 0.28
17 0.15
18 0.15
19 0.15
2 -0.36
20 0.15
3 -0.57
4 -0.57
5 0.09
6 0.09
7 0.09
8 0.47
9 0.47

>  <PUBCHEM_EFFECTIVE_ROTOR_COUNT>  (1) 
2

>  <PUBCHEM_PHARMACOPHORE_FEATURES>  (1) 
5
1 2 acceptor
1 3 acceptor
1 4 acceptor
6 5 6 11 12 13 14 rings
6 5 6 7 8 9 10 rings

>  <PUBCHEM_HEAVY_ATOM_COUNT>  (1) 
16

>  <PUBCHEM_ATOM_DEF_STEREO_COUNT>  (1) 
0

>  <PUBCHEM_ATOM_UDEF_STEREO_COUNT>  (1) 
0

>  <PUBCHEM_BOND_DEF_STEREO_COUNT>  (1) 
0

>  <PUBCHEM_BOND_UDEF_STEREO_COUNT>  (1) 
0

>  <PUBCHEM_ISOTOPIC_ATOM_COUNT>  (1) 
0

>  <PUBCHEM_COMPONENT_COUNT>  (1) 
1

>  <PUBCHEM_CACTVS_TAUTO_COUNT>  (1) 
1

>  <PUBCHEM_CONFORMER_ID>  (1) 
0000A82A00000001

>  <PUBCHEM_MMFF94_ENERGY>  (1) 
43.172

>  <PUBCHEM_FEATURE_SELFOVERLAP>  (1) 
25.398

>  <PUBCHEM_SHAPE_FINGERPRINT>  (1) 
10411042 1 17330273871267957903
10493431 412 18411984701699253281
10967382 1 18410290276986931934
10980938 120 18409169874743703753
11132069 177 18411692205915348456
11471102 20 18410007693887774349
11471102 22 18191042131102064049
12251169 10 18410573980861901664
12382932 28 18411983580622793393
12390115 104 18054244373140045256
12491281 212 18338239383108541936
13140716 1 18409725196756248794
13221675 6 18409448055264337422
13380535 21 18411143562392559998
13380535 76 18411980265034953111
13583140 156 16588566665515529045
13897977 150 18410849988471708604
14178342 30 18267571593058362696
14790565 3 18338251379085062308
15196674 1 18410855503093685002
15309172 13 18409730655459130753
15775835 57 18411703205258060608
16945 1 18337663110161423494
17844478 74 17749107764275467661
18186145 218 18412542119861268012
193761 8 17761770668004498684
19591789 44 18050855420531030390
20261772 1 18338528537734860243
20510252 161 18055917851010994560
21267235 1 18338241577636863654
21501502 16 18265892634834841686
23184049 59 18408045095728678681
2334 1 18193553591405488054
23402539 116 18272360992710400044
23463225 33 18335136526966881020
23558518 356 17902229240914417339
23559900 14 18271527594127433188
2748010 2 18337669844691294686
335352 9 18339079285564919854
33824 294 18336266739284724051
44154327 71 18261965119134382972
5104073 3 18337664343376174992
528886 8 18411130359694578250
53812653 166 18413386553254610528
58807428 26 18336532881180923522
69090 78 18411696595540645415
7364860 26 18198625432460120966
7832392 63 18340768229734888430
81228 2 17759226784460271946
8272917 22 18126571115983048861

>  <PUBCHEM_SHAPE_MULTIPOLES>  (1) 
313.53
6.39
2.6
0.7
2.63
1.2
0.03
-2.53
1.3
0.45
-0.12
0.19
-0.06
-0.36

>  <PUBCHEM_SHAPE_SELFOVERLAP>  (1) 
669.78

>  <PUBCHEM_SHAPE_VOLUME>  (1) 
175.3

>  <PUBCHEM_COORDINATE_TYPE>  (1) 
2
5
10

$$$$
