43067
     RDKit          3D

 36 39  0  0  1  0  0  0  0  0999 V2000
   -4.0364   -0.2817   -2.0910 S   0  0  0  0  0  0  0  0  0  0  0  0
   -3.0214   -1.3429    2.0614 O   0  0  0  0  0  0  0  0  0  0  0  0
   -7.1434    0.0313    1.7067 O   0  0  0  0  0  0  0  0  0  0  0  0
   -6.9847   -2.0984    0.9096 O   0  0  0  0  0  0  0  0  0  0  0  0
   -0.0386   -1.2687    1.0910 O   0  0  0  0  0  0  0  0  0  0  0  0
    2.7283    1.1566   -2.1466 O   0  0  0  0  0  0  0  0  0  0  0  0
    3.7589   -1.0107    1.3263 O   0  0  0  0  0  0  0  0  0  0  0  0
    6.2734   -0.9364    2.0545 O   0  0  0  0  0  0  0  0  0  0  0  0
   -4.4141   -1.5078    0.1631 N   0  0  0  0  0  0  0  0  0  0  0  0
   -1.4483   -0.9014   -0.7127 N   0  0  0  0  0  0  0  0  0  0  0  0
    1.9191    0.1736   -0.2308 N   0  0  0  0  0  0  0  0  0  0  0  0
    4.2503    0.1718   -0.6588 N   0  0  0  0  0  0  0  0  0  0  0  0
    6.9213   -0.6477   -0.1686 N   0  0  0  0  0  0  0  0  0  0  0  0
   -3.7735   -1.8105   -1.1201 C   0  0  0  0  0  0  0  0  0  0  0  0
   -5.6474    0.0441   -1.2144 C   0  0  0  0  0  0  0  0  0  0  0  0
   -5.3785   -0.4287    0.2305 C   0  0  0  0  0  0  0  0  0  0  0  0
   -2.4466   -1.9250   -0.3569 C   0  0  0  0  0  0  0  0  0  0  0  0
   -3.2695   -1.5874    0.9025 C   0  0  0  0  0  0  0  0  0  0  0  0
   -6.7485   -0.7361   -1.9452 C   0  0  0  0  0  0  0  0  0  0  0  0
   -5.9462    1.5435   -1.2640 C   0  0  0  0  0  0  0  0  0  0  0  0
   -6.5723   -0.9494    0.9656 C   0  0  0  0  0  0  0  0  0  0  0  0
   -0.3161   -0.6631    0.0574 C   0  0  0  0  0  0  0  0  0  0  0  0
    0.5311    0.4768   -0.4932 C   0  0  0  0  0  0  0  0  0  0  0  0
    0.1253    1.8103    0.0896 C   0  0  0  0  0  0  0  0  0  0  0  0
    2.9429    0.5439   -1.0967 C   0  0  0  0  0  0  0  0  0  0  0  0
   -0.8531    2.5785   -0.5416 C   0  0  0  0  0  0  0  0  0  0  0  0
    0.7287    2.2733    1.2590 C   0  0  0  0  0  0  0  0  0  0  0  0
    5.3663    0.6726   -1.4583 C   0  0  0  0  0  0  0  0  0  0  0  0
    6.4752   -0.3545   -1.5161 C   0  0  0  0  0  0  0  0  0  0  0  0
    4.5556   -0.5270    0.5284 C   0  0  0  0  0  0  0  0  0  0  0  0
   -1.2280    3.8097   -0.0036 C   0  0  0  0  0  0  0  0  0  0  0  0
    0.3536    3.5045    1.7969 C   0  0  0  0  0  0  0  0  0  0  0  0
    6.0143   -0.7163    0.8766 C   0  0  0  0  0  0  0  0  0  0  0  0
    8.3288   -0.9499    0.0307 C   0  0  0  0  0  0  0  0  0  0  0  0
   -0.6248    4.2726    1.1656 C   0  0  0  0  0  0  0  0  0  0  0  0
    8.6184   -2.4192   -0.1969 C   0  0  0  0  0  0  0  0  0  0  0  0
  1 14  1  0
  1 15  1  0
  2 18  2  0
  3 21  1  0
  4 21  2  0
  5 22  2  0
  6 25  2  0
  7 30  2  0
  8 33  2  0
  9 14  1  0
  9 16  1  0
  9 18  1  0
 10 17  1  0
 10 22  1  0
 11 23  1  0
 11 25  1  0
 12 25  1  0
 12 28  1  0
 12 30  1  0
 13 29  1  0
 13 33  1  0
 13 34  1  0
 14 17  1  0
 15 16  1  0
 15 19  1  0
 15 20  1  0
 16 21  1  0
 17 18  1  0
 22 23  1  0
 23 24  1  0
 24 26  2  0
 24 27  1  0
 26 31  1  0
 27 32  2  0
 28 29  1  0
 30 33  1  0
 31 35  2  0
 32 35  1  0
 34 36  1  0
M  END
>  <PUBCHEM_COMPOUND_CID>  (1) 
43067

>  <PUBCHEM_CONFORMER_RMSD>  (1) 
1

>  <PUBCHEM_CONFORMER_DIVERSEORDER>  (1) 
1
55
85
116
43
28
66
80
36
14
87
70
58
98
79
67
26
84
82
57
53
95
63
35
76
18
111
2
75
106
77
109
44
41
37
88
29
104
69
3
11
20
31
83
81
16
93
34
103
90
5
38
40
115
25
27
73
45
100
112
61
62
50
13
64
71
8
72
114
94
110
46
102
9
74
33
49
4
56
39
113
118
21
32
15
42
65
89
22
97
30
91
60
108
19
59
23
99
101
78
17
24
86
52
48
107
12
6
10
54
105
68
96
47
7
92
51
117

>  <PUBCHEM_MMFF94_PARTIAL_CHARGES>  (1) 
41
1 -0.45
10 -0.65
11 -0.73
12 -0.42
13 -0.66
14 0.44
15 0.23
16 0.36
17 0.28
18 0.58
2 -0.57
21 0.66
22 0.57
23 0.5
24 -0.14
25 0.69
26 -0.15
27 -0.15
28 0.3
29 0.3
3 -0.65
30 0.63
31 -0.15
32 -0.15
33 0.63
34 0.3
35 -0.15
4 -0.57
46 0.37
48 0.5
49 0.37
5 -0.57
50 0.15
51 0.15
56 0.15
57 0.15
6 -0.57
60 0.15
7 -0.57
8 -0.57
9 -0.59

>  <PUBCHEM_EFFECTIVE_ROTOR_COUNT>  (1) 
10.6

>  <PUBCHEM_PHARMACOPHORE_FEATURES>  (1) 
14
1 10 donor
1 11 donor
1 2 acceptor
1 3 acceptor
1 4 acceptor
1 5 acceptor
1 6 acceptor
1 7 acceptor
1 8 acceptor
3 15 19 20 hydrophobe
3 3 4 21 anion
6 12 13 28 29 30 33 rings
6 24 26 27 31 32 35 rings
7 1 9 14 15 16 17 18 rings

>  <PUBCHEM_HEAVY_ATOM_COUNT>  (1) 
36

>  <PUBCHEM_ATOM_DEF_STEREO_COUNT>  (1) 
4

>  <PUBCHEM_ATOM_UDEF_STEREO_COUNT>  (1) 
0

>  <PUBCHEM_BOND_DEF_STEREO_COUNT>  (1) 
0

>  <PUBCHEM_BOND_UDEF_STEREO_COUNT>  (1) 
0

>  <PUBCHEM_ISOTOPIC_ATOM_COUNT>  (1) 
0

>  <PUBCHEM_COMPONENT_COUNT>  (1) 
1

>  <PUBCHEM_CACTVS_TAUTO_COUNT>  (1) 
4

>  <PUBCHEM_CONFORMER_ID>  (1) 
0000A83B00000001

>  <PUBCHEM_MMFF94_ENERGY>  (1) 
90.4981

>  <PUBCHEM_FEATURE_SELFOVERLAP>  (1) 
71.117

>  <PUBCHEM_SHAPE_FINGERPRINT>  (1) 
10165383 225 17603861166867424511
102385 1 17695353577028057550
11331351 85 17632866325603676345
11456790 92 18336845160348500369
12166972 35 17894916264545588309
12516196 113 18343863342066605166
12645989 146 18200302342817451479
12760667 363 18412543206598607766
12788726 201 18337667521208868442
13726171 33 15286740419115504629
13782708 43 18042973262548791371
14068700 675 18408882945591518348
14279260 333 18336546014890292263
14294032 229 18120656833894646468
14347329 18 17241863460165266365
15131766 46 15767494388307010880
15183329 4 17458056067162188110
15328829 1 18040435460883392584
16994733 274 15430026652121771157
19841028 212 17168132388224221218
21223535 225 17775569694333139025
21792961 116 18187081732815429967
21792965 169 18261123967301198742
24893992 56 18409735097832246499
3004659 81 17968092041135409622
4073 2 15719683164186134010
4098825 35 16805041839207356078
4258327 124 9654995811234960330
42626532 9 17241904262143802265
437815 12 18131345323697697409
4403749 210 9943521891267702959
504579 68 17968392191025419990
5171179 24 18059843013244839041
5265222 85 17313387876071732290
57527293 21 17131539640355234436
5758199 1 11602815787881221479
5969126 39 18201999902491914116
6009941 240 17458346329852755371
6086070 43 18338505461361102567
6703917 75 11602825649062913956
7226269 152 18335980896094249197

>  <PUBCHEM_SHAPE_MULTIPOLES>  (1) 
678.72
22.1
3.42
1.9
21.26
4.86
-0.07
-16.76
-0.88
-1.27
1.2
-1
0.01
0.06

>  <PUBCHEM_SHAPE_SELFOVERLAP>  (1) 
1432.077

>  <PUBCHEM_SHAPE_VOLUME>  (1) 
382.7

>  <PUBCHEM_COORDINATE_TYPE>  (1) 
2
5
10

$$$$
