43079
     RDKit          3D

 24 26  0  0  0  0  0  0  0  0999 V2000
    5.8460    1.3915   -0.3299 F   0  0  0  0  0  0  0  0  0  0  0  0
    4.8624    0.3823   -1.9786 F   0  0  0  0  0  0  0  0  0  0  0  0
    4.1060    2.2944   -1.2708 F   0  0  0  0  0  0  0  0  0  0  0  0
   -0.8219    1.0407    0.9597 O   0  0  0  0  0  0  0  0  0  0  0  0
   -1.2900   -2.6072   -0.7586 N   0  0  0  0  0  0  0  0  0  0  0  0
    0.2112   -0.9780    0.2264 C   0  0  0  0  0  0  0  0  0  0  0  0
   -2.2928   -0.4951   -0.1166 C   0  0  0  0  0  0  0  0  0  0  0  0
    1.5749   -0.6017    0.6332 C   0  0  0  0  0  0  0  0  0  0  0  0
   -0.9543   -0.0438    0.3991 C   0  0  0  0  0  0  0  0  0  0  0  0
   -0.0442   -2.1734   -0.3329 C   0  0  0  0  0  0  0  0  0  0  0  0
   -2.3558   -1.7277   -0.6495 C   0  0  0  0  0  0  0  0  0  0  0  0
   -3.4798    0.3734   -0.0601 C   0  0  0  0  0  0  0  0  0  0  0  0
    2.4213    0.0485   -0.2675 C   0  0  0  0  0  0  0  0  0  0  0  0
    2.0266   -0.8932    1.9222 C   0  0  0  0  0  0  0  0  0  0  0  0
    3.7130    0.4056    0.1189 C   0  0  0  0  0  0  0  0  0  0  0  0
   -1.4562   -3.9124   -1.3904 C   0  0  0  0  0  0  0  0  0  0  0  0
    4.1615    0.1133    1.4069 C   0  0  0  0  0  0  0  0  0  0  0  0
    3.3183   -0.5362    2.3086 C   0  0  0  0  0  0  0  0  0  0  0  0
   -4.3256    0.3327    1.0505 C   0  0  0  0  0  0  0  0  0  0  0  0
   -3.7641    1.2414   -1.1165 C   0  0  0  0  0  0  0  0  0  0  0  0
    4.6142    1.1016   -0.8441 C   0  0  0  0  0  0  0  0  0  0  0  0
   -5.4502    1.1561    1.1045 C   0  0  0  0  0  0  0  0  0  0  0  0
   -4.8887    2.0649   -1.0625 C   0  0  0  0  0  0  0  0  0  0  0  0
   -5.7318    2.0221    0.0480 C   0  0  0  0  0  0  0  0  0  0  0  0
  1 21  1  0
  2 21  1  0
  3 21  1  0
  4  9  2  0
  5 10  1  0
  5 11  1  0
  5 16  1  0
  6  8  1  0
  6  9  1  0
  6 10  2  0
  7  9  1  0
  7 11  2  0
  7 12  1  0
  8 13  2  0
  8 14  1  0
 12 19  2  0
 12 20  1  0
 13 15  1  0
 14 18  2  0
 15 17  2  0
 15 21  1  0
 17 18  1  0
 19 22  1  0
 20 23  2  0
 22 24  2  0
 23 24  1  0
M  END
>  <PUBCHEM_COMPOUND_CID>  (1) 
43079

>  <PUBCHEM_CONFORMER_RMSD>  (1) 
0.6

>  <PUBCHEM_CONFORMER_DIVERSEORDER>  (1) 
1
9
12
4
2
11
10
6
3
5
7
8

>  <PUBCHEM_MMFF94_PARTIAL_CHARGES>  (1) 
35
1 -0.34
10 -0.05
11 -0.05
12 0.03
13 -0.15
14 -0.15
15 -0.14
16 0.37
17 -0.15
18 -0.15
19 -0.15
2 -0.34
20 -0.15
21 1.16
22 -0.15
23 -0.15
24 -0.15
25 0.15
26 0.15
27 0.15
28 0.15
3 -0.34
32 0.15
33 0.15
34 0.15
35 0.15
36 0.15
37 0.15
38 0.15
4 -0.57
5 -0.57
6 -0.01
7 -0.01
8 0.03
9 0.54

>  <PUBCHEM_EFFECTIVE_ROTOR_COUNT>  (1) 
3

>  <PUBCHEM_PHARMACOPHORE_FEATURES>  (1) 
5
1 4 acceptor
1 5 cation
6 12 19 20 22 23 24 rings
6 5 6 7 9 10 11 rings
6 8 13 14 15 17 18 rings

>  <PUBCHEM_HEAVY_ATOM_COUNT>  (1) 
24

>  <PUBCHEM_ATOM_DEF_STEREO_COUNT>  (1) 
0

>  <PUBCHEM_ATOM_UDEF_STEREO_COUNT>  (1) 
0

>  <PUBCHEM_BOND_DEF_STEREO_COUNT>  (1) 
0

>  <PUBCHEM_BOND_UDEF_STEREO_COUNT>  (1) 
0

>  <PUBCHEM_ISOTOPIC_ATOM_COUNT>  (1) 
0

>  <PUBCHEM_COMPONENT_COUNT>  (1) 
1

>  <PUBCHEM_CACTVS_TAUTO_COUNT>  (1) 
1

>  <PUBCHEM_CONFORMER_ID>  (1) 
0000A84700000001

>  <PUBCHEM_MMFF94_ENERGY>  (1) 
68.2965

>  <PUBCHEM_FEATURE_SELFOVERLAP>  (1) 
25.373

>  <PUBCHEM_SHAPE_FINGERPRINT>  (1) 
10498660 4 18273494598062897816
105312 117 18273213110106456735
10591671 39 18341611551602509919
10670039 82 18199759050481548088
10794284 68 17539445371410458083
11796584 16 12751231472500171757
12236239 1 18260261958701122946
12390115 104 18131075935423517995
12403259 118 18041545958847711801
12596602 18 17095525063556626569
12616971 3 17968084327189477954
12788726 201 18120363513524708211
12892183 10 16515685494703417057
12895836 83 18412265068474155120
12895837 130 18118132596115952716
12969540 114 18272927194455198157
13583140 156 16951388941572428727
13911987 19 18341889667809566381
14341114 328 17676210156544587657
1454969 45 18410856599486920719
14790565 3 18271815575236260409
14848178 5 10952053333717589348
14950920 106 16515673404043905833
15163728 17 18269844116616888573
15188451 53 14129356100223655673
15806764 133 17273698860773111114
15842332 3 18043505374383800522
1601671 61 18410854339179036745
16752209 62 18127677421553430550
17857418 61 11600004344875292853
1813 80 12035739673871832515
18222031 100 11674892060921810667
18785283 64 18122059806557832799
19377110 9 17023195954523109211
19784866 34 17987506040695648427
204376 136 18342170026031203531
21120745 212 17831306360642383503
21756936 100 17968100888609751426
22079108 93 17022908977139469505
22620623 9 17559947904218862071
23559900 14 17846501457040554746
23569917 315 18129083568746815951
3057174 1 18059568028227275271
312425 54 15068623734725195497
314173 85 11674882165301465987
3472631 163 18410577326963484324
350125 39 17983857783135499858
38570 142 17677351475726868924
4058900 60 18195820574482414043
439807 62 12391211839404751693
458136 41 18129102217435960711
5104073 3 16733266742670661209
59682541 52 15840988850094036781
59755656 520 16988580004498443051
633830 44 17749110032651234874
7808743 9 18410855494551236229
960060 61 15626224632722708488

>  <PUBCHEM_SHAPE_MULTIPOLES>  (1) 
461.24
12.67
2.78
1.67
0.13
2.74
0.34
-11.07
-1.01
1.82
-1.63
-1.54
-0.06
-1.41

>  <PUBCHEM_SHAPE_SELFOVERLAP>  (1) 
1011.169

>  <PUBCHEM_SHAPE_VOLUME>  (1) 
251.4

>  <PUBCHEM_COORDINATE_TYPE>  (1) 
2
5
10

$$$$
