43088
     RDKit          3D

 25 27  0  0  0  0  0  0  0  0999 V2000
   -1.8081    1.0038    2.2371 Cl  0  0  0  0  0  0  0  0  0  0  0  0
    2.4100   -3.9167    0.0516 O   0  0  0  0  0  0  0  0  0  0  0  0
   -1.9981    2.1348   -1.5778 O   0  0  0  0  0  0  0  0  0  0  0  0
    4.9054    2.4146    0.8926 O   0  0  0  0  0  0  0  0  0  0  0  0
    2.8923    1.8792    1.7991 O   0  0  0  0  0  0  0  0  0  0  0  0
   -0.3730    0.7958   -0.7474 N   0  0  0  0  0  0  0  0  0  0  0  0
   -3.9897   -0.2882    1.7691 N   0  0  0  0  0  0  0  0  0  0  0  0
    1.8636    0.9768   -0.6028 C   0  0  0  0  0  0  0  0  0  0  0  0
    1.5299   -0.3897   -0.4554 C   0  0  0  0  0  0  0  0  0  0  0  0
    0.1345   -0.4920   -0.5429 C   0  0  0  0  0  0  0  0  0  0  0  0
    0.6939    1.6741   -0.7714 C   0  0  0  0  0  0  0  0  0  0  0  0
    3.2257    1.5513   -0.5749 C   0  0  0  0  0  0  0  0  0  0  0  0
    2.3011   -1.5532   -0.2519 C   0  0  0  0  0  0  0  0  0  0  0  0
   -0.5013   -1.7444   -0.4402 C   0  0  0  0  0  0  0  0  0  0  0  0
    0.5519    3.1378   -0.9584 C   0  0  0  0  0  0  0  0  0  0  0  0
   -1.7293    1.1682   -0.8721 C   0  0  0  0  0  0  0  0  0  0  0  0
    1.6667   -2.7924   -0.1447 C   0  0  0  0  0  0  0  0  0  0  0  0
    0.2840   -2.8842   -0.2390 C   0  0  0  0  0  0  0  0  0  0  0  0
   -2.8556    0.4692   -0.2237 C   0  0  0  0  0  0  0  0  0  0  0  0
    3.6354    1.9423    0.8277 C   0  0  0  0  0  0  0  0  0  0  0  0
   -3.8461   -0.0967   -1.0160 C   0  0  0  0  0  0  0  0  0  0  0  0
   -2.9702    0.3484    1.1500 C   0  0  0  0  0  0  0  0  0  0  0  0
   -4.9109   -0.7598   -0.4159 C   0  0  0  0  0  0  0  0  0  0  0  0
    3.8241   -3.7520    0.1392 C   0  0  0  0  0  0  0  0  0  0  0  0
   -4.9359   -0.8271    0.9679 C   0  0  0  0  0  0  0  0  0  0  0  0
  1 22  1  0
  2 17  1  0
  2 24  1  0
  3 16  2  0
  4 20  1  0
  5 20  2  0
  6 10  1  0
  6 11  1  0
  6 16  1  0
  7 22  2  0
  7 25  1  0
  8  9  1  0
  8 11  2  0
  8 12  1  0
  9 10  2  0
  9 13  1  0
 10 14  1  0
 11 15  1  0
 12 20  1  0
 13 17  2  0
 14 18  2  0
 16 19  1  0
 17 18  1  0
 19 21  2  0
 19 22  1  0
 21 23  1  0
 23 25  2  0
M  END
>  <PUBCHEM_COMPOUND_CID>  (1) 
43088

>  <PUBCHEM_CONFORMER_RMSD>  (1) 
0.8

>  <PUBCHEM_CONFORMER_DIVERSEORDER>  (1) 
1
15
31
22
30
29
28
26
34
24
23
27
12
5
33
18
9
32
17
6
21
19
25
13
37
3
16
10
36
8
2
20
35
14
11
7
4

>  <PUBCHEM_MMFF94_PARTIAL_CHARGES>  (1) 
31
1 -0.18
10 -0.15
11 -0.33
12 0.24
13 -0.15
14 -0.15
15 0.18
16 0.49
17 0.08
18 -0.15
19 0.09
2 -0.36
20 0.66
21 -0.15
22 0.49
23 -0.15
24 0.28
25 0.16
28 0.15
29 0.15
3 -0.57
33 0.15
34 0.15
35 0.15
39 0.5
4 -0.65
40 0.15
5 -0.57
6 0.29
7 -0.62
8 -0.18

>  <PUBCHEM_EFFECTIVE_ROTOR_COUNT>  (1) 
5

>  <PUBCHEM_PHARMACOPHORE_FEATURES>  (1) 
9
1 2 acceptor
1 3 acceptor
1 4 acceptor
1 5 acceptor
1 7 acceptor
3 4 5 20 anion
5 6 8 9 10 11 rings
6 7 19 21 22 23 25 rings
6 9 10 13 14 17 18 rings

>  <PUBCHEM_HEAVY_ATOM_COUNT>  (1) 
25

>  <PUBCHEM_ATOM_DEF_STEREO_COUNT>  (1) 
0

>  <PUBCHEM_ATOM_UDEF_STEREO_COUNT>  (1) 
0

>  <PUBCHEM_BOND_DEF_STEREO_COUNT>  (1) 
0

>  <PUBCHEM_BOND_UDEF_STEREO_COUNT>  (1) 
0

>  <PUBCHEM_ISOTOPIC_ATOM_COUNT>  (1) 
0

>  <PUBCHEM_COMPONENT_COUNT>  (1) 
1

>  <PUBCHEM_CACTVS_TAUTO_COUNT>  (1) 
1

>  <PUBCHEM_CONFORMER_ID>  (1) 
0000A85000000001

>  <PUBCHEM_MMFF94_ENERGY>  (1) 
74.399

>  <PUBCHEM_FEATURE_SELFOVERLAP>  (1) 
45.82

>  <PUBCHEM_SHAPE_FINGERPRINT>  (1) 
10074138 170 17760342780747446170
10906281 52 17749399178160384165
1100329 8 17980761854765719701
11578080 2 18270677568059261761
11582403 64 16525196472474723389
12156800 1 17549510330483335923
12293681 25 17677353678612893707
12403259 226 18192428559266980478
12553582 1 17976841799702788527
12788726 201 16678087493663347250
12839892 36 18191862533842551771
13140716 1 17977948213100130141
13540713 4 18116142290779478053
13911987 19 18189901009552251677
14223421 5 18335417903059273197
14341114 328 17489315217299811513
14787075 74 17559392663842318297
14790565 3 17974298921186203604
14844126 61 16963507552259380850
14863182 85 18261122910238239622
15475509 84 17840322020676866625
16945 1 18335145348808939717
17974551 9 17616861705690602857
1813 80 17984435031019680398
19591789 44 18409453574740652278
20028762 73 17909833467923314551
20101258 96 17976544914319622662
204376 136 18267024040589356828
20511986 3 18131063849712237327
20603629 256 18341901748877011995
20642791 105 17834666476292021803
20642791 268 17772758169231740938
20739085 24 18336561429401258716
20771845 171 17749399203776765558
221490 88 18189620449287211615
22182313 1 18188197724090043140
22224240 67 18198337553607992193
23419403 2 17825365415722795502
23559900 14 17895475804347425071
2748010 2 18261948531743728884
3421961 26 18336551512506459847
350125 39 18410857625176762118
392239 28 17700707421714256355
427121 178 18130233769139638624
4340502 62 18128828606575569547
458136 41 18411989087103267100
465052 167 17531811397347754289
469060 322 18046899657231235263
474 4 17702383051127671240
5104073 3 18340498777115445091
5265222 85 18263644125889758676
58807428 26 18339070622884766002
59755656 520 18059012920762199452
7288768 16 17054960982715055856
81228 2 17691961983462353918
9709674 26 18114462263056080165

>  <PUBCHEM_SHAPE_MULTIPOLES>  (1) 
482.92
8.37
4.06
1.49
4.43
2.81
0.72
0.56
2.46
-6.18
-0.21
0.88
-0.88
0.81

>  <PUBCHEM_SHAPE_SELFOVERLAP>  (1) 
1050.091

>  <PUBCHEM_SHAPE_VOLUME>  (1) 
265.5

>  <PUBCHEM_COORDINATE_TYPE>  (1) 
2
5
10

$$$$
