43085
     RDKit          3D

 36 39  0  0  1  0  0  0  0  0999 V2000
   -3.7649   -2.6626    0.5864 S   0  0  0  0  0  0  0  0  0  0  0  0
    7.0549   -0.9704    1.5181 S   0  0  0  0  0  0  0  0  0  0  0  0
   -4.5821    0.2953   -2.5729 O   0  0  0  0  0  0  0  0  0  0  0  0
   -7.8648    0.0341    0.2837 O   0  0  0  0  0  0  0  0  0  0  0  0
   -6.1435    1.2033    1.2143 O   0  0  0  0  0  0  0  0  0  0  0  0
    0.0564   -1.3051   -0.4672 O   0  0  0  0  0  0  0  0  0  0  0  0
    2.6037   -0.4031   -2.8102 O   0  0  0  0  0  0  0  0  0  0  0  0
    4.1031    0.0691    1.1985 O   0  0  0  0  0  0  0  0  0  0  0  0
    6.3750   -0.6386    2.7598 O   0  0  0  0  0  0  0  0  0  0  0  0
    7.9735   -2.0957    1.4531 O   0  0  0  0  0  0  0  0  0  0  0  0
   -4.4391   -0.3198   -0.2989 N   0  0  0  0  0  0  0  0  0  0  0  0
   -1.5252    0.1357   -1.3643 N   0  0  0  0  0  0  0  0  0  0  0  0
    2.0656    0.4353   -0.7268 N   0  0  0  0  0  0  0  0  0  0  0  0
    4.1365   -0.6217   -1.0722 N   0  0  0  0  0  0  0  0  0  0  0  0
    5.9264   -1.0865    0.2668 N   0  0  0  0  0  0  0  0  0  0  0  0
   -3.2066   -0.9761    0.1469 C   0  0  0  0  0  0  0  0  0  0  0  0
   -5.4362   -2.0180    1.0972 C   0  0  0  0  0  0  0  0  0  0  0  0
   -5.7160   -0.8871    0.0843 C   0  0  0  0  0  0  0  0  0  0  0  0
   -2.6630   -0.7766   -1.2746 C   0  0  0  0  0  0  0  0  0  0  0  0
   -4.0218   -0.1163   -1.5824 C   0  0  0  0  0  0  0  0  0  0  0  0
   -5.3376   -1.5553    2.5571 C   0  0  0  0  0  0  0  0  0  0  0  0
   -6.4632   -3.1450    0.9726 C   0  0  0  0  0  0  0  0  0  0  0  0
   -6.5614    0.2353    0.5963 C   0  0  0  0  0  0  0  0  0  0  0  0
   -0.2389   -0.2116   -0.9456 C   0  0  0  0  0  0  0  0  0  0  0  0
    0.7597    0.9286   -1.0966 C   0  0  0  0  0  0  0  0  0  0  0  0
    0.3612    2.1360   -0.2803 C   0  0  0  0  0  0  0  0  0  0  0  0
    2.9050   -0.2061   -1.6305 C   0  0  0  0  0  0  0  0  0  0  0  0
    5.0805   -1.3953   -1.8776 C   0  0  0  0  0  0  0  0  0  0  0  0
    6.3874   -1.4494   -1.0900 C   0  0  0  0  0  0  0  0  0  0  0  0
    4.6326   -0.4773    0.2421 C   0  0  0  0  0  0  0  0  0  0  0  0
    0.7115    3.4156   -0.7111 C   0  0  0  0  0  0  0  0  0  0  0  0
   -0.3574    1.9711    0.9039 C   0  0  0  0  0  0  0  0  0  0  0  0
    0.3435    4.5304    0.0423 C   0  0  0  0  0  0  0  0  0  0  0  0
   -0.7255    3.0859    1.6572 C   0  0  0  0  0  0  0  0  0  0  0  0
    7.9459    0.4765    0.9944 C   0  0  0  0  0  0  0  0  0  0  0  0
   -0.3751    4.3655    1.2263 C   0  0  0  0  0  0  0  0  0  0  0  0
  1 16  1  0
  1 17  1  0
  2  9  2  0
  2 10  2  0
  2 15  1  0
  2 35  1  0
  3 20  2  0
  4 23  1  0
  5 23  2  0
  6 24  2  0
  7 27  2  0
  8 30  2  0
 11 16  1  0
 11 18  1  0
 11 20  1  0
 12 19  1  0
 12 24  1  0
 13 25  1  0
 13 27  1  0
 14 27  1  0
 14 28  1  0
 14 30  1  0
 15 29  1  0
 15 30  1  0
 16 19  1  0
 17 18  1  0
 17 21  1  0
 17 22  1  0
 18 23  1  0
 19 20  1  0
 24 25  1  0
 25 26  1  0
 26 31  2  0
 26 32  1  0
 28 29  1  0
 31 33  1  0
 32 34  2  0
 33 36  2  0
 34 36  1  0
M  END
>  <PUBCHEM_COMPOUND_CID>  (1) 
43085

>  <PUBCHEM_CONFORMER_RMSD>  (1) 
1.4

>  <PUBCHEM_CONFORMER_DIVERSEORDER>  (1) 
1
155
159
113
75
163
146
120
168
123
77
70
132
148
175
68
104
171
71
151
6
39
136
49
121
24
51
83
176
147
62
125
109
25
167
87
179
130
180
3
127
32
63
143
141
129
105
58
45
182
166
73
126
103
30
10
122
160
152
29
96
107
97
27
26
174
119
140
157
9
46
4
85
133
31
154
79
93
12
134
33
74
99
116
8
162
161
172
55
38
84
90
13
81
34
183
173
40
50
76
169
59
42
112
111
153
47
2
91
65
22
149
181
158
67
21
56
145
114
7
118
16
165
124
35
82
178
48
14
69
17
92
52
18
128
117
43
106
11
57
72
28
5
61
164
98
15
23
156
177
20
89
78
95
41
19
150
54
60
115
88
100
108
66
131
86
142
110
44
137
80
37
36
170
139
64
102
101
138
53
94
144
135

>  <PUBCHEM_MMFF94_PARTIAL_CHARGES>  (1) 
42
1 -0.45
10 -0.65
11 -0.59
12 -0.65
13 -0.73
14 -0.42
15 -0.73
16 0.44
17 0.23
18 0.36
19 0.28
2 1.33
20 0.58
23 0.66
24 0.57
25 0.5
26 -0.14
27 0.69
28 0.3
29 0.36
3 -0.57
30 0.87
31 -0.15
32 -0.15
33 -0.15
34 -0.15
35 0.11
36 -0.15
4 -0.65
46 0.37
48 0.5
49 0.37
5 -0.57
54 0.15
55 0.15
56 0.15
57 0.15
6 -0.57
61 0.15
7 -0.57
8 -0.57
9 -0.65

>  <PUBCHEM_EFFECTIVE_ROTOR_COUNT>  (1) 
10.6

>  <PUBCHEM_PHARMACOPHORE_FEATURES>  (1) 
16
1 10 acceptor
1 12 donor
1 13 donor
1 3 acceptor
1 4 acceptor
1 5 acceptor
1 6 acceptor
1 7 acceptor
1 8 acceptor
1 9 acceptor
3 17 21 22 hydrophobe
3 4 5 23 anion
4 11 16 19 20 rings
5 14 15 28 29 30 rings
6 26 31 32 33 34 36 rings
7 1 11 16 17 18 19 20 rings

>  <PUBCHEM_HEAVY_ATOM_COUNT>  (1) 
36

>  <PUBCHEM_ATOM_DEF_STEREO_COUNT>  (1) 
0

>  <PUBCHEM_ATOM_UDEF_STEREO_COUNT>  (1) 
4

>  <PUBCHEM_BOND_DEF_STEREO_COUNT>  (1) 
0

>  <PUBCHEM_BOND_UDEF_STEREO_COUNT>  (1) 
0

>  <PUBCHEM_ISOTOPIC_ATOM_COUNT>  (1) 
0

>  <PUBCHEM_COMPONENT_COUNT>  (1) 
1

>  <PUBCHEM_CACTVS_TAUTO_COUNT>  (1) 
4

>  <PUBCHEM_CONFORMER_ID>  (1) 
0000A84D00000001

>  <PUBCHEM_MMFF94_ENERGY>  (1) 
89.0807

>  <PUBCHEM_FEATURE_SELFOVERLAP>  (1) 
85.012

>  <PUBCHEM_SHAPE_FINGERPRINT>  (1) 
10674148 151 15936406732763759261
10721379 63 17825414000129571900
11136131 41 17907016536223494873
11456790 92 18338814364315392993
11646440 116 18412548716899561398
12166972 35 17676209087234699156
12422481 6 17632860814944305261
13673619 4 18041006189091133031
13782708 43 18041565861858303007
14028597 1 18187928313760700602
14068700 675 18040433287714291460
14955137 171 18341900718337958087
15131766 46 15337684233468591170
15183329 4 12685089264099395156
15320295 40 17846495916781137097
16664035 7 17775001332878868489
17980427 23 14764347167397222265
19841028 212 16951674806813260898
21033648 29 17131843023538135043
21344244 181 13912327871449698032
21344244 78 17702962442690031745
21792934 111 18202280277593000133
21792938 324 17988931054815481529
21927370 108 18410857621399311604
22122407 14 14333120936024568426
23522609 53 17315107452597225981
23559900 14 17969507203089888101
23845131 108 17193773917341640824
24771293 8 17632854248023329484
24893992 56 18336273401728397321
2747138 104 18341899584951959926
4169191 19 15195566801273524371
469060 322 18336560304520916280
6009941 240 18115015317115097589
6086070 43 18410566315426687047
613672 6 18342460335159563126
6523845 18 10809349914582623437
9962374 69 18127690650891524743

>  <PUBCHEM_SHAPE_MULTIPOLES>  (1) 
676.7
21.39
3.94
2.26
13.19
5.48
-0.08
-17.68
9.99
-1.43
1.64
1.25
-0.49
0.77

>  <PUBCHEM_SHAPE_SELFOVERLAP>  (1) 
1413.252

>  <PUBCHEM_SHAPE_VOLUME>  (1) 
386.1

>  <PUBCHEM_COORDINATE_TYPE>  (1) 
2
5
10

$$$$
