4309
     RDKit          3D

 17 19  0  0  0  0  0  0  0  0999 V2000
    1.0600    0.9119    0.3205 N   0  0  0  0  0  0  0  0  0  0  0  0
   -0.3158    0.6860    0.5983 N   0  0  0  0  0  0  0  0  0  0  0  0
    1.6070    2.1277    0.1562 N   0  0  0  0  0  0  0  0  0  0  0  0
    2.9017    1.9546   -0.0867 N   0  0  0  0  0  0  0  0  0  0  0  0
    1.9854   -0.0827    0.1885 C   0  0  0  0  0  0  0  0  0  0  0  0
   -1.0870    0.4660   -0.6267 C   0  0  0  0  0  0  0  0  0  0  0  0
   -2.5171    0.0994   -0.3310 C   0  0  0  0  0  0  0  0  0  0  0  0
    3.1600    0.6093   -0.0726 C   0  0  0  0  0  0  0  0  0  0  0  0
    1.9107   -1.4715    0.2693 C   0  0  0  0  0  0  0  0  0  0  0  0
    4.3515   -0.1038   -0.2697 C   0  0  0  0  0  0  0  0  0  0  0  0
   -2.8624   -1.2360   -0.1774 C   0  0  0  0  0  0  0  0  0  0  0  0
   -3.4699    1.1021   -0.2157 C   0  0  0  0  0  0  0  0  0  0  0  0
    3.1061   -2.1712    0.0708 C   0  0  0  0  0  0  0  0  0  0  0  0
    4.3050   -1.5019   -0.1938 C   0  0  0  0  0  0  0  0  0  0  0  0
   -4.1873   -1.5757    0.0967 C   0  0  0  0  0  0  0  0  0  0  0  0
   -4.7947    0.7624    0.0586 C   0  0  0  0  0  0  0  0  0  0  0  0
   -5.1532   -0.5766    0.2147 C   0  0  0  0  0  0  0  0  0  0  0  0
  1  2  1  0
  1  3  1  0
  1  5  1  0
  2  6  1  0
  3  4  2  0
  4  8  1  0
  5  8  2  0
  5  9  1  0
  6  7  1  0
  7 11  2  0
  7 12  1  0
  8 10  1  0
  9 13  2  0
 10 14  2  0
 11 15  1  0
 12 16  2  0
 13 14  1  0
 15 17  2  0
 16 17  1  0
M  END
>  <PUBCHEM_COMPOUND_CID>  (1) 
4309

>  <PUBCHEM_CONFORMER_RMSD>  (1) 
0.6

>  <PUBCHEM_CONFORMER_DIVERSEORDER>  (1) 
1
6
10
13
2
7
3
9
12
4
5
8
11

>  <PUBCHEM_MMFF94_PARTIAL_CHARGES>  (1) 
27
1 0.72
10 -0.15
11 -0.15
12 -0.15
13 -0.15
14 -0.15
15 -0.15
16 -0.15
17 -0.15
2 -0.78
20 0.36
21 0.15
22 0.15
23 0.15
24 0.15
25 0.15
26 0.15
27 0.15
28 0.15
29 0.15
3 -0.42
4 -0.23
5 -0.15
6 0.41
7 -0.14
8 0.23
9 -0.15

>  <PUBCHEM_EFFECTIVE_ROTOR_COUNT>  (1) 
3

>  <PUBCHEM_PHARMACOPHORE_FEATURES>  (1) 
4
1 2 donor
5 1 3 4 5 8 rings
6 5 8 9 10 13 14 rings
6 7 11 12 15 16 17 rings

>  <PUBCHEM_HEAVY_ATOM_COUNT>  (1) 
17

>  <PUBCHEM_ATOM_DEF_STEREO_COUNT>  (1) 
0

>  <PUBCHEM_ATOM_UDEF_STEREO_COUNT>  (1) 
0

>  <PUBCHEM_BOND_DEF_STEREO_COUNT>  (1) 
0

>  <PUBCHEM_BOND_UDEF_STEREO_COUNT>  (1) 
0

>  <PUBCHEM_ISOTOPIC_ATOM_COUNT>  (1) 
0

>  <PUBCHEM_COMPONENT_COUNT>  (1) 
1

>  <PUBCHEM_CACTVS_TAUTO_COUNT>  (1) 
1

>  <PUBCHEM_CONFORMER_ID>  (1) 
000010D500000001

>  <PUBCHEM_MMFF94_ENERGY>  (1) 
32.883

>  <PUBCHEM_FEATURE_SELFOVERLAP>  (1) 
20.402

>  <PUBCHEM_SHAPE_FINGERPRINT>  (1) 
10616163 171 18268711778396333367
11128504 68 16153718625723746286
11405975 8 18412545401432566593
11471102 20 18410291411011317812
11806522 49 18410012118168039960
12107183 9 17908991998135663497
12596602 18 16773794839769694091
12616999 72 18260554437373450780
128620 24 14273456968224015519
13167823 11 18413107281891684167
13533116 47 18341891957063616447
13675066 3 17917985070842047185
14252887 29 17703794691488119166
14341114 176 18411989052701265689
14576447 43 18410577258586775030
14866123 147 17262161320127287979
15188451 53 15194700408255255525
15196674 1 18410855468924156023
15242433 33 18410857646398579255
15442244 35 18340488846423452121
15477762 27 18409730643175518020
15536298 74 18412260653231723267
17834072 33 18412262861171961103
17834074 16 18408603682111306787
17844677 252 18410018732244180637
1813 80 17095525097662806661
18186145 218 17822283587545466051
19422 9 18413109467887437553
200 152 18273215296260387611
20281475 54 18409448059485497181
20645477 70 18413953879721827198
21065198 57 18410855482157087613
21250096 35 18201717323417990482
21267235 1 18412271613988483470
221490 88 18335989765106873890
2215653 11 18410848829421389255
22646028 28 18272652329011188819
23402539 116 16732697225495277508
23402655 69 18410294700819116548
23557571 272 17312814974831703693
23559900 14 18410848884871257665
239999 70 18272939332285958534
2838139 119 15937269922843533534
2871803 45 18187076261137702103
3004659 81 18188492368043449382
314173 41 18411986832150504294
3268164 11 16226038977687510607
3323516 105 18334012795813002570
33824 294 18409445908339813322
42 15 18410576180328138925
4214541 1 18410292480669378973
465052 167 18272938236631786023
4921388 177 16588318215022334443
5104073 3 18411981373305042089
5281201 14 18040152911542470237
543358 83 18338521841558929794
58051976 100 18410574002822008999
77779 3 18410012152338010645
9709674 26 18262240044396717435

>  <PUBCHEM_SHAPE_MULTIPOLES>  (1) 
329.93
11.12
2.03
0.67
6.3
0.08
-0.02
2.67
-0.2
-1.25
0.07
0.05
0
0.12

>  <PUBCHEM_SHAPE_SELFOVERLAP>  (1) 
719.2

>  <PUBCHEM_SHAPE_VOLUME>  (1) 
181.1

>  <PUBCHEM_COORDINATE_TYPE>  (1) 
2
5
10

$$$$
