43098
     RDKit          3D

 20 22  0  0  1  0  0  0  0  0999 V2000
   -0.3282   -1.0663    1.2137 O   0  0  0  0  0  0  0  0  0  0  0  0
   -2.5191   -0.0096    0.2672 N   0  0  0  0  0  0  0  0  0  0  0  0
    1.0425    0.4488    0.0907 N   0  0  0  0  0  0  0  0  0  0  0  0
   -3.7937    0.7304    0.1198 C   0  0  0  0  0  0  0  0  0  0  0  0
   -4.9775   -0.2542    0.0338 C   0  0  0  0  0  0  0  0  0  0  0  0
   -2.3155   -0.9469   -0.8515 C   0  0  0  0  0  0  0  0  0  0  0  0
   -4.7950   -1.2667   -1.0892 C   0  0  0  0  0  0  0  0  0  0  0  0
   -3.4502   -1.9635   -0.9536 C   0  0  0  0  0  0  0  0  0  0  0  0
    1.2908    1.7213   -0.6505 C   0  0  0  0  0  0  0  0  0  0  0  0
   -1.3598    0.8823    0.3639 C   0  0  0  0  0  0  0  0  0  0  0  0
    2.6417    1.5350   -1.3730 C   0  0  0  0  0  0  0  0  0  0  0  0
   -0.1637   -0.0068    0.6060 C   0  0  0  0  0  0  0  0  0  0  0  0
    2.2765   -0.2398    0.1830 C   0  0  0  0  0  0  0  0  0  0  0  0
   -4.0572    1.6937    1.2860 C   0  0  0  0  0  0  0  0  0  0  0  0
    3.2355    0.3911   -0.6141 C   0  0  0  0  0  0  0  0  0  0  0  0
    1.3618    2.9149    0.3091 C   0  0  0  0  0  0  0  0  0  0  0  0
    2.6009   -1.3783    0.9058 C   0  0  0  0  0  0  0  0  0  0  0  0
    4.5318   -0.0915   -0.7052 C   0  0  0  0  0  0  0  0  0  0  0  0
    3.9095   -1.8666    0.8280 C   0  0  0  0  0  0  0  0  0  0  0  0
    4.8687   -1.2273    0.0301 C   0  0  0  0  0  0  0  0  0  0  0  0
  1 12  2  0
  2  4  1  0
  2  6  1  0
  2 10  1  0
  3  9  1  0
  3 12  1  0
  3 13  1  0
  4  5  1  0
  4 14  1  0
  5  7  1  0
  6  8  1  0
  7  8  1  0
  9 11  1  0
  9 16  1  0
 10 12  1  0
 11 15  1  0
 13 15  2  0
 13 17  1  0
 15 18  1  0
 17 19  2  0
 18 20  2  0
 19 20  1  0
M  END
>  <PUBCHEM_COMPOUND_CID>  (1) 
43098

>  <PUBCHEM_CONFORMER_RMSD>  (1) 
0.6

>  <PUBCHEM_CONFORMER_DIVERSEORDER>  (1) 
3
7
39
32
47
49
25
10
30
42
31
9
38
11
34
33
36
26
41
12
19
23
35
40
46
44
24
15
48
14
17
18
37
43
28
5
21
29
45
6
22
8
20
27
16
2
13
1
4

>  <PUBCHEM_MMFF94_PARTIAL_CHARGES>  (1) 
19
1 -0.57
10 0.33
11 0.14
12 0.57
13 0.12
15 -0.14
17 -0.15
18 -0.15
19 -0.15
2 -0.81
20 -0.15
3 -0.48
4 0.27
41 0.15
42 0.15
43 0.15
44 0.15
6 0.27
9 0.3

>  <PUBCHEM_EFFECTIVE_ROTOR_COUNT>  (1) 
4.8

>  <PUBCHEM_PHARMACOPHORE_FEATURES>  (1) 
5
1 1 acceptor
1 2 cation
5 3 9 11 13 15 rings
6 13 15 17 18 19 20 rings
6 2 4 5 6 7 8 rings

>  <PUBCHEM_HEAVY_ATOM_COUNT>  (1) 
20

>  <PUBCHEM_ATOM_DEF_STEREO_COUNT>  (1) 
0

>  <PUBCHEM_ATOM_UDEF_STEREO_COUNT>  (1) 
2

>  <PUBCHEM_BOND_DEF_STEREO_COUNT>  (1) 
0

>  <PUBCHEM_BOND_UDEF_STEREO_COUNT>  (1) 
0

>  <PUBCHEM_ISOTOPIC_ATOM_COUNT>  (1) 
0

>  <PUBCHEM_COMPONENT_COUNT>  (1) 
1

>  <PUBCHEM_CACTVS_TAUTO_COUNT>  (1) 
1

>  <PUBCHEM_CONFORMER_ID>  (1) 
0000A85A00000003

>  <PUBCHEM_MMFF94_ENERGY>  (1) 
51.6195

>  <PUBCHEM_FEATURE_SELFOVERLAP>  (1) 
25.457

>  <PUBCHEM_SHAPE_FINGERPRINT>  (1) 
10062212 137 18412826876198208875
10366900 7 11819282191392761245
11471102 20 17894916230702326724
11578080 2 18196627697042266824
11796584 16 17346324735072231638
12107183 9 17907862795045483803
12236239 1 18410858750537353737
12553582 1 18336257968592292330
12633257 1 18201729427174400877
12670546 56 18342453755322399597
13134695 92 18334856134496444324
13167823 11 18412545422559301655
13533116 47 18337672044141772583
13760787 5 18040440970714354216
14576447 43 18409445912429292646
15375358 24 14692569896973312357
15788980 27 18273217490893899019
17349148 13 17918274251253857159
17357779 13 16877937230866695077
17492 89 18269552917549941863
17818456 19 18056205661028076232
1813 80 18042697113077722902
18186145 218 17531240695009713211
19078846 21 18342740693360451720
19422 9 18411136961402248943
19862831 5 18187076291355252623
200 152 18409450288594544947
20279233 1 15195287534141761389
20369508 70 18410852196338366084
20612939 158 18041000660935434228
20626108 58 18201147836661656998
20645477 70 17821732727956930642
21033648 29 16370718258062050373
21250096 35 18411416185673632698
21267235 1 18410864247679059995
21634736 98 18268143330783844671
221357 26 17895183399132588005
221490 88 18191028004548718235
2255824 54 18263646324000170260
22646028 1 18412542115523953063
22646028 28 18341610429798368087
23402539 116 18342173324054189052
23402655 69 18260266321834189460
23532345 12 18273215296265785577
23557571 272 16486984946767973601
23559900 14 18131061684036260273
23596394 208 16588013593891819659
23598291 2 18410856572762159509
2838139 119 14058434383307043118
2916195 48 12540993931631215902
3004659 81 18412261744095524343
312423 11 18340212998201746897
3286 77 18340763835978421029
345986 75 18116982296235598976
34797466 226 16845299397166207760
4214541 1 18272370858677624529
46194498 28 17385441054962148598
474 4 17972317583931775357
5104073 3 18202004360746628249
5281201 14 17095520690656998327
53777708 50 18270684306603823417
559249 180 18342454786409995359
573450 72 18202001010645717315
58051976 100 18411698824755480751
602551 16 17203602722348770262
633830 44 17168143429777659249
67856867 119 18199461245901891600
7164475 11 18116715098083665948
7471813 234 18412542115730116636
7495541 125 15864365657027223960
9971528 1 18335697252454517968
9981440 41 17473818901865428384

>  <PUBCHEM_SHAPE_MULTIPOLES>  (1) 
395.76
10.79
2.29
1.17
4.2
0.86
0.04
-3.8
1.04
-0.4
-0.05
0.14
-0.03
-2.09

>  <PUBCHEM_SHAPE_SELFOVERLAP>  (1) 
834.381

>  <PUBCHEM_SHAPE_VOLUME>  (1) 
224.4

>  <PUBCHEM_COORDINATE_TYPE>  (1) 
2
5
10

$$$$
