43107
     RDKit          3D

 11 11  0  0  0  0  0  0  0  0999 V2000
    2.7192   -1.3631   -0.0018 O   0  0  0  0  0  0  0  0  0  0  0  0
    2.6398    0.8306   -0.0001 O   0  0  0  0  0  0  0  0  0  0  0  0
   -0.0935    0.8142    0.0010 N   0  0  0  0  0  0  0  0  0  0  0  0
   -1.4910   -0.8297    0.0011 N   0  0  0  0  0  0  0  0  0  0  0  0
    2.0279   -0.2899   -0.0001 N   0  0  0  0  0  0  0  0  0  0  0  0
   -1.3940    0.5037    0.0010 C   0  0  0  0  0  0  0  0  0  0  0  0
    0.6528   -0.3396    0.0015 C   0  0  0  0  0  0  0  0  0  0  0  0
   -0.2322   -1.3806    0.0015 C   0  0  0  0  0  0  0  0  0  0  0  0
   -2.5276    1.4661   -0.0011 C   0  0  0  0  0  0  0  0  0  0  0  0
    0.4286    2.1705   -0.0009 C   0  0  0  0  0  0  0  0  0  0  0  0
   -2.7301   -1.5822   -0.0020 C   0  0  0  0  0  0  0  0  0  0  0  0
  1  5  1  0
  2  5  2  0
  3  6  1  0
  3  7  1  0
  3 10  1  0
  4  6  2  0
  4  8  1  0
  4 11  1  0
  5  7  1  0
  6  9  1  0
  7  8  2  0
M  CHG  3   1  -1   4   1   5   1
M  END
>  <PUBCHEM_COMPOUND_CID>  (1) 
43107

>  <PUBCHEM_CONFORMER_RMSD>  (1) 
0.4

>  <PUBCHEM_CONFORMER_DIVERSEORDER>  (1) 
1

>  <PUBCHEM_MMFF94_PARTIAL_CHARGES>  (1) 
12
1 -0.52
10 0.51
11 0.51
12 0.15
2 -0.52
3 -0.76
4 -0.76
5 0.95
6 0.66
7 0.44
8 0.2
9 0.14

>  <PUBCHEM_EFFECTIVE_ROTOR_COUNT>  (1) 
1

>  <PUBCHEM_PHARMACOPHORE_FEATURES>  (1) 
5
1 1 acceptor
1 1 anion
1 2 acceptor
3 3 4 6 cation
5 3 4 6 7 8 rings

>  <PUBCHEM_HEAVY_ATOM_COUNT>  (1) 
11

>  <PUBCHEM_ATOM_DEF_STEREO_COUNT>  (1) 
0

>  <PUBCHEM_ATOM_UDEF_STEREO_COUNT>  (1) 
0

>  <PUBCHEM_BOND_DEF_STEREO_COUNT>  (1) 
0

>  <PUBCHEM_BOND_UDEF_STEREO_COUNT>  (1) 
0

>  <PUBCHEM_ISOTOPIC_ATOM_COUNT>  (1) 
0

>  <PUBCHEM_COMPONENT_COUNT>  (1) 
1

>  <PUBCHEM_CACTVS_TAUTO_COUNT>  (1) 
1

>  <PUBCHEM_CONFORMER_ID>  (1) 
0000A86300000001

>  <PUBCHEM_MMFF94_ENERGY>  (1) 
27.6522

>  <PUBCHEM_FEATURE_SELFOVERLAP>  (1) 
25.453

>  <PUBCHEM_SHAPE_FINGERPRINT>  (1) 
10857977 72 18339912818225731058
11206711 2 18336826489323895373
12423570 1 12541281925909163817
14325111 11 18410855442953606336
161256 15 18195245757070207649
16945 1 18194402422887513665
193761 8 18338516477329718021
19973954 147 18410856598347476617
20871998 184 18201719548258834559
21040471 1 18194401091606024385
23552423 10 18260551117068578510
241688 4 18409164398396891401
2748010 2 18411981351482012734
29004967 10 18337112387927172434
369184 2 18410292493026623810
5084963 1 18201722915629044147

>  <PUBCHEM_SHAPE_MULTIPOLES>  (1) 
199.69
3.79
2.07
0.57
0.63
0.51
0
-0.77
0
-0.46
0
-0.06
0.01
0

>  <PUBCHEM_SHAPE_SELFOVERLAP>  (1) 
410.288

>  <PUBCHEM_SHAPE_VOLUME>  (1) 
119.1

>  <PUBCHEM_COORDINATE_TYPE>  (1) 
2
5
10

$$$$
