4310
     RDKit          3D

 30 33  0  0  0  0  0  0  0  0999 V2000
    6.3692   -0.0038    0.7512 F   0  0  0  0  0  0  0  0  0  0  0  0
    4.9461    1.0375    2.0226 F   0  0  0  0  0  0  0  0  0  0  0  0
    4.9333   -1.1405    1.9341 F   0  0  0  0  0  0  0  0  0  0  0  0
   -2.3844   -0.0094    0.0730 O   0  0  0  0  0  0  0  0  0  0  0  0
   -4.5459    3.3591   -0.0527 O   0  0  0  0  0  0  0  0  0  0  0  0
   -4.2852   -3.4165    0.9758 O   0  0  0  0  0  0  0  0  0  0  0  0
   -4.4517    1.3638    1.0319 O   0  0  0  0  0  0  0  0  0  0  0  0
   -4.6345   -1.4235   -0.0599 O   0  0  0  0  0  0  0  0  0  0  0  0
    0.4171    0.0169   -0.4633 N   0  0  0  0  0  0  0  0  0  0  0  0
   -0.3145    1.2369   -0.2868 C   0  0  0  0  0  0  0  0  0  0  0  0
   -0.3058   -1.2168   -0.3615 C   0  0  0  0  0  0  0  0  0  0  0  0
   -1.6923    1.1753   -0.0224 C   0  0  0  0  0  0  0  0  0  0  0  0
   -1.6846   -1.1811   -0.0983 C   0  0  0  0  0  0  0  0  0  0  0  0
    1.8221    0.0301   -0.7325 C   0  0  0  0  0  0  0  0  0  0  0  0
   -2.4494    2.3377    0.1563 C   0  0  0  0  0  0  0  0  0  0  0  0
   -2.4331   -2.3577    0.0112 C   0  0  0  0  0  0  0  0  0  0  0  0
    0.2798    2.5085   -0.3760 C   0  0  0  0  0  0  0  0  0  0  0  0
    0.3025   -2.4771   -0.5022 C   0  0  0  0  0  0  0  0  0  0  0  0
    2.7378   -0.0001    0.3213 C   0  0  0  0  0  0  0  0  0  0  0  0
    2.2823    0.0718   -2.0502 C   0  0  0  0  0  0  0  0  0  0  0  0
    4.1077    0.0113    0.0585 C   0  0  0  0  0  0  0  0  0  0  0  0
   -1.8395    3.5853    0.0695 C   0  0  0  0  0  0  0  0  0  0  0  0
   -1.8117   -3.5936   -0.1377 C   0  0  0  0  0  0  0  0  0  0  0  0
   -0.4767    3.6705   -0.1977 C   0  0  0  0  0  0  0  0  0  0  0  0
   -0.4452   -3.6533   -0.3927 C   0  0  0  0  0  0  0  0  0  0  0  0
    3.6520    0.0832   -2.3130 C   0  0  0  0  0  0  0  0  0  0  0  0
    4.5648    0.0530   -1.2586 C   0  0  0  0  0  0  0  0  0  0  0  0
   -3.8795    2.2768    0.4312 C   0  0  0  0  0  0  0  0  0  0  0  0
   -3.8647   -2.3238    0.2840 C   0  0  0  0  0  0  0  0  0  0  0  0
    5.0839   -0.0206    1.1851 C   0  0  0  0  0  0  0  0  0  0  0  0
  1 30  1  0
  2 30  1  0
  3 30  1  0
  4 12  1  0
  4 13  1  0
  5 28  1  0
  6 29  1  0
  7 28  2  0
  8 29  2  0
  9 10  1  0
  9 11  1  0
  9 14  1  0
 10 12  2  0
 10 17  1  0
 11 13  2  0
 11 18  1  0
 12 15  1  0
 13 16  1  0
 14 19  2  0
 14 20  1  0
 15 22  2  0
 15 28  1  0
 16 23  2  0
 16 29  1  0
 17 24  2  0
 18 25  2  0
 19 21  1  0
 20 26  2  0
 21 27  2  0
 21 30  1  0
 22 24  1  0
 23 25  1  0
 26 27  1  0
M  END
>  <PUBCHEM_COMPOUND_CID>  (1) 
4310

>  <PUBCHEM_CONFORMER_RMSD>  (1) 
0.8

>  <PUBCHEM_CONFORMER_DIVERSEORDER>  (1) 
1

>  <PUBCHEM_MMFF94_PARTIAL_CHARGES>  (1) 
42
1 -0.34
10 0.1
11 0.1
12 0.08
13 0.08
14 0.1
15 0.09
16 0.09
17 -0.15
18 -0.15
19 -0.15
2 -0.34
20 -0.15
21 -0.14
22 -0.15
23 -0.15
24 -0.15
25 -0.15
26 -0.15
27 -0.15
28 0.63
29 0.63
3 -0.34
30 1.16
31 0.15
32 0.15
33 0.15
34 0.15
35 0.15
36 0.15
37 0.15
38 0.15
39 0.15
4 -0.17
40 0.15
41 0.5
42 0.5
5 -0.65
6 -0.65
7 -0.57
8 -0.57
9 -0.3

>  <PUBCHEM_EFFECTIVE_ROTOR_COUNT>  (1) 
4.4

>  <PUBCHEM_PHARMACOPHORE_FEATURES>  (1) 
12
1 4 acceptor
1 5 acceptor
1 6 acceptor
1 7 acceptor
1 8 acceptor
1 9 cation
3 5 7 28 anion
3 6 8 29 anion
6 10 12 15 17 22 24 rings
6 11 13 16 18 23 25 rings
6 14 19 20 21 26 27 rings
6 4 9 10 11 12 13 rings

>  <PUBCHEM_HEAVY_ATOM_COUNT>  (1) 
30

>  <PUBCHEM_ATOM_DEF_STEREO_COUNT>  (1) 
0

>  <PUBCHEM_ATOM_UDEF_STEREO_COUNT>  (1) 
0

>  <PUBCHEM_BOND_DEF_STEREO_COUNT>  (1) 
0

>  <PUBCHEM_BOND_UDEF_STEREO_COUNT>  (1) 
0

>  <PUBCHEM_ISOTOPIC_ATOM_COUNT>  (1) 
0

>  <PUBCHEM_COMPONENT_COUNT>  (1) 
1

>  <PUBCHEM_CACTVS_TAUTO_COUNT>  (1) 
1

>  <PUBCHEM_CONFORMER_ID>  (1) 
000010D600000001

>  <PUBCHEM_MMFF94_ENERGY>  (1) 
107.8945

>  <PUBCHEM_FEATURE_SELFOVERLAP>  (1) 
61.088

>  <PUBCHEM_SHAPE_FINGERPRINT>  (1) 
10074138 170 18265593477251044234
10319926 262 18270667707214607970
10411042 1 18123195872747100215
10930396 42 17838862122680020050
1100329 8 18267031729387730211
11049842 53 18193016841386030646
11582403 64 17486464050578764284
11725454 13 17488160640043961254
12107183 9 18047460142121322834
12236239 1 17749670796350238854
12422481 6 17897164624111236486
12553582 1 18195537106076947222
12788726 201 18190195648787898270
12838862 33 18339353081979160793
13052359 8 18335985285819844525
13140716 1 18340494451719997609
13583140 156 17917137343899904582
13726171 33 18125468486151825180
13782708 43 17632309973247575414
138480 1 16535678734938373205
14178342 30 18408886209560818006
14466204 15 18410576193239596531
14790565 3 18194991581107045589
14844126 61 18408597084719858843
15042514 8 18409169904507820394
15131766 46 16228048992006194429
15230672 131 18122063101710560318
15328829 1 17676783041168626726
16728300 4 17460585927564087665
16752209 62 18337686289978860814
17818456 19 18335415708774291306
19591789 44 18339379547023995077
20028762 73 18202012053666376047
20511986 3 17676203568191908188
20600515 1 18199189675040169907
20642791 105 18260826003902931205
20642791 35 17763765559870076380
21033648 29 17489592276739197666
21421861 104 17975701906528472040
22149856 69 17978536152181446481
22182313 1 17988659474941721406
23366157 5 17324925249318747623
23419403 2 17417811789959906745
23557571 272 18201452393124867692
23559900 14 18200047135939656148
244849 19 17632306627441216494
24771293 8 17987240117600649579
25147074 1 17895204333130288260
3052486 1 18409740564091081644
3882209 13 17265226131433563910
469060 322 18267606722076113339
5104073 3 18339061749898954256
57527293 21 17702098274117259662
6004065 56 17913197939550551191
9981440 41 18047476621573532617

>  <PUBCHEM_SHAPE_MULTIPOLES>  (1) 
561.24
10.4
4.74
1.36
9.74
0.07
0.08
-0.08
-3.9
-7.57
-0.16
2.54
0.04
0.08

>  <PUBCHEM_SHAPE_SELFOVERLAP>  (1) 
1263.249

>  <PUBCHEM_SHAPE_VOLUME>  (1) 
295.3

>  <PUBCHEM_COORDINATE_TYPE>  (1) 
2
5
10

$$$$
