43111
     RDKit          3D

 14 16  0  0  1  0  0  0  0  0999 V2000
    4.1932   -0.0290   -0.4373 O   0  0  0  0  0  0  0  0  0  0  0  0
    2.1169   -1.6827    1.0502 O   0  0  0  0  0  0  0  0  0  0  0  0
   -2.6835   -1.4122   -0.5544 O   0  0  0  0  0  0  0  0  0  0  0  0
   -3.4364    0.8337   -0.1109 O   0  0  0  0  0  0  0  0  0  0  0  0
    2.8057   -0.1504   -0.6793 C   0  0  0  0  0  0  0  0  0  0  0  0
    1.9915   -0.3272    0.6055 C   0  0  0  0  0  0  0  0  0  0  0  0
    3.5028    1.1262   -0.9310 C   0  0  0  0  0  0  0  0  0  0  0  0
    0.5507    0.0172    0.4251 C   0  0  0  0  0  0  0  0  0  0  0  0
   -0.3491   -0.9638    0.0015 C   0  0  0  0  0  0  0  0  0  0  0  0
    0.1114    1.3276    0.6838 C   0  0  0  0  0  0  0  0  0  0  0  0
   -1.6706   -0.5975   -0.1510 C   0  0  0  0  0  0  0  0  0  0  0  0
   -2.1006    0.6849    0.1022 C   0  0  0  0  0  0  0  0  0  0  0  0
   -1.2327    1.6719    0.5216 C   0  0  0  0  0  0  0  0  0  0  0  0
   -3.7993   -0.4988   -0.5260 C   0  0  0  0  0  0  0  0  0  0  0  0
  1  5  1  0
  1  7  1  0
  2  6  1  0
  3 11  1  0
  3 14  1  0
  4 12  1  0
  4 14  1  0
  5  6  1  0
  5  7  1  0
  6  8  1  0
  8  9  1  0
  8 10  2  0
  9 11  2  0
 10 13  1  0
 11 12  1  0
 12 13  2  0
M  END
>  <PUBCHEM_COMPOUND_CID>  (1) 
43111

>  <PUBCHEM_CONFORMER_RMSD>  (1) 
0.6

>  <PUBCHEM_CONFORMER_DIVERSEORDER>  (1) 
1
11
10
7
16
5
8
14
15
4
9
12
6
17
3
2
13

>  <PUBCHEM_MMFF94_PARTIAL_CHARGES>  (1) 
21
1 -0.3
10 -0.15
11 0.08
12 0.08
13 -0.15
14 0.56
15 0.1
17 0.1
18 0.1
19 0.15
2 -0.68
20 0.15
21 0.4
22 0.15
3 -0.36
4 -0.36
5 -0.05
6 0.52
7 -0.05
8 -0.14
9 -0.15

>  <PUBCHEM_EFFECTIVE_ROTOR_COUNT>  (1) 
3.2

>  <PUBCHEM_PHARMACOPHORE_FEATURES>  (1) 
7
1 1 acceptor
1 2 acceptor
1 2 donor
1 3 acceptor
1 4 acceptor
5 3 4 11 12 14 rings
6 8 9 10 11 12 13 rings

>  <PUBCHEM_HEAVY_ATOM_COUNT>  (1) 
14

>  <PUBCHEM_ATOM_DEF_STEREO_COUNT>  (1) 
0

>  <PUBCHEM_ATOM_UDEF_STEREO_COUNT>  (1) 
2

>  <PUBCHEM_BOND_DEF_STEREO_COUNT>  (1) 
0

>  <PUBCHEM_BOND_UDEF_STEREO_COUNT>  (1) 
0

>  <PUBCHEM_ISOTOPIC_ATOM_COUNT>  (1) 
0

>  <PUBCHEM_COMPONENT_COUNT>  (1) 
1

>  <PUBCHEM_CACTVS_TAUTO_COUNT>  (1) 
1

>  <PUBCHEM_CONFORMER_ID>  (1) 
0000A86700000001

>  <PUBCHEM_MMFF94_ENERGY>  (1) 
32.487

>  <PUBCHEM_FEATURE_SELFOVERLAP>  (1) 
35.678

>  <PUBCHEM_SHAPE_FINGERPRINT>  (1) 
10465860 71 18130517408716738428
11206711 2 18341320129022618781
11543360 7 17240757428339076271
12032990 46 18130226064147625007
12119455 92 15068615015624345690
12932764 1 18341887489606538945
13296908 3 17632570586839556537
13760787 5 18335136454284765807
14911166 2 18271800225185966453
14993402 34 18342735226199075125
15536298 74 18059289993149868960
15669948 3 18343575240060897367
15775835 57 18259989249351898956
16945 1 18130498648499776649
1813 80 12894813449392947048
18186145 218 17749108889725509206
18619055 16 18263072241274940867
19026448 4 14979945970097126627
19422 9 18336827498398798371
200 152 18407758136226183694
20279233 1 16845285034325707790
20281407 28 17275106136793054382
20645476 183 18261110789909420015
20871999 31 18341609356504807311
21119208 17 18334580135576252980
21499 59 17749116638062678622
21501502 16 17843974632431447783
22094290 60 17846505824115186841
228727 97 18411144631939617640
23402539 116 18342172272224954308
23463225 33 18266452114127958643
23552423 10 18265326386341398745
23557571 272 17703793579239483976
23559900 14 18202561770624766576
23598291 2 18045505205719321274
2748010 2 18055053605244732097
3312278 4 18408606984819877291
474 4 17604720005070082996
57096353 35 18408322215534549134
7364860 26 17701532046302237192
77492 1 18261109638889378418
8030462 33 18408319973598485226

>  <PUBCHEM_SHAPE_MULTIPOLES>  (1) 
264.64
6.58
1.51
0.9
1.61
0.14
0.02
-0.23
-2.1
-0.26
0.22
0.44
-0.03
-0.72

>  <PUBCHEM_SHAPE_SELFOVERLAP>  (1) 
576.16

>  <PUBCHEM_SHAPE_VOLUME>  (1) 
145.1

>  <PUBCHEM_COORDINATE_TYPE>  (1) 
2
5
10

$$$$
