43122
     RDKit          3D

 18 19  0  0  0  0  0  0  0  0999 V2000
    4.4935   -2.4816   -0.4079 F   0  0  0  0  0  0  0  0  0  0  0  0
    0.7927    2.1904    1.5570 O   0  0  0  0  0  0  0  0  0  0  0  0
   -2.3566    0.8075   -0.7760 N   0  0  0  0  0  0  0  0  0  0  0  0
   -3.2913   -0.1667   -0.2418 C   0  0  0  0  0  0  0  0  0  0  0  0
   -3.5956   -1.2917   -1.2237 C   0  0  0  0  0  0  0  0  0  0  0  0
   -2.7334   -0.9229    0.9578 C   0  0  0  0  0  0  0  0  0  0  0  0
   -4.1938   -2.3859   -0.3434 C   0  0  0  0  0  0  0  0  0  0  0  0
   -3.6371   -2.1486    1.0632 C   0  0  0  0  0  0  0  0  0  0  0  0
   -2.0834    1.8598    0.1951 C   0  0  0  0  0  0  0  0  0  0  0  0
   -1.1493    2.9121   -0.3959 C   0  0  0  0  0  0  0  0  0  0  0  0
    0.2186    2.3388   -0.7799 C   0  0  0  0  0  0  0  0  0  0  0  0
    0.9530    1.7560    0.4188 C   0  0  0  0  0  0  0  0  0  0  0  0
    1.8996    0.6231    0.1976 C   0  0  0  0  0  0  0  0  0  0  0  0
    2.5556    0.5383   -1.0088 C   0  0  0  0  0  0  0  0  0  0  0  0
    2.0793   -0.2923    1.2093 C   0  0  0  0  0  0  0  0  0  0  0  0
    3.4401   -0.5204   -1.2152 C   0  0  0  0  0  0  0  0  0  0  0  0
    2.9639   -1.3509    1.0031 C   0  0  0  0  0  0  0  0  0  0  0  0
    3.6444   -1.4649   -0.2093 C   0  0  0  0  0  0  0  0  0  0  0  0
  1 18  1  0
  2 12  2  0
  3  4  1  0
  3  9  1  0
  4  5  1  0
  4  6  1  0
  5  7  1  0
  6  8  1  0
  7  8  1  0
  9 10  1  0
 10 11  1  0
 11 12  1  0
 12 13  1  0
 13 14  2  0
 13 15  1  0
 14 16  1  0
 15 17  2  0
 16 18  2  0
 17 18  1  0
M  END
>  <PUBCHEM_COMPOUND_CID>  (1) 
43122

>  <PUBCHEM_CONFORMER_RMSD>  (1) 
0.8

>  <PUBCHEM_CONFORMER_DIVERSEORDER>  (1) 
1
86
95
34
72
42
3
82
91
4
89
48
23
11
12
57
68
66
44
69
25
33
16
75
8
22
5
17
52
79
20
56
85
30
18
60
90
53
41
83
28
61
14
29
92
88
71
9
40
13
32
81
46
2
37
58
94
73
45
84
31
51
74
62
21
63
76
49
87
10
77
78
15
80
7
26
93
35
36
38
19
59
43
64
39
55
54
24
47
50
70
27
6
65
67

>  <PUBCHEM_MMFF94_PARTIAL_CHARGES>  (1) 
18
1 -0.19
11 0.06
12 0.42
13 0.09
14 -0.15
15 -0.15
16 -0.15
17 -0.15
18 0.19
2 -0.57
28 0.36
3 -0.9
35 0.15
36 0.15
37 0.15
38 0.15
4 0.27
9 0.27

>  <PUBCHEM_EFFECTIVE_ROTOR_COUNT>  (1) 
7

>  <PUBCHEM_PHARMACOPHORE_FEATURES>  (1) 
5
1 2 acceptor
1 3 cation
1 3 donor
5 4 5 6 7 8 rings
6 13 14 15 16 17 18 rings

>  <PUBCHEM_HEAVY_ATOM_COUNT>  (1) 
18

>  <PUBCHEM_ATOM_DEF_STEREO_COUNT>  (1) 
0

>  <PUBCHEM_ATOM_UDEF_STEREO_COUNT>  (1) 
0

>  <PUBCHEM_BOND_DEF_STEREO_COUNT>  (1) 
0

>  <PUBCHEM_BOND_UDEF_STEREO_COUNT>  (1) 
0

>  <PUBCHEM_ISOTOPIC_ATOM_COUNT>  (1) 
0

>  <PUBCHEM_COMPONENT_COUNT>  (1) 
1

>  <PUBCHEM_CACTVS_TAUTO_COUNT>  (1) 
2

>  <PUBCHEM_CONFORMER_ID>  (1) 
0000A87200000001

>  <PUBCHEM_MMFF94_ENERGY>  (1) 
26.704

>  <PUBCHEM_FEATURE_SELFOVERLAP>  (1) 
25.371

>  <PUBCHEM_SHAPE_FINGERPRINT>  (1) 
10616163 171 18265616485375322846
10968037 57 18272654541310028767
12363563 72 18411134762136426367
12553582 1 18334014995184210035
12596599 1 17845950601193306283
12633257 1 17417827140273060715
14251731 5 18410577301051125335
14429115 67 17773866696544328767
14863182 85 17832706051275601733
14866123 147 18196092145427992257
15342168 16 8862677819332423015
15352361 1 18410009957356768271
15422964 175 18193546986104827253
15635459 17 18045496680230344267
17859628 70 17832434468177889699
1798214 55 9295299356240372983
18915474 69 18261117352777294710
19752476 56 11603633837327914047
19766037 51 18187368782933536073
20291156 8 18409732893443034069
20645477 70 17975686514024670039
21452121 199 18335412512891582480
21634736 98 18114188510235414476
21713013 43 17603866723706214503
21731516 1 18411140263989681777
221490 88 18411420592616189356
23379529 103 18341062817579908102
235170 7 15936410078279558015
238078 22 18269844116654051976
26353 1 17240197763851313421
27216 239 10519696804875942917
38570 142 13828705743666398394
568465 68 17131542830793248564

>  <PUBCHEM_SHAPE_MULTIPOLES>  (1) 
352.31
8.48
3.3
1.3
1.63
1.01
-0.12
-8.36
1.35
0.62
-0.04
-0.17
-0.09
0.34

>  <PUBCHEM_SHAPE_SELFOVERLAP>  (1) 
727.957

>  <PUBCHEM_SHAPE_VOLUME>  (1) 
203.1

>  <PUBCHEM_COORDINATE_TYPE>  (1) 
2
5
10

$$$$
