4312
     RDKit          3D

 16 15  0  0  1  0  0  0  0  0999 V2000
   -3.5272   -0.1997   -0.0900 P   0  0  0  0  0  0  0  0  0  0  0  0
   -3.4650   -1.2127    1.1605 O   0  0  0  0  0  0  0  0  0  0  0  0
   -4.4198   -0.9819   -1.1788 O   0  0  0  0  0  0  0  0  0  0  0  0
   -1.0286    0.7012    1.2218 O   0  0  0  0  0  0  0  0  0  0  0  0
    1.0881    2.5354   -0.9074 O   0  0  0  0  0  0  0  0  0  0  0  0
   -3.9449    1.1968    0.2180 O   0  0  0  0  0  0  0  0  0  0  0  0
    2.8782    2.5965    0.4807 O   0  0  0  0  0  0  0  0  0  0  0  0
    3.3397   -2.5880   -0.8487 O   0  0  0  0  0  0  0  0  0  0  0  0
    2.0356   -2.2975    0.9867 O   0  0  0  0  0  0  0  0  0  0  0  0
    0.4768    0.0681   -0.4348 N   0  0  0  0  0  0  0  0  0  0  0  0
    1.6847    0.5009    0.2261 C   0  0  0  0  0  0  0  0  0  0  0  0
    2.8836   -0.3475   -0.2068 C   0  0  0  0  0  0  0  0  0  0  0  0
   -1.8660   -0.3261   -0.7804 C   0  0  0  0  0  0  0  0  0  0  0  0
   -0.7842    0.2069    0.1246 C   0  0  0  0  0  0  0  0  0  0  0  0
    1.9611    1.9717   -0.0386 C   0  0  0  0  0  0  0  0  0  0  0  0
    2.6880   -1.8240    0.0670 C   0  0  0  0  0  0  0  0  0  0  0  0
  1  2  1  0
  1  3  1  0
  1  6  2  0
  1 13  1  0
  4 14  2  0
  5 15  1  0
  7 15  2  0
  8 16  1  0
  9 16  2  0
 10 11  1  0
 10 14  1  0
 11 12  1  0
 11 15  1  0
 12 16  1  0
 13 14  1  0
M  END
>  <PUBCHEM_COMPOUND_CID>  (1) 
4312

>  <PUBCHEM_CONFORMER_RMSD>  (1) 
0.8

>  <PUBCHEM_CONFORMER_DIVERSEORDER>  (1) 
1
50
68
30
13
72
73
43
15
48
76
18
47
10
24
45
23
25
63
64
19
67
61
53
75
78
57
60
40
83
52
28
58
33
29
84
3
54
32
55
51
62
21
77
6
22
46
74
66
34
37
69
17
9
41
5
70
2
79
35
11
39
71
80
38
20
26
81
36
65
7
14
44
42
27
82
12
49
31
8
16
59
4
56

>  <PUBCHEM_MMFF94_PARTIAL_CHARGES>  (1) 
21
1 1.24
10 -0.73
11 0.36
12 0.06
13 0.06
14 0.57
15 0.66
16 0.66
2 -0.77
20 0.37
23 0.5
24 0.5
25 0.5
26 0.5
3 -0.77
4 -0.57
5 -0.65
6 -0.7
7 -0.57
8 -0.65
9 -0.57

>  <PUBCHEM_EFFECTIVE_ROTOR_COUNT>  (1) 
7

>  <PUBCHEM_PHARMACOPHORE_FEATURES>  (1) 
12
1 10 donor
1 2 acceptor
1 3 acceptor
1 4 acceptor
1 5 acceptor
1 6 acceptor
1 7 acceptor
1 8 acceptor
1 9 acceptor
3 5 7 15 anion
3 8 9 16 anion
4 1 2 3 6 anion

>  <PUBCHEM_HEAVY_ATOM_COUNT>  (1) 
16

>  <PUBCHEM_ATOM_DEF_STEREO_COUNT>  (1) 
0

>  <PUBCHEM_ATOM_UDEF_STEREO_COUNT>  (1) 
1

>  <PUBCHEM_BOND_DEF_STEREO_COUNT>  (1) 
0

>  <PUBCHEM_BOND_UDEF_STEREO_COUNT>  (1) 
0

>  <PUBCHEM_ISOTOPIC_ATOM_COUNT>  (1) 
0

>  <PUBCHEM_COMPONENT_COUNT>  (1) 
1

>  <PUBCHEM_CACTVS_TAUTO_COUNT>  (1) 
2

>  <PUBCHEM_CONFORMER_ID>  (1) 
000010D800000001

>  <PUBCHEM_MMFF94_ENERGY>  (1) 
-10.9587

>  <PUBCHEM_FEATURE_SELFOVERLAP>  (1) 
61.058

>  <PUBCHEM_SHAPE_FINGERPRINT>  (1) 
12553582 1 18118685417871689146
12841375 25 18267305340005086918
12932764 1 17631733897604649001
13533116 47 18412262870231543343
14251717 144 18408880750330343414
14252887 29 18200873972778808698
15442244 35 18268995293302908065
15477762 27 18411134736303338518
18186145 218 17822008709854864937
19422 9 18201718470686039279
20339313 130 18340208496780576086
20645477 70 18411692210316077399
20671657 53 18337954472010645482
20708731 107 18260838119842116828
20871998 22 18268425733837669990
221490 88 18336274521264759195
2255824 54 18410857698175362380
23526113 38 17385733465157423552
23532345 1 18265608956577058805
23532345 12 17988925514037733785
23532345 88 18341325660702943885
23598291 2 18342462504249786077
3060560 45 18265334091845258444
312423 11 18342750623973296723
58051976 100 18410290286152035695
58051976 378 18192992853381336159
6049 1 17894907413023854597
7364860 26 18342174496786008624
7615 1 17846226544294078281
81228 2 17619619186489994272
81539 233 18190176974275311652
84936 182 18129660949299299560
9709674 26 18262521506520337115

>  <PUBCHEM_SHAPE_MULTIPOLES>  (1) 
281.19
7.4
2.68
1
6.87
0.31
-0.05
-2.24
0.56
-3.51
0.07
0.41
-0.19
0.04

>  <PUBCHEM_SHAPE_SELFOVERLAP>  (1) 
538.008

>  <PUBCHEM_SHAPE_VOLUME>  (1) 
171.3

>  <PUBCHEM_COORDINATE_TYPE>  (1) 
2
5
10

$$$$
