43126
     RDKit          3D

 20 21  0  0  1  0  0  0  0  0999 V2000
   -2.6884   -3.5356   -0.6765 F   0  0  0  0  0  0  0  0  0  0  0  0
   -2.2824    2.3593    1.4377 O   0  0  0  0  0  0  0  0  0  0  0  0
    1.5633    1.3062   -0.5051 N   0  0  0  0  0  0  0  0  0  0  0  0
    2.4139    0.2690    0.0269 C   0  0  0  0  0  0  0  0  0  0  0  0
    1.7112   -0.4785    1.1632 C   0  0  0  0  0  0  0  0  0  0  0  0
    2.8504   -0.6892   -1.0840 C   0  0  0  0  0  0  0  0  0  0  0  0
    2.5727   -1.6163    1.7048 C   0  0  0  0  0  0  0  0  0  0  0  0
    3.7092   -1.8278   -0.5397 C   0  0  0  0  0  0  0  0  0  0  0  0
    3.0084   -2.5691    0.5953 C   0  0  0  0  0  0  0  0  0  0  0  0
    1.1751    2.2367    0.5528 C   0  0  0  0  0  0  0  0  0  0  0  0
    2.2421    2.0138   -1.5884 C   0  0  0  0  0  0  0  0  0  0  0  0
    0.2248    3.3022    0.0139 C   0  0  0  0  0  0  0  0  0  0  0  0
   -1.0444    2.7046   -0.6021 C   0  0  0  0  0  0  0  0  0  0  0  0
   -1.8332    1.8758    0.4012 C   0  0  0  0  0  0  0  0  0  0  0  0
   -2.0619    0.4291    0.1130 C   0  0  0  0  0  0  0  0  0  0  0  0
   -2.1447    0.0234   -1.1993 C   0  0  0  0  0  0  0  0  0  0  0  0
   -2.1807   -0.4428    1.1709 C   0  0  0  0  0  0  0  0  0  0  0  0
   -2.3582   -1.3284   -1.4684 C   0  0  0  0  0  0  0  0  0  0  0  0
   -2.3942   -1.7947    0.9019 C   0  0  0  0  0  0  0  0  0  0  0  0
   -2.4829   -2.2376   -0.4179 C   0  0  0  0  0  0  0  0  0  0  0  0
  1 20  1  0
  2 14  2  0
  3  4  1  0
  3 10  1  0
  3 11  1  0
  4  5  1  0
  4  6  1  0
  5  7  1  0
  6  8  1  0
  7  9  1  0
  8  9  1  0
 10 12  1  0
 12 13  1  0
 13 14  1  0
 14 15  1  0
 15 16  2  0
 15 17  1  0
 16 18  1  0
 17 19  2  0
 18 20  2  0
 19 20  1  0
M  END
>  <PUBCHEM_COMPOUND_CID>  (1) 
43126

>  <PUBCHEM_CONFORMER_RMSD>  (1) 
0.8

>  <PUBCHEM_CONFORMER_DIVERSEORDER>  (1) 
8
97
162
13
9
38
80
107
128
136
1
3
167
52
156
66
159
67
171
179
116
33
164
143
125
57
140
101
124
160
191
25
17
45
76
113
122
188
170
135
63
112
88
98
10
78
71
104
79
183
95
24
19
176
16
11
180
39
40
165
65
186
87
131
53
117
72
137
84
55
75
69
68
130
46
127
172
157
119
30
20
178
109
35
134
91
121
12
190
149
184
163
168
169
74
44
173
181
187
89
155
141
126
34
49
177
62
105
23
99
73
85
31
182
41
54
42
5
59
166
145
150
138
151
51
96
4
123
185
56
26
81
102
129
118
64
28
82
83
94
152
154
86
7
139
58
133
175
114
6
70
158
27
100
47
142
43
77
18
132
90
29
115
148
110
174
108
144
32
21
50
93
2
61
153
48
103
36
146
14
22
189
60
111
37
15
92
106
120
161
147

>  <PUBCHEM_MMFF94_PARTIAL_CHARGES>  (1) 
18
1 -0.19
10 0.27
11 0.27
13 0.06
14 0.42
15 0.09
16 -0.15
17 -0.15
18 -0.15
19 -0.15
2 -0.57
20 0.19
3 -0.81
4 0.27
41 0.15
42 0.15
43 0.15
44 0.15

>  <PUBCHEM_EFFECTIVE_ROTOR_COUNT>  (1) 
7.2

>  <PUBCHEM_PHARMACOPHORE_FEATURES>  (1) 
4
1 2 acceptor
1 3 cation
6 15 16 17 18 19 20 rings
6 4 5 6 7 8 9 rings

>  <PUBCHEM_HEAVY_ATOM_COUNT>  (1) 
20

>  <PUBCHEM_ATOM_DEF_STEREO_COUNT>  (1) 
0

>  <PUBCHEM_ATOM_UDEF_STEREO_COUNT>  (1) 
0

>  <PUBCHEM_BOND_DEF_STEREO_COUNT>  (1) 
0

>  <PUBCHEM_BOND_UDEF_STEREO_COUNT>  (1) 
0

>  <PUBCHEM_ISOTOPIC_ATOM_COUNT>  (1) 
0

>  <PUBCHEM_COMPONENT_COUNT>  (1) 
1

>  <PUBCHEM_CACTVS_TAUTO_COUNT>  (1) 
2

>  <PUBCHEM_CONFORMER_ID>  (1) 
0000A87600000008

>  <PUBCHEM_MMFF94_ENERGY>  (1) 
40.6645

>  <PUBCHEM_FEATURE_SELFOVERLAP>  (1) 
20.297

>  <PUBCHEM_SHAPE_FINGERPRINT>  (1) 
11321824 6 18119802504489549561
11725454 13 14043529205810988323
12156800 1 15518506423057093066
12553582 1 18409730625573915530
12596599 1 17410239594870740663
14081887 123 18195789805373739336
14178342 30 18269271442393941849
1420 336 18336539404798278850
14251757 17 17827317164968419007
14251757 5 18051994527800120166
16752209 62 17758666763680158908
18981168 100 8358263691060830152
20291156 8 18410015437634622658
21634736 98 18261126140554610828
21731516 1 18411138060402134762
23184049 29 18410847763752489206
23419403 2 16384437985444042456
23557571 272 18199449091049063506
23728640 28 18050846624242504739
238 59 17469592374962531471
2818148 4 18193022436936833531
465052 167 17754769068549345633
5262128 65 18411135882938559946
81228 2 18270382920084732817
90525 40 17613160663441028784

>  <PUBCHEM_SHAPE_MULTIPOLES>  (1) 
393.47
5.76
4.14
1.51
2.8
0.55
0.01
-3.85
-0.27
-1.29
-0.26
0.06
-0.16
-1.3

>  <PUBCHEM_SHAPE_SELFOVERLAP>  (1) 
810.186

>  <PUBCHEM_SHAPE_VOLUME>  (1) 
228.1

>  <PUBCHEM_COORDINATE_TYPE>  (1) 
2
5
10

$$$$
