43124
     RDKit          3D

 19 20  0  0  0  0  0  0  0  0999 V2000
   -6.9592    1.4274   -0.1374 F   0  0  0  0  0  0  0  0  0  0  0  0
   -1.8644   -2.1941    0.4193 O   0  0  0  0  0  0  0  0  0  0  0  0
    3.0371   -0.9456   -0.1753 N   0  0  0  0  0  0  0  0  0  0  0  0
    4.2156   -0.1432   -0.3978 C   0  0  0  0  0  0  0  0  0  0  0  0
    4.2730    1.0219    0.5937 C   0  0  0  0  0  0  0  0  0  0  0  0
    5.4763   -1.0072   -0.3156 C   0  0  0  0  0  0  0  0  0  0  0  0
    5.5402    1.8531    0.4115 C   0  0  0  0  0  0  0  0  0  0  0  0
    6.7424   -0.1735   -0.4950 C   0  0  0  0  0  0  0  0  0  0  0  0
    6.7957    0.9894    0.4917 C   0  0  0  0  0  0  0  0  0  0  0  0
    1.8351   -0.1438   -0.3324 C   0  0  0  0  0  0  0  0  0  0  0  0
    0.5890   -0.9737   -0.0368 C   0  0  0  0  0  0  0  0  0  0  0  0
   -0.7033   -0.1576   -0.1442 C   0  0  0  0  0  0  0  0  0  0  0  0
   -1.9388   -1.0003    0.1375 C   0  0  0  0  0  0  0  0  0  0  0  0
   -3.2809   -0.3512    0.0640 C   0  0  0  0  0  0  0  0  0  0  0  0
   -3.3501    0.9853   -0.2560 C   0  0  0  0  0  0  0  0  0  0  0  0
   -4.3970   -1.1148    0.3190 C   0  0  0  0  0  0  0  0  0  0  0  0
   -4.6043    1.5917   -0.3246 C   0  0  0  0  0  0  0  0  0  0  0  0
   -5.6514   -0.5084    0.2502 C   0  0  0  0  0  0  0  0  0  0  0  0
   -5.7550    0.8449   -0.0717 C   0  0  0  0  0  0  0  0  0  0  0  0
  1 19  1  0
  2 13  2  0
  3  4  1  0
  3 10  1  0
  4  5  1  0
  4  6  1  0
  5  7  1  0
  6  8  1  0
  7  9  1  0
  8  9  1  0
 10 11  1  0
 11 12  1  0
 12 13  1  0
 13 14  1  0
 14 15  2  0
 14 16  1  0
 15 17  1  0
 16 18  2  0
 17 19  2  0
 18 19  1  0
M  END
>  <PUBCHEM_COMPOUND_CID>  (1) 
43124

>  <PUBCHEM_CONFORMER_RMSD>  (1) 
0.8

>  <PUBCHEM_CONFORMER_DIVERSEORDER>  (1) 
1
59
77
143
105
23
43
71
136
35
111
125
113
84
10
86
109
12
64
60
15
127
144
65
149
36
17
40
132
128
116
30
41
98
49
82
4
70
100
99
62
2
108
138
87
48
73
44
34
53
58
45
90
66
78
88
26
96
141
131
67
38
93
147
118
57
54
145
133
11
72
42
6
63
50
126
121
106
51
92
20
69
89
7
9
140
142
25
14
37
5
61
122
103
85
117
134
104
81
130
135
13
68
24
119
114
74
95
39
31
21
94
28
46
83
107
101
102
27
112
19
18
148
123
129
110
97
115
56
146
47
139
29
124
120
79
52
76
16
137
3
80
33
75
8
22
32
91
55

>  <PUBCHEM_MMFF94_PARTIAL_CHARGES>  (1) 
18
1 -0.19
10 0.27
12 0.06
13 0.42
14 0.09
15 -0.15
16 -0.15
17 -0.15
18 -0.15
19 0.19
2 -0.57
3 -0.9
31 0.36
38 0.15
39 0.15
4 0.27
40 0.15
41 0.15

>  <PUBCHEM_EFFECTIVE_ROTOR_COUNT>  (1) 
7.2

>  <PUBCHEM_PHARMACOPHORE_FEATURES>  (1) 
5
1 2 acceptor
1 3 cation
1 3 donor
6 14 15 16 17 18 19 rings
6 4 5 6 7 8 9 rings

>  <PUBCHEM_HEAVY_ATOM_COUNT>  (1) 
19

>  <PUBCHEM_ATOM_DEF_STEREO_COUNT>  (1) 
0

>  <PUBCHEM_ATOM_UDEF_STEREO_COUNT>  (1) 
0

>  <PUBCHEM_BOND_DEF_STEREO_COUNT>  (1) 
0

>  <PUBCHEM_BOND_UDEF_STEREO_COUNT>  (1) 
0

>  <PUBCHEM_ISOTOPIC_ATOM_COUNT>  (1) 
0

>  <PUBCHEM_COMPONENT_COUNT>  (1) 
1

>  <PUBCHEM_CACTVS_TAUTO_COUNT>  (1) 
2

>  <PUBCHEM_CONFORMER_ID>  (1) 
0000A87400000001

>  <PUBCHEM_MMFF94_ENERGY>  (1) 
24.6406

>  <PUBCHEM_FEATURE_SELFOVERLAP>  (1) 
25.371

>  <PUBCHEM_SHAPE_FINGERPRINT>  (1) 
10 15 18113621217838169376
10411042 1 17903642127460719987
11315181 36 17917998290835735163
117890 112 18410293618608638246
12091667 2 18410576201919370615
125118 31 18408044013708546316
13167372 99 18343022160285200720
13402501 40 18413387639923982528
14251764 18 17894631469543001679
14556957 393 15913340112278191025
14729087 3 18411415111615511968
14933364 13 18411702088698393428
15048467 5 18410573980856496832
15183329 4 18273498948970296344
15716309 27 11891336452150685633
16079462 125 18343293782469595824
19489759 90 18040999548723377723
20157964 124 17988927752116881806
20281389 69 18260265222528348284
20645477 56 18408322185628156679
21033648 29 18271232933062709776
21150785 3 16056875849167642341
21315763 28 18411417323750522694
220451 1 15357698608720704210
22224240 67 14779270821319494153
23035841 295 10879993557946655119
23081809 10 15267072419205213150
23198884 109 16630809902655206795
23402539 116 18411697695268765815
23536379 177 18409449176541023674
23559900 14 18272365403610171144
2916195 48 18409728473721200443
29717793 49 16630535016548750956
300161 21 18413105069930922022
3545911 37 18410577288361226870
4073 2 18114186393186283898
5104073 3 18187368679706953555
542803 24 16702306753878338283
59682541 35 18260559926979933105
5969126 39 18126279986052667895
59755656 215 18339085900305386942
59755656 520 18260824908280751095

>  <PUBCHEM_SHAPE_MULTIPOLES>  (1) 
372.89
20.71
1.69
0.71
8.15
0.15
0.01
7.22
0.19
-0.48
0.13
0.28
0.03
1.19

>  <PUBCHEM_SHAPE_SELFOVERLAP>  (1) 
764.896

>  <PUBCHEM_SHAPE_VOLUME>  (1) 
215.4

>  <PUBCHEM_COORDINATE_TYPE>  (1) 
2
5
10

$$$$
