43134
     RDKit          3D

 20 21  0  0  0  0  0  0  0  0999 V2000
    5.6109   -0.4681   -0.2235 S   0  0  0  0  0  0  0  0  0  0  0  0
   -0.5504    2.0441    0.3264 O   0  0  0  0  0  0  0  0  0  0  0  0
    5.7302   -1.7320   -0.9366 O   0  0  0  0  0  0  0  0  0  0  0  0
    6.3311    0.7034   -0.7038 O   0  0  0  0  0  0  0  0  0  0  0  0
   -5.0469   -0.3500    0.3243 N   0  0  0  0  0  0  0  0  0  0  0  0
   -5.4252    0.5499   -0.7650 C   0  0  0  0  0  0  0  0  0  0  0  0
   -6.0607   -1.4040    0.3156 C   0  0  0  0  0  0  0  0  0  0  0  0
   -6.9359    0.6512   -0.6149 C   0  0  0  0  0  0  0  0  0  0  0  0
   -7.3532   -0.6312    0.0984 C   0  0  0  0  0  0  0  0  0  0  0  0
   -3.6983   -0.8747    0.1687 C   0  0  0  0  0  0  0  0  0  0  0  0
   -2.6685    0.2487    0.2457 C   0  0  0  0  0  0  0  0  0  0  0  0
   -1.2282   -0.2616    0.1332 C   0  0  0  0  0  0  0  0  0  0  0  0
   -0.2124    0.8698    0.1959 C   0  0  0  0  0  0  0  0  0  0  0  0
    1.2388    0.5365    0.0911 C   0  0  0  0  0  0  0  0  0  0  0  0
    1.6028   -0.7819   -0.0581 C   0  0  0  0  0  0  0  0  0  0  0  0
    2.1559    1.5607    0.1488 C   0  0  0  0  0  0  0  0  0  0  0  0
    3.9138   -0.0779   -0.1003 C   0  0  0  0  0  0  0  0  0  0  0  0
    2.9590   -1.0935   -0.1551 C   0  0  0  0  0  0  0  0  0  0  0  0
    3.5122    1.2493    0.0517 C   0  0  0  0  0  0  0  0  0  0  0  0
    6.1251   -0.7388    1.4576 C   0  0  0  0  0  0  0  0  0  0  0  0
  1  3  2  0
  1  4  2  0
  1 17  1  0
  1 20  1  0
  2 13  2  0
  5  6  1  0
  5  7  1  0
  5 10  1  0
  6  8  1  0
  7  9  1  0
  8  9  1  0
 10 11  1  0
 11 12  1  0
 12 13  1  0
 13 14  1  0
 14 15  2  0
 14 16  1  0
 15 18  1  0
 16 19  2  0
 17 18  2  0
 17 19  1  0
M  END
>  <PUBCHEM_COMPOUND_CID>  (1) 
43134

>  <PUBCHEM_CONFORMER_RMSD>  (1) 
0.8

>  <PUBCHEM_CONFORMER_DIVERSEORDER>  (1) 
1
54
82
29
75
57
42
71
80
74
37
65
84
43
41
12
73
3
85
60
64
35
63
2
19
66
77
59
79
8
61
34
39
7
76
50
83
55
53
69
40
72
22
86
38
62
36
14
20
78
58
48
9
81
10
70
33
46
18
11
67
44
21
26
23
4
16
31
5
47
68
32
27
15
6
51
28
45
25
52
30
17
49
24
56
13

>  <PUBCHEM_MMFF94_PARTIAL_CHARGES>  (1) 
21
1 1.2
10 0.27
12 0.06
13 0.42
14 0.09
15 -0.15
16 -0.15
17 -0.01
18 -0.15
19 -0.15
2 -0.57
20 0.11
3 -0.65
35 0.15
36 0.15
37 0.15
38 0.15
4 -0.65
5 -0.81
6 0.27
7 0.27

>  <PUBCHEM_EFFECTIVE_ROTOR_COUNT>  (1) 
7

>  <PUBCHEM_PHARMACOPHORE_FEATURES>  (1) 
6
1 2 acceptor
1 3 acceptor
1 4 acceptor
1 5 cation
5 5 6 7 8 9 rings
6 14 15 16 17 18 19 rings

>  <PUBCHEM_HEAVY_ATOM_COUNT>  (1) 
20

>  <PUBCHEM_ATOM_DEF_STEREO_COUNT>  (1) 
0

>  <PUBCHEM_ATOM_UDEF_STEREO_COUNT>  (1) 
0

>  <PUBCHEM_BOND_DEF_STEREO_COUNT>  (1) 
0

>  <PUBCHEM_BOND_UDEF_STEREO_COUNT>  (1) 
0

>  <PUBCHEM_ISOTOPIC_ATOM_COUNT>  (1) 
0

>  <PUBCHEM_COMPONENT_COUNT>  (1) 
1

>  <PUBCHEM_CACTVS_TAUTO_COUNT>  (1) 
2

>  <PUBCHEM_CONFORMER_ID>  (1) 
0000A87E00000001

>  <PUBCHEM_MMFF94_ENERGY>  (1) 
32.4243

>  <PUBCHEM_FEATURE_SELFOVERLAP>  (1) 
30.465

>  <PUBCHEM_SHAPE_FINGERPRINT>  (1) 
106641 1 14979948194610741050
11315181 36 18272092712796362841
11524674 6 17775566468622841479
11719270 70 18412823569132056326
11796584 16 17240486922698414362
12091667 2 17676207979534069515
12166972 35 17967817167144164357
12236239 1 17560803247224235665
12516196 113 17917991685244787505
12596602 18 13686300170900413015
12616971 3 17774996938235872101
12916748 109 11025792085376573318
13533116 47 16128383636395667006
13668630 136 18272654549942083575
13685833 64 18411422821493174051
13862211 1 18409167693122123514
13964095 4 18040715844938280349
14170010 4 18272930548882854144
1420 363 18272653445644617991
14251752 14 17967809423364932829
14251764 18 18202285801595727929
14251764 46 17240199941283167155
14933364 13 18260550035200946269
15183329 4 18334573517400927945
15475509 35 14332584258749691676
15716309 27 13326854431265706837
17834072 8 18334575742088381589
17844677 252 18335144206965005541
18006028 8 17989205945316636985
200 152 18202565064010315832
20645477 70 18413392021027832471
21150785 3 17675929811191748572
21236236 1 18272091544433967561
21267235 1 18342183258118300916
22224240 67 16415473857332681726
23035841 295 18186800279750996435
23198884 109 16153427238511005785
23536379 177 16805319981152125843
23559900 14 18339076098825968609
23622692 88 16773795917626864317
28498 318 18341613698985593295
29717793 49 18131637776605373076
3004659 81 18260547835470782928
328311 84 18186806894217007763
3545911 37 18335138709248117259
4073 2 17750239268998509435
4325135 7 18411704296844346996
4340502 62 13542468657067142660
4463277 17 18410012147621134693
465052 167 18202288013071401406
5104073 3 17844808088690287722
542803 24 15213017159292571501
559249 180 18131346449849684279
5758199 1 8574713516230332973
59682541 35 18130496505917822930
59682541 52 14056997175395586898
59755656 215 18333732390378399271
59755656 520 17168139070671152331

>  <PUBCHEM_SHAPE_MULTIPOLES>  (1) 
392.85
20.63
1.51
0.84
16.92
0.21
-0.06
-5.35
1.45
-0.57
-0.01
-0.7
-0.11
0.5

>  <PUBCHEM_SHAPE_SELFOVERLAP>  (1) 
798.832

>  <PUBCHEM_SHAPE_VOLUME>  (1) 
230.7

>  <PUBCHEM_COORDINATE_TYPE>  (1) 
2
5
10

$$$$
