43148
     RDKit          3D

 20 22  0  0  0  0  0  0  0  0999 V2000
    5.8621    1.1016   -0.3335 Cl  0  0  0  0  0  0  0  0  0  0  0  0
    1.3886   -1.9188    0.0542 S   0  0  0  0  0  0  0  0  0  0  0  0
    1.6619   -2.5351   -1.2315 O   0  0  0  0  0  0  0  0  0  0  0  0
    1.8728   -2.5264    1.2805 O   0  0  0  0  0  0  0  0  0  0  0  0
   -2.0695   -0.2844    0.3407 N   0  0  0  0  0  0  0  0  0  0  0  0
   -4.7853    0.4952   -0.0331 N   0  0  0  0  0  0  0  0  0  0  0  0
   -0.0369    0.7253    0.1670 N   0  0  0  0  0  0  0  0  0  0  0  0
   -0.2145   -1.6695    0.1879 N   0  0  0  0  0  0  0  0  0  0  0  0
   -3.0353   -1.2421   -0.1966 C   0  0  0  0  0  0  0  0  0  0  0  0
   -2.6449    0.7736    1.1701 C   0  0  0  0  0  0  0  0  0  0  0  0
   -4.1647   -0.5026   -0.9165 C   0  0  0  0  0  0  0  0  0  0  0  0
   -3.7825    1.4696    0.4205 C   0  0  0  0  0  0  0  0  0  0  0  0
   -0.7222   -0.4689    0.2277 C   0  0  0  0  0  0  0  0  0  0  0  0
   -5.8872    1.1715   -0.7161 C   0  0  0  0  0  0  0  0  0  0  0  0
    1.3526    0.8111    0.0492 C   0  0  0  0  0  0  0  0  0  0  0  0
    2.1497   -0.3299   -0.0153 C   0  0  0  0  0  0  0  0  0  0  0  0
    1.9876    2.0575   -0.0081 C   0  0  0  0  0  0  0  0  0  0  0  0
    3.5383   -0.2610   -0.1331 C   0  0  0  0  0  0  0  0  0  0  0  0
    3.3778    2.1459   -0.1256 C   0  0  0  0  0  0  0  0  0  0  0  0
    4.1514    0.9874   -0.1881 C   0  0  0  0  0  0  0  0  0  0  0  0
  1 20  1  0
  2  3  2  0
  2  4  2  0
  2  8  1  0
  2 16  1  0
  5  9  1  0
  5 10  1  0
  5 13  1  0
  6 11  1  0
  6 12  1  0
  6 14  1  0
  7 13  1  0
  7 15  1  0
  8 13  2  0
  9 11  1  0
 10 12  1  0
 15 16  2  0
 15 17  1  0
 16 18  1  0
 17 19  2  0
 18 20  2  0
 19 20  1  0
M  END
>  <PUBCHEM_COMPOUND_CID>  (1) 
43148

>  <PUBCHEM_CONFORMER_RMSD>  (1) 
0.6

>  <PUBCHEM_CONFORMER_DIVERSEORDER>  (1) 
3
7
8
5
1
4
2
6

>  <PUBCHEM_MMFF94_PARTIAL_CHARGES>  (1) 
24
1 -0.18
10 0.37
11 0.27
12 0.27
13 0.55
14 0.27
15 0.1
16 -0.01
17 -0.15
18 -0.15
19 -0.15
2 1.5
20 0.18
3 -0.65
32 0.4
33 0.15
34 0.15
35 0.15
4 -0.65
5 -0.79
6 -0.81
7 -0.55
8 -0.64
9 0.37

>  <PUBCHEM_EFFECTIVE_ROTOR_COUNT>  (1) 
2.4

>  <PUBCHEM_PHARMACOPHORE_FEATURES>  (1) 
8
1 3 acceptor
1 4 acceptor
1 6 cation
1 7 donor
1 8 donor
6 15 16 17 18 19 20 rings
6 2 7 8 13 15 16 rings
6 5 6 9 10 11 12 rings

>  <PUBCHEM_HEAVY_ATOM_COUNT>  (1) 
20

>  <PUBCHEM_ATOM_DEF_STEREO_COUNT>  (1) 
0

>  <PUBCHEM_ATOM_UDEF_STEREO_COUNT>  (1) 
0

>  <PUBCHEM_BOND_DEF_STEREO_COUNT>  (1) 
0

>  <PUBCHEM_BOND_UDEF_STEREO_COUNT>  (1) 
0

>  <PUBCHEM_ISOTOPIC_ATOM_COUNT>  (1) 
0

>  <PUBCHEM_COMPONENT_COUNT>  (1) 
1

>  <PUBCHEM_CACTVS_TAUTO_COUNT>  (1) 
2

>  <PUBCHEM_CONFORMER_ID>  (1) 
0000A88C00000003

>  <PUBCHEM_MMFF94_ENERGY>  (1) 
47.1871

>  <PUBCHEM_FEATURE_SELFOVERLAP>  (1) 
40.661

>  <PUBCHEM_SHAPE_FINGERPRINT>  (1) 
10411042 1 17760364392849721634
10693767 8 17988365845719675558
11471102 20 18410294692313629900
11578080 2 17169821181162641990
12236239 1 18059856143275489921
12403259 415 18268995465017210648
12644460 14 18114177506455440658
12730499 353 18333456439188223219
12788726 201 17274827888149511281
13464514 151 18409453578671531418
13583140 156 17095803338149257185
14350574 20 11887952159645036105
14528608 73 18341891913454645205
15099037 51 18337112358442643532
15196674 1 18410577309730620234
15375358 24 17967254199936409873
15442244 35 18124880053692342777
1601671 61 18334575759157864412
18335252 98 18334016117030835451
18681886 176 18060129990163364832
19862831 5 17989488537084837361
200 152 17989205966907348877
20157964 124 18336260142637060989
20612939 158 18337954489169259847
20645477 56 18113053836121907837
20645477 70 18412545371061937671
21054139 6 18201428233469922455
21421861 104 17751351786035015296
21521239 73 17775852302679575526
21524375 3 18338800129997084166
21709351 56 18337386149105755029
22289505 5 18263636282287641021
22393880 68 18272082846475664613
2255824 54 18337953372641767507
231179 274 18040713666809547412
23402539 116 18272650190370904036
23402655 69 18343301457470749621
23557571 272 16732993033152336305
23559900 14 18059287776894094400
25 1 18408885161419778070
298252 57 18130510837812596002
3060560 45 18273217478352031958
335352 9 18410295831266031756
34934 24 18411134727713371303
3545911 37 18410294727011030369
4072396 5 18335126580286808568
4280585 95 17556033389642787022
4325135 7 18411135879619233727
474 4 18334297595173508473
5104073 3 18408605876623233739
543358 83 18340489945971658809
58051976 378 18342741801498814013
59755656 215 18410013212952437468
6138700 20 18411707548330034998
6328613 192 18190750924331646340
633830 44 18337387253112615230
7364860 26 18342462487154410222
81539 233 18334860523831480430
8272917 22 18340207397279673439
9709674 26 18412270532073716151

>  <PUBCHEM_SHAPE_MULTIPOLES>  (1) 
385.65
11.24
2.42
0.89
5.42
0.96
0.04
-6.1
-2.36
-1.46
0.02
0.32
0.22
-0.32

>  <PUBCHEM_SHAPE_SELFOVERLAP>  (1) 
802.918

>  <PUBCHEM_SHAPE_VOLUME>  (1) 
221.1

>  <PUBCHEM_COORDINATE_TYPE>  (1) 
2
5
10

$$$$
