43152
     RDKit          3D

 16 16  0  0  0  0  0  0  0  0999 V2000
   -5.7890    1.2455   -0.1911 O   0  0  0  0  0  0  0  0  0  0  0  0
   -5.5284   -0.8552    0.6594 O   0  0  0  0  0  0  0  0  0  0  0  0
    4.8002    0.2908    0.3070 N   0  0  0  0  0  0  0  0  0  0  0  0
    2.8431    0.0606   -0.6788 N   0  0  0  0  0  0  0  0  0  0  0  0
    3.4413    0.1537    0.4150 N   0  0  0  0  0  0  0  0  0  0  0  0
   -1.2740   -0.3545   -0.0311 C   0  0  0  0  0  0  0  0  0  0  0  0
    1.4685   -0.0783   -0.4615 C   0  0  0  0  0  0  0  0  0  0  0  0
   -0.7145    0.9155   -0.1708 C   0  0  0  0  0  0  0  0  0  0  0  0
   -0.4624   -1.4865   -0.1065 C   0  0  0  0  0  0  0  0  0  0  0  0
    0.6567    1.0536   -0.3861 C   0  0  0  0  0  0  0  0  0  0  0  0
    0.9089   -1.3484   -0.3217 C   0  0  0  0  0  0  0  0  0  0  0  0
   -2.7038   -0.4983    0.1940 C   0  0  0  0  0  0  0  0  0  0  0  0
    5.5212    0.4011    1.5589 C   0  0  0  0  0  0  0  0  0  0  0  0
    5.5322   -0.1044   -0.8839 C   0  0  0  0  0  0  0  0  0  0  0  0
   -3.6367    0.4390   -0.0848 C   0  0  0  0  0  0  0  0  0  0  0  0
   -5.0632    0.1657    0.1820 C   0  0  0  0  0  0  0  0  0  0  0  0
  1 16  1  0
  2 16  2  0
  3  5  1  0
  3 13  1  0
  3 14  1  0
  4  5  2  0
  4  7  1  0
  6  8  2  0
  6  9  1  0
  6 12  1  0
  7 10  2  0
  7 11  1  0
  8 10  1  0
  9 11  2  0
 12 15  2  0
 15 16  1  0
M  END
>  <PUBCHEM_COMPOUND_CID>  (1) 
43152

>  <PUBCHEM_CONFORMER_RMSD>  (1) 
0.6

>  <PUBCHEM_CONFORMER_DIVERSEORDER>  (1) 
1
4
5
3
2
6

>  <PUBCHEM_MMFF94_PARTIAL_CHARGES>  (1) 
23
1 -0.65
10 -0.15
11 -0.15
12 -0.18
13 0.3
14 0.3
15 -0.14
16 0.71
17 0.15
18 0.15
19 0.15
2 -0.57
20 0.15
21 0.15
28 0.15
29 0.5
3 -0.54
4 -0.18
5 -0.06
6 0.03
7 0.18
8 -0.15
9 -0.15

>  <PUBCHEM_EFFECTIVE_ROTOR_COUNT>  (1) 
4

>  <PUBCHEM_PHARMACOPHORE_FEATURES>  (1) 
4
1 1 acceptor
1 2 acceptor
3 1 2 16 anion
6 6 7 8 9 10 11 rings

>  <PUBCHEM_HEAVY_ATOM_COUNT>  (1) 
16

>  <PUBCHEM_ATOM_DEF_STEREO_COUNT>  (1) 
0

>  <PUBCHEM_ATOM_UDEF_STEREO_COUNT>  (1) 
0

>  <PUBCHEM_BOND_DEF_STEREO_COUNT>  (1) 
0

>  <PUBCHEM_BOND_UDEF_STEREO_COUNT>  (1) 
1

>  <PUBCHEM_ISOTOPIC_ATOM_COUNT>  (1) 
0

>  <PUBCHEM_COMPONENT_COUNT>  (1) 
1

>  <PUBCHEM_CACTVS_TAUTO_COUNT>  (1) 
1

>  <PUBCHEM_CONFORMER_ID>  (1) 
0000A89000000001

>  <PUBCHEM_MMFF94_ENERGY>  (1) 
44.6436

>  <PUBCHEM_FEATURE_SELFOVERLAP>  (1) 
20.353

>  <PUBCHEM_SHAPE_FINGERPRINT>  (1) 
11287383 113 16200431398657010718
11401426 45 18343300370833266399
117890 112 17346599668449532456
12119455 92 17203608190221523806
12236239 1 17385724699034213548
12507557 5 18410578392637541353
12714333 28 15123788496284618426
13533116 47 17632301121399027478
13862211 1 18334572464538081591
14123238 8 16153428354590488702
14251718 22 11887954358689169865
15048467 5 14764348245064521289
15501527 24 12031785881228335184
17834072 33 15719396156937955438
17834076 25 18342177764950087932
20645477 70 16414929539063299110
21637258 2 15068609513771382600
220451 1 16298110886455829346
23402539 116 17312817187177424847
23402655 69 18270961246575013757
23536379 177 15574711387268254661
23559900 14 18201726184842766668
2916195 48 17989199365294656561
366044 4 18412265042667551535
4072396 5 18261385629219394658
42788 4 18410014342423139589
441001 317 17775290413757389753
4463277 17 18260270763168087604
465052 167 16660365879011354226
5104073 3 18115033038012997937
5374978 207 18260261967549825368
59755656 215 18341338786461020102

>  <PUBCHEM_SHAPE_MULTIPOLES>  (1) 
302.59
13.6
1.16
0.91
0.41
0.19
0.18
-2.53
2.63
0.56
-0.05
-1.14
-0.06
0.63

>  <PUBCHEM_SHAPE_SELFOVERLAP>  (1) 
619.264

>  <PUBCHEM_SHAPE_VOLUME>  (1) 
176

>  <PUBCHEM_COORDINATE_TYPE>  (1) 
2
5
10

$$$$
