43150
     RDKit          3D

 22 22  0  0  1  0  0  0  0  0999 V2000
   -2.4155    1.4892    0.7529 O   0  0  0  0  0  0  0  0  0  0  0  0
   -5.1301    1.1173    1.2261 O   0  0  0  0  0  0  0  0  0  0  0  0
    4.0258   -2.0972    0.5029 O   0  0  0  0  0  0  0  0  0  0  0  0
    5.5120   -0.3542    0.3353 O   0  0  0  0  0  0  0  0  0  0  0  0
   -3.4467   -1.5426   -0.7235 N   0  0  0  0  0  0  0  0  0  0  0  0
    3.4748   -0.3294   -0.7763 N   0  0  0  0  0  0  0  0  0  0  0  0
   -4.5154    0.5488    0.0663 C   0  0  0  0  0  0  0  0  0  0  0  0
   -4.1185   -0.8927    0.3935 C   0  0  0  0  0  0  0  0  0  0  0  0
   -3.0300   -2.8921   -0.3668 C   0  0  0  0  0  0  0  0  0  0  0  0
   -3.3315    1.4257   -0.3358 C   0  0  0  0  0  0  0  0  0  0  0  0
   -2.8457   -3.7187   -1.6355 C   0  0  0  0  0  0  0  0  0  0  0  0
   -1.7426   -2.8493    0.4515 C   0  0  0  0  0  0  0  0  0  0  0  0
    1.6053    1.9340   -0.2129 C   0  0  0  0  0  0  0  0  0  0  0  0
    3.0470    2.0929   -0.5588 C   0  0  0  0  0  0  0  0  0  0  0  0
   -1.0917    1.6358    0.4353 C   0  0  0  0  0  0  0  0  0  0  0  0
    3.6006    0.9508   -1.4199 C   0  0  0  0  0  0  0  0  0  0  0  0
    0.6239    2.4643   -1.0503 C   0  0  0  0  0  0  0  0  0  0  0  0
    1.2381    1.2545    0.9487 C   0  0  0  0  0  0  0  0  0  0  0  0
   -0.7245    2.3154   -0.7264 C   0  0  0  0  0  0  0  0  0  0  0  0
   -0.1103    1.1054    1.2727 C   0  0  0  0  0  0  0  0  0  0  0  0
    4.4402   -0.8770    0.0482 C   0  0  0  0  0  0  0  0  0  0  0  0
    4.9348   -2.7809    1.3729 C   0  0  0  0  0  0  0  0  0  0  0  0
  1 10  1  0
  1 15  1  0
  2  7  1  0
  3 21  1  0
  3 22  1  0
  4 21  2  0
  5  8  1  0
  5  9  1  0
  6 16  1  0
  6 21  1  0
  7  8  1  0
  7 10  1  0
  9 11  1  0
  9 12  1  0
 13 14  1  0
 13 17  2  0
 13 18  1  0
 14 16  1  0
 15 19  2  0
 15 20  1  0
 17 19  1  0
 18 20  2  0
M  END
>  <PUBCHEM_COMPOUND_CID>  (1) 
43150

>  <PUBCHEM_CONFORMER_RMSD>  (1) 
1

>  <PUBCHEM_CONFORMER_DIVERSEORDER>  (1) 
1
168
132
49
142
106
115
139
102
120
37
48
76
121
65
56
136
62
84
34
109
77
108
54
12
79
104
180
116
105
156
86
28
38
125
155
39
143
80
7
100
162
83
20
103
55
130
183
51
92
101
141
8
151
5
40
124
118
111
184
150
134
110
181
175
27
23
29
82
18
174
68
9
90
81
163
148
131
133
73
140
171
16
47
19
97
36
161
99
182
67
91
72
57
149
113
10
61
95
41
22
17
25
64
30
165
98
145
172
26
114
32
137
89
78
119
94
96
53
144
2
117
87
178
60
170
21
179
58
70
173
13
138
122
74
123
85
50
185
157
177
15
3
135
147
31
33
107
158
71
127
169
11
152
43
129
6
44
159
35
45
63
112
24
88
160
176
14
69
66
4
59
164
167
128
52
75
166
146
153
93
46
154
42
126

>  <PUBCHEM_MMFF94_PARTIAL_CHARGES>  (1) 
27
1 -0.36
10 0.28
13 -0.14
14 0.14
15 0.08
16 0.3
17 -0.15
18 -0.15
19 -0.15
2 -0.68
20 -0.15
21 0.78
22 0.28
27 0.36
3 -0.43
4 -0.57
40 0.4
41 0.15
42 0.15
43 0.15
44 0.15
45 0.37
5 -0.9
6 -0.73
7 0.28
8 0.27
9 0.27

>  <PUBCHEM_EFFECTIVE_ROTOR_COUNT>  (1) 
11

>  <PUBCHEM_PHARMACOPHORE_FEATURES>  (1) 
9
1 1 acceptor
1 2 acceptor
1 2 donor
1 4 acceptor
1 5 cation
1 5 donor
1 6 donor
3 9 11 12 hydrophobe
6 13 15 17 18 19 20 rings

>  <PUBCHEM_HEAVY_ATOM_COUNT>  (1) 
22

>  <PUBCHEM_ATOM_DEF_STEREO_COUNT>  (1) 
0

>  <PUBCHEM_ATOM_UDEF_STEREO_COUNT>  (1) 
1

>  <PUBCHEM_BOND_DEF_STEREO_COUNT>  (1) 
0

>  <PUBCHEM_BOND_UDEF_STEREO_COUNT>  (1) 
0

>  <PUBCHEM_ISOTOPIC_ATOM_COUNT>  (1) 
0

>  <PUBCHEM_COMPONENT_COUNT>  (1) 
1

>  <PUBCHEM_CACTVS_TAUTO_COUNT>  (1) 
2

>  <PUBCHEM_CONFORMER_ID>  (1) 
0000A88E00000001

>  <PUBCHEM_MMFF94_ENERGY>  (1) 
38.6646

>  <PUBCHEM_FEATURE_SELFOVERLAP>  (1) 
45.675

>  <PUBCHEM_SHAPE_FINGERPRINT>  (1) 
11186622 123 18267305520130151198
11796584 16 18130519598997195596
12174731 88 18045487626408441634
12410352 35 18410295813278904342
12633257 1 18272661129599469581
12715332 25 18411987953258346369
14251751 18 18411415116258496192
15250474 111 18339923821921452430
15537594 2 18261971677622958846
15728490 51 18337104580869170578
17859628 97 18409452453907201067
19141452 34 18412266129478919681
20621476 51 18129373968206014503
20775530 9 17841153565205701743
21049683 118 15621190862205278491
21054139 6 18121507010323538868
21315759 227 17610053838559929426
23559900 14 18201157758184479696
338550 245 18333453123193915026
3680242 22 18337683996492711451
4283 87 18334007298571524298
463206 1 18334299764427379418
474 4 10952044537861995820
633830 44 16805325517444799885
6433294 58 18411421717634019854
76465 3 18188492350889843512

>  <PUBCHEM_SHAPE_MULTIPOLES>  (1) 
419.31
11.19
4.29
1.3
4.84
3.61
0.1
6.25
-1.22
-0.97
0.74
0.12
0.28
-2.8

>  <PUBCHEM_SHAPE_SELFOVERLAP>  (1) 
833.881

>  <PUBCHEM_SHAPE_VOLUME>  (1) 
248.8

>  <PUBCHEM_COORDINATE_TYPE>  (1) 
2
5
10

$$$$
