43167
     RDKit          3D

 25 28  0  0  1  0  0  0  0  0999 V2000
    1.3266    1.4216   -1.8272 O   0  0  0  0  0  0  0  0  0  0  0  0
   -1.7632    2.1234    1.4609 O   0  0  0  0  0  0  0  0  0  0  0  0
   -0.4892    2.8176   -1.7517 O   0  0  0  0  0  0  0  0  0  0  0  0
    0.2040    3.2716    1.6962 O   0  0  0  0  0  0  0  0  0  0  0  0
    4.0715   -0.4286   -0.1484 N   0  0  0  0  0  0  0  0  0  0  0  0
   -3.7707   -0.8310    0.4534 N   0  0  0  0  0  0  0  0  0  0  0  0
    0.0503    1.3916    0.1524 C   0  0  0  0  0  0  0  0  0  0  0  0
    1.4414    0.8545    0.4330 C   0  0  0  0  0  0  0  0  0  0  0  0
   -1.0308    0.3231    0.1637 C   0  0  0  0  0  0  0  0  0  0  0  0
    1.9172    0.4543   -0.9483 C   0  0  0  0  0  0  0  0  0  0  0  0
   -2.2591    1.1080    0.5784 C   0  0  0  0  0  0  0  0  0  0  0  0
    0.2299    1.9813   -1.2268 C   0  0  0  0  0  0  0  0  0  0  0  0
   -0.4447    2.3706    1.1867 C   0  0  0  0  0  0  0  0  0  0  0  0
    3.4271    0.4835   -1.0930 C   0  0  0  0  0  0  0  0  0  0  0  0
   -3.2942    0.2640    1.2981 C   0  0  0  0  0  0  0  0  0  0  0  0
    5.5337   -0.3498   -0.2737 C   0  0  0  0  0  0  0  0  0  0  0  0
    3.5940   -1.8032   -0.3540 C   0  0  0  0  0  0  0  0  0  0  0  0
   -4.6825   -1.7026    1.2076 C   0  0  0  0  0  0  0  0  0  0  0  0
   -4.4189   -0.3031   -0.7554 C   0  0  0  0  0  0  0  0  0  0  0  0
    6.2247   -1.2614    0.7415 C   0  0  0  0  0  0  0  0  0  0  0  0
    4.2216   -2.7625    0.6585 C   0  0  0  0  0  0  0  0  0  0  0  0
   -5.1520   -2.8809    0.3532 C   0  0  0  0  0  0  0  0  0  0  0  0
   -4.8797   -1.4359   -1.6741 C   0  0  0  0  0  0  0  0  0  0  0  0
    5.7441   -2.7021    0.6100 C   0  0  0  0  0  0  0  0  0  0  0  0
   -5.8012   -2.4040   -0.9411 C   0  0  0  0  0  0  0  0  0  0  0  0
  1 10  1  0
  1 12  1  0
  2 11  1  0
  2 13  1  0
  3 12  2  0
  4 13  2  0
  5 14  1  0
  5 16  1  0
  5 17  1  0
  6 15  1  0
  6 18  1  0
  6 19  1  0
  7  8  1  0
  7  9  1  0
  7 12  1  0
  7 13  1  0
  8 10  1  0
  9 11  1  0
 10 14  1  0
 11 15  1  0
 16 20  1  0
 17 21  1  0
 18 22  1  0
 19 23  1  0
 20 24  1  0
 21 24  1  0
 22 25  1  0
 23 25  1  0
M  END
>  <PUBCHEM_COMPOUND_CID>  (1) 
43167

>  <PUBCHEM_CONFORMER_RMSD>  (1) 
0.8

>  <PUBCHEM_CONFORMER_DIVERSEORDER>  (1) 
1
85
26
57
76
7
24
29
74
86
54
33
13
92
3
42
70
71
75
60
80
35
2
9
38
21
83
43
65
87
95
16
46
19
28
36
84
90
34
67
15
25
58
18
81
78
79
31
50
11
97
61
40
73
93
91
14
64
20
30
23
72
39
63
27
96
41
17
77
56
49
82
32
88
22
5
68
51
53
59
55
66
44
89
8
69
48
6
62
47
12
37
4
94
45
52
10

>  <PUBCHEM_MMFF94_PARTIAL_CHARGES>  (1) 
17
1 -0.43
10 0.28
11 0.28
12 0.66
13 0.66
14 0.27
15 0.27
16 0.27
17 0.27
18 0.27
19 0.27
2 -0.43
3 -0.57
4 -0.57
5 -0.81
6 -0.81
7 0.12

>  <PUBCHEM_EFFECTIVE_ROTOR_COUNT>  (1) 
7.6

>  <PUBCHEM_PHARMACOPHORE_FEATURES>  (1) 
8
1 3 acceptor
1 4 acceptor
1 5 cation
1 6 cation
5 1 7 8 10 12 rings
5 2 7 9 11 13 rings
6 5 16 17 20 21 24 rings
6 6 18 19 22 23 25 rings

>  <PUBCHEM_HEAVY_ATOM_COUNT>  (1) 
25

>  <PUBCHEM_ATOM_DEF_STEREO_COUNT>  (1) 
0

>  <PUBCHEM_ATOM_UDEF_STEREO_COUNT>  (1) 
2

>  <PUBCHEM_BOND_DEF_STEREO_COUNT>  (1) 
0

>  <PUBCHEM_BOND_UDEF_STEREO_COUNT>  (1) 
0

>  <PUBCHEM_ISOTOPIC_ATOM_COUNT>  (1) 
0

>  <PUBCHEM_COMPONENT_COUNT>  (1) 
1

>  <PUBCHEM_CACTVS_TAUTO_COUNT>  (1) 
1

>  <PUBCHEM_CONFORMER_ID>  (1) 
0000A89F00000001

>  <PUBCHEM_MMFF94_ENERGY>  (1) 
28.9684

>  <PUBCHEM_FEATURE_SELFOVERLAP>  (1) 
40.615

>  <PUBCHEM_SHAPE_FINGERPRINT>  (1) 
10074138 170 17486224322452712385
10447042 23 18335422387421965622
10753850 27 18334574655092702475
11135926 11 17607271984464080628
11497681 19 18410017611885412374
11552529 35 18124314896542410928
11578080 2 18409157814202529349
11720765 8 18263076777209467949
11796584 16 18341336591331291669
12390115 104 10951757603781223012
12596602 18 17561363959658380778
12633257 1 16056596603400426915
12892183 10 15554180180872853149
13544653 18 18411984658575324936
13583140 156 17058637470535733448
13828863 39 10879991372040806107
13885169 86 10591752208127985858
1454969 45 18187935006369501118
14848178 5 18408319982093805370
15019793 15 17474954702258145171
15183329 4 16298376955374422883
15419009 47 18262506002210274837
15728490 51 18341891935810702982
17857418 61 18411420600636606730
19141452 34 18045510711625145744
20028762 73 18410572843524776074
20567600 247 18263362645716162879
20567600 70 18270679890971469178
20626108 58 18334858346193416437
21033648 29 15338573639322104163
21315764 119 17894903075692896511
21344244 78 15912501237268582003
21458453 9 16701161148952283290
21728266 224 18341897355046210392
22393880 68 16588302856039883691
23389318 12 17821453448774462926
23559900 14 18043806696862639351
255183 313 17982469104931103449
2838139 119 8574709083639765938
314194 84 18339088193058105227
38570 142 9871472049440061394
439807 62 18261678194493474571
46194498 28 15938119883437882751
463206 1 18340210803363481539
5104073 3 17703239528489572353
5924683 9 18265335010646369648
6034566 193 8574711308722917179
613672 6 17846783996810498375
636775 72 9437959856786080238
6431902 208 18409731754971486179
6712543 237 16702024132357136423
76465 3 18342458157684821161
7808743 9 8430315723469420603
7970288 3 18341331188527151587

>  <PUBCHEM_SHAPE_MULTIPOLES>  (1) 
481.05
14.3
3.65
1.58
3.74
0.04
-0.22
-17.66
-0.03
-0.48
0.64
-0.95
0.76
-1.61

>  <PUBCHEM_SHAPE_SELFOVERLAP>  (1) 
1011.166

>  <PUBCHEM_SHAPE_VOLUME>  (1) 
273.3

>  <PUBCHEM_COORDINATE_TYPE>  (1) 
2
5
10

$$$$
