43170
     RDKit          3D

 20 21  0  0  0  0  0  0  0  0999 V2000
   -8.0670    1.4204    0.9183 Cl  0  0  0  0  0  0  0  0  0  0  0  0
    8.0571    1.4876   -0.8419 Cl  0  0  0  0  0  0  0  0  0  0  0  0
   -1.8305   -0.8970   -0.3772 N   0  0  0  0  0  0  0  0  0  0  0  0
    1.8366   -0.9368    0.3290 N   0  0  0  0  0  0  0  0  0  0  0  0
   -4.5013    0.2026   -0.5029 N   0  0  0  0  0  0  0  0  0  0  0  0
    4.5001    0.1724    0.5126 N   0  0  0  0  0  0  0  0  0  0  0  0
   -0.3989   -0.8754   -0.6713 C   0  0  0  0  0  0  0  0  0  0  0  0
    0.4050   -0.9404    0.6238 C   0  0  0  0  0  0  0  0  0  0  0  0
   -2.2144    0.2670    0.4308 C   0  0  0  0  0  0  0  0  0  0  0  0
   -2.6166   -0.9430   -1.6162 C   0  0  0  0  0  0  0  0  0  0  0  0
    2.6236   -1.0431    1.5638 C   0  0  0  0  0  0  0  0  0  0  0  0
    2.2125    0.2708   -0.4163 C   0  0  0  0  0  0  0  0  0  0  0  0
   -3.7160    0.2481    0.7367 C   0  0  0  0  0  0  0  0  0  0  0  0
   -4.1180   -0.9625   -1.3093 C   0  0  0  0  0  0  0  0  0  0  0  0
    4.1249   -1.0363    1.2563 C   0  0  0  0  0  0  0  0  0  0  0  0
    3.7141    0.2784   -0.7226 C   0  0  0  0  0  0  0  0  0  0  0  0
   -5.9331    0.1829   -0.2097 C   0  0  0  0  0  0  0  0  0  0  0  0
    5.9319    0.1778    0.2190 C   0  0  0  0  0  0  0  0  0  0  0  0
   -6.3280    1.4455    0.5404 C   0  0  0  0  0  0  0  0  0  0  0  0
    6.3180    1.4810   -0.4632 C   0  0  0  0  0  0  0  0  0  0  0  0
  1 19  1  0
  2 20  1  0
  3  7  1  0
  3  9  1  0
  3 10  1  0
  4  8  1  0
  4 11  1  0
  4 12  1  0
  5 13  1  0
  5 14  1  0
  5 17  1  0
  6 15  1  0
  6 16  1  0
  6 18  1  0
  7  8  1  0
  9 13  1  0
 10 14  1  0
 11 15  1  0
 12 16  1  0
 17 19  1  0
 18 20  1  0
M  END
>  <PUBCHEM_COMPOUND_CID>  (1) 
43170

>  <PUBCHEM_CONFORMER_RMSD>  (1) 
1

>  <PUBCHEM_CONFORMER_DIVERSEORDER>  (1) 
1
36
34
11
38
3
28
4
31
8
10
2
49
16
25
15
19
29
56
7
48
37
9
22
14
26
41
42
55
45
43
12
35
53
50
20
39
32
21
24
33
52
30
17
18
27
46
47
5
40
13
51
6
54
57
44
23

>  <PUBCHEM_MMFF94_PARTIAL_CHARGES>  (1) 
20
1 -0.29
10 0.27
11 0.27
12 0.27
13 0.27
14 0.27
15 0.27
16 0.27
17 0.27
18 0.27
19 0.29
2 -0.29
20 0.29
3 -0.81
4 -0.81
5 -0.81
6 -0.81
7 0.27
8 0.27
9 0.27

>  <PUBCHEM_EFFECTIVE_ROTOR_COUNT>  (1) 
9.4

>  <PUBCHEM_PHARMACOPHORE_FEATURES>  (1) 
6
1 3 cation
1 4 cation
1 5 cation
1 6 cation
6 3 5 9 10 13 14 rings
6 4 6 11 12 15 16 rings

>  <PUBCHEM_HEAVY_ATOM_COUNT>  (1) 
20

>  <PUBCHEM_ATOM_DEF_STEREO_COUNT>  (1) 
0

>  <PUBCHEM_ATOM_UDEF_STEREO_COUNT>  (1) 
0

>  <PUBCHEM_BOND_DEF_STEREO_COUNT>  (1) 
0

>  <PUBCHEM_BOND_UDEF_STEREO_COUNT>  (1) 
0

>  <PUBCHEM_ISOTOPIC_ATOM_COUNT>  (1) 
0

>  <PUBCHEM_COMPONENT_COUNT>  (1) 
1

>  <PUBCHEM_CACTVS_TAUTO_COUNT>  (1) 
1

>  <PUBCHEM_CONFORMER_ID>  (1) 
0000A8A200000001

>  <PUBCHEM_MMFF94_ENERGY>  (1) 
32.8026

>  <PUBCHEM_FEATURE_SELFOVERLAP>  (1) 
30.453

>  <PUBCHEM_SHAPE_FINGERPRINT>  (1) 
10 15 15430037690984202324
10354089 29 17822292370790581074
106641 1 17530689823068707457
10670039 82 17132124506514112648
11315181 36 18260828233508110535
11724838 91 17458064901788635355
12236239 1 18411414012035351350
12390115 104 16486702342984763833
12555020 224 13039184831465870517
12596602 18 18333732433264450946
12730499 353 16805317765666764274
13073987 5 15719661061656609365
13177829 20 17821734936018234449
13533116 47 18188482476295917538
13631057 29 17751920465454658723
13862211 1 9007057971870917857
13955234 65 17386552571756948026
13964095 4 17060340729520593372
1420 363 14707212089526630619
14251752 14 16988566797278224870
14251757 52 18342176670039856944
14251764 18 18408884045113416005
14341114 176 17167860829107995422
15048467 5 18411136935110264129
15183329 4 15769782333637172918
15242439 84 15841828971145034935
15475509 35 13624071073592812912
15690457 1 8862943857917194324
15706992 2 18261689128546033369
1577012 14 18412821391240200367
1768 4 17241048807758551724
17834072 8 15770057237408697350
18222031 100 12679465283746058414
20281389 69 18201714021052474177
20526848 3 18411141337452028360
20621476 66 18413672421829832167
20735858 18 14056720149213651736
21095123 145 18060424651602602555
21095123 293 18409454673931214997
21130935 74 15792285995531855977
21130983 4 18334577940515733089
220451 1 18411130342330547334
221357 26 14476961168493172451
2215653 11 14836403631410137559
22224240 67 16732985344469994683
2297311 6 16773798129761673643
23081809 10 18341880896800578055
23402539 116 17774995812727301262
23559900 14 14907887323470958146
3004659 81 13039185896839188558
3545911 37 16917065564418642791
4340502 62 15140673684010778944
445580 37 17418381264090138977
5104073 3 17604420925127505738
54076057 127 17968098590892393642
542803 24 18411692192777427222
5758199 1 17967816063336919354
59682541 35 15936416662437932057
59682541 52 15051738560247375412
59755656 215 15841556258138699572
59755656 520 18261106387425822011
9953998 17 16805610287283308521

>  <PUBCHEM_SHAPE_MULTIPOLES>  (1) 
395.41
22.12
1.45
1.31
0.15
0.29
0.03
14.92
-0.4
-0.18
-0.03
0.14
-0.34
-2.64

>  <PUBCHEM_SHAPE_SELFOVERLAP>  (1) 
756.101

>  <PUBCHEM_SHAPE_VOLUME>  (1) 
242.3

>  <PUBCHEM_COORDINATE_TYPE>  (1) 
2
5
10

$$$$
