4317
     RDKit          3D

 22 21  0  0  1  0  0  0  0  0999 V2000
    1.0557    0.7398   -0.9377 O   0  0  0  0  0  0  0  0  0  0  0  0
   -3.6870    0.8834    1.9151 O   0  0  0  0  0  0  0  0  0  0  0  0
   -1.2281   -0.0838    2.1849 O   0  0  0  0  0  0  0  0  0  0  0  0
   -4.2640    3.1024   -1.5755 O   0  0  0  0  0  0  0  0  0  0  0  0
   -5.4225    1.7473   -0.1696 O   0  0  0  0  0  0  0  0  0  0  0  0
   -1.0789   -0.7184   -0.0440 N   0  0  0  0  0  0  0  0  0  0  0  0
    2.3771   -0.3845    0.6058 N   0  0  0  0  0  0  0  0  0  0  0  0
    0.4142   -2.4260   -1.0204 C   0  0  0  0  0  0  0  0  0  0  0  0
    0.2258   -1.3233    0.0293 C   0  0  0  0  0  0  0  0  0  0  0  0
   -0.6004   -3.5841   -0.9314 C   0  0  0  0  0  0  0  0  0  0  0  0
    4.5474    0.2279   -0.4057 C   0  0  0  0  0  0  0  0  0  0  0  0
    1.2487   -0.2117   -0.1837 C   0  0  0  0  0  0  0  0  0  0  0  0
    5.7629    1.1764   -0.4081 C   0  0  0  0  0  0  0  0  0  0  0  0
    3.4765    0.5532    0.6329 C   0  0  0  0  0  0  0  0  0  0  0  0
   -0.4726   -4.3719    0.3732 C   0  0  0  0  0  0  0  0  0  0  0  0
   -2.0234   -3.0349   -1.0649 C   0  0  0  0  0  0  0  0  0  0  0  0
   -1.7051   -0.1418    1.0535 C   0  0  0  0  0  0  0  0  0  0  0  0
    6.4268    1.1688    0.9716 C   0  0  0  0  0  0  0  0  0  0  0  0
    5.3858    2.6083   -0.7907 C   0  0  0  0  0  0  0  0  0  0  0  0
   -3.0843    0.4125    0.7185 C   0  0  0  0  0  0  0  0  0  0  0  0
   -2.9964    1.5488   -0.3033 C   0  0  0  0  0  0  0  0  0  0  0  0
   -4.3583    2.1116   -0.6497 C   0  0  0  0  0  0  0  0  0  0  0  0
  1 12  2  0
  2 20  1  0
  3 17  2  0
  4 22  1  0
  5 22  2  0
  6  9  1  0
  6 17  1  0
  7 12  1  0
  7 14  1  0
  8  9  1  0
  8 10  1  0
  9 12  1  0
 10 15  1  0
 10 16  1  0
 11 13  1  0
 11 14  1  0
 13 18  1  0
 13 19  1  0
 17 20  1  0
 20 21  1  0
 21 22  1  0
M  END
>  <PUBCHEM_COMPOUND_CID>  (1) 
4317

>  <PUBCHEM_CONFORMER_RMSD>  (1) 
1.2

>  <PUBCHEM_CONFORMER_DIVERSEORDER>  (1) 
1
46
61
45
103
24
112
131
134
29
13
3
126
12
124
91
36
110
10
128
68
96
78
102
109
11
99
18
88
75
98
38
6
47
21
62
44
71
23
111
113
25
122
66
93
39
17
81
85
95
33
53
105
133
63
48
90
87
86
60
115
139
2
138
121
130
35
108
59
4
127
89
32
80
82
51
7
58
9
84
20
117
76
8
132
119
50
107
73
67
74
19
97
5
72
123
129
55
40
77
16
57
56
94
28
37
70
114
54
65
79
104
31
120
125
137
42
136
118
26
116
41
43
92
52
106
69
100
14
135
22
83
101
34
64
27
15
49
30

>  <PUBCHEM_MMFF94_PARTIAL_CHARGES>  (1) 
18
1 -0.57
12 0.57
14 0.3
17 0.57
2 -0.68
20 0.34
21 0.06
22 0.66
3 -0.57
32 0.37
39 0.37
4 -0.65
49 0.4
5 -0.57
50 0.5
6 -0.73
7 -0.73
9 0.36

>  <PUBCHEM_EFFECTIVE_ROTOR_COUNT>  (1) 
12

>  <PUBCHEM_PHARMACOPHORE_FEATURES>  (1) 
11
1 1 acceptor
1 2 acceptor
1 2 donor
1 3 acceptor
1 4 acceptor
1 5 acceptor
1 6 donor
1 7 donor
3 10 15 16 hydrophobe
3 13 18 19 hydrophobe
3 4 5 22 anion

>  <PUBCHEM_HEAVY_ATOM_COUNT>  (1) 
22

>  <PUBCHEM_ATOM_DEF_STEREO_COUNT>  (1) 
0

>  <PUBCHEM_ATOM_UDEF_STEREO_COUNT>  (1) 
2

>  <PUBCHEM_BOND_DEF_STEREO_COUNT>  (1) 
0

>  <PUBCHEM_BOND_UDEF_STEREO_COUNT>  (1) 
0

>  <PUBCHEM_ISOTOPIC_ATOM_COUNT>  (1) 
0

>  <PUBCHEM_COMPONENT_COUNT>  (1) 
1

>  <PUBCHEM_CACTVS_TAUTO_COUNT>  (1) 
4

>  <PUBCHEM_CONFORMER_ID>  (1) 
000010DD00000001

>  <PUBCHEM_MMFF94_ENERGY>  (1) 
32.3499

>  <PUBCHEM_FEATURE_SELFOVERLAP>  (1) 
55.892

>  <PUBCHEM_SHAPE_FINGERPRINT>  (1) 
105312 117 18413107264548122556
12293681 160 17703505510875849881
12549972 3 17102025226002011289
12788726 201 18194387016856621914
12892183 10 17240490190677714512
12969540 114 18341604897991513972
13911987 19 18343021073542781017
14178000 22 18411138043370322590
167882 2 18194962946153420374
17539 30 17984130736786728439
17980427 23 17748834029220059101
204376 136 18341897359483680355
21033648 29 18412819205408334968
23419403 2 17029081403606303239
268830 7 17096078225617053396
2838139 119 18260538996513049164
3057174 1 18130787802467147735
3759504 43 18411982485459263586
53917941 68 18343292695531809126
559249 180 18343300384420353334
59755656 520 17917441920941353791
6327066 14 18409162203637318549
633830 44 17558852605684405938
7399639 24 18191606180962680467
77188 2 17257089797006658847
9981440 41 18336551512575032177

>  <PUBCHEM_SHAPE_MULTIPOLES>  (1) 
413.44
12.22
4.36
1.4
16.19
4.45
-0.43
-14.61
0.47
-4.6
1.74
-0.86
-0.29
0.2

>  <PUBCHEM_SHAPE_SELFOVERLAP>  (1) 
796.291

>  <PUBCHEM_SHAPE_VOLUME>  (1) 
250.6

>  <PUBCHEM_COORDINATE_TYPE>  (1) 
2
5
10

$$$$
