43185
     RDKit          3D

 13 14  0  0  0  0  0  0  0  0999 V2000
    3.6802    0.6793    0.0000 S   0  0  0  0  0  0  0  0  0  0  0  0
   -2.4213    0.1790    0.0001 N   0  0  0  0  0  0  0  0  0  0  0  0
    2.2801    1.5725    0.0002 N   0  0  0  0  0  0  0  0  0  0  0  0
    3.0655   -0.8634   -0.0002 N   0  0  0  0  0  0  0  0  0  0  0  0
   -0.9162   -0.0994    0.0002 C   0  0  0  0  0  0  0  0  0  0  0  0
   -3.0353   -0.4423    1.2513 C   0  0  0  0  0  0  0  0  0  0  0  0
   -3.0321   -0.4242   -1.2617 C   0  0  0  0  0  0  0  0  0  0  0  0
   -2.7318    1.6745    0.0100 C   0  0  0  0  0  0  0  0  0  0  0  0
   -0.1145    1.0101    0.0003 C   0  0  0  0  0  0  0  0  0  0  0  0
   -0.5613   -1.4314   -0.0001 C   0  0  0  0  0  0  0  0  0  0  0  0
    1.2652    0.6935    0.0002 C   0  0  0  0  0  0  0  0  0  0  0  0
    0.7932   -1.8056   -0.0002 C   0  0  0  0  0  0  0  0  0  0  0  0
    1.7282   -0.7427    0.0000 C   0  0  0  0  0  0  0  0  0  0  0  0
  1  3  1  0
  1  4  1  0
  2  5  1  0
  2  6  1  0
  2  7  1  0
  2  8  1  0
  3 11  2  0
  4 13  2  0
  5  9  2  0
  5 10  1  0
  9 11  1  0
 10 12  2  0
 11 13  1  0
 12 13  1  0
M  CHG  1   2   1
M  END
>  <PUBCHEM_COMPOUND_CID>  (1) 
43185

>  <PUBCHEM_CONFORMER_RMSD>  (1) 
0.4

>  <PUBCHEM_CONFORMER_DIVERSEORDER>  (1) 
1
2

>  <PUBCHEM_MMFF94_PARTIAL_CHARGES>  (1) 
16
1 0.44
10 -0.15
11 0.29
12 -0.15
13 0.29
2 -0.87
23 0.15
24 0.15
25 0.15
3 -0.51
4 -0.51
5 0.36
6 0.5
7 0.5
8 0.5
9 -0.15

>  <PUBCHEM_EFFECTIVE_ROTOR_COUNT>  (1) 
1

>  <PUBCHEM_PHARMACOPHORE_FEATURES>  (1) 
5
1 2 cation
1 3 acceptor
1 4 acceptor
5 1 3 4 11 13 rings
6 5 9 10 11 12 13 rings

>  <PUBCHEM_HEAVY_ATOM_COUNT>  (1) 
13

>  <PUBCHEM_ATOM_DEF_STEREO_COUNT>  (1) 
0

>  <PUBCHEM_ATOM_UDEF_STEREO_COUNT>  (1) 
0

>  <PUBCHEM_BOND_DEF_STEREO_COUNT>  (1) 
0

>  <PUBCHEM_BOND_UDEF_STEREO_COUNT>  (1) 
0

>  <PUBCHEM_ISOTOPIC_ATOM_COUNT>  (1) 
0

>  <PUBCHEM_COMPONENT_COUNT>  (1) 
1

>  <PUBCHEM_CACTVS_TAUTO_COUNT>  (1) 
1

>  <PUBCHEM_CONFORMER_ID>  (1) 
0000A8B100000001

>  <PUBCHEM_MMFF94_ENERGY>  (1) 
56.6035

>  <PUBCHEM_FEATURE_SELFOVERLAP>  (1) 
25.488

>  <PUBCHEM_SHAPE_FINGERPRINT>  (1) 
10219947 1 18335139799737261324
10608611 8 18408040693192164325
11132069 177 18272080596123784898
11471102 20 18410289177317120165
11471102 22 18261973897888877859
11543360 7 15625938811191471760
12032990 46 18336837415715706994
124424 183 17676475125713988146
12491281 212 17561093509176695403
12932764 1 17846497045333902697
13380535 76 18411132580498950062
14144814 61 18410573989673336872
14289901 80 15502376750844514228
14325111 11 18410575080510724800
14897335 6 18340479084342206540
15219456 202 18261117344113448467
15309172 13 18412549824832201787
15775835 57 18202285805510977865
16945 1 18410855477466442438
17844478 74 18114191847293141265
18175812 5 17821728342531310887
18186145 218 17917998286709767552
19026448 4 16298103185795667186
19026448 5 16343986905534387446
193761 8 17402049994417439682
200 152 18272361006286346359
20201158 50 18334856078308161971
20645477 70 18339918221400454855
20715346 28 17967814985052155997
21501502 16 18264763264394074253
23402539 116 18271515476848064396
23402655 69 18268697330511211973
23463225 33 18335137549406500306
2748010 2 17979070488260036982
3248919 1 17967532376198979885
5084963 1 18059568105198360939
528886 8 18411132554496771498
63268167 104 18343021064493267443
81228 2 17547565337294738114

>  <PUBCHEM_SHAPE_MULTIPOLES>  (1) 
256.44
5.73
1.69
0.86
0.85
0.02
0
-1.12
0
0.16
0
-0.76
0.1
0

>  <PUBCHEM_SHAPE_SELFOVERLAP>  (1) 
527.576

>  <PUBCHEM_SHAPE_VOLUME>  (1) 
152.6

>  <PUBCHEM_COORDINATE_TYPE>  (1) 
2
5
10

$$$$
