43181
     RDKit          3D

 20 20  0  0  0  0  0  0  0  0999 V2000
   -0.6127    1.1453   -0.0225 O   0  0  0  0  0  0  0  0  0  0  0  0
   -3.9166   -2.9002    1.7047 O   0  0  0  0  0  0  0  0  0  0  0  0
   -3.0794    1.6483    0.0233 N   0  0  0  0  0  0  0  0  0  0  0  0
   -1.6960    1.7340    0.6998 C   0  0  0  0  0  0  0  0  0  0  0  0
   -3.4242    0.1760   -0.2134 C   0  0  0  0  0  0  0  0  0  0  0  0
    3.0765    0.7266    0.5589 C   0  0  0  0  0  0  0  0  0  0  0  0
    4.1882    0.1116   -0.2942 C   0  0  0  0  0  0  0  0  0  0  0  0
    1.7234    0.6330   -0.1448 C   0  0  0  0  0  0  0  0  0  0  0  0
   -4.1561    2.2637    0.9139 C   0  0  0  0  0  0  0  0  0  0  0  0
   -3.0267    2.4473   -1.2774 C   0  0  0  0  0  0  0  0  0  0  0  0
    5.5651    0.1578    0.3746 C   0  0  0  0  0  0  0  0  0  0  0  0
    0.6168    1.2788    0.6771 C   0  0  0  0  0  0  0  0  0  0  0  0
    6.6634   -0.5226   -0.4456 C   0  0  0  0  0  0  0  0  0  0  0  0
   -3.5147   -0.7017    0.8670 C   0  0  0  0  0  0  0  0  0  0  0  0
   -3.6478   -0.2880   -1.5097 C   0  0  0  0  0  0  0  0  0  0  0  0
    7.9985   -0.5107    0.3005 C   0  0  0  0  0  0  0  0  0  0  0  0
   -3.8290   -2.0434    0.6509 C   0  0  0  0  0  0  0  0  0  0  0  0
   -3.9620   -1.6297   -1.7257 C   0  0  0  0  0  0  0  0  0  0  0  0
    9.0857   -1.2189   -0.4921 C   0  0  0  0  0  0  0  0  0  0  0  0
   -4.0526   -2.5074   -0.6454 C   0  0  0  0  0  0  0  0  0  0  0  0
  1  4  1  0
  1 12  1  0
  2 17  1  0
  3  4  1  0
  3  5  1  0
  3  9  1  0
  3 10  1  0
  5 14  2  0
  5 15  1  0
  6  7  1  0
  6  8  1  0
  7 11  1  0
  8 12  1  0
 11 13  1  0
 13 16  1  0
 14 17  1  0
 15 18  2  0
 16 19  1  0
 17 20  2  0
 18 20  1  0
M  CHG  1   3   1
M  END
>  <PUBCHEM_COMPOUND_CID>  (1) 
43181

>  <PUBCHEM_CONFORMER_RMSD>  (1) 
1

>  <PUBCHEM_CONFORMER_DIVERSEORDER>  (1) 
1
5
180
233
218
182
30
313
23
216
186
278
294
116
292
209
248
156
161
238
46
312
301
288
178
247
227
78
232
47
7
59
284
286
308
224
242
56
293
14
285
273
187
121
251
94
267
118
107
21
126
291
306
70
274
289
225
35
196
42
8
236
220
311
62
36
123
297
263
169
79
112
157
139
3
296
129
29
245
217
179
44
177
250
266
283
168
4
185
135
305
256
137
309
9
52
158
95
37
249
17
246
102
260
66
302
199
203
254
226
63
31
159
175
197
51
72
298
270
280
295
48
130
45
58
68
19
147
262
113
134
12
264
108
143
252
97
11
132
271
65
153
75
258
122
160
281
49
28
272
144
213
165
133
140
136
90
164
93
22
109
221
84
60
110
64
38
243
304
117
259
92
57
71
173
53
83
33
154
184
244
74
171
54
163
87
131
61
142
261
190
166
276
24
235
310
39
212
290
120
76
25
174
18
204
82
269
89
210
194
148
222
41
198
27
307
183
100
138
299
277
43
189
240
124
231
214
13
205
253
105
96
152
101
141
170
228
16
287
106
191
275
125
10
207
98
201
119
202
55
99
303
172
192
32
146
149
282
111
40
73
151
2
162
88
239
69
77
128
15
114
50
86
34
6
115
255
211
103
155
300
219
195
229
265
234
85
20
127
257
181
268
188
193
279
215
208
230
67
200
223
241
80
145
150
26
167
176
81
91
206
104
237

>  <PUBCHEM_MMFF94_PARTIAL_CHARGES>  (1) 
18
1 -0.56
10 0.5
12 0.28
14 -0.15
15 -0.15
17 0.08
18 -0.15
2 -0.53
20 -0.15
3 -0.87
4 0.78
41 0.15
42 0.15
45 0.15
49 0.15
5 0.36
50 0.45
9 0.5

>  <PUBCHEM_EFFECTIVE_ROTOR_COUNT>  (1) 
10

>  <PUBCHEM_PHARMACOPHORE_FEATURES>  (1) 
7
1 1 acceptor
1 19 hydrophobe
1 2 donor
1 3 cation
3 11 13 16 hydrophobe
3 6 7 8 hydrophobe
6 5 14 15 17 18 20 rings

>  <PUBCHEM_HEAVY_ATOM_COUNT>  (1) 
20

>  <PUBCHEM_ATOM_DEF_STEREO_COUNT>  (1) 
0

>  <PUBCHEM_ATOM_UDEF_STEREO_COUNT>  (1) 
0

>  <PUBCHEM_BOND_DEF_STEREO_COUNT>  (1) 
0

>  <PUBCHEM_BOND_UDEF_STEREO_COUNT>  (1) 
0

>  <PUBCHEM_ISOTOPIC_ATOM_COUNT>  (1) 
0

>  <PUBCHEM_COMPONENT_COUNT>  (1) 
1

>  <PUBCHEM_CACTVS_TAUTO_COUNT>  (1) 
3

>  <PUBCHEM_CONFORMER_ID>  (1) 
0000A8AD00000001

>  <PUBCHEM_MMFF94_ENERGY>  (1) 
43.909

>  <PUBCHEM_FEATURE_SELFOVERLAP>  (1) 
35.533

>  <PUBCHEM_SHAPE_FINGERPRINT>  (1) 
11315181 36 17988920063455794520
11545043 162 18059850675724295320
12091667 2 16558744582193166120
12616971 3 17749402455130578148
13167372 99 9583514318667017458
14211702 104 18341902853538623638
14251740 79 17822292435041349267
14729087 3 11241973694671478526
14950920 106 15697434567298143899
15183329 4 17312817174588233850
15716309 27 18060700606992144408
17093844 174 17775279439757128680
17780758 139 17203896261967372843
17844677 252 17917992806532367424
18927931 339 18343304781506314199
20281389 69 9223234048920891550
21054139 6 18260546728276809370
21307412 95 18043802307607503967
21623969 137 17131836461149711190
21709351 56 18259982669868540916
220451 1 18187928327379052600
22288116 15 17822298998495084346
2303208 19 17561369470364898892
23402539 116 17967814921134555580
23559900 14 18266166404546012057
328310 18 14924213889932006247
4015057 19 17458637765128378340
4073 2 18343587313799184592
484985 159 18272644676144566775
531348 171 16806147866342594514
5486654 36 18340212976780054737
559249 180 18413106139562382045
58260988 114 17968959581721791971
6431902 208 18412544331922808854
7062679 117 18334857212633039904
999808 66 18131073732210757806

>  <PUBCHEM_SHAPE_MULTIPOLES>  (1) 
394.87
20.61
2.77
1.3
64.29
0.59
0.14
10.24
1.7
-5.88
-0.3
-1.99
0.41
0.66

>  <PUBCHEM_SHAPE_SELFOVERLAP>  (1) 
765.871

>  <PUBCHEM_SHAPE_VOLUME>  (1) 
240.6

>  <PUBCHEM_COORDINATE_TYPE>  (1) 
2
5
10

$$$$
