4319
     RDKit          3D

 48 53  0  0  1  0  0  0  0  0999 V2000
   -0.4878    3.1911   -3.0637 O   0  0  0  0  0  0  0  0  0  0  0  0
   -0.1156   -3.5493   -0.8680 O   0  0  0  0  0  0  0  0  0  0  0  0
    1.8103    4.6634   -1.1039 O   0  0  0  0  0  0  0  0  0  0  0  0
   -3.4606   -0.2848   -2.6213 O   0  0  0  0  0  0  0  0  0  0  0  0
    5.8358   -4.5127   -1.0819 O   0  0  0  0  0  0  0  0  0  0  0  0
    5.9354   -4.9899    1.2782 O   0  0  0  0  0  0  0  0  0  0  0  0
    1.1997    2.0288   -1.0263 N   0  0  0  0  0  0  0  0  0  0  0  0
    3.6426    0.7045   -0.1738 N   0  0  0  0  0  0  0  0  0  0  0  0
   -2.3554   -0.7166   -0.6275 N   0  0  0  0  0  0  0  0  0  0  0  0
    2.1809    4.6812    1.1943 N   0  0  0  0  0  0  0  0  0  0  0  0
    2.0425    2.5841    0.0460 C   0  0  0  0  0  0  0  0  0  0  0  0
    3.5133    2.1644   -0.1129 C   0  0  0  0  0  0  0  0  0  0  0  0
    1.3671    0.5680   -1.1021 C   0  0  0  0  0  0  0  0  0  0  0  0
   -0.2201    2.3447   -0.8347 C   0  0  0  0  0  0  0  0  0  0  0  0
    2.8359    0.1753   -1.2779 C   0  0  0  0  0  0  0  0  0  0  0  0
   -1.0172    2.2385   -2.1402 C   0  0  0  0  0  0  0  0  0  0  0  0
   -2.5161    2.5308   -1.9432 C   0  0  0  0  0  0  0  0  0  0  0  0
   -3.2200    1.5176   -1.0118 C   0  0  0  0  0  0  0  0  0  0  0  0
   -2.0396   -2.0943   -0.9002 C   0  0  0  0  0  0  0  0  0  0  0  0
    1.9881    4.0800   -0.0377 C   0  0  0  0  0  0  0  0  0  0  0  0
    5.0432    0.3128   -0.3206 C   0  0  0  0  0  0  0  0  0  0  0  0
   -0.8206   -2.5802   -0.0878 C   0  0  0  0  0  0  0  0  0  0  0  0
   -1.3551   -3.2425    1.1957 C   0  0  0  0  0  0  0  0  0  0  0  0
   -3.1146   -3.0187   -0.4082 C   0  0  0  0  0  0  0  0  0  0  0  0
   -4.7351    1.8011   -0.9061 C   0  0  0  0  0  0  0  0  0  0  0  0
   -3.0492    0.0844   -1.5234 C   0  0  0  0  0  0  0  0  0  0  0  0
   -2.7245   -3.6713    0.7663 C   0  0  0  0  0  0  0  0  0  0  0  0
    2.1966    6.1141    1.3808 C   0  0  0  0  0  0  0  0  0  0  0  0
    5.2825   -1.0991    0.1443 C   0  0  0  0  0  0  0  0  0  0  0  0
   -4.3637   -3.2438   -0.9660 C   0  0  0  0  0  0  0  0  0  0  0  0
   -5.3907    1.1786    0.3024 C   0  0  0  0  0  0  0  0  0  0  0  0
   -3.5765   -4.5528    1.4115 C   0  0  0  0  0  0  0  0  0  0  0  0
    3.3242    6.7167    0.5362 C   0  0  0  0  0  0  0  0  0  0  0  0
    0.8494    6.6975    0.9398 C   0  0  0  0  0  0  0  0  0  0  0  0
    2.4326    6.4296    2.8624 C   0  0  0  0  0  0  0  0  0  0  0  0
    5.4438   -2.1203   -0.7951 C   0  0  0  0  0  0  0  0  0  0  0  0
    5.3405   -1.3776    1.5213 C   0  0  0  0  0  0  0  0  0  0  0  0
   -5.2248   -4.1393   -0.3285 C   0  0  0  0  0  0  0  0  0  0  0  0
   -4.8339   -4.7890    0.8524 C   0  0  0  0  0  0  0  0  0  0  0  0
   -5.9253   -0.1071    0.2211 C   0  0  0  0  0  0  0  0  0  0  0  0
   -5.4621    1.8891    1.5005 C   0  0  0  0  0  0  0  0  0  0  0  0
    5.6594   -3.3981   -0.3212 C   0  0  0  0  0  0  0  0  0  0  0  0
    5.5602   -2.6805    1.9746 C   0  0  0  0  0  0  0  0  0  0  0  0
    5.7161   -3.6707    1.0265 C   0  0  0  0  0  0  0  0  0  0  0  0
   -6.5314   -0.6824    1.3380 C   0  0  0  0  0  0  0  0  0  0  0  0
   -6.0682    1.3140    2.6174 C   0  0  0  0  0  0  0  0  0  0  0  0
   -6.6027    0.0281    2.5362 C   0  0  0  0  0  0  0  0  0  0  0  0
    6.0108   -5.5173   -0.0619 C   0  0  0  0  0  0  0  0  0  0  0  0
  1 16  1  0
  2 22  1  0
  3 20  2  0
  4 26  2  0
  5 42  1  0
  5 48  1  0
  6 44  1  0
  6 48  1  0
  7 11  1  0
  7 13  1  0
  7 14  1  0
  8 12  1  0
  8 15  1  0
  8 21  1  0
  9 19  1  0
  9 26  1  0
 10 20  1  0
 10 28  1  0
 11 12  1  0
 11 20  1  0
 13 15  1  0
 14 16  1  0
 16 17  1  0
 17 18  1  0
 18 25  1  0
 18 26  1  0
 19 22  1  0
 19 24  1  0
 21 29  1  0
 22 23  1  0
 23 27  1  0
 24 27  2  0
 24 30  1  0
 25 31  1  0
 27 32  1  0
 28 33  1  0
 28 34  1  0
 28 35  1  0
 29 36  1  0
 29 37  2  0
 30 38  2  0
 31 40  2  0
 31 41  1  0
 32 39  2  0
 36 42  2  0
 37 43  1  0
 38 39  1  0
 40 45  1  0
 41 46  2  0
 42 44  1  0
 43 44  2  0
 45 47  2  0
 46 47  1  0
M  END
>  <PUBCHEM_COMPOUND_CID>  (1) 
4319

>  <PUBCHEM_CONFORMER_RMSD>  (1) 
2.2

>  <PUBCHEM_CONFORMER_DIVERSEORDER>  (1) 
1
45
85
32
96
69
98
19
71
56
79
46
127
132
3
95
113
143
49
125
89
121
39
73
146
141
149
64
55
142
36
134
27
120
100
99
62
111
119
84
92
41
60
38
81
12
70
150
104
148
57
124
34
44
33
87
140
116
6
37
128
114
138
106
18
137
9
47
50
133
5
129
75
16
66
53
131
82
86
30
61
28
31
59
65
110
7
147
58
77
94
144
90
108
13
118
15
97
109
74
20
23
93
43
26
105
112
103
52
10
72
24
78
115
8
102
80
130
126
4
42
54
76
40
91
123
11
67
2
122
136
63
139
88
22
101
145
48
51
17
35
21
107
29
117
135
68
14
83
25

>  <PUBCHEM_MMFF94_PARTIAL_CHARGES>  (1) 
60
1 -0.68
10 -0.73
11 0.33
12 0.27
13 0.27
14 0.27
15 0.27
16 0.28
18 0.06
19 0.44
2 -0.68
20 0.57
21 0.41
22 0.28
23 0.14
24 -0.14
25 0.14
26 0.57
27 -0.14
28 0.3
29 -0.14
3 -0.57
30 -0.15
31 -0.14
32 -0.15
36 -0.15
37 -0.15
38 -0.15
39 -0.15
4 -0.57
40 -0.15
41 -0.15
42 0.08
43 -0.15
44 0.08
45 -0.15
46 -0.15
47 -0.15
48 0.56
5 -0.36
6 -0.36
7 -0.81
70 0.37
71 0.37
72 0.4
73 0.15
74 0.15
8 -0.81
84 0.4
85 0.15
86 0.15
87 0.15
88 0.15
89 0.15
9 -0.73
90 0.15
91 0.15
92 0.15
93 0.15
94 0.15

>  <PUBCHEM_EFFECTIVE_ROTOR_COUNT>  (1) 
16.4

>  <PUBCHEM_PHARMACOPHORE_FEATURES>  (1) 
19
1 1 acceptor
1 1 donor
1 10 donor
1 2 acceptor
1 2 donor
1 3 acceptor
1 4 acceptor
1 5 acceptor
1 6 acceptor
1 7 cation
1 8 cation
1 9 donor
4 28 33 34 35 hydrophobe
5 19 22 23 24 27 rings
5 5 6 42 44 48 rings
6 24 27 30 32 38 39 rings
6 29 36 37 42 43 44 rings
6 31 40 41 45 46 47 rings
6 7 8 11 12 13 15 rings

>  <PUBCHEM_HEAVY_ATOM_COUNT>  (1) 
48

>  <PUBCHEM_ATOM_DEF_STEREO_COUNT>  (1) 
0

>  <PUBCHEM_ATOM_UDEF_STEREO_COUNT>  (1) 
5

>  <PUBCHEM_BOND_DEF_STEREO_COUNT>  (1) 
0

>  <PUBCHEM_BOND_UDEF_STEREO_COUNT>  (1) 
0

>  <PUBCHEM_ISOTOPIC_ATOM_COUNT>  (1) 
0

>  <PUBCHEM_COMPONENT_COUNT>  (1) 
1

>  <PUBCHEM_CACTVS_TAUTO_COUNT>  (1) 
4

>  <PUBCHEM_CONFORMER_ID>  (1) 
000010DF00000001

>  <PUBCHEM_MMFF94_ENERGY>  (1) 
124.3984

>  <PUBCHEM_FEATURE_SELFOVERLAP>  (1) 
96.665

>  <PUBCHEM_SHAPE_FINGERPRINT>  (1) 
10439779 11 18341625788828064121
12655364 131 18197214751290253367
13782708 43 18041282075740547477
15001296 14 18187354403689607774
15911013 46 18336543940463279909
16112460 7 18412269440740339145
18393751 57 17331116612227193603
19311894 1 18266170643630831474
21703447 108 18122341543489917086
22223350 30 18336264630218456629
32027 91 18336817659008570685
44880168 125 18335980866114231419
9961470 85 18263636428949115751

>  <PUBCHEM_SHAPE_MULTIPOLES>  (1) 
932.68
17.12
11.56
2.29
1.47
9.71
-0.22
-18
-7.55
-15.83
-5.12
1.64
1.88
0.84

>  <PUBCHEM_SHAPE_SELFOVERLAP>  (1) 
2000.516

>  <PUBCHEM_SHAPE_VOLUME>  (1) 
517.3

>  <PUBCHEM_COORDINATE_TYPE>  (1) 
2
5
10

$$$$
