43197
     RDKit          3D

 18 18  0  0  0  0  0  0  0  0999 V2000
    7.1910   -2.2040   -0.0137 I   0  0  0  0  0  0  0  0  0  0  0  0
   -1.3719    0.3202   -0.0033 O   0  0  0  0  0  0  0  0  0  0  0  0
    0.8234    0.6039    0.0029 O   0  0  0  0  0  0  0  0  0  0  0  0
   -0.5335    2.4672    0.0186 O   0  0  0  0  0  0  0  0  0  0  0  0
   -5.1246    0.1369   -0.0250 C   0  0  0  0  0  0  0  0  0  0  0  0
   -6.1436   -1.0060   -0.0049 C   0  0  0  0  0  0  0  0  0  0  0  0
   -3.6739   -0.3424   -0.0122 C   0  0  0  0  0  0  0  0  0  0  0  0
   -7.5953   -0.5267   -0.0426 C   0  0  0  0  0  0  0  0  0  0  0  0
   -2.6991    0.8278    0.0003 C   0  0  0  0  0  0  0  0  0  0  0  0
   -8.5667   -1.6937    0.0524 C   0  0  0  0  0  0  0  0  0  0  0  0
    3.2114    0.5824    0.0074 C   0  0  0  0  0  0  0  0  0  0  0  0
    1.9826    1.4436    0.0135 C   0  0  0  0  0  0  0  0  0  0  0  0
   -0.3738    1.2540    0.0069 C   0  0  0  0  0  0  0  0  0  0  0  0
    3.7732    0.1755    1.2123 C   0  0  0  0  0  0  0  0  0  0  0  0
    3.7771    0.1996   -1.2036 C   0  0  0  0  0  0  0  0  0  0  0  0
    4.9157   -0.6247    1.2060 C   0  0  0  0  0  0  0  0  0  0  0  0
    4.9194   -0.6007   -1.2098 C   0  0  0  0  0  0  0  0  0  0  0  0
    5.4888   -1.0129   -0.0051 C   0  0  0  0  0  0  0  0  0  0  0  0
  1 18  1  0
  2  9  1  0
  2 13  1  0
  3 12  1  0
  3 13  1  0
  4 13  2  0
  5  6  1  0
  5  7  1  0
  6  8  1  0
  7  9  1  0
  8 10  1  0
 11 12  1  0
 11 14  2  0
 11 15  1  0
 14 16  1  0
 15 17  2  0
 16 18  2  0
 17 18  1  0
M  END
>  <PUBCHEM_COMPOUND_CID>  (1) 
43197

>  <PUBCHEM_CONFORMER_RMSD>  (1) 
0.8

>  <PUBCHEM_CONFORMER_DIVERSEORDER>  (1) 
1
433
320
356
281
383
183
390
144
190
146
227
267
178
224
62
153
235
423
287
8
175
174
181
31
200
12
102
189
49
292
93
435
156
296
81
256
89
234
241
247
420
388
133
5
276
78
30
323
126
65
440
99
280
332
349
7
367
191
6
129
410
128
82
218
104
266
273
124
373
303
11
113
91
286
294
244
262
249
229
57
195
23
192
270
127
427
77
184
333
53
341
312
3
43
221
167
365
197
362
135
21
355
41
261
29
360
75
324
203
2
306
134
107
138
201
111
4
372
283
259
118
412
165
368
397
253
310
103
119
143
336
83
378
13
158
159
140
327
386
68
313
169
212
88
16
22
406
348
407
379
297
206
263
20
37
100
430
442
71
375
429
285
51
329
193
382
389
19
308
385
92
328
198
106
48
94
246
290
95
34
291
17
60
271
274
242
316
79
326
90
258
403
409
72
196
161
130
147
272
66
114
319
25
417
219
317
359
405
187
164
384
243
252
61
33
24
122
366
315
54
265
180
411
301
346
136
98
131
342
76
214
208
264
150
413
69
340
52
391
155
177
354
80
269
215
185
149
400
40
47
213
226
338
414
363
314
289
45
207
376
239
255
377
364
211
250
225
168
108
125
152
73
335
353
240
424
9
202
15
387
182
300
408
199
176
418
186
63
194
204
14
64
278
421
162
35
46
84
112
416
357
438
279
10
401
109
96
166
231
230
343
42
371
163
233
298
121
331
26
59
311
305
439
254
216
443
380
110
325
277
97
173
251
307
171
248
157
318
432
170
137
58
115
334
28
220
260
145
436
32
245
232
18
309
172
370
339
38
288
392
268
210
330
426
205
154
374
101
237
358
55
74
437
120
67
322
223
345
302
425
238
352
275
393
141
179
27
209
236
85
86
295
151
44
369
36
116
139
142
350
299
402
56
87
70
347
257
344
160
50
39
284
293
361
282
351
396
434
105
228
398
394
217
419
395
404
321
441
132
415
148
117
304
422
123
428
337
431
222
381
399
188

>  <PUBCHEM_MMFF94_PARTIAL_CHARGES>  (1) 
17
1 -0.08
11 -0.14
12 0.42
13 0.87
14 -0.15
15 -0.15
16 -0.15
17 -0.15
18 0.08
2 -0.43
3 -0.43
34 0.15
35 0.15
36 0.15
37 0.15
4 -0.57
9 0.28

>  <PUBCHEM_EFFECTIVE_ROTOR_COUNT>  (1) 
9

>  <PUBCHEM_PHARMACOPHORE_FEATURES>  (1) 
4
1 1 hydrophobe
1 10 hydrophobe
4 5 6 7 8 hydrophobe
6 11 14 15 16 17 18 rings

>  <PUBCHEM_HEAVY_ATOM_COUNT>  (1) 
18

>  <PUBCHEM_ATOM_DEF_STEREO_COUNT>  (1) 
0

>  <PUBCHEM_ATOM_UDEF_STEREO_COUNT>  (1) 
0

>  <PUBCHEM_BOND_DEF_STEREO_COUNT>  (1) 
0

>  <PUBCHEM_BOND_UDEF_STEREO_COUNT>  (1) 
0

>  <PUBCHEM_ISOTOPIC_ATOM_COUNT>  (1) 
0

>  <PUBCHEM_COMPONENT_COUNT>  (1) 
1

>  <PUBCHEM_CACTVS_TAUTO_COUNT>  (1) 
1

>  <PUBCHEM_CONFORMER_ID>  (1) 
0000A8BD00000001

>  <PUBCHEM_MMFF94_ENERGY>  (1) 
24.5561

>  <PUBCHEM_FEATURE_SELFOVERLAP>  (1) 
20.298

>  <PUBCHEM_SHAPE_FINGERPRINT>  (1) 
10 15 11959729378534171647
10354089 29 14117795813367177064
106641 1 18060132146959673042
10753850 27 18410291415227235433
11638347 137 15482680078407231263
11724838 91 12391502092471116985
125118 31 10879727476782144915
13533116 47 17917429864619955768
13668630 136 18259702285359666983
13685833 64 18412262856993031777
13862211 1 18410857659562874019
14216079 64 18341895169045442055
14251752 14 17822283570988264853
14251757 52 10159696893473916727
14251764 18 18059859488812563449
15048467 5 9295288339754474379
15183329 4 16226045574556764661
15188451 53 18131632266098866465
15475509 35 18200302218601600890
155225 1 9007056864091784519
15690457 1 18343579651192965279
1768 124 17846498127729530663
1768 4 8646483055670983847
20281389 69 11095892557750171219
20397935 70 16774088362060591844
20526848 3 9079113366991397151
20621476 38 18410011061711904991
20735858 18 16702303451480959151
21130983 4 9367349236923024335
21130990 3 17987806186217923246
21150785 3 14490191618302308051
21267235 1 18410576171295079563
21304304 249 18411984650196959070
221357 26 14996279223416683367
22224240 67 12103846757344295189
22956985 138 17976538308835124918
23524908 199 12179838370022163946
246663 6 18410858750110397591
2767999 5 9799692588952271179
28498 318 18408318879162449031
29717793 49 17749676199571714190
3004659 81 17822009809234539416
33532 11 18411418419252357567
3472631 163 8862647020016175802
351380 3 18407758127367301730
4340502 62 15051737490642302421
465052 167 18413393146097923382
5104073 3 15266187347300600022
5758199 1 8935006984521436997
59682541 52 13695861486046182392
6438161 24 18040991843515379058

>  <PUBCHEM_SHAPE_MULTIPOLES>  (1) 
364.76
24.32
1.9
0.95
36.86
0.06
0
20.74
-0.03
-0.65
0.01
-1.49
0.06
0.04

>  <PUBCHEM_SHAPE_SELFOVERLAP>  (1) 
702.781

>  <PUBCHEM_SHAPE_VOLUME>  (1) 
225.5

>  <PUBCHEM_COORDINATE_TYPE>  (1) 
2
5
10

$$$$
