43199
     RDKit          3D

 18 18  0  0  1  0  0  0  0  0999 V2000
    6.6057   -1.3999    0.9315 I   0  0  0  0  0  0  0  0  0  0  0  0
   -2.1487    0.0781    0.1199 O   0  0  0  0  0  0  0  0  0  0  0  0
   -0.0027    0.4129   -0.2689 O   0  0  0  0  0  0  0  0  0  0  0  0
   -1.5399    1.7652   -1.3278 O   0  0  0  0  0  0  0  0  0  0  0  0
   -4.6744   -1.5306    0.3708 C   0  0  0  0  0  0  0  0  0  0  0  0
   -4.2374   -0.3149    1.2078 C   0  0  0  0  0  0  0  0  0  0  0  0
   -3.3717    0.7224    0.4825 C   0  0  0  0  0  0  0  0  0  0  0  0
   -5.4443   -1.1262   -0.8866 C   0  0  0  0  0  0  0  0  0  0  0  0
   -3.4463   -2.3582   -0.0184 C   0  0  0  0  0  0  0  0  0  0  0  0
   -3.0419    1.9387    1.3371 C   0  0  0  0  0  0  0  0  0  0  0  0
   -1.2587    0.8462   -0.5704 C   0  0  0  0  0  0  0  0  0  0  0  0
    1.0649    1.1166   -0.9125 C   0  0  0  0  0  0  0  0  0  0  0  0
    2.3734    0.5235   -0.4794 C   0  0  0  0  0  0  0  0  0  0  0  0
    3.0179    1.0273    0.6447 C   0  0  0  0  0  0  0  0  0  0  0  0
    2.9287   -0.5247   -1.2048 C   0  0  0  0  0  0  0  0  0  0  0  0
    4.2337    0.4758    1.0488 C   0  0  0  0  0  0  0  0  0  0  0  0
    4.1445   -1.0763   -0.8006 C   0  0  0  0  0  0  0  0  0  0  0  0
    4.7970   -0.5761    0.3264 C   0  0  0  0  0  0  0  0  0  0  0  0
  1 18  1  0
  2  7  1  0
  2 11  1  0
  3 11  1  0
  3 12  1  0
  4 11  2  0
  5  6  1  0
  5  8  1  0
  5  9  1  0
  6  7  1  0
  7 10  1  0
 12 13  1  0
 13 14  2  0
 13 15  1  0
 14 16  1  0
 15 17  2  0
 16 18  2  0
 17 18  1  0
M  END
>  <PUBCHEM_COMPOUND_CID>  (1) 
43199

>  <PUBCHEM_CONFORMER_RMSD>  (1) 
0.8

>  <PUBCHEM_CONFORMER_DIVERSEORDER>  (1) 
1
34
27
32
30
24
21
18
6
15
14
28
12
9
3
17
2
16
23
29
5
36
10
31
11
19
22
35
7
8
26
13
25
33
4
20

>  <PUBCHEM_MMFF94_PARTIAL_CHARGES>  (1) 
17
1 -0.08
11 0.87
12 0.42
13 -0.14
14 -0.15
15 -0.15
16 -0.15
17 -0.15
18 0.08
2 -0.43
3 -0.43
34 0.15
35 0.15
36 0.15
37 0.15
4 -0.57
7 0.28

>  <PUBCHEM_EFFECTIVE_ROTOR_COUNT>  (1) 
7

>  <PUBCHEM_PHARMACOPHORE_FEATURES>  (1) 
3
1 1 hydrophobe
3 5 8 9 hydrophobe
6 13 14 15 16 17 18 rings

>  <PUBCHEM_HEAVY_ATOM_COUNT>  (1) 
18

>  <PUBCHEM_ATOM_DEF_STEREO_COUNT>  (1) 
0

>  <PUBCHEM_ATOM_UDEF_STEREO_COUNT>  (1) 
1

>  <PUBCHEM_BOND_DEF_STEREO_COUNT>  (1) 
0

>  <PUBCHEM_BOND_UDEF_STEREO_COUNT>  (1) 
0

>  <PUBCHEM_ISOTOPIC_ATOM_COUNT>  (1) 
0

>  <PUBCHEM_COMPONENT_COUNT>  (1) 
1

>  <PUBCHEM_CACTVS_TAUTO_COUNT>  (1) 
1

>  <PUBCHEM_CONFORMER_ID>  (1) 
0000A8BF00000001

>  <PUBCHEM_MMFF94_ENERGY>  (1) 
40.6127

>  <PUBCHEM_FEATURE_SELFOVERLAP>  (1) 
15.223

>  <PUBCHEM_SHAPE_FINGERPRINT>  (1) 
10 15 17417802964239735946
10354089 29 16128374887625977058
11046707 91 18260270758899324941
11796584 16 17826784842817376106
12403259 118 16917353632075402697
12596602 18 18271802407134653656
12670543 26 10881398713002042306
12892183 10 17417535713698947476
12916748 109 10303821990318470551
13583140 156 17274818021955354553
13668630 136 16443350879090258771
13675066 3 17346322553107343524
14178342 30 18341339876923458636
1420 369 18334299807266366699
14251764 18 18410571795815590658
14848160 23 18409723002249545343
15003188 33 11675418722564659696
15183329 4 13479123584297974430
15188451 53 18341888615109698183
15880784 105 18407761443419840288
16752209 62 16732973224220289713
17780758 139 18342454803304898304
17857418 61 18334290959554791138
17870717 6 15647052664328515763
17959699 21 8935005866864770798
18222031 100 18187085082794754668
200 152 16732700558237113037
20281389 69 13326854422770912850
20281475 54 18335146400996786348
20645477 56 8358261440977839465
20645477 70 15936697042334814024
21065199 12 17846502500058419592
21637258 2 17385997335691039274
21673915 165 18412829100733227646
22289505 5 11314025773649930630
22393880 68 12685101405771760568
22646028 1 18259989292333096829
23402539 116 17240484680450931636
23402655 69 10665228155317431240
23522609 53 18044969829915610524
23559900 14 18266733757146587585
23596394 208 13407075924851743988
26918003 58 18202562843849820960
29717793 49 16515685516394817262
3004659 81 16588020234106372922
312425 54 17988090997460536739
32948 21 11891322162773379692
3472631 163 9655581798912650291
351380 3 17676491652595286034
4028521 119 8718555995088820847
4259306 186 16732701623657865650
49783359 22 18408884023190206202
5104073 3 18272939340127034704
542803 24 10303812077391403008
559249 180 18187080625219879867
5924683 9 17917712422703728791
602551 16 18409735066828640426
7495541 125 18411136944549635304
90127 26 16343433795208889300
960060 61 15719390659242718478

>  <PUBCHEM_SHAPE_MULTIPOLES>  (1) 
364.76
15.22
1.98
1.3
7.09
0.38
-0.03
8.7
-4.05
-1.78
-0.12
0.08
-0.21
-0.57

>  <PUBCHEM_SHAPE_SELFOVERLAP>  (1) 
712.644

>  <PUBCHEM_SHAPE_VOLUME>  (1) 
223.9

>  <PUBCHEM_COORDINATE_TYPE>  (1) 
2
5
10

$$$$
