43196
     RDKit          3D

 17 17  0  0  0  0  0  0  0  0999 V2000
    6.7875   -1.9604   -0.0135 I   0  0  0  0  0  0  0  0  0  0  0  0
   -1.8908    0.1320   -0.0180 O   0  0  0  0  0  0  0  0  0  0  0  0
    0.2876    0.5252   -0.0018 O   0  0  0  0  0  0  0  0  0  0  0  0
   -1.1610    2.3179    0.0236 O   0  0  0  0  0  0  0  0  0  0  0  0
   -5.6293   -0.2432   -0.0231 C   0  0  0  0  0  0  0  0  0  0  0  0
   -4.1559   -0.6443   -0.0403 C   0  0  0  0  0  0  0  0  0  0  0  0
   -6.5398   -1.4707   -0.0056 C   0  0  0  0  0  0  0  0  0  0  0  0
   -3.2417    0.5723   -0.0153 C   0  0  0  0  0  0  0  0  0  0  0  0
   -8.0070   -1.0754    0.0458 C   0  0  0  0  0  0  0  0  0  0  0  0
    2.6736    0.6233    0.0112 C   0  0  0  0  0  0  0  0  0  0  0  0
    1.4033    1.4218    0.0195 C   0  0  0  0  0  0  0  0  0  0  0  0
   -0.9408    1.1145    0.0030 C   0  0  0  0  0  0  0  0  0  0  0  0
    3.2499    0.2357    1.2156 C   0  0  0  0  0  0  0  0  0  0  0  0
    3.2624    0.2784   -1.2001 C   0  0  0  0  0  0  0  0  0  0  0  0
    4.4309   -0.5066    1.2087 C   0  0  0  0  0  0  0  0  0  0  0  0
    4.4433   -0.4640   -1.2070 C   0  0  0  0  0  0  0  0  0  0  0  0
    5.0277   -0.8563   -0.0026 C   0  0  0  0  0  0  0  0  0  0  0  0
  1 17  1  0
  2  8  1  0
  2 12  1  0
  3 11  1  0
  3 12  1  0
  4 12  2  0
  5  6  1  0
  5  7  1  0
  6  8  1  0
  7  9  1  0
 10 11  1  0
 10 13  2  0
 10 14  1  0
 13 15  1  0
 14 16  2  0
 15 17  2  0
 16 17  1  0
M  END
>  <PUBCHEM_COMPOUND_CID>  (1) 
43196

>  <PUBCHEM_CONFORMER_RMSD>  (1) 
0.8

>  <PUBCHEM_CONFORMER_DIVERSEORDER>  (1) 
1
170
31
141
102
108
55
7
129
70
82
19
77
92
40
132
103
27
119
160
94
33
57
18
162
60
66
45
75
113
161
127
174
6
143
62
76
140
136
128
44
126
100
104
46
121
74
64
134
10
13
79
12
68
41
97
8
65
154
175
61
172
3
111
137
148
49
101
89
179
17
50
15
168
109
144
26
153
95
73
11
131
78
34
2
163
93
22
37
157
116
106
115
149
84
88
47
169
177
52
4
164
151
38
147
85
72
117
23
90
67
14
81
142
178
36
152
48
171
173
86
58
59
83
98
16
118
5
43
138
24
114
32
155
112
21
159
176
63
130
53
29
30
133
107
96
51
20
42
25
150
123
39
35
91
110
139
69
166
28
145
120
105
71
122
87
99
80
56
135
9
167
165
124
156
125
158
146
54

>  <PUBCHEM_MMFF94_PARTIAL_CHARGES>  (1) 
17
1 -0.08
10 -0.14
11 0.42
12 0.87
13 -0.15
14 -0.15
15 -0.15
16 -0.15
17 0.08
2 -0.43
3 -0.43
31 0.15
32 0.15
33 0.15
34 0.15
4 -0.57
8 0.28

>  <PUBCHEM_EFFECTIVE_ROTOR_COUNT>  (1) 
8

>  <PUBCHEM_PHARMACOPHORE_FEATURES>  (1) 
3
1 1 hydrophobe
1 9 hydrophobe
6 10 13 14 15 16 17 rings

>  <PUBCHEM_HEAVY_ATOM_COUNT>  (1) 
17

>  <PUBCHEM_ATOM_DEF_STEREO_COUNT>  (1) 
0

>  <PUBCHEM_ATOM_UDEF_STEREO_COUNT>  (1) 
0

>  <PUBCHEM_BOND_DEF_STEREO_COUNT>  (1) 
0

>  <PUBCHEM_BOND_UDEF_STEREO_COUNT>  (1) 
0

>  <PUBCHEM_ISOTOPIC_ATOM_COUNT>  (1) 
0

>  <PUBCHEM_COMPONENT_COUNT>  (1) 
1

>  <PUBCHEM_CACTVS_TAUTO_COUNT>  (1) 
1

>  <PUBCHEM_CONFORMER_ID>  (1) 
0000A8BC00000001

>  <PUBCHEM_MMFF94_ENERGY>  (1) 
24.5105

>  <PUBCHEM_FEATURE_SELFOVERLAP>  (1) 
15.223

>  <PUBCHEM_SHAPE_FINGERPRINT>  (1) 
10 15 11743839175361988191
10354089 29 14117798020806339362
106641 1 18060413630463079738
10693767 8 17168980064297059050
10753850 27 18335136488153919923
11724838 91 12319446702009777289
117890 112 10735878374276516661
125118 31 11815633973458087163
12596602 18 13398630563175124263
13533116 47 18202281445871369969
13668630 136 18113617876206088759
13685833 64 18342458144657468538
13862211 1 18411139138887487871
14123256 34 18408606963482203811
14216079 64 18342176648565078839
14251752 14 17822283571088426685
14251764 18 17989208165577033689
14576447 43 17749108838802976346
15048467 5 9439402428092076523
15183329 4 16008744693560277533
15188451 53 18059856155949272139
15348495 7 16773510088160067899
15475509 35 18200302222833310162
15690457 1 18202278122205232991
18222031 100 18409733984396765437
20281389 69 10807943656533037043
20621476 38 18409730703595665207
20621476 66 10159688106318611842
21130983 4 9151176454767172479
21150785 3 14129060322710105419
21267235 1 18410014325243335339
212847 35 9007062353080626828
21521239 73 17385726847267279674
221357 26 14923939050716898862
22224240 67 12103847861256274901
22289505 5 13262397756984575374
23402655 69 14273461349512631120
23559900 14 18041563658001951512
270888 7 9511165357736210114
2767999 5 9943811075763580931
28498 318 18408600358534470703
29717793 49 17821733802015031878
300161 21 10375870771067793069
3004659 81 17822008718022799826
312425 54 16056883533180906415
3472631 163 8862648119338003466
351380 3 18407758140410550091
4340502 62 14979962479882951669
465052 167 18412549833379847655
5283384 27 11455894625115666675
559249 180 18411699855842861717
59682541 52 13768199455464738752
6438161 24 17749381560204126730
77188 2 18411418444732693077

>  <PUBCHEM_SHAPE_MULTIPOLES>  (1) 
344.18
20.79
1.75
0.97
27.46
0.05
0
-16.66
-0.01
-0.23
-0.01
-1.4
-0.03
0.01

>  <PUBCHEM_SHAPE_SELFOVERLAP>  (1) 
665.335

>  <PUBCHEM_SHAPE_VOLUME>  (1) 
212.6

>  <PUBCHEM_COORDINATE_TYPE>  (1) 
2
5
10

$$$$
