432
     RDKit          3D

 13 14  0  0  1  0  0  0  0  0999 V2000
   -1.0324   -1.5302    1.0869 O   0  0  0  0  0  0  0  0  0  0  0  0
   -1.6044   -0.1821   -0.8506 N   0  0  0  0  0  0  0  0  0  0  0  0
    2.9286   -0.8411    0.3566 N   0  0  0  0  0  0  0  0  0  0  0  0
   -0.8291   -0.2843    0.4061 C   0  0  0  0  0  0  0  0  0  0  0  0
   -1.4381    0.8161    1.3101 C   0  0  0  0  0  0  0  0  0  0  0  0
   -2.5866    1.4111    0.5020 C   0  0  0  0  0  0  0  0  0  0  0  0
   -2.9269    0.3313   -0.5041 C   0  0  0  0  0  0  0  0  0  0  0  0
    0.6601   -0.0489    0.1595 C   0  0  0  0  0  0  0  0  0  0  0  0
   -1.6621   -1.3992   -1.6460 C   0  0  0  0  0  0  0  0  0  0  0  0
    1.1018    1.1129   -0.4548 C   0  0  0  0  0  0  0  0  0  0  0  0
    1.5978   -0.9878    0.5442 C   0  0  0  0  0  0  0  0  0  0  0  0
    2.4634    1.3000   -0.6651 C   0  0  0  0  0  0  0  0  0  0  0  0
    3.3278    0.3021   -0.2447 C   0  0  0  0  0  0  0  0  0  0  0  0
  1  4  1  0
  2  4  1  0
  2  7  1  0
  2  9  1  0
  3 11  2  0
  3 13  1  0
  4  5  1  0
  4  8  1  0
  5  6  1  0
  6  7  1  0
  8 10  2  0
  8 11  1  0
 10 12  1  0
 12 13  2  0
M  END
>  <PUBCHEM_COMPOUND_CID>  (1) 
432

>  <PUBCHEM_CONFORMER_RMSD>  (1) 
0.6

>  <PUBCHEM_CONFORMER_DIVERSEORDER>  (1) 
3
9
11
5
7
2
4
12
6
8
1
10

>  <PUBCHEM_MMFF94_PARTIAL_CHARGES>  (1) 
16
1 -0.68
10 -0.15
11 0.16
12 -0.15
13 0.16
2 -0.81
23 0.4
24 0.15
25 0.15
26 0.15
27 0.15
3 -0.62
4 0.69
7 0.27
8 -0.14
9 0.27

>  <PUBCHEM_EFFECTIVE_ROTOR_COUNT>  (1) 
2

>  <PUBCHEM_PHARMACOPHORE_FEATURES>  (1) 
6
1 1 acceptor
1 1 donor
1 2 cation
1 3 acceptor
5 2 4 5 6 7 rings
6 3 8 10 11 12 13 rings

>  <PUBCHEM_HEAVY_ATOM_COUNT>  (1) 
13

>  <PUBCHEM_ATOM_DEF_STEREO_COUNT>  (1) 
0

>  <PUBCHEM_ATOM_UDEF_STEREO_COUNT>  (1) 
1

>  <PUBCHEM_BOND_DEF_STEREO_COUNT>  (1) 
0

>  <PUBCHEM_BOND_UDEF_STEREO_COUNT>  (1) 
0

>  <PUBCHEM_ISOTOPIC_ATOM_COUNT>  (1) 
0

>  <PUBCHEM_COMPONENT_COUNT>  (1) 
1

>  <PUBCHEM_CACTVS_TAUTO_COUNT>  (1) 
1

>  <PUBCHEM_CONFORMER_ID>  (1) 
000001B000000003

>  <PUBCHEM_MMFF94_ENERGY>  (1) 
36.6462

>  <PUBCHEM_FEATURE_SELFOVERLAP>  (1) 
30.446

>  <PUBCHEM_SHAPE_FINGERPRINT>  (1) 
10857977 72 14490485174689680357
12138202 97 16630238126127546917
12423570 1 9068503964820714121
124424 183 16081630241518830144
12491281 212 18130233665875885232
12716758 59 17060342885588894615
12932764 1 17917437578723863600
13024252 1 11819266798055541579
13581323 91 17632855313238411519
14144814 61 18333734598112577592
14993402 34 18271805683488103908
15775835 57 18340773654294894737
15906896 17 18271536355222348603
16945 1 18190191100005802377
17844478 74 16226056560824820477
19837323 101 17059510525638732849
20645464 45 16225764133665674152
20645476 183 18272932708908460975
20653085 51 18341339889971858217
21524375 3 18198349451026260817
23402539 116 17131541744214248645
23557571 272 16916496081619413504
23559900 14 16988839446334642258
25 1 17895471414816878133
2748010 2 17970078927128744730
3248919 1 18261107517370719416
369184 2 18113903775062028121
5084963 1 18338509751373814465
528886 8 18187363233719855720
57812782 119 15338832024116871924
63268167 104 18334572412945707008
74978 22 18260554445799906824
77492 1 18341890770824350753
8030462 33 18340490062041387716
81228 2 14763802835715768194

>  <PUBCHEM_SHAPE_MULTIPOLES>  (1) 
251.7
4.79
1.5
1.21
1.84
0.11
0.04
-0.77
0.61
-0.46
0.11
-0.41
0.26
-0.84

>  <PUBCHEM_SHAPE_SELFOVERLAP>  (1) 
529.953

>  <PUBCHEM_SHAPE_VOLUME>  (1) 
142.6

>  <PUBCHEM_COORDINATE_TYPE>  (1) 
2
5
10

$$$$
