43209
     RDKit          3D

 21 21  0  0  1  0  0  0  0  0999 V2000
   -8.2153    2.5766   -0.3091 I   0  0  0  0  0  0  0  0  0  0  0  0
    0.6130   -0.4714    0.1035 O   0  0  0  0  0  0  0  0  0  0  0  0
    2.8056   -0.1753    0.0320 O   0  0  0  0  0  0  0  0  0  0  0  0
    1.9463   -2.2309   -0.5591 O   0  0  0  0  0  0  0  0  0  0  0  0
   -3.1058   -1.2307    0.1181 C   0  0  0  0  0  0  0  0  0  0  0  0
   -1.7837   -0.4578    0.2883 C   0  0  0  0  0  0  0  0  0  0  0  0
   -4.3208   -0.3248    0.0162 C   0  0  0  0  0  0  0  0  0  0  0  0
    6.5490    0.0489   -0.1988 C   0  0  0  0  0  0  0  0  0  0  0  0
    7.5799    1.1396    0.1051 C   0  0  0  0  0  0  0  0  0  0  0  0
    5.1085    0.4832    0.0666 C   0  0  0  0  0  0  0  0  0  0  0  0
   -3.2769   -2.2340    1.2652 C   0  0  0  0  0  0  0  0  0  0  0  0
   -0.5521   -1.2847   -0.0686 C   0  0  0  0  0  0  0  0  0  0  0  0
    9.0196    0.7131   -0.1839 C   0  0  0  0  0  0  0  0  0  0  0  0
    4.1238   -0.6431   -0.2181 C   0  0  0  0  0  0  0  0  0  0  0  0
   -5.3977   -0.6909   -0.7913 C   0  0  0  0  0  0  0  0  0  0  0  0
   -4.3600    0.8727    0.7303 C   0  0  0  0  0  0  0  0  0  0  0  0
   10.0085    1.8029    0.2017 C   0  0  0  0  0  0  0  0  0  0  0  0
   -6.5136    0.1406   -0.8848 C   0  0  0  0  0  0  0  0  0  0  0  0
   -5.4758    1.7044    0.6367 C   0  0  0  0  0  0  0  0  0  0  0  0
   -6.5526    1.3384   -0.1708 C   0  0  0  0  0  0  0  0  0  0  0  0
    1.8001   -1.0769   -0.1793 C   0  0  0  0  0  0  0  0  0  0  0  0
  1 20  1  0
  2 12  1  0
  2 21  1  0
  3 14  1  0
  3 21  1  0
  4 21  2  0
  5  6  1  0
  5  7  1  0
  5 11  1  0
  6 12  1  0
  7 15  2  0
  7 16  1  0
  8  9  1  0
  8 10  1  0
  9 13  1  0
 10 14  1  0
 13 17  1  0
 15 18  1  0
 16 19  2  0
 18 20  2  0
 19 20  1  0
M  END
>  <PUBCHEM_COMPOUND_CID>  (1) 
43209

>  <PUBCHEM_CONFORMER_RMSD>  (1) 
1.2

>  <PUBCHEM_CONFORMER_DIVERSEORDER>  (1) 
1
96
62
97
59
35
51
38
76
79
6
95
98
50
33
27
87
56
84
34
70
45
66
9
16
37
68
75
39
4
72
40
77
71
13
3
17
69
92
93
10
8
28
24
88
94
25
89
44
32
26
29
85
53
86
15
81
18
58
46
2
83
57
20
100
55
63
52
14
90
65
47
5
64
42
99
61
23
21
60
54
41
67
31
43
22
48
12
91
80
49
19
82
74
11
101
7
30
78
73
36

>  <PUBCHEM_MMFF94_PARTIAL_CHARGES>  (1) 
18
1 -0.08
12 0.28
14 0.28
15 -0.15
16 -0.15
18 -0.15
19 -0.15
2 -0.43
20 0.08
21 0.87
3 -0.43
4 -0.57
40 0.15
41 0.15
45 0.15
46 0.15
5 0.14
7 -0.14

>  <PUBCHEM_EFFECTIVE_ROTOR_COUNT>  (1) 
11

>  <PUBCHEM_PHARMACOPHORE_FEATURES>  (1) 
5
1 1 hydrophobe
1 11 hydrophobe
1 17 hydrophobe
4 8 9 10 13 hydrophobe
6 7 15 16 18 19 20 rings

>  <PUBCHEM_HEAVY_ATOM_COUNT>  (1) 
21

>  <PUBCHEM_ATOM_DEF_STEREO_COUNT>  (1) 
0

>  <PUBCHEM_ATOM_UDEF_STEREO_COUNT>  (1) 
1

>  <PUBCHEM_BOND_DEF_STEREO_COUNT>  (1) 
0

>  <PUBCHEM_BOND_UDEF_STEREO_COUNT>  (1) 
0

>  <PUBCHEM_ISOTOPIC_ATOM_COUNT>  (1) 
0

>  <PUBCHEM_COMPONENT_COUNT>  (1) 
1

>  <PUBCHEM_CACTVS_TAUTO_COUNT>  (1) 
1

>  <PUBCHEM_CONFORMER_ID>  (1) 
0000A8C900000001

>  <PUBCHEM_MMFF94_ENERGY>  (1) 
32.5737

>  <PUBCHEM_FEATURE_SELFOVERLAP>  (1) 
25.374

>  <PUBCHEM_SHAPE_FINGERPRINT>  (1) 
10 15 17894912914470765632
10299344 5 9223229663558880730
10835480 77 18412829066325717650
11315181 36 17989490727729044761
11463208 3 8502383243953340808
11524674 6 14129064716250822417
12091667 2 18342177808011050274
125118 31 18335423521895049540
13288520 33 10231752285005673659
13530399 1 17895203255468901364
13553643 46 17749383794094237932
13668630 136 11455883651009890741
13673619 4 10015864275844743522
13685833 64 8214144053984437534
14251920 17 18410008820356544933
14344974 52 17917141793095665485
14556957 393 15410621406359016433
14729087 3 18409448094256575252
15461852 350 17917709149179091878
155225 1 18409729539411751141
15690457 1 10231757782574401060
17093844 174 18114184167617563123
1754911 235 17775283868084896444
1768 4 18340214003868121217
17780758 139 12252178568128053551
1818759 1 11314302833737813040
20281389 69 18040715823241800285
21130971 5 13398044558750537845
21130990 3 11239416239142243621
21150785 3 15841552981268504502
21267235 1 9583514321811926367
21362267 2 17345463964805587320
21362267 313 18335133186943808424
22288116 15 17632284714555054319
23559900 14 17917700306738039857
246663 6 9727636116090744012
300161 21 18335702715558148347
3178227 256 13984381089827969576
33532 11 9511471013727054436
4073 2 18334299768406628130
54039377 194 9583516529562266776
5758199 1 17967250906224216066
5937810 71 17632304428233955489
59567204 34 18411136922632213217
636775 72 18409167688738180309
636775 8 13110956557203182149
9980921 7 18187078414040490141

>  <PUBCHEM_SHAPE_MULTIPOLES>  (1) 
426.5
31.88
2.31
0.84
60.09
0.28
0.05
28.27
-1.91
-2.69
0.22
-0.92
-0.12
0.63

>  <PUBCHEM_SHAPE_SELFOVERLAP>  (1) 
820.037

>  <PUBCHEM_SHAPE_VOLUME>  (1) 
263.9

>  <PUBCHEM_COORDINATE_TYPE>  (1) 
2
5
10

$$$$
