43203
     RDKit          3D

 19 19  0  0  0  0  0  0  0  0999 V2000
   -1.0525   -4.0759    1.2056 I   0  0  0  0  0  0  0  0  0  0  0  0
    0.0349    2.7370   -0.1909 O   0  0  0  0  0  0  0  0  0  0  0  0
    1.9755    1.8778   -0.8204 O   0  0  0  0  0  0  0  0  0  0  0  0
    1.5150    2.0388    1.4324 O   0  0  0  0  0  0  0  0  0  0  0  0
   -2.5675    1.4853   -0.1069 C   0  0  0  0  0  0  0  0  0  0  0  0
   -3.5232    0.3219    0.1725 C   0  0  0  0  0  0  0  0  0  0  0  0
   -1.8039    1.9549    1.1302 C   0  0  0  0  0  0  0  0  0  0  0  0
   -4.2691   -0.1641   -1.0707 C   0  0  0  0  0  0  0  0  0  0  0  0
   -0.8923    3.1325    0.8105 C   0  0  0  0  0  0  0  0  0  0  0  0
   -5.2566   -1.2693   -0.7277 C   0  0  0  0  0  0  0  0  0  0  0  0
    3.3407   -0.0930   -1.1396 C   0  0  0  0  0  0  0  0  0  0  0  0
    2.3009   -1.0361   -0.5849 C   0  0  0  0  0  0  0  0  0  0  0  0
    3.2499    1.2982   -0.5222 C   0  0  0  0  0  0  0  0  0  0  0  0
    1.2089    2.2005    0.2587 C   0  0  0  0  0  0  0  0  0  0  0  0
    2.5889   -1.8073    0.5412 C   0  0  0  0  0  0  0  0  0  0  0  0
    1.0519   -1.1363   -1.1979 C   0  0  0  0  0  0  0  0  0  0  0  0
    1.6281   -2.6786    1.0542 C   0  0  0  0  0  0  0  0  0  0  0  0
    0.0911   -2.0076   -0.6850 C   0  0  0  0  0  0  0  0  0  0  0  0
    0.3792   -2.7789    0.4410 C   0  0  0  0  0  0  0  0  0  0  0  0
  1 19  1  0
  2  9  1  0
  2 14  1  0
  3 13  1  0
  3 14  1  0
  4 14  2  0
  5  6  1  0
  5  7  1  0
  6  8  1  0
  7  9  1  0
  8 10  1  0
 11 12  1  0
 11 13  1  0
 12 15  2  0
 12 16  1  0
 15 17  1  0
 16 18  2  0
 17 19  2  0
 18 19  1  0
M  END
>  <PUBCHEM_COMPOUND_CID>  (1) 
43203

>  <PUBCHEM_CONFORMER_RMSD>  (1) 
1

>  <PUBCHEM_CONFORMER_DIVERSEORDER>  (1) 
3
131
20
104
57
98
7
140
8
100
2
108
66
88
70
116
77
11
34
83
75
67
50
35
5
56
72
92
95
54
27
102
133
113
44
130
30
118
19
60
10
120
64
90
136
150
85
28
147
139
78
17
79
73
32
143
6
125
26
94
110
119
93
105
21
58
87
109
36
81
13
129
68
38
149
12
103
97
145
71
114
122
132
107
63
82
127
137
96
53
89
45
1
99
51
47
29
37
46
148
25
15
123
42
40
80
86
115
48
59
14
91
101
23
16
18
117
128
41
62
69
124
9
141
135
33
52
43
106
4
49
144
111
142
61
121
65
74
146
39
84
31
126
112
22
55
138
76
134
24

>  <PUBCHEM_MMFF94_PARTIAL_CHARGES>  (1) 
18
1 -0.08
11 0.14
12 -0.14
13 0.28
14 0.87
15 -0.15
16 -0.15
17 -0.15
18 -0.15
19 0.08
2 -0.43
3 -0.43
37 0.15
38 0.15
39 0.15
4 -0.57
40 0.15
9 0.28

>  <PUBCHEM_EFFECTIVE_ROTOR_COUNT>  (1) 
10

>  <PUBCHEM_PHARMACOPHORE_FEATURES>  (1) 
4
1 1 hydrophobe
1 10 hydrophobe
4 5 6 7 8 hydrophobe
6 12 15 16 17 18 19 rings

>  <PUBCHEM_HEAVY_ATOM_COUNT>  (1) 
19

>  <PUBCHEM_ATOM_DEF_STEREO_COUNT>  (1) 
0

>  <PUBCHEM_ATOM_UDEF_STEREO_COUNT>  (1) 
0

>  <PUBCHEM_BOND_DEF_STEREO_COUNT>  (1) 
0

>  <PUBCHEM_BOND_UDEF_STEREO_COUNT>  (1) 
0

>  <PUBCHEM_ISOTOPIC_ATOM_COUNT>  (1) 
0

>  <PUBCHEM_COMPONENT_COUNT>  (1) 
1

>  <PUBCHEM_CACTVS_TAUTO_COUNT>  (1) 
1

>  <PUBCHEM_CONFORMER_ID>  (1) 
0000A8C300000003

>  <PUBCHEM_MMFF94_ENERGY>  (1) 
25.057

>  <PUBCHEM_FEATURE_SELFOVERLAP>  (1) 
20.298

>  <PUBCHEM_SHAPE_FINGERPRINT>  (1) 
108634 29 18339937020598903550
11014199 57 17616808830696906555
12596599 1 17630061364092871549
13032168 30 18129673997414797080
13402501 40 17976827802720713027
14787075 74 18412548738184253932
14931854 50 18411140264021038919
15110567 62 18409166645487830131
17492 54 18337118941915351972
19026451 147 17984386803459440335
20621476 13 16610541836011274867
20905425 154 18272089349019604293
23557571 272 17340673120455700155
238 59 18334299781485714865
2871803 45 18413109450607796645
4283 87 18200863098010792919
463206 1 18269834371520521813
7097593 13 17399799293973360219
7471813 234 18195506130862427135

>  <PUBCHEM_SHAPE_MULTIPOLES>  (1) 
385.34
6.71
5.16
1.33
7.84
2.15
0.09
-0.15
-2.78
0.15
2.52
0.04
0.18
-0.44

>  <PUBCHEM_SHAPE_SELFOVERLAP>  (1) 
743.435

>  <PUBCHEM_SHAPE_VOLUME>  (1) 
237.3

>  <PUBCHEM_COORDINATE_TYPE>  (1) 
2
5
10

$$$$
