43208
     RDKit          3D

 18 18  0  0  1  0  0  0  0  0999 V2000
    4.7686    3.4067    0.1178 I   0  0  0  0  0  0  0  0  0  0  0  0
   -1.9778   -1.0134    0.0551 O   0  0  0  0  0  0  0  0  0  0  0  0
   -4.0660   -0.2832   -0.0014 O   0  0  0  0  0  0  0  0  0  0  0  0
   -2.5665    0.5319   -1.5507 O   0  0  0  0  0  0  0  0  0  0  0  0
    1.6400   -2.1263   -0.0596 C   0  0  0  0  0  0  0  0  0  0  0  0
    0.1746   -2.0078    0.4018 C   0  0  0  0  0  0  0  0  0  0  0  0
    2.3863   -0.8039   -0.0194 C   0  0  0  0  0  0  0  0  0  0  0  0
    2.3766   -3.1838    0.7713 C   0  0  0  0  0  0  0  0  0  0  0  0
   -0.6446   -1.0325   -0.4384 C   0  0  0  0  0  0  0  0  0  0  0  0
    2.0839    0.1048    0.9757 C   0  0  0  0  0  0  0  0  0  0  0  0
    3.3475   -0.5468   -0.9776 C   0  0  0  0  0  0  0  0  0  0  0  0
    2.7697    1.3188    1.0144 C   0  0  0  0  0  0  0  0  0  0  0  0
    4.0334    0.6672   -0.9391 C   0  0  0  0  0  0  0  0  0  0  0  0
    3.7445    1.6000    0.0570 C   0  0  0  0  0  0  0  0  0  0  0  0
   -4.8774    0.8950   -0.0511 C   0  0  0  0  0  0  0  0  0  0  0  0
   -2.8446   -0.1816   -0.5963 C   0  0  0  0  0  0  0  0  0  0  0  0
   -6.2119    0.6126    0.6217 C   0  0  0  0  0  0  0  0  0  0  0  0
   -4.1364    2.0422    0.6188 C   0  0  0  0  0  0  0  0  0  0  0  0
  1 14  1  0
  2  9  1  0
  2 16  1  0
  3 15  1  0
  3 16  1  0
  4 16  2  0
  5  6  1  0
  5  7  1  0
  5  8  1  0
  6  9  1  0
  7 10  2  0
  7 11  1  0
 10 12  1  0
 11 13  2  0
 12 14  2  0
 13 14  1  0
 15 17  1  0
 15 18  1  0
M  END
>  <PUBCHEM_COMPOUND_CID>  (1) 
43208

>  <PUBCHEM_CONFORMER_RMSD>  (1) 
0.8

>  <PUBCHEM_CONFORMER_DIVERSEORDER>  (1) 
1
127
86
24
118
95
76
79
148
6
101
68
58
9
93
46
117
36
175
147
83
67
104
74
57
56
50
131
4
80
26
85
17
13
124
53
66
52
73
161
33
140
84
122
139
128
22
154
87
97
54
51
137
158
152
163
155
156
62
98
120
162
11
145
133
168
44
150
90
7
100
105
153
61
78
130
96
28
106
77
72
167
69
143
125
35
109
142
134
29
30
172
144
138
16
71
132
42
37
34
166
171
88
151
136
126
135
48
63
91
114
173
41
108
110
99
43
21
65
47
174
64
164
116
169
111
81
82
121
14
89
38
141
32
92
159
25
113
146
129
19
107
12
5
60
20
27
123
160
59
18
75
49
119
10
45
2
103
157
149
112
94
165
115
102
55
3
70
170
40
15
31
8
39
23

>  <PUBCHEM_MMFF94_PARTIAL_CHARGES>  (1) 
18
1 -0.08
10 -0.15
11 -0.15
12 -0.15
13 -0.15
14 0.08
15 0.28
16 0.87
2 -0.43
27 0.15
28 0.15
29 0.15
3 -0.43
30 0.15
4 -0.57
5 0.14
7 -0.14
9 0.28

>  <PUBCHEM_EFFECTIVE_ROTOR_COUNT>  (1) 
7

>  <PUBCHEM_PHARMACOPHORE_FEATURES>  (1) 
4
1 1 hydrophobe
1 8 hydrophobe
3 15 17 18 hydrophobe
6 7 10 11 12 13 14 rings

>  <PUBCHEM_HEAVY_ATOM_COUNT>  (1) 
18

>  <PUBCHEM_ATOM_DEF_STEREO_COUNT>  (1) 
0

>  <PUBCHEM_ATOM_UDEF_STEREO_COUNT>  (1) 
1

>  <PUBCHEM_BOND_DEF_STEREO_COUNT>  (1) 
0

>  <PUBCHEM_BOND_UDEF_STEREO_COUNT>  (1) 
0

>  <PUBCHEM_ISOTOPIC_ATOM_COUNT>  (1) 
0

>  <PUBCHEM_COMPONENT_COUNT>  (1) 
1

>  <PUBCHEM_CACTVS_TAUTO_COUNT>  (1) 
1

>  <PUBCHEM_CONFORMER_ID>  (1) 
0000A8C800000001

>  <PUBCHEM_MMFF94_ENERGY>  (1) 
41.048

>  <PUBCHEM_FEATURE_SELFOVERLAP>  (1) 
20.297

>  <PUBCHEM_SHAPE_FINGERPRINT>  (1) 
10382601 240 18040423400546419978
10498660 4 18410008874835060148
11796584 16 13326853335685283901
12293681 160 17774169032145619440
12730499 353 18335994115866735235
13878862 14 18045760331256619205
13955234 65 18261673675475469850
1420 369 7997973479119885861
14251764 75 18338521966134827360
14528608 73 18343297068393825567
14848178 96 18412259562373755816
14849402 71 18335140865421933378
15142526 21 18335139838307571411
15163728 17 18191318271967107668
15210252 30 18411984693305153888
15342168 16 18410009961851929445
17834072 32 18192991745691620164
17868525 174 17684639935779262075
17980427 26 18339345466780612526
1798214 55 18336262431195188276
18785283 64 18260823770514961162
19752476 56 18202846560968330032
19784866 34 18339358673208441456
20621476 66 18267303317476917224
20621476 91 16516257357093857697
21401589 2 18115583901748996128
21503847 285 18343024358944205996
21652331 79 18341612582194285169
23402655 69 17917432068317798044
245318 6 17534638293019254204
25 1 18412825815594669750
2637199 183 18342464720394901534
270888 7 18267020733828912432
2838139 119 18057881549415603236
3009799 131 18059867164799700198
474 4 18409165540905651561
5104073 3 18259705584358859251
5895379 119 17057813906019048416
633830 44 18342172297625694526
6442390 28 18261960759647891602
7808743 9 18193272125324939920
8988823 20 13840276926490311111
960060 61 11887667403197033339

>  <PUBCHEM_SHAPE_MULTIPOLES>  (1) 
364.76
12.45
3.41
1.05
15.56
0.1
-0.1
-11.32
0.38
-4.4
0.8
-0.23
-0.04
-0.32

>  <PUBCHEM_SHAPE_SELFOVERLAP>  (1) 
713.092

>  <PUBCHEM_SHAPE_VOLUME>  (1) 
224.3

>  <PUBCHEM_COORDINATE_TYPE>  (1) 
2
5
10

$$$$
