43206
     RDKit          3D

 12 12  0  0  1  0  0  0  0  0999 V2000
    4.4729    1.0349    0.1020 I   0  0  0  0  0  0  0  0  0  0  0  0
   -3.5124    2.1006   -0.2077 O   0  0  0  0  0  0  0  0  0  0  0  0
   -1.5080   -1.1113   -0.1291 C   0  0  0  0  0  0  0  0  0  0  0  0
   -2.5485   -0.0430    0.2588 C   0  0  0  0  0  0  0  0  0  0  0  0
   -0.0790   -0.5993   -0.0740 C   0  0  0  0  0  0  0  0  0  0  0  0
   -1.6668   -2.3552    0.7534 C   0  0  0  0  0  0  0  0  0  0  0  0
   -2.5056    1.1924   -0.6356 C   0  0  0  0  0  0  0  0  0  0  0  0
    0.2623    0.3294    0.8897 C   0  0  0  0  0  0  0  0  0  0  0  0
    0.8397   -1.0760   -0.9885 C   0  0  0  0  0  0  0  0  0  0  0  0
    1.5743    0.8002    0.9409 C   0  0  0  0  0  0  0  0  0  0  0  0
    2.1518   -0.6055   -0.9373 C   0  0  0  0  0  0  0  0  0  0  0  0
    2.5191    0.3328    0.0273 C   0  0  0  0  0  0  0  0  0  0  0  0
  1 12  1  0
  2  7  1  0
  3  4  1  0
  3  5  1  0
  3  6  1  0
  4  7  1  0
  5  8  2  0
  5  9  1  0
  8 10  1  0
  9 11  2  0
 10 12  2  0
 11 12  1  0
M  END
>  <PUBCHEM_COMPOUND_CID>  (1) 
43206

>  <PUBCHEM_CONFORMER_RMSD>  (1) 
0.6

>  <PUBCHEM_CONFORMER_DIVERSEORDER>  (1) 
1
4
5
6
2
3

>  <PUBCHEM_MMFF94_PARTIAL_CHARGES>  (1) 
15
1 -0.08
10 -0.15
11 -0.15
12 0.08
2 -0.68
21 0.15
22 0.15
23 0.15
24 0.15
25 0.4
3 0.14
5 -0.14
7 0.28
8 -0.15
9 -0.15

>  <PUBCHEM_EFFECTIVE_ROTOR_COUNT>  (1) 
3

>  <PUBCHEM_PHARMACOPHORE_FEATURES>  (1) 
5
1 1 hydrophobe
1 2 acceptor
1 2 donor
1 6 hydrophobe
6 5 8 9 10 11 12 rings

>  <PUBCHEM_HEAVY_ATOM_COUNT>  (1) 
12

>  <PUBCHEM_ATOM_DEF_STEREO_COUNT>  (1) 
0

>  <PUBCHEM_ATOM_UDEF_STEREO_COUNT>  (1) 
1

>  <PUBCHEM_BOND_DEF_STEREO_COUNT>  (1) 
0

>  <PUBCHEM_BOND_UDEF_STEREO_COUNT>  (1) 
0

>  <PUBCHEM_ISOTOPIC_ATOM_COUNT>  (1) 
0

>  <PUBCHEM_COMPONENT_COUNT>  (1) 
1

>  <PUBCHEM_CACTVS_TAUTO_COUNT>  (1) 
1

>  <PUBCHEM_CONFORMER_ID>  (1) 
0000A8C600000001

>  <PUBCHEM_MMFF94_ENERGY>  (1) 
27.5722

>  <PUBCHEM_FEATURE_SELFOVERLAP>  (1) 
25.371

>  <PUBCHEM_SHAPE_FINGERPRINT>  (1) 
10608611 8 18341893034546708248
11543360 7 11527670834312921304
12138202 97 18413666920013863695
124424 183 18343577447958768146
12500047 106 18408036317000057530
12716758 59 18335989700582254451
13839132 238 18409165493766318191
15219456 202 18343026579495162438
15279308 16 18341052994672469590
15775835 57 17968373455444702713
16945 1 18263928902493338418
1741750 31 18409168787821773729
17844478 74 18196945588940450987
18186145 218 18198916811504464845
18534176 82 18338513144287149927
19026448 5 17749384927727154312
201361 129 17967806146515902408
20645477 56 18335425672523340077
20645477 70 17274555252009514062
21061003 4 17416137297900811914
21930827 45 18408039615466382099
21947302 44 18200309896978985887
22926399 65 18411699876695602248
22959321 8 17703782626355408744
23402539 116 18263634220967069999
23402655 69 17703221815886687461
23493267 7 18410571808088335730
23500284 214 18411423886450027657
23557571 272 18339092582736201868
23559900 14 18342460288822374678
25 1 18129662980907883665
2748010 2 18060153054206556550
305870 269 18042116574948458883
81228 2 18189058762613272923

>  <PUBCHEM_SHAPE_MULTIPOLES>  (1) 
253.02
6.48
1.89
1.01
4.4
0.05
0
3.2
-0.1
-2.05
0
0.17
-0.12
0.85

>  <PUBCHEM_SHAPE_SELFOVERLAP>  (1) 
490.497

>  <PUBCHEM_SHAPE_VOLUME>  (1) 
157.2

>  <PUBCHEM_COORDINATE_TYPE>  (1) 
2
5
10

$$$$
