43200
     RDKit          3D

 20 20  0  0  1  0  0  0  0  0999 V2000
    7.5807   -2.1098    0.4854 I   0  0  0  0  0  0  0  0  0  0  0  0
   -0.9880    0.3780    0.0248 O   0  0  0  0  0  0  0  0  0  0  0  0
    1.2072    0.6588   -0.0214 O   0  0  0  0  0  0  0  0  0  0  0  0
   -0.1504    2.4924   -0.3504 O   0  0  0  0  0  0  0  0  0  0  0  0
   -3.3277   -0.2625    0.1360 C   0  0  0  0  0  0  0  0  0  0  0  0
   -4.7474    0.3304    0.2575 C   0  0  0  0  0  0  0  0  0  0  0  0
   -3.1930   -1.3655   -0.9377 C   0  0  0  0  0  0  0  0  0  0  0  0
   -5.8178   -0.7081    0.6090 C   0  0  0  0  0  0  0  0  0  0  0  0
   -2.3155    0.8771   -0.0656 C   0  0  0  0  0  0  0  0  0  0  0  0
   -7.2246   -0.1125    0.7103 C   0  0  0  0  0  0  0  0  0  0  0  0
   -3.5286   -0.9307   -2.3577 C   0  0  0  0  0  0  0  0  0  0  0  0
   -8.2958   -1.1428    1.0336 C   0  0  0  0  0  0  0  0  0  0  0  0
    0.0097    1.2981   -0.1376 C   0  0  0  0  0  0  0  0  0  0  0  0
    2.3662    1.4865   -0.1661 C   0  0  0  0  0  0  0  0  0  0  0  0
    3.5952    0.6394   -0.0128 C   0  0  0  0  0  0  0  0  0  0  0  0
    4.1636    0.4570    1.2480 C   0  0  0  0  0  0  0  0  0  0  0  0
    4.1692    0.0341   -1.1307 C   0  0  0  0  0  0  0  0  0  0  0  0
    5.3058   -0.3306    1.3908 C   0  0  0  0  0  0  0  0  0  0  0  0
    5.3115   -0.7534   -0.9880 C   0  0  0  0  0  0  0  0  0  0  0  0
    5.8798   -0.9358    0.2727 C   0  0  0  0  0  0  0  0  0  0  0  0
  1 20  1  0
  2  9  1  0
  2 13  1  0
  3 13  1  0
  3 14  1  0
  4 13  2  0
  5  6  1  0
  5  7  1  0
  5  9  1  0
  6  8  1  0
  7 11  1  0
  8 10  1  0
 10 12  1  0
 14 15  1  0
 15 16  2  0
 15 17  1  0
 16 18  1  0
 17 19  2  0
 18 20  2  0
 19 20  1  0
M  END
>  <PUBCHEM_COMPOUND_CID>  (1) 
43200

>  <PUBCHEM_CONFORMER_RMSD>  (1) 
1

>  <PUBCHEM_CONFORMER_DIVERSEORDER>  (1) 
1
126
129
54
65
112
107
47
38
92
101
53
156
98
50
146
67
46
132
104
102
35
56
131
43
51
77
48
119
116
151
41
66
90
61
149
40
75
68
37
114
69
31
42
87
95
99
106
118
103
62
5
71
139
58
3
97
113
60
109
128
125
73
15
123
52
13
135
25
28
16
39
130
133
140
153
115
4
8
141
74
17
70
155
33
81
44
10
18
2
122
27
142
150
12
32
121
76
64
96
29
21
136
45
110
20
120
59
117
57
145
63
148
89
72
84
26
127
91
152
124
93
88
30
24
14
19
86
83
6
36
144
11
105
9
147
154
143
80
7
108
85
111
138
78
134
94
137
22
79
55
100
34
82
49
23

>  <PUBCHEM_MMFF94_PARTIAL_CHARGES>  (1) 
17
1 -0.08
13 0.87
14 0.42
15 -0.14
16 -0.15
17 -0.15
18 -0.15
19 -0.15
2 -0.43
20 0.08
3 -0.43
4 -0.57
40 0.15
41 0.15
42 0.15
43 0.15
9 0.28

>  <PUBCHEM_EFFECTIVE_ROTOR_COUNT>  (1) 
10

>  <PUBCHEM_PHARMACOPHORE_FEATURES>  (1) 
5
1 1 hydrophobe
1 11 hydrophobe
1 12 hydrophobe
5 5 6 7 8 10 hydrophobe
6 15 16 17 18 19 20 rings

>  <PUBCHEM_HEAVY_ATOM_COUNT>  (1) 
20

>  <PUBCHEM_ATOM_DEF_STEREO_COUNT>  (1) 
0

>  <PUBCHEM_ATOM_UDEF_STEREO_COUNT>  (1) 
1

>  <PUBCHEM_BOND_DEF_STEREO_COUNT>  (1) 
0

>  <PUBCHEM_BOND_UDEF_STEREO_COUNT>  (1) 
0

>  <PUBCHEM_ISOTOPIC_ATOM_COUNT>  (1) 
0

>  <PUBCHEM_COMPONENT_COUNT>  (1) 
1

>  <PUBCHEM_CACTVS_TAUTO_COUNT>  (1) 
1

>  <PUBCHEM_CONFORMER_ID>  (1) 
0000A8C000000001

>  <PUBCHEM_MMFF94_ENERGY>  (1) 
31.2614

>  <PUBCHEM_FEATURE_SELFOVERLAP>  (1) 
25.376

>  <PUBCHEM_SHAPE_FINGERPRINT>  (1) 
10299344 5 17312824870831693323
10670039 82 11819265634246466566
10753850 27 18260265235666321472
125118 31 12823028503904827067
12592606 108 18334858346768579003
12596602 18 13614234897729771190
12616971 3 18342171210851314405
13668630 136 17603586313870804722
13673619 4 17385442142163860893
13685833 64 18261112984495010649
14123256 10 11891332062657237687
14216079 64 18410577258001336059
14251764 18 17917711344192086429
14251764 30 17531245084598126247
14347424 109 18130787888514121480
14528608 73 11963386349538666764
15183329 4 14779264185784886396
15348495 7 16702011024184805690
16994733 274 11455628560740602679
19141452 34 17846777442484650183
20157964 124 11959741455460371308
20281389 69 12391518563607205491
20554085 129 14404905757005720359
21150785 3 13840269186653204002
21267235 1 18333171652248330336
21365058 113 16805327721158331389
21403212 168 17917996053959731031
221357 26 14418131833166415039
2297311 6 15647049374731642239
246663 6 17530970185427420459
2767999 5 10735878365407091770
28498 318 18259983765316757353
300161 21 11600003254159302012
3004659 81 17458063764112555168
312425 54 17418082248298244250
33532 11 18260831501255757507
3472631 163 9727338152950816786
34797466 226 15574720222147832166
351380 3 18333448733810970794
4325135 7 13839984426084638059
4340502 62 15985110699384327781
465052 167 18335707148006206198
5104073 3 17416961905873081723
5207 217 8718826483919041829
559249 180 18338515244769056117
5924683 9 16558455504881177591
59682541 52 12468629501035193688

>  <PUBCHEM_SHAPE_MULTIPOLES>  (1) 
405.92
23.56
1.79
1.37
12.91
0.18
0.55
-15.75
-7.34
-1.37
0.05
0.47
-0.42
-0.18

>  <PUBCHEM_SHAPE_SELFOVERLAP>  (1) 
781.784

>  <PUBCHEM_SHAPE_VOLUME>  (1) 
251

>  <PUBCHEM_COORDINATE_TYPE>  (1) 
2
5
10

$$$$
