43202
     RDKit          3D

 15 15  0  0  0  0  0  0  0  0999 V2000
    4.7325   -2.4492    0.6174 I   0  0  0  0  0  0  0  0  0  0  0  0
   -1.3983    0.7482   -0.3468 O   0  0  0  0  0  0  0  0  0  0  0  0
   -3.0410   -0.7272   -0.2014 O   0  0  0  0  0  0  0  0  0  0  0  0
   -3.1633    1.1934    1.0672 O   0  0  0  0  0  0  0  0  0  0  0  0
    0.5387    2.1340   -0.7390 C   0  0  0  0  0  0  0  0  0  0  0  0
    1.5220    1.0591   -0.4203 C   0  0  0  0  0  0  0  0  0  0  0  0
   -0.7839    1.9777    0.0176 C   0  0  0  0  0  0  0  0  0  0  0  0
    2.4206    1.2252    0.6336 C   0  0  0  0  0  0  0  0  0  0  0  0
    1.5431   -0.1129   -1.1763 C   0  0  0  0  0  0  0  0  0  0  0  0
    3.3402    0.2196    0.9313 C   0  0  0  0  0  0  0  0  0  0  0  0
    2.4628   -1.1186   -0.8788 C   0  0  0  0  0  0  0  0  0  0  0  0
    3.3614   -0.9523    0.1751 C   0  0  0  0  0  0  0  0  0  0  0  0
   -2.5940    0.4757    0.2559 C   0  0  0  0  0  0  0  0  0  0  0  0
   -4.2941   -1.1651    0.3345 C   0  0  0  0  0  0  0  0  0  0  0  0
   -4.6468   -2.5075   -0.2700 C   0  0  0  0  0  0  0  0  0  0  0  0
  1 12  1  0
  2  7  1  0
  2 13  1  0
  3 13  1  0
  3 14  1  0
  4 13  2  0
  5  6  1  0
  5  7  1  0
  6  8  2  0
  6  9  1  0
  8 10  1  0
  9 11  2  0
 10 12  2  0
 11 12  1  0
 14 15  1  0
M  END
>  <PUBCHEM_COMPOUND_CID>  (1) 
43202

>  <PUBCHEM_CONFORMER_RMSD>  (1) 
0.8

>  <PUBCHEM_CONFORMER_DIVERSEORDER>  (1) 
1
32
11
28
39
34
26
36
4
29
14
10
31
18
15
38
16
7
19
3
27
20
24
21
17
30
40
13
6
5
37
9
23
25
8
35
2
33
12
22

>  <PUBCHEM_MMFF94_PARTIAL_CHARGES>  (1) 
18
1 -0.08
10 -0.15
11 -0.15
12 0.08
13 0.87
14 0.28
2 -0.43
20 0.15
21 0.15
22 0.15
23 0.15
3 -0.43
4 -0.57
5 0.14
6 -0.14
7 0.28
8 -0.15
9 -0.15

>  <PUBCHEM_EFFECTIVE_ROTOR_COUNT>  (1) 
6

>  <PUBCHEM_PHARMACOPHORE_FEATURES>  (1) 
2
1 1 hydrophobe
6 6 8 9 10 11 12 rings

>  <PUBCHEM_HEAVY_ATOM_COUNT>  (1) 
15

>  <PUBCHEM_ATOM_DEF_STEREO_COUNT>  (1) 
0

>  <PUBCHEM_ATOM_UDEF_STEREO_COUNT>  (1) 
0

>  <PUBCHEM_BOND_DEF_STEREO_COUNT>  (1) 
0

>  <PUBCHEM_BOND_UDEF_STEREO_COUNT>  (1) 
0

>  <PUBCHEM_ISOTOPIC_ATOM_COUNT>  (1) 
0

>  <PUBCHEM_COMPONENT_COUNT>  (1) 
1

>  <PUBCHEM_CACTVS_TAUTO_COUNT>  (1) 
1

>  <PUBCHEM_CONFORMER_ID>  (1) 
0000A8C200000001

>  <PUBCHEM_MMFF94_ENERGY>  (1) 
26.0369

>  <PUBCHEM_FEATURE_SELFOVERLAP>  (1) 
10.148

>  <PUBCHEM_SHAPE_FINGERPRINT>  (1) 
10447042 23 18199738314621523327
12006461 19 18408885101253273826
12346177 29 18335698309127398661
12363563 72 18260272949074053187
12400797 245 18342454859097132348
12596599 1 18129959879027875507
12633257 1 17987805090040315752
13103583 49 18199755743287671538
13764800 53 11599717411301117525
14123255 52 10015867587042508231
14178342 30 18128828460203776937
1420 369 18410012165128343875
14251731 5 18408885109653648594
15163728 17 11598571780884125682
15342168 16 10735882768249827723
15352361 1 18408602560866691563
17834072 32 10159683712451432746
1798214 55 10375874077860275755
18186145 218 12757153476223237501
19107657 9 11024105447292539712
19141452 34 18339082558462010817
20281475 54 18336270063288964580
20361792 2 17530976751789337884
20621476 91 18189596290908464458
20645477 70 17970343930984983471
20681677 274 18343014459229510632
21501925 9 18340486763490803597
21713013 43 14924531709064569041
21864079 5 9943808884924142943
22620623 9 16734093549106199447
22646028 28 18335423486680184163
22926399 65 9222931695907844414
23402655 69 11241969269905701538
23503958 8 18343582915146129395
251288 83 18341046414967240464
270888 7 10159697997275457907
2838139 119 9006184956135580026
3009799 131 10809613776626486216
316301 35 18408879625408050130
5104073 3 18202001010255373522
568465 68 17488448686299490250
76465 3 18334571305139563418
7808743 9 10159400029676792102
8199 26 9583520919055909227
88748 71 18188496877753991635
8988823 20 17345747637944591905

>  <PUBCHEM_SHAPE_MULTIPOLES>  (1) 
303.02
9.86
2.8
1.02
4.65
0.84
-0.04
9.84
2.04
0.54
-0.03
-0.4
-0.05
-0.58

>  <PUBCHEM_SHAPE_SELFOVERLAP>  (1) 
590.23

>  <PUBCHEM_SHAPE_VOLUME>  (1) 
186.2

>  <PUBCHEM_COORDINATE_TYPE>  (1) 
2
5
10

$$$$
