43204
     RDKit          3D

 16 16  0  0  0  0  0  0  0  0999 V2000
    6.7467   -1.4538   -0.0383 I   0  0  0  0  0  0  0  0  0  0  0  0
   -2.4930   -0.1004    0.0150 O   0  0  0  0  0  0  0  0  0  0  0  0
   -4.6072   -0.7565    0.0061 O   0  0  0  0  0  0  0  0  0  0  0  0
   -4.1489    1.5020   -0.0410 O   0  0  0  0  0  0  0  0  0  0  0  0
    1.0098    1.2879    0.0367 C   0  0  0  0  0  0  0  0  0  0  0  0
   -0.1249    0.2561    0.0329 C   0  0  0  0  0  0  0  0  0  0  0  0
    2.3563    0.6470    0.0180 C   0  0  0  0  0  0  0  0  0  0  0  0
   -1.4975    0.9134    0.0022 C   0  0  0  0  0  0  0  0  0  0  0  0
    2.9940    0.3313    1.2176 C   0  0  0  0  0  0  0  0  0  0  0  0
    2.9772    0.3617   -1.1982 C   0  0  0  0  0  0  0  0  0  0  0  0
    4.2527   -0.2694    1.2013 C   0  0  0  0  0  0  0  0  0  0  0  0
    4.2359   -0.2392   -1.2146 C   0  0  0  0  0  0  0  0  0  0  0  0
    4.8738   -0.5549   -0.0149 C   0  0  0  0  0  0  0  0  0  0  0  0
   -3.7891    0.3329   -0.0095 C   0  0  0  0  0  0  0  0  0  0  0  0
   -6.0106   -0.4758   -0.0172 C   0  0  0  0  0  0  0  0  0  0  0  0
   -6.7752   -1.7823    0.0041 C   0  0  0  0  0  0  0  0  0  0  0  0
  1 13  1  0
  2  8  1  0
  2 14  1  0
  3 14  1  0
  3 15  1  0
  4 14  2  0
  5  6  1  0
  5  7  1  0
  6  8  1  0
  7  9  2  0
  7 10  1  0
  9 11  1  0
 10 12  2  0
 11 13  2  0
 12 13  1  0
 15 16  1  0
M  END
>  <PUBCHEM_COMPOUND_CID>  (1) 
43204

>  <PUBCHEM_CONFORMER_RMSD>  (1) 
0.8

>  <PUBCHEM_CONFORMER_DIVERSEORDER>  (1) 
1
66
53
32
9
77
48
87
10
47
100
89
83
49
88
78
44
85
14
45
61
76
71
95
25
101
80
40
79
91
70
22
30
74
13
36
84
58
51
52
81
19
65
50
23
37
102
17
7
21
5
67
99
3
90
55
64
72
68
15
56
96
38
8
57
93
73
35
27
92
4
31
39
2
75
97
42
60
26
63
82
33
18
20
34
43
94
54
69
24
98
62
12
29
28
46
86
59
41
103
11
16
6

>  <PUBCHEM_MMFF94_PARTIAL_CHARGES>  (1) 
18
1 -0.08
10 -0.15
11 -0.15
12 -0.15
13 0.08
14 0.87
15 0.28
2 -0.43
23 0.15
24 0.15
25 0.15
26 0.15
3 -0.43
4 -0.57
5 0.14
7 -0.14
8 0.28
9 -0.15

>  <PUBCHEM_EFFECTIVE_ROTOR_COUNT>  (1) 
7

>  <PUBCHEM_PHARMACOPHORE_FEATURES>  (1) 
2
1 1 hydrophobe
6 7 9 10 11 12 13 rings

>  <PUBCHEM_HEAVY_ATOM_COUNT>  (1) 
16

>  <PUBCHEM_ATOM_DEF_STEREO_COUNT>  (1) 
0

>  <PUBCHEM_ATOM_UDEF_STEREO_COUNT>  (1) 
0

>  <PUBCHEM_BOND_DEF_STEREO_COUNT>  (1) 
0

>  <PUBCHEM_BOND_UDEF_STEREO_COUNT>  (1) 
0

>  <PUBCHEM_ISOTOPIC_ATOM_COUNT>  (1) 
0

>  <PUBCHEM_COMPONENT_COUNT>  (1) 
1

>  <PUBCHEM_CACTVS_TAUTO_COUNT>  (1) 
1

>  <PUBCHEM_CONFORMER_ID>  (1) 
0000A8C400000001

>  <PUBCHEM_MMFF94_ENERGY>  (1) 
26.3373

>  <PUBCHEM_FEATURE_SELFOVERLAP>  (1) 
10.148

>  <PUBCHEM_SHAPE_FINGERPRINT>  (1) 
10354089 29 14261632833469859842
106641 1 17989199366175566026
10688039 33 16343707620627047577
10693767 8 17096076962965514146
117890 112 10447931667803481999
12236239 1 18041000609891692076
12616971 3 15769769178326639617
13167372 99 11887687160131387003
13668630 136 18040998435963351287
13685833 64 18272370871404244922
13836976 161 16877947131441785434
13862211 1 18410575097922722087
14123256 34 18408890637228923387
1420 363 18131071550050704175
14251764 18 17704070715908562478
14528608 73 13912320209565021369
14576447 43 17458343001627536944
14729087 3 9367348124189222299
15048467 5 9583520914829435763
15183329 4 16443060582350552023
15348495 7 16773511183318712651
15475509 35 18199456689928261938
17834072 33 16877943866955046579
17834072 8 16081371851569329474
17844677 252 18343587343242184761
18222031 100 17967810583069731245
19433438 28 17775281651517599673
20281389 69 10880002354440915539
20526848 3 9799688212233325714
20645477 70 15574703669502090176
21130983 4 10592041366885019638
21150785 3 17458067088016445638
21267235 1 18335143102920552931
21637258 2 18187640263959374258
221357 26 15213014947331875142
22224240 67 15841539766155483326
22289505 5 13406791129928662910
23402539 116 18261109634378549244
23402655 69 14634870829962678336
23559900 14 18116151250292396569
26918003 58 16773792585080109704
29717793 49 17749112171238720670
300161 21 10952053342724066785
3004659 81 17821446863570797634
3472631 163 8718535125969330346
351380 3 18334855030589355787
465052 167 18411423937704714255
522135 26 16226045591910824096
5374978 207 14908184152976324752
559249 180 18410009906296890263
59682541 52 13768199447012006266

>  <PUBCHEM_SHAPE_MULTIPOLES>  (1) 
323.6
18.65
1.41
0.99
16.81
0.33
0
11.66
-0.13
0.9
0
-1.38
-0.03
0.05

>  <PUBCHEM_SHAPE_SELFOVERLAP>  (1) 
627.375

>  <PUBCHEM_SHAPE_VOLUME>  (1) 
199.4

>  <PUBCHEM_COORDINATE_TYPE>  (1) 
2
5
10

$$$$
