4322
     RDKit          3D

 38 41  0  0  1  0  0  0  0  0999 V2000
   -3.0096   -3.2130   -0.2799 F   0  0  0  0  0  0  0  0  0  0  0  0
   -4.1606    1.3740    0.2178 F   0  0  0  0  0  0  0  0  0  0  0  0
   -0.4236   -2.4585   -0.8188 O   0  0  0  0  0  0  0  0  0  0  0  0
   -1.5567    2.0267   -0.3298 O   0  0  0  0  0  0  0  0  0  0  0  0
   -7.1557    1.3748    1.3561 O   0  0  0  0  0  0  0  0  0  0  0  0
   -0.7054    2.4255   -2.9549 O   0  0  0  0  0  0  0  0  0  0  0  0
   -5.5569    0.1703    2.4320 O   0  0  0  0  0  0  0  0  0  0  0  0
    5.2095   -1.9128    0.9063 N   0  0  0  0  0  0  0  0  0  0  0  0
    3.7369   -0.4094    1.7767 N   0  0  0  0  0  0  0  0  0  0  0  0
   -4.9699   -1.2985    0.2591 N   0  0  0  0  0  0  0  0  0  0  0  0
   -0.9943   -0.2106   -0.5733 N   0  0  0  0  0  0  0  0  0  0  0  0
    4.3443    2.9580    1.0055 N   0  0  0  0  0  0  0  0  0  0  0  0
    2.5988    2.5032    2.4912 N   0  0  0  0  0  0  0  0  0  0  0  0
    5.9476   -1.4013    2.0338 C   0  0  0  0  0  0  0  0  0  0  0  0
    4.0101   -1.2490    0.8035 C   0  0  0  0  0  0  0  0  0  0  0  0
    4.8995   -0.5083    2.7024 C   0  0  0  0  0  0  0  0  0  0  0  0
    3.0461   -1.4196   -0.3011 C   0  0  0  0  0  0  0  0  0  0  0  0
    5.7785   -2.9300    0.0602 C   0  0  0  0  0  0  0  0  0  0  0  0
    1.7512   -1.8643   -0.0345 C   0  0  0  0  0  0  0  0  0  0  0  0
    3.4301   -1.1358   -1.6116 C   0  0  0  0  0  0  0  0  0  0  0  0
    0.8402   -2.0247   -1.0786 C   0  0  0  0  0  0  0  0  0  0  0  0
   -3.6371   -0.9338   -0.0202 C   0  0  0  0  0  0  0  0  0  0  0  0
    2.5192   -1.2963   -2.6557 C   0  0  0  0  0  0  0  0  0  0  0  0
    1.2242   -1.7407   -2.3890 C   0  0  0  0  0  0  0  0  0  0  0  0
   -1.3900   -1.5031   -0.5527 C   0  0  0  0  0  0  0  0  0  0  0  0
   -2.6860   -1.9132   -0.2842 C   0  0  0  0  0  0  0  0  0  0  0  0
   -3.2683    0.4068   -0.0324 C   0  0  0  0  0  0  0  0  0  0  0  0
   -6.0402   -0.3300    0.1243 C   0  0  0  0  0  0  0  0  0  0  0  0
   -1.9461    0.7130   -0.3118 C   0  0  0  0  0  0  0  0  0  0  0  0
   -5.2867   -2.6432    0.6985 C   0  0  0  0  0  0  0  0  0  0  0  0
   -0.2315    2.2917   -0.6121 C   0  0  0  0  0  0  0  0  0  0  0  0
   -6.2090    0.4051    1.4230 C   0  0  0  0  0  0  0  0  0  0  0  0
    0.6919    2.3595    0.4312 C   0  0  0  0  0  0  0  0  0  0  0  0
    0.1871    2.4895   -1.9279 C   0  0  0  0  0  0  0  0  0  0  0  0
    2.0338    2.6251    0.1586 C   0  0  0  0  0  0  0  0  0  0  0  0
    1.5290    2.7551   -2.2003 C   0  0  0  0  0  0  0  0  0  0  0  0
    2.4524    2.8229   -1.1572 C   0  0  0  0  0  0  0  0  0  0  0  0
    2.9970    2.6951    1.2460 C   0  0  0  0  0  0  0  0  0  0  0  0
  1 26  1  0
  2 27  1  0
  3 21  1  0
  3 25  1  0
  4 29  1  0
  4 31  1  0
  5 32  1  0
  6 34  1  0
  7 32  2  0
  8 14  1  0
  8 15  1  0
  8 18  1  0
  9 15  2  0
  9 16  1  0
 10 22  1  0
 10 28  1  0
 10 30  1  0
 11 25  2  0
 11 29  1  0
 12 38  1  0
 13 38  2  0
 14 16  1  0
 15 17  1  0
 17 19  2  0
 17 20  1  0
 19 21  1  0
 20 23  2  0
 21 24  2  0
 22 26  2  0
 22 27  1  0
 23 24  1  0
 25 26  1  0
 27 29  2  0
 28 32  1  0
 31 33  2  0
 31 34  1  0
 33 35  1  0
 34 36  2  0
 35 37  2  0
 35 38  1  0
 36 37  1  0
M  END
>  <PUBCHEM_COMPOUND_CID>  (1) 
4322

>  <PUBCHEM_CONFORMER_RMSD>  (1) 
1

>  <PUBCHEM_CONFORMER_DIVERSEORDER>  (1) 
1
117
317
178
106
328
316
282
65
259
101
280
160
294
271
153
203
353
270
257
276
292
230
326
303
204
17
227
229
211
121
216
291
298
126
129
234
254
275
127
235
335
205
260
145
237
334
46
196
198
23
151
344
336
322
245
180
130
89
143
185
210
309
252
240
220
348
100
349
318
325
212
242
338
312
174
288
183
226
182
133
175
343
305
154
278
163
184
140
47
75
173
281
314
267
293
324
16
333
157
238
132
300
221
150
134
244
224
162
261
71
102
345
231
352
273
156
223
194
169
320
87
332
105
327
247
141
49
6
109
269
2
354
265
98
253
103
159
94
296
56
116
96
149
290
78
85
329
122
197
302
239
146
356
45
232
331
148
323
34
308
119
274
319
161
24
97
236
120
20
301
289
60
128
213
63
299
250
110
123
351
136
21
341
72
201
125
225
206
93
283
170
107
195
3
217
64
215
315
295
52
66
112
304
171
177
83
277
142
111
264
167
330
207
310
61
44
358
70
321
306
218
37
114
104
209
263
55
82
48
248
19
158
14
200
311
228
246
346
26
286
84
340
77
73
181
59
74
219
144
337
251
147
38
28
284
62
347
124
108
357
76
80
69
342
179
214
256
187
189
131
255
40
193
32
36
176
27
287
307
192
190
90
13
30
95
135
118
272
9
11
279
91
186
79
67
54
249
43
81
208
113
285
155
12
233
350
152
51
42
138
188
18
172
25
268
41
241
202
35
33
262
339
297
243
139
199
50
164
355
5
31
166
39
10
88
86
68
266
115
7
313
58
191
53
165
15
57
222
137
29
4
258
22
8
92
168
99

>  <PUBCHEM_MMFF94_PARTIAL_CHARGES>  (1) 
50
1 -0.19
10 -0.84
11 -0.62
12 -0.85
13 -0.85
14 0.37
15 0.41
16 0.25
17 0.09
18 0.37
19 -0.15
2 -0.19
20 -0.15
21 0.08
22 0.1
23 -0.15
24 -0.15
25 0.39
26 0.19
27 0.19
28 0.43
29 0.39
3 -0.17
30 0.37
31 0.08
32 0.66
33 -0.15
34 0.08
35 0.09
36 -0.15
37 -0.15
38 0.41
4 -0.17
46 0.15
47 0.15
48 0.15
49 0.15
5 -0.65
55 0.15
56 0.15
57 0.15
58 0.5
59 0.45
6 -0.53
60 0.4
61 0.4
62 0.4
7 -0.57
8 -0.79
9 -0.7

>  <PUBCHEM_EFFECTIVE_ROTOR_COUNT>  (1) 
9.6

>  <PUBCHEM_PHARMACOPHORE_FEATURES>  (1) 
14
1 10 cation
1 12 donor
1 13 donor
1 4 acceptor
1 5 acceptor
1 6 donor
1 7 acceptor
3 12 13 38 cation
3 5 7 32 anion
3 8 9 15 cation
5 8 9 14 15 16 rings
6 11 22 25 26 27 29 rings
6 17 19 20 21 23 24 rings
6 31 33 34 35 36 37 rings

>  <PUBCHEM_HEAVY_ATOM_COUNT>  (1) 
38

>  <PUBCHEM_ATOM_DEF_STEREO_COUNT>  (1) 
0

>  <PUBCHEM_ATOM_UDEF_STEREO_COUNT>  (1) 
0

>  <PUBCHEM_BOND_DEF_STEREO_COUNT>  (1) 
0

>  <PUBCHEM_BOND_UDEF_STEREO_COUNT>  (1) 
0

>  <PUBCHEM_ISOTOPIC_ATOM_COUNT>  (1) 
0

>  <PUBCHEM_COMPONENT_COUNT>  (1) 
1

>  <PUBCHEM_CACTVS_TAUTO_COUNT>  (1) 
5

>  <PUBCHEM_CONFORMER_ID>  (1) 
000010E200000001

>  <PUBCHEM_MMFF94_ENERGY>  (1) 
140.8851

>  <PUBCHEM_FEATURE_SELFOVERLAP>  (1) 
71.147

>  <PUBCHEM_SHAPE_FINGERPRINT>  (1) 
10190108 129 18187074093107568040
10290309 65 18122610679485158910
11421498 54 17241321353244806130
11963148 33 17470172917709522891
12156800 1 15649265916821380116
12166972 35 17022910021064857942
12422481 6 18412255155826623817
12608794 3 18270944808975868063
12633257 1 18341887498259880762
131258 38 17967806176697510650
13140716 1 18412545444181909159
15064986 96 17775009016095247990
15324884 4 17766240265193776376
15420108 30 17843674711213649678
15840311 113 16844460315417511555
17980427 23 17988629813834278135
1813 80 17458615757035225005
1979834 28 17775007873143317334
20691752 17 17749669717917607391
21033648 29 17846503616824412799
21421861 104 18261681453413056348
22223350 30 17387146444952849515
23559900 14 18269858526189819837
24771293 8 18131348584131418601
3411729 13 18268998750857102436
35225 105 16667069459904124796
3680242 22 18335428962589673075
392239 28 18335411374693562067
4112364 45 17060336383409387593
4144715 1 18337397161545093339
460360 51 18191603036999471675
469060 322 18042975259660442184
5104073 3 18339656641419017819
513532 50 16271938116090018732
57527293 21 18271790325460909462

>  <PUBCHEM_SHAPE_MULTIPOLES>  (1) 
708.24
13.68
4.24
2.47
13.99
1.67
0.19
-6.18
-10.7
-2.92
0.85
-2.29
0.72
-0.04

>  <PUBCHEM_SHAPE_SELFOVERLAP>  (1) 
1550.488

>  <PUBCHEM_SHAPE_VOLUME>  (1) 
384.7

>  <PUBCHEM_COORDINATE_TYPE>  (1) 
2
5
10

$$$$
