43231
     RDKit          3D

 20 20  0  0  0  0  0  0  0  0999 V2000
   -2.8306    0.7195   -2.0755 Cl  0  0  0  0  0  0  0  0  0  0  0  0
   -4.7313    1.4936    0.4055 Cl  0  0  0  0  0  0  0  0  0  0  0  0
   -2.4326    1.3035    2.2159 Cl  0  0  0  0  0  0  0  0  0  0  0  0
   -1.3952   -2.0839    0.0918 S   0  0  0  0  0  0  0  0  0  0  0  0
    3.6573   -0.1744    0.0831 S   0  0  0  0  0  0  0  0  0  0  0  0
   -0.7144   -3.1002    0.8778 O   0  0  0  0  0  0  0  0  0  0  0  0
   -2.7004   -1.5951    0.5063 O   0  0  0  0  0  0  0  0  0  0  0  0
    3.8951   -1.5715   -0.2444 O   0  0  0  0  0  0  0  0  0  0  0  0
    4.3812    0.8715   -0.6227 O   0  0  0  0  0  0  0  0  0  0  0  0
    2.3393    2.5225   -0.4477 N   0  0  0  0  0  0  0  0  0  0  0  0
   -1.4903   -2.6069   -1.5305 N   0  0  0  0  0  0  0  0  0  0  0  0
    3.8694    0.0455    1.7632 N   0  0  0  0  0  0  0  0  0  0  0  0
   -0.3200   -0.7087   -0.0703 C   0  0  0  0  0  0  0  0  0  0  0  0
    1.9419    0.1402   -0.0754 C   0  0  0  0  0  0  0  0  0  0  0  0
   -0.8031    0.5769   -0.3141 C   0  0  0  0  0  0  0  0  0  0  0  0
    1.0525   -0.9270    0.0491 C   0  0  0  0  0  0  0  0  0  0  0  0
    1.4588    1.4258   -0.3192 C   0  0  0  0  0  0  0  0  0  0  0  0
    0.0863    1.6442   -0.4384 C   0  0  0  0  0  0  0  0  0  0  0  0
   -2.2288    0.8494   -0.4453 C   0  0  0  0  0  0  0  0  0  0  0  0
   -3.0350    1.1747    0.5908 C   0  0  0  0  0  0  0  0  0  0  0  0
  1 19  1  0
  2 20  1  0
  3 20  1  0
  4  6  2  0
  4  7  2  0
  4 11  1  0
  4 13  1  0
  5  8  2  0
  5  9  2  0
  5 12  1  0
  5 14  1  0
 10 17  1  0
 13 15  2  0
 13 16  1  0
 14 16  2  0
 14 17  1  0
 15 18  1  0
 15 19  1  0
 17 18  2  0
 19 20  2  3
M  END
>  <PUBCHEM_COMPOUND_CID>  (1) 
43231

>  <PUBCHEM_CONFORMER_RMSD>  (1) 
0.6

>  <PUBCHEM_CONFORMER_DIVERSEORDER>  (1) 
1
8
2
7
3
6
4
5

>  <PUBCHEM_MMFF94_PARTIAL_CHARGES>  (1) 
28
1 -0.14
10 -0.9
11 -0.98
12 -0.98
13 -0.01
14 -0.01
15 0.03
16 -0.15
17 0.1
18 -0.15
19 0.11
2 -0.14
20 0.28
21 0.15
22 0.15
23 0.4
24 0.4
25 0.42
26 0.42
27 0.42
28 0.42
3 -0.14
4 1.45
5 1.45
6 -0.65
7 -0.65
8 -0.65
9 -0.65

>  <PUBCHEM_EFFECTIVE_ROTOR_COUNT>  (1) 
3

>  <PUBCHEM_PHARMACOPHORE_FEATURES>  (1) 
9
1 10 cation
1 10 donor
1 11 donor
1 12 donor
1 6 acceptor
1 7 acceptor
1 8 acceptor
1 9 acceptor
6 13 14 15 16 17 18 rings

>  <PUBCHEM_HEAVY_ATOM_COUNT>  (1) 
20

>  <PUBCHEM_ATOM_DEF_STEREO_COUNT>  (1) 
0

>  <PUBCHEM_ATOM_UDEF_STEREO_COUNT>  (1) 
0

>  <PUBCHEM_BOND_DEF_STEREO_COUNT>  (1) 
0

>  <PUBCHEM_BOND_UDEF_STEREO_COUNT>  (1) 
0

>  <PUBCHEM_ISOTOPIC_ATOM_COUNT>  (1) 
0

>  <PUBCHEM_COMPONENT_COUNT>  (1) 
1

>  <PUBCHEM_CACTVS_TAUTO_COUNT>  (1) 
1

>  <PUBCHEM_CONFORMER_ID>  (1) 
0000A8DF00000001

>  <PUBCHEM_MMFF94_ENERGY>  (1) 
34.868

>  <PUBCHEM_FEATURE_SELFOVERLAP>  (1) 
45.707

>  <PUBCHEM_SHAPE_FINGERPRINT>  (1) 
10967382 1 18264208015401423726
11132069 177 18335975398752245104
11578080 2 17344622884145113115
12236239 1 17917424277669525557
12251169 10 18408610248831563321
12403814 3 17603587430456826301
12553582 1 18335698309074527692
12592029 89 18187927201728174051
13140716 1 18336260240857001304
13583140 156 16588299471468594868
13965767 371 16551748221964845417
14022347 108 18189628146379814894
14178342 30 18341319076913958378
14223421 5 17977385258972878856
14289901 80 16773502339848836904
14617773 55 18196377145839564673
14787075 74 18201722894871580545
14790565 3 18263938639490881508
15295992 7 17703791426917212409
15309172 13 18335991856845507305
15375462 189 17749384850138331008
16752209 62 18340199803862117259
16945 1 18334571296349123204
17349148 13 18272644645230274341
18186145 218 18337951195208697958
18219364 16 18187926127912659165
19591789 44 17976826389196177678
204376 136 18335988575595838721
21339142 149 17632284688310274989
21501502 16 18263926716571171812
21524375 3 18343024350670899273
23184049 59 18337112259030687136
2334 1 18119243111085463084
23402539 116 17846208939217921957
23419403 2 16397668498981115221
23557571 272 17702656812669619946
23558518 356 17826517957221960856
23559900 14 18411981361137479724
25147074 1 18190176970017280676
2748010 2 18264481974285645380
335352 9 18336830784365070374
34934 24 18334857225655241172
350125 39 18263934404441305709
4340502 62 18269567057388888777
474 4 18270689645306292217
5104073 3 18335695109619408872
69090 78 18409728456720692229
74978 22 18410012177949779836
7832392 63 18409732906486490332
81228 2 17973997646610113643
8272917 22 18052548673365924809
9981440 41 17054108852212687704

>  <PUBCHEM_SHAPE_MULTIPOLES>  (1) 
386.48
7.35
2.69
1.48
3.27
1.78
-0.19
-2.54
-0.93
-0.67
0.06
-1.03
-0.22
-0.57

>  <PUBCHEM_SHAPE_SELFOVERLAP>  (1) 
761.411

>  <PUBCHEM_SHAPE_VOLUME>  (1) 
233.3

>  <PUBCHEM_COORDINATE_TYPE>  (1) 
2
5
10

$$$$
