43239
     RDKit          3D

 19 19  0  0  0  0  0  0  0  0999 V2000
   -3.6916   -3.0422    0.2872 Cl  0  0  0  0  0  0  0  0  0  0  0  0
   -4.9224   -0.1021    0.1365 Cl  0  0  0  0  0  0  0  0  0  0  0  0
   -2.8979    2.4534    0.0575 S   0  0  0  0  0  0  0  0  0  0  0  0
    1.8263    0.4213   -2.2971 S   0  0  0  0  0  0  0  0  0  0  0  0
    2.0359    0.0099   -0.4022 P   0  0  0  0  0  0  0  0  0  0  0  0
    0.9075   -0.9384    0.2731 O   0  0  0  0  0  0  0  0  0  0  0  0
    3.3971   -0.7853    0.0065 O   0  0  0  0  0  0  0  0  0  0  0  0
    2.0886    1.2644    0.6325 O   0  0  0  0  0  0  0  0  0  0  0  0
   -0.4466   -0.7414    0.2411 C   0  0  0  0  0  0  0  0  0  0  0  0
   -0.9543    0.5520    0.1750 C   0  0  0  0  0  0  0  0  0  0  0  0
    3.5898   -2.1220   -0.4246 C   0  0  0  0  0  0  0  0  0  0  0  0
    2.9784    2.3407    0.3896 C   0  0  0  0  0  0  0  0  0  0  0  0
   -1.3040   -1.8364    0.2750 C   0  0  0  0  0  0  0  0  0  0  0  0
   -2.3343    0.7527    0.1425 C   0  0  0  0  0  0  0  0  0  0  0  0
   -2.6841   -1.6358    0.2423 C   0  0  0  0  0  0  0  0  0  0  0  0
   -3.1992   -0.3412    0.1761 C   0  0  0  0  0  0  0  0  0  0  0  0
    4.9245   -2.6182    0.0895 C   0  0  0  0  0  0  0  0  0  0  0  0
    2.8270    3.3645    1.4944 C   0  0  0  0  0  0  0  0  0  0  0  0
   -2.1406    3.0040   -1.4948 C   0  0  0  0  0  0  0  0  0  0  0  0
  1 15  1  0
  2 16  1  0
  3 14  1  0
  3 19  1  0
  4  5  2  0
  5  6  1  0
  5  7  1  0
  5  8  1  0
  6  9  1  0
  7 11  1  0
  8 12  1  0
  9 10  2  0
  9 13  1  0
 10 14  1  0
 11 17  1  0
 12 18  1  0
 13 15  2  0
 14 16  2  0
 15 16  1  0
M  END
>  <PUBCHEM_COMPOUND_CID>  (1) 
43239

>  <PUBCHEM_CONFORMER_RMSD>  (1) 
0.8

>  <PUBCHEM_CONFORMER_DIVERSEORDER>  (1) 
1
101
68
78
34
64
59
81
110
21
108
76
14
10
48
6
50
102
96
27
97
11
30
69
67
52
15
18
80
42
54
107
92
99
75
79
49
5
93
95
7
51
17
36
84
40
89
31
88
26
43
29
19
82
24
87
72
23
90
74
58
37
56
63
77
28
20
98
106
13
35
103
39
86
55
83
70
53
38
94
8
33
47
44
109
9
22
104
73
32
4
57
85
45
100
41
62
71
60
12
2
105
46
66
91
16
25
61
3
65

>  <PUBCHEM_MMFF94_PARTIAL_CHARGES>  (1) 
19
1 -0.18
10 -0.15
11 0.28
12 0.28
13 -0.15
14 0.1
15 0.18
16 0.18
19 0.23
2 -0.18
20 0.15
25 0.15
3 -0.33
4 -0.68
5 1.49
6 -0.35
7 -0.55
8 -0.55
9 0.08

>  <PUBCHEM_EFFECTIVE_ROTOR_COUNT>  (1) 
7

>  <PUBCHEM_PHARMACOPHORE_FEATURES>  (1) 
2
1 19 hydrophobe
6 9 10 13 14 15 16 rings

>  <PUBCHEM_HEAVY_ATOM_COUNT>  (1) 
19

>  <PUBCHEM_ATOM_DEF_STEREO_COUNT>  (1) 
0

>  <PUBCHEM_ATOM_UDEF_STEREO_COUNT>  (1) 
0

>  <PUBCHEM_BOND_DEF_STEREO_COUNT>  (1) 
0

>  <PUBCHEM_BOND_UDEF_STEREO_COUNT>  (1) 
0

>  <PUBCHEM_ISOTOPIC_ATOM_COUNT>  (1) 
0

>  <PUBCHEM_COMPONENT_COUNT>  (1) 
1

>  <PUBCHEM_CACTVS_TAUTO_COUNT>  (1) 
1

>  <PUBCHEM_CONFORMER_ID>  (1) 
0000A8E700000001

>  <PUBCHEM_MMFF94_ENERGY>  (1) 
33.3809

>  <PUBCHEM_FEATURE_SELFOVERLAP>  (1) 
10.148

>  <PUBCHEM_SHAPE_FINGERPRINT>  (1) 
10608611 8 18412260657489949280
11405975 8 18342745134630962315
12403259 226 18410009918628060061
12633257 1 18129960987197652291
13134695 92 17273960377543238288
13140716 1 18411428336352865491
13583140 156 18343013406935824502
14223421 5 18339357582081325208
14866123 147 16685141964784028674
15042514 8 18335430071440692283
17492 89 18338516447043979178
17802600 8 18409449146317840981
17804303 29 18336551499605525902
20600515 1 17914623757049741632
20681677 274 18411981390163352042
21524375 3 18044666295701225145
221490 88 18411425046181063282
23557571 272 18123199153848257165
23558518 356 18260835911959933707
23559900 14 18341889701630987770
2748010 2 18194962075039443651
3084891 72 17763458414042239338
3286 77 18410857629197552852
350125 39 18263651679871802441
5104073 3 18340493369356480899
559249 180 17972316209827213626
58051976 100 18341618113569006047
59755656 215 18340769346928019536
621550 34 18125152998732414104
7364860 26 18341896329176787138
81228 2 18188499098151428129
9709674 26 18337392759103037130
9981440 41 17466243224338149444

>  <PUBCHEM_SHAPE_MULTIPOLES>  (1) 
388.69
8.89
4.03
1.25
1.7
1.25
-0.68
-3.81
0.78
1.01
0.64
0.84
0.93
1.66

>  <PUBCHEM_SHAPE_SELFOVERLAP>  (1) 
720.606

>  <PUBCHEM_SHAPE_VOLUME>  (1) 
249.2

>  <PUBCHEM_COORDINATE_TYPE>  (1) 
2
5
10

$$$$
