43237
     RDKit          3D

 34 39  0  0  0  0  0  0  0  0999 V2000
   -4.6489    2.4527    1.5638 O   0  0  0  0  0  0  0  0  0  0  0  0
    4.6476    2.4548   -1.5636 O   0  0  0  0  0  0  0  0  0  0  0  0
   -4.6475   -2.4546   -1.5638 O   0  0  0  0  0  0  0  0  0  0  0  0
    4.6488   -2.4527    1.5637 O   0  0  0  0  0  0  0  0  0  0  0  0
   -0.7033   -0.0002    0.0005 C   0  0  0  0  0  0  0  0  0  0  0  0
    0.7034    0.0002    0.0005 C   0  0  0  0  0  0  0  0  0  0  0  0
   -1.3684    1.2484    0.3075 C   0  0  0  0  0  0  0  0  0  0  0  0
    1.3678    1.2490   -0.3068 C   0  0  0  0  0  0  0  0  0  0  0  0
   -1.3678   -1.2490   -0.3068 C   0  0  0  0  0  0  0  0  0  0  0  0
    1.3684   -1.2484    0.3076 C   0  0  0  0  0  0  0  0  0  0  0  0
   -0.6825    2.4846    0.2015 C   0  0  0  0  0  0  0  0  0  0  0  0
    0.6812    2.4849   -0.2016 C   0  0  0  0  0  0  0  0  0  0  0  0
   -0.6812   -2.4850   -0.2015 C   0  0  0  0  0  0  0  0  0  0  0  0
    0.6826   -2.4846    0.2016 C   0  0  0  0  0  0  0  0  0  0  0  0
   -2.6993    1.2983    0.8080 C   0  0  0  0  0  0  0  0  0  0  0  0
    2.6988    1.2997   -0.8070 C   0  0  0  0  0  0  0  0  0  0  0  0
   -2.6988   -1.2995   -0.8071 C   0  0  0  0  0  0  0  0  0  0  0  0
    2.6993   -1.2984    0.8079 C   0  0  0  0  0  0  0  0  0  0  0  0
   -1.3989    3.6811    0.4917 C   0  0  0  0  0  0  0  0  0  0  0  0
    1.3967    3.6817   -0.4926 C   0  0  0  0  0  0  0  0  0  0  0  0
   -1.3969   -3.6816   -0.4923 C   0  0  0  0  0  0  0  0  0  0  0  0
    1.3990   -3.6811    0.4917 C   0  0  0  0  0  0  0  0  0  0  0  0
   -3.3722    2.4841    1.0979 C   0  0  0  0  0  0  0  0  0  0  0  0
    3.3709    2.4857   -1.0976 C   0  0  0  0  0  0  0  0  0  0  0  0
   -3.3709   -2.4858   -1.0974 C   0  0  0  0  0  0  0  0  0  0  0  0
    3.3721   -2.4844    1.0978 C   0  0  0  0  0  0  0  0  0  0  0  0
   -2.7228    3.6846    0.9223 C   0  0  0  0  0  0  0  0  0  0  0  0
    2.7206    3.6860   -0.9229 C   0  0  0  0  0  0  0  0  0  0  0  0
   -2.7207   -3.6859   -0.9226 C   0  0  0  0  0  0  0  0  0  0  0  0
    2.7227   -3.6848    0.9221 C   0  0  0  0  0  0  0  0  0  0  0  0
   -5.2666    3.7062    1.8550 C   0  0  0  0  0  0  0  0  0  0  0  0
    5.2645    3.7086   -1.8558 C   0  0  0  0  0  0  0  0  0  0  0  0
   -5.2644   -3.7083   -1.8564 C   0  0  0  0  0  0  0  0  0  0  0  0
    5.2669   -3.7062    1.8549 C   0  0  0  0  0  0  0  0  0  0  0  0
  1 23  1  0
  1 31  1  0
  2 24  1  0
  2 32  1  0
  3 25  1  0
  3 33  1  0
  4 26  1  0
  4 34  1  0
  5  6  2  0
  5  7  1  0
  5  9  1  0
  6  8  1  0
  6 10  1  0
  7 11  1  0
  7 15  2  0
  8 12  2  0
  8 16  1  0
  9 13  2  0
  9 17  1  0
 10 14  2  0
 10 18  1  0
 11 12  1  0
 11 19  2  0
 12 20  1  0
 13 14  1  0
 13 21  1  0
 14 22  1  0
 15 23  1  0
 16 24  2  0
 17 25  2  0
 18 26  2  0
 19 27  1  0
 20 28  2  0
 21 29  2  0
 22 30  2  0
 23 27  2  0
 24 28  1  0
 25 29  1  0
 26 30  1  0
M  END
>  <PUBCHEM_COMPOUND_CID>  (1) 
43237

>  <PUBCHEM_CONFORMER_RMSD>  (1) 
0.8

>  <PUBCHEM_CONFORMER_DIVERSEORDER>  (1) 
1
3
2
4

>  <PUBCHEM_MMFF94_PARTIAL_CHARGES>  (1) 
36
1 -0.36
15 -0.15
16 -0.15
17 -0.15
18 -0.15
19 -0.15
2 -0.36
20 -0.15
21 -0.15
22 -0.15
23 0.08
24 0.08
25 0.08
26 0.08
27 -0.15
28 -0.15
29 -0.15
3 -0.36
30 -0.15
31 0.28
32 0.28
33 0.28
34 0.28
35 0.15
36 0.15
37 0.15
38 0.15
39 0.15
4 -0.36
40 0.15
41 0.15
42 0.15
43 0.15
44 0.15
45 0.15
46 0.15

>  <PUBCHEM_EFFECTIVE_ROTOR_COUNT>  (1) 
4

>  <PUBCHEM_PHARMACOPHORE_FEATURES>  (1) 
10
1 1 acceptor
1 2 acceptor
1 3 acceptor
1 4 acceptor
6 10 14 18 22 26 30 rings
6 5 6 7 8 11 12 rings
6 5 6 9 10 13 14 rings
6 7 11 15 19 23 27 rings
6 8 12 16 20 24 28 rings
6 9 13 17 21 25 29 rings

>  <PUBCHEM_HEAVY_ATOM_COUNT>  (1) 
34

>  <PUBCHEM_ATOM_DEF_STEREO_COUNT>  (1) 
0

>  <PUBCHEM_ATOM_UDEF_STEREO_COUNT>  (1) 
0

>  <PUBCHEM_BOND_DEF_STEREO_COUNT>  (1) 
0

>  <PUBCHEM_BOND_UDEF_STEREO_COUNT>  (1) 
0

>  <PUBCHEM_ISOTOPIC_ATOM_COUNT>  (1) 
0

>  <PUBCHEM_COMPONENT_COUNT>  (1) 
1

>  <PUBCHEM_CACTVS_TAUTO_COUNT>  (1) 
1

>  <PUBCHEM_CONFORMER_ID>  (1) 
0000A8E500000001

>  <PUBCHEM_MMFF94_ENERGY>  (1) 
195.6438

>  <PUBCHEM_FEATURE_SELFOVERLAP>  (1) 
50.862

>  <PUBCHEM_SHAPE_FINGERPRINT>  (1) 
10006869 2 18339095868908637379
10165383 225 17609200600578355423
10190108 129 17901419945139017393
10190206 1 18194692681310378316
10411042 1 18338497699422275554
10675989 125 17906166605118213869
1100329 8 18338517434790576195
11445158 3 17971764271932218757
12293681 160 17977100493803260558
12440605 4 18338534017844033699
12788726 201 18125163989485068112
13140716 1 17618222149049254371
13540713 5 18410855460128161792
13757389 114 17981612568023728670
140371 6 18338500993656858382
14114211 68 17680150960421024654
14117953 113 17835241139090673605
14395042 24 18337092510903085315
14400156 260 18341907320224938067
14400156 266 18340759369692422902
14400156 350 17905342727649944149
14705955 166 17555438880565190952
14790565 3 18338536186618563489
14866123 147 18197234721838763848
14931854 50 18122062267172303692
14955137 171 17974023747258480794
15351339 4 17832976522524539931
15420108 30 18340210695799128600
15927050 60 18340786869935632188
18365409 1 17841971323121502869
18681886 176 17834130649499816158
19319366 153 17832415775963448215
1979834 28 17478623313044830521
20642791 13 18126859423942290556
20642791 268 17407130863462401937
20739085 24 17404880145626202609
21033648 29 17480274800494009040
21344244 78 18052506006507068955
21583282 1 17896625928070719621
21796203 349 17759279235112639848
22113638 7 18049721823794685109
23536364 44 18126001809483590901
25019877 29 17413568581051287366
25147074 1 18410575088958046211
255183 313 17765977425178180602
283562 15 17978235185640377668
469060 322 17545294408033995533
563151 97 18189904290960032300
7399639 24 17114659614699612027
9709674 26 16250536470052601814
9982175 49 18337388223769922981

>  <PUBCHEM_SHAPE_MULTIPOLES>  (1) 
676.23
9.59
8
1.61
0
0
0
0
0
0
-0.01
0
0
-8.97

>  <PUBCHEM_SHAPE_SELFOVERLAP>  (1) 
1540.836

>  <PUBCHEM_SHAPE_VOLUME>  (1) 
354.1

>  <PUBCHEM_COORDINATE_TYPE>  (1) 
2
5
10

$$$$
