43232
     RDKit          3D

 24 26  0  0  1  0  0  0  0  0999 V2000
    0.3692   -1.3180   -0.8707 O   0  0  0  0  0  0  0  0  0  0  0  0
    1.3435   -2.1994    1.0207 O   0  0  0  0  0  0  0  0  0  0  0  0
    4.1119   -1.9999    1.0768 O   0  0  0  0  0  0  0  0  0  0  0  0
   -2.7913    0.4774   -0.0335 N   0  0  0  0  0  0  0  0  0  0  0  0
   -3.2038   -0.5099   -1.1108 C   0  0  0  0  0  0  0  0  0  0  0  0
   -2.6144   -0.5904    1.2124 C   0  0  0  0  0  0  0  0  0  0  0  0
   -4.3060   -1.3443   -0.3981 C   0  0  0  0  0  0  0  0  0  0  0  0
   -4.0738   -1.1516    1.1306 C   0  0  0  0  0  0  0  0  0  0  0  0
   -1.9424   -1.3322   -1.5117 C   0  0  0  0  0  0  0  0  0  0  0  0
   -1.1265   -1.0356    1.0174 C   0  0  0  0  0  0  0  0  0  0  0  0
   -3.7575    1.6597    0.1719 C   0  0  0  0  0  0  0  0  0  0  0  0
   -0.9211   -1.7189   -0.3870 C   0  0  0  0  0  0  0  0  0  0  0  0
   -1.4575    1.1980   -0.3888 C   0  0  0  0  0  0  0  0  0  0  0  0
   -3.8778    2.4176   -1.1404 C   0  0  0  0  0  0  0  0  0  0  0  0
   -3.2194    2.5327    1.2942 C   0  0  0  0  0  0  0  0  0  0  0  0
    1.4220   -1.6246   -0.0575 C   0  0  0  0  0  0  0  0  0  0  0  0
    2.7168   -1.1336   -0.6989 C   0  0  0  0  0  0  0  0  0  0  0  0
    3.8819   -2.0619   -0.3276 C   0  0  0  0  0  0  0  0  0  0  0  0
    2.9926    0.3158   -0.3311 C   0  0  0  0  0  0  0  0  0  0  0  0
    3.6818    1.1123   -1.2237 C   0  0  0  0  0  0  0  0  0  0  0  0
    2.5456    0.7938    0.8846 C   0  0  0  0  0  0  0  0  0  0  0  0
    3.9348    2.4420   -0.8865 C   0  0  0  0  0  0  0  0  0  0  0  0
    2.7985    2.1235    1.2216 C   0  0  0  0  0  0  0  0  0  0  0  0
    3.4932    2.9475    0.3360 C   0  0  0  0  0  0  0  0  0  0  0  0
  1 12  1  0
  1 16  1  0
  2 16  2  0
  3 18  1  0
  4  5  1  0
  4  6  1  0
  4 11  1  0
  4 13  1  0
  5  7  1  0
  5  9  1  0
  6  8  1  0
  6 10  1  0
  7  8  1  0
  9 12  1  0
 10 12  1  0
 11 14  1  0
 11 15  1  0
 16 17  1  0
 17 18  1  0
 17 19  1  0
 19 20  2  0
 19 21  1  0
 20 22  1  0
 21 23  2  0
 22 24  2  0
 23 24  1  0
M  CHG  1   4   1
M  END
>  <PUBCHEM_COMPOUND_CID>  (1) 
43232

>  <PUBCHEM_CONFORMER_RMSD>  (1) 
0.8

>  <PUBCHEM_CONFORMER_DIVERSEORDER>  (1) 
1
36
24
34
31
37
30
45
25
17
23
22
32
27
15
43
10
7
21
40
33
5
16
46
38
41
2
14
19
11
35
6
44
13
18
9
39
12
8
4
26
20
3
42
28
29

>  <PUBCHEM_MMFF94_PARTIAL_CHARGES>  (1) 
24
1 -0.43
11 0.5
12 0.28
13 0.5
16 0.66
17 0.2
18 0.28
19 -0.14
2 -0.57
20 -0.15
21 -0.15
22 -0.15
23 -0.15
24 -0.15
3 -0.68
4 -1.01
49 0.15
5 0.5
50 0.15
51 0.4
52 0.15
53 0.15
54 0.15
6 0.5

>  <PUBCHEM_EFFECTIVE_ROTOR_COUNT>  (1) 
7.2

>  <PUBCHEM_PHARMACOPHORE_FEATURES>  (1) 
7
1 2 acceptor
1 3 acceptor
1 3 donor
1 4 cation
3 11 14 15 hydrophobe
6 19 20 21 22 23 24 rings
8 4 5 6 7 8 9 10 12 rings

>  <PUBCHEM_HEAVY_ATOM_COUNT>  (1) 
24

>  <PUBCHEM_ATOM_DEF_STEREO_COUNT>  (1) 
2

>  <PUBCHEM_ATOM_UDEF_STEREO_COUNT>  (1) 
1

>  <PUBCHEM_BOND_DEF_STEREO_COUNT>  (1) 
0

>  <PUBCHEM_BOND_UDEF_STEREO_COUNT>  (1) 
0

>  <PUBCHEM_ISOTOPIC_ATOM_COUNT>  (1) 
0

>  <PUBCHEM_COMPONENT_COUNT>  (1) 
1

>  <PUBCHEM_CACTVS_TAUTO_COUNT>  (1) 
1

>  <PUBCHEM_CONFORMER_ID>  (1) 
0000A8E000000001

>  <PUBCHEM_MMFF94_ENERGY>  (1) 
137.5312

>  <PUBCHEM_FEATURE_SELFOVERLAP>  (1) 
35.524

>  <PUBCHEM_SHAPE_FINGERPRINT>  (1) 
10366900 7 18266464397734158952
10498660 4 18196930200167497004
10670039 82 18262249931617480068
10764073 3 10374201859110265613
11405975 8 18336828589446890817
11615756 256 18409455786163506052
12173636 292 18342171211041569359
12403259 118 18341044121365150571
12403260 363 18412535501090194583
12403814 3 18202003248703895867
12422481 6 18193246699709268616
12507557 5 18342452591291232650
12633257 1 18191589644452640329
13140716 1 18338518534397474465
13224815 77 18334856142727286293
13583140 156 17970638385474260419
14251764 38 18411417280716772105
14466204 15 18120364372623006394
14787075 74 17973163113090293963
14840074 17 18127983099466705415
14848178 96 18335136471032644853
14866123 147 15887431920482869002
15163728 17 17535496991074620452
15238133 3 18045507404790023534
15295992 7 18187937126933553307
17492 89 18341894086619114855
17868525 174 18117268152142156986
18335252 114 17763170351071578541
19078846 21 18264202509538433882
19930381 70 17982444099282761305
20681677 76 18409164402939557391
20691752 17 17531247231691520316
20715895 44 17982728572194351041
21033648 29 17241603919138221069
21475661 188 17898847951102974837
21503847 285 18334860468112898174
21709351 56 18340767040055821830
21864079 5 18343021107527420876
221357 26 18059867211053037436
22393880 68 18202006572792169132
22749437 52 18410287042729358700
23227448 37 18127975410926612847
23557571 272 17533228693531986667
23559900 14 18264765476318380818
312423 11 18411141324582814371
350125 39 18411423894765382614
469060 322 17616819167965445371
474 4 18186800330868565524
5048184 11 18412547634351869284
5104073 3 18335143076707644561
5252454 2 18200321055499654536
5281201 14 18341901770467951526
5895379 119 17702672029928712520
633830 44 18261108556431337503
7097593 13 17974562507582005931
7808743 9 17831868215479416620
84936 182 18341330089241396378
9981440 41 18051118487683729186

>  <PUBCHEM_SHAPE_MULTIPOLES>  (1) 
471.32
9.69
3.35
1.4
0.45
1.45
0.04
2.75
-0.32
1.5
0.24
-0.34
0.1
-0.22

>  <PUBCHEM_SHAPE_SELFOVERLAP>  (1) 
980.218

>  <PUBCHEM_SHAPE_VOLUME>  (1) 
267.5

>  <PUBCHEM_COORDINATE_TYPE>  (1) 
2
5
10

$$$$
