43247
     RDKit          3D

 21 22  0  0  0  0  0  0  0  0999 V2000
    4.2820   -0.1594   -0.5733 O   0  0  0  0  0  0  0  0  0  0  0  0
    2.8058   -2.4250    0.0223 O   0  0  0  0  0  0  0  0  0  0  0  0
    3.1272    2.3425   -0.2950 O   0  0  0  0  0  0  0  0  0  0  0  0
   -4.0608   -0.9188   -0.9721 O   0  0  0  0  0  0  0  0  0  0  0  0
   -1.4040    1.3481    1.7650 O   0  0  0  0  0  0  0  0  0  0  0  0
   -1.8766   -0.7607    0.9244 N   0  0  0  0  0  0  0  0  0  0  0  0
    0.3543    0.1924    0.7300 C   0  0  0  0  0  0  0  0  0  0  0  0
    2.9924   -0.0437   -0.1461 C   0  0  0  0  0  0  0  0  0  0  0  0
    2.2518   -1.1872    0.1535 C   0  0  0  0  0  0  0  0  0  0  0  0
    2.4138    1.2180   -0.0075 C   0  0  0  0  0  0  0  0  0  0  0  0
    0.9327   -1.0692    0.5914 C   0  0  0  0  0  0  0  0  0  0  0  0
    1.0947    1.3360    0.4305 C   0  0  0  0  0  0  0  0  0  0  0  0
   -3.2737   -0.7792    1.2939 C   0  0  0  0  0  0  0  0  0  0  0  0
   -1.0211    0.3155    1.1871 C   0  0  0  0  0  0  0  0  0  0  0  0
   -4.1526   -0.2530    0.1906 C   0  0  0  0  0  0  0  0  0  0  0  0
   -5.0283    0.7747    0.1445 C   0  0  0  0  0  0  0  0  0  0  0  0
   -5.5416    0.7600   -1.1743 C   0  0  0  0  0  0  0  0  0  0  0  0
   -4.9220   -0.2886   -1.8135 C   0  0  0  0  0  0  0  0  0  0  0  0
    5.2974   -0.1603    0.4276 C   0  0  0  0  0  0  0  0  0  0  0  0
    2.6649   -3.0671   -1.2434 C   0  0  0  0  0  0  0  0  0  0  0  0
    3.0638    2.8250   -1.6355 C   0  0  0  0  0  0  0  0  0  0  0  0
  1  8  1  0
  1 19  1  0
  2  9  1  0
  2 20  1  0
  3 10  1  0
  3 21  1  0
  4 15  1  0
  4 18  1  0
  5 14  2  0
  6 13  1  0
  6 14  1  0
  7 11  2  0
  7 12  1  0
  7 14  1  0
  8  9  2  0
  8 10  1  0
  9 11  1  0
 10 12  2  0
 13 15  1  0
 15 16  2  0
 16 17  1  0
 17 18  2  0
M  END
>  <PUBCHEM_COMPOUND_CID>  (1) 
43247

>  <PUBCHEM_CONFORMER_RMSD>  (1) 
0.8

>  <PUBCHEM_CONFORMER_DIVERSEORDER>  (1) 
1
25
34
42
30
8
21
24
40
38
20
15
33
14
18
10
17
27
9
19
39
26
7
31
29
28
32
37
6
23
11
4
16
5
12
36
41
13
3
22
35
2

>  <PUBCHEM_MMFF94_PARTIAL_CHARGES>  (1) 
27
1 -0.36
10 0.08
11 -0.15
12 -0.15
13 0.48
14 0.54
15 -0.04
16 -0.15
17 -0.15
18 -0.01
19 0.28
2 -0.36
20 0.28
21 0.28
22 0.15
23 0.15
26 0.37
27 0.15
28 0.15
29 0.15
3 -0.36
4 -0.28
5 -0.57
6 -0.73
7 0.09
8 0.08
9 0.08

>  <PUBCHEM_EFFECTIVE_ROTOR_COUNT>  (1) 
7

>  <PUBCHEM_PHARMACOPHORE_FEATURES>  (1) 
8
1 1 acceptor
1 2 acceptor
1 3 acceptor
1 4 acceptor
1 5 acceptor
1 6 donor
5 4 15 16 17 18 rings
6 7 8 9 10 11 12 rings

>  <PUBCHEM_HEAVY_ATOM_COUNT>  (1) 
21

>  <PUBCHEM_ATOM_DEF_STEREO_COUNT>  (1) 
0

>  <PUBCHEM_ATOM_UDEF_STEREO_COUNT>  (1) 
0

>  <PUBCHEM_BOND_DEF_STEREO_COUNT>  (1) 
0

>  <PUBCHEM_BOND_UDEF_STEREO_COUNT>  (1) 
0

>  <PUBCHEM_ISOTOPIC_ATOM_COUNT>  (1) 
0

>  <PUBCHEM_COMPONENT_COUNT>  (1) 
1

>  <PUBCHEM_CACTVS_TAUTO_COUNT>  (1) 
2

>  <PUBCHEM_CONFORMER_ID>  (1) 
0000A8EF00000001

>  <PUBCHEM_MMFF94_ENERGY>  (1) 
75.2654

>  <PUBCHEM_FEATURE_SELFOVERLAP>  (1) 
40.608

>  <PUBCHEM_SHAPE_FINGERPRINT>  (1) 
10498660 4 17096069347882378893
11069576 57 17988355962445935414
11796584 16 15985099730802530143
12236239 1 17704069590342339687
12390115 104 8860642614461453978
12553582 1 16988293061811515187
12616971 3 18201450189674814929
13836976 161 18341613737229115286
14251757 17 17822560608789206597
14252887 29 12247683768234200218
14576447 43 17988920067729311915
15342816 4 16773790420416599153
15537594 2 17561085821918841903
15842332 3 17701845226806193793
17349148 13 18411697677708971792
17818456 19 17342953533647642417
17980427 26 16807276150589341504
18186145 218 17821730520638892883
200 152 18202283597855512105
20567600 299 17970914585999991197
20645477 56 17313105263677151011
20645477 70 18409739473069421530
21054139 6 17917702543751771958
21709351 56 18261113031882179598
221357 26 18335974291015102141
22289505 5 18187642475297839260
23402539 116 17918276437228810473
23402655 69 18410572864592378361
23557571 272 17386297583600490139
23559900 14 18410012147953353666
3004659 81 18201432541654403287
3009799 131 18186798076638605920
312425 54 10879716554885527133
316301 35 13254804533392981877
339767 52 16988835082078073239
4072396 5 18334282164120912018
46194498 28 18333448738158796677
5281201 14 18113904853541872591
53917941 68 17839177768759558012
59682541 52 18271225163767532413
602551 16 15051728707259894135
633830 44 17385998550222382480
7164475 11 18129381492830221017
7471813 234 18131632262078680112
960060 61 18202279208646907181

>  <PUBCHEM_SHAPE_MULTIPOLES>  (1) 
397.84
11.83
2.44
1.48
10.68
0.12
-0.24
-0.74
-4.24
-3.68
-1.15
1.13
-0.14
-0.14

>  <PUBCHEM_SHAPE_SELFOVERLAP>  (1) 
841.592

>  <PUBCHEM_SHAPE_VOLUME>  (1) 
224.7

>  <PUBCHEM_COORDINATE_TYPE>  (1) 
2
5
10

$$$$
