43241
     RDKit          3D

 13 12  0  0  0  0  0  0  0  0999 V2000
   -5.8382   -1.1020    0.9809 Cl  0  0  0  0  0  0  0  0  0  0  0  0
   -4.0385    1.5394    0.0476 O   0  0  0  0  0  0  0  0  0  0  0  0
    6.0366    0.6530    0.2484 O   0  0  0  0  0  0  0  0  0  0  0  0
    5.0776   -1.3454   -0.2419 O   0  0  0  0  0  0  0  0  0  0  0  0
   -0.1253   -0.3315   -0.2016 C   0  0  0  0  0  0  0  0  0  0  0  0
    1.1237    0.5012    0.1060 C   0  0  0  0  0  0  0  0  0  0  0  0
   -1.4327    0.4545   -0.0543 C   0  0  0  0  0  0  0  0  0  0  0  0
    2.4329   -0.2738   -0.0793 C   0  0  0  0  0  0  0  0  0  0  0  0
   -2.6628   -0.4187   -0.3023 C   0  0  0  0  0  0  0  0  0  0  0  0
    3.6637    0.5844    0.2191 C   0  0  0  0  0  0  0  0  0  0  0  0
   -3.9776    0.3432   -0.2355 C   0  0  0  0  0  0  0  0  0  0  0  0
    4.9681   -0.1633    0.0519 C   0  0  0  0  0  0  0  0  0  0  0  0
   -5.2276   -0.4410   -0.5388 C   0  0  0  0  0  0  0  0  0  0  0  0
  1 13  1  0
  2 11  2  0
  3 12  1  0
  4 12  2  0
  5  6  1  0
  5  7  1  0
  6  8  1  0
  7  9  1  0
  8 10  1  0
  9 11  1  0
 10 12  1  0
 11 13  1  0
M  END
>  <PUBCHEM_COMPOUND_CID>  (1) 
43241

>  <PUBCHEM_CONFORMER_RMSD>  (1) 
0.8

>  <PUBCHEM_CONFORMER_DIVERSEORDER>  (1) 
1
97
258
307
365
154
52
39
250
132
362
115
199
255
5
26
56
58
7
291
272
137
112
337
213
349
331
43
94
253
282
316
318
279
200
53
321
162
254
14
217
127
173
170
76
87
234
12
88
300
4
121
263
67
19
352
33
336
37
135
260
305
48
61
17
357
288
327
18
354
113
117
210
54
142
270
34
236
89
128
63
189
124
289
30
65
83
13
320
120
40
343
59
310
290
297
319
238
9
248
196
261
81
22
38
131
74
271
71
194
268
160
325
294
46
159
106
122
225
181
332
96
8
351
233
11
100
241
239
287
183
215
151
49
25
36
75
242
278
29
85
69
206
246
281
98
329
45
10
20
222
198
80
264
201
340
153
16
269
315
342
186
140
256
139
184
165
2
95
298
280
24
240
126
185
193
221
252
224
292
134
119
182
211
312
6
79
267
99
335
322
23
102
245
107
355
42
118
237
244
84
266
90
15
276
296
101
301
141
150
197
44
295
86
3
339
138
216
356
212
175
360
262
133
171
203
161
47
147
156
293
192
130
350
148
247
143
116
68
188
334
174
125
274
361
163
249
304
180
345
275
363
157
190
299
110
333
31
326
32
208
306
344
207
73
78
149
27
179
41
209
66
92
70
111
105
346
284
359
21
314
220
226
176
353
313
214
72
358
257
178
303
60
108
341
177
35
55
259
286
57
230
308
93
277
103
283
265
109
167
285
324
123
328
191
50
273
330
114
243
129
311
28
223
64
136
202
51
155
164
309
104
219
323
317
338
62
347
82
146
251
187
364
152
169
158
235
195
348
302
168
204
227
172
229
91
144
228
218
145
231
166
205
232
77

>  <PUBCHEM_MMFF94_PARTIAL_CHARGES>  (1) 
10
1 -0.29
10 0.06
11 0.45
12 0.66
13 0.35
2 -0.57
28 0.5
3 -0.65
4 -0.57
9 0.06

>  <PUBCHEM_EFFECTIVE_ROTOR_COUNT>  (1) 
8

>  <PUBCHEM_PHARMACOPHORE_FEATURES>  (1) 
6
1 2 acceptor
1 3 acceptor
1 4 acceptor
3 3 4 12 anion
3 5 7 9 hydrophobe
3 6 8 10 hydrophobe

>  <PUBCHEM_HEAVY_ATOM_COUNT>  (1) 
13

>  <PUBCHEM_ATOM_DEF_STEREO_COUNT>  (1) 
0

>  <PUBCHEM_ATOM_UDEF_STEREO_COUNT>  (1) 
0

>  <PUBCHEM_BOND_DEF_STEREO_COUNT>  (1) 
0

>  <PUBCHEM_BOND_UDEF_STEREO_COUNT>  (1) 
0

>  <PUBCHEM_ISOTOPIC_ATOM_COUNT>  (1) 
0

>  <PUBCHEM_COMPONENT_COUNT>  (1) 
1

>  <PUBCHEM_CACTVS_TAUTO_COUNT>  (1) 
3

>  <PUBCHEM_CONFORMER_ID>  (1) 
0000A8E900000001

>  <PUBCHEM_MMFF94_ENERGY>  (1) 
6.8392

>  <PUBCHEM_FEATURE_SELFOVERLAP>  (1) 
30.504

>  <PUBCHEM_SHAPE_FINGERPRINT>  (1) 
11287383 113 18333733541555735016
12091667 2 18272930527302282133
13533116 47 17060342886391248366
14123238 8 15213018245470923946
1420 363 18333735727810321667
14251718 22 17821446876186765163
14251732 16 18187929537794776264
17834072 33 18272366494811367404
17834076 25 18410291419263596812
19433438 28 18411696599704107961
20621476 66 12252443511971152487
20621476 8 7925367245938454895
20645477 70 18272652291053179510
20767249 13 15502373430623596421
220451 1 17060338539414411302
22896161 15 18261394502357993090
23402539 116 17846210056014907485
300161 21 10879994636115497013
42788 4 18412824681575344228
57483677 66 18408318886908812899

>  <PUBCHEM_SHAPE_MULTIPOLES>  (1) 
251.8
16.16
1.09
0.73
5.01
0.01
0.05
-2.66
1.6
-0.48
0.07
-0.58
-0.09
0.61

>  <PUBCHEM_SHAPE_SELFOVERLAP>  (1) 
459.382

>  <PUBCHEM_SHAPE_VOLUME>  (1) 
159.6

>  <PUBCHEM_COORDINATE_TYPE>  (1) 
2
5
10

$$$$
