43255
     RDKit          3D

 15 17  0  0  0  0  0  0  0  0999 V2000
    3.5927   -1.9857   -0.0008 Cl  0  0  0  0  0  0  0  0  0  0  0  0
   -4.6761    1.1313   -0.0011 Cl  0  0  0  0  0  0  0  0  0  0  0  0
    0.5149   -1.4996    0.0003 O   0  0  0  0  0  0  0  0  0  0  0  0
   -0.7427    0.3799    0.0002 C   0  0  0  0  0  0  0  0  0  0  0  0
    0.6317    0.7588    0.0001 C   0  0  0  0  0  0  0  0  0  0  0  0
   -0.7566   -1.0115    0.0002 C   0  0  0  0  0  0  0  0  0  0  0  0
    1.3567   -0.4287    0.0001 C   0  0  0  0  0  0  0  0  0  0  0  0
   -1.9739    1.0611    0.0003 C   0  0  0  0  0  0  0  0  0  0  0  0
    1.3398    1.9748    0.0002 C   0  0  0  0  0  0  0  0  0  0  0  0
   -1.9184   -1.7817    0.0004 C   0  0  0  0  0  0  0  0  0  0  0  0
    2.7489   -0.4947   -0.0002 C   0  0  0  0  0  0  0  0  0  0  0  0
   -3.1592    0.3134    0.0000 C   0  0  0  0  0  0  0  0  0  0  0  0
    2.7407    1.9401    0.0003 C   0  0  0  0  0  0  0  0  0  0  0  0
   -3.1291   -1.0831    0.0003 C   0  0  0  0  0  0  0  0  0  0  0  0
    3.4306    0.7257   -0.0002 C   0  0  0  0  0  0  0  0  0  0  0  0
  1 11  1  0
  2 12  1  0
  3  6  1  0
  3  7  1  0
  4  5  1  0
  4  6  2  0
  4  8  1  0
  5  7  2  0
  5  9  1  0
  6 10  1  0
  7 11  1  0
  8 12  2  0
  9 13  2  0
 10 14  2  0
 11 15  2  0
 12 14  1  0
 13 15  1  0
M  END
>  <PUBCHEM_COMPOUND_CID>  (1) 
43255

>  <PUBCHEM_CONFORMER_RMSD>  (1) 
0.4

>  <PUBCHEM_CONFORMER_DIVERSEORDER>  (1) 
1

>  <PUBCHEM_MMFF94_PARTIAL_CHARGES>  (1) 
19
1 -0.18
10 -0.15
11 0.18
12 0.18
13 -0.15
14 -0.15
15 -0.15
16 0.15
17 0.15
18 0.15
19 0.15
2 -0.18
20 0.15
21 0.15
3 -0.28
6 0.14
7 0.14
8 -0.15
9 -0.15

>  <PUBCHEM_EFFECTIVE_ROTOR_COUNT>  (1) 
0

>  <PUBCHEM_PHARMACOPHORE_FEATURES>  (1) 
4
1 3 acceptor
5 3 4 5 6 7 rings
6 4 6 8 10 12 14 rings
6 5 7 9 11 13 15 rings

>  <PUBCHEM_HEAVY_ATOM_COUNT>  (1) 
15

>  <PUBCHEM_ATOM_DEF_STEREO_COUNT>  (1) 
0

>  <PUBCHEM_ATOM_UDEF_STEREO_COUNT>  (1) 
0

>  <PUBCHEM_BOND_DEF_STEREO_COUNT>  (1) 
0

>  <PUBCHEM_BOND_UDEF_STEREO_COUNT>  (1) 
0

>  <PUBCHEM_ISOTOPIC_ATOM_COUNT>  (1) 
0

>  <PUBCHEM_COMPONENT_COUNT>  (1) 
1

>  <PUBCHEM_CACTVS_TAUTO_COUNT>  (1) 
1

>  <PUBCHEM_CONFORMER_ID>  (1) 
0000A8F700000001

>  <PUBCHEM_MMFF94_ENERGY>  (1) 
29.0295

>  <PUBCHEM_FEATURE_SELFOVERLAP>  (1) 
20.499

>  <PUBCHEM_SHAPE_FINGERPRINT>  (1) 
10062212 137 18201147802486742951
10411042 1 17041761986138330799
10608611 8 18338514248094024337
10967382 1 18410855447285490404
10980938 120 18338517546913465000
11132069 177 18410849971165362345
11471102 20 18410852140234629589
116883 192 18055923099840890244
12032990 46 18338521841685828982
12251169 10 18409727348392302632
12932764 1 17488743530929280955
13140716 1 18410008844770100970
13380535 21 18336835297985307852
13380535 76 18412262835455034679
13571099 22 18343303647761437812
13922767 16 18413103948532832312
14144814 61 18410855494530117824
14178342 30 18122891295056180978
14325111 11 18410574032528168065
14897335 6 18412259566884591661
14911166 2 18339084782853935798
15196674 1 18410573998379276871
15219456 202 18410295843275168499
15442244 35 18339925913723454152
15536298 74 18342457054115466466
15775835 57 18408327713076973789
16945 1 18410575037418464646
17804303 29 18409173177320574246
18186145 218 17894906326122886679
19591789 44 16181029043069635280
200 152 17989198257614931223
20645477 70 18413388713507421367
21267235 1 18339370677304819811
21501502 16 18339358672897289511
221490 88 18336273430596215098
2334 1 18338799047227358754
23402539 116 18130214957457253765
23402655 69 18342736325700445813
23463225 33 18410292501906676230
23559900 14 18342736304504976098
25 1 18408601448685907037
2748010 2 18337955696044319198
335352 9 18338516313946634559
34934 24 18412820309425146448
5104073 3 18410293627182820979
528886 8 18411414037815503408
53812653 166 18341890844213620752
69090 78 18412821391762290359
7364860 26 18341894117257963130
74978 22 18410856581151744219
7832392 63 18412261778544920244
8809292 202 18333455330633181515
9709674 26 18337957899347328263
9981440 41 17833543879505213344

>  <PUBCHEM_SHAPE_MULTIPOLES>  (1) 
306.56
7.16
2.17
0.62
3.19
0.08
0
-0.52
0
-1.06
0
0.01
-0.01
0

>  <PUBCHEM_SHAPE_SELFOVERLAP>  (1) 
674.791

>  <PUBCHEM_SHAPE_VOLUME>  (1) 
168.4

>  <PUBCHEM_COORDINATE_TYPE>  (1) 
2
5
10

$$$$
