43253
     RDKit          3D

 21 22  0  0  0  0  0  0  0  0999 V2000
    0.5630   -2.6880    1.6437 Cl  0  0  0  0  0  0  0  0  0  0  0  0
    1.4469   -3.3624   -1.0207 Cl  0  0  0  0  0  0  0  0  0  0  0  0
   -1.3683   -3.4929   -0.3877 Cl  0  0  0  0  0  0  0  0  0  0  0  0
   -0.0069   -1.0347   -0.5960 C   0  0  0  0  0  0  0  0  0  0  0  0
    1.2193   -0.1958   -0.4681 C   0  0  0  0  0  0  0  0  0  0  0  0
   -1.2948   -0.2816   -0.1764 C   0  0  0  0  0  0  0  0  0  0  0  0
    0.1297   -2.5316   -0.0891 C   0  0  0  0  0  0  0  0  0  0  0  0
    1.6942    0.1580    0.7948 C   0  0  0  0  0  0  0  0  0  0  0  0
   -1.9054    0.5093   -1.1086 C   0  0  0  0  0  0  0  0  0  0  0  0
    1.8915    0.2352   -1.6118 C   0  0  0  0  0  0  0  0  0  0  0  0
   -1.7461   -0.4515    1.1024 C   0  0  0  0  0  0  0  0  0  0  0  0
    2.8412    0.9427    0.9141 C   0  0  0  0  0  0  0  0  0  0  0  0
   -3.0645    1.1870   -0.7306 C   0  0  0  0  0  0  0  0  0  0  0  0
    3.5133    1.3737   -0.2297 C   0  0  0  0  0  0  0  0  0  0  0  0
   -3.5642    1.0454    0.5639 C   0  0  0  0  0  0  0  0  0  0  0  0
    3.0384    1.0200   -1.4928 C   0  0  0  0  0  0  0  0  0  0  0  0
   -2.9050    0.2262    1.4804 C   0  0  0  0  0  0  0  0  0  0  0  0
    3.3310    1.3084    2.2766 C   0  0  0  0  0  0  0  0  0  0  0  0
   -3.7533    2.0581   -1.7290 C   0  0  0  0  0  0  0  0  0  0  0  0
    4.7434    2.2142   -0.1276 C   0  0  0  0  0  0  0  0  0  0  0  0
   -4.8035    1.7604    0.9920 C   0  0  0  0  0  0  0  0  0  0  0  0
  1  7  1  0
  2  7  1  0
  3  7  1  0
  4  5  1  0
  4  6  1  0
  4  7  1  0
  5  8  2  0
  5 10  1  0
  6  9  2  0
  6 11  1  0
  8 12  1  0
  9 13  1  0
 10 16  2  0
 11 17  2  0
 12 14  2  0
 12 18  1  0
 13 15  2  0
 13 19  1  0
 14 16  1  0
 14 20  1  0
 15 17  1  0
 15 21  1  0
M  END
>  <PUBCHEM_COMPOUND_CID>  (1) 
43253

>  <PUBCHEM_CONFORMER_RMSD>  (1) 
0.6

>  <PUBCHEM_CONFORMER_DIVERSEORDER>  (1) 
2
5
10
13
6
15
8
12
1
14
9
7
16
11
3
4

>  <PUBCHEM_MMFF94_PARTIAL_CHARGES>  (1) 
27
1 -0.29
10 -0.15
11 -0.15
12 -0.14
13 -0.14
14 -0.14
15 -0.14
16 -0.15
17 -0.15
18 0.14
19 0.14
2 -0.29
20 0.14
21 0.14
23 0.15
24 0.15
25 0.15
26 0.15
27 0.15
28 0.15
3 -0.29
4 0.29
5 -0.14
6 -0.14
7 0.87
8 -0.15
9 -0.15

>  <PUBCHEM_EFFECTIVE_ROTOR_COUNT>  (1) 
3

>  <PUBCHEM_PHARMACOPHORE_FEATURES>  (1) 
2
6 5 8 10 12 14 16 rings
6 6 9 11 13 15 17 rings

>  <PUBCHEM_HEAVY_ATOM_COUNT>  (1) 
21

>  <PUBCHEM_ATOM_DEF_STEREO_COUNT>  (1) 
0

>  <PUBCHEM_ATOM_UDEF_STEREO_COUNT>  (1) 
0

>  <PUBCHEM_BOND_DEF_STEREO_COUNT>  (1) 
0

>  <PUBCHEM_BOND_UDEF_STEREO_COUNT>  (1) 
0

>  <PUBCHEM_ISOTOPIC_ATOM_COUNT>  (1) 
0

>  <PUBCHEM_COMPONENT_COUNT>  (1) 
1

>  <PUBCHEM_CACTVS_TAUTO_COUNT>  (1) 
1

>  <PUBCHEM_CONFORMER_ID>  (1) 
0000A8F500000002

>  <PUBCHEM_MMFF94_ENERGY>  (1) 
70.3943

>  <PUBCHEM_FEATURE_SELFOVERLAP>  (1) 
10.149

>  <PUBCHEM_SHAPE_FINGERPRINT>  (1) 
10165383 225 18052577418695365389
11640471 11 18270098163547246999
12633257 1 16226593088065804864
12730499 353 18270136629828160291
12788726 201 17830726922045677866
12892183 10 16443059495608366305
13134695 92 17838615552596743454
13140716 1 18336552616318609115
13294875 104 18130507449062092754
13544653 18 8935000360827226604
13583140 156 17772170167451026240
13681431 1 17763744286817983038
13878862 14 17833265329929212381
14341114 328 16588603000918033397
14957384 54 18187918538742844492
17868525 174 17329721916372435273
1813 80 16982384036525414302
18186145 218 18273220780817813948
19765921 60 17989197132185852187
19862831 5 13973972021009924596
20600515 1 17113508962928306674
21033648 29 18411410722317840792
21524375 3 18335985349759187071
21731228 192 18260269680635621842
22079108 93 18060148669371735291
2255824 54 18055636105805317663
22907989 373 17909262825471670484
23419403 2 17182003834676870234
23557571 272 17986400098905848260
23558518 356 18262802998555844326
23559900 14 17242186638947015487
25 1 18059864951884246412
2748010 2 18115322063742544799
283562 15 18052813934071232799
3082319 5 15267347318312719461
350125 39 18339935873547645327
3729539 64 17977698345415843382
427121 178 18410303496732771347
4280585 95 13251752216765113420
4340502 62 18341900671652558627
469060 322 18191872438807464243
474 4 18273498978766463937
495365 180 18120081798213477405
5845 1 10248475761552258058
59755656 520 18341898510403021175
6049 1 17607821499859740813
633830 44 17988373571996230757
6442390 28 18269009703150327155
70251023 43 17911235010630948815
7097593 13 16225759709918132560
7364860 26 18124882261126509567
7808743 9 18266466588569036452
7970288 3 8790886284964479489
81228 2 17905895029872399698
84936 182 18058455296230666969
9862522 239 17967803964129372645

>  <PUBCHEM_SHAPE_MULTIPOLES>  (1) 
437.78
7.76
3.53
1.84
1.25
4.02
0.36
-8.71
0.77
-0.32
-0.4
-0.3
-0.38
0.57

>  <PUBCHEM_SHAPE_SELFOVERLAP>  (1) 
899.096

>  <PUBCHEM_SHAPE_VOLUME>  (1) 
246.9

>  <PUBCHEM_COORDINATE_TYPE>  (1) 
2
5
10

$$$$
