43269
     RDKit          3D

 14 14  0  0  0  0  0  0  0  0999 V2000
   -0.5653   -0.3488   -0.8605 O   0  0  0  0  0  0  0  0  0  0  0  0
    1.1656    2.5651   -1.0605 O   0  0  0  0  0  0  0  0  0  0  0  0
    0.3519    2.3725    1.0748 N   0  0  0  0  0  0  0  0  0  0  0  0
   -2.8803   -0.1114   -0.2972 C   0  0  0  0  0  0  0  0  0  0  0  0
   -4.0635   -0.7086    0.4593 C   0  0  0  0  0  0  0  0  0  0  0  0
   -1.6291   -0.9652   -0.1483 C   0  0  0  0  0  0  0  0  0  0  0  0
    0.7031   -0.5659   -0.3879 C   0  0  0  0  0  0  0  0  0  0  0  0
   -5.2992    0.1694    0.3436 C   0  0  0  0  0  0  0  0  0  0  0  0
    1.4988    0.4992    0.0204 C   0  0  0  0  0  0  0  0  0  0  0  0
    1.1803   -1.8709   -0.3230 C   0  0  0  0  0  0  0  0  0  0  0  0
    2.7864    0.2568    0.4988 C   0  0  0  0  0  0  0  0  0  0  0  0
    2.4680   -2.1133    0.1555 C   0  0  0  0  0  0  0  0  0  0  0  0
    3.2709   -1.0494    0.5664 C   0  0  0  0  0  0  0  0  0  0  0  0
    1.0125    1.8705   -0.0416 C   0  0  0  0  0  0  0  0  0  0  0  0
  1  6  1  0
  1  7  1  0
  2 14  2  0
  3 14  1  0
  4  5  1  0
  4  6  1  0
  5  8  1  0
  7  9  2  0
  7 10  1  0
  9 11  1  0
  9 14  1  0
 10 12  2  0
 11 13  2  0
 12 13  1  0
M  END
>  <PUBCHEM_COMPOUND_CID>  (1) 
43269

>  <PUBCHEM_CONFORMER_RMSD>  (1) 
0.6

>  <PUBCHEM_CONFORMER_DIVERSEORDER>  (1) 
1
124
87
131
102
88
107
67
95
39
91
130
127
110
112
60
62
101
61
2
86
11
135
126
99
132
19
113
115
9
109
114
72
128
74
108
111
75
50
85
17
51
93
41
49
7
133
123
96
64
120
53
45
90
22
18
116
38
44
82
119
55
57
70
37
10
33
103
30
56
104
5
134
80
84
69
66
28
121
76
47
71
25
48
77
12
100
117
4
97
21
13
52
27
59
79
83
6
26
106
89
98
24
63
36
20
65
32
15
46
14
54
31
73
125
129
122
40
81
43
92
68
42
94
3
23
105
34
8
118
78
35
16
58
29

>  <PUBCHEM_MMFF94_PARTIAL_CHARGES>  (1) 
17
1 -0.36
10 -0.15
11 -0.15
12 -0.15
13 -0.15
14 0.54
2 -0.57
24 0.15
25 0.15
26 0.15
27 0.15
28 0.37
29 0.37
3 -0.8
6 0.28
7 0.08
9 0.09

>  <PUBCHEM_EFFECTIVE_ROTOR_COUNT>  (1) 
5

>  <PUBCHEM_PHARMACOPHORE_FEATURES>  (1) 
5
1 1 acceptor
1 2 acceptor
1 3 donor
1 8 hydrophobe
6 7 9 10 11 12 13 rings

>  <PUBCHEM_HEAVY_ATOM_COUNT>  (1) 
14

>  <PUBCHEM_ATOM_DEF_STEREO_COUNT>  (1) 
0

>  <PUBCHEM_ATOM_UDEF_STEREO_COUNT>  (1) 
0

>  <PUBCHEM_BOND_DEF_STEREO_COUNT>  (1) 
0

>  <PUBCHEM_BOND_UDEF_STEREO_COUNT>  (1) 
0

>  <PUBCHEM_ISOTOPIC_ATOM_COUNT>  (1) 
0

>  <PUBCHEM_COMPONENT_COUNT>  (1) 
1

>  <PUBCHEM_CACTVS_TAUTO_COUNT>  (1) 
2

>  <PUBCHEM_CONFORMER_ID>  (1) 
0000A90500000001

>  <PUBCHEM_MMFF94_ENERGY>  (1) 
40.7034

>  <PUBCHEM_FEATURE_SELFOVERLAP>  (1) 
25.371

>  <PUBCHEM_SHAPE_FINGERPRINT>  (1) 
11680611 10 17611174963032546050
12251169 10 18411981377689997671
13922767 16 18410854352638620095
14252887 29 18342176614068287778
15501101 241 18260263074991868687
16945 1 18188756358076059190
20233049 118 17060341825032718355
20339313 130 18342181041920717327
20559304 39 18341899605793754649
20671657 1 18269276935914945749
20871998 22 18197781007603939542
21501502 16 18193837278506965255
2748010 2 18195790887383568886
81228 2 17906180555187477634

>  <PUBCHEM_SHAPE_MULTIPOLES>  (1) 
271.39
7.16
2.39
0.86
12.04
1.28
0
-1.97
-1.68
-1.91
0.08
-0.08
0.24
-0.17

>  <PUBCHEM_SHAPE_SELFOVERLAP>  (1) 
550.352

>  <PUBCHEM_SHAPE_VOLUME>  (1) 
159.1

>  <PUBCHEM_COORDINATE_TYPE>  (1) 
2
5
10

$$$$
