4327
     RDKit          3D

 29 32  0  0  0  0  0  0  0  0999 V2000
    1.3587    0.2353    0.8333 O   0  0  0  0  0  0  0  0  0  0  0  0
   -2.8515   -1.8736    0.4639 N   0  0  0  0  0  0  0  0  0  0  0  0
    1.9516   -1.8314   -0.1184 N   0  0  0  0  0  0  0  0  0  0  0  0
   -2.3114    0.3803    0.0971 N   0  0  0  0  0  0  0  0  0  0  0  0
   -4.4599   -0.2477    0.9896 N   0  0  0  0  0  0  0  0  0  0  0  0
   -0.7896    4.8554   -0.1340 N   0  0  0  0  0  0  0  0  0  0  0  0
    5.9240   -0.7096    0.3964 N   0  0  0  0  0  0  0  0  0  0  0  0
   -1.6704   -2.5229    0.0417 C   0  0  0  0  0  0  0  0  0  0  0  0
   -1.7174   -3.8082   -0.4980 C   0  0  0  0  0  0  0  0  0  0  0  0
    0.7284   -2.4905   -0.2441 C   0  0  0  0  0  0  0  0  0  0  0  0
   -0.4476   -1.8641    0.1686 C   0  0  0  0  0  0  0  0  0  0  0  0
   -0.5414   -4.4349   -0.9106 C   0  0  0  0  0  0  0  0  0  0  0  0
    0.6814   -3.7760   -0.7838 C   0  0  0  0  0  0  0  0  0  0  0  0
   -3.0132   -4.5374   -0.6441 C   0  0  0  0  0  0  0  0  0  0  0  0
   -3.2249   -0.5180    0.5192 C   0  0  0  0  0  0  0  0  0  0  0  0
   -2.7021    1.6699    0.1640 C   0  0  0  0  0  0  0  0  0  0  0  0
    2.1923   -0.5501    0.3950 C   0  0  0  0  0  0  0  0  0  0  0  0
   -1.7248    2.6306   -0.2889 C   0  0  0  0  0  0  0  0  0  0  0  0
    3.6121   -0.1105    0.3711 C   0  0  0  0  0  0  0  0  0  0  0  0
   -3.9384    2.0736    0.6253 C   0  0  0  0  0  0  0  0  0  0  0  0
   -4.7846    1.0613    1.0291 C   0  0  0  0  0  0  0  0  0  0  0  0
   -0.7995    2.3034   -1.2742 C   0  0  0  0  0  0  0  0  0  0  0  0
   -1.6777    3.9090    0.2444 C   0  0  0  0  0  0  0  0  0  0  0  0
    3.9114    1.2280    0.3071 C   0  0  0  0  0  0  0  0  0  0  0  0
    4.6137   -1.0417    0.4139 C   0  0  0  0  0  0  0  0  0  0  0  0
    0.1302    3.2501   -1.6901 C   0  0  0  0  0  0  0  0  0  0  0  0
    5.2485    1.6089    0.2871 C   0  0  0  0  0  0  0  0  0  0  0  0
    0.0936    4.5004   -1.0940 C   0  0  0  0  0  0  0  0  0  0  0  0
    6.2081    0.6106    0.3333 C   0  0  0  0  0  0  0  0  0  0  0  0
  1 17  2  0
  2  8  1  0
  2 15  1  0
  3 10  1  0
  3 17  1  0
  4 15  2  0
  4 16  1  0
  5 15  1  0
  5 21  2  0
  6 23  2  0
  6 28  1  0
  7 25  2  0
  7 29  1  0
  8  9  2  0
  8 11  1  0
  9 12  1  0
  9 14  1  0
 10 11  2  0
 10 13  1  0
 12 13  2  0
 16 18  1  0
 16 20  2  0
 17 19  1  0
 18 22  2  0
 18 23  1  0
 19 24  2  0
 19 25  1  0
 20 21  1  0
 22 26  1  0
 24 27  1  0
 26 28  2  0
 27 29  2  0
M  END
>  <PUBCHEM_COMPOUND_CID>  (1) 
4327

>  <PUBCHEM_CONFORMER_RMSD>  (1) 
0.8

>  <PUBCHEM_CONFORMER_DIVERSEORDER>  (1) 
3
179
158
264
347
188
270
342
210
26
315
360
60
334
356
54
193
266
34
235
309
66
354
220
310
128
211
228
238
221
136
339
187
293
180
116
134
357
330
212
268
58
250
283
358
7
308
226
237
249
155
302
171
113
337
216
20
359
344
145
208
361
33
254
269
324
17
280
39
103
242
267
186
168
345
336
177
150
353
273
261
227
346
252
6
320
167
289
185
307
355
162
198
37
265
282
14
340
306
362
19
263
316
230
67
236
146
349
96
243
239
160
338
101
115
106
196
57
348
176
184
318
153
35
275
285
148
5
174
327
204
131
126
240
233
199
244
140
99
1
295
241
286
351
229
118
274
173
102
40
169
137
317
305
225
301
141
323
325
2
82
79
163
287
284
363
262
83
232
72
201
331
123
209
296
110
114
281
127
69
311
172
182
206
247
312
272
144
86
292
73
314
84
245
135
304
43
104
202
253
215
279
142
290
329
30
81
343
89
36
246
321
190
97
255
257
112
80
231
65
120
341
41
108
218
313
68
109
78
350
31
45
75
298
300
94
175
352
234
124
214
53
111
90
16
64
222
139
13
276
56
76
77
87
299
47
322
191
71
15
332
149
49
107
256
328
24
224
119
277
42
223
291
44
278
297
122
303
207
195
121
194
25
50
27
161
326
133
258
200
333
4
29
288
147
132
260
259
217
38
205
156
93
98
46
130
251
88
335
159
152
178
248
294
129
170
62
143
271
100
319
219
197
55
165
70
157
61
105
91
192
18
117
125
8
181
151
21
138
189
213
92
9
203
154
164
74
166
52
63
183
48
95
51
32
12
59
85
28
23
10
22
11

>  <PUBCHEM_MMFF94_PARTIAL_CHARGES>  (1) 
43
1 -0.57
10 0.12
11 -0.15
12 -0.15
13 -0.15
14 0.14
15 0.72
16 0.31
17 0.54
19 0.09
2 -0.6
20 -0.15
21 0.16
22 -0.15
23 0.16
24 -0.15
25 0.16
26 -0.15
27 -0.15
28 0.16
29 0.16
3 -0.55
30 0.15
31 0.15
32 0.15
33 0.4
37 0.37
38 0.15
39 0.15
4 -0.62
40 0.15
41 0.15
42 0.15
43 0.15
44 0.15
45 0.15
46 0.15
47 0.15
5 -0.62
6 -0.62
7 -0.62
8 0.1
9 -0.14

>  <PUBCHEM_EFFECTIVE_ROTOR_COUNT>  (1) 
6

>  <PUBCHEM_PHARMACOPHORE_FEATURES>  (1) 
11
1 1 acceptor
1 2 donor
1 3 donor
1 4 acceptor
1 6 acceptor
1 7 acceptor
4 2 4 5 15 cation
6 4 5 15 16 20 21 rings
6 6 18 22 23 26 28 rings
6 7 19 24 25 27 29 rings
6 8 9 10 11 12 13 rings

>  <PUBCHEM_HEAVY_ATOM_COUNT>  (1) 
29

>  <PUBCHEM_ATOM_DEF_STEREO_COUNT>  (1) 
0

>  <PUBCHEM_ATOM_UDEF_STEREO_COUNT>  (1) 
0

>  <PUBCHEM_BOND_DEF_STEREO_COUNT>  (1) 
0

>  <PUBCHEM_BOND_UDEF_STEREO_COUNT>  (1) 
0

>  <PUBCHEM_ISOTOPIC_ATOM_COUNT>  (1) 
0

>  <PUBCHEM_COMPONENT_COUNT>  (1) 
1

>  <PUBCHEM_CACTVS_TAUTO_COUNT>  (1) 
6

>  <PUBCHEM_CONFORMER_ID>  (1) 
000010E700000003

>  <PUBCHEM_MMFF94_ENERGY>  (1) 
106.3458

>  <PUBCHEM_FEATURE_SELFOVERLAP>  (1) 
55.823

>  <PUBCHEM_SHAPE_FINGERPRINT>  (1) 
10006869 2 18116140074655389859
10165383 225 18201723916398557651
10721379 63 13513313955505744058
1100329 8 18193841681090802887
11014199 57 17834955656735493050
12677640 9 18201161061631112793
13402501 40 18411419471076032384
13773456 30 17613416871151939964
138480 1 16754936763606559214
14068700 675 17843105155537554775
14117953 113 18409169883386789221
14466204 15 17400355650952081186
15320467 1 18411418384734350768
15351339 4 16536790997986492656
19611394 137 18042702769861551163
21796203 349 17829089633225611545
22113638 7 18337112370942540597
25019877 29 17703796950493763647
474144 1 17678763303964442548
5047190 48 18338241462015449772
50677037 204 18268138950118059184
5171179 24 17764596412803974439
6004065 56 18410848872614135805
6287921 2 17903656093601758900
6700243 42 17553520211220257302
7399639 24 18122068598413137003
7808743 9 18413105078462951714

>  <PUBCHEM_SHAPE_MULTIPOLES>  (1) 
561.05
9.99
7.25
1.04
14.53
0.14
0.24
-1.23
-3.87
-5.7
3.12
-0.36
-0.44
-0.71

>  <PUBCHEM_SHAPE_SELFOVERLAP>  (1) 
1238.415

>  <PUBCHEM_SHAPE_VOLUME>  (1) 
297.2

>  <PUBCHEM_COORDINATE_TYPE>  (1) 
2
5
10

$$$$
