43299
     RDKit          3D

 17 18  0  0  0  0  0  0  0  0999 V2000
   -5.9562   -0.5497    0.3448 Cl  0  0  0  0  0  0  0  0  0  0  0  0
    2.6184    1.8739   -0.3853 O   0  0  0  0  0  0  0  0  0  0  0  0
    2.9284   -0.2093    0.6087 N   0  0  0  0  0  0  0  0  0  0  0  0
    4.3494   -0.2860    0.4238 C   0  0  0  0  0  0  0  0  0  0  0  0
    4.9280   -0.7798   -0.8625 C   0  0  0  0  0  0  0  0  0  0  0  0
    5.0435   -1.6089    0.3830 C   0  0  0  0  0  0  0  0  0  0  0  0
    2.1840    0.8761    0.1824 C   0  0  0  0  0  0  0  0  0  0  0  0
    0.7162    0.7186    0.4312 C   0  0  0  0  0  0  0  0  0  0  0  0
   -0.0918    0.1517   -0.4936 C   0  0  0  0  0  0  0  0  0  0  0  0
    0.2805    1.2545    1.7644 C   0  0  0  0  0  0  0  0  0  0  0  0
   -1.5486   -0.0224   -0.2859 C   0  0  0  0  0  0  0  0  0  0  0  0
    0.3852   -0.3372   -1.8380 C   0  0  0  0  0  0  0  0  0  0  0  0
   -2.4076    0.9840   -0.6828 C   0  0  0  0  0  0  0  0  0  0  0  0
   -2.0075   -1.1868    0.2993 C   0  0  0  0  0  0  0  0  0  0  0  0
   -3.7789    0.8199   -0.4867 C   0  0  0  0  0  0  0  0  0  0  0  0
   -3.3788   -1.3511    0.4951 C   0  0  0  0  0  0  0  0  0  0  0  0
   -4.2645   -0.3477    0.1021 C   0  0  0  0  0  0  0  0  0  0  0  0
  1 17  1  0
  2  7  2  0
  3  4  1  0
  3  7  1  0
  4  5  1  0
  4  6  1  0
  5  6  1  0
  7  8  1  0
  8  9  2  0
  8 10  1  0
  9 11  1  0
  9 12  1  0
 11 13  2  0
 11 14  1  0
 13 15  1  0
 14 16  2  0
 15 17  2  0
 16 17  1  0
M  END
>  <PUBCHEM_COMPOUND_CID>  (1) 
43299

>  <PUBCHEM_CONFORMER_RMSD>  (1) 
0.6

>  <PUBCHEM_CONFORMER_DIVERSEORDER>  (1) 
1
3
4
5
2

>  <PUBCHEM_MMFF94_PARTIAL_CHARGES>  (1) 
27
1 -0.18
10 0.14
11 0.03
12 0.14
13 -0.15
14 -0.15
15 -0.15
16 -0.15
17 0.18
18 0.1
19 0.1
2 -0.57
20 0.1
21 0.1
22 0.1
23 0.37
3 -0.58
30 0.15
31 0.15
32 0.15
33 0.15
4 0.05
5 -0.2
6 -0.2
7 0.62
8 -0.12
9 -0.17

>  <PUBCHEM_EFFECTIVE_ROTOR_COUNT>  (1) 
4.6

>  <PUBCHEM_PHARMACOPHORE_FEATURES>  (1) 
5
1 10 hydrophobe
1 12 hydrophobe
1 2 acceptor
1 3 donor
6 11 13 14 15 16 17 rings

>  <PUBCHEM_HEAVY_ATOM_COUNT>  (1) 
17

>  <PUBCHEM_ATOM_DEF_STEREO_COUNT>  (1) 
0

>  <PUBCHEM_ATOM_UDEF_STEREO_COUNT>  (1) 
0

>  <PUBCHEM_BOND_DEF_STEREO_COUNT>  (1) 
0

>  <PUBCHEM_BOND_UDEF_STEREO_COUNT>  (1) 
1

>  <PUBCHEM_ISOTOPIC_ATOM_COUNT>  (1) 
0

>  <PUBCHEM_COMPONENT_COUNT>  (1) 
1

>  <PUBCHEM_CACTVS_TAUTO_COUNT>  (1) 
2

>  <PUBCHEM_CONFORMER_ID>  (1) 
0000A92300000001

>  <PUBCHEM_MMFF94_ENERGY>  (1) 
48.6841

>  <PUBCHEM_FEATURE_SELFOVERLAP>  (1) 
25.371

>  <PUBCHEM_SHAPE_FINGERPRINT>  (1) 
10366900 7 13623527970271555565
10465860 250 18202279191076686952
11128504 68 15647059265672351926
11401426 45 14477242661092590497
117890 112 10735881668490357827
12186901 62 17604138251622738941
12236239 1 16588025701858015463
124424 183 18273210906956843705
12507560 40 18408879667845766532
12596602 18 15626213641674823806
12633257 1 17774455995969175491
13288520 33 18187083945060833663
13533116 47 17561366162860538874
13675066 3 18131060546159862568
13760787 5 17917704734074205909
14251731 8 18335700511801705439
14341114 176 18335424585959885201
14911166 2 14417855847184197216
14993402 34 14996003250303562581
17804303 29 18333449850323145623
17834072 33 17385447639141458750
18186145 218 16805597109637958628
19784866 240 18337961103967424362
200 152 18201998819816796547
20645477 70 18411982468738051054
21267235 1 18186526505624384179
21618674 57 18273498979151034059
22094290 60 17676483925912145164
2215653 11 18409161087135465687
2297311 6 18333737887915036757
23175994 123 18059856164344417673
23402539 116 18202274802311200429
23559900 14 18261107534197459505
26918003 58 18272649035071998690
2838139 119 17203327751023691097
296302 2 8286206063069313185
3004659 81 17894911772980519546
3286 77 17631443630919502137
345986 75 15912206370431451862
4072396 5 17132117922429136079
42 15 18411136939399846263
4325135 7 17894633678248000838
465052 167 18413394241362465806
474 4 13758068640751262202
4990 188 17312820464037030832
5104073 3 17059211613348417331
59755656 215 18040992917695357859
633830 44 16153707660571928205
77779 3 18260547857035420076

>  <PUBCHEM_SHAPE_MULTIPOLES>  (1) 
340.87
11.48
1.46
1.19
0.67
0.1
-0.1
-4.67
0.84
0.6
0.19
0.27
0.13
0.4

>  <PUBCHEM_SHAPE_SELFOVERLAP>  (1) 
699.72

>  <PUBCHEM_SHAPE_VOLUME>  (1) 
199

>  <PUBCHEM_COORDINATE_TYPE>  (1) 
2
5
10

$$$$
