43309
     RDKit          3D

 22 22  0  0  0  0  0  0  0  0999 V2000
    3.5487   -2.1798    0.1008 O   0  0  0  0  0  0  0  0  0  0  0  0
    2.8787    2.5622    0.1580 O   0  0  0  0  0  0  0  0  0  0  0  0
    4.5913    0.3863    0.0972 O   0  0  0  0  0  0  0  0  0  0  0  0
   -3.6564   -1.8373   -0.7573 O   0  0  0  0  0  0  0  0  0  0  0  0
   -3.9054    0.4812   -0.7731 N   0  0  0  0  0  0  0  0  0  0  0  0
    0.5071   -0.1918    0.1922 C   0  0  0  0  0  0  0  0  0  0  0  0
   -0.9596   -0.3995    0.2265 C   0  0  0  0  0  0  0  0  0  0  0  0
   -1.7116   -0.4925   -0.8940 C   0  0  0  0  0  0  0  0  0  0  0  0
    1.0015    1.0980    0.1908 C   0  0  0  0  0  0  0  0  0  0  0  0
    1.3395   -1.2940    0.1626 C   0  0  0  0  0  0  0  0  0  0  0  0
    2.7204   -1.0986    0.1305 C   0  0  0  0  0  0  0  0  0  0  0  0
    2.3823    1.2935    0.1586 C   0  0  0  0  0  0  0  0  0  0  0  0
    3.2418    0.1952    0.1285 C   0  0  0  0  0  0  0  0  0  0  0  0
   -1.5160   -0.5238    1.6224 C   0  0  0  0  0  0  0  0  0  0  0  0
   -1.1959   -0.4146   -2.3020 C   0  0  0  0  0  0  0  0  0  0  0  0
   -3.1922   -0.7027   -0.8162 C   0  0  0  0  0  0  0  0  0  0  0  0
   -5.3440    0.5312   -0.6484 C   0  0  0  0  0  0  0  0  0  0  0  0
    3.9742   -2.7049    1.3567 C   0  0  0  0  0  0  0  0  0  0  0  0
    1.9321    3.6285    0.1899 C   0  0  0  0  0  0  0  0  0  0  0  0
    5.2009    0.4876   -1.1876 C   0  0  0  0  0  0  0  0  0  0  0  0
   -5.7500    0.5715    0.7561 C   0  0  0  0  0  0  0  0  0  0  0  0
   -6.0874    0.6043    1.9079 C   0  0  0  0  0  0  0  0  0  0  0  0
  1 11  1  0
  1 18  1  0
  2 12  1  0
  2 19  1  0
  3 13  1  0
  3 20  1  0
  4 16  2  0
  5 16  1  0
  5 17  1  0
  6  7  1  0
  6  9  2  0
  6 10  1  0
  7  8  2  0
  7 14  1  0
  8 15  1  0
  8 16  1  0
  9 12  1  0
 10 11  2  0
 11 13  1  0
 12 13  2  0
 17 21  1  0
 21 22  3  0
M  END
>  <PUBCHEM_COMPOUND_CID>  (1) 
43309

>  <PUBCHEM_CONFORMER_RMSD>  (1) 
0.8

>  <PUBCHEM_CONFORMER_DIVERSEORDER>  (1) 
3
32
19
34
17
33
27
20
12
26
36
4
39
24
21
11
38
18
29
22
31
8
16
25
35
23
7
37
28
15
30
9
1
10
2
5
14
6
13

>  <PUBCHEM_MMFF94_PARTIAL_CHARGES>  (1) 
26
1 -0.36
10 -0.15
11 0.08
12 0.08
13 0.08
14 0.14
15 0.14
16 0.62
17 0.5
18 0.28
19 0.28
2 -0.36
20 0.28
21 -0.2
22 -0.18
23 0.15
24 0.15
3 -0.36
31 0.37
4 -0.57
43 0.18
5 -0.73
6 0.03
7 -0.17
8 -0.12
9 -0.15

>  <PUBCHEM_EFFECTIVE_ROTOR_COUNT>  (1) 
7

>  <PUBCHEM_PHARMACOPHORE_FEATURES>  (1) 
9
1 1 acceptor
1 14 hydrophobe
1 15 hydrophobe
1 2 acceptor
1 22 hydrophobe
1 3 acceptor
1 4 acceptor
1 5 donor
6 6 9 10 11 12 13 rings

>  <PUBCHEM_HEAVY_ATOM_COUNT>  (1) 
22

>  <PUBCHEM_ATOM_DEF_STEREO_COUNT>  (1) 
0

>  <PUBCHEM_ATOM_UDEF_STEREO_COUNT>  (1) 
0

>  <PUBCHEM_BOND_DEF_STEREO_COUNT>  (1) 
0

>  <PUBCHEM_BOND_UDEF_STEREO_COUNT>  (1) 
1

>  <PUBCHEM_ISOTOPIC_ATOM_COUNT>  (1) 
0

>  <PUBCHEM_COMPONENT_COUNT>  (1) 
1

>  <PUBCHEM_CACTVS_TAUTO_COUNT>  (1) 
2

>  <PUBCHEM_CONFORMER_ID>  (1) 
0000A92D00000003

>  <PUBCHEM_MMFF94_ENERGY>  (1) 
88.5572

>  <PUBCHEM_FEATURE_SELFOVERLAP>  (1) 
45.681

>  <PUBCHEM_SHAPE_FINGERPRINT>  (1) 
11405975 8 18411978083513352859
11796584 16 15698005141213693940
12107183 9 18198341746023451075
12236239 1 17775286075138494931
12730499 353 18113907078087109682
12788726 201 18130792196376563577
13583140 156 18336844077478768739
13590594 115 18338234838975906689
14115302 16 17131826611866587038
14341114 176 18260835865121351725
14787075 74 12468644936693889869
15183329 4 18130787833011433397
15475509 8 17844832333496025196
16752209 62 16343709828598997659
16945 1 18337669815259292450
18186145 218 18188755253989895741
20600515 1 15769189714292498571
20645477 56 18040712593595348103
20832881 197 18043242449085504491
21033648 29 17749095700366681957
21041028 32 18265883658358701820
21315759 148 17095252388941063681
22289505 5 18335410241122642380
23402539 116 15339119031117104329
23557571 272 16732991971599276795
23559900 14 18201996646895972394
2748010 2 17831303066702556592
474 4 18193830663893462456
5104073 3 18341606049353986195
53777708 50 18270671108243338487
543358 83 18341894112519936136
602551 16 16009041604865721977
633830 44 18268702981954586612
8272917 22 18342461421775836662
8863177 126 17894922819156480947

>  <PUBCHEM_SHAPE_MULTIPOLES>  (1) 
424.29
12.27
2.52
1.49
12.32
1.39
0.17
0.61
-2.1
-3.76
-0.62
1.42
-0.32
-1.26

>  <PUBCHEM_SHAPE_SELFOVERLAP>  (1) 
869.833

>  <PUBCHEM_SHAPE_VOLUME>  (1) 
246.1

>  <PUBCHEM_COORDINATE_TYPE>  (1) 
2
5
10

$$$$
