43310
     RDKit          3D

 18 19  0  0  0  0  0  0  0  0999 V2000
   -2.9120   -1.9112    0.3848 O   0  0  0  0  0  0  0  0  0  0  0  0
    5.2479    0.6487   -0.3316 O   0  0  0  0  0  0  0  0  0  0  0  0
   -3.2744    0.1740   -0.5938 N   0  0  0  0  0  0  0  0  0  0  0  0
   -4.7055    0.2398   -0.4064 C   0  0  0  0  0  0  0  0  0  0  0  0
   -5.2772    0.7230    0.8813 C   0  0  0  0  0  0  0  0  0  0  0  0
   -5.3997    1.5569   -0.3601 C   0  0  0  0  0  0  0  0  0  0  0  0
   -2.5073   -0.8993   -0.1794 C   0  0  0  0  0  0  0  0  0  0  0  0
   -1.0445   -0.7086   -0.4373 C   0  0  0  0  0  0  0  0  0  0  0  0
   -0.2421   -0.1310    0.4858 C   0  0  0  0  0  0  0  0  0  0  0  0
   -0.6054   -1.2253   -1.7768 C   0  0  0  0  0  0  0  0  0  0  0  0
    1.2090    0.0756    0.2692 C   0  0  0  0  0  0  0  0  0  0  0  0
   -0.7203    0.3377    1.8369 C   0  0  0  0  0  0  0  0  0  0  0  0
    1.6400    1.2530   -0.3106 C   0  0  0  0  0  0  0  0  0  0  0  0
    2.0909   -0.9158    0.6538 C   0  0  0  0  0  0  0  0  0  0  0  0
    3.0063    1.4466   -0.5140 C   0  0  0  0  0  0  0  0  0  0  0  0
    3.4573   -0.7222    0.4506 C   0  0  0  0  0  0  0  0  0  0  0  0
    3.9151    0.4591   -0.1333 C   0  0  0  0  0  0  0  0  0  0  0  0
    6.1219   -0.4011    0.0808 C   0  0  0  0  0  0  0  0  0  0  0  0
  1  7  2  0
  2 17  1  0
  2 18  1  0
  3  4  1  0
  3  7  1  0
  4  5  1  0
  4  6  1  0
  5  6  1  0
  7  8  1  0
  8  9  2  0
  8 10  1  0
  9 11  1  0
  9 12  1  0
 11 13  2  0
 11 14  1  0
 13 15  1  0
 14 16  2  0
 15 17  2  0
 16 17  1  0
M  END
>  <PUBCHEM_COMPOUND_CID>  (1) 
43310

>  <PUBCHEM_CONFORMER_RMSD>  (1) 
0.8

>  <PUBCHEM_CONFORMER_DIVERSEORDER>  (1) 
1
4
5
3
2

>  <PUBCHEM_MMFF94_PARTIAL_CHARGES>  (1) 
28
1 -0.57
10 0.14
11 0.03
12 0.14
13 -0.15
14 -0.15
15 -0.15
16 -0.15
17 0.08
18 0.28
19 0.1
2 -0.36
20 0.1
21 0.1
22 0.1
23 0.1
24 0.37
3 -0.58
31 0.15
32 0.15
33 0.15
34 0.15
4 0.05
5 -0.2
6 -0.2
7 0.62
8 -0.12
9 -0.17

>  <PUBCHEM_EFFECTIVE_ROTOR_COUNT>  (1) 
5.6

>  <PUBCHEM_PHARMACOPHORE_FEATURES>  (1) 
6
1 1 acceptor
1 10 hydrophobe
1 12 hydrophobe
1 2 acceptor
1 3 donor
6 11 13 14 15 16 17 rings

>  <PUBCHEM_HEAVY_ATOM_COUNT>  (1) 
18

>  <PUBCHEM_ATOM_DEF_STEREO_COUNT>  (1) 
0

>  <PUBCHEM_ATOM_UDEF_STEREO_COUNT>  (1) 
0

>  <PUBCHEM_BOND_DEF_STEREO_COUNT>  (1) 
0

>  <PUBCHEM_BOND_UDEF_STEREO_COUNT>  (1) 
1

>  <PUBCHEM_ISOTOPIC_ATOM_COUNT>  (1) 
0

>  <PUBCHEM_COMPONENT_COUNT>  (1) 
1

>  <PUBCHEM_CACTVS_TAUTO_COUNT>  (1) 
2

>  <PUBCHEM_CONFORMER_ID>  (1) 
0000A92E00000001

>  <PUBCHEM_MMFF94_ENERGY>  (1) 
62.4757

>  <PUBCHEM_FEATURE_SELFOVERLAP>  (1) 
30.446

>  <PUBCHEM_SHAPE_FINGERPRINT>  (1) 
10354089 29 18114183033719692825
106641 1 14057014835678693205
11089746 13 17917703617445863032
11315181 36 17846786234815448352
11401426 45 16487254378518845885
11405975 8 18260545670854634864
11796584 16 17632859733298330078
12011746 2 15410896267033147588
12236239 1 18343300379528773874
12670543 26 16916792842184322380
12788726 201 18129660781710679041
13533116 47 16702023016261212022
13760787 19 18409726278940664827
14787075 74 7997963566087460189
14911166 2 16917347047795195499
15048467 5 18259983768847028645
15099037 51 17561081414722804541
15848700 24 15339117939783766536
1601671 61 18272088279440794068
16752209 62 17203613653061332139
17834072 8 18272932717276771157
18186145 218 17458895037356921982
187816 3 16702302351747700539
19489759 90 16845856771676656905
200 152 18341331171367472130
20279233 1 15554452924397302998
20281389 69 18334292071866976621
20621476 66 18202290165219691041
20645477 56 18040431092674656487
22224240 67 14923947851785493393
23218964 4 18410572873029312628
23402539 116 16558747914359625124
23402655 69 18335420196840639558
23536379 177 18335420162296317434
23559900 14 16701732848127866490
266924 87 16772965670573563553
29717793 49 17846787291440869076
3009799 131 17131829858946434328
347723 3 17847063272516013633
3545911 37 18335139795442274521
4214541 1 18335138721948435279
5104073 3 18114176505685973280
5283173 99 14476688455687517859
559249 180 18131909377637289630
59755656 215 18342182107679210086
59755656 520 16298105388844859059
633830 44 18042117816589353934
77779 3 18260829340781374379
8272917 22 18336828584994187386

>  <PUBCHEM_SHAPE_MULTIPOLES>  (1) 
353.71
12.45
1.43
1.16
0.02
0.07
0.1
-3.43
-0.36
0.63
-0.21
0.43
0.11
-0.4

>  <PUBCHEM_SHAPE_SELFOVERLAP>  (1) 
733.148

>  <PUBCHEM_SHAPE_VOLUME>  (1) 
204

>  <PUBCHEM_COORDINATE_TYPE>  (1) 
2
5
10

$$$$
