43329
     RDKit          3D

 24 25  0  0  0  0  0  0  0  0999 V2000
   -1.3236    0.1579   -0.0643 O   0  0  0  0  0  0  0  0  0  0  0  0
    5.6737   -0.4600   -0.0087 O   0  0  0  0  0  0  0  0  0  0  0  0
   -0.7746   -2.0597   -0.1680 O   0  0  0  0  0  0  0  0  0  0  0  0
   -4.9574    0.7831   -0.0975 N   0  0  0  0  0  0  0  0  0  0  0  0
    0.8554   -0.3826   -0.0642 N   0  0  0  0  0  0  0  0  0  0  0  0
   -5.6812    1.8903   -0.7311 C   0  0  0  0  0  0  0  0  0  0  0  0
   -5.4693    0.4045    1.2204 C   0  0  0  0  0  0  0  0  0  0  0  0
   -7.2101    1.8751   -0.6377 C   0  0  0  0  0  0  0  0  0  0  0  0
   -6.5271   -0.6953    1.0921 C   0  0  0  0  0  0  0  0  0  0  0  0
   -7.8444    0.4951   -0.7768 C   0  0  0  0  0  0  0  0  0  0  0  0
   -7.8843   -0.2545    0.5524 C   0  0  0  0  0  0  0  0  0  0  0  0
   -3.5267    1.0894   -0.0463 C   0  0  0  0  0  0  0  0  0  0  0  0
   -2.7023   -0.1870   -0.0993 C   0  0  0  0  0  0  0  0  0  0  0  0
   -0.4304   -0.8858   -0.1050 C   0  0  0  0  0  0  0  0  0  0  0  0
    7.0346    1.5135    0.0851 C   0  0  0  0  0  0  0  0  0  0  0  0
    7.0475    3.0368    0.1755 C   0  0  0  0  0  0  0  0  0  0  0  0
    5.6154    0.9639    0.0609 C   0  0  0  0  0  0  0  0  0  0  0  0
    2.0723   -1.1012   -0.0847 C   0  0  0  0  0  0  0  0  0  0  0  0
    4.4879   -1.1269   -0.0564 C   0  0  0  0  0  0  0  0  0  0  0  0
    3.2872   -0.4175   -0.0362 C   0  0  0  0  0  0  0  0  0  0  0  0
    8.4661    3.5789    0.2430 C   0  0  0  0  0  0  0  0  0  0  0  0
    2.0583   -2.4942   -0.1538 C   0  0  0  0  0  0  0  0  0  0  0  0
    4.4739   -2.5199   -0.1254 C   0  0  0  0  0  0  0  0  0  0  0  0
    3.2592   -3.2037   -0.1741 C   0  0  0  0  0  0  0  0  0  0  0  0
  1 13  1  0
  1 14  1  0
  2 17  1  0
  2 19  1  0
  3 14  2  0
  4  6  1  0
  4  7  1  0
  4 12  1  0
  5 14  1  0
  5 18  1  0
  6  8  1  0
  7  9  1  0
  8 10  1  0
  9 11  1  0
 10 11  1  0
 12 13  1  0
 15 16  1  0
 15 17  1  0
 16 21  1  0
 18 20  1  0
 18 22  2  0
 19 20  2  0
 19 23  1  0
 22 24  1  0
 23 24  2  0
M  END
>  <PUBCHEM_COMPOUND_CID>  (1) 
43329

>  <PUBCHEM_CONFORMER_RMSD>  (1) 
1

>  <PUBCHEM_CONFORMER_DIVERSEORDER>  (1) 
10
71
56
78
29
85
41
34
30
96
98
44
64
102
18
76
37
60
69
88
58
70
25
66
105
59
89
2
104
86
53
50
92
84
61
26
101
52
80
94
38
93
55
109
108
47
75
5
35
14
81
97
21
48
27
13
28
83
31
40
32
23
3
17
95
9
24
22
74
15
1
63
99
4
90
62
45
91
43
49
42
19
57
46
107
73
67
7
12
106
36
79
33
77
39
54
16
82
20
100
11
65
51
87
72
68
103
8
6

>  <PUBCHEM_MMFF94_PARTIAL_CHARGES>  (1) 
22
1 -0.43
12 0.27
13 0.28
14 0.78
17 0.28
18 0.12
19 0.08
2 -0.36
20 -0.15
22 -0.15
23 -0.15
24 -0.15
3 -0.57
4 -0.81
45 0.37
48 0.15
5 -0.55
52 0.15
53 0.15
54 0.15
6 0.27
7 0.27

>  <PUBCHEM_EFFECTIVE_ROTOR_COUNT>  (1) 
11.4

>  <PUBCHEM_PHARMACOPHORE_FEATURES>  (1) 
7
1 2 acceptor
1 21 hydrophobe
1 3 acceptor
1 4 cation
1 5 donor
6 18 19 20 22 23 24 rings
7 4 6 7 8 9 10 11 rings

>  <PUBCHEM_HEAVY_ATOM_COUNT>  (1) 
24

>  <PUBCHEM_ATOM_DEF_STEREO_COUNT>  (1) 
0

>  <PUBCHEM_ATOM_UDEF_STEREO_COUNT>  (1) 
0

>  <PUBCHEM_BOND_DEF_STEREO_COUNT>  (1) 
0

>  <PUBCHEM_BOND_UDEF_STEREO_COUNT>  (1) 
0

>  <PUBCHEM_ISOTOPIC_ATOM_COUNT>  (1) 
0

>  <PUBCHEM_COMPONENT_COUNT>  (1) 
1

>  <PUBCHEM_CACTVS_TAUTO_COUNT>  (1) 
2

>  <PUBCHEM_CONFORMER_ID>  (1) 
0000A9410000000A

>  <PUBCHEM_MMFF94_ENERGY>  (1) 
52.3222

>  <PUBCHEM_FEATURE_SELFOVERLAP>  (1) 
35.52

>  <PUBCHEM_SHAPE_FINGERPRINT>  (1) 
10 15 18114180852171582360
10391435 84 18040718095828516163
10411042 1 17907015072731546254
10638233 991 17275099527228867545
10835480 77 18335420141185802445
11315181 36 18343302540852346361
12717326 25 11455607755808011845
14142895 15 18340483456423826381
14251732 16 18408606942218396275
14428016 86 18343023303163219664
14461889 52 18186524318921918474
14565420 104 18113896057660321746
14849402 71 18273218625182640401
14933364 13 18337392639328658143
15152005 290 18339359794965467764
15183329 4 16917064443405798265
15419008 91 17895184464421842021
15475509 35 16298936534833838730
155225 6 18117845623971850556
15716309 27 18201438026955387655
15890870 6 18339081592822785096
1768 4 18342464788966997449
19302320 297 18188768470654850484
19427546 62 18409449185490303886
20157964 124 18411700946316473878
20609170 114 17606681585073834907
21150785 3 17846775200807100935
21344244 181 11455884780755569860
21521721 280 18413111632683200707
220451 1 16486966259776653791
22224240 67 18114180847692239090
23081809 10 17131269044087722115
23389318 12 18271796957058798047
23522609 53 17345490214331085041
23559900 14 18259983761423145505
25269216 80 16987991838316702597
270888 7 18339640148902706660
28498 318 9439409016614002857
306946 40 17531230761320486493
3246875 12 18335984250200145266
34797466 226 17988649566747425510
4073 2 18334015016538493803
444735 82 18261115179624654532
445580 126 18342450462016050256
445580 167 18341041982903694437
59682541 35 18187089494279828411
59682541 52 16845027758160185588
6327066 14 18340486785756865964

>  <PUBCHEM_SHAPE_MULTIPOLES>  (1) 
466.34
27.82
3.45
0.81
10.76
0.56
-0.1
23.94
-1.44
-9.49
0.18
1.23
0.09
1.78

>  <PUBCHEM_SHAPE_SELFOVERLAP>  (1) 
935.769

>  <PUBCHEM_SHAPE_VOLUME>  (1) 
273.4

>  <PUBCHEM_COORDINATE_TYPE>  (1) 
2
5
10

$$$$
