43320
     RDKit          3D

 19 21  0  0  0  0  0  0  0  0999 V2000
    3.2715   -1.4337   -0.0015 O   0  0  0  0  0  0  0  0  0  0  0  0
    2.6335    0.8311    0.0000 N   0  0  0  0  0  0  0  0  0  0  0  0
   -1.7080   -1.6798   -0.0009 C   0  0  0  0  0  0  0  0  0  0  0  0
   -0.7872   -0.4773   -0.0014 C   0  0  0  0  0  0  0  0  0  0  0  0
   -1.5374    0.7201   -0.0010 C   0  0  0  0  0  0  0  0  0  0  0  0
   -3.0727   -1.0235   -0.0004 C   0  0  0  0  0  0  0  0  0  0  0  0
   -2.9449    0.3837   -0.0004 C   0  0  0  0  0  0  0  0  0  0  0  0
    0.5966   -0.4636   -0.0017 C   0  0  0  0  0  0  0  0  0  0  0  0
   -0.9001    1.9496   -0.0006 C   0  0  0  0  0  0  0  0  0  0  0  0
   -4.3133   -1.6369    0.0008 C   0  0  0  0  0  0  0  0  0  0  0  0
   -4.0693    1.1923    0.0008 C   0  0  0  0  0  0  0  0  0  0  0  0
    1.2387    0.7760   -0.0012 C   0  0  0  0  0  0  0  0  0  0  0  0
    0.4980    1.9705   -0.0004 C   0  0  0  0  0  0  0  0  0  0  0  0
   -5.4464   -0.8216    0.0019 C   0  0  0  0  0  0  0  0  0  0  0  0
   -5.3258    0.5788    0.0019 C   0  0  0  0  0  0  0  0  0  0  0  0
    3.5394   -0.2380   -0.0006 C   0  0  0  0  0  0  0  0  0  0  0  0
    4.9543    0.2395    0.0011 C   0  0  0  0  0  0  0  0  0  0  0  0
    5.9679   -0.6370    0.0012 C   0  0  0  0  0  0  0  0  0  0  0  0
    7.4053   -0.2302    0.0023 C   0  0  0  0  0  0  0  0  0  0  0  0
  1 16  2  0
  2 12  1  0
  2 16  1  0
  3  4  1  0
  3  6  1  0
  4  5  2  0
  4  8  1  0
  5  7  1  0
  5  9  1  0
  6  7  2  0
  6 10  1  0
  7 11  1  0
  8 12  2  0
  9 13  2  0
 10 14  2  0
 11 15  2  0
 12 13  1  0
 14 15  1  0
 16 17  1  0
 17 18  2  0
 18 19  1  0
M  END
>  <PUBCHEM_COMPOUND_CID>  (1) 
43320

>  <PUBCHEM_CONFORMER_RMSD>  (1) 
0.6

>  <PUBCHEM_CONFORMER_DIVERSEORDER>  (1) 
1
3
4
2
5

>  <PUBCHEM_MMFF94_PARTIAL_CHARGES>  (1) 
27
1 -0.57
10 -0.15
11 -0.15
12 0.12
13 -0.15
14 -0.15
15 -0.15
16 0.62
17 -0.14
18 -0.29
19 0.14
2 -0.55
22 0.15
23 0.15
24 0.15
25 0.15
26 0.15
27 0.15
28 0.15
29 0.37
3 0.29
30 0.15
31 0.15
4 -0.14
6 -0.14
8 -0.15
9 -0.15

>  <PUBCHEM_EFFECTIVE_ROTOR_COUNT>  (1) 
3.2

>  <PUBCHEM_PHARMACOPHORE_FEATURES>  (1) 
6
1 1 acceptor
1 19 hydrophobe
1 2 donor
5 3 4 5 6 7 rings
6 4 5 8 9 12 13 rings
6 6 7 10 11 14 15 rings

>  <PUBCHEM_HEAVY_ATOM_COUNT>  (1) 
19

>  <PUBCHEM_ATOM_DEF_STEREO_COUNT>  (1) 
0

>  <PUBCHEM_ATOM_UDEF_STEREO_COUNT>  (1) 
0

>  <PUBCHEM_BOND_DEF_STEREO_COUNT>  (1) 
0

>  <PUBCHEM_BOND_UDEF_STEREO_COUNT>  (1) 
1

>  <PUBCHEM_ISOTOPIC_ATOM_COUNT>  (1) 
0

>  <PUBCHEM_COMPONENT_COUNT>  (1) 
1

>  <PUBCHEM_CACTVS_TAUTO_COUNT>  (1) 
2

>  <PUBCHEM_CONFORMER_ID>  (1) 
0000A93800000001

>  <PUBCHEM_MMFF94_ENERGY>  (1) 
60.3157

>  <PUBCHEM_FEATURE_SELFOVERLAP>  (1) 
30.61

>  <PUBCHEM_SHAPE_FINGERPRINT>  (1) 
10 15 18201707489171932872
10411042 1 18194402419558371651
10906281 52 18267044836789043646
10968037 39 18408042918348765870
11315181 36 18202005438393236808
11524674 6 16774076276323762870
12091667 2 17385444306257451133
12107183 9 17688870830842733666
12236239 1 17894912919351145772
12516196 113 18202844361960872864
12788726 201 18263077738986490056
13288520 33 18411138047860150285
13740256 8 18410012173385481841
13862211 1 18411698811474978743
14251731 8 18335136483880149029
14251752 14 17676759886319633348
14251764 18 18341618135465276857
15042514 8 18194684989588524323
15099037 51 18410293622945868639
15196674 1 18410575131960726533
17093844 174 18409444782721031641
17492 89 17978227493781341859
17804303 29 18413108394298802225
17834072 8 18335696140068343205
18006028 8 18202280307910829360
1813 80 17530967968865489348
19141452 34 18059573628431683199
200 152 18131068233803084800
20374829 77 18409728469537035320
20612939 158 17749676293481226980
21236236 1 18342739564121883929
21267235 1 18409173237729704179
21279426 13 18194965141044713199
22224240 67 16773790407975088542
2297311 6 18271814501741693236
23035841 295 18335420154054594442
23198884 109 15285356206521215300
23402539 116 18342734126560794967
23536379 177 16081083762490552460
23557571 272 18272375222533410340
23559900 14 18341324608415351128
23622692 118 17915168242854654127
3004659 81 18187082867293178124
335352 9 18410290316364512853
34797466 226 17846508058695959108
3545911 37 18411138022253915734
4073 2 17968944214334412442
4214541 1 18410856559851084965
4325135 7 18335424587062308868
4463277 17 18410293623046251176
5104073 3 18341336707691171641
559249 180 18408601457233883895
59755656 215 18340492179940806630
59755656 520 16877661279513852354
6138700 20 18408886217771119602
67856867 119 18261678194266329372
9709674 26 18120091947194869459

>  <PUBCHEM_SHAPE_MULTIPOLES>  (1) 
380.16
14.71
1.74
0.61
19.77
0.25
0
-3.71
0.02
-1.17
0
-0.03
0
0

>  <PUBCHEM_SHAPE_SELFOVERLAP>  (1) 
833.512

>  <PUBCHEM_SHAPE_VOLUME>  (1) 
207.1

>  <PUBCHEM_COORDINATE_TYPE>  (1) 
2
5
10

$$$$
