43333
     RDKit          3D

 25 26  0  0  0  0  0  0  0  0999 V2000
    0.6380   -1.7040   -0.8612 O   0  0  0  0  0  0  0  0  0  0  0  0
   -2.8213    1.4638   -0.3304 O   0  0  0  0  0  0  0  0  0  0  0  0
   -0.9295   -3.2583   -0.2633 O   0  0  0  0  0  0  0  0  0  0  0  0
    3.3785   -1.1368   -0.4230 N   0  0  0  0  0  0  0  0  0  0  0  0
   -1.4361   -0.9771   -0.4031 N   0  0  0  0  0  0  0  0  0  0  0  0
    4.5269   -0.3732   -0.9135 C   0  0  0  0  0  0  0  0  0  0  0  0
    3.5997   -1.7976    0.8678 C   0  0  0  0  0  0  0  0  0  0  0  0
    4.4474    1.0816   -0.4424 C   0  0  0  0  0  0  0  0  0  0  0  0
    4.3228   -0.9945    1.9533 C   0  0  0  0  0  0  0  0  0  0  0  0
    4.7568    1.3225    1.0321 C   0  0  0  0  0  0  0  0  0  0  0  0
    3.9444    0.4817    2.0139 C   0  0  0  0  0  0  0  0  0  0  0  0
    2.9284   -2.1175   -1.4127 C   0  0  0  0  0  0  0  0  0  0  0  0
    1.6057   -2.7373   -0.9912 C   0  0  0  0  0  0  0  0  0  0  0  0
   -0.5704    3.2975   -0.2124 C   0  0  0  0  0  0  0  0  0  0  0  0
   -2.0058    3.6662    0.1560 C   0  0  0  0  0  0  0  0  0  0  0  0
   -0.6249   -2.0923   -0.4830 C   0  0  0  0  0  0  0  0  0  0  0  0
    0.2091    4.5179   -0.7015 C   0  0  0  0  0  0  0  0  0  0  0  0
   -2.7769    2.4647    0.6840 C   0  0  0  0  0  0  0  0  0  0  0  0
   -2.8037   -0.9190   -0.0507 C   0  0  0  0  0  0  0  0  0  0  0  0
   -3.4628    0.3005   -0.0239 C   0  0  0  0  0  0  0  0  0  0  0  0
    1.6485    4.1616   -1.0373 C   0  0  0  0  0  0  0  0  0  0  0  0
   -3.4622   -2.0984    0.2629 C   0  0  0  0  0  0  0  0  0  0  0  0
   -4.8127    0.3418    0.3249 C   0  0  0  0  0  0  0  0  0  0  0  0
   -4.8121   -2.0570    0.6119 C   0  0  0  0  0  0  0  0  0  0  0  0
   -5.4874   -0.8369    0.6428 C   0  0  0  0  0  0  0  0  0  0  0  0
  1 13  1  0
  1 16  1  0
  2 18  1  0
  2 20  1  0
  3 16  2  0
  4  6  1  0
  4  7  1  0
  4 12  1  0
  5 16  1  0
  5 19  1  0
  6  8  1  0
  7  9  1  0
  8 10  1  0
  9 11  1  0
 10 11  1  0
 12 13  1  0
 14 15  1  0
 14 17  1  0
 15 18  1  0
 17 21  1  0
 19 20  2  0
 19 22  1  0
 20 23  1  0
 22 24  2  0
 23 25  2  0
 24 25  1  0
M  END
>  <PUBCHEM_COMPOUND_CID>  (1) 
43333

>  <PUBCHEM_CONFORMER_RMSD>  (1) 
1

>  <PUBCHEM_CONFORMER_DIVERSEORDER>  (1) 
2
51
100
30
44
84
54
43
68
14
52
11
73
50
105
55
103
6
74
62
56
9
99
19
92
97
57
65
81
1
94
80
85
23
27
34
98
36
32
93
102
95
83
12
26
47
38
46
66
37
16
87
64
33
45
28
77
41
88
21
13
101
75
86
40
89
60
108
15
4
71
104
10
59
69
72
78
24
18
48
90
70
31
7
39
58
22
63
82
35
17
107
5
61
3
91
49
29
96
25
67
106
79
20
42
8
76
53

>  <PUBCHEM_MMFF94_PARTIAL_CHARGES>  (1) 
22
1 -0.43
12 0.27
13 0.28
16 0.78
18 0.28
19 0.12
2 -0.36
20 0.08
22 -0.15
23 -0.15
24 -0.15
25 -0.15
3 -0.57
4 -0.81
5 -0.55
50 0.37
54 0.15
55 0.15
56 0.15
57 0.15
6 0.27
7 0.27

>  <PUBCHEM_EFFECTIVE_ROTOR_COUNT>  (1) 
12.4

>  <PUBCHEM_PHARMACOPHORE_FEATURES>  (1) 
7
1 2 acceptor
1 21 hydrophobe
1 3 acceptor
1 4 cation
1 5 donor
6 19 20 22 23 24 25 rings
7 4 6 7 8 9 10 11 rings

>  <PUBCHEM_HEAVY_ATOM_COUNT>  (1) 
25

>  <PUBCHEM_ATOM_DEF_STEREO_COUNT>  (1) 
0

>  <PUBCHEM_ATOM_UDEF_STEREO_COUNT>  (1) 
0

>  <PUBCHEM_BOND_DEF_STEREO_COUNT>  (1) 
0

>  <PUBCHEM_BOND_UDEF_STEREO_COUNT>  (1) 
0

>  <PUBCHEM_ISOTOPIC_ATOM_COUNT>  (1) 
0

>  <PUBCHEM_COMPONENT_COUNT>  (1) 
1

>  <PUBCHEM_CACTVS_TAUTO_COUNT>  (1) 
2

>  <PUBCHEM_CONFORMER_ID>  (1) 
0000A94500000002

>  <PUBCHEM_MMFF94_ENERGY>  (1) 
54.4323

>  <PUBCHEM_FEATURE_SELFOVERLAP>  (1) 
35.52

>  <PUBCHEM_SHAPE_FINGERPRINT>  (1) 
10256941 240 17176002537056504844
10670039 82 18338529547320999132
11595378 159 18186796955056172506
12596602 18 17530965808402344450
13402501 40 18272932734736078880
13561361 72 18266739091163568744
14251764 38 18268989787112318434
15403338 16 17604691327277671923
15961568 22 18411143549729204516
16067690 210 18186520973173920096
17977149 70 18196390143297281084
19611394 137 17899995003391655538
20398071 114 17763460617171012868
23559900 14 18125164827162674367
3187 122 18336538335525677329
469060 322 18339096895136445211
474144 1 17970353817947640532
4742675 86 17982132744302877676
508706 21 17979631234921732732
6004065 56 18341604976150076175
9543594 6 17981037828396109864
9777508 108 17834114147697641613

>  <PUBCHEM_SHAPE_MULTIPOLES>  (1) 
486.92
11.65
5.47
1.35
0.73
6.58
-0.44
-3.67
-3.92
0.58
1.7
-2.03
-0.23
0.23

>  <PUBCHEM_SHAPE_SELFOVERLAP>  (1) 
976.411

>  <PUBCHEM_SHAPE_VOLUME>  (1) 
285.3

>  <PUBCHEM_COORDINATE_TYPE>  (1) 
2
5
10

$$$$
