43337
     RDKit          3D

 25 26  0  0  0  0  0  0  0  0999 V2000
    2.2507    0.5606   -0.4898 O   0  0  0  0  0  0  0  0  0  0  0  0
   -5.3024   -1.0491   -0.3703 O   0  0  0  0  0  0  0  0  0  0  0  0
    1.1402   -1.1594    0.5294 O   0  0  0  0  0  0  0  0  0  0  0  0
    5.8980    0.4883    0.0475 N   0  0  0  0  0  0  0  0  0  0  0  0
    0.0189    0.4747   -0.7165 N   0  0  0  0  0  0  0  0  0  0  0  0
    6.9601    1.4637   -0.2037 C   0  0  0  0  0  0  0  0  0  0  0  0
    6.1753   -0.8541   -0.4745 C   0  0  0  0  0  0  0  0  0  0  0  0
    7.9528    1.4916    0.9619 C   0  0  0  0  0  0  0  0  0  0  0  0
    7.5893   -1.4078   -0.2736 C   0  0  0  0  0  0  0  0  0  0  0  0
    8.8987    0.2985    1.0605 C   0  0  0  0  0  0  0  0  0  0  0  0
    8.2218   -1.0698    1.0724 C   0  0  0  0  0  0  0  0  0  0  0  0
    4.6085    0.9621   -0.4588 C   0  0  0  0  0  0  0  0  0  0  0  0
    3.4819    0.0549    0.0095 C   0  0  0  0  0  0  0  0  0  0  0  0
   -8.5910    0.6264    0.3611 C   0  0  0  0  0  0  0  0  0  0  0  0
   -7.5055   -0.4475    0.3655 C   0  0  0  0  0  0  0  0  0  0  0  0
    1.1194   -0.1455   -0.1578 C   0  0  0  0  0  0  0  0  0  0  0  0
   -9.7999    0.1986    1.1928 C   0  0  0  0  0  0  0  0  0  0  0  0
   -6.2805   -0.0117   -0.4260 C   0  0  0  0  0  0  0  0  0  0  0  0
  -10.8690    1.2792    1.2188 C   0  0  0  0  0  0  0  0  0  0  0  0
   -1.3375    0.0866   -0.6278 C   0  0  0  0  0  0  0  0  0  0  0  0
   -3.9967   -0.6745   -0.4542 C   0  0  0  0  0  0  0  0  0  0  0  0
   -2.3046    0.8479   -1.2645 C   0  0  0  0  0  0  0  0  0  0  0  0
   -1.6736   -1.0476    0.0941 C   0  0  0  0  0  0  0  0  0  0  0  0
   -3.6430    0.4648   -1.1771 C   0  0  0  0  0  0  0  0  0  0  0  0
   -3.0119   -1.4307    0.1813 C   0  0  0  0  0  0  0  0  0  0  0  0
  1 13  1  0
  1 16  1  0
  2 18  1  0
  2 21  1  0
  3 16  2  0
  4  6  1  0
  4  7  1  0
  4 12  1  0
  5 16  1  0
  5 20  1  0
  6  8  1  0
  7  9  1  0
  8 10  1  0
  9 11  1  0
 10 11  1  0
 12 13  1  0
 14 15  1  0
 14 17  1  0
 15 18  1  0
 17 19  1  0
 20 22  2  0
 20 23  1  0
 21 24  2  0
 21 25  1  0
 22 24  1  0
 23 25  2  0
M  END
>  <PUBCHEM_COMPOUND_CID>  (1) 
43337

>  <PUBCHEM_CONFORMER_RMSD>  (1) 
1

>  <PUBCHEM_CONFORMER_DIVERSEORDER>  (1) 
1
99
150
41
64
145
120
44
51
43
82
130
76
29
73
135
144
139
152
34
88
163
132
33
114
137
37
91
110
116
56
67
146
119
165
148
53
154
7
8
25
68
127
85
166
59
113
23
12
117
112
35
19
143
104
38
32
162
155
48
3
131
72
103
58
123
61
31
121
96
138
124
86
80
97
94
36
118
81
50
57
47
106
2
115
75
125
109
98
40
87
128
22
92
105
15
122
169
10
100
102
89
164
74
16
65
90
63
49
108
71
4
77
21
28
11
111
168
153
78
62
83
46
60
54
161
20
6
158
171
147
9
149
70
79
136
52
133
69
42
55
13
17
129
95
134
160
14
159
101
151
26
30
141
107
93
167
126
39
18
140
170
142
84
27
24
66
5
156
157
45

>  <PUBCHEM_MMFF94_PARTIAL_CHARGES>  (1) 
22
1 -0.43
12 0.27
13 0.28
16 0.78
18 0.28
2 -0.36
20 0.12
21 0.08
22 -0.15
23 -0.15
24 -0.15
25 -0.15
3 -0.57
4 -0.81
5 -0.55
50 0.37
54 0.15
55 0.15
56 0.15
57 0.15
6 0.27
7 0.27

>  <PUBCHEM_EFFECTIVE_ROTOR_COUNT>  (1) 
12.4

>  <PUBCHEM_PHARMACOPHORE_FEATURES>  (1) 
7
1 19 hydrophobe
1 2 acceptor
1 3 acceptor
1 4 cation
1 5 donor
6 20 21 22 23 24 25 rings
7 4 6 7 8 9 10 11 rings

>  <PUBCHEM_HEAVY_ATOM_COUNT>  (1) 
25

>  <PUBCHEM_ATOM_DEF_STEREO_COUNT>  (1) 
0

>  <PUBCHEM_ATOM_UDEF_STEREO_COUNT>  (1) 
0

>  <PUBCHEM_BOND_DEF_STEREO_COUNT>  (1) 
0

>  <PUBCHEM_BOND_UDEF_STEREO_COUNT>  (1) 
0

>  <PUBCHEM_ISOTOPIC_ATOM_COUNT>  (1) 
0

>  <PUBCHEM_COMPONENT_COUNT>  (1) 
1

>  <PUBCHEM_CACTVS_TAUTO_COUNT>  (1) 
2

>  <PUBCHEM_CONFORMER_ID>  (1) 
0000A94900000001

>  <PUBCHEM_MMFF94_ENERGY>  (1) 
53.2485

>  <PUBCHEM_FEATURE_SELFOVERLAP>  (1) 
35.52

>  <PUBCHEM_SHAPE_FINGERPRINT>  (1) 
11135926 11 17749379382761721771
11638347 137 16732978718026338912
12089408 11 18273494593947265559
12539745 222 15068619380381997749
12664476 115 17632856413578825617
14202775 3 13045939084161929312
14251764 46 18411138038911487019
14344974 52 15123500429398226137
15183329 4 17749106674250339118
15247644 1 14707212128603681473
15461852 350 11169909485983130783
155225 1 17203896241658542425
16120349 18 10592036960538971314
1754911 235 10663820771980976657
1818759 1 14851607683106038425
18335252 98 15502373413929082859
21095086 128 13045941304638076849
21150785 3 11530480030154466350
21267235 1 17240203231386423965
21362267 2 14692273046172348482
21362267 313 17632020736541994082
21792934 111 18410853269827437188
232437 2 12468356856447751065
23559900 14 18115864273235687476
246663 6 15719392837023142109
249057 3 12967120627736874643
4073 2 17531528806628891906
5283156 175 18272933813015502096
54039377 194 11169921602650323873
59682541 35 17385728011076543209
636775 8 8862933976263141241

>  <PUBCHEM_SHAPE_MULTIPOLES>  (1) 
486.92
37.44
1.38
1.09
26.24
0.01
0.08
-8.19
16.94
-1.29
0.13
0.51
-0.18
-0.51

>  <PUBCHEM_SHAPE_SELFOVERLAP>  (1) 
974.891

>  <PUBCHEM_SHAPE_VOLUME>  (1) 
285.7

>  <PUBCHEM_COORDINATE_TYPE>  (1) 
2
5
10

$$$$
