43335
     RDKit          3D

 25 26  0  0  0  0  0  0  0  0999 V2000
   -2.0348    0.2767   -0.3497 O   0  0  0  0  0  0  0  0  0  0  0  0
    4.9422    0.0808   -0.9814 O   0  0  0  0  0  0  0  0  0  0  0  0
   -1.2868   -1.7672    0.3523 O   0  0  0  0  0  0  0  0  0  0  0  0
   -5.6965    0.6600   -0.1441 N   0  0  0  0  0  0  0  0  0  0  0  0
    0.1748   -0.1125   -0.4260 N   0  0  0  0  0  0  0  0  0  0  0  0
   -6.6230    1.6626   -0.6721 C   0  0  0  0  0  0  0  0  0  0  0  0
   -5.8732    0.3665    1.2821 C   0  0  0  0  0  0  0  0  0  0  0  0
   -7.8836    0.9926   -1.2262 C   0  0  0  0  0  0  0  0  0  0  0  0
   -7.3086    0.2200    1.7966 C   0  0  0  0  0  0  0  0  0  0  0  0
   -8.8621    0.4518   -0.1880 C   0  0  0  0  0  0  0  0  0  0  0  0
   -8.2582   -0.4981    0.8433 C   0  0  0  0  0  0  0  0  0  0  0  0
   -4.3044    1.0299   -0.4068 C   0  0  0  0  0  0  0  0  0  0  0  0
   -3.3699   -0.1194   -0.0640 C   0  0  0  0  0  0  0  0  0  0  0  0
    8.3587    0.7447    0.4481 C   0  0  0  0  0  0  0  0  0  0  0  0
    7.0424    1.0052   -0.2811 C   0  0  0  0  0  0  0  0  0  0  0  0
   -1.0535   -0.6513   -0.0959 C   0  0  0  0  0  0  0  0  0  0  0  0
    9.2237    2.0037    0.5009 C   0  0  0  0  0  0  0  0  0  0  0  0
    6.1567   -0.2325   -0.3016 C   0  0  0  0  0  0  0  0  0  0  0  0
   10.5203    1.7574    1.2557 C   0  0  0  0  0  0  0  0  0  0  0  0
    1.4473   -0.7195   -0.3241 C   0  0  0  0  0  0  0  0  0  0  0  0
    3.8280   -0.6064   -0.6072 C   0  0  0  0  0  0  0  0  0  0  0  0
    2.5724   -0.0077   -0.7089 C   0  0  0  0  0  0  0  0  0  0  0  0
    1.5452   -2.0146    0.1594 C   0  0  0  0  0  0  0  0  0  0  0  0
    3.9422   -1.9093   -0.1224 C   0  0  0  0  0  0  0  0  0  0  0  0
    2.8007   -2.6135    0.2609 C   0  0  0  0  0  0  0  0  0  0  0  0
  1 13  1  0
  1 16  1  0
  2 18  1  0
  2 21  1  0
  3 16  2  0
  4  6  1  0
  4  7  1  0
  4 12  1  0
  5 16  1  0
  5 20  1  0
  6  8  1  0
  7  9  1  0
  8 10  1  0
  9 11  1  0
 10 11  1  0
 12 13  1  0
 14 15  1  0
 14 17  1  0
 15 18  1  0
 17 19  1  0
 20 22  1  0
 20 23  2  0
 21 22  2  0
 21 24  1  0
 23 25  1  0
 24 25  2  0
M  END
>  <PUBCHEM_COMPOUND_CID>  (1) 
43335

>  <PUBCHEM_CONFORMER_RMSD>  (1) 
1

>  <PUBCHEM_CONFORMER_DIVERSEORDER>  (1) 
2
256
132
194
125
123
66
100
200
112
147
278
33
254
275
99
250
40
171
150
51
165
140
167
243
133
94
224
80
142
143
118
179
91
156
56
11
129
38
144
107
230
20
4
185
229
68
58
176
270
192
79
114
182
206
282
109
209
223
93
259
64
285
227
272
28
260
101
203
63
261
60
126
274
90
189
148
155
163
29
158
216
241
26
73
117
249
19
271
162
266
32
226
205
115
70
131
287
7
61
48
135
263
146
30
74
267
62
35
124
186
240
130
104
258
288
97
122
195
252
280
220
253
45
120
6
9
228
214
98
244
221
219
232
286
43
37
138
78
166
238
17
212
180
10
137
1
151
284
59
113
245
169
239
42
173
13
172
153
279
251
103
184
231
136
247
191
269
108
276
265
208
24
213
83
233
193
248
262
119
81
92
234
50
196
111
168
152
41
174
246
53
264
31
116
141
273
67
54
204
236
217
121
86
16
157
160
110
277
183
96
102
106
46
218
181
289
188
85
177
170
178
127
225
154
199
237
242
290
88
65
187
105
84
8
75
71
89
76
134
283
235
207
52
57
210
82
215
27
47
18
255
190
268
202
281
175
12
87
198
36
164
257
77
5
21
49
15
3
145
72
44
34
39
222
211
201
69
23
128
95
149
55
159
22
14
25
139
197
161

>  <PUBCHEM_MMFF94_PARTIAL_CHARGES>  (1) 
22
1 -0.43
12 0.27
13 0.28
16 0.78
18 0.28
2 -0.36
20 0.12
21 0.08
22 -0.15
23 -0.15
24 -0.15
25 -0.15
3 -0.57
4 -0.81
5 -0.55
50 0.37
54 0.15
55 0.15
56 0.15
57 0.15
6 0.27
7 0.27

>  <PUBCHEM_EFFECTIVE_ROTOR_COUNT>  (1) 
12.4

>  <PUBCHEM_PHARMACOPHORE_FEATURES>  (1) 
7
1 19 hydrophobe
1 2 acceptor
1 3 acceptor
1 4 cation
1 5 donor
6 20 21 22 23 24 25 rings
7 4 6 7 8 9 10 11 rings

>  <PUBCHEM_HEAVY_ATOM_COUNT>  (1) 
25

>  <PUBCHEM_ATOM_DEF_STEREO_COUNT>  (1) 
0

>  <PUBCHEM_ATOM_UDEF_STEREO_COUNT>  (1) 
0

>  <PUBCHEM_BOND_DEF_STEREO_COUNT>  (1) 
0

>  <PUBCHEM_BOND_UDEF_STEREO_COUNT>  (1) 
0

>  <PUBCHEM_ISOTOPIC_ATOM_COUNT>  (1) 
0

>  <PUBCHEM_COMPONENT_COUNT>  (1) 
1

>  <PUBCHEM_CACTVS_TAUTO_COUNT>  (1) 
2

>  <PUBCHEM_CONFORMER_ID>  (1) 
0000A94700000002

>  <PUBCHEM_MMFF94_ENERGY>  (1) 
53.2451

>  <PUBCHEM_FEATURE_SELFOVERLAP>  (1) 
35.521

>  <PUBCHEM_SHAPE_FINGERPRINT>  (1) 
10 15 18113617884769311938
10029044 110 17417807392615236920
10162869 55 18260827137816606015
106641 1 18113620100998687033
11315181 36 18272091570772879345
11408170 108 12685081558606943592
11638347 137 15140675887366100016
11724838 91 18114186341203428007
12539745 222 13912589542975356614
12592606 108 8718819878027361849
12838862 33 18335691754827892068
13530399 1 17632587002843704553
13974486 7 16663764616363317251
14216079 64 7925919180023611008
14251764 18 17703790297778669195
14251764 46 16515406269899276748
14344974 52 17703502298150686501
14428016 248 17132119043563586177
14428016 86 18343586231546612094
14461889 52 17749117689992407371
15183329 4 17346595236850235455
15419008 145 16660636332928417436
155225 1 18060136566481494792
15690457 1 13045941326793642288
15706992 2 18343310301525927768
15840311 113 18334858299929951854
1768 4 18343025505484397880
1818759 1 8646772205469408692
19302320 297 18114463461890786164
20105231 36 11024105460547317661
2026 5 10953999474580677536
21095123 145 16272206419214234151
21150785 3 16702302343052245015
22224240 67 18113058237735691266
28498 318 9151173147104082862
306946 40 17749377149610434733
445580 126 18409448107653394420
4874694 18 17458062660696779371
54076057 127 18201728318983414830
5470011 282 13039188122239208344
5758199 1 18413109463851153930
59682541 35 18186240640795613880
6201320 215 13551735311687174687

>  <PUBCHEM_SHAPE_MULTIPOLES>  (1) 
486.92
35.26
1.98
1.11
15.94
0.71
-0.29
-24.5
-8.45
3.48
-0.2
-1.23
-0.25
2.11

>  <PUBCHEM_SHAPE_SELFOVERLAP>  (1) 
974.948

>  <PUBCHEM_SHAPE_VOLUME>  (1) 
286.2

>  <PUBCHEM_COORDINATE_TYPE>  (1) 
2
5
10

$$$$
