43349
     RDKit          3D

 18 18  0  0  0  0  0  0  0  0999 V2000
   -4.9268    0.3577    0.0544 O   0  0  0  0  0  0  0  0  0  0  0  0
    1.5455    1.0266   -0.2233 N   0  0  0  0  0  0  0  0  0  0  0  0
    0.3778   -1.0655   -0.2859 N   0  0  0  0  0  0  0  0  0  0  0  0
    2.7231   -0.9767    0.1199 N   0  0  0  0  0  0  0  0  0  0  0  0
   -2.6868    0.8932    0.3374 N   0  0  0  0  0  0  0  0  0  0  0  0
    2.5570   -3.4387    0.5391 N   0  0  0  0  0  0  0  0  0  0  0  0
    2.8656    1.6572   -0.0819 C   0  0  0  0  0  0  0  0  0  0  0  0
    3.4130    1.3253    1.3059 C   0  0  0  0  0  0  0  0  0  0  0  0
    3.7823    1.1073   -1.1742 C   0  0  0  0  0  0  0  0  0  0  0  0
    2.6835    3.1662   -0.2419 C   0  0  0  0  0  0  0  0  0  0  0  0
    1.4941   -0.2595   -0.1221 C   0  0  0  0  0  0  0  0  0  0  0  0
   -0.9931   -0.7312   -0.2125 C   0  0  0  0  0  0  0  0  0  0  0  0
   -1.9658   -1.6425   -0.5925 C   0  0  0  0  0  0  0  0  0  0  0  0
   -1.3938    0.5103    0.2410 C   0  0  0  0  0  0  0  0  0  0  0  0
   -3.3070   -1.2854   -0.5077 C   0  0  0  0  0  0  0  0  0  0  0  0
   -3.6122   -0.0172   -0.0405 C   0  0  0  0  0  0  0  0  0  0  0  0
    2.6285   -2.2969    0.3449 C   0  0  0  0  0  0  0  0  0  0  0  0
   -5.1848    1.6698    0.5398 C   0  0  0  0  0  0  0  0  0  0  0  0
  1 16  1  0
  1 18  1  0
  2  7  1  0
  2 11  2  0
  3 11  1  0
  3 12  1  0
  4 11  1  0
  4 17  1  0
  5 14  2  0
  5 16  1  0
  6 17  3  0
  7  8  1  0
  7  9  1  0
  7 10  1  0
 12 13  2  0
 12 14  1  0
 13 15  1  0
 15 16  2  0
M  END
>  <PUBCHEM_COMPOUND_CID>  (1) 
43349

>  <PUBCHEM_CONFORMER_RMSD>  (1) 
0.6

>  <PUBCHEM_CONFORMER_DIVERSEORDER>  (1) 
1
10
14
12
15
9
8
6
3
7
11
13
2
4
5

>  <PUBCHEM_MMFF94_PARTIAL_CHARGES>  (1) 
20
1 -0.36
11 0.55
12 0.1
13 -0.15
14 0.16
15 -0.15
16 0.39
17 0.62
18 0.28
2 -0.7
28 0.4
29 0.4
3 -0.55
30 0.15
31 0.15
32 0.15
4 -0.51
5 -0.62
6 -0.56
7 0.25

>  <PUBCHEM_EFFECTIVE_ROTOR_COUNT>  (1) 
5

>  <PUBCHEM_PHARMACOPHORE_FEATURES>  (1) 
6
1 3 donor
1 4 donor
1 6 acceptor
4 2 3 4 11 cation
4 7 8 9 10 hydrophobe
6 5 12 13 14 15 16 rings

>  <PUBCHEM_HEAVY_ATOM_COUNT>  (1) 
18

>  <PUBCHEM_ATOM_DEF_STEREO_COUNT>  (1) 
0

>  <PUBCHEM_ATOM_UDEF_STEREO_COUNT>  (1) 
0

>  <PUBCHEM_BOND_DEF_STEREO_COUNT>  (1) 
0

>  <PUBCHEM_BOND_UDEF_STEREO_COUNT>  (1) 
0

>  <PUBCHEM_ISOTOPIC_ATOM_COUNT>  (1) 
0

>  <PUBCHEM_COMPONENT_COUNT>  (1) 
1

>  <PUBCHEM_CACTVS_TAUTO_COUNT>  (1) 
3

>  <PUBCHEM_CONFORMER_ID>  (1) 
0000A95500000001

>  <PUBCHEM_MMFF94_ENERGY>  (1) 
96.6945

>  <PUBCHEM_FEATURE_SELFOVERLAP>  (1) 
30.48

>  <PUBCHEM_SHAPE_FINGERPRINT>  (1) 
10465860 228 18410291423764292434
11265709 11 18047185251145158962
12553582 1 18048304562319182546
12633257 1 17532073038302506024
12644460 14 18335430036257443066
13533116 47 18335984186530068163
13675066 3 17894634730140415663
13878862 14 18189878848032538181
14178342 30 18194668479037445250
15442244 35 18267866077564898106
15536298 74 18342457045156409750
17492 89 18411698786027701335
17868525 174 18046620101640571609
18186145 218 18410571777754636607
19050596 39 18410287034133805131
19784866 9 18341326769105167288
201361 129 18410292557751768174
20510252 161 17691413331349721770
20559304 39 18411980222327756394
20645477 70 18342178843071749775
20671657 1 18411982464200523062
21501502 16 18342451560815774535
21524375 3 18127410270777175772
2255824 54 18409167705986205510
22854114 111 18411134762036043496
23402655 69 18343588477055236180
23559900 14 17703236100489017615
3545911 37 18411140259752502957
4409770 3 16964348674749278862
474 4 18334856177124051800
5104073 3 18411704262431991435
543358 83 18339929220806184406
633830 44 18269274741260641012
7364860 26 18412542094307930198
7832392 63 18413388760757186756
8272917 22 18408889516421859150
84936 182 18270959171441340552
9709674 26 18410013264450392291
9981440 41 18121211249746999040

>  <PUBCHEM_SHAPE_MULTIPOLES>  (1) 
339.66
9.29
3.07
0.87
8.87
0.95
0.03
-4.16
0.57
-3.11
0.33
-0.56
-0.13
-1.09

>  <PUBCHEM_SHAPE_SELFOVERLAP>  (1) 
693.931

>  <PUBCHEM_SHAPE_VOLUME>  (1) 
193.8

>  <PUBCHEM_COORDINATE_TYPE>  (1) 
2
5
10

$$$$
