43346
     RDKit          3D

 17 17  0  0  0  0  0  0  0  0999 V2000
   -1.1206   -0.4707    0.1033 N   0  0  0  0  0  0  0  0  0  0  0  0
    0.7178    1.0563    0.2853 N   0  0  0  0  0  0  0  0  0  0  0  0
   -1.5186    1.8439    0.0598 N   0  0  0  0  0  0  0  0  0  0  0  0
    2.8661   -1.7973   -0.6407 N   0  0  0  0  0  0  0  0  0  0  0  0
   -0.5469    4.0166   -0.7151 N   0  0  0  0  0  0  0  0  0  0  0  0
   -2.5736   -0.5776   -0.0891 C   0  0  0  0  0  0  0  0  0  0  0  0
   -3.2608   -0.6028    1.2819 C   0  0  0  0  0  0  0  0  0  0  0  0
   -2.8828   -1.8544   -0.8809 C   0  0  0  0  0  0  0  0  0  0  0  0
   -2.8322   -1.7938    2.1291 C   0  0  0  0  0  0  0  0  0  0  0  0
   -2.1975   -1.8798   -2.2410 C   0  0  0  0  0  0  0  0  0  0  0  0
   -0.6223    0.7183    0.1739 C   0  0  0  0  0  0  0  0  0  0  0  0
    1.8652    0.2399    0.1692 C   0  0  0  0  0  0  0  0  0  0  0  0
    3.0741    0.6362    0.7188 C   0  0  0  0  0  0  0  0  0  0  0  0
    1.8069   -0.9701   -0.4941 C   0  0  0  0  0  0  0  0  0  0  0  0
    4.1864   -0.1881    0.5889 C   0  0  0  0  0  0  0  0  0  0  0  0
    4.0312   -1.3838   -0.0939 C   0  0  0  0  0  0  0  0  0  0  0  0
   -0.9924    3.0071   -0.3556 C   0  0  0  0  0  0  0  0  0  0  0  0
  1  6  1  0
  1 11  2  0
  2 11  1  0
  2 12  1  0
  3 11  1  0
  3 17  1  0
  4 14  2  0
  4 16  1  0
  5 17  3  0
  6  7  1  0
  6  8  1  0
  7  9  1  0
  8 10  1  0
 12 13  2  0
 12 14  1  0
 13 15  1  0
 15 16  2  0
M  END
>  <PUBCHEM_COMPOUND_CID>  (1) 
43346

>  <PUBCHEM_CONFORMER_RMSD>  (1) 
0.8

>  <PUBCHEM_CONFORMER_DIVERSEORDER>  (1) 
1
43
22
13
20
39
58
51
62
61
24
35
33
25
17
37
50
57
70
34
30
47
42
45
10
67
26
49
29
46
16
2
9
66
31
11
71
18
48
23
56
55
59
4
63
5
36
65
27
69
19
68
64
3
53
41
15
14
60
38
6
40
8
12
72
54
21
52
28
32
7
44

>  <PUBCHEM_MMFF94_PARTIAL_CHARGES>  (1) 
19
1 -0.7
11 0.55
12 0.1
13 -0.15
14 0.16
15 -0.15
16 0.16
17 0.62
2 -0.55
29 0.4
3 -0.51
30 0.4
31 0.15
32 0.15
33 0.15
34 0.15
4 -0.62
5 -0.56
6 0.25

>  <PUBCHEM_EFFECTIVE_ROTOR_COUNT>  (1) 
6

>  <PUBCHEM_PHARMACOPHORE_FEATURES>  (1) 
8
1 10 hydrophobe
1 2 donor
1 3 donor
1 4 acceptor
1 5 acceptor
1 9 hydrophobe
4 1 2 3 11 cation
6 4 12 13 14 15 16 rings

>  <PUBCHEM_HEAVY_ATOM_COUNT>  (1) 
17

>  <PUBCHEM_ATOM_DEF_STEREO_COUNT>  (1) 
0

>  <PUBCHEM_ATOM_UDEF_STEREO_COUNT>  (1) 
0

>  <PUBCHEM_BOND_DEF_STEREO_COUNT>  (1) 
0

>  <PUBCHEM_BOND_UDEF_STEREO_COUNT>  (1) 
0

>  <PUBCHEM_ISOTOPIC_ATOM_COUNT>  (1) 
0

>  <PUBCHEM_COMPONENT_COUNT>  (1) 
1

>  <PUBCHEM_CACTVS_TAUTO_COUNT>  (1) 
3

>  <PUBCHEM_CONFORMER_ID>  (1) 
0000A95200000001

>  <PUBCHEM_MMFF94_ENERGY>  (1) 
58.2401

>  <PUBCHEM_FEATURE_SELFOVERLAP>  (1) 
40.629

>  <PUBCHEM_SHAPE_FINGERPRINT>  (1) 
11132069 177 17989201564508043098
11357001 24 18189903023812258849
11578080 2 17416376918685357161
12363563 72 18261957448074787971
12500047 106 17977942381019592028
12553582 1 18338805635907754982
12730499 353 16893426867549831645
12759256 9 17976819019037637481
15422964 175 18262534678894857763
15885798 251 18261689124693788545
19433438 48 17917706924549945626
20361792 2 18338233881271292303
20524608 308 18123184606715086116
20711985 344 18189885444521678761
20871998 184 18270123405022702869
21061003 4 18042412485716368499
21304303 282 17174009229464244796
21339142 126 18341044138376013239
21524375 3 17471003688405006789
23402539 116 18335409193213704466
23526113 38 17897428721993087643
23557571 272 18261106344860913732
23598288 3 18261970565163203981
23598291 2 17914067639935464725
2748010 2 17841162047533567550
69090 78 18126277550109202917
6992083 37 18059584628296374707
81228 2 18335416820817659569
9709674 26 18126561220114570606

>  <PUBCHEM_SHAPE_MULTIPOLES>  (1) 
324.95
6.89
3.25
1.48
4.97
4.14
0.02
-4.63
1.38
-1.4
-1.2
-1.79
-1.04
0.32

>  <PUBCHEM_SHAPE_SELFOVERLAP>  (1) 
651.977

>  <PUBCHEM_SHAPE_VOLUME>  (1) 
184.1

>  <PUBCHEM_COORDINATE_TYPE>  (1) 
2
5
10

$$$$
