43347
     RDKit          3D

 18 18  0  0  1  0  0  0  0  0999 V2000
    0.8926    0.1116    0.4096 N   0  0  0  0  0  0  0  0  0  0  0  0
   -1.1787   -1.0848    0.2596 N   0  0  0  0  0  0  0  0  0  0  0  0
    0.9124   -2.2198    0.1513 N   0  0  0  0  0  0  0  0  0  0  0  0
   -2.7275    2.1679   -0.5407 N   0  0  0  0  0  0  0  0  0  0  0  0
   -0.3088   -4.1132   -0.9389 N   0  0  0  0  0  0  0  0  0  0  0  0
    2.9849    1.2433   -0.3016 C   0  0  0  0  0  0  0  0  0  0  0  0
    2.3590   -0.0224    0.3601 C   0  0  0  0  0  0  0  0  0  0  0  0
    2.4237    1.5092   -1.7110 C   0  0  0  0  0  0  0  0  0  0  0  0
    2.7020    2.4801    0.5786 C   0  0  0  0  0  0  0  0  0  0  0  0
    4.5152    1.0852   -0.4097 C   0  0  0  0  0  0  0  0  0  0  0  0
    2.8470   -0.3425    1.7725 C   0  0  0  0  0  0  0  0  0  0  0  0
    0.2025   -0.9726    0.3060 C   0  0  0  0  0  0  0  0  0  0  0  0
   -2.1603   -0.0769    0.1302 C   0  0  0  0  0  0  0  0  0  0  0  0
   -3.4695   -0.3084    0.5229 C   0  0  0  0  0  0  0  0  0  0  0  0
   -1.8376    1.1613   -0.3902 C   0  0  0  0  0  0  0  0  0  0  0  0
   -4.4138    0.7027    0.3836 C   0  0  0  0  0  0  0  0  0  0  0  0
    0.2527   -3.2325   -0.4335 C   0  0  0  0  0  0  0  0  0  0  0  0
   -3.9957    1.9117   -0.1489 C   0  0  0  0  0  0  0  0  0  0  0  0
  1  7  1  0
  1 12  2  0
  2 12  1  0
  2 13  1  0
  3 12  1  0
  3 17  1  0
  4 15  2  0
  4 18  1  0
  5 17  3  0
  6  7  1  0
  6  8  1  0
  6  9  1  0
  6 10  1  0
  7 11  1  0
 13 14  2  0
 13 15  1  0
 14 16  1  0
 16 18  2  0
M  END
>  <PUBCHEM_COMPOUND_CID>  (1) 
43347

>  <PUBCHEM_CONFORMER_RMSD>  (1) 
0.6

>  <PUBCHEM_CONFORMER_DIVERSEORDER>  (1) 
3
105
134
104
107
62
13
144
26
65
108
50
147
67
66
46
60
43
148
85
116
27
76
112
138
150
117
86
25
119
45
106
110
32
102
131
122
78
103
115
42
61
44
14
94
77
80
121
128
20
129
84
93
6
123
101
92
87
64
135
137
70
49
53
63
118
34
5
127
111
88
140
139
146
79
149
97
21
51
37
11
59
124
75
36
145
52
4
82
143
126
56
33
30
125
10
109
73
81
142
69
96
31
141
99
100
120
48
136
58
22
19
17
95
89
132
23
12
98
57
72
71
130
8
113
1
18
35
133
83
54
114
68
7
41
24
47
16
2
91
9
28
15
90
74
39
38
29
55
40

>  <PUBCHEM_MMFF94_PARTIAL_CHARGES>  (1) 
19
1 -0.7
12 0.55
13 0.1
14 -0.15
15 0.16
16 -0.15
17 0.62
18 0.16
2 -0.55
3 -0.51
32 0.4
33 0.4
34 0.15
35 0.15
36 0.15
37 0.15
4 -0.62
5 -0.56
7 0.25

>  <PUBCHEM_EFFECTIVE_ROTOR_COUNT>  (1) 
5

>  <PUBCHEM_PHARMACOPHORE_FEATURES>  (1) 
7
1 2 donor
1 3 donor
1 4 acceptor
1 5 acceptor
4 1 2 3 12 cation
4 6 8 9 10 hydrophobe
6 4 13 14 15 16 18 rings

>  <PUBCHEM_HEAVY_ATOM_COUNT>  (1) 
18

>  <PUBCHEM_ATOM_DEF_STEREO_COUNT>  (1) 
0

>  <PUBCHEM_ATOM_UDEF_STEREO_COUNT>  (1) 
1

>  <PUBCHEM_BOND_DEF_STEREO_COUNT>  (1) 
0

>  <PUBCHEM_BOND_UDEF_STEREO_COUNT>  (1) 
0

>  <PUBCHEM_ISOTOPIC_ATOM_COUNT>  (1) 
0

>  <PUBCHEM_COMPONENT_COUNT>  (1) 
1

>  <PUBCHEM_CACTVS_TAUTO_COUNT>  (1) 
3

>  <PUBCHEM_CONFORMER_ID>  (1) 
0000A95300000003

>  <PUBCHEM_MMFF94_ENERGY>  (1) 
74.1322

>  <PUBCHEM_FEATURE_SELFOVERLAP>  (1) 
35.555

>  <PUBCHEM_SHAPE_FINGERPRINT>  (1) 
10608611 8 18190458260410656585
11833330 49 17619339252984932891
12173636 292 18339920540714027357
12500047 106 18269557294527129140
12788726 201 17903347448709835378
13681431 1 17554056432959224431
14123255 52 18411135874348456504
14415576 193 18336266743263141073
14648413 74 18049161069012722235
15502722 9 18268996380045561599
15775835 57 18333452066531999856
17134986 127 18411420609368738838
17539 30 17768524246205880750
18186145 218 18060143166875414616
20233049 118 18410012148143835456
20645476 183 18336828696815954186
20645477 56 18198067074121949888
21524375 3 18334296491340442370
23557571 272 17769385155657947868
23558518 356 17974002044952446354
23559900 14 18122620553382285691
23598291 2 18042105683396920514
2637199 183 18187939386613832292
298252 57 18335425698725479130
3060560 45 18410295770487513198
458136 41 18270415896944118179
633830 44 17846221059515690153
7097593 13 17678155132036448730
7164475 11 18052524767119292310
7364860 26 18194967344294422399
7808743 9 18122061176810629928
7832392 63 18263641943497427536
81228 2 17619062176033589170
84936 31 17985535655180811055
9709674 26 18264490573295721883
9925002 15 17545894084247509551

>  <PUBCHEM_SHAPE_MULTIPOLES>  (1) 
345.53
7.73
3.52
1.11
2.45
4
0.02
-6.12
0.44
0.12
-1.21
-0.92
-0.04
-0.25

>  <PUBCHEM_SHAPE_SELFOVERLAP>  (1) 
697.67

>  <PUBCHEM_SHAPE_VOLUME>  (1) 
195.5

>  <PUBCHEM_COORDINATE_TYPE>  (1) 
2
5
10

$$$$
