43345
     RDKit          3D

 17 17  0  0  0  0  0  0  0  0999 V2000
   -1.0008    0.7731    0.4653 N   0  0  0  0  0  0  0  0  0  0  0  0
    0.6546   -0.9511    0.2877 N   0  0  0  0  0  0  0  0  0  0  0  0
   -1.6653   -1.4423    0.0638 N   0  0  0  0  0  0  0  0  0  0  0  0
    3.0639    1.7553   -0.4110 N   0  0  0  0  0  0  0  0  0  0  0  0
   -0.9277   -3.7550   -0.5464 N   0  0  0  0  0  0  0  0  0  0  0  0
   -2.4458    1.0498    0.4680 C   0  0  0  0  0  0  0  0  0  0  0  0
   -3.0264    0.7164   -0.9212 C   0  0  0  0  0  0  0  0  0  0  0  0
   -3.0792    0.2194    1.5863 C   0  0  0  0  0  0  0  0  0  0  0  0
   -2.6323    2.5426    0.7631 C   0  0  0  0  0  0  0  0  0  0  0  0
   -2.4314    1.5149   -2.0754 C   0  0  0  0  0  0  0  0  0  0  0  0
   -0.6378   -0.4490    0.2665 C   0  0  0  0  0  0  0  0  0  0  0  0
    1.8860   -0.2748    0.1381 C   0  0  0  0  0  0  0  0  0  0  0  0
    3.0858   -0.9265    0.3772 C   0  0  0  0  0  0  0  0  0  0  0  0
    1.9215    1.0505   -0.2495 C   0  0  0  0  0  0  0  0  0  0  0  0
    4.2819   -0.2348    0.2218 C   0  0  0  0  0  0  0  0  0  0  0  0
    4.2174    1.0925   -0.1704 C   0  0  0  0  0  0  0  0  0  0  0  0
   -1.2645   -2.6810   -0.2639 C   0  0  0  0  0  0  0  0  0  0  0  0
  1  6  1  0
  1 11  2  0
  2 11  1  0
  2 12  1  0
  3 11  1  0
  3 17  1  0
  4 14  2  0
  4 16  1  0
  5 17  3  0
  6  7  1  0
  6  8  1  0
  6  9  1  0
  7 10  1  0
 12 13  2  0
 12 14  1  0
 13 15  1  0
 15 16  2  0
M  END
>  <PUBCHEM_COMPOUND_CID>  (1) 
43345

>  <PUBCHEM_CONFORMER_RMSD>  (1) 
0.6

>  <PUBCHEM_CONFORMER_DIVERSEORDER>  (1) 
1
11
31
21
27
12
30
20
32
24
28
35
25
17
8
29
33
36
7
16
23
34
26
4
19
15
18
3
9
13
22
5
6
10
14
2

>  <PUBCHEM_MMFF94_PARTIAL_CHARGES>  (1) 
19
1 -0.7
11 0.55
12 0.1
13 -0.15
14 0.16
15 -0.15
16 0.16
17 0.62
2 -0.55
29 0.4
3 -0.51
30 0.4
31 0.15
32 0.15
33 0.15
34 0.15
4 -0.62
5 -0.56
6 0.25

>  <PUBCHEM_EFFECTIVE_ROTOR_COUNT>  (1) 
5

>  <PUBCHEM_PHARMACOPHORE_FEATURES>  (1) 
8
1 10 hydrophobe
1 2 donor
1 3 donor
1 4 acceptor
1 5 acceptor
3 6 8 9 hydrophobe
4 1 2 3 11 cation
6 4 12 13 14 15 16 rings

>  <PUBCHEM_HEAVY_ATOM_COUNT>  (1) 
17

>  <PUBCHEM_ATOM_DEF_STEREO_COUNT>  (1) 
0

>  <PUBCHEM_ATOM_UDEF_STEREO_COUNT>  (1) 
0

>  <PUBCHEM_BOND_DEF_STEREO_COUNT>  (1) 
0

>  <PUBCHEM_BOND_UDEF_STEREO_COUNT>  (1) 
0

>  <PUBCHEM_ISOTOPIC_ATOM_COUNT>  (1) 
0

>  <PUBCHEM_COMPONENT_COUNT>  (1) 
1

>  <PUBCHEM_CACTVS_TAUTO_COUNT>  (1) 
3

>  <PUBCHEM_CONFORMER_ID>  (1) 
0000A95100000001

>  <PUBCHEM_MMFF94_ENERGY>  (1) 
87.2803

>  <PUBCHEM_FEATURE_SELFOVERLAP>  (1) 
40.63

>  <PUBCHEM_SHAPE_FINGERPRINT>  (1) 
121448 382 18058709369537568335
12173636 292 18343024367545021281
12403814 3 18114185280430674481
12500047 106 18342452638999895186
13583140 156 17531245037052786344
13931106 250 17772451616020259790
14178342 30 18339063987340057874
15309172 13 18338240366687753121
15442244 35 18409448051591862514
18186145 218 18339364050518064972
18219364 16 18262238820035482797
20645477 56 18411703209779770888
21524375 3 18261393312752363515
23402539 116 18130498661084277413
23557571 272 18056769942805922342
23559900 14 18202563987154861250
474 4 18124596384172239441
4921388 177 15554443011539320773
58051976 100 18335144210637383034
633830 44 17986396585448397004
69090 78 18408038520059713571
6992083 37 18260550039000028588
74978 22 18411979191546167792
7832392 63 18410014347277367024
81228 2 18120649403516140075

>  <PUBCHEM_SHAPE_MULTIPOLES>  (1) 
324.95
7.14
2.92
1.19
6.49
2.71
0.3
-3.41
-0.25
-1.64
0.56
-1.42
-0.47
-0.28

>  <PUBCHEM_SHAPE_SELFOVERLAP>  (1) 
660.914

>  <PUBCHEM_SHAPE_VOLUME>  (1) 
181.8

>  <PUBCHEM_COORDINATE_TYPE>  (1) 
2
5
10

$$$$
