43354
     RDKit          3D

 17 17  0  0  0  0  0  0  0  0999 V2000
   -1.1282   -0.4759    0.0991 N   0  0  0  0  0  0  0  0  0  0  0  0
    0.7109    1.0499    0.2835 N   0  0  0  0  0  0  0  0  0  0  0  0
   -1.5259    1.8390    0.0671 N   0  0  0  0  0  0  0  0  0  0  0  0
    4.1241   -1.3786   -0.0814 N   0  0  0  0  0  0  0  0  0  0  0  0
   -0.5558    4.0150   -0.7002 N   0  0  0  0  0  0  0  0  0  0  0  0
   -2.5818   -0.5816   -0.0902 C   0  0  0  0  0  0  0  0  0  0  0  0
   -3.2655   -0.6129    1.2824 C   0  0  0  0  0  0  0  0  0  0  0  0
   -2.8931   -1.8548   -0.8871 C   0  0  0  0  0  0  0  0  0  0  0  0
   -2.8351   -1.8079    2.1231 C   0  0  0  0  0  0  0  0  0  0  0  0
   -2.2112   -1.8741   -2.2489 C   0  0  0  0  0  0  0  0  0  0  0  0
   -0.6296    0.7127    0.1738 C   0  0  0  0  0  0  0  0  0  0  0  0
    1.8578    0.2339    0.1608 C   0  0  0  0  0  0  0  0  0  0  0  0
    3.0635    0.6423    0.7160 C   0  0  0  0  0  0  0  0  0  0  0  0
    1.7797   -0.9770   -0.5148 C   0  0  0  0  0  0  0  0  0  0  0  0
    4.1586   -0.1935    0.5683 C   0  0  0  0  0  0  0  0  0  0  0  0
    2.9323   -1.7404   -0.6073 C   0  0  0  0  0  0  0  0  0  0  0  0
   -1.0005    3.0040   -0.3442 C   0  0  0  0  0  0  0  0  0  0  0  0
  1  6  1  0
  1 11  2  0
  2 11  1  0
  2 12  1  0
  3 11  1  0
  3 17  1  0
  4 15  2  0
  4 16  1  0
  5 17  3  0
  6  7  1  0
  6  8  1  0
  7  9  1  0
  8 10  1  0
 12 13  2  0
 12 14  1  0
 13 15  1  0
 14 16  2  0
M  END
>  <PUBCHEM_COMPOUND_CID>  (1) 
43354

>  <PUBCHEM_CONFORMER_RMSD>  (1) 
0.8

>  <PUBCHEM_CONFORMER_DIVERSEORDER>  (1) 
2
18
24
7
6
12
8
13
22
33
19
29
15
4
32
34
11
20
30
25
5
26
16
23
14
17
27
1
31
10
21
9
28
35
3

>  <PUBCHEM_MMFF94_PARTIAL_CHARGES>  (1) 
19
1 -0.7
11 0.55
12 0.1
13 -0.15
14 -0.15
15 0.16
16 0.16
17 0.62
2 -0.55
29 0.4
3 -0.51
30 0.4
31 0.15
32 0.15
33 0.15
34 0.15
4 -0.62
5 -0.56
6 0.25

>  <PUBCHEM_EFFECTIVE_ROTOR_COUNT>  (1) 
6

>  <PUBCHEM_PHARMACOPHORE_FEATURES>  (1) 
8
1 10 hydrophobe
1 2 donor
1 3 donor
1 4 acceptor
1 5 acceptor
1 9 hydrophobe
4 1 2 3 11 cation
6 4 12 13 14 15 16 rings

>  <PUBCHEM_HEAVY_ATOM_COUNT>  (1) 
17

>  <PUBCHEM_ATOM_DEF_STEREO_COUNT>  (1) 
0

>  <PUBCHEM_ATOM_UDEF_STEREO_COUNT>  (1) 
0

>  <PUBCHEM_BOND_DEF_STEREO_COUNT>  (1) 
0

>  <PUBCHEM_BOND_UDEF_STEREO_COUNT>  (1) 
0

>  <PUBCHEM_ISOTOPIC_ATOM_COUNT>  (1) 
0

>  <PUBCHEM_COMPONENT_COUNT>  (1) 
1

>  <PUBCHEM_CACTVS_TAUTO_COUNT>  (1) 
5

>  <PUBCHEM_CONFORMER_ID>  (1) 
0000A95A00000002

>  <PUBCHEM_MMFF94_ENERGY>  (1) 
58.4702

>  <PUBCHEM_FEATURE_SELFOVERLAP>  (1) 
40.629

>  <PUBCHEM_SHAPE_FINGERPRINT>  (1) 
10618630 7 18334583455306560194
11132069 177 17989201564502768346
11357001 24 18189904123339697889
11578080 2 17416376918690625417
12363563 72 18261958547596971731
12500047 106 17977942381009049020
12553582 1 18338806735403571510
12730499 353 16893427967077277205
12759256 9 17977100494024891137
15422964 175 18262816153887392667
15885798 251 18261690224210684577
19433438 48 17917708024051030378
20361792 2 18338233881281854807
20524608 308 18123184606709804876
20711985 344 18190166915208683873
20871998 184 18270123400738272093
21061003 4 18114470079759597147
21304303 282 17174290704462067420
21339142 126 18341045237898203519
21524375 3 17471285163392266949
23402539 116 18335690668174590850
23526113 38 17897710192685393491
23557571 272 18261107448656952812
23598288 3 18261970565168465749
23598291 2 17914349114933274389
2748010 2 17841162043222788998
69090 78 18126277550119745933
6992083 37 18059866103283641355
81228 2 18335416820833477313
9709674 26 18126561215798543294

>  <PUBCHEM_SHAPE_MULTIPOLES>  (1) 
324.95
6.81
3.25
1.48
4.74
4.13
0.03
-4.56
1.41
-1.33
-1.23
-1.78
-1.03
0.33

>  <PUBCHEM_SHAPE_SELFOVERLAP>  (1) 
651.93

>  <PUBCHEM_SHAPE_VOLUME>  (1) 
183.9

>  <PUBCHEM_COORDINATE_TYPE>  (1) 
2
5
10

$$$$
