43353
     RDKit          3D

 17 17  0  0  0  0  0  0  0  0999 V2000
   -1.0103    0.7784    0.4621 N   0  0  0  0  0  0  0  0  0  0  0  0
    0.6499   -0.9413    0.2874 N   0  0  0  0  0  0  0  0  0  0  0  0
   -1.6687   -1.4399    0.0665 N   0  0  0  0  0  0  0  0  0  0  0  0
    4.3091    1.0800   -0.1669 N   0  0  0  0  0  0  0  0  0  0  0  0
   -0.9248   -3.7519   -0.5388 N   0  0  0  0  0  0  0  0  0  0  0  0
   -2.4562    1.0509    0.4654 C   0  0  0  0  0  0  0  0  0  0  0  0
   -3.0369    0.7125   -0.9226 C   0  0  0  0  0  0  0  0  0  0  0  0
   -3.0862    0.2214    1.5861 C   0  0  0  0  0  0  0  0  0  0  0  0
   -2.6468    2.5438    0.7570 C   0  0  0  0  0  0  0  0  0  0  0  0
   -2.4451    1.5100   -2.0792 C   0  0  0  0  0  0  0  0  0  0  0  0
   -0.6439   -0.4431    0.2660 C   0  0  0  0  0  0  0  0  0  0  0  0
    1.8792   -0.2618    0.1352 C   0  0  0  0  0  0  0  0  0  0  0  0
    3.0745   -0.9255    0.3795 C   0  0  0  0  0  0  0  0  0  0  0  0
    1.8932    1.0697   -0.2595 C   0  0  0  0  0  0  0  0  0  0  0  0
    4.2531   -0.2155    0.2155 C   0  0  0  0  0  0  0  0  0  0  0  0
    3.1245    1.6905   -0.3949 C   0  0  0  0  0  0  0  0  0  0  0  0
   -1.2645   -2.6782   -0.2586 C   0  0  0  0  0  0  0  0  0  0  0  0
  1  6  1  0
  1 11  2  0
  2 11  1  0
  2 12  1  0
  3 11  1  0
  3 17  1  0
  4 15  2  0
  4 16  1  0
  5 17  3  0
  6  7  1  0
  6  8  1  0
  6  9  1  0
  7 10  1  0
 12 13  2  0
 12 14  1  0
 13 15  1  0
 14 16  2  0
M  END
>  <PUBCHEM_COMPOUND_CID>  (1) 
43353

>  <PUBCHEM_CONFORMER_RMSD>  (1) 
0.6

>  <PUBCHEM_CONFORMER_DIVERSEORDER>  (1) 
1
6
16
11
19
14
15
17
18
20
9
4
8
12
10
2
13
21
3
7
5

>  <PUBCHEM_MMFF94_PARTIAL_CHARGES>  (1) 
19
1 -0.7
11 0.55
12 0.1
13 -0.15
14 -0.15
15 0.16
16 0.16
17 0.62
2 -0.55
29 0.4
3 -0.51
30 0.4
31 0.15
32 0.15
33 0.15
34 0.15
4 -0.62
5 -0.56
6 0.25

>  <PUBCHEM_EFFECTIVE_ROTOR_COUNT>  (1) 
5

>  <PUBCHEM_PHARMACOPHORE_FEATURES>  (1) 
8
1 10 hydrophobe
1 2 donor
1 3 donor
1 4 acceptor
1 5 acceptor
3 6 8 9 hydrophobe
4 1 2 3 11 cation
6 4 12 13 14 15 16 rings

>  <PUBCHEM_HEAVY_ATOM_COUNT>  (1) 
17

>  <PUBCHEM_ATOM_DEF_STEREO_COUNT>  (1) 
0

>  <PUBCHEM_ATOM_UDEF_STEREO_COUNT>  (1) 
0

>  <PUBCHEM_BOND_DEF_STEREO_COUNT>  (1) 
0

>  <PUBCHEM_BOND_UDEF_STEREO_COUNT>  (1) 
0

>  <PUBCHEM_ISOTOPIC_ATOM_COUNT>  (1) 
0

>  <PUBCHEM_COMPONENT_COUNT>  (1) 
1

>  <PUBCHEM_CACTVS_TAUTO_COUNT>  (1) 
5

>  <PUBCHEM_CONFORMER_ID>  (1) 
0000A95900000001

>  <PUBCHEM_MMFF94_ENERGY>  (1) 
87.5381

>  <PUBCHEM_FEATURE_SELFOVERLAP>  (1) 
40.63

>  <PUBCHEM_SHAPE_FINGERPRINT>  (1) 
121448 382 18058709369548104847
12173636 292 18343024367555577273
12403814 3 18113903805453976817
12500047 106 18342171168307563338
13583140 156 17530963562070820424
13931106 250 17844509210042356974
14178342 30 18339065091157124458
15309172 13 18338240366693034361
15442244 35 18409729526558017170
18186145 218 18339364050507534972
18219364 16 18262238820051307061
20645477 56 18411421739092772256
21524375 3 18261111837791464123
23402539 116 18202556255116943581
23419403 2 17056098977428852579
23557571 272 17986967434342495676
23559900 14 18202282512178176568
474 4 18124314909200810025
4921388 177 15554441912048798509
58051976 100 18335144214927056074
633830 44 17986115110461149836
69090 78 18408038520070256579
6992083 37 18260550039005316316
74978 22 18411979191530356536
7832392 63 18409732872295381608
81228 2 18048592909000382923

>  <PUBCHEM_SHAPE_MULTIPOLES>  (1) 
324.95
7.06
2.93
1.19
6.28
2.71
0.3
-3.35
-0.26
-1.59
0.57
-1.42
-0.47
-0.29

>  <PUBCHEM_SHAPE_SELFOVERLAP>  (1) 
660.914

>  <PUBCHEM_SHAPE_VOLUME>  (1) 
181.6

>  <PUBCHEM_COORDINATE_TYPE>  (1) 
2
5
10

$$$$
