43359
     RDKit          3D

 18 19  0  0  0  0  0  0  0  0999 V2000
    0.0963   -1.9618   -0.1546 O   0  0  0  0  0  0  0  0  0  0  0  0
    0.3419    1.5810    0.3687 O   0  0  0  0  0  0  0  0  0  0  0  0
   -3.7403    0.7858   -0.1401 O   0  0  0  0  0  0  0  0  0  0  0  0
    0.6310   -0.6709    0.0299 N   0  0  0  0  0  0  0  0  0  0  0  0
    2.0738   -0.6564    0.0116 C   0  0  0  0  0  0  0  0  0  0  0  0
    2.5925    0.2025   -1.1448 C   0  0  0  0  0  0  0  0  0  0  0  0
    2.6225   -0.1712    1.3556 C   0  0  0  0  0  0  0  0  0  0  0  0
    4.1172    0.2758   -1.1504 C   0  0  0  0  0  0  0  0  0  0  0  0
    4.1471   -0.0957    1.3467 C   0  0  0  0  0  0  0  0  0  0  0  0
    4.6620    0.7577    0.1912 C   0  0  0  0  0  0  0  0  0  0  0  0
   -0.1448    0.4617    0.2092 C   0  0  0  0  0  0  0  0  0  0  0  0
   -1.5985    0.2997    0.1776 C   0  0  0  0  0  0  0  0  0  0  0  0
   -2.4692    1.2559   -0.2376 C   0  0  0  0  0  0  0  0  0  0  0  0
   -2.3356   -0.8249    0.5556 C   0  0  0  0  0  0  0  0  0  0  0  0
   -0.0991   -2.1900   -1.5472 C   0  0  0  0  0  0  0  0  0  0  0  0
   -3.6504   -0.4811    0.3434 C   0  0  0  0  0  0  0  0  0  0  0  0
   -2.3268    2.6288   -0.7466 C   0  0  0  0  0  0  0  0  0  0  0  0
   -4.9197   -1.1970    0.5319 C   0  0  0  0  0  0  0  0  0  0  0  0
  1  4  1  0
  1 15  1  0
  2 11  2  0
  3 13  1  0
  3 16  1  0
  4  5  1  0
  4 11  1  0
  5  6  1  0
  5  7  1  0
  6  8  1  0
  7  9  1  0
  8 10  1  0
  9 10  1  0
 11 12  1  0
 12 13  2  0
 12 14  1  0
 13 17  1  0
 14 16  2  0
 16 18  1  0
M  END
>  <PUBCHEM_COMPOUND_CID>  (1) 
43359

>  <PUBCHEM_CONFORMER_RMSD>  (1) 
0.8

>  <PUBCHEM_CONFORMER_DIVERSEORDER>  (1) 
1
8
16
11
17
33
24
22
30
9
31
28
40
2
37
21
41
26
4
13
14
5
12
44
7
23
29
6
43
27
18
25
36
32
42
20
15
34
3
10
35
19
38
39

>  <PUBCHEM_MMFF94_PARTIAL_CHARGES>  (1) 
14
1 -0.32
11 0.72
12 -0.09
13 -0.04
14 -0.15
15 0.28
16 -0.04
17 0.18
18 0.18
2 -0.57
3 -0.28
30 0.15
4 -0.32
5 0.3

>  <PUBCHEM_EFFECTIVE_ROTOR_COUNT>  (1) 
5.2

>  <PUBCHEM_PHARMACOPHORE_FEATURES>  (1) 
4
1 2 acceptor
1 3 acceptor
5 3 12 13 14 16 rings
6 5 6 7 8 9 10 rings

>  <PUBCHEM_HEAVY_ATOM_COUNT>  (1) 
18

>  <PUBCHEM_ATOM_DEF_STEREO_COUNT>  (1) 
0

>  <PUBCHEM_ATOM_UDEF_STEREO_COUNT>  (1) 
0

>  <PUBCHEM_BOND_DEF_STEREO_COUNT>  (1) 
0

>  <PUBCHEM_BOND_UDEF_STEREO_COUNT>  (1) 
0

>  <PUBCHEM_ISOTOPIC_ATOM_COUNT>  (1) 
0

>  <PUBCHEM_COMPONENT_COUNT>  (1) 
1

>  <PUBCHEM_CACTVS_TAUTO_COUNT>  (1) 
1

>  <PUBCHEM_CONFORMER_ID>  (1) 
0000A95F00000001

>  <PUBCHEM_MMFF94_ENERGY>  (1) 
28.5901

>  <PUBCHEM_FEATURE_SELFOVERLAP>  (1) 
20.297

>  <PUBCHEM_SHAPE_FINGERPRINT>  (1) 
10906281 52 18262535731836610473
11132069 177 18272934950881466983
12107183 9 17101694259832649856
12236239 1 17822009813856580312
12403259 415 18130787841627826056
12670546 56 17313097549457145996
13140716 1 18124595538116416867
13538477 17 18041279988697723362
13583140 156 17896014646870966044
14178342 30 18197785409881997657
14251739 40 16805319977110541698
14289901 80 17895194363714550576
15099037 37 18334856108789495547
15309172 13 18131350812676288635
15375462 478 17967813859686361182
16945 1 18408040727820661763
17492 89 18041838398475509819
18186145 218 17203324498952095218
19026448 5 17240765060105499680
200 152 17095519621531848955
20261772 1 18271525402612722967
20510252 161 18412829053562174401
20645477 56 18059568144354103216
20645477 70 14346064322544749368
21065198 48 17676201347582494144
22079108 93 16845288388827320715
23048698 100 16515685554621988552
23227448 37 18126000705481887884
23402539 116 18040710381708205231
23419403 2 15819253484876064410
23557571 272 18337688412109196149
23559900 14 18048591526121257034
265663 24 17603585235775711754
2748010 2 18125447410546122815
3286 77 16153421757916367550
465052 167 18262528116559310819
474 4 16661784356580806660
5104073 3 18337111151018640561
573450 72 17822563928371580408
633830 44 16845576383252838536
69090 78 17775564273255859486
81228 2 17627205086076626782
9925002 15 17981040035628628413

>  <PUBCHEM_SHAPE_MULTIPOLES>  (1) 
347.84
8.95
1.92
1.2
1.09
0.36
-0.11
0.35
1.42
-1.64
-0.67
1.01
-0.27
0.4

>  <PUBCHEM_SHAPE_SELFOVERLAP>  (1) 
720.519

>  <PUBCHEM_SHAPE_VOLUME>  (1) 
199.4

>  <PUBCHEM_COORDINATE_TYPE>  (1) 
2
5
10

$$$$
