43366
     RDKit          3D

 14 15  0  0  0  0  0  0  0  0999 V2000
    1.3484    1.1667    0.0003 O   0  0  0  0  0  0  0  0  0  0  0  0
    0.4628   -2.8103    0.0005 O   0  0  0  0  0  0  0  0  0  0  0  0
   -0.3486   -0.5722    0.0002 C   0  0  0  0  0  0  0  0  0  0  0  0
    0.0354    0.7681    0.0001 C   0  0  0  0  0  0  0  0  0  0  0  0
   -1.7014   -0.9200   -0.0002 C   0  0  0  0  0  0  0  0  0  0  0  0
   -0.9347    1.7707   -0.0002 C   0  0  0  0  0  0  0  0  0  0  0  0
    0.6949   -1.6094    0.0004 C   0  0  0  0  0  0  0  0  0  0  0  0
   -2.6693    0.0851   -0.0004 C   0  0  0  0  0  0  0  0  0  0  0  0
   -2.2871    1.4275   -0.0004 C   0  0  0  0  0  0  0  0  0  0  0  0
    2.3327    0.1915    0.0000 C   0  0  0  0  0  0  0  0  0  0  0  0
    2.0896   -1.1274    0.0000 C   0  0  0  0  0  0  0  0  0  0  0  0
   -2.1919   -2.3314   -0.0002 C   0  0  0  0  0  0  0  0  0  0  0  0
   -0.5533    3.2148    0.0008 C   0  0  0  0  0  0  0  0  0  0  0  0
    3.7222    0.7464   -0.0009 C   0  0  0  0  0  0  0  0  0  0  0  0
  1  4  1  0
  1 10  1  0
  2  7  2  0
  3  4  2  0
  3  5  1  0
  3  7  1  0
  4  6  1  0
  5  8  2  0
  5 12  1  0
  6  9  2  0
  6 13  1  0
  7 11  1  0
  8  9  1  0
 10 11  2  0
 10 14  1  0
M  END
>  <PUBCHEM_COMPOUND_CID>  (1) 
43366

>  <PUBCHEM_CONFORMER_RMSD>  (1) 
0.4

>  <PUBCHEM_CONFORMER_DIVERSEORDER>  (1) 
1

>  <PUBCHEM_MMFF94_PARTIAL_CHARGES>  (1) 
17
1 -0.16
10 -0.06
11 -0.14
12 0.14
13 0.14
14 0.14
15 0.15
16 0.15
17 0.15
2 -0.57
3 0.09
4 0.08
5 -0.14
6 -0.14
7 0.47
8 -0.15
9 -0.15

>  <PUBCHEM_EFFECTIVE_ROTOR_COUNT>  (1) 
0

>  <PUBCHEM_PHARMACOPHORE_FEATURES>  (1) 
4
1 1 acceptor
1 2 acceptor
6 1 3 4 7 10 11 rings
6 3 4 5 6 8 9 rings

>  <PUBCHEM_HEAVY_ATOM_COUNT>  (1) 
14

>  <PUBCHEM_ATOM_DEF_STEREO_COUNT>  (1) 
0

>  <PUBCHEM_ATOM_UDEF_STEREO_COUNT>  (1) 
0

>  <PUBCHEM_BOND_DEF_STEREO_COUNT>  (1) 
0

>  <PUBCHEM_BOND_UDEF_STEREO_COUNT>  (1) 
0

>  <PUBCHEM_ISOTOPIC_ATOM_COUNT>  (1) 
0

>  <PUBCHEM_COMPONENT_COUNT>  (1) 
1

>  <PUBCHEM_CACTVS_TAUTO_COUNT>  (1) 
3

>  <PUBCHEM_CONFORMER_ID>  (1) 
0000A96600000001

>  <PUBCHEM_MMFF94_ENERGY>  (1) 
39.1252

>  <PUBCHEM_FEATURE_SELFOVERLAP>  (1) 
20.325

>  <PUBCHEM_SHAPE_FINGERPRINT>  (1) 
108231 29 18198063783797167064
10967382 1 18410856542581265669
11132069 177 18412542137056902928
12382932 28 18411420600657348641
12423570 1 13950000017793057693
12524768 44 18265618675940220167
13140716 1 18410855481634692728
13380535 76 18338509725345612687
14614273 12 18260821558063316045
14648413 74 17545042602195454184
16945 1 18266458698307184711
193761 8 18050567348215202822
19591789 44 16030715517021527676
19868273 325 18337672026370994733
19973954 147 17978510827977186125
20510252 161 18342740762522910544
20511035 2 17479714045184219078
20588541 1 18411702067197209193
20871998 184 18200878481892823303
21501502 16 18195243317296493120
22802520 49 18129401327231754630
2334 1 18266740366541592932
23402539 116 18199176468263830190
23419403 2 15683567625458909935
23463225 33 18262513694058760386
23552423 10 18048037376254677079
23559900 14 17912090452712007422
241688 4 14736481775756877617
2748010 2 18339640160742973837
2897 32 18121501249985832637
353137 74 18336823083198765729
43471831 8 18335134289489958258
528886 8 18411414029246648355
7364860 26 17981886350481903182

>  <PUBCHEM_SHAPE_MULTIPOLES>  (1) 
276.37
4.1
3.12
0.6
2.46
0.39
0
0.17
0
-1.12
0
-0.01
0.01
0

>  <PUBCHEM_SHAPE_SELFOVERLAP>  (1) 
599.714

>  <PUBCHEM_SHAPE_VOLUME>  (1) 
152.8

>  <PUBCHEM_COORDINATE_TYPE>  (1) 
2
5
10

$$$$
