43364
     RDKit          3D

 16 18  0  0  1  0  0  0  0  0999 V2000
    3.0875   -1.4759    0.3778 S   0  0  0  0  0  0  0  0  0  0  0  0
    2.5722    1.4393    0.6979 S   0  0  0  0  0  0  0  0  0  0  0  0
    0.1129    2.0410   -0.8731 O   0  0  0  0  0  0  0  0  0  0  0  0
    0.9398   -0.2075   -0.7660 C   0  0  0  0  0  0  0  0  0  0  0  0
    0.3345   -1.5774   -1.0701 C   0  0  0  0  0  0  0  0  0  0  0  0
    1.7964   -0.1994    0.4932 C   0  0  0  0  0  0  0  0  0  0  0  0
   -0.7426   -1.9685   -0.0661 C   0  0  0  0  0  0  0  0  0  0  0  0
   -0.1381    0.8585   -0.6540 C   0  0  0  0  0  0  0  0  0  0  0  0
   -1.7865   -0.8933    0.0614 C   0  0  0  0  0  0  0  0  0  0  0  0
   -1.4994    0.4521   -0.2149 C   0  0  0  0  0  0  0  0  0  0  0  0
    4.4099   -0.3614   -0.1490 C   0  0  0  0  0  0  0  0  0  0  0  0
    4.2997    0.8833    0.7073 C   0  0  0  0  0  0  0  0  0  0  0  0
   -3.0711   -1.2349    0.5089 C   0  0  0  0  0  0  0  0  0  0  0  0
   -2.4909    1.4307   -0.0696 C   0  0  0  0  0  0  0  0  0  0  0  0
   -4.0568   -0.2585    0.6541 C   0  0  0  0  0  0  0  0  0  0  0  0
   -3.7674    1.0719    0.3622 C   0  0  0  0  0  0  0  0  0  0  0  0
  1  6  1  0
  1 11  1  0
  2  6  1  0
  2 12  1  0
  3  8  2  0
  4  5  1  0
  4  6  1  0
  4  8  1  0
  5  7  1  0
  7  9  1  0
  8 10  1  0
  9 10  2  0
  9 13  1  0
 10 14  1  0
 11 12  1  0
 13 15  2  0
 14 16  2  0
 15 16  1  0
M  END
>  <PUBCHEM_COMPOUND_CID>  (1) 
43364

>  <PUBCHEM_CONFORMER_RMSD>  (1) 
0.6

>  <PUBCHEM_CONFORMER_DIVERSEORDER>  (1) 
1
9
6
11
8
10
12
5
7
3
4
2

>  <PUBCHEM_MMFF94_PARTIAL_CHARGES>  (1) 
19
1 -0.46
10 0.09
11 0.23
12 0.23
13 -0.15
14 -0.15
15 -0.15
16 -0.15
2 -0.46
27 0.15
28 0.15
29 0.15
3 -0.57
30 0.15
4 0.06
6 0.46
7 0.14
8 0.42
9 -0.14

>  <PUBCHEM_EFFECTIVE_ROTOR_COUNT>  (1) 
2.6

>  <PUBCHEM_PHARMACOPHORE_FEATURES>  (1) 
4
1 3 acceptor
5 1 2 6 11 12 rings
6 4 5 7 8 9 10 rings
6 9 10 13 14 15 16 rings

>  <PUBCHEM_HEAVY_ATOM_COUNT>  (1) 
16

>  <PUBCHEM_ATOM_DEF_STEREO_COUNT>  (1) 
0

>  <PUBCHEM_ATOM_UDEF_STEREO_COUNT>  (1) 
1

>  <PUBCHEM_BOND_DEF_STEREO_COUNT>  (1) 
0

>  <PUBCHEM_BOND_UDEF_STEREO_COUNT>  (1) 
0

>  <PUBCHEM_ISOTOPIC_ATOM_COUNT>  (1) 
0

>  <PUBCHEM_COMPONENT_COUNT>  (1) 
1

>  <PUBCHEM_CACTVS_TAUTO_COUNT>  (1) 
2

>  <PUBCHEM_CONFORMER_ID>  (1) 
0000A96400000001

>  <PUBCHEM_MMFF94_ENERGY>  (1) 
40.6981

>  <PUBCHEM_FEATURE_SELFOVERLAP>  (1) 
20.319

>  <PUBCHEM_SHAPE_FINGERPRINT>  (1) 
10608611 8 18341329998440609969
11132069 177 18408601457017450236
12011746 2 18410571773243345972
12119455 92 17561080293599229446
12251169 10 18410574011016291456
12382932 28 18338519642757285201
12507560 40 18411698790026347216
12633257 1 18195243308780438186
13140716 1 17831588578742920803
13214271 11 18411416202864097095
13221675 6 18335134306669301042
13581323 91 18334858315954344678
13675066 3 18040721346432690315
14943859 89 15985103033110218938
15196674 1 18410573972303550610
15209294 21 18059586741425553065
15219456 202 18271528606658118062
15309172 13 18060415807310067062
15375462 189 17603861200341101864
15536298 74 18413389834767919074
15653759 3 18334575741545095272
15775835 57 18413107264500740546
16945 1 18191309483957305839
17804303 29 18411987952852021308
1813 80 16950282897478581670
18175812 5 18412543197702692012
18186145 218 17275103942391768218
19862831 5 10663822983351109258
200 152 18059282232823895093
20510252 161 18342740680580973745
20528008 55 18412538812440849345
21267235 1 18335149703721161186
21637258 2 14924229378116922721
22854114 59 18202563981678368834
23175994 123 17346604054138519424
23184049 59 18412263947466280062
23402539 116 18340479045882920351
23463225 33 18334297556434218502
23532345 42 18260552233575257812
23559900 14 18263364694663177782
2748010 2 18193008019343485775
5104073 3 18409729530251618066
53812653 166 18341615884327537142
633830 44 17561086864989018900
69090 78 18272646870245081087
81228 2 17695878387840558990
84936 31 16557627400479111054
90316 7 17822287933826081877

>  <PUBCHEM_SHAPE_MULTIPOLES>  (1) 
331.1
7.68
1.98
0.94
2.06
0.08
0.06
-0.85
-2.3
0
0.12
0.11
-0.02
0.38

>  <PUBCHEM_SHAPE_SELFOVERLAP>  (1) 
685.082

>  <PUBCHEM_SHAPE_VOLUME>  (1) 
190.3

>  <PUBCHEM_COORDINATE_TYPE>  (1) 
2
5
10

$$$$
