43384
     RDKit          3D

 22 26  0  0  0  0  0  0  0  0999 V2000
    0.7648   -2.9208    0.4545 O   0  0  0  0  0  0  0  0  0  0  0  0
   -1.7419   -3.2768   -0.2611 O   0  0  0  0  0  0  0  0  0  0  0  0
   -0.2524    0.5108    0.0206 C   0  0  0  0  0  0  0  0  0  0  0  0
   -1.6628    0.3092    0.0071 C   0  0  0  0  0  0  0  0  0  0  0  0
    0.6906   -0.5537    0.0316 C   0  0  0  0  0  0  0  0  0  0  0  0
    0.2384    1.8344    0.0260 C   0  0  0  0  0  0  0  0  0  0  0  0
    2.1039   -0.3197   -0.0125 C   0  0  0  0  0  0  0  0  0  0  0  0
   -2.2343   -0.9734   -0.0403 C   0  0  0  0  0  0  0  0  0  0  0  0
   -2.5468    1.4175    0.0198 C   0  0  0  0  0  0  0  0  0  0  0  0
    2.5465    1.0245   -0.0095 C   0  0  0  0  0  0  0  0  0  0  0  0
    1.6172    2.0704    0.0184 C   0  0  0  0  0  0  0  0  0  0  0  0
    0.1252   -1.9285    0.1449 C   0  0  0  0  0  0  0  0  0  0  0  0
   -0.6499    2.9168    0.0415 C   0  0  0  0  0  0  0  0  0  0  0  0
   -1.3427   -2.1381   -0.0749 C   0  0  0  0  0  0  0  0  0  0  0  0
   -2.0254    2.7119    0.0430 C   0  0  0  0  0  0  0  0  0  0  0  0
   -3.6190   -1.1710   -0.0666 C   0  0  0  0  0  0  0  0  0  0  0  0
   -3.9365    1.2141    0.0010 C   0  0  0  0  0  0  0  0  0  0  0  0
    3.1166   -1.3149   -0.0759 C   0  0  0  0  0  0  0  0  0  0  0  0
    3.9189    1.3306   -0.0375 C   0  0  0  0  0  0  0  0  0  0  0  0
   -4.4683   -0.0723   -0.0416 C   0  0  0  0  0  0  0  0  0  0  0  0
    4.4780   -0.9979   -0.1064 C   0  0  0  0  0  0  0  0  0  0  0  0
    4.8799    0.3268   -0.0820 C   0  0  0  0  0  0  0  0  0  0  0  0
  1 12  2  0
  2 14  2  0
  3  4  1  0
  3  5  2  0
  3  6  1  0
  4  8  2  0
  4  9  1  0
  5  7  1  0
  5 12  1  0
  6 11  2  0
  6 13  1  0
  7 10  2  0
  7 18  1  0
  8 14  1  0
  8 16  1  0
  9 15  1  0
  9 17  2  0
 10 11  1  0
 10 19  1  0
 12 14  1  0
 13 15  2  0
 16 20  2  0
 17 20  1  0
 18 21  2  0
 19 22  2  0
 21 22  1  0
M  END
>  <PUBCHEM_COMPOUND_CID>  (1) 
43384

>  <PUBCHEM_CONFORMER_RMSD>  (1) 
0.6

>  <PUBCHEM_CONFORMER_DIVERSEORDER>  (1) 
1

>  <PUBCHEM_MMFF94_PARTIAL_CHARGES>  (1) 
26
1 -0.57
11 -0.15
12 0.48
13 -0.15
14 0.48
15 -0.15
16 -0.15
17 -0.15
18 -0.15
19 -0.15
2 -0.57
20 -0.15
21 -0.15
22 -0.15
23 0.15
24 0.15
25 0.15
26 0.15
27 0.15
28 0.15
29 0.15
30 0.15
31 0.15
32 0.15
5 0.09
8 0.09

>  <PUBCHEM_EFFECTIVE_ROTOR_COUNT>  (1) 
0

>  <PUBCHEM_PHARMACOPHORE_FEATURES>  (1) 
7
1 1 acceptor
1 2 acceptor
6 3 4 5 8 12 14 rings
6 3 4 6 9 13 15 rings
6 3 5 6 7 10 11 rings
6 4 8 9 16 17 20 rings
6 7 10 18 19 21 22 rings

>  <PUBCHEM_HEAVY_ATOM_COUNT>  (1) 
22

>  <PUBCHEM_ATOM_DEF_STEREO_COUNT>  (1) 
0

>  <PUBCHEM_ATOM_UDEF_STEREO_COUNT>  (1) 
0

>  <PUBCHEM_BOND_DEF_STEREO_COUNT>  (1) 
0

>  <PUBCHEM_BOND_UDEF_STEREO_COUNT>  (1) 
0

>  <PUBCHEM_ISOTOPIC_ATOM_COUNT>  (1) 
0

>  <PUBCHEM_COMPONENT_COUNT>  (1) 
1

>  <PUBCHEM_CACTVS_TAUTO_COUNT>  (1) 
1

>  <PUBCHEM_CONFORMER_ID>  (1) 
0000A97800000001

>  <PUBCHEM_MMFF94_ENERGY>  (1) 
77.2376

>  <PUBCHEM_FEATURE_SELFOVERLAP>  (1) 
35.673

>  <PUBCHEM_SHAPE_FINGERPRINT>  (1) 
10319926 262 18198036202645931480
10411042 1 17906172106813564466
10493431 412 18198352762440881873
10616163 171 18338800013579189098
10693767 8 18058426834184504247
10967382 1 18410573980867039857
1100329 8 18338237192759811801
11458722 379 18410295787255899422
11578080 2 16771252867443528011
12011746 2 18410289199113768685
12236239 1 17749107790662163800
12403814 3 17530961380343666965
12553582 1 18339070587928876531
12838862 33 18338215120986492845
13140716 1 18266748059176277507
13583140 156 14189584013417394326
138480 1 17041761985378168879
13862211 1 18410849975687384175
14223421 5 18193840332001417693
14765038 42 18200896009691632705
14790565 3 18339089198344807025
15042514 8 18337394940993746667
15196674 1 18410575084663117901
15209289 33 18413671313865621169
15442244 35 18409728435530802802
15536298 74 18342457045467671984
16752209 62 18409441462473824376
16945 1 18337947866524842201
17804303 29 18341615940252101064
1813 80 17458060491084121636
19591789 44 18338517409237193106
20028762 73 18057326295943856735
20510252 161 18343302526680431144
20775438 99 16546321479363000935
20905425 154 18125441903917962510
21029758 11 18342734143809612401
21267235 1 18410583885061715375
21421861 104 17899134910425284035
21478907 32 17907857654397748927
2334 1 18122343750971121475
23366157 5 17753620035632069970
23402539 116 18342730827836066087
23559900 14 18343017844075527528
23566358 2 18196652886908445583
238 59 16454849301448438477
2748010 2 18194680599561436609
2871803 45 18409725127878633237
3178227 256 18336560408259202851
335352 9 18410856516700718533
34934 24 18339075003577262986
350125 39 18265899042625542344
43471831 8 18263078825523414698
484989 97 18119240921359641151
5104073 3 18411419496829895592
59755656 215 18338519612418233887
69090 78 18412261731226232010
8809292 202 18336548316876341602
9709674 26 18342745109056272246

>  <PUBCHEM_SHAPE_MULTIPOLES>  (1) 
441.01
7.83
3.3
0.62
3.58
0.52
0
-0.11
0.32
-1.18
-0.07
0.01
0.01
-0.11

>  <PUBCHEM_SHAPE_SELFOVERLAP>  (1) 
1038.64

>  <PUBCHEM_SHAPE_VOLUME>  (1) 
221.2

>  <PUBCHEM_COORDINATE_TYPE>  (1) 
2
5
10

$$$$
