43380
     RDKit          3D

 24 25  0  0  0  0  0  0  0  0999 V2000
    4.1395   -2.3144   -0.6083 O   0  0  0  0  0  0  0  0  0  0  0  0
    4.0721    2.3862    0.3044 O   0  0  0  0  0  0  0  0  0  0  0  0
    5.4591    0.1163   -0.4645 O   0  0  0  0  0  0  0  0  0  0  0  0
   -0.3315   -0.4179    1.9726 O   0  0  0  0  0  0  0  0  0  0  0  0
   -6.4771   -0.0130   -0.1978 N   0  0  0  0  0  0  0  0  0  0  0  0
   -0.8823   -0.0124   -0.2719 N   0  0  0  0  0  0  0  0  0  0  0  0
    1.4194   -0.1233    0.4697 C   0  0  0  0  0  0  0  0  0  0  0  0
   -5.0670   -0.0123   -0.2164 C   0  0  0  0  0  0  0  0  0  0  0  0
   -2.2988   -0.0125   -0.2532 C   0  0  0  0  0  0  0  0  0  0  0  0
    2.0806    1.1027    0.5429 C   0  0  0  0  0  0  0  0  0  0  0  0
    2.1149   -1.2690    0.0831 C   0  0  0  0  0  0  0  0  0  0  0  0
    3.4717   -1.1888   -0.2303 C   0  0  0  0  0  0  0  0  0  0  0  0
    3.4373    1.1830    0.2294 C   0  0  0  0  0  0  0  0  0  0  0  0
    0.0044   -0.2069    0.7962 C   0  0  0  0  0  0  0  0  0  0  0  0
    4.1330    0.0373   -0.1572 C   0  0  0  0  0  0  0  0  0  0  0  0
   -4.3536   -0.2267    0.9631 C   0  0  0  0  0  0  0  0  0  0  0  0
   -4.3853    0.2018   -1.4145 C   0  0  0  0  0  0  0  0  0  0  0  0
   -2.9589   -0.2266    0.9445 C   0  0  0  0  0  0  0  0  0  0  0  0
   -2.9906    0.2018   -1.4329 C   0  0  0  0  0  0  0  0  0  0  0  0
   -7.1982   -0.8204    0.7658 C   0  0  0  0  0  0  0  0  0  0  0  0
   -7.2237    0.8048   -1.1332 C   0  0  0  0  0  0  0  0  0  0  0  0
    5.7932    0.3842   -1.8244 C   0  0  0  0  0  0  0  0  0  0  0  0
    4.7529   -3.0819    0.4254 C   0  0  0  0  0  0  0  0  0  0  0  0
    3.2890    3.5079    0.7075 C   0  0  0  0  0  0  0  0  0  0  0  0
  1 12  1  0
  1 23  1  0
  2 13  1  0
  2 24  1  0
  3 15  1  0
  3 22  1  0
  4 14  2  0
  5  8  1  0
  5 20  1  0
  5 21  1  0
  6  9  1  0
  6 14  1  0
  7 10  2  0
  7 11  1  0
  7 14  1  0
  8 16  2  0
  8 17  1  0
  9 18  2  0
  9 19  1  0
 10 13  1  0
 11 12  2  0
 12 15  1  0
 13 15  2  0
 16 18  1  0
 17 19  2  0
M  END
>  <PUBCHEM_COMPOUND_CID>  (1) 
43380

>  <PUBCHEM_CONFORMER_RMSD>  (1) 
0.8

>  <PUBCHEM_CONFORMER_DIVERSEORDER>  (1) 
4
1
3
5
7
2
6

>  <PUBCHEM_MMFF94_PARTIAL_CHARGES>  (1) 
31
1 -0.36
10 -0.15
11 -0.15
12 0.08
13 0.08
14 0.54
15 0.08
16 -0.15
17 -0.15
18 -0.15
19 -0.15
2 -0.36
20 0.37
21 0.37
22 0.28
23 0.28
24 0.28
25 0.15
26 0.15
27 0.37
28 0.15
29 0.15
3 -0.36
30 0.15
31 0.15
4 -0.57
5 -0.84
6 -0.55
7 0.09
8 0.1
9 0.12

>  <PUBCHEM_EFFECTIVE_ROTOR_COUNT>  (1) 
7

>  <PUBCHEM_PHARMACOPHORE_FEATURES>  (1) 
8
1 1 acceptor
1 2 acceptor
1 3 acceptor
1 4 acceptor
1 5 cation
1 6 donor
6 7 10 11 12 13 15 rings
6 8 9 16 17 18 19 rings

>  <PUBCHEM_HEAVY_ATOM_COUNT>  (1) 
24

>  <PUBCHEM_ATOM_DEF_STEREO_COUNT>  (1) 
0

>  <PUBCHEM_ATOM_UDEF_STEREO_COUNT>  (1) 
0

>  <PUBCHEM_BOND_DEF_STEREO_COUNT>  (1) 
0

>  <PUBCHEM_BOND_UDEF_STEREO_COUNT>  (1) 
0

>  <PUBCHEM_ISOTOPIC_ATOM_COUNT>  (1) 
0

>  <PUBCHEM_COMPONENT_COUNT>  (1) 
1

>  <PUBCHEM_CACTVS_TAUTO_COUNT>  (1) 
2

>  <PUBCHEM_CONFORMER_ID>  (1) 
0000A97400000004

>  <PUBCHEM_MMFF94_ENERGY>  (1) 
122.0674

>  <PUBCHEM_FEATURE_SELFOVERLAP>  (1) 
40.606

>  <PUBCHEM_SHAPE_FINGERPRINT>  (1) 
10411042 1 18124314909892153170
10595046 47 18201435926283629353
10670039 82 15647614432797146614
10673678 19 17751379471948522180
10693767 8 17988653935373250902
11796584 16 17346314937903578974
12236239 1 17275390905946403625
12390115 104 17169543009976215413
12616971 3 17917701397216666791
12730499 353 18334860545417008818
12788726 201 16988854856218384667
12916748 109 16805041800425919910
13533116 47 18411138021731611339
13540713 4 17980775041227402570
13540713 5 18052274899502511216
13668630 136 17346885554510468263
13955234 65 18412818110417787186
14170010 4 18341608227223800888
14251752 14 17703505494487329321
14461889 52 18192145112905426459
14933364 13 18408041797963909125
15183329 4 17918274230074504109
17844677 252 18412547579054974729
18335252 98 18113909290254126355
18681886 176 16917350351273808114
20157964 124 18342457084106794080
20369508 70 18261949653363345042
20612939 158 18201441414935595512
20645477 70 18337955593419395306
21033648 29 17822005453795297073
22061861 79 18409164385928818231
221357 26 18410009910033156188
22224240 67 8142080928271394644
22289505 5 18334857199938347612
2303208 19 18040724654032476491
23424782 7 18188496890844420507
23559900 14 17676491639684088091
29717793 49 17132121251102942452
3004659 81 17418375791974281540
3014965 18 18339637850425374879
3383291 50 14404890441536932813
3472631 163 15864365683050417614
34797466 226 17313111855829692151
3545911 37 18260831522519064327
4073 2 18188775070953480787
46194498 28 18412827980052550156
5281201 14 18408882906414462764
59682541 52 18412258420064916455
6025842 7 18342739628693742174

>  <PUBCHEM_SHAPE_MULTIPOLES>  (1) 
460.47
17.9
2.26
1.33
21.84
0.6
0.19
-0.86
4.39
-5.64
-0.56
0.41
0.1
1.07

>  <PUBCHEM_SHAPE_SELFOVERLAP>  (1) 
971.049

>  <PUBCHEM_SHAPE_VOLUME>  (1) 
260.5

>  <PUBCHEM_COORDINATE_TYPE>  (1) 
2
5
10

$$$$
