43383
     RDKit          3D

 22 26  0  0  1  0  0  0  0  0999 V2000
   -3.0846    1.4642   -1.3411 O   0  0  0  0  0  0  0  0  0  0  0  0
   -5.2397    1.3012    0.2888 O   0  0  0  0  0  0  0  0  0  0  0  0
   -1.6578    0.1704    0.0355 C   0  0  0  0  0  0  0  0  0  0  0  0
    0.7448   -0.3127    0.0100 C   0  0  0  0  0  0  0  0  0  0  0  0
   -0.3111    0.6362    0.0415 C   0  0  0  0  0  0  0  0  0  0  0  0
   -2.8452    1.1189    0.0249 C   0  0  0  0  0  0  0  0  0  0  0  0
   -1.9236   -1.2157   -0.0374 C   0  0  0  0  0  0  0  0  0  0  0  0
    2.1027    0.1108    0.0271 C   0  0  0  0  0  0  0  0  0  0  0  0
    0.4597   -1.6972   -0.0465 C   0  0  0  0  0  0  0  0  0  0  0  0
   -4.1132    0.5072    0.6504 C   0  0  0  0  0  0  0  0  0  0  0  0
   -0.8692   -2.1312   -0.0789 C   0  0  0  0  0  0  0  0  0  0  0  0
    2.4171    1.4870    0.0688 C   0  0  0  0  0  0  0  0  0  0  0  0
    3.1511   -0.8406   -0.0003 C   0  0  0  0  0  0  0  0  0  0  0  0
    0.0457    2.0017    0.0695 C   0  0  0  0  0  0  0  0  0  0  0  0
   -3.3038   -1.7164   -0.0862 C   0  0  0  0  0  0  0  0  0  0  0  0
   -4.3288   -0.9189    0.2398 C   0  0  0  0  0  0  0  0  0  0  0  0
    1.5100   -2.6242   -0.0754 C   0  0  0  0  0  0  0  0  0  0  0  0
    1.3786    2.4190    0.0860 C   0  0  0  0  0  0  0  0  0  0  0  0
    2.8383   -2.2024   -0.0500 C   0  0  0  0  0  0  0  0  0  0  0  0
    3.7593    1.8945    0.0878 C   0  0  0  0  0  0  0  0  0  0  0  0
    4.4843   -0.4054    0.0206 C   0  0  0  0  0  0  0  0  0  0  0  0
    4.7855    0.9535    0.0650 C   0  0  0  0  0  0  0  0  0  0  0  0
  1  6  1  0
  2 10  1  0
  3  5  1  0
  3  6  1  0
  3  7  2  0
  4  5  2  0
  4  8  1  0
  4  9  1  0
  5 14  1  0
  6 10  1  0
  7 11  1  0
  7 15  1  0
  8 12  2  0
  8 13  1  0
  9 11  2  0
  9 17  1  0
 10 16  1  0
 12 18  1  0
 12 20  1  0
 13 19  1  0
 13 21  2  0
 14 18  2  0
 15 16  2  0
 17 19  2  0
 20 22  2  0
 21 22  1  0
M  END
>  <PUBCHEM_COMPOUND_CID>  (1) 
43383

>  <PUBCHEM_CONFORMER_RMSD>  (1) 
0.6

>  <PUBCHEM_CONFORMER_DIVERSEORDER>  (1) 
1

>  <PUBCHEM_MMFF94_PARTIAL_CHARGES>  (1) 
28
1 -0.68
10 0.42
11 -0.15
14 -0.15
15 -0.18
16 -0.29
17 -0.15
18 -0.15
19 -0.15
2 -0.68
20 -0.15
21 -0.15
22 -0.15
25 0.15
26 0.15
27 0.15
28 0.15
29 0.15
3 -0.14
30 0.15
31 0.15
32 0.15
33 0.15
34 0.4
35 0.15
36 0.4
6 0.42
7 0.03

>  <PUBCHEM_EFFECTIVE_ROTOR_COUNT>  (1) 
0.4

>  <PUBCHEM_PHARMACOPHORE_FEATURES>  (1) 
9
1 1 acceptor
1 1 donor
1 2 acceptor
1 2 donor
6 3 4 5 7 9 11 rings
6 3 6 7 10 15 16 rings
6 4 5 8 12 14 18 rings
6 4 8 9 13 17 19 rings
6 8 12 13 20 21 22 rings

>  <PUBCHEM_HEAVY_ATOM_COUNT>  (1) 
22

>  <PUBCHEM_ATOM_DEF_STEREO_COUNT>  (1) 
2

>  <PUBCHEM_ATOM_UDEF_STEREO_COUNT>  (1) 
0

>  <PUBCHEM_BOND_DEF_STEREO_COUNT>  (1) 
0

>  <PUBCHEM_BOND_UDEF_STEREO_COUNT>  (1) 
0

>  <PUBCHEM_ISOTOPIC_ATOM_COUNT>  (1) 
0

>  <PUBCHEM_COMPONENT_COUNT>  (1) 
1

>  <PUBCHEM_CACTVS_TAUTO_COUNT>  (1) 
1

>  <PUBCHEM_CONFORMER_ID>  (1) 
0000A97700000001

>  <PUBCHEM_MMFF94_ENERGY>  (1) 
76.2498

>  <PUBCHEM_FEATURE_SELFOVERLAP>  (1) 
45.835

>  <PUBCHEM_SHAPE_FINGERPRINT>  (1) 
10411042 1 17474672750165043951
10608611 8 18408601452875444255
10616163 171 18267869556515216831
10906281 52 18263943158201749072
10967382 1 18411138017827027674
11112241 14 16627969997328400384
11471102 20 18411698768414295614
11578080 2 16952236630361318806
12107183 9 17765723416759388601
12236239 1 17632294545555819849
12403814 3 17967811661132668989
12592029 89 18408888446964407898
12788726 201 17560531594310945192
12838862 33 18339624699367604152
13132413 78 18413671326634374700
13140716 1 18339073891270371992
13224815 77 18409725170775337647
138480 1 18122908625297316322
14790565 3 18193284219963810772
15196674 1 18411701006176782762
15442244 35 18340489945797618051
15536298 74 18343304768832499478
1601671 61 18411139138829387680
16945 1 18267304218786494422
1813 80 17167865270135913076
18186145 218 18413109450533462716
19591789 44 18267022936771939310
200 152 18131626816449940911
20691752 17 17821442478045490370
20739085 24 18121806957210686777
21267235 1 18411709802322864274
21279426 13 18340209583692126030
21421861 104 18042117653296480634
221490 88 18409175406414245898
23227448 37 18412824720156554495
2334 1 18339077215480191118
23402539 116 18272928349627236620
23559900 14 18342457002929689566
238 59 17830690401811712053
2748010 2 18339363067123547998
335352 9 18411702058892144070
34934 24 18412541003085348786
350125 39 18339645654644403435
3680242 22 18335700495070437594
4214541 1 18411138056339380049
474 4 18334859462731724842
5104073 3 18410011056683520723
6138700 20 18411142399274314702
7364860 26 18341615888944498214
7832392 63 18341891935050872230
8272917 22 18342182119978497230
9709674 26 18410580612313064198
9981440 41 17040911538735746232

>  <PUBCHEM_SHAPE_MULTIPOLES>  (1) 
441.01
8.94
2.78
0.7
2.95
0.47
-0.06
-1.94
0.55
-0.82
-0.09
0.26
-0.1
0.15

>  <PUBCHEM_SHAPE_SELFOVERLAP>  (1) 
1026.314

>  <PUBCHEM_SHAPE_VOLUME>  (1) 
225.6

>  <PUBCHEM_COORDINATE_TYPE>  (1) 
2
5
10

$$$$
