43397
     RDKit          3D

 15 16  0  0  0  0  0  0  0  0999 V2000
    3.5828    2.2365   -0.2042 Cl  0  0  0  0  0  0  0  0  0  0  0  0
    2.1377   -3.0135    0.1849 Cl  0  0  0  0  0  0  0  0  0  0  0  0
   -1.6837    1.9007    0.4775 O   0  0  0  0  0  0  0  0  0  0  0  0
   -2.2746   -0.1598   -0.4070 N   0  0  0  0  0  0  0  0  0  0  0  0
    4.1068   -0.7333   -0.0322 N   0  0  0  0  0  0  0  0  0  0  0  0
   -3.6976    0.0855   -0.4672 C   0  0  0  0  0  0  0  0  0  0  0  0
   -4.6606   -1.0503   -0.4531 C   0  0  0  0  0  0  0  0  0  0  0  0
   -4.5515   -0.1369    0.7325 C   0  0  0  0  0  0  0  0  0  0  0  0
   -1.3476    0.7756    0.0675 C   0  0  0  0  0  0  0  0  0  0  0  0
    0.0538    0.3878    0.0415 C   0  0  0  0  0  0  0  0  0  0  0  0
    0.4062   -0.9598    0.1150 C   0  0  0  0  0  0  0  0  0  0  0  0
    1.0458    1.3635   -0.0568 C   0  0  0  0  0  0  0  0  0  0  0  0
    2.3900    0.9917   -0.0813 C   0  0  0  0  0  0  0  0  0  0  0  0
    1.7504   -1.3317    0.0905 C   0  0  0  0  0  0  0  0  0  0  0  0
    2.7422   -0.3559   -0.0076 C   0  0  0  0  0  0  0  0  0  0  0  0
  1 13  1  0
  2 14  1  0
  3  9  2  0
  4  6  1  0
  4  9  1  0
  5 15  1  0
  6  7  1  0
  6  8  1  0
  7  8  1  0
  9 10  1  0
 10 11  2  0
 10 12  1  0
 11 14  1  0
 12 13  2  0
 13 15  1  0
 14 15  2  0
M  END
>  <PUBCHEM_COMPOUND_CID>  (1) 
43397

>  <PUBCHEM_CONFORMER_RMSD>  (1) 
0.6

>  <PUBCHEM_CONFORMER_DIVERSEORDER>  (1) 
1
2
3

>  <PUBCHEM_MMFF94_PARTIAL_CHARGES>  (1) 
25
1 -0.18
10 0.09
11 -0.15
12 -0.15
13 0.18
14 0.18
15 0.1
16 0.1
17 0.1
18 0.1
19 0.1
2 -0.18
20 0.1
21 0.37
22 0.15
23 0.15
24 0.4
25 0.4
3 -0.57
4 -0.58
5 -0.9
6 0.05
7 -0.2
8 -0.2
9 0.54

>  <PUBCHEM_EFFECTIVE_ROTOR_COUNT>  (1) 
3.6

>  <PUBCHEM_PHARMACOPHORE_FEATURES>  (1) 
5
1 3 acceptor
1 4 donor
1 5 cation
1 5 donor
6 10 11 12 13 14 15 rings

>  <PUBCHEM_HEAVY_ATOM_COUNT>  (1) 
15

>  <PUBCHEM_ATOM_DEF_STEREO_COUNT>  (1) 
0

>  <PUBCHEM_ATOM_UDEF_STEREO_COUNT>  (1) 
0

>  <PUBCHEM_BOND_DEF_STEREO_COUNT>  (1) 
0

>  <PUBCHEM_BOND_UDEF_STEREO_COUNT>  (1) 
0

>  <PUBCHEM_ISOTOPIC_ATOM_COUNT>  (1) 
0

>  <PUBCHEM_COMPONENT_COUNT>  (1) 
1

>  <PUBCHEM_CACTVS_TAUTO_COUNT>  (1) 
3

>  <PUBCHEM_CONFORMER_ID>  (1) 
0000A98500000001

>  <PUBCHEM_MMFF94_ENERGY>  (1) 
48.0026

>  <PUBCHEM_FEATURE_SELFOVERLAP>  (1) 
25.371

>  <PUBCHEM_SHAPE_FINGERPRINT>  (1) 
11471102 20 18409726296157100021
11806522 49 18409448055422690438
13380535 76 18261955257894388698
13760787 5 18341893013388220669
13862211 1 18336543812284453242
14178342 30 18052526686895112944
14251717 144 18410291432143236942
14252887 29 17846785078847110702
14576447 43 18411976957757277999
15196674 1 18411136978539998015
15375358 24 18041277755293253787
15375462 189 18202280316774836779
15442244 35 18123753045546813641
15477762 27 18409448051164711406
16945 1 18336834091669164472
18186145 218 17530680979472562321
19050596 39 18341897376863951297
19422 9 18273498961960523883
200 152 18341891887906211929
20281475 54 18343298150614905011
20559304 39 18341047437164045690
20645477 70 18336255774323167543
21267235 1 18412271622562593855
21501502 16 18340210665712998753
21501925 9 18337663123130715058
221490 88 18335988575300725451
22485316 2 18412541025087491671
2255824 54 18409169926436363612
22959321 4 18409165476401852003
23402539 116 18412256225283880591
23402655 69 18411416207211987309
23559900 14 18266449919394252706
25610 137 18411138056518961889
2748010 2 18191321566148689218
2871803 45 18335698325816384543
3071541 37 18334018319721057548
33824 294 18408039636667074458
42630746 31 18412541050604191740
449060 62 18341334482497269224
5104073 3 18410575085090659569
58051976 378 18412824676969491526
581208 293 18410289237414987729
602551 16 15410322390551044271
7364860 26 18412824668817101282
81539 233 18187925127100675230
9709674 26 18336270054815314883

>  <PUBCHEM_SHAPE_MULTIPOLES>  (1) 
296.6
8.46
2.4
0.7
8.29
0.98
0.01
0.41
-0.3
-2.75
0.11
0.31
0
-0.39

>  <PUBCHEM_SHAPE_SELFOVERLAP>  (1) 
605.546

>  <PUBCHEM_SHAPE_VOLUME>  (1) 
174.1

>  <PUBCHEM_COORDINATE_TYPE>  (1) 
2
5
10

$$$$
