4340
     RDKit          3D

 14 15  0  0  1  0  0  0  0  0999 V2000
   -1.9125   -1.4024    1.1821 S   0  0  0  0  0  0  0  0  0  0  0  0
    0.5961   -1.0012    0.3881 O   0  0  0  0  0  0  0  0  0  0  0  0
    0.7342    2.5800    1.1249 O   0  0  0  0  0  0  0  0  0  0  0  0
    0.7943    0.6644   -1.9473 O   0  0  0  0  0  0  0  0  0  0  0  0
    3.1180   -2.0938    0.2600 O   0  0  0  0  0  0  0  0  0  0  0  0
   -1.9032    0.6100   -0.4877 N   0  0  0  0  0  0  0  0  0  0  0  0
   -0.9346    0.9243    0.5945 C   0  0  0  0  0  0  0  0  0  0  0  0
    0.1705    1.8331    0.0444 C   0  0  0  0  0  0  0  0  0  0  0  0
    1.2847    1.0655   -0.6693 C   0  0  0  0  0  0  0  0  0  0  0  0
   -0.4086   -0.3885    1.1903 C   0  0  0  0  0  0  0  0  0  0  0  0
    1.7222   -0.1581    0.1458 C   0  0  0  0  0  0  0  0  0  0  0  0
    2.7718   -1.0003   -0.5706 C   0  0  0  0  0  0  0  0  0  0  0  0
   -2.4784   -0.5145   -0.2101 C   0  0  0  0  0  0  0  0  0  0  0  0
   -3.5546   -1.1185   -1.0452 C   0  0  0  0  0  0  0  0  0  0  0  0
  1 10  1  0
  1 13  1  0
  2 10  1  0
  2 11  1  0
  3  8  1  0
  4  9  1  0
  5 12  1  0
  6  7  1  0
  6 13  2  0
  7  8  1  0
  7 10  1  0
  8  9  1  0
  9 11  1  0
 11 12  1  0
 13 14  1  0
M  END
>  <PUBCHEM_COMPOUND_CID>  (1) 
4340

>  <PUBCHEM_CONFORMER_RMSD>  (1) 
0.6

>  <PUBCHEM_CONFORMER_DIVERSEORDER>  (1) 
1
34
24
19
36
2
48
23
37
18
29
46
47
40
12
50
3
17
28
22
39
38
14
16
43
49
51
15
30
5
26
4
31
13
44
10
8
11
20
7
9
35
27
6
25
32
42
21
33
45
41

>  <PUBCHEM_MMFF94_PARTIAL_CHARGES>  (1) 
17
1 -0.37
10 0.51
11 0.28
12 0.28
13 0.53
14 0.06
2 -0.56
22 0.4
23 0.4
27 0.4
3 -0.68
4 -0.68
5 -0.68
6 -0.7
7 0.25
8 0.28
9 0.28

>  <PUBCHEM_EFFECTIVE_ROTOR_COUNT>  (1) 
2

>  <PUBCHEM_PHARMACOPHORE_FEATURES>  (1) 
10
1 2 acceptor
1 3 acceptor
1 3 donor
1 4 acceptor
1 4 donor
1 5 acceptor
1 5 donor
1 6 acceptor
5 1 6 7 10 13 rings
6 2 7 8 9 10 11 rings

>  <PUBCHEM_HEAVY_ATOM_COUNT>  (1) 
14

>  <PUBCHEM_ATOM_DEF_STEREO_COUNT>  (1) 
0

>  <PUBCHEM_ATOM_UDEF_STEREO_COUNT>  (1) 
5

>  <PUBCHEM_BOND_DEF_STEREO_COUNT>  (1) 
0

>  <PUBCHEM_BOND_UDEF_STEREO_COUNT>  (1) 
0

>  <PUBCHEM_ISOTOPIC_ATOM_COUNT>  (1) 
0

>  <PUBCHEM_COMPONENT_COUNT>  (1) 
1

>  <PUBCHEM_CACTVS_TAUTO_COUNT>  (1) 
1

>  <PUBCHEM_CONFORMER_ID>  (1) 
000010F400000001

>  <PUBCHEM_MMFF94_ENERGY>  (1) 
34.1235

>  <PUBCHEM_FEATURE_SELFOVERLAP>  (1) 
50.933

>  <PUBCHEM_SHAPE_FINGERPRINT>  (1) 
10857977 72 13901637371769555267
11769659 78 18342731888693345246
12326174 3 17700151059781912232
12423570 1 14531107657932365305
12808571 1 12035445034519477791
13024252 1 12830932853993698528
14128692 85 18408045095538521310
14761567 1 18046091464127805548
15557651 10 13551471483833874007
15852999 172 17756127239854259249
16945 1 17822293457084906778
18186145 218 17822555193246811847
20201158 50 18261955248998628778
20361792 2 18130798862176174095
20645477 70 18126268965113384287
20653085 51 15430331234128087223
21296965 67 18342172232974266338
22112679 90 17986138277514887424
22802520 49 17822581623963620799
23419403 2 17541324281846649152
23559900 14 18265606590598744130
2748010 2 17327755392153677744
5084963 1 17604718905294217099
528886 8 17095521756098992053
6338986 31 18341326708590879582
7364860 26 18199179775066628225
81228 2 18051705347345787408

>  <PUBCHEM_SHAPE_MULTIPOLES>  (1) 
263.5
4.28
2.11
1.31
1.35
0.44
0.19
-2.76
1.29
-1.22
-0.51
0.29
0.11
0.07

>  <PUBCHEM_SHAPE_SELFOVERLAP>  (1) 
531.458

>  <PUBCHEM_SHAPE_VOLUME>  (1) 
156.6

>  <PUBCHEM_COORDINATE_TYPE>  (1) 
2
5
10

$$$$
