43411
     RDKit          3D

 15 16  0  0  1  0  0  0  0  0999 V2000
   -0.4821   -0.9579    0.2559 O   0  0  0  0  0  0  0  0  0  0  0  0
   -0.5214    3.1244    0.0753 O   0  0  0  0  0  0  0  0  0  0  0  0
    3.8468   -1.6685   -0.2645 O   0  0  0  0  0  0  0  0  0  0  0  0
   -2.5862   -2.3008   -0.1809 O   0  0  0  0  0  0  0  0  0  0  0  0
   -3.9266   -0.4699   -0.4661 O   0  0  0  0  0  0  0  0  0  0  0  0
    0.8161    1.1689    0.4972 C   0  0  0  0  0  0  0  0  0  0  0  0
    0.5658   -0.2834    0.9633 C   0  0  0  0  0  0  0  0  0  0  0  0
   -0.4763    1.9014    0.2007 C   0  0  0  0  0  0  0  0  0  0  0  0
    1.7466    1.2732   -0.6841 C   0  0  0  0  0  0  0  0  0  0  0  0
    1.7896   -1.1507    0.7973 C   0  0  0  0  0  0  0  0  0  0  0  0
    2.7498   -0.8532   -0.0918 C   0  0  0  0  0  0  0  0  0  0  0  0
    2.6480    0.3130   -0.9418 C   0  0  0  0  0  0  0  0  0  0  0  0
   -1.7079    1.1069    0.0288 C   0  0  0  0  0  0  0  0  0  0  0  0
   -1.6176   -0.2262    0.0418 C   0  0  0  0  0  0  0  0  0  0  0  0
   -2.8446   -0.9772   -0.2313 C   0  0  0  0  0  0  0  0  0  0  0  0
  1  7  1  0
  1 14  1  0
  2  8  2  0
  3 11  1  0
  4 15  1  0
  5 15  2  0
  6  7  1  0
  6  8  1  0
  6  9  1  0
  7 10  1  0
  8 13  1  0
  9 12  2  0
 10 11  2  0
 11 12  1  0
 13 14  2  0
 14 15  1  0
M  END
>  <PUBCHEM_COMPOUND_CID>  (1) 
43411

>  <PUBCHEM_CONFORMER_RMSD>  (1) 
0.6

>  <PUBCHEM_CONFORMER_DIVERSEORDER>  (1) 
2
1

>  <PUBCHEM_MMFF94_PARTIAL_CHARGES>  (1) 
21
1 -0.36
10 -0.29
11 0.08
12 -0.15
13 -0.14
14 0.09
15 0.71
18 0.15
19 0.15
2 -0.57
20 0.15
21 0.15
22 0.45
23 0.5
3 -0.53
4 -0.65
5 -0.57
6 0.2
7 0.42
8 0.49
9 -0.29

>  <PUBCHEM_EFFECTIVE_ROTOR_COUNT>  (1) 
1.2

>  <PUBCHEM_PHARMACOPHORE_FEATURES>  (1) 
8
1 1 acceptor
1 2 acceptor
1 3 donor
1 4 acceptor
1 5 acceptor
3 4 5 15 anion
6 1 6 7 8 13 14 rings
6 6 7 9 10 11 12 rings

>  <PUBCHEM_HEAVY_ATOM_COUNT>  (1) 
15

>  <PUBCHEM_ATOM_DEF_STEREO_COUNT>  (1) 
2

>  <PUBCHEM_ATOM_UDEF_STEREO_COUNT>  (1) 
0

>  <PUBCHEM_BOND_DEF_STEREO_COUNT>  (1) 
0

>  <PUBCHEM_BOND_UDEF_STEREO_COUNT>  (1) 
0

>  <PUBCHEM_ISOTOPIC_ATOM_COUNT>  (1) 
0

>  <PUBCHEM_COMPONENT_COUNT>  (1) 
1

>  <PUBCHEM_CACTVS_TAUTO_COUNT>  (1) 
7

>  <PUBCHEM_CONFORMER_ID>  (1) 
0000A99300000002

>  <PUBCHEM_MMFF94_ENERGY>  (1) 
28.8171

>  <PUBCHEM_FEATURE_SELFOVERLAP>  (1) 
40.732

>  <PUBCHEM_SHAPE_FINGERPRINT>  (1) 
10756046 5 18261963955335240092
14128692 85 18409731738081013680
15001771 113 18408885101010823504
16752209 62 18266164042629905997
16945 1 18194395593995216152
18186145 218 17531239582681989135
20361792 2 18200867465544100797
20645477 70 17907567387828471607
20871998 184 18059007268342462796
21501502 16 18339933632075447840
21634736 98 18335709351313918694
22112679 90 18270697393116135881
221490 88 17975418224176168907
23402539 116 18341041909277482814
23419403 2 17539076910413381728
23552423 10 18260267451457924496
23557571 272 18130786720683475536
23559900 14 18055344753031385226
2748010 2 18339063982527898081
276578 36 8862947207664182966
3071541 250 18337116755866675313
353137 74 18186804673096520640
6333272 397 9079119964271894119
7364860 26 17982728868309327857
74978 22 18268989963717667255
81228 2 18339927000192178209

>  <PUBCHEM_SHAPE_MULTIPOLES>  (1) 
279.35
5.18
2.4
0.84
0.66
1.1
-0.03
-3.24
1.32
0.47
-0.03
-0.3
0
-0.36

>  <PUBCHEM_SHAPE_SELFOVERLAP>  (1) 
604.131

>  <PUBCHEM_SHAPE_VOLUME>  (1) 
148.5

>  <PUBCHEM_COORDINATE_TYPE>  (1) 
2
5
10

$$$$
