43418
     RDKit          3D

 29 31  0  0  0  0  0  0  0  0999 V2000
   -4.9730   -1.9405   -1.2613 Cl  0  0  0  0  0  0  0  0  0  0  0  0
   -7.6485    1.4870    1.9074 Cl  0  0  0  0  0  0  0  0  0  0  0  0
    1.5902    0.9201   -1.2181 O   0  0  0  0  0  0  0  0  0  0  0  0
    0.3030   -2.2793   -0.4330 O   0  0  0  0  0  0  0  0  0  0  0  0
    5.8246    1.0508    1.0965 O   0  0  0  0  0  0  0  0  0  0  0  0
   -1.4208    2.0324   -0.7477 O   0  0  0  0  0  0  0  0  0  0  0  0
   -0.7446   -1.3692    1.4520 O   0  0  0  0  0  0  0  0  0  0  0  0
    6.8482    0.1451   -0.8040 O   0  0  0  0  0  0  0  0  0  0  0  0
   -2.7622    0.1424   -1.1298 N   0  0  0  0  0  0  0  0  0  0  0  0
    2.2873   -0.8481    0.0028 C   0  0  0  0  0  0  0  0  0  0  0  0
    0.6442   -0.0521   -1.2918 C   0  0  0  0  0  0  0  0  0  0  0  0
    1.0218   -1.1557   -0.5623 C   0  0  0  0  0  0  0  0  0  0  0  0
    2.5921    0.4384   -0.4298 C   0  0  0  0  0  0  0  0  0  0  0  0
   -0.5419    0.2621   -2.1021 C   0  0  0  0  0  0  0  0  0  0  0  0
    3.2081   -1.5138    0.8307 C   0  0  0  0  0  0  0  0  0  0  0  0
    3.7605    1.1199   -0.0938 C   0  0  0  0  0  0  0  0  0  0  0  0
    4.6615    0.4393    0.7305 C   0  0  0  0  0  0  0  0  0  0  0  0
    4.3929   -0.8542    1.1854 C   0  0  0  0  0  0  0  0  0  0  0  0
   -1.6149    0.9200   -1.2314 C   0  0  0  0  0  0  0  0  0  0  0  0
   -3.9439    0.4404   -0.4098 C   0  0  0  0  0  0  0  0  0  0  0  0
   -0.5963   -2.2881    0.6572 C   0  0  0  0  0  0  0  0  0  0  0  0
   -5.0134   -0.4411   -0.4039 C   0  0  0  0  0  0  0  0  0  0  0  0
   -3.9957    1.6389    0.2856 C   0  0  0  0  0  0  0  0  0  0  0  0
   -6.1638   -0.1164    0.3150 C   0  0  0  0  0  0  0  0  0  0  0  0
   -5.1460    1.9635    1.0043 C   0  0  0  0  0  0  0  0  0  0  0  0
   -6.2301    1.0860    1.0191 C   0  0  0  0  0  0  0  0  0  0  0  0
   -1.3505   -3.5834    0.7153 C   0  0  0  0  0  0  0  0  0  0  0  0
    6.8920    0.8222    0.2146 C   0  0  0  0  0  0  0  0  0  0  0  0
    8.1192    1.5333    0.7024 C   0  0  0  0  0  0  0  0  0  0  0  0
  1 22  1  0
  2 26  1  0
  3 11  1  0
  3 13  1  0
  4 12  1  0
  4 21  1  0
  5 17  1  0
  5 28  1  0
  6 19  2  0
  7 21  2  0
  8 28  2  0
  9 19  1  0
  9 20  1  0
 10 12  1  0
 10 13  2  0
 10 15  1  0
 11 12  2  0
 11 14  1  0
 13 16  1  0
 14 19  1  0
 15 18  2  0
 16 17  2  0
 17 18  1  0
 20 22  2  0
 20 23  1  0
 21 27  1  0
 22 24  1  0
 23 25  2  0
 24 26  2  0
 25 26  1  0
 28 29  1  0
M  END
>  <PUBCHEM_COMPOUND_CID>  (1) 
43418

>  <PUBCHEM_CONFORMER_RMSD>  (1) 
1

>  <PUBCHEM_CONFORMER_DIVERSEORDER>  (1) 
2
24
43
68
35
113
42
79
26
100
69
83
85
27
92
9
127
77
104
60
45
28
76
78
125
4
38
29
97
10
52
36
82
87
90
17
54
57
7
67
71
118
121
96
53
102
23
58
44
108
126
95
80
119
107
64
15
117
55
59
106
62
110
19
37
39
13
22
84
98
86
14
46
89
91
21
112
8
65
73
20
6
30
81
72
33
94
75
116
114
122
31
88
124
120
109
25
70
41
40
16
11
34
49
18
105
5
3
61
129
103
48
93
74
128
56
123
115
101
32
50
63
1
51
47
66
12
99
111

>  <PUBCHEM_MMFF94_PARTIAL_CHARGES>  (1) 
35
1 -0.18
11 -0.04
12 0.06
13 0.14
14 0.24
15 -0.15
16 -0.15
17 0.08
18 -0.15
19 0.57
2 -0.18
20 0.12
21 0.66
22 0.18
23 -0.15
24 -0.15
25 -0.15
26 0.18
27 0.06
28 0.66
29 0.06
3 -0.28
32 0.15
33 0.15
34 0.15
35 0.37
36 0.15
37 0.15
38 0.15
4 -0.21
5 -0.23
6 -0.57
7 -0.57
8 -0.57
9 -0.55

>  <PUBCHEM_EFFECTIVE_ROTOR_COUNT>  (1) 
8

>  <PUBCHEM_PHARMACOPHORE_FEATURES>  (1) 
8
1 3 acceptor
1 6 acceptor
1 7 acceptor
1 8 acceptor
1 9 donor
5 3 10 11 12 13 rings
6 10 13 15 16 17 18 rings
6 20 22 23 24 25 26 rings

>  <PUBCHEM_HEAVY_ATOM_COUNT>  (1) 
29

>  <PUBCHEM_ATOM_DEF_STEREO_COUNT>  (1) 
0

>  <PUBCHEM_ATOM_UDEF_STEREO_COUNT>  (1) 
0

>  <PUBCHEM_BOND_DEF_STEREO_COUNT>  (1) 
0

>  <PUBCHEM_BOND_UDEF_STEREO_COUNT>  (1) 
0

>  <PUBCHEM_ISOTOPIC_ATOM_COUNT>  (1) 
0

>  <PUBCHEM_COMPONENT_COUNT>  (1) 
1

>  <PUBCHEM_CACTVS_TAUTO_COUNT>  (1) 
2

>  <PUBCHEM_CONFORMER_ID>  (1) 
0000A99A00000002

>  <PUBCHEM_MMFF94_ENERGY>  (1) 
72.4225

>  <PUBCHEM_FEATURE_SELFOVERLAP>  (1) 
40.7

>  <PUBCHEM_SHAPE_FINGERPRINT>  (1) 
10 15 18272937098934918313
10670039 82 9439409008699288295
10906281 52 18041569130397084518
11135609 99 14346092943721941929
13540713 4 17680140777538407847
13540713 5 17461735174702382030
13726171 33 16844183238292647113
14341114 328 18272087171861237281
14394314 77 18409731734425045137
14765038 42 18410858741995047963
14849402 71 18339080505468305872
15210252 30 13973669616652462403
16993089 31 13985486008930303488
2026 5 13045937993430218209
20511986 3 18337100169636628853
20775438 99 10813337985587009057
21304303 172 18119810463222958075
21637258 2 12829209970522463160
21756936 100 17774993617914552292
21792961 116 14117519860985349125
221357 26 10951763046121913795
22224240 67 18407760330975557933
23622692 88 17603302678741627238
25147074 1 17459759305505739878
3004659 81 11312053245125039308
3009799 131 11887668486267270004
392239 28 18408881837194491705
4093350 32 17846502487669676134
4340502 62 18410296886762271873
465052 167 16515413945237956287
5104073 3 17896876552212796801
5385378 56 18337110073425531922
5758199 1 18411420609263126824
59755656 520 18413102870733645502
9689198 14 17704074005859097952

>  <PUBCHEM_SHAPE_MULTIPOLES>  (1) 
560.35
19.5
2.54
1.54
9.05
1.79
0.15
-12.14
-7.94
-1.84
-0.73
-1.07
-0.08
-1.39

>  <PUBCHEM_SHAPE_SELFOVERLAP>  (1) 
1196.937

>  <PUBCHEM_SHAPE_VOLUME>  (1) 
312.5

>  <PUBCHEM_COORDINATE_TYPE>  (1) 
2
5
10

$$$$
