43426
     RDKit          3D

 24 25  0  0  0  0  0  0  0  0999 V2000
   -2.0342    4.0157    0.2148 Br  0  0  0  0  0  0  0  0  0  0  0  0
    2.0288   -2.3273   -1.4080 Br  0  0  0  0  0  0  0  0  0  0  0  0
    2.9566    2.2560    1.9287 Br  0  0  0  0  0  0  0  0  0  0  0  0
    7.1217    0.1680   -1.3081 Br  0  0  0  0  0  0  0  0  0  0  0  0
   -2.4927    1.2527   -0.4904 O   0  0  0  0  0  0  0  0  0  0  0  0
    1.4017   -0.0857    0.6325 O   0  0  0  0  0  0  0  0  0  0  0  0
   -3.4320   -1.8048    0.1057 N   0  0  0  0  0  0  0  0  0  0  0  0
   -2.6602   -1.2945    1.2645 C   0  0  0  0  0  0  0  0  0  0  0  0
   -3.1590   -0.9606   -1.1474 C   0  0  0  0  0  0  0  0  0  0  0  0
   -1.1739   -1.3873    0.9530 C   0  0  0  0  0  0  0  0  0  0  0  0
   -4.9399   -1.7593    0.3912 C   0  0  0  0  0  0  0  0  0  0  0  0
   -3.0504   -3.2587   -0.2076 C   0  0  0  0  0  0  0  0  0  0  0  0
   -0.3371   -0.8289    2.1016 C   0  0  0  0  0  0  0  0  0  0  0  0
   -3.4978    0.4861   -0.9543 C   0  0  0  0  0  0  0  0  0  0  0  0
    1.1513   -0.8749    1.7872 C   0  0  0  0  0  0  0  0  0  0  0  0
   -4.6378    1.1912   -1.1586 C   0  0  0  0  0  0  0  0  0  0  0  0
   -4.3235    2.5211   -0.7904 C   0  0  0  0  0  0  0  0  0  0  0  0
   -3.0072    2.5063   -0.3911 C   0  0  0  0  0  0  0  0  0  0  0  0
    2.6985   -0.0276    0.1922 C   0  0  0  0  0  0  0  0  0  0  0  0
    3.1584   -0.9624   -0.7314 C   0  0  0  0  0  0  0  0  0  0  0  0
    3.5485    0.9654    0.6717 C   0  0  0  0  0  0  0  0  0  0  0  0
    4.4784   -0.9038   -1.1789 C   0  0  0  0  0  0  0  0  0  0  0  0
    4.8685    1.0238    0.2242 C   0  0  0  0  0  0  0  0  0  0  0  0
    5.3333    0.0893   -0.7012 C   0  0  0  0  0  0  0  0  0  0  0  0
  1 18  1  0
  2 20  1  0
  3 21  1  0
  4 24  1  0
  5 14  1  0
  5 18  1  0
  6 15  1  0
  6 19  1  0
  7  8  1  0
  7  9  1  0
  7 11  1  0
  7 12  1  0
  8 10  1  0
  9 14  1  0
 10 13  1  0
 13 15  1  0
 14 16  2  0
 16 17  1  0
 17 18  2  0
 19 20  2  0
 19 21  1  0
 20 22  1  0
 21 23  2  0
 22 24  2  0
 23 24  1  0
M  CHG  1   7   1
M  END
>  <PUBCHEM_COMPOUND_CID>  (1) 
43426

>  <PUBCHEM_CONFORMER_RMSD>  (1) 
0.8

>  <PUBCHEM_CONFORMER_DIVERSEORDER>  (1) 
1
78
133
71
51
182
180
148
31
90
210
196
193
162
186
66
149
202
140
198
173
124
181
29
178
46
137
55
83
125
107
16
201
156
93
199
4
154
188
37
88
211
170
153
161
160
62
144
117
33
82
86
179
145
174
207
112
168
212
191
91
166
2
41
85
17
136
42
56
50
38
96
190
159
152
175
44
122
129
127
54
151
100
128
57
138
176
126
60
169
135
99
72
120
209
8
194
197
189
22
68
13
109
59
200
119
113
77
53
139
69
97
104
163
89
67
208
11
40
213
205
143
164
177
39
131
192
35
15
155
65
52
203
70
75
98
49
110
73
30
147
14
61
184
206
9
34
64
32
27
63
167
116
102
101
43
123
36
74
18
171
92
47
185
130
7
105
111
183
103
3
28
80
121
106
114
172
76
58
158
45
79
146
141
5
19
81
118
108
12
165
6
25
20
95
94
21
195
157
132
10
24
48
150
204
134
142
187
87
115
23
26
84

>  <PUBCHEM_MMFF94_PARTIAL_CHARGES>  (1) 
26
1 -0.06
11 0.5
12 0.5
14 -0.04
15 0.28
16 -0.15
17 -0.15
18 0.2
19 0.08
2 -0.11
20 0.11
21 0.11
22 -0.15
23 -0.15
24 0.11
3 -0.11
4 -0.11
41 0.15
42 0.15
43 0.15
44 0.15
5 -0.28
6 -0.36
7 -1.01
8 0.5
9 0.68

>  <PUBCHEM_EFFECTIVE_ROTOR_COUNT>  (1) 
8

>  <PUBCHEM_PHARMACOPHORE_FEATURES>  (1) 
9
1 1 hydrophobe
1 2 hydrophobe
1 3 hydrophobe
1 4 hydrophobe
1 5 acceptor
1 6 acceptor
1 7 cation
5 5 14 16 17 18 rings
6 19 20 21 22 23 24 rings

>  <PUBCHEM_HEAVY_ATOM_COUNT>  (1) 
24

>  <PUBCHEM_ATOM_DEF_STEREO_COUNT>  (1) 
0

>  <PUBCHEM_ATOM_UDEF_STEREO_COUNT>  (1) 
0

>  <PUBCHEM_BOND_DEF_STEREO_COUNT>  (1) 
0

>  <PUBCHEM_BOND_UDEF_STEREO_COUNT>  (1) 
0

>  <PUBCHEM_ISOTOPIC_ATOM_COUNT>  (1) 
0

>  <PUBCHEM_COMPONENT_COUNT>  (1) 
1

>  <PUBCHEM_CACTVS_TAUTO_COUNT>  (1) 
1

>  <PUBCHEM_CONFORMER_ID>  (1) 
0000A9A200000001

>  <PUBCHEM_MMFF94_ENERGY>  (1) 
61.7366

>  <PUBCHEM_FEATURE_SELFOVERLAP>  (1) 
45.672

>  <PUBCHEM_SHAPE_FINGERPRINT>  (1) 
10291535 26 18260557718206465944
10366900 7 18200582623102481845
10498660 4 18261663810125072369
10670039 82 17894909637779925412
11049842 53 18048856529824944651
12107698 1 18261113036076835822
12403259 415 18271524294922182280
12596602 18 16009032855669348802
12616971 3 15554456235933243306
12788726 201 18259979392993039051
13944108 23 16895385093384643373
14251757 17 18343300331851610752
14251757 5 18341895130401415625
14251764 38 18115029739699907308
14931854 50 18263066769888046245
15003188 33 18196094348324605150
15183329 4 16732982025515595362
15961568 22 17901941169206465904
21033648 144 18057606671466000018
21033648 29 18341886442014391800
21033650 10 18259707813166960106
221357 26 18341330075786840761
22393880 68 18342173380242607534
235170 7 18202001061874400334
23557571 272 18335142028862419107
23559900 14 18413383241946205604
3493558 16 17534640497044079308
4098825 35 18338806614970894446
46194498 28 18270402831452942008
469060 322 17095823070015186929
508706 21 18339916112370818471
5252454 2 17969212335688307949
5281201 14 18272089439371906640
5283173 99 18409731738408256176
531348 171 18409168788312942714
5895379 119 18052243017163681936
7399639 24 18127680750110283130

>  <PUBCHEM_SHAPE_MULTIPOLES>  (1) 
500.96
13.71
3.74
1.76
12.77
2.15
0.65
1.34
-6.12
-4.9
-0.05
0.61
-0.08
2.5

>  <PUBCHEM_SHAPE_SELFOVERLAP>  (1) 
978.323

>  <PUBCHEM_SHAPE_VOLUME>  (1) 
313.5

>  <PUBCHEM_COORDINATE_TYPE>  (1) 
2
5
10

$$$$
