43422
     RDKit          3D

 20 22  0  0  1  0  0  0  0  0999 V2000
   -0.0639    0.1227   -0.1909 O   0  0  0  0  0  0  0  0  0  0  0  0
    2.7390    3.4063    0.4388 O   0  0  0  0  0  0  0  0  0  0  0  0
    1.7719    1.7539    1.6514 O   0  0  0  0  0  0  0  0  0  0  0  0
   -0.7088   -2.0193    0.1739 N   0  0  0  0  0  0  0  0  0  0  0  0
    2.3796   -0.2358   -0.2606 C   0  0  0  0  0  0  0  0  0  0  0  0
    2.7764    1.1783   -0.4994 C   0  0  0  0  0  0  0  0  0  0  0  0
    1.0600   -0.6505   -0.1288 C   0  0  0  0  0  0  0  0  0  0  0  0
    0.6616   -1.9602    0.0947 C   0  0  0  0  0  0  0  0  0  0  0  0
    3.3443   -1.2434   -0.1535 C   0  0  0  0  0  0  0  0  0  0  0  0
    2.2289    1.7720   -1.8149 C   0  0  0  0  0  0  0  0  0  0  0  0
   -1.0765   -0.7690   -0.0013 C   0  0  0  0  0  0  0  0  0  0  0  0
    1.6411   -2.9580    0.1994 C   0  0  0  0  0  0  0  0  0  0  0  0
    2.9851   -2.5780    0.0719 C   0  0  0  0  0  0  0  0  0  0  0  0
    2.3723    2.1140    0.6471 C   0  0  0  0  0  0  0  0  0  0  0  0
   -2.3979   -0.2050   -0.0203 C   0  0  0  0  0  0  0  0  0  0  0  0
   -2.5742    1.1668   -0.2228 C   0  0  0  0  0  0  0  0  0  0  0  0
   -3.5151   -1.0245    0.1646 C   0  0  0  0  0  0  0  0  0  0  0  0
   -3.8570    1.7143   -0.2404 C   0  0  0  0  0  0  0  0  0  0  0  0
   -4.7979   -0.4769    0.1468 C   0  0  0  0  0  0  0  0  0  0  0  0
   -4.9689    0.8924   -0.0558 C   0  0  0  0  0  0  0  0  0  0  0  0
  1  7  1  0
  1 11  1  0
  2 14  1  0
  3 14  2  0
  4  8  1  0
  4 11  2  0
  5  6  1  0
  5  7  2  0
  5  9  1  0
  6 10  1  0
  6 14  1  0
  7  8  1  0
  8 12  2  0
  9 13  2  0
 11 15  1  0
 12 13  1  0
 15 16  2  0
 15 17  1  0
 16 18  1  0
 17 19  2  0
 18 20  2  0
 19 20  1  0
M  END
>  <PUBCHEM_COMPOUND_CID>  (1) 
43422

>  <PUBCHEM_CONFORMER_RMSD>  (1) 
0.6

>  <PUBCHEM_CONFORMER_DIVERSEORDER>  (1) 
3
4
10
8
9
6
1
2
7
5

>  <PUBCHEM_MMFF94_PARTIAL_CHARGES>  (1) 
28
1 -0.28
11 0.43
12 -0.15
13 -0.15
14 0.66
15 0.05
16 -0.15
17 -0.15
18 -0.15
19 -0.15
2 -0.65
20 -0.15
22 0.15
26 0.15
27 0.15
28 0.15
29 0.15
3 -0.57
30 0.15
31 0.15
32 0.15
33 0.5
4 -0.57
5 -0.14
6 0.2
7 0.14
8 0.23
9 -0.15

>  <PUBCHEM_EFFECTIVE_ROTOR_COUNT>  (1) 
3

>  <PUBCHEM_PHARMACOPHORE_FEATURES>  (1) 
7
1 10 hydrophobe
1 2 acceptor
1 3 acceptor
3 2 3 14 anion
5 1 4 7 8 11 rings
6 15 16 17 18 19 20 rings
6 5 7 8 9 12 13 rings

>  <PUBCHEM_HEAVY_ATOM_COUNT>  (1) 
20

>  <PUBCHEM_ATOM_DEF_STEREO_COUNT>  (1) 
0

>  <PUBCHEM_ATOM_UDEF_STEREO_COUNT>  (1) 
1

>  <PUBCHEM_BOND_DEF_STEREO_COUNT>  (1) 
0

>  <PUBCHEM_BOND_UDEF_STEREO_COUNT>  (1) 
0

>  <PUBCHEM_ISOTOPIC_ATOM_COUNT>  (1) 
0

>  <PUBCHEM_COMPONENT_COUNT>  (1) 
1

>  <PUBCHEM_CACTVS_TAUTO_COUNT>  (1) 
1

>  <PUBCHEM_CONFORMER_ID>  (1) 
0000A99E00000003

>  <PUBCHEM_MMFF94_ENERGY>  (1) 
42.2719

>  <PUBCHEM_FEATURE_SELFOVERLAP>  (1) 
35.698

>  <PUBCHEM_SHAPE_FINGERPRINT>  (1) 
10608611 8 18408321060562769055
11582403 64 16627688526736320632
11595378 159 15285916889243932749
11615757 297 18131074805609592979
11725454 13 16770969215561982736
12403259 226 18189894214987055663
13134695 92 18199456671924621590
13140716 1 18335697307993966810
138480 1 18339359660930048392
13878862 14 18191006938562703125
13965767 371 17970609986808289628
14178000 15 18125722292658499490
14178342 30 18047463710574350930
15196674 1 18408605838580268511
15442244 35 18121501254507750599
15536298 74 18410576167332532263
1601671 61 18265052440563865702
17492 89 18408325475916782827
17980427 23 17914865773982808942
18186145 218 18060149772708961561
18681886 176 18271517607279138626
20559304 39 18341332197674823130
20671657 1 18412265034098274263
21267235 1 18264780878577597319
21478907 32 17327739496628337122
21524375 3 18339648939709231782
221490 88 18335992995075560027
22149856 69 18192168169223866235
22289505 5 18192145988730296015
2255824 54 18260553294559248238
22854114 111 18412825798039968337
23419403 2 17624376859355760064
23558518 356 18044371866697682570
23559900 14 18336823100732069315
2748010 2 18119542169669183774
283562 15 17759810239305762162
345986 75 16883551157245762290
350125 39 18408326592032305463
474 4 17968382337526384575
49207404 50 18188499093708624923
495365 180 18272078426891045971
5104073 3 18335707122605668283
57124632 79 18341316886185400912
5895379 119 16199324070146922577
5939293 188 18339919312543459862
6438718 38 16911425958584256645
6443956 14 18267587897113135046
7364860 26 18412262813816758806
7471813 234 17987502724321506257
7808743 9 17688593079761878356
81228 2 16971966666827373466
84936 182 18342458170438016880
9709674 26 18336272249855112243
9971528 1 18200026214732502462
9981440 41 18050557740647721072

>  <PUBCHEM_SHAPE_MULTIPOLES>  (1) 
389
8.26
3.28
0.93
10.5
0.56
0.07
1.39
0.19
-3.62
-0.4
-0.65
0.62
0.26

>  <PUBCHEM_SHAPE_SELFOVERLAP>  (1) 
861.33

>  <PUBCHEM_SHAPE_VOLUME>  (1) 
209.5

>  <PUBCHEM_COORDINATE_TYPE>  (1) 
2
5
10

$$$$
