43424
     RDKit          3D

 28 29  0  0  0  0  0  0  0  0999 V2000
   -6.4857   -0.3815   -1.5216 Cl  0  0  0  0  0  0  0  0  0  0  0  0
    2.6075   -0.6718   -0.0974 O   0  0  0  0  0  0  0  0  0  0  0  0
   -1.3578    0.0768    1.3322 O   0  0  0  0  0  0  0  0  0  0  0  0
    3.6241   -3.6282    1.4644 O   0  0  0  0  0  0  0  0  0  0  0  0
    1.7264   -2.5179    1.5256 O   0  0  0  0  0  0  0  0  0  0  0  0
    2.7528    2.5715   -0.5326 N   0  0  0  0  0  0  0  0  0  0  0  0
    2.9133   -2.6448    1.1039 N   0  0  0  0  0  0  0  0  0  0  0  0
    2.2841    2.2808    0.8437 C   0  0  0  0  0  0  0  0  0  0  0  0
    2.5689    1.3483   -1.4424 C   0  0  0  0  0  0  0  0  0  0  0  0
    0.8005    1.9461    0.8047 C   0  0  0  0  0  0  0  0  0  0  0  0
    4.2416    2.9469   -0.5349 C   0  0  0  0  0  0  0  0  0  0  0  0
    1.9661    3.7405   -1.1424 C   0  0  0  0  0  0  0  0  0  0  0  0
    0.2812    1.5935    2.1967 C   0  0  0  0  0  0  0  0  0  0  0  0
    3.2987    0.1400   -0.9401 C   0  0  0  0  0  0  0  0  0  0  0  0
   -1.1925    1.2141    2.1676 C   0  0  0  0  0  0  0  0  0  0  0  0
    4.5666   -0.3497   -1.1509 C   0  0  0  0  0  0  0  0  0  0  0  0
   -2.5498   -0.0321    0.6640 C   0  0  0  0  0  0  0  0  0  0  0  0
    4.6606   -1.5385   -0.3886 C   0  0  0  0  0  0  0  0  0  0  0  0
   -2.6180   -0.6733   -0.5729 C   0  0  0  0  0  0  0  0  0  0  0  0
    3.4434   -1.6907    0.2336 C   0  0  0  0  0  0  0  0  0  0  0  0
   -1.3938   -1.2561   -1.1983 C   0  0  0  0  0  0  0  0  0  0  0  0
   -3.7028    0.5071    1.2350 C   0  0  0  0  0  0  0  0  0  0  0  0
   -3.8392   -0.7752   -1.2391 C   0  0  0  0  0  0  0  0  0  0  0  0
   -1.4971   -2.7815   -1.3811 C   0  0  0  0  0  0  0  0  0  0  0  0
   -1.0470   -0.5896   -2.5423 C   0  0  0  0  0  0  0  0  0  0  0  0
   -4.9239    0.4053    0.5685 C   0  0  0  0  0  0  0  0  0  0  0  0
   -4.9921   -0.2359   -0.6686 C   0  0  0  0  0  0  0  0  0  0  0  0
   -6.1361    0.9958    1.2134 C   0  0  0  0  0  0  0  0  0  0  0  0
  1 27  1  0
  2 14  1  0
  2 20  1  0
  3 15  1  0
  3 17  1  0
  4  7  1  0
  5  7  2  0
  6  8  1  0
  6  9  1  0
  6 11  1  0
  6 12  1  0
  7 20  1  0
  8 10  1  0
  9 14  1  0
 10 13  1  0
 13 15  1  0
 14 16  2  0
 16 18  1  0
 17 19  2  0
 17 22  1  0
 18 20  2  0
 19 21  1  0
 19 23  1  0
 21 24  1  0
 21 25  1  0
 22 26  2  0
 23 27  2  0
 26 27  1  0
 26 28  1  0
M  CHG  3   4  -1   6   1   7   1
M  END
>  <PUBCHEM_COMPOUND_CID>  (1) 
43424

>  <PUBCHEM_CONFORMER_RMSD>  (1) 
1.4

>  <PUBCHEM_CONFORMER_DIVERSEORDER>  (1) 
1
24
105
36
3
88
8
116
13
52
46
20
49
31
94
84
113
106
69
18
62
118
27
45
83
9
68
39
30
23
6
78
22
10
92
96
38
64
123
50
102
86
124
21
100
7
12
51
114
66
95
48
87
119
90
76
109
34
89
67
108
11
115
79
28
26
71
80
37
120
14
121
61
98
97
104
110
55
111
81
73
54
15
117
60
122
35
63
5
107
16
57
82
112
75
77
2
29
47
43
58
72
17
85
91
74
25
101
19
33
32
65
53
56
59
42
125
93
41
4
103
40
44
99
70

>  <PUBCHEM_MMFF94_PARTIAL_CHARGES>  (1) 
28
1 -0.18
11 0.5
12 0.5
14 -0.04
15 0.28
16 -0.15
17 0.08
18 -0.15
19 -0.14
2 -0.28
20 0.22
21 0.14
22 -0.15
23 -0.15
26 -0.14
27 0.18
28 0.14
3 -0.36
4 -0.52
45 0.15
46 0.15
48 0.15
49 0.15
5 -0.52
6 -1.01
7 0.96
8 0.5
9 0.68

>  <PUBCHEM_EFFECTIVE_ROTOR_COUNT>  (1) 
10

>  <PUBCHEM_PHARMACOPHORE_FEATURES>  (1) 
9
1 2 acceptor
1 3 acceptor
1 4 acceptor
1 4 anion
1 5 acceptor
1 6 cation
3 21 24 25 hydrophobe
5 2 14 16 18 20 rings
6 17 19 22 23 26 27 rings

>  <PUBCHEM_HEAVY_ATOM_COUNT>  (1) 
28

>  <PUBCHEM_ATOM_DEF_STEREO_COUNT>  (1) 
0

>  <PUBCHEM_ATOM_UDEF_STEREO_COUNT>  (1) 
0

>  <PUBCHEM_BOND_DEF_STEREO_COUNT>  (1) 
0

>  <PUBCHEM_BOND_UDEF_STEREO_COUNT>  (1) 
0

>  <PUBCHEM_ISOTOPIC_ATOM_COUNT>  (1) 
0

>  <PUBCHEM_COMPONENT_COUNT>  (1) 
1

>  <PUBCHEM_CACTVS_TAUTO_COUNT>  (1) 
1

>  <PUBCHEM_CONFORMER_ID>  (1) 
0000A9A000000001

>  <PUBCHEM_MMFF94_ENERGY>  (1) 
76.6539

>  <PUBCHEM_FEATURE_SELFOVERLAP>  (1) 
45.762

>  <PUBCHEM_SHAPE_FINGERPRINT>  (1) 
12166972 35 18273214170794424407
12633257 1 18272655631909611855
12670545 2 18272663324022055949
12788726 201 17202786850561857841
13383668 262 17899959828094979787
13583140 156 18188501267131108871
13911987 19 17678487271528479598
15183329 4 17418100936339324257
17349148 13 17275388711772009765
18681886 176 16486701384638064732
19319366 153 18339926029708780690
20511986 3 18060413655484401052
20715895 44 17985558762627368881
21033648 29 17095240328799568533
21781051 124 17631449129116419399
22122407 14 18265068959293150673
23559900 14 16732704922208917695
3004659 81 18059862761266452101
339767 52 18131633374601387554
345986 75 18268986484303456736
3680242 22 17845671256673023939
4409770 3 15604584761729104583
463206 1 18270403909600730824
513532 50 17240472637135858377
59682541 52 18260534616326233231
8509985 295 18060419110124048053

>  <PUBCHEM_SHAPE_MULTIPOLES>  (1) 
544.66
12.33
3.62
2.13
12.21
0.07
-0.18
-0.57
2.14
-5.48
-0.41
0.33
-0.08
-3.22

>  <PUBCHEM_SHAPE_SELFOVERLAP>  (1) 
1113.259

>  <PUBCHEM_SHAPE_VOLUME>  (1) 
320.6

>  <PUBCHEM_COORDINATE_TYPE>  (1) 
2
5
10

$$$$
