43428
     RDKit          3D

 26 27  0  0  0  0  0  0  0  0999 V2000
   -6.0813    3.4277    0.4627 Br  0  0  0  0  0  0  0  0  0  0  0  0
    3.1452    3.1797    0.1653 Cl  0  0  0  0  0  0  0  0  0  0  0  0
   -5.1439    0.6966    0.5304 O   0  0  0  0  0  0  0  0  0  0  0  0
    1.7804    0.5435    0.2297 O   0  0  0  0  0  0  0  0  0  0  0  0
   -2.8946   -1.6340    0.2309 N   0  0  0  0  0  0  0  0  0  0  0  0
   -2.3013   -0.5110    0.9960 C   0  0  0  0  0  0  0  0  0  0  0  0
   -4.4281   -1.5843    0.2879 C   0  0  0  0  0  0  0  0  0  0  0  0
   -0.7845   -0.6166    0.9407 C   0  0  0  0  0  0  0  0  0  0  0  0
   -2.4710   -1.5746   -1.2438 C   0  0  0  0  0  0  0  0  0  0  0  0
   -2.4405   -2.9845    0.8026 C   0  0  0  0  0  0  0  0  0  0  0  0
   -0.1266    0.5475    1.6779 C   0  0  0  0  0  0  0  0  0  0  0  0
   -4.9887   -0.3351   -0.3207 C   0  0  0  0  0  0  0  0  0  0  0  0
    1.3917    0.4795    1.5948 C   0  0  0  0  0  0  0  0  0  0  0  0
   -5.3779   -0.0307   -1.5834 C   0  0  0  0  0  0  0  0  0  0  0  0
    3.1238    0.4772   -0.0347 C   0  0  0  0  0  0  0  0  0  0  0  0
    3.7126   -0.7667   -0.2436 C   0  0  0  0  0  0  0  0  0  0  0  0
    2.9056   -2.0218   -0.1819 C   0  0  0  0  0  0  0  0  0  0  0  0
   -5.8181    1.3130   -1.5231 C   0  0  0  0  0  0  0  0  0  0  0  0
   -5.6557    1.7100   -0.2162 C   0  0  0  0  0  0  0  0  0  0  0  0
    3.8892    1.6383   -0.0948 C   0  0  0  0  0  0  0  0  0  0  0  0
    5.0784   -0.8502   -0.5147 C   0  0  0  0  0  0  0  0  0  0  0  0
    2.8911   -2.7769   -1.5236 C   0  0  0  0  0  0  0  0  0  0  0  0
    3.3701   -2.9633    0.9444 C   0  0  0  0  0  0  0  0  0  0  0  0
    5.2550    1.5546   -0.3658 C   0  0  0  0  0  0  0  0  0  0  0  0
    5.8495    0.3103   -0.5760 C   0  0  0  0  0  0  0  0  0  0  0  0
    6.1196    2.7719   -0.4408 C   0  0  0  0  0  0  0  0  0  0  0  0
  1 19  1  0
  2 20  1  0
  3 12  1  0
  3 19  1  0
  4 13  1  0
  4 15  1  0
  5  6  1  0
  5  7  1  0
  5  9  1  0
  5 10  1  0
  6  8  1  0
  7 12  1  0
  8 11  1  0
 11 13  1  0
 12 14  2  0
 14 18  1  0
 15 16  2  0
 15 20  1  0
 16 17  1  0
 16 21  1  0
 17 22  1  0
 17 23  1  0
 18 19  2  0
 20 24  2  0
 21 25  2  0
 24 25  1  0
 24 26  1  0
M  CHG  1   5   1
M  END
>  <PUBCHEM_COMPOUND_CID>  (1) 
43428

>  <PUBCHEM_CONFORMER_RMSD>  (1) 
1

>  <PUBCHEM_CONFORMER_DIVERSEORDER>  (1) 
55
108
191
106
63
107
158
115
94
163
143
171
60
109
142
145
159
79
134
87
151
118
47
132
179
201
18
181
67
136
90
86
197
82
160
65
139
112
183
141
81
133
7
157
33
193
83
196
180
50
202
120
98
161
124
117
110
3
22
92
138
80
127
199
189
61
146
200
72
128
198
187
135
58
177
194
84
52
1
38
121
46
186
66
21
56
93
192
178
6
74
125
59
169
175
88
144
126
27
155
129
40
34
190
75
37
42
188
53
62
71
168
150
122
10
2
15
89
17
41
85
130
154
166
156
35
195
176
20
182
101
36
153
76
148
97
105
137
100
123
43
30
113
95
68
49
172
23
44
57
149
25
73
39
96
102
104
64
45
165
111
185
54
140
14
16
78
103
70
147
5
184
77
152
119
167
29
164
13
114
69
174
32
9
116
48
28
11
8
24
51
173
4
31
19
91
26
162
170
99
12
131

>  <PUBCHEM_MMFF94_PARTIAL_CHARGES>  (1) 
26
1 -0.06
10 0.5
12 -0.04
13 0.28
14 -0.15
15 0.08
16 -0.14
17 0.14
18 -0.15
19 0.2
2 -0.18
20 0.18
21 -0.15
24 -0.14
25 -0.15
26 0.14
3 -0.28
4 -0.36
43 0.15
45 0.15
46 0.15
5 -1.01
53 0.15
6 0.5
7 0.68
9 0.5

>  <PUBCHEM_EFFECTIVE_ROTOR_COUNT>  (1) 
9

>  <PUBCHEM_PHARMACOPHORE_FEATURES>  (1) 
7
1 1 hydrophobe
1 3 acceptor
1 4 acceptor
1 5 cation
3 17 22 23 hydrophobe
5 3 12 14 18 19 rings
6 15 16 20 21 24 25 rings

>  <PUBCHEM_HEAVY_ATOM_COUNT>  (1) 
26

>  <PUBCHEM_ATOM_DEF_STEREO_COUNT>  (1) 
0

>  <PUBCHEM_ATOM_UDEF_STEREO_COUNT>  (1) 
0

>  <PUBCHEM_BOND_DEF_STEREO_COUNT>  (1) 
0

>  <PUBCHEM_BOND_UDEF_STEREO_COUNT>  (1) 
0

>  <PUBCHEM_ISOTOPIC_ATOM_COUNT>  (1) 
0

>  <PUBCHEM_COMPONENT_COUNT>  (1) 
1

>  <PUBCHEM_CACTVS_TAUTO_COUNT>  (1) 
1

>  <PUBCHEM_CONFORMER_ID>  (1) 
0000A9A400000037

>  <PUBCHEM_MMFF94_ENERGY>  (1) 
71.5088

>  <PUBCHEM_FEATURE_SELFOVERLAP>  (1) 
35.521

>  <PUBCHEM_SHAPE_FINGERPRINT>  (1) 
10670039 82 18337665331335209865
10675989 125 18191304883878812874
10835480 77 18409727391542805892
11069576 57 17703231698480004646
12788726 201 17774162297093157921
13690498 29 17843396530451189407
14117953 113 18199749133729070678
14347329 18 18410847734147180857
15003188 33 18342740667775140929
15183329 4 18272086063870522641
15274700 147 15952198261895805524
16989378 47 16986905383779773214
17349148 13 15052015693196811191
17844677 252 18335427915002404563
18222031 100 15267345132432419856
18608769 82 18264494069436492187
20028762 73 16830102694671632352
20511986 3 18131061658624944506
20715895 44 18339079276753627227
22393880 68 17773591809435552494
23198884 109 18410571808304710653
23559900 14 18271523195067988320
23569914 152 17197434230320426340
3004659 81 18272086050669428090
3882209 13 17545313082473761782
4073 2 18187369877886803626
4098825 35 18411985780231747939
50677037 204 18335137596610215989
5283173 99 18411138047839460801
59682541 52 17988063523108047631
960060 61 17989484125757824507

>  <PUBCHEM_SHAPE_MULTIPOLES>  (1) 
526.16
17.71
3.88
1.37
9.49
0.75
0.03
11.13
5.2
-0.71
-0.13
0.82
-0.31
-0.01

>  <PUBCHEM_SHAPE_SELFOVERLAP>  (1) 
1057.852

>  <PUBCHEM_SHAPE_VOLUME>  (1) 
319.2

>  <PUBCHEM_COORDINATE_TYPE>  (1) 
2
5
10

$$$$
