43438
     RDKit          3D

 26 27  0  0  0  0  0  0  0  0999 V2000
    1.1361   -2.1440   -2.0199 Br  0  0  0  0  0  0  0  0  0  0  0  0
    1.7209   -0.6637    2.7384 Br  0  0  0  0  0  0  0  0  0  0  0  0
    2.5051    2.0518   -2.2604 Br  0  0  0  0  0  0  0  0  0  0  0  0
    6.6942   -1.0109    0.0315 Br  0  0  0  0  0  0  0  0  0  0  0  0
   -1.6384   -1.7944   -1.2975 O   0  0  0  0  0  0  0  0  0  0  0  0
    1.0289    1.0989    0.2889 O   0  0  0  0  0  0  0  0  0  0  0  0
   -4.1396   -0.2614    0.1621 N   0  0  0  0  0  0  0  0  0  0  0  0
   -3.3029    0.7575   -0.5141 C   0  0  0  0  0  0  0  0  0  0  0  0
   -3.4887    2.1238    0.1341 C   0  0  0  0  0  0  0  0  0  0  0  0
   -3.9076   -1.6522   -0.4463 C   0  0  0  0  0  0  0  0  0  0  0  0
   -5.6315    0.0754    0.0225 C   0  0  0  0  0  0  0  0  0  0  0  0
   -3.8075   -0.3366    1.6596 C   0  0  0  0  0  0  0  0  0  0  0  0
   -2.6574    3.2284   -0.5245 C   0  0  0  0  0  0  0  0  0  0  0  0
   -1.1673    2.8774   -0.5206 C   0  0  0  0  0  0  0  0  0  0  0  0
   -2.4928   -2.1213   -0.2927 C   0  0  0  0  0  0  0  0  0  0  0  0
   -0.6349    2.7310    0.9079 C   0  0  0  0  0  0  0  0  0  0  0  0
   -1.8401   -2.8393    0.6821 C   0  0  0  0  0  0  0  0  0  0  0  0
    0.8399    2.3485    0.9369 C   0  0  0  0  0  0  0  0  0  0  0  0
   -0.4986   -2.9617    0.2482 C   0  0  0  0  0  0  0  0  0  0  0  0
   -0.4270   -2.3095   -0.9608 C   0  0  0  0  0  0  0  0  0  0  0  0
    2.3122    0.6199    0.2300 C   0  0  0  0  0  0  0  0  0  0  0  0
    2.8005   -0.1943    1.2520 C   0  0  0  0  0  0  0  0  0  0  0  0
    3.1300    0.9479   -0.8512 C   0  0  0  0  0  0  0  0  0  0  0  0
    4.1065   -0.6804    1.1927 C   0  0  0  0  0  0  0  0  0  0  0  0
    4.4360    0.4618   -0.9105 C   0  0  0  0  0  0  0  0  0  0  0  0
    4.9243   -0.3524    0.1114 C   0  0  0  0  0  0  0  0  0  0  0  0
  1 20  1  0
  2 22  1  0
  3 23  1  0
  4 26  1  0
  5 15  1  0
  5 20  1  0
  6 18  1  0
  6 21  1  0
  7  8  1  0
  7 10  1  0
  7 11  1  0
  7 12  1  0
  8  9  1  0
  9 13  1  0
 10 15  1  0
 13 14  1  0
 14 16  1  0
 15 17  2  0
 16 18  1  0
 17 19  1  0
 19 20  2  0
 21 22  2  0
 21 23  1  0
 22 24  1  0
 23 25  2  0
 24 26  2  0
 25 26  1  0
M  CHG  1   7   1
M  END
>  <PUBCHEM_COMPOUND_CID>  (1) 
43438

>  <PUBCHEM_CONFORMER_RMSD>  (1) 
1.2

>  <PUBCHEM_CONFORMER_DIVERSEORDER>  (1) 
2
16
98
226
32
187
25
179
23
58
212
224
194
69
128
53
240
112
117
35
60
44
124
222
182
70
174
12
45
17
127
228
129
20
206
141
153
161
229
11
66
184
137
102
72
3
260
67
204
10
78
88
91
207
239
24
225
168
84
135
237
145
116
217
230
95
216
5
61
30
193
248
231
219
242
200
39
87
227
122
259
160
37
94
152
19
157
191
27
49
80
86
254
163
125
83
162
36
164
64
97
130
151
256
90
252
167
96
59
250
251
6
169
235
192
34
7
118
131
47
146
33
41
143
205
215
15
196
158
238
156
201
258
1
241
8
159
213
255
71
134
246
177
73
104
195
244
148
186
211
51
155
54
114
14
190
110
220
109
170
208
138
261
106
149
105
121
172
50
210
249
76
214
42
85
113
140
31
81
139
257
203
52
56
92
144
223
55
13
40
178
21
247
79
233
142
147
108
100
63
107
89
198
4
99
119
38
245
111
253
181
48
165
65
166
209
123
101
9
103
62
234
183
185
202
132
82
68
46
74
120
232
154
189
29
236
243
199
180
22
28
57
26
150
221
133
197
188
218
115
43
126
176
173
75
77
93
175
136
171
18

>  <PUBCHEM_MMFF94_PARTIAL_CHARGES>  (1) 
26
1 -0.06
10 0.68
11 0.5
12 0.5
15 -0.04
17 -0.15
18 0.28
19 -0.15
2 -0.11
20 0.2
21 0.08
22 0.11
23 0.11
24 -0.15
25 -0.15
26 0.11
3 -0.11
4 -0.11
45 0.15
48 0.15
49 0.15
5 -0.28
50 0.15
6 -0.36
7 -1.01
8 0.5

>  <PUBCHEM_EFFECTIVE_ROTOR_COUNT>  (1) 
10

>  <PUBCHEM_PHARMACOPHORE_FEATURES>  (1) 
10
1 1 hydrophobe
1 2 hydrophobe
1 3 hydrophobe
1 4 hydrophobe
1 5 acceptor
1 6 acceptor
1 7 cation
4 9 13 14 16 hydrophobe
5 5 15 17 19 20 rings
6 21 22 23 24 25 26 rings

>  <PUBCHEM_HEAVY_ATOM_COUNT>  (1) 
26

>  <PUBCHEM_ATOM_DEF_STEREO_COUNT>  (1) 
0

>  <PUBCHEM_ATOM_UDEF_STEREO_COUNT>  (1) 
0

>  <PUBCHEM_BOND_DEF_STEREO_COUNT>  (1) 
0

>  <PUBCHEM_BOND_UDEF_STEREO_COUNT>  (1) 
0

>  <PUBCHEM_ISOTOPIC_ATOM_COUNT>  (1) 
0

>  <PUBCHEM_COMPONENT_COUNT>  (1) 
1

>  <PUBCHEM_CACTVS_TAUTO_COUNT>  (1) 
1

>  <PUBCHEM_CONFORMER_ID>  (1) 
0000A9AE00000002

>  <PUBCHEM_MMFF94_ENERGY>  (1) 
59.2152

>  <PUBCHEM_FEATURE_SELFOVERLAP>  (1) 
50.748

>  <PUBCHEM_SHAPE_FINGERPRINT>  (1) 
10670039 82 18410004408232589522
10759866 29 18186242818570574452
11014199 57 17834950150381697938
11513181 2 17914039911500618991
12156800 1 14883302183628875597
12467345 10 18113620092878341828
12553582 1 18338225055287799825
12596602 18 17313393369350513559
12633257 1 18272379702052236353
12788726 201 18339656597836536500
13402501 40 18201721725770102847
13726171 33 18052289393957832341
14117953 113 18262236599954467453
14251751 93 18335136458015289160
14251757 17 17985279477556173214
14251757 5 18409169943574262242
14279260 333 17749669602660788490
14289585 56 17023465227524249196
14363568 33 17690579892861530521
14725015 67 18412257355261225489
15297060 5 18200030612446373616
15664445 248 15821557627678498558
15721738 202 15938398081333623419
16112460 7 18130517421438402992
16752209 62 18338221696443993921
17093844 170 18199754635270316476
19319366 153 17822851012675481810
238918 7 18060136497118433718
2818148 4 17829064439057800059
3052486 1 18263371295932797574
3298306 158 18268698425659345853
338550 245 18263650580433911030
35225 105 18199443524824227788
508706 21 18340774741137567767
59755656 215 18200875063336089711
602551 16 18343013377029568784
6138700 20 18411979166087593951
70251023 43 17472982182265056027

>  <PUBCHEM_SHAPE_MULTIPOLES>  (1) 
542.12
11.03
3.85
1.93
5.63
0.76
0.27
-1.29
0.43
-2.96
-0.86
1.3
-0.24
-0.71

>  <PUBCHEM_SHAPE_SELFOVERLAP>  (1) 
1053.539

>  <PUBCHEM_SHAPE_VOLUME>  (1) 
339.4

>  <PUBCHEM_COORDINATE_TYPE>  (1) 
2
5
10

$$$$
