4343
     RDKit          3D

 20 20  0  0  1  0  0  0  0  0999 V2000
   -1.8623    1.8493    0.3146 S   0  0  0  0  0  0  0  0  0  0  0  0
   -1.9782    2.5019   -0.9756 O   0  0  0  0  0  0  0  0  0  0  0  0
   -2.7042    2.2641    1.4203 O   0  0  0  0  0  0  0  0  0  0  0  0
    2.7148    2.8047    0.3100 O   0  0  0  0  0  0  0  0  0  0  0  0
   -0.2412    1.8794    0.8195 N   0  0  0  0  0  0  0  0  0  0  0  0
    1.2697    3.3093   -1.4033 N   0  0  0  0  0  0  0  0  0  0  0  0
    5.1318   -3.2315    0.3937 N   0  0  0  0  0  0  0  0  0  0  0  0
    1.5379    0.2042    0.6528 C   0  0  0  0  0  0  0  0  0  0  0  0
    0.8185    1.3447   -0.0690 C   0  0  0  0  0  0  0  0  0  0  0  0
    2.6821   -0.3741   -0.1857 C   0  0  0  0  0  0  0  0  0  0  0  0
    3.3410   -1.5627    0.5182 C   0  0  0  0  0  0  0  0  0  0  0  0
    1.7128    2.5390   -0.3497 C   0  0  0  0  0  0  0  0  0  0  0  0
    4.5051   -2.1144   -0.3030 C   0  0  0  0  0  0  0  0  0  0  0  0
   -2.1385    0.1194    0.0773 C   0  0  0  0  0  0  0  0  0  0  0  0
   -2.6002   -0.6428    1.1363 C   0  0  0  0  0  0  0  0  0  0  0  0
   -1.8879   -0.4405   -1.1633 C   0  0  0  0  0  0  0  0  0  0  0  0
   -2.5712   -2.5890   -0.2949 C   0  0  0  0  0  0  0  0  0  0  0  0
   -2.8184   -2.0078    0.9487 C   0  0  0  0  0  0  0  0  0  0  0  0
   -2.1060   -1.8054   -1.3510 C   0  0  0  0  0  0  0  0  0  0  0  0
   -2.8057   -4.0480   -0.4959 C   0  0  0  0  0  0  0  0  0  0  0  0
  1  2  2  0
  1  3  2  0
  1  5  1  0
  1 14  1  0
  4 12  2  0
  5  9  1  0
  6 12  1  0
  7 13  1  0
  8  9  1  0
  8 10  1  0
  9 12  1  0
 10 11  1  0
 11 13  1  0
 14 15  2  0
 14 16  1  0
 15 18  1  0
 16 19  2  0
 17 18  2  0
 17 19  1  0
 17 20  1  0
M  END
>  <PUBCHEM_COMPOUND_CID>  (1) 
4343

>  <PUBCHEM_CONFORMER_RMSD>  (1) 
0.8

>  <PUBCHEM_CONFORMER_DIVERSEORDER>  (1) 
2
90
136
184
23
101
123
16
203
119
164
6
79
45
167
191
117
165
73
161
190
114
182
210
200
62
61
86
92
140
183
142
162
121
9
171
55
176
192
59
80
24
64
71
122
168
152
150
66
151
78
159
148
11
15
27
58
170
160
204
207
205
21
178
115
13
181
107
3
51
108
194
137
33
215
60
188
12
180
97
133
47
89
199
98
96
29
173
40
189
88
130
125
105
201
156
41
10
202
17
198
154
38
109
147
83
187
166
158
113
42
85
128
53
175
157
84
94
116
112
56
65
172
214
111
28
99
19
20
100
68
37
54
69
208
70
144
22
4
120
127
93
118
14
132
82
43
39
145
196
25
77
44
95
129
18
76
81
30
106
135
104
110
163
102
72
141
5
34
87
134
146
206
126
1
209
177
213
52
31
49
103
174
7
197
57
46
195
35
153
211
50
169
139
32
138
143
67
26
185
75
124
91
48
193
131
36
155
74
63
149
179
8
212
186

>  <PUBCHEM_MMFF94_PARTIAL_CHARGES>  (1) 
26
1 1.45
12 0.57
13 0.27
14 -0.01
15 -0.15
16 -0.15
17 -0.14
18 -0.15
19 -0.15
2 -0.65
20 0.14
28 0.42
3 -0.65
31 0.15
32 0.15
33 0.37
34 0.37
35 0.15
36 0.15
37 0.36
38 0.36
4 -0.57
5 -0.91
6 -0.8
7 -0.99
9 0.42

>  <PUBCHEM_EFFECTIVE_ROTOR_COUNT>  (1) 
8

>  <PUBCHEM_PHARMACOPHORE_FEATURES>  (1) 
8
1 2 acceptor
1 3 acceptor
1 4 acceptor
1 5 donor
1 6 donor
1 7 cation
1 7 donor
6 14 15 16 17 18 19 rings

>  <PUBCHEM_HEAVY_ATOM_COUNT>  (1) 
20

>  <PUBCHEM_ATOM_DEF_STEREO_COUNT>  (1) 
0

>  <PUBCHEM_ATOM_UDEF_STEREO_COUNT>  (1) 
1

>  <PUBCHEM_BOND_DEF_STEREO_COUNT>  (1) 
0

>  <PUBCHEM_BOND_UDEF_STEREO_COUNT>  (1) 
0

>  <PUBCHEM_ISOTOPIC_ATOM_COUNT>  (1) 
0

>  <PUBCHEM_COMPONENT_COUNT>  (1) 
1

>  <PUBCHEM_CACTVS_TAUTO_COUNT>  (1) 
2

>  <PUBCHEM_CONFORMER_ID>  (1) 
000010F700000002

>  <PUBCHEM_MMFF94_ENERGY>  (1) 
20.8506

>  <PUBCHEM_FEATURE_SELFOVERLAP>  (1) 
40.615

>  <PUBCHEM_SHAPE_FINGERPRINT>  (1) 
107951 10 17317901152534487235
11014199 57 18411418457669900746
11315621 246 18195541303246582350
12553582 1 18117831102101009218
12633257 1 18058189292042836491
12839892 36 17979898725838433784
14251757 5 18049176475303435342
14863182 85 17688588685983018956
15099037 8 18339922718030370241
15375462 189 17837502112864331945
20291156 8 18411140246920660378
20600515 1 17986117310112328056
21285901 2 17247205084910469063
2255824 54 17040633367168497621
23566358 27 18189634888919729120
23598288 3 18060146482706244069
23728640 28 18198060283504523851
3084891 72 17833542397472125772
4409770 3 17684080293298987428
70251023 43 18336540629154810355
7097593 13 18412271648432384112

>  <PUBCHEM_SHAPE_MULTIPOLES>  (1) 
382.89
7.32
5.03
1.19
7.23
0.97
0.09
7.85
-0.58
1.3
0.61
-0.69
-0.26
-1.15

>  <PUBCHEM_SHAPE_SELFOVERLAP>  (1) 
758.137

>  <PUBCHEM_SHAPE_VOLUME>  (1) 
227.8

>  <PUBCHEM_COORDINATE_TYPE>  (1) 
2
5
10

$$$$
