43444
     RDKit          3D

 22 23  0  0  0  0  0  0  0  0999 V2000
   -0.0494    0.2561   -1.1359 O   0  0  0  0  0  0  0  0  0  0  0  0
   -1.0823   -1.6576   -0.4276 O   0  0  0  0  0  0  0  0  0  0  0  0
    3.1843   -0.6311   -0.7104 N   0  0  0  0  0  0  0  0  0  0  0  0
   -2.2089    0.3905   -0.5654 N   0  0  0  0  0  0  0  0  0  0  0  0
    4.0397    0.1124    0.2189 C   0  0  0  0  0  0  0  0  0  0  0  0
    1.1746   -0.4855   -1.3132 C   0  0  0  0  0  0  0  0  0  0  0  0
    1.8990   -0.9508   -0.0421 C   0  0  0  0  0  0  0  0  0  0  0  0
    2.4511    0.3266   -1.5738 C   0  0  0  0  0  0  0  0  0  0  0  0
    4.3546   -0.7445    1.4764 C   0  0  0  0  0  0  0  0  0  0  0  0
    5.3828    0.4440   -0.4885 C   0  0  0  0  0  0  0  0  0  0  0  0
    3.3640    1.3676    0.6189 C   0  0  0  0  0  0  0  0  0  0  0  0
    5.0100   -2.0985    1.2113 C   0  0  0  0  0  0  0  0  0  0  0  0
    6.3732    1.2652    0.3361 C   0  0  0  0  0  0  0  0  0  0  0  0
   -1.1261   -0.4595   -0.6789 C   0  0  0  0  0  0  0  0  0  0  0  0
    2.8170    2.3859    0.9449 C   0  0  0  0  0  0  0  0  0  0  0  0
   -3.5180    0.0789   -0.1329 C   0  0  0  0  0  0  0  0  0  0  0  0
   -4.4758    1.0796   -0.0879 C   0  0  0  0  0  0  0  0  0  0  0  0
   -3.8184   -1.2222    0.2381 C   0  0  0  0  0  0  0  0  0  0  0  0
   -5.7674    0.7710    0.3390 C   0  0  0  0  0  0  0  0  0  0  0  0
   -5.1100   -1.5307    0.6649 C   0  0  0  0  0  0  0  0  0  0  0  0
   -6.0844   -0.5342    0.7154 C   0  0  0  0  0  0  0  0  0  0  0  0
   -6.8097    1.8366    0.3927 C   0  0  0  0  0  0  0  0  0  0  0  0
  1  6  1  0
  1 14  1  0
  2 14  2  0
  3  5  1  0
  3  7  1  0
  3  8  1  0
  4 14  1  0
  4 16  1  0
  5  9  1  0
  5 10  1  0
  5 11  1  0
  6  7  1  0
  6  8  1  0
  9 12  1  0
 10 13  1  0
 11 15  3  0
 16 17  2  0
 16 18  1  0
 17 19  1  0
 18 20  2  0
 19 21  2  0
 19 22  1  0
 20 21  1  0
M  END
>  <PUBCHEM_COMPOUND_CID>  (1) 
43444

>  <PUBCHEM_CONFORMER_RMSD>  (1) 
0.8

>  <PUBCHEM_CONFORMER_DIVERSEORDER>  (1) 
3
47
20
56
22
32
37
35
38
17
58
14
11
6
31
50
43
21
40
18
48
19
57
7
39
5
49
51
12
44
13
16
45
41
33
4
24
9
46
54
34
1
55
27
60
42
28
53
23
10
8
15
59
36
2
29
52
26
25
30

>  <PUBCHEM_MMFF94_PARTIAL_CHARGES>  (1) 
24
1 -0.41
11 -0.2
14 0.78
15 -0.18
16 0.12
17 -0.15
18 -0.15
19 -0.14
2 -0.57
20 -0.15
21 -0.15
22 0.14
3 -0.69
38 0.18
39 0.37
4 -0.55
40 0.15
41 0.15
42 0.15
43 0.15
5 0.47
6 0.26
7 0.21
8 0.21

>  <PUBCHEM_EFFECTIVE_ROTOR_COUNT>  (1) 
7.8

>  <PUBCHEM_PHARMACOPHORE_FEATURES>  (1) 
8
1 12 hydrophobe
1 13 hydrophobe
1 15 hydrophobe
1 2 acceptor
1 3 cation
1 4 donor
4 3 6 7 8 rings
6 16 17 18 19 20 21 rings

>  <PUBCHEM_HEAVY_ATOM_COUNT>  (1) 
22

>  <PUBCHEM_ATOM_DEF_STEREO_COUNT>  (1) 
0

>  <PUBCHEM_ATOM_UDEF_STEREO_COUNT>  (1) 
0

>  <PUBCHEM_BOND_DEF_STEREO_COUNT>  (1) 
0

>  <PUBCHEM_BOND_UDEF_STEREO_COUNT>  (1) 
0

>  <PUBCHEM_ISOTOPIC_ATOM_COUNT>  (1) 
0

>  <PUBCHEM_COMPONENT_COUNT>  (1) 
1

>  <PUBCHEM_CACTVS_TAUTO_COUNT>  (1) 
2

>  <PUBCHEM_CONFORMER_ID>  (1) 
0000A9B400000003

>  <PUBCHEM_MMFF94_ENERGY>  (1) 
66.0591

>  <PUBCHEM_FEATURE_SELFOVERLAP>  (1) 
40.596

>  <PUBCHEM_SHAPE_FINGERPRINT>  (1) 
10 15 18409737257641496889
10354089 29 18343020017207127184
10447042 23 12107775333659362416
106641 1 17458909348562719540
10670039 82 16343438236442431504
11045977 3 18412829109723458739
11089746 13 18272082795352827445
11646440 116 16702025300339385658
12236239 1 18040718060883000523
12516196 113 16588025722921564333
12596602 18 18334013891045260409
12616971 3 17988916790890675125
12633257 1 18272922843489783966
12670546 177 10807934877108187746
12778500 126 18261954033607241544
13533116 47 18187643562030261802
13685833 64 13190343469675754837
13785724 45 17909551662608856222
14211702 104 17168440354052908683
14251718 22 10087637100697043443
14251764 18 18113623400161441119
14341114 176 18334857199595222072
14528608 73 12607401087736670039
14849402 71 17678184995630373236
15183329 4 18131634465713375353
15238133 3 18411143571431199580
15348495 7 18410013269113904051
15461852 350 18202280330092184607
15537594 2 13479133510189052641
16120349 189 10877695622481702018
1813 80 15502376699226169294
21033648 29 18201711881726276577
21130935 74 18259705579847945259
21150785 3 11599710775998384609
21859007 373 17388247945682603285
220451 1 17749114382762061375
22061861 79 12107784112324355459
221357 26 13039190295033717954
22224240 67 17023181682784809616
23198884 109 12679461980752385205
23559900 14 17703804590918537367
2767999 5 16415474939537664115
312425 54 18040152911874597787
314173 85 15647051555942285903
351380 3 14996282526541808985
3545911 37 16988849392555688598
3663271 9 18260830405869902307
3680242 22 18341616979665504537
4073 2 18041284382211754410
4325135 7 17274821398469289839
4340502 62 17894906357068385738
5104073 3 18334583438675252715
543368 44 13542455467649759795
8509985 295 18343578525953296576
960060 61 7853576824519967626

>  <PUBCHEM_SHAPE_MULTIPOLES>  (1) 
431.05
17.95
1.91
1.22
13.02
0.22
0.09
3.48
-5.6
-0.36
-0.68
-1.11
-0.12
-0.2

>  <PUBCHEM_SHAPE_SELFOVERLAP>  (1) 
891.394

>  <PUBCHEM_SHAPE_VOLUME>  (1) 
248.4

>  <PUBCHEM_COORDINATE_TYPE>  (1) 
2
5
10

$$$$
