43440
     RDKit          3D

 18 18  0  0  0  0  0  0  0  0999 V2000
    1.4254   -0.4719    1.1257 O   0  0  0  0  0  0  0  0  0  0  0  0
    2.4761   -1.7078   -0.5000 O   0  0  0  0  0  0  0  0  0  0  0  0
   -1.8059   -0.9866    0.2783 N   0  0  0  0  0  0  0  0  0  0  0  0
    3.5960   -0.0717    0.7062 N   0  0  0  0  0  0  0  0  0  0  0  0
   -2.6579    0.1409   -0.1100 C   0  0  0  0  0  0  0  0  0  0  0  0
    0.2012   -1.1907    0.8727 C   0  0  0  0  0  0  0  0  0  0  0  0
   -1.0768   -0.6431    1.5236 C   0  0  0  0  0  0  0  0  0  0  0  0
   -0.5177   -0.8998   -0.4523 C   0  0  0  0  0  0  0  0  0  0  0  0
   -2.9672    0.0934   -1.6321 C   0  0  0  0  0  0  0  0  0  0  0  0
   -4.0041    0.0433    0.6598 C   0  0  0  0  0  0  0  0  0  0  0  0
   -1.9813    1.4136    0.2288 C   0  0  0  0  0  0  0  0  0  0  0  0
   -3.6228   -1.1902   -2.1376 C   0  0  0  0  0  0  0  0  0  0  0  0
   -4.9916    1.1805    0.4010 C   0  0  0  0  0  0  0  0  0  0  0  0
    2.5000   -0.8337    0.3603 C   0  0  0  0  0  0  0  0  0  0  0  0
   -1.4336    2.4469    0.5023 C   0  0  0  0  0  0  0  0  0  0  0  0
    4.8936   -0.2045    0.0849 C   0  0  0  0  0  0  0  0  0  0  0  0
    5.0515    0.7027   -1.1293 C   0  0  0  0  0  0  0  0  0  0  0  0
    4.9152    2.1786   -0.7826 C   0  0  0  0  0  0  0  0  0  0  0  0
  1  6  1  0
  1 14  1  0
  2 14  2  0
  3  5  1  0
  3  7  1  0
  3  8  1  0
  4 14  1  0
  4 16  1  0
  5  9  1  0
  5 10  1  0
  5 11  1  0
  6  7  1  0
  6  8  1  0
  9 12  1  0
 10 13  1  0
 11 15  3  0
 16 17  1  0
 17 18  1  0
M  END
>  <PUBCHEM_COMPOUND_CID>  (1) 
43440

>  <PUBCHEM_CONFORMER_RMSD>  (1) 
0.8

>  <PUBCHEM_CONFORMER_DIVERSEORDER>  (1) 
1
54
44
57
32
10
43
8
46
50
9
42
34
16
45
49
47
56
31
36
35
53
38
20
22
24
15
11
13
29
41
25
58
23
48
37
28
55
12
17
26
14
33
52
30
51
27
7
6
19
4
40
18
2
39
21
3
5

>  <PUBCHEM_MMFF94_PARTIAL_CHARGES>  (1) 
14
1 -0.41
11 -0.2
14 0.78
15 -0.18
16 0.3
2 -0.57
3 -0.69
34 0.18
35 0.37
4 -0.73
5 0.47
6 0.26
7 0.21
8 0.21

>  <PUBCHEM_EFFECTIVE_ROTOR_COUNT>  (1) 
8.8

>  <PUBCHEM_PHARMACOPHORE_FEATURES>  (1) 
8
1 12 hydrophobe
1 13 hydrophobe
1 15 hydrophobe
1 18 hydrophobe
1 2 acceptor
1 3 cation
1 4 donor
4 3 6 7 8 rings

>  <PUBCHEM_HEAVY_ATOM_COUNT>  (1) 
18

>  <PUBCHEM_ATOM_DEF_STEREO_COUNT>  (1) 
0

>  <PUBCHEM_ATOM_UDEF_STEREO_COUNT>  (1) 
0

>  <PUBCHEM_BOND_DEF_STEREO_COUNT>  (1) 
0

>  <PUBCHEM_BOND_UDEF_STEREO_COUNT>  (1) 
0

>  <PUBCHEM_ISOTOPIC_ATOM_COUNT>  (1) 
0

>  <PUBCHEM_COMPONENT_COUNT>  (1) 
1

>  <PUBCHEM_CACTVS_TAUTO_COUNT>  (1) 
2

>  <PUBCHEM_CONFORMER_ID>  (1) 
0000A9B000000001

>  <PUBCHEM_MMFF94_ENERGY>  (1) 
36.2689

>  <PUBCHEM_FEATURE_SELFOVERLAP>  (1) 
40.597

>  <PUBCHEM_SHAPE_FINGERPRINT>  (1) 
10670039 82 18188225204245890412
11128504 68 18341328972291495108
11759241 127 18413106143514114228
12403259 415 16660642912596339078
12670546 177 17489308624667430252
12892183 10 14345786132985956554
13214271 11 18411982434620931891
13533116 47 16588300536704510978
13675066 3 15357694167645535082
14787075 74 18113902705921191867
15048467 5 17676768653186875253
15239191 94 11239998949811944200
17862501 102 11314317143861714505
17870717 6 15769783467561124429
193927 3 13182751368051254780
20300324 65 18272366477557755520
20325693 3 16917349238581944455
20645477 56 17458351840106236602
20871999 31 17846491573450862607
21033648 29 16226037903776920436
212916 134 12829754194566134901
21652331 79 18260271858495679972
21713013 43 16773789312082960756
22926399 37 18186515497296078893
23402539 116 18411974754391380851
23402655 69 18059573542442309099
235170 7 16917071066567447172
23557571 272 18337405944641969266
23559900 14 18261392218369640378
2838139 119 18334008428638644100
4028521 119 18113333120211681844
474 4 17603877736376751732
4921388 177 16917348168797633943
559249 180 12462750381805755322
58051976 100 17203319018552759071
59755656 520 17531250538917065882
633830 44 18261955120260581131

>  <PUBCHEM_SHAPE_MULTIPOLES>  (1) 
348.73
10.94
1.92
1.48
10.59
1.05
-0.57
3.86
-3.01
0.42
-0.09
-0.98
-0.36
-1.44

>  <PUBCHEM_SHAPE_SELFOVERLAP>  (1) 
684.995

>  <PUBCHEM_SHAPE_VOLUME>  (1) 
210.6

>  <PUBCHEM_COORDINATE_TYPE>  (1) 
2
5
10

$$$$
