43452
     RDKit          3D

 17 17  0  0  0  0  0  0  0  0999 V2000
    1.7651    0.7836    0.6596 O   0  0  0  0  0  0  0  0  0  0  0  0
    2.9390    0.1892   -1.2224 O   0  0  0  0  0  0  0  0  0  0  0  0
   -1.3828    0.7923   -0.5715 N   0  0  0  0  0  0  0  0  0  0  0  0
    3.8483   -0.0220    0.9023 N   0  0  0  0  0  0  0  0  0  0  0  0
   -2.3921   -0.1216   -0.0292 C   0  0  0  0  0  0  0  0  0  0  0  0
    0.6468    1.1669   -0.1661 C   0  0  0  0  0  0  0  0  0  0  0  0
   -0.6791    1.4636    0.5487 C   0  0  0  0  0  0  0  0  0  0  0  0
   -0.1367    0.0366   -0.8485 C   0  0  0  0  0  0  0  0  0  0  0  0
   -3.4488    0.6608    0.7990 C   0  0  0  0  0  0  0  0  0  0  0  0
   -3.1236   -0.8210   -1.2083 C   0  0  0  0  0  0  0  0  0  0  0  0
   -1.7342   -1.1383    0.8225 C   0  0  0  0  0  0  0  0  0  0  0  0
   -4.1756    1.7825    0.0596 C   0  0  0  0  0  0  0  0  0  0  0  0
   -4.1807   -1.8489   -0.8070 C   0  0  0  0  0  0  0  0  0  0  0  0
    2.8615    0.3049   -0.0039 C   0  0  0  0  0  0  0  0  0  0  0  0
   -1.2021   -1.9635    1.5143 C   0  0  0  0  0  0  0  0  0  0  0  0
    5.1368   -0.5567    0.5266 C   0  0  0  0  0  0  0  0  0  0  0  0
    5.2582   -0.7084   -0.9756 C   0  0  0  0  0  0  0  0  0  0  0  0
  1  6  1  0
  1 14  1  0
  2 14  2  0
  3  5  1  0
  3  7  1  0
  3  8  1  0
  4 14  1  0
  4 16  1  0
  5  9  1  0
  5 10  1  0
  5 11  1  0
  6  7  1  0
  6  8  1  0
  9 12  1  0
 10 13  1  0
 11 15  3  0
 16 17  1  0
M  END
>  <PUBCHEM_COMPOUND_CID>  (1) 
43452

>  <PUBCHEM_CONFORMER_RMSD>  (1) 
0.8

>  <PUBCHEM_CONFORMER_DIVERSEORDER>  (1) 
1
3
5
6
2
4

>  <PUBCHEM_MMFF94_PARTIAL_CHARGES>  (1) 
14
1 -0.41
11 -0.2
14 0.78
15 -0.18
16 0.3
2 -0.57
3 -0.69
33 0.18
34 0.37
4 -0.73
5 0.47
6 0.26
7 0.21
8 0.21

>  <PUBCHEM_EFFECTIVE_ROTOR_COUNT>  (1) 
7.8

>  <PUBCHEM_PHARMACOPHORE_FEATURES>  (1) 
7
1 12 hydrophobe
1 13 hydrophobe
1 15 hydrophobe
1 2 acceptor
1 3 cation
1 4 donor
4 3 6 7 8 rings

>  <PUBCHEM_HEAVY_ATOM_COUNT>  (1) 
17

>  <PUBCHEM_ATOM_DEF_STEREO_COUNT>  (1) 
0

>  <PUBCHEM_ATOM_UDEF_STEREO_COUNT>  (1) 
0

>  <PUBCHEM_BOND_DEF_STEREO_COUNT>  (1) 
0

>  <PUBCHEM_BOND_UDEF_STEREO_COUNT>  (1) 
0

>  <PUBCHEM_ISOTOPIC_ATOM_COUNT>  (1) 
0

>  <PUBCHEM_COMPONENT_COUNT>  (1) 
1

>  <PUBCHEM_CACTVS_TAUTO_COUNT>  (1) 
2

>  <PUBCHEM_CONFORMER_ID>  (1) 
0000A9BC00000001

>  <PUBCHEM_MMFF94_ENERGY>  (1) 
46.6826

>  <PUBCHEM_FEATURE_SELFOVERLAP>  (1) 
35.52

>  <PUBCHEM_SHAPE_FINGERPRINT>  (1) 
10062212 137 18412255134557703807
11315181 36 18131917044712620624
12346177 29 18343016701223342997
124424 183 18131632270510254873
12507557 5 16056874745656271354
12553582 1 17894909624900460656
12555020 224 17967523592933350619
12596602 18 16056585548846086702
12788726 201 18195248819624990240
13583140 156 16487245582278182528
13675066 3 17131829876379426284
13760787 5 17603305959790718636
14115302 16 18041006150188429308
14251731 8 18411420575003888084
15375358 24 18131071511216663492
15880784 105 17632857538612102794
16752209 62 17750495352165456281
16945 1 17749661982781831153
18186145 218 16081370786491539868
200 152 14405177344302920957
20279233 1 17489593337733126884
20281475 54 18113900493828326696
20645476 183 16081079415815234235
20871999 31 17603301574534124814
21119208 17 16443057309865164294
21652331 79 11959721677737321146
22485316 2 18201718436210145908
2306618 200 15769781234431266905
23402539 116 18334852796990116708
23559900 14 18260830440920983480
26918003 58 16487254357175917150
3286 77 17988072421610585769
351380 180 11743834742808091010
4175511 318 16225758627549333647
5104073 3 17988921197621975866
559249 180 18411695448499833223
59755656 215 18410851032834797943
74978 22 17896322591704852157
76465 3 17915451903848145511
9709674 26 18267583692012935784

>  <PUBCHEM_SHAPE_MULTIPOLES>  (1) 
328.15
10.05
1.74
1.24
11.48
0.26
-0.02
1.91
1.3
-2.05
-0.27
-0.06
0.43
-0.27

>  <PUBCHEM_SHAPE_SELFOVERLAP>  (1) 
649.905

>  <PUBCHEM_SHAPE_VOLUME>  (1) 
196.9

>  <PUBCHEM_COORDINATE_TYPE>  (1) 
2
5
10

$$$$
