43455
     RDKit          3D

 19 20  0  0  0  0  0  0  0  0999 V2000
    1.6520   -0.6662    0.7749 O   0  0  0  0  0  0  0  0  0  0  0  0
    2.6839   -0.9501   -1.2573 O   0  0  0  0  0  0  0  0  0  0  0  0
   -1.2015   -0.0938    0.3302 N   0  0  0  0  0  0  0  0  0  0  0  0
    3.7255    0.1334    0.5099 N   0  0  0  0  0  0  0  0  0  0  0  0
   -2.6135   -0.2281   -0.0419 C   0  0  0  0  0  0  0  0  0  0  0  0
   -0.3544   -0.5904   -0.7817 C   0  0  0  0  0  0  0  0  0  0  0  0
   -0.7893   -1.2796    1.1205 C   0  0  0  0  0  0  0  0  0  0  0  0
   -2.8839    0.5986   -1.3163 C   0  0  0  0  0  0  0  0  0  0  0  0
   -3.4965    0.2854    1.1146 C   0  0  0  0  0  0  0  0  0  0  0  0
    0.4761   -1.3601    0.2549 C   0  0  0  0  0  0  0  0  0  0  0  0
   -2.7581    2.1071   -1.0905 C   0  0  0  0  0  0  0  0  0  0  0  0
   -3.3705    1.7936    1.3412 C   0  0  0  0  0  0  0  0  0  0  0  0
   -3.6407    2.5783    0.0611 C   0  0  0  0  0  0  0  0  0  0  0  0
   -2.9189   -1.6499   -0.3022 C   0  0  0  0  0  0  0  0  0  0  0  0
    2.6866   -0.5348   -0.1031 C   0  0  0  0  0  0  0  0  0  0  0  0
   -3.1675   -2.8050   -0.5138 C   0  0  0  0  0  0  0  0  0  0  0  0
    4.9778    0.4399   -0.1421 C   0  0  0  0  0  0  0  0  0  0  0  0
    4.8906    1.7907   -0.8470 C   0  0  0  0  0  0  0  0  0  0  0  0
    6.1024    0.4310    0.8884 C   0  0  0  0  0  0  0  0  0  0  0  0
  1 10  1  0
  1 15  1  0
  2 15  2  0
  3  5  1  0
  3  6  1  0
  3  7  1  0
  4 15  1  0
  4 17  1  0
  5  8  1  0
  5  9  1  0
  5 14  1  0
  6 10  1  0
  7 10  1  0
  8 11  1  0
  9 12  1  0
 11 13  1  0
 12 13  1  0
 14 16  3  0
 17 18  1  0
 17 19  1  0
M  END
>  <PUBCHEM_COMPOUND_CID>  (1) 
43455

>  <PUBCHEM_CONFORMER_RMSD>  (1) 
0.8

>  <PUBCHEM_CONFORMER_DIVERSEORDER>  (1) 
2
19
32
28
20
3
30
24
23
18
40
33
22
35
26
29
25
36
17
34
21
27
14
39
31
1
4
12
15
7
11
13
8
16
38
9
6
37
10
5

>  <PUBCHEM_MMFF94_PARTIAL_CHARGES>  (1) 
14
1 -0.41
10 0.26
14 -0.2
15 0.78
16 -0.18
17 0.3
2 -0.57
3 -0.69
35 0.18
36 0.37
4 -0.73
5 0.47
6 0.21
7 0.21

>  <PUBCHEM_EFFECTIVE_ROTOR_COUNT>  (1) 
7

>  <PUBCHEM_PHARMACOPHORE_FEATURES>  (1) 
7
1 16 hydrophobe
1 2 acceptor
1 3 cation
1 4 donor
3 17 18 19 hydrophobe
4 3 6 7 10 rings
6 5 8 9 11 12 13 rings

>  <PUBCHEM_HEAVY_ATOM_COUNT>  (1) 
19

>  <PUBCHEM_ATOM_DEF_STEREO_COUNT>  (1) 
0

>  <PUBCHEM_ATOM_UDEF_STEREO_COUNT>  (1) 
0

>  <PUBCHEM_BOND_DEF_STEREO_COUNT>  (1) 
0

>  <PUBCHEM_BOND_UDEF_STEREO_COUNT>  (1) 
0

>  <PUBCHEM_ISOTOPIC_ATOM_COUNT>  (1) 
0

>  <PUBCHEM_COMPONENT_COUNT>  (1) 
1

>  <PUBCHEM_CACTVS_TAUTO_COUNT>  (1) 
2

>  <PUBCHEM_CONFORMER_ID>  (1) 
0000A9BF00000002

>  <PUBCHEM_MMFF94_ENERGY>  (1) 
41.7202

>  <PUBCHEM_FEATURE_SELFOVERLAP>  (1) 
35.52

>  <PUBCHEM_SHAPE_FINGERPRINT>  (1) 
10014705 185 18334292050465597085
10291535 26 17917992754501896520
10912923 1 18114175376573628666
11101153 10 18121218955045467212
11405975 8 18340208479933587946
12107183 9 17973430011148254866
12173636 292 18200036127759147199
12596602 18 16153715353249180648
13675066 3 16950565437491201714
14123255 352 18334010567036335644
14142880 1 18113898217991766189
14251764 38 18268145547367719688
14251764 75 17482280309883362425
15209294 21 18114462279850892060
15342168 16 18196375810643344993
1741750 31 18269552750225032555
17844677 252 18339648931799415262
17870717 6 11959723859274784713
18186145 218 18341620261268723862
193927 3 9078822022253751904
19489759 90 18409160048111985114
20300324 65 18336543931688650943
20645477 56 18343024371987447899
20645477 70 16558478474313931774
21339142 149 18187089472615529395
21426921 1 18340764931458877231
21623110 236 18115312322345715693
23227448 37 18411984658955419109
23402539 116 18187917430477479150
23557571 272 18273218620338331774
27216 239 18187370883336431609
283562 15 18336823191106399891
3268164 11 18341888636289161911
3472631 163 18409729517498967773
441001 317 18272083898922175568
5104073 3 18041843896064641218
633830 44 18269840809038487446
7808743 9 18411135801334220633

>  <PUBCHEM_SHAPE_MULTIPOLES>  (1) 
369.31
11.23
2.5
1.25
19.58
0.29
0.02
4.89
0.74
-3.31
-0.35
-0.43
0.24
-0.58

>  <PUBCHEM_SHAPE_SELFOVERLAP>  (1) 
749.051

>  <PUBCHEM_SHAPE_VOLUME>  (1) 
213.4

>  <PUBCHEM_COORDINATE_TYPE>  (1) 
2
5
10

$$$$
