43454
     RDKit          3D

 19 19  0  0  0  0  0  0  0  0999 V2000
    1.1570    0.8298    0.6014 O   0  0  0  0  0  0  0  0  0  0  0  0
    2.2464    0.5453   -1.4000 O   0  0  0  0  0  0  0  0  0  0  0  0
   -2.0518    0.8729   -0.4602 N   0  0  0  0  0  0  0  0  0  0  0  0
    3.2770    0.0869    0.6282 N   0  0  0  0  0  0  0  0  0  0  0  0
   -2.9976   -0.1475    0.0006 C   0  0  0  0  0  0  0  0  0  0  0  0
   -0.0175    1.2740   -0.1077 C   0  0  0  0  0  0  0  0  0  0  0  0
   -1.3119    1.4153    0.7056 C   0  0  0  0  0  0  0  0  0  0  0  0
   -0.7971    0.2146   -0.8993 C   0  0  0  0  0  0  0  0  0  0  0  0
   -4.0342    0.4706    0.9794 C   0  0  0  0  0  0  0  0  0  0  0  0
   -3.7675   -0.7109   -1.2259 C   0  0  0  0  0  0  0  0  0  0  0  0
   -2.2592   -1.2416    0.6711 C   0  0  0  0  0  0  0  0  0  0  0  0
   -4.8389    1.6505    0.4379 C   0  0  0  0  0  0  0  0  0  0  0  0
   -4.7647   -1.8272   -0.9180 C   0  0  0  0  0  0  0  0  0  0  0  0
    2.2315    0.4917   -0.1748 C   0  0  0  0  0  0  0  0  0  0  0  0
    4.5610   -0.3375    0.1195 C   0  0  0  0  0  0  0  0  0  0  0  0
   -1.6618   -2.1298    1.2160 C   0  0  0  0  0  0  0  0  0  0  0  0
    5.4721   -0.7134    1.2938 C   0  0  0  0  0  0  0  0  0  0  0  0
    4.3619   -1.5529   -0.7921 C   0  0  0  0  0  0  0  0  0  0  0  0
    5.1953    0.8094   -0.6757 C   0  0  0  0  0  0  0  0  0  0  0  0
  1  6  1  0
  1 14  1  0
  2 14  2  0
  3  5  1  0
  3  7  1  0
  3  8  1  0
  4 14  1  0
  4 15  1  0
  5  9  1  0
  5 10  1  0
  5 11  1  0
  6  7  1  0
  6  8  1  0
  9 12  1  0
 10 13  1  0
 11 16  3  0
 15 17  1  0
 15 18  1  0
 15 19  1  0
M  END
>  <PUBCHEM_COMPOUND_CID>  (1) 
43454

>  <PUBCHEM_CONFORMER_RMSD>  (1) 
0.8

>  <PUBCHEM_CONFORMER_DIVERSEORDER>  (1) 
1
12
14
15
6
16
17
13
11
8
4
10
7
3
5
9
2

>  <PUBCHEM_MMFF94_PARTIAL_CHARGES>  (1) 
14
1 -0.41
11 -0.2
14 0.78
15 0.3
16 -0.18
2 -0.57
3 -0.69
35 0.37
36 0.18
4 -0.73
5 0.47
6 0.26
7 0.21
8 0.21

>  <PUBCHEM_EFFECTIVE_ROTOR_COUNT>  (1) 
7.8

>  <PUBCHEM_PHARMACOPHORE_FEATURES>  (1) 
8
1 12 hydrophobe
1 13 hydrophobe
1 16 hydrophobe
1 2 acceptor
1 3 cation
1 4 donor
4 15 17 18 19 hydrophobe
4 3 6 7 8 rings

>  <PUBCHEM_HEAVY_ATOM_COUNT>  (1) 
19

>  <PUBCHEM_ATOM_DEF_STEREO_COUNT>  (1) 
0

>  <PUBCHEM_ATOM_UDEF_STEREO_COUNT>  (1) 
0

>  <PUBCHEM_BOND_DEF_STEREO_COUNT>  (1) 
0

>  <PUBCHEM_BOND_UDEF_STEREO_COUNT>  (1) 
0

>  <PUBCHEM_ISOTOPIC_ATOM_COUNT>  (1) 
0

>  <PUBCHEM_COMPONENT_COUNT>  (1) 
1

>  <PUBCHEM_CACTVS_TAUTO_COUNT>  (1) 
2

>  <PUBCHEM_CONFORMER_ID>  (1) 
0000A9BE00000001

>  <PUBCHEM_MMFF94_ENERGY>  (1) 
52.025

>  <PUBCHEM_FEATURE_SELFOVERLAP>  (1) 
40.597

>  <PUBCHEM_SHAPE_FINGERPRINT>  (1) 
10366900 7 18271807956063646314
10670039 82 12391523018364024402
10912923 1 18411139151693404880
11315181 36 18342453768397160168
12236239 1 17967818232105856905
12507557 5 15841547496247166769
12523318 42 17059762433791994335
12555020 224 18040707100137484867
12596602 18 15841546397216054102
12788726 201 18199192793318790096
13081056 2 8934995958775918018
13583140 156 16343693331518694483
13675066 3 16128657453007682516
13760787 5 17821449070846611652
14115302 16 18187092766617789004
14251752 14 18114169823128076669
15375358 24 18060143119667476516
15880784 105 17346598573734252510
16752209 62 17896019019247952137
18186145 218 16153709859764267965
19489759 90 17846495920347844329
200 152 18410570708091423829
20279233 1 17275111612902977509
20281475 54 18334859466989931205
20374829 77 18411129255967156351
20432913 95 17917712400949369318
21424621 283 16628857071705781281
22485316 2 18202847638677898300
22646028 1 18187080655063078944
22854114 59 15841549678528422028
23402539 116 18409443674582500381
23559900 14 18264481965448089608
26918003 58 17489585636751198528
300161 21 18408041818964154348
3004659 81 18260270724977358526
4921388 177 17241055408479538515
5104073 3 18059573632657864833
5281201 14 13479137882645023030
542803 24 18410014329707250604
559249 180 18411413986798271607
5924683 9 18060132172149494415
59755656 520 18270113501799224973
7226269 152 18272373018988685409
76465 3 17987509493759839751
9709674 26 18411707564898078318

>  <PUBCHEM_SHAPE_MULTIPOLES>  (1) 
369.31
12.49
1.81
1.25
10.04
0.52
0.01
2.01
-0.01
-1.53
-0.18
0.01
0.29
-0.79

>  <PUBCHEM_SHAPE_SELFOVERLAP>  (1) 
732.845

>  <PUBCHEM_SHAPE_VOLUME>  (1) 
222.2

>  <PUBCHEM_COORDINATE_TYPE>  (1) 
2
5
10

$$$$
