4346
     RDKit          3D

 29 31  0  0  1  0  0  0  0  0999 V2000
    1.6768   -0.1005   -1.4967 S   0  0  0  0  0  0  0  0  0  0  0  0
    0.3064    3.6970    0.5914 O   0  0  0  0  0  0  0  0  0  0  0  0
   -1.5513    2.2865    0.1648 O   0  0  0  0  0  0  0  0  0  0  0  0
    2.0973    1.2021   -1.9793 O   0  0  0  0  0  0  0  0  0  0  0  0
    1.2467   -1.1091   -2.4476 O   0  0  0  0  0  0  0  0  0  0  0  0
   -4.7819   -0.6533    1.5962 O   0  0  0  0  0  0  0  0  0  0  0  0
   -5.4797   -2.0437   -0.2443 O   0  0  0  0  0  0  0  0  0  0  0  0
    0.4669    0.1009   -0.2834 N   0  0  0  0  0  0  0  0  0  0  0  0
    0.5727    1.2789    0.6118 C   0  0  0  0  0  0  0  0  0  0  0  0
    0.0067   -1.1110    0.4423 C   0  0  0  0  0  0  0  0  0  0  0  0
   -0.1406    2.4795   -0.0122 C   0  0  0  0  0  0  0  0  0  0  0  0
   -1.4562   -1.3817    0.2283 C   0  0  0  0  0  0  0  0  0  0  0  0
    3.0306   -0.7843   -0.5822 C   0  0  0  0  0  0  0  0  0  0  0  0
   -2.3986   -0.8257    1.0967 C   0  0  0  0  0  0  0  0  0  0  0  0
   -1.8634   -2.1930   -0.8454 C   0  0  0  0  0  0  0  0  0  0  0  0
   -3.7293   -1.1027    0.8599 C   0  0  0  0  0  0  0  0  0  0  0  0
    3.9753    0.0596    0.0018 C   0  0  0  0  0  0  0  0  0  0  0  0
    3.1525   -2.1673   -0.4471 C   0  0  0  0  0  0  0  0  0  0  0  0
   -4.1279   -1.8967   -0.1910 C   0  0  0  0  0  0  0  0  0  0  0  0
   -3.2175   -2.4576   -1.0631 C   0  0  0  0  0  0  0  0  0  0  0  0
    5.0418   -0.4794    0.7211 C   0  0  0  0  0  0  0  0  0  0  0  0
    4.2191   -2.7063    0.2721 C   0  0  0  0  0  0  0  0  0  0  0  0
    1.5524    4.1502    0.0800 C   0  0  0  0  0  0  0  0  0  0  0  0
   -2.3215    3.0676   -0.7394 C   0  0  0  0  0  0  0  0  0  0  0  0
    5.1640   -1.8624    0.8562 C   0  0  0  0  0  0  0  0  0  0  0  0
   -5.8876   -1.2528    0.8906 C   0  0  0  0  0  0  0  0  0  0  0  0
    1.9340    5.4371    0.7800 C   0  0  0  0  0  0  0  0  0  0  0  0
   -3.7913    2.8070   -0.4877 C   0  0  0  0  0  0  0  0  0  0  0  0
    6.3036   -2.4390    1.6262 C   0  0  0  0  0  0  0  0  0  0  0  0
  1  4  2  0
  1  5  2  0
  1  8  1  0
  1 13  1  0
  2 11  1  0
  2 23  1  0
  3 11  1  0
  3 24  1  0
  6 16  1  0
  6 26  1  0
  7 19  1  0
  7 26  1  0
  8  9  1  0
  8 10  1  0
  9 11  1  0
 10 12  1  0
 12 14  1  0
 12 15  2  0
 13 17  2  0
 13 18  1  0
 14 16  2  0
 15 20  1  0
 16 19  1  0
 17 21  1  0
 18 22  2  0
 19 20  2  0
 21 25  2  0
 22 25  1  0
 23 27  1  0
 24 28  1  0
 25 29  1  0
M  END
>  <PUBCHEM_COMPOUND_CID>  (1) 
4346

>  <PUBCHEM_CONFORMER_RMSD>  (1) 
1.2

>  <PUBCHEM_CONFORMER_DIVERSEORDER>  (1) 
1
78
29
42
71
86
26
32
46
39
8
60
10
17
36
35
84
40
18
79
51
93
2
52
28
16
25
37
48
74
54
92
77
15
12
64
68
31
81
41
94
76
82
19
89
27
47
73
43
9
90
56
85
21
53
88
91
4
34
70
58
30
67
13
80
63
59
22
65
45
24
49
14
57
72
20
33
44
11
50
62
3
83
23
87
55
38
5
6
61
69
66
7
75

>  <PUBCHEM_MMFF94_PARTIAL_CHARGES>  (1) 
34
1 1.45
10 0.5
11 0.56
12 -0.14
13 -0.01
14 -0.15
15 -0.15
16 0.08
17 -0.15
18 -0.15
19 0.08
2 -0.56
20 -0.15
21 -0.15
22 -0.15
23 0.28
24 0.28
25 -0.14
26 0.56
29 0.14
3 -0.56
35 0.15
36 0.15
37 0.15
38 0.15
39 0.15
4 -0.65
44 0.15
45 0.15
5 -0.65
6 -0.36
7 -0.36
8 -0.85
9 0.36

>  <PUBCHEM_EFFECTIVE_ROTOR_COUNT>  (1) 
10.6

>  <PUBCHEM_PHARMACOPHORE_FEATURES>  (1) 
9
1 2 acceptor
1 3 acceptor
1 4 acceptor
1 5 acceptor
1 6 acceptor
1 7 acceptor
5 6 7 16 19 26 rings
6 12 14 15 16 19 20 rings
6 13 17 18 21 22 25 rings

>  <PUBCHEM_HEAVY_ATOM_COUNT>  (1) 
29

>  <PUBCHEM_ATOM_DEF_STEREO_COUNT>  (1) 
0

>  <PUBCHEM_ATOM_UDEF_STEREO_COUNT>  (1) 
0

>  <PUBCHEM_BOND_DEF_STEREO_COUNT>  (1) 
0

>  <PUBCHEM_BOND_UDEF_STEREO_COUNT>  (1) 
0

>  <PUBCHEM_ISOTOPIC_ATOM_COUNT>  (1) 
0

>  <PUBCHEM_COMPONENT_COUNT>  (1) 
1

>  <PUBCHEM_CACTVS_TAUTO_COUNT>  (1) 
1

>  <PUBCHEM_CONFORMER_ID>  (1) 
000010FA00000001

>  <PUBCHEM_MMFF94_ENERGY>  (1) 
57.9106

>  <PUBCHEM_FEATURE_SELFOVERLAP>  (1) 
45.886

>  <PUBCHEM_SHAPE_FINGERPRINT>  (1) 
12160290 23 17757868565440712389
12166972 35 17676210177866845862
12293681 4 18196929964081842004
12422481 6 18049471174410012785
12788726 201 18263380139196723518
13004483 165 18410847751184579234
13583140 156 17773576257955163674
13692114 37 17548425804265421849
14844126 61 18265324028167223626
15042514 8 18265895752901990352
15420108 30 17485370302349005428
15815584 197 17618241927452968212
15927050 60 17548982612726151028
17980427 23 17275100682427428399
17980427 26 17908976957044219964
1813 80 18341059574446562814
20600515 1 18057895640665465296
20642791 105 18115306662021508757
21304303 282 17615666458993982516
2132832 1 18113907035416888476
23419403 2 17774140379706572592
25147074 1 17895208653883329262
345986 75 18115292389850738706
4058900 60 17616262811172009764
463206 1 18334857272452450250
5171179 24 18340757234582369801
67856867 119 18056761163892964091
7164475 11 18334867077972537014
79837 15 17618790154474919944
9981440 41 17328022066953480256

>  <PUBCHEM_SHAPE_MULTIPOLES>  (1) 
560.46
11.81
5.51
1.44
1.19
9.67
-0.45
-11.65
4.63
0.99
0.74
0.41
-0.4
-0.28

>  <PUBCHEM_SHAPE_SELFOVERLAP>  (1) 
1159.493

>  <PUBCHEM_SHAPE_VOLUME>  (1) 
323.9

>  <PUBCHEM_COORDINATE_TYPE>  (1) 
2
5
10

$$$$
