43479
     RDKit          3D

 19 20  0  0  1  0  0  0  0  0999 V2000
    4.0795    1.2820    0.9907 O   0  0  0  0  0  0  0  0  0  0  0  0
    1.8359   -1.7506   -1.3793 O   0  0  0  0  0  0  0  0  0  0  0  0
   -0.0672   -2.2269    0.5655 N   0  0  0  0  0  0  0  0  0  0  0  0
    0.9586   -1.3117    0.7236 N   0  0  0  0  0  0  0  0  0  0  0  0
    2.9644    0.4590    1.0925 N   0  0  0  0  0  0  0  0  0  0  0  0
   -1.3605   -1.5540    0.7172 C   0  0  0  0  0  0  0  0  0  0  0  0
   -1.4928   -0.4477   -0.3455 C   0  0  0  0  0  0  0  0  0  0  0  0
   -2.7805    0.3346   -0.2470 C   0  0  0  0  0  0  0  0  0  0  0  0
   -2.4653   -2.6051    0.6090 C   0  0  0  0  0  0  0  0  0  0  0  0
   -3.8929   -0.0975   -0.9515 C   0  0  0  0  0  0  0  0  0  0  0  0
   -2.8265    1.4698    0.5464 C   0  0  0  0  0  0  0  0  0  0  0  0
   -5.0826    0.6250   -0.8604 C   0  0  0  0  0  0  0  0  0  0  0  0
   -4.0162    2.1922    0.6375 C   0  0  0  0  0  0  0  0  0  0  0  0
    1.8630   -1.1453   -0.3105 C   0  0  0  0  0  0  0  0  0  0  0  0
   -5.1443    1.7697   -0.0659 C   0  0  0  0  0  0  0  0  0  0  0  0
    2.9488   -0.1613   -0.0622 C   0  0  0  0  0  0  0  0  0  0  0  0
    3.9555    0.1692   -0.9374 C   0  0  0  0  0  0  0  0  0  0  0  0
    4.6612    1.1004   -0.2225 C   0  0  0  0  0  0  0  0  0  0  0  0
    5.8619    1.8982   -0.5003 C   0  0  0  0  0  0  0  0  0  0  0  0
  1  5  1  0
  1 18  1  0
  2 14  2  0
  3  4  1  0
  3  6  1  0
  4 14  1  0
  5 16  2  0
  6  7  1  0
  6  9  1  0
  7  8  1  0
  8 10  2  0
  8 11  1  0
 10 12  1  0
 11 13  2  0
 12 15  2  0
 13 15  1  0
 14 16  1  0
 16 17  1  0
 17 18  2  0
 18 19  1  0
M  END
>  <PUBCHEM_COMPOUND_CID>  (1) 
43479

>  <PUBCHEM_CONFORMER_RMSD>  (1) 
0.8

>  <PUBCHEM_CONFORMER_DIVERSEORDER>  (1) 
1
63
6
55
51
59
42
78
24
40
56
39
76
65
30
45
72
29
74
75
61
5
52
27
46
49
28
3
67
68
43
73
2
47
20
36
16
71
69
50
54
44
26
15
21
33
18
60
77
64
62
38
35
12
53
11
25
58
66
7
41
22
57
32
17
10
8
37
4
9
23
34
70
48
13
14
31
19

>  <PUBCHEM_MMFF94_PARTIAL_CHARGES>  (1) 
26
1 -0.02
10 -0.15
11 -0.15
12 -0.15
13 -0.15
14 0.72
15 -0.15
16 0.2
17 -0.15
18 -0.04
19 0.18
2 -0.57
26 0.36
27 0.15
28 0.15
29 0.37
3 -0.64
30 0.15
31 0.15
32 0.15
33 0.15
4 -0.42
5 -0.41
6 0.27
7 0.14
8 -0.14

>  <PUBCHEM_EFFECTIVE_ROTOR_COUNT>  (1) 
6

>  <PUBCHEM_PHARMACOPHORE_FEATURES>  (1) 
6
1 2 acceptor
1 3 donor
1 4 donor
1 5 acceptor
5 1 5 16 17 18 rings
6 8 10 11 12 13 15 rings

>  <PUBCHEM_HEAVY_ATOM_COUNT>  (1) 
19

>  <PUBCHEM_ATOM_DEF_STEREO_COUNT>  (1) 
0

>  <PUBCHEM_ATOM_UDEF_STEREO_COUNT>  (1) 
1

>  <PUBCHEM_BOND_DEF_STEREO_COUNT>  (1) 
0

>  <PUBCHEM_BOND_UDEF_STEREO_COUNT>  (1) 
0

>  <PUBCHEM_ISOTOPIC_ATOM_COUNT>  (1) 
0

>  <PUBCHEM_COMPONENT_COUNT>  (1) 
1

>  <PUBCHEM_CACTVS_TAUTO_COUNT>  (1) 
2

>  <PUBCHEM_CONFORMER_ID>  (1) 
0000A9D700000001

>  <PUBCHEM_MMFF94_ENERGY>  (1) 
28.3535

>  <PUBCHEM_FEATURE_SELFOVERLAP>  (1) 
31.943

>  <PUBCHEM_SHAPE_FINGERPRINT>  (1) 
10498660 4 18410294713493164856
11046707 91 9799698094736510106
11543360 7 17489297573632298551
11796584 16 10014214987402704348
12363563 72 10663813100647224347
12390115 104 18334871535853294802
12596602 18 17022620900851227192
12633257 1 17967526904700996908
12730499 353 18272097080003136255
12892183 10 14996551863888252092
13103583 49 12107781865755831567
14123255 352 18334859445878942140
1420 369 9943803387202525724
14251751 18 9151177545303574908
14251752 14 13542197047656301131
14251764 38 18194120939469302188
14528608 73 18131345310839169381
14739800 52 18268127877797736000
14848178 96 18410292480242104584
14931854 50 18201719518210400669
15188451 53 12685103613575017233
15342168 16 18261393287488864517
15885798 251 9727626216043609099
1741750 31 18407759231385335363
17780758 139 11819262369601381548
17834072 32 18334579087588720132
1798214 55 18334296431274112621
18186145 218 18263926527772017423
19784866 140 13039189199584611085
20374829 77 10087643697518909805
204376 136 18113899330171965795
21401589 2 18260556636201592977
21713013 43 15625926686456285831
22182937 141 18410300232868836953
23402655 69 18060136522555459860
235170 7 16415482631676846653
23557571 272 18339088210396600047
23559900 14 18341051805378647862
270888 7 18408040706188031028
283562 15 18115588308924239739
2838139 119 18343295994467709780
328317 168 18408037403563323913
341906 21 18335974372228700976
3472631 163 18333449863060543245
351380 3 10879993566420973948
4028521 119 18272370871145736657
441001 317 18337673113166506106
474 4 18334859402792203773
5104073 3 18040155097702027163
5924683 9 14273751684986099905
59682541 35 18115318886078377113
59682541 52 17488749960912113924
633830 44 18197497316829928823
76465 3 9655573002439540041
7808743 9 18334857238070839624
7970288 3 10879980372587850765
9981440 41 18335980938812411851

>  <PUBCHEM_SHAPE_MULTIPOLES>  (1) 
364.33
12.72
2.56
1.06
5.98
0.72
0.07
-10.27
1.89
-1.09
-0.5
0.11
0.07
0.11

>  <PUBCHEM_SHAPE_SELFOVERLAP>  (1) 
763.788

>  <PUBCHEM_SHAPE_VOLUME>  (1) 
206.3

>  <PUBCHEM_COORDINATE_TYPE>  (1) 
2
5
10

$$$$
