43470
     RDKit          3D

 16 18  0  0  1  0  0  0  0  0999 V2000
    2.3615   -1.6607   -0.2030 S   0  0  0  0  0  0  0  0  0  0  0  0
    2.6797    1.1589    0.6998 S   0  0  0  0  0  0  0  0  0  0  0  0
    0.1808    2.4306    0.4991 O   0  0  0  0  0  0  0  0  0  0  0  0
   -1.6437   -1.2738    0.3752 C   0  0  0  0  0  0  0  0  0  0  0  0
   -0.5775   -0.9775   -0.7219 C   0  0  0  0  0  0  0  0  0  0  0  0
   -2.4257   -0.0837   -0.2538 C   0  0  0  0  0  0  0  0  0  0  0  0
   -1.7861   -0.5392   -1.5996 C   0  0  0  0  0  0  0  0  0  0  0  0
    0.3565    0.1996   -0.4015 C   0  0  0  0  0  0  0  0  0  0  0  0
   -1.9227    1.2723    0.2644 C   0  0  0  0  0  0  0  0  0  0  0  0
   -0.4036    1.4028    0.1559 C   0  0  0  0  0  0  0  0  0  0  0  0
   -2.3309   -2.6215    0.1955 C   0  0  0  0  0  0  0  0  0  0  0  0
   -1.2730   -1.1433    1.8354 C   0  0  0  0  0  0  0  0  0  0  0  0
    1.5040   -0.2163    0.5093 C   0  0  0  0  0  0  0  0  0  0  0  0
   -2.5973    2.4043   -0.5050 C   0  0  0  0  0  0  0  0  0  0  0  0
    4.0150   -0.9220   -0.3161 C   0  0  0  0  0  0  0  0  0  0  0  0
    3.8630    0.5695   -0.5336 C   0  0  0  0  0  0  0  0  0  0  0  0
  1 13  1  0
  1 15  1  0
  2 13  1  0
  2 16  1  0
  3 10  2  0
  4  5  1  0
  4  6  1  0
  4 11  1  0
  4 12  1  0
  5  7  1  0
  5  8  1  0
  6  7  1  0
  6  9  1  0
  8 10  1  0
  8 13  1  0
  9 10  1  0
  9 14  1  0
 15 16  1  0
M  END
>  <PUBCHEM_COMPOUND_CID>  (1) 
43470

>  <PUBCHEM_CONFORMER_RMSD>  (1) 
0.6

>  <PUBCHEM_CONFORMER_DIVERSEORDER>  (1) 
1
6
5
7
8
4
3
2

>  <PUBCHEM_MMFF94_PARTIAL_CHARGES>  (1) 
9
1 -0.46
10 0.45
13 0.46
15 0.23
16 0.23
2 -0.46
3 -0.57
8 0.06
9 0.06

>  <PUBCHEM_EFFECTIVE_ROTOR_COUNT>  (1) 
2.8

>  <PUBCHEM_PHARMACOPHORE_FEATURES>  (1) 
4
1 3 acceptor
3 4 11 12 hydrophobe
5 1 2 13 15 16 rings
7 4 5 6 7 8 9 10 rings

>  <PUBCHEM_HEAVY_ATOM_COUNT>  (1) 
16

>  <PUBCHEM_ATOM_DEF_STEREO_COUNT>  (1) 
0

>  <PUBCHEM_ATOM_UDEF_STEREO_COUNT>  (1) 
4

>  <PUBCHEM_BOND_DEF_STEREO_COUNT>  (1) 
0

>  <PUBCHEM_BOND_UDEF_STEREO_COUNT>  (1) 
0

>  <PUBCHEM_ISOTOPIC_ATOM_COUNT>  (1) 
0

>  <PUBCHEM_COMPONENT_COUNT>  (1) 
1

>  <PUBCHEM_CACTVS_TAUTO_COUNT>  (1) 
3

>  <PUBCHEM_CONFORMER_ID>  (1) 
0000A9CE00000001

>  <PUBCHEM_MMFF94_ENERGY>  (1) 
54.9199

>  <PUBCHEM_FEATURE_SELFOVERLAP>  (1) 
20.297

>  <PUBCHEM_SHAPE_FINGERPRINT>  (1) 
10608611 8 18412821387398978528
10922049 32 18193280698132260849
10948715 1 18045221531614015733
10967382 1 18124313809525359500
11315181 36 18186513320591587730
11578080 2 16700025362293735753
12138202 97 18336826377406806055
12173636 292 18334293128301837575
12423570 1 10321916953850786591
12491281 212 18058731282307829393
12500047 106 18335698278714279580
12932764 1 17775285010482399782
13024252 1 17822013103469317063
13140716 1 18343016688423012824
13296908 3 18340205292977741770
13380535 21 18340213998776081064
13538477 17 18189049815937484194
14115302 16 18040999595873131183
14817 1 17753652054802691627
16945 1 18338220661462246937
17844478 74 18339087106621231298
19868273 325 18411699902491532988
20602899 9 15984810507140530029
20645476 183 18042691602275978980
20645477 70 17399784399328049231
21061003 4 18194976363604346914
21501502 16 18339357470670475886
21524375 3 17982165613455634333
22802520 49 18343584032016909042
2334 1 18342170098644467532
23402539 116 18342170073360136199
23493267 7 18261109643300377376
23557571 272 18342751714768506678
23559900 14 18270959021961438626
25 1 18049998896561955181
2748010 2 18272359910695269188
298252 57 17700680779984581021
3312278 4 18410858754827046222
598444 67 18337962190267070283
74978 22 18336541634265964002
81228 2 18260545671129194673
8809292 202 18410295770508748298
9709674 26 18342459188783252462

>  <PUBCHEM_SHAPE_MULTIPOLES>  (1) 
331.1
5.49
2.53
1.16
5.5
0.34
0.13
-0.27
-0.73
-1.51
0.22
-0.41
-0.26
0.52

>  <PUBCHEM_SHAPE_SELFOVERLAP>  (1) 
673.287

>  <PUBCHEM_SHAPE_VOLUME>  (1) 
197.2

>  <PUBCHEM_COORDINATE_TYPE>  (1) 
2
5
10

$$$$
