43489
     RDKit          3D

 14 16  0  0  0  0  0  0  0  0999 V2000
   -0.0009   -1.4457    0.0001 O   0  0  0  0  0  0  0  0  0  0  0  0
   -0.4077    0.7788    0.0000 C   0  0  0  0  0  0  0  0  0  0  0  0
    1.0040    0.5801    0.0000 C   0  0  0  0  0  0  0  0  0  0  0  0
   -0.9736   -0.4924    0.0000 C   0  0  0  0  0  0  0  0  0  0  0  0
    1.1972   -0.7977   -0.0001 C   0  0  0  0  0  0  0  0  0  0  0  0
   -2.3459   -0.7373    0.0000 C   0  0  0  0  0  0  0  0  0  0  0  0
   -1.2666    1.8933    0.0001 C   0  0  0  0  0  0  0  0  0  0  0  0
    2.1371    1.4144    0.0002 C   0  0  0  0  0  0  0  0  0  0  0  0
   -3.1791    0.3851    0.0000 C   0  0  0  0  0  0  0  0  0  0  0  0
    2.4484   -1.4118   -0.0002 C   0  0  0  0  0  0  0  0  0  0  0  0
   -2.6515    1.6784   -0.0003 C   0  0  0  0  0  0  0  0  0  0  0  0
   -2.9294   -2.1080    0.0002 C   0  0  0  0  0  0  0  0  0  0  0  0
    3.4088    0.8256    0.0003 C   0  0  0  0  0  0  0  0  0  0  0  0
    3.5591   -0.5629   -0.0002 C   0  0  0  0  0  0  0  0  0  0  0  0
  1  4  1  0
  1  5  1  0
  2  3  1  0
  2  4  2  0
  2  7  1  0
  3  5  2  0
  3  8  1  0
  4  6  1  0
  5 10  1  0
  6  9  2  0
  6 12  1  0
  7 11  2  0
  8 13  2  0
  9 11  1  0
 10 14  2  0
 13 14  1  0
M  END
>  <PUBCHEM_COMPOUND_CID>  (1) 
43489

>  <PUBCHEM_CONFORMER_RMSD>  (1) 
0.4

>  <PUBCHEM_CONFORMER_DIVERSEORDER>  (1) 
1

>  <PUBCHEM_MMFF94_PARTIAL_CHARGES>  (1) 
19
1 -0.28
10 -0.15
11 -0.15
12 0.14
13 -0.15
14 -0.15
15 0.15
16 0.15
17 0.15
18 0.15
19 0.15
23 0.15
24 0.15
4 0.14
5 0.14
6 -0.14
7 -0.15
8 -0.15
9 -0.15

>  <PUBCHEM_EFFECTIVE_ROTOR_COUNT>  (1) 
0

>  <PUBCHEM_PHARMACOPHORE_FEATURES>  (1) 
4
1 1 acceptor
5 1 2 3 4 5 rings
6 2 4 6 7 9 11 rings
6 3 5 8 10 13 14 rings

>  <PUBCHEM_HEAVY_ATOM_COUNT>  (1) 
14

>  <PUBCHEM_ATOM_DEF_STEREO_COUNT>  (1) 
0

>  <PUBCHEM_ATOM_UDEF_STEREO_COUNT>  (1) 
0

>  <PUBCHEM_BOND_DEF_STEREO_COUNT>  (1) 
0

>  <PUBCHEM_BOND_UDEF_STEREO_COUNT>  (1) 
0

>  <PUBCHEM_ISOTOPIC_ATOM_COUNT>  (1) 
0

>  <PUBCHEM_COMPONENT_COUNT>  (1) 
1

>  <PUBCHEM_CACTVS_TAUTO_COUNT>  (1) 
1

>  <PUBCHEM_CONFORMER_ID>  (1) 
0000A9E100000001

>  <PUBCHEM_MMFF94_ENERGY>  (1) 
29.7215

>  <PUBCHEM_FEATURE_SELFOVERLAP>  (1) 
20.499

>  <PUBCHEM_SHAPE_FINGERPRINT>  (1) 
10608611 8 18411696578139658928
10967382 1 18338516322404602471
11132069 177 18411132528579424088
11769659 78 18408598175820808538
12032990 46 18338521953117608339
12251169 10 18337673018471562345
12491281 212 18339091388487406240
12932764 1 17458902635148787318
13140716 1 18411136909345625129
13380535 21 18340497672412089404
13380535 76 18268708320899622087
14144814 61 18410292484605455384
14325111 11 18410575080595172800
14790565 3 15667341226873499021
15196674 1 18410856572556378948
15219456 202 18342177747812416708
15442244 35 18194118512954659066
15536298 74 18342738503517565132
15775835 57 18410018706125957360
16945 1 18266740173289176613
17804303 29 18339928095735600062
17844478 74 18335148625916114803
18186145 218 18341616966944203900
193761 8 14951810145646089414
200 152 18131339830782269853
20510252 161 18343304802938965761
20871998 184 18201722877180248871
21267235 1 18410302410080022283
21501502 16 18409730655633184488
2334 1 18410575131923549925
23402539 116 18339350972010501918
23402655 69 18269823226128401013
23463225 33 18335983086601306068
23552423 10 18260831513755069406
23559900 14 18270959030392987706
25610 137 18264774435598593471
2748010 2 18411418427308977189
3312278 4 18411702092703152057
335352 9 18122626046075498558
5104073 3 18411135840294420832
528886 8 18411131411787518432
53812653 166 18343295960018183952
57096353 35 18336829822091890644
6333449 129 18411698764383137373
69090 78 18339920420787336621
7364860 26 18197497329446116886
8809292 202 18334862709732580803
9709674 26 18341615888638790206

>  <PUBCHEM_SHAPE_MULTIPOLES>  (1) 
282.24
5.8
2.06
0.61
1.46
0.1
0
0.43
0
-0.99
0
0
-0.01
0

>  <PUBCHEM_SHAPE_SELFOVERLAP>  (1) 
638.815

>  <PUBCHEM_SHAPE_VOLUME>  (1) 
151.4

>  <PUBCHEM_COORDINATE_TYPE>  (1) 
2
5
10

$$$$
