43492
     RDKit          3D

  7  6  0  0  0  0  0  0  0  0999 V2000
    2.1030    0.1690   -1.1303 Cl  0  0  0  0  0  0  0  0  0  0  0  0
    1.0591   -1.5749    0.9673 Cl  0  0  0  0  0  0  0  0  0  0  0  0
   -2.2258   -1.1649   -0.2039 Cl  0  0  0  0  0  0  0  0  0  0  0  0
   -0.2520    0.6672    0.1240 C   0  0  0  0  0  0  0  0  0  0  0  0
    1.1235    0.0930    0.3559 C   0  0  0  0  0  0  0  0  0  0  0  0
   -1.1517    0.0583   -0.9202 C   0  0  0  0  0  0  0  0  0  0  0  0
   -0.6561    1.7523    0.8073 C   0  0  0  0  0  0  0  0  0  0  0  0
  1  5  1  0
  2  5  1  0
  3  6  1  0
  4  5  1  0
  4  6  1  0
  4  7  2  0
M  END
>  <PUBCHEM_COMPOUND_CID>  (1) 
43492

>  <PUBCHEM_CONFORMER_RMSD>  (1) 
0.4

>  <PUBCHEM_CONFORMER_DIVERSEORDER>  (1) 
1
28
27
10
5
22
3
29
6
18
24
2
31
8
26
4
23
21
30
9
15
13
25
12
16
7
17
11
14
20
19

>  <PUBCHEM_MMFF94_PARTIAL_CHARGES>  (1) 
9
1 -0.29
11 0.15
12 0.15
2 -0.29
3 -0.29
4 -0.28
5 0.72
6 0.43
7 -0.3

>  <PUBCHEM_EFFECTIVE_ROTOR_COUNT>  (1) 
2

>  <PUBCHEM_PHARMACOPHORE_FEATURES>  (1) 
1
1 7 hydrophobe

>  <PUBCHEM_HEAVY_ATOM_COUNT>  (1) 
7

>  <PUBCHEM_ATOM_DEF_STEREO_COUNT>  (1) 
0

>  <PUBCHEM_ATOM_UDEF_STEREO_COUNT>  (1) 
0

>  <PUBCHEM_BOND_DEF_STEREO_COUNT>  (1) 
0

>  <PUBCHEM_BOND_UDEF_STEREO_COUNT>  (1) 
0

>  <PUBCHEM_ISOTOPIC_ATOM_COUNT>  (1) 
0

>  <PUBCHEM_COMPONENT_COUNT>  (1) 
1

>  <PUBCHEM_CACTVS_TAUTO_COUNT>  (1) 
1

>  <PUBCHEM_CONFORMER_ID>  (1) 
0000A9E400000001

>  <PUBCHEM_MMFF94_ENERGY>  (1) 
4.9228

>  <PUBCHEM_FEATURE_SELFOVERLAP>  (1) 
5.074

>  <PUBCHEM_SHAPE_FINGERPRINT>  (1) 
12897270 3 17386001827324828903
137420 1 11422520297530419016
18185500 45 18118109286737157938
21040471 1 17411338715487674656
23211744 25 18190466158391218964
23552333 60 18114174203377617787
23552423 10 18041835099924385739
23552449 11 17912902157784140679
24536 1 17985817142989286060
29004967 10 17773598402099198710
5943 1 12000549262705320544

>  <PUBCHEM_SHAPE_MULTIPOLES>  (1) 
149.67
2.63
1.7
1.2
0.22
0.04
-0.1
0.8
-0.84
0.29
0.68
-0.31
-0.01
-0.5

>  <PUBCHEM_SHAPE_SELFOVERLAP>  (1) 
248.23

>  <PUBCHEM_SHAPE_VOLUME>  (1) 
101.9

>  <PUBCHEM_COORDINATE_TYPE>  (1) 
2
5
10

$$$$
