43502
     RDKit          3D

 11 11  0  0  0  0  0  0  0  0999 V2000
   -1.4265   -1.3488   -0.2410 O   0  0  0  0  0  0  0  0  0  0  0  0
    1.0975   -1.9706    0.0997 O   0  0  0  0  0  0  0  0  0  0  0  0
   -0.6297    1.9953    0.3654 O   0  0  0  0  0  0  0  0  0  0  0  0
    1.8616    0.2090   -0.0468 N   0  0  0  0  0  0  0  0  0  0  0  0
   -0.4581   -0.3059   -0.2245 N   0  0  0  0  0  0  0  0  0  0  0  0
    0.8558   -0.7687   -0.0622 C   0  0  0  0  0  0  0  0  0  0  0  0
    1.8125    1.4587   -0.7999 C   0  0  0  0  0  0  0  0  0  0  0  0
    3.1351   -0.0873    0.5948 C   0  0  0  0  0  0  0  0  0  0  0  0
   -1.1031    0.8944    0.1373 C   0  0  0  0  0  0  0  0  0  0  0  0
   -2.5384    0.6147    0.1946 C   0  0  0  0  0  0  0  0  0  0  0  0
   -2.6067   -0.6907   -0.0173 C   0  0  0  0  0  0  0  0  0  0  0  0
  1  5  1  0
  1 11  1  0
  2  6  2  0
  3  9  2  0
  4  6  1  0
  4  7  1  0
  4  8  1  0
  5  6  1  0
  5  9  1  0
  9 10  1  0
 10 11  2  0
M  END
>  <PUBCHEM_COMPOUND_CID>  (1) 
43502

>  <PUBCHEM_CONFORMER_RMSD>  (1) 
0.4

>  <PUBCHEM_CONFORMER_DIVERSEORDER>  (1) 
1
7
3
8
11
12
4
2
6
9
10
5

>  <PUBCHEM_MMFF94_PARTIAL_CHARGES>  (1) 
13
1 -0.11
10 -0.14
11 -0.07
18 0.15
19 0.15
2 -0.57
3 -0.57
4 -0.66
5 -0.08
6 0.69
7 0.3
8 0.3
9 0.62

>  <PUBCHEM_EFFECTIVE_ROTOR_COUNT>  (1) 
2

>  <PUBCHEM_PHARMACOPHORE_FEATURES>  (1) 
3
1 2 acceptor
1 3 acceptor
5 1 5 9 10 11 rings

>  <PUBCHEM_HEAVY_ATOM_COUNT>  (1) 
11

>  <PUBCHEM_ATOM_DEF_STEREO_COUNT>  (1) 
0

>  <PUBCHEM_ATOM_UDEF_STEREO_COUNT>  (1) 
0

>  <PUBCHEM_BOND_DEF_STEREO_COUNT>  (1) 
0

>  <PUBCHEM_BOND_UDEF_STEREO_COUNT>  (1) 
0

>  <PUBCHEM_ISOTOPIC_ATOM_COUNT>  (1) 
0

>  <PUBCHEM_COMPONENT_COUNT>  (1) 
1

>  <PUBCHEM_CACTVS_TAUTO_COUNT>  (1) 
1

>  <PUBCHEM_CONFORMER_ID>  (1) 
0000A9EE00000001

>  <PUBCHEM_MMFF94_ENERGY>  (1) 
28.7169

>  <PUBCHEM_FEATURE_SELFOVERLAP>  (1) 
15.223

>  <PUBCHEM_SHAPE_FINGERPRINT>  (1) 
10857977 72 18342449391645903843
12897270 3 18411703192214799277
14325111 11 18410855486246170680
15775835 57 18272654558241659960
16945 1 18408890611437838693
18185500 45 18411138047606949221
19973954 147 18267308629406515141
21040471 1 18341335500298821991
23552423 10 18335708204214934439
241688 4 17830739746685635184
2748010 2 18123469646403642301
369184 2 16877941650572619193
5084963 1 18272658939155599002
66348 1 17617660951447907036

>  <PUBCHEM_SHAPE_MULTIPOLES>  (1) 
198.8
4.06
1.75
0.7
0.63
0.07
-0.02
-0.03
0.42
0.1
-0.05
0.19
0.11
-0.38

>  <PUBCHEM_SHAPE_SELFOVERLAP>  (1) 
403.363

>  <PUBCHEM_SHAPE_VOLUME>  (1) 
116.3

>  <PUBCHEM_COORDINATE_TYPE>  (1) 
2
5
10

$$$$
