43506
     RDKit          3D

 14 14  0  0  0  0  0  0  0  0999 V2000
   -4.0339   -0.0014    0.1650 N   0  0  0  0  0  0  0  0  0  0  0  0
   -2.6685    0.0125    0.7428 C   0  0  0  0  0  0  0  0  0  0  0  0
   -1.6490   -0.0272   -0.3866 C   0  0  0  0  0  0  0  0  0  0  0  0
   -0.2208    0.0328    0.1634 C   0  0  0  0  0  0  0  0  0  0  0  0
   -4.2642    1.2299   -0.7229 C   0  0  0  0  0  0  0  0  0  0  0  0
   -4.2507   -1.2551   -0.6944 C   0  0  0  0  0  0  0  0  0  0  0  0
   -5.0966    0.0056    1.2732 C   0  0  0  0  0  0  0  0  0  0  0  0
    0.8468    0.0289   -0.9367 C   0  0  0  0  0  0  0  0  0  0  0  0
    2.2609    0.0114   -0.4136 C   0  0  0  0  0  0  0  0  0  0  0  0
    2.9115    1.2116   -0.1693 C   0  0  0  0  0  0  0  0  0  0  0  0
    2.8876   -1.2043   -0.1847 C   0  0  0  0  0  0  0  0  0  0  0  0
    4.2196    1.1957    0.3149 C   0  0  0  0  0  0  0  0  0  0  0  0
    4.1957   -1.2202    0.2996 C   0  0  0  0  0  0  0  0  0  0  0  0
    4.8615   -0.0202    0.5493 C   0  0  0  0  0  0  0  0  0  0  0  0
  1  2  1  0
  1  5  1  0
  1  6  1  0
  1  7  1  0
  2  3  1  0
  3  4  1  0
  4  8  1  0
  8  9  1  0
  9 10  2  0
  9 11  1  0
 10 12  1  0
 11 13  2  0
 12 14  2  0
 13 14  1  0
M  CHG  1   1   1
M  END
>  <PUBCHEM_COMPOUND_CID>  (1) 
43506

>  <PUBCHEM_CONFORMER_RMSD>  (1) 
0.6

>  <PUBCHEM_CONFORMER_DIVERSEORDER>  (1) 
1
9
2
5
8
4
3
6
7

>  <PUBCHEM_MMFF94_PARTIAL_CHARGES>  (1) 
17
1 -1.01
10 -0.15
11 -0.15
12 -0.15
13 -0.15
14 -0.15
2 0.5
32 0.15
33 0.15
34 0.15
35 0.15
36 0.15
5 0.5
6 0.5
7 0.5
8 0.14
9 -0.14

>  <PUBCHEM_EFFECTIVE_ROTOR_COUNT>  (1) 
5

>  <PUBCHEM_PHARMACOPHORE_FEATURES>  (1) 
2
1 1 cation
6 9 10 11 12 13 14 rings

>  <PUBCHEM_HEAVY_ATOM_COUNT>  (1) 
14

>  <PUBCHEM_ATOM_DEF_STEREO_COUNT>  (1) 
0

>  <PUBCHEM_ATOM_UDEF_STEREO_COUNT>  (1) 
0

>  <PUBCHEM_BOND_DEF_STEREO_COUNT>  (1) 
0

>  <PUBCHEM_BOND_UDEF_STEREO_COUNT>  (1) 
0

>  <PUBCHEM_ISOTOPIC_ATOM_COUNT>  (1) 
0

>  <PUBCHEM_COMPONENT_COUNT>  (1) 
1

>  <PUBCHEM_CACTVS_TAUTO_COUNT>  (1) 
1

>  <PUBCHEM_CONFORMER_ID>  (1) 
0000A9F200000001

>  <PUBCHEM_MMFF94_ENERGY>  (1) 
40.4994

>  <PUBCHEM_FEATURE_SELFOVERLAP>  (1) 
10.148

>  <PUBCHEM_SHAPE_FINGERPRINT>  (1) 
10354089 29 18272936037930010712
10680689 15 18187366528260341567
10912923 1 18060137660864302507
114248 4 9943802300812936356
12107183 9 17694509139138800907
13167823 11 18412541024454969695
13675066 3 18113339708527814661
14123238 8 18410574002331333382
14252887 29 18113339687327421250
15788980 27 18333168362551184375
17834072 33 18271522086855447742
17834076 25 16272211881726682499
17844677 252 17748834011723925253
19050596 39 18131071541054594151
19433438 28 17967534566943654105
1986462 14 15430038764520252335
200 152 18411695487270252077
20279233 1 17894355483666403226
20645477 70 18410292471953097350
22485316 2 18411134731987220183
22854114 59 18408885135518021076
23048698 100 18273217491199685410
23402539 116 18408878538580227445
26918003 58 18333730217287945416
300161 21 17846495920389886289
33824 294 18187363208361905010
351380 180 18408600361832639577
42 15 18186803564889242356
4214541 1 18408884023269333941
4990 188 11095887072876487212
5104073 3 18343582975175763235
5374978 207 18343303656462343896
542803 24 17203892963390297545
5924683 9 18338517564426273731
69090 78 18334855043284633018
7495541 125 17702941564627210987
77779 3 18410573985156725933
9971528 1 17748826315311030756

>  <PUBCHEM_SHAPE_MULTIPOLES>  (1) 
283.13
12.68
1.26
0.97
5.05
0.01
0.08
0.04
2.34
-0.53
-0.13
0.79
-0.01
0

>  <PUBCHEM_SHAPE_SELFOVERLAP>  (1) 
555.465

>  <PUBCHEM_SHAPE_VOLUME>  (1) 
172.4

>  <PUBCHEM_COORDINATE_TYPE>  (1) 
2
5
10

$$$$
