43508
     RDKit          3D

 21 24  0  0  1  0  0  0  0  0999 V2000
    5.0377    0.8516    0.6427 O   0  0  0  0  0  0  0  0  0  0  0  0
   -1.8822    2.6140   -0.3870 O   0  0  0  0  0  0  0  0  0  0  0  0
   -5.7481   -0.0826    0.1726 O   0  0  0  0  0  0  0  0  0  0  0  0
    2.1587   -0.8431   -0.5800 C   0  0  0  0  0  0  0  0  0  0  0  0
    2.7652   -0.0352    0.5942 C   0  0  0  0  0  0  0  0  0  0  0  0
    0.6189   -0.9389   -0.6293 C   0  0  0  0  0  0  0  0  0  0  0  0
   -0.0926    0.3857   -0.2670 C   0  0  0  0  0  0  0  0  0  0  0  0
    1.9770    1.2418    0.9170 C   0  0  0  0  0  0  0  0  0  0  0  0
    2.7271   -0.1485   -1.8299 C   0  0  0  0  0  0  0  0  0  0  0  0
    0.4747    1.0073    1.0213 C   0  0  0  0  0  0  0  0  0  0  0  0
    0.0900   -2.0804    0.2546 C   0  0  0  0  0  0  0  0  0  0  0  0
    4.1109    0.3746   -0.0018 C   0  0  0  0  0  0  0  0  0  0  0  0
    4.1830    0.1242   -1.4849 C   0  0  0  0  0  0  0  0  0  0  0  0
   -1.6011    0.2259   -0.1558 C   0  0  0  0  0  0  0  0  0  0  0  0
    2.9994   -0.8919    1.8396 C   0  0  0  0  0  0  0  0  0  0  0  0
   -1.3983   -2.3068    0.0022 C   0  0  0  0  0  0  0  0  0  0  0  0
   -2.2045   -1.0346    0.0066 C   0  0  0  0  0  0  0  0  0  0  0  0
   -2.4163    1.3709   -0.2028 C   0  0  0  0  0  0  0  0  0  0  0  0
   -3.6021   -1.1243    0.1099 C   0  0  0  0  0  0  0  0  0  0  0  0
   -3.8023    1.2690   -0.0898 C   0  0  0  0  0  0  0  0  0  0  0  0
   -4.3953    0.0211    0.0677 C   0  0  0  0  0  0  0  0  0  0  0  0
  1 12  2  0
  2 18  1  0
  3 21  1  0
  4  5  1  0
  4  6  1  0
  4  9  1  0
  5  8  1  0
  5 12  1  0
  5 15  1  0
  6  7  1  0
  6 11  1  0
  7 10  1  0
  7 14  1  0
  8 10  1  0
  9 13  1  0
 11 16  1  0
 12 13  1  0
 14 17  2  0
 14 18  1  0
 16 17  1  0
 17 19  1  0
 18 20  2  0
 19 21  2  0
 20 21  1  0
M  END
>  <PUBCHEM_COMPOUND_CID>  (1) 
43508

>  <PUBCHEM_CONFORMER_RMSD>  (1) 
0.6

>  <PUBCHEM_CONFORMER_DIVERSEORDER>  (1) 
3
10
11
8
15
5
16
6
4
18
9
17
7
12
13
14
2
1

>  <PUBCHEM_MMFF94_PARTIAL_CHARGES>  (1) 
18
1 -0.57
12 0.45
13 0.06
14 -0.14
16 0.14
17 -0.14
18 0.08
19 -0.15
2 -0.53
20 -0.15
21 0.08
3 -0.53
40 0.15
41 0.15
42 0.45
43 0.45
5 0.06
7 0.14

>  <PUBCHEM_EFFECTIVE_ROTOR_COUNT>  (1) 
1.2

>  <PUBCHEM_PHARMACOPHORE_FEATURES>  (1) 
7
1 1 acceptor
1 2 donor
1 3 donor
5 4 5 9 12 13 rings
6 14 17 18 19 20 21 rings
6 4 5 6 7 8 10 rings
6 6 7 11 14 16 17 rings

>  <PUBCHEM_HEAVY_ATOM_COUNT>  (1) 
21

>  <PUBCHEM_ATOM_DEF_STEREO_COUNT>  (1) 
0

>  <PUBCHEM_ATOM_UDEF_STEREO_COUNT>  (1) 
4

>  <PUBCHEM_BOND_DEF_STEREO_COUNT>  (1) 
0

>  <PUBCHEM_BOND_UDEF_STEREO_COUNT>  (1) 
0

>  <PUBCHEM_ISOTOPIC_ATOM_COUNT>  (1) 
0

>  <PUBCHEM_COMPONENT_COUNT>  (1) 
1

>  <PUBCHEM_CACTVS_TAUTO_COUNT>  (1) 
34

>  <PUBCHEM_CONFORMER_ID>  (1) 
0000A9F400000003

>  <PUBCHEM_MMFF94_ENERGY>  (1) 
59.1174

>  <PUBCHEM_FEATURE_SELFOVERLAP>  (1) 
35.722

>  <PUBCHEM_SHAPE_FINGERPRINT>  (1) 
10366900 7 18411138043802579579
10498660 4 18336546010780077901
10646746 165 18411136918109652140
10759866 29 18113339682858439114
11132069 177 18201439207169184039
11640471 11 17603884324640124534
12011746 2 18412544319010968189
12173636 292 18336826377565289309
12236239 1 17385442132893086733
12390115 104 18128551379274581097
12403814 3 17313100852481955095
13134695 92 16128659643889188856
13140716 1 18265897054482848507
13224815 77 18409166580482721205
13538477 17 17967817205698337366
13581323 91 18187639197942191691
13583140 156 16443358601942362909
13965767 371 17535467015854640196
14386348 63 17846503638235140246
14739800 52 18118119398045610980
14790565 3 18411149025971411673
15196674 1 18339360760652263459
15375358 24 17988924496262398866
15848702 151 16702032950019004751
16752209 62 18410008814810824651
16945 1 18412256250858791239
17804303 29 18341050817371931457
18186145 218 17846783979298455547
200 152 15410619168232608958
20028762 73 18057890350015167983
20233049 118 18410575089448773560
20510252 161 18342740676370447865
20645477 70 16845584076050917166
20715895 44 17245530198068070789
221357 26 17703513212058380353
23175994 123 17275110543593238617
23227448 37 18270116962524312284
23402539 116 18339634629226192407
23419403 2 10792666298430190018
23526113 38 17846509101665902606
23557571 272 18129943502174877934
23559900 14 18271533022491153606
2748010 2 18052817232816592799
296302 2 17560801060806359094
3323516 105 17988931032859855759
350125 39 18119814612076281503
3524813 1 18272363183412980177
4340502 62 16081094783603422931
474 4 14476090433063007146
495365 180 16558739161754242578
4990 188 17846785087199467166
5104073 3 18264213513349771619
633830 44 18131627876906306685
69090 78 17846213380224707631
77492 1 17458062681385255030
9709674 26 18130224985678414647

>  <PUBCHEM_SHAPE_MULTIPOLES>  (1) 
414.56
9.24
1.9
1.23
2.81
0.11
-0.04
-1.55
-0.14
1.16
0.1
-1.65
0.05
0.24

>  <PUBCHEM_SHAPE_SELFOVERLAP>  (1) 
911.865

>  <PUBCHEM_SHAPE_VOLUME>  (1) 
222.4

>  <PUBCHEM_COORDINATE_TYPE>  (1) 
2
5
10

$$$$
