43503
     RDKit          3D

 10  9  0  0  0  0  0  0  0  0999 V2000
    1.8969   -0.3986   -0.1270 O   0  0  0  0  0  0  0  0  0  0  0  0
    0.9014    1.6349    0.2619 O   0  0  0  0  0  0  0  0  0  0  0  0
   -3.7528    0.5572    0.0187 O   0  0  0  0  0  0  0  0  0  0  0  0
   -2.7580   -1.4596    0.3041 O   0  0  0  0  0  0  0  0  0  0  0  0
   -0.3317   -0.2378   -0.3223 N   0  0  0  0  0  0  0  0  0  0  0  0
   -1.5303    0.4252   -0.2866 N   0  0  0  0  0  0  0  0  0  0  0  0
    3.1765    0.1821    0.1492 C   0  0  0  0  0  0  0  0  0  0  0  0
    4.2429   -0.8822    0.0031 C   0  0  0  0  0  0  0  0  0  0  0  0
    0.8272    0.4464   -0.0347 C   0  0  0  0  0  0  0  0  0  0  0  0
   -2.6721   -0.2676    0.0336 C   0  0  0  0  0  0  0  0  0  0  0  0
  1  7  1  0
  1  9  1  0
  2  9  2  0
  3 10  1  0
  4 10  2  0
  5  6  1  0
  5  9  1  0
  6 10  1  0
  7  8  1  0
M  END
>  <PUBCHEM_COMPOUND_CID>  (1) 
43503

>  <PUBCHEM_CONFORMER_RMSD>  (1) 
0.6

>  <PUBCHEM_CONFORMER_DIVERSEORDER>  (1) 
1
7
2
8
6
3
4
5

>  <PUBCHEM_MMFF94_PARTIAL_CHARGES>  (1) 
12
1 -0.43
10 0.78
16 0.37
17 0.37
18 0.5
2 -0.57
3 -0.65
4 -0.57
5 -0.43
6 -0.43
7 0.28
9 0.78

>  <PUBCHEM_EFFECTIVE_ROTOR_COUNT>  (1) 
5

>  <PUBCHEM_PHARMACOPHORE_FEATURES>  (1) 
5
1 2 acceptor
1 4 acceptor
1 5 donor
1 6 donor
3 3 4 10 anion

>  <PUBCHEM_HEAVY_ATOM_COUNT>  (1) 
10

>  <PUBCHEM_ATOM_DEF_STEREO_COUNT>  (1) 
0

>  <PUBCHEM_ATOM_UDEF_STEREO_COUNT>  (1) 
0

>  <PUBCHEM_BOND_DEF_STEREO_COUNT>  (1) 
0

>  <PUBCHEM_BOND_UDEF_STEREO_COUNT>  (1) 
0

>  <PUBCHEM_ISOTOPIC_ATOM_COUNT>  (1) 
0

>  <PUBCHEM_COMPONENT_COUNT>  (1) 
1

>  <PUBCHEM_CACTVS_TAUTO_COUNT>  (1) 
4

>  <PUBCHEM_CONFORMER_ID>  (1) 
0000A9EF00000001

>  <PUBCHEM_MMFF94_ENERGY>  (1) 
8.1384

>  <PUBCHEM_FEATURE_SELFOVERLAP>  (1) 
26.923

>  <PUBCHEM_SHAPE_FINGERPRINT>  (1) 
10219947 1 17561083609609302940
11062470 55 17131832057948382600
12032990 46 18413111645615334670
124424 183 18413103948828146949
12932764 1 16878209944231492357
14325111 11 18409729607487090948
20201158 50 18411139121306880423
20281407 28 18333450937034248082
21293036 1 11891338642610347766
22485316 2 18335416863946219226
23402539 116 11887662954027879577
23402655 69 8141817045232782579
3248919 1 14764074518319712125

>  <PUBCHEM_SHAPE_MULTIPOLES>  (1) 
172.36
7.26
1.16
0.59
1.39
0.06
0
-1.92
0.32
-0.08
0.11
0.04
-0.01
0.17

>  <PUBCHEM_SHAPE_SELFOVERLAP>  (1) 
324.326

>  <PUBCHEM_SHAPE_VOLUME>  (1) 
106.5

>  <PUBCHEM_COORDINATE_TYPE>  (1) 
2
5
10

$$$$
