43513
     RDKit          3D

 18 21  0  0  0  0  0  0  0  0999 V2000
   -1.7418    0.3669    0.0551 C   0  0  0  0  0  0  0  0  0  0  0  0
   -0.3465    0.0667    0.0306 C   0  0  0  0  0  0  0  0  0  0  0  0
   -2.2502    1.7944    0.1577 C   0  0  0  0  0  0  0  0  0  0  0  0
   -2.6905   -0.6805    0.0696 C   0  0  0  0  0  0  0  0  0  0  0  0
    0.0571   -1.2892   -0.0283 C   0  0  0  0  0  0  0  0  0  0  0  0
   -3.6840    1.9944   -0.3500 C   0  0  0  0  0  0  0  0  0  0  0  0
    0.6754    1.0459    0.0705 C   0  0  0  0  0  0  0  0  0  0  0  0
    2.0429    0.7159    0.0341 C   0  0  0  0  0  0  0  0  0  0  0  0
   -2.2642   -2.0082    0.0229 C   0  0  0  0  0  0  0  0  0  0  0  0
    2.4208   -0.6380   -0.0393 C   0  0  0  0  0  0  0  0  0  0  0  0
   -4.1272   -0.3960    0.1514 C   0  0  0  0  0  0  0  0  0  0  0  0
   -0.9061   -2.3063   -0.0362 C   0  0  0  0  0  0  0  0  0  0  0  0
    1.4223   -1.6218   -0.0678 C   0  0  0  0  0  0  0  0  0  0  0  0
   -4.5892    0.8432   -0.0503 C   0  0  0  0  0  0  0  0  0  0  0  0
    3.0407    1.7053    0.0695 C   0  0  0  0  0  0  0  0  0  0  0  0
    3.7852   -0.9726   -0.0777 C   0  0  0  0  0  0  0  0  0  0  0  0
    4.3916    1.3590    0.0311 C   0  0  0  0  0  0  0  0  0  0  0  0
    4.7636    0.0208   -0.0432 C   0  0  0  0  0  0  0  0  0  0  0  0
  1  2  1  0
  1  3  1  0
  1  4  2  0
  2  5  2  0
  2  7  1  0
  3  6  1  0
  4  9  1  0
  4 11  1  0
  5 12  1  0
  5 13  1  0
  6 14  1  0
  7  8  2  0
  8 10  1  0
  8 15  1  0
  9 12  2  0
 10 13  2  0
 10 16  1  0
 11 14  2  0
 15 17  2  0
 16 18  2  0
 17 18  1  0
M  END
>  <PUBCHEM_COMPOUND_CID>  (1) 
43513

>  <PUBCHEM_CONFORMER_RMSD>  (1) 
0.6

>  <PUBCHEM_CONFORMER_DIVERSEORDER>  (1) 
1

>  <PUBCHEM_MMFF94_PARTIAL_CHARGES>  (1) 
24
1 -0.14
11 -0.18
12 -0.15
13 -0.15
14 -0.29
15 -0.15
16 -0.15
17 -0.15
18 -0.15
23 0.15
24 0.15
25 0.15
26 0.15
27 0.15
28 0.15
29 0.15
3 0.14
30 0.15
31 0.15
32 0.15
4 0.03
6 0.14
7 -0.15
9 -0.15

>  <PUBCHEM_EFFECTIVE_ROTOR_COUNT>  (1) 
0.4

>  <PUBCHEM_PHARMACOPHORE_FEATURES>  (1) 
4
6 1 2 4 5 9 12 rings
6 1 3 4 6 11 14 rings
6 2 5 7 8 10 13 rings
6 8 10 15 16 17 18 rings

>  <PUBCHEM_HEAVY_ATOM_COUNT>  (1) 
18

>  <PUBCHEM_ATOM_DEF_STEREO_COUNT>  (1) 
0

>  <PUBCHEM_ATOM_UDEF_STEREO_COUNT>  (1) 
0

>  <PUBCHEM_BOND_DEF_STEREO_COUNT>  (1) 
0

>  <PUBCHEM_BOND_UDEF_STEREO_COUNT>  (1) 
0

>  <PUBCHEM_ISOTOPIC_ATOM_COUNT>  (1) 
0

>  <PUBCHEM_COMPONENT_COUNT>  (1) 
1

>  <PUBCHEM_CACTVS_TAUTO_COUNT>  (1) 
1

>  <PUBCHEM_CONFORMER_ID>  (1) 
0000A9F900000001

>  <PUBCHEM_MMFF94_ENERGY>  (1) 
54.8122

>  <PUBCHEM_FEATURE_SELFOVERLAP>  (1) 
20.368

>  <PUBCHEM_SHAPE_FINGERPRINT>  (1) 
10411042 1 17257935321812564718
10608611 8 18340204184696863880
10616163 171 18339644554632115982
10646746 165 18410857663789347556
10967382 1 18411138000272599120
11132069 177 18411416241318329544
11370993 70 18411415098677628687
11471102 20 18413106143656525558
12173636 292 18410852183237024391
12236239 1 17822009822462300136
12390115 104 18200049338978868713
12403259 415 18412259536535477777
12403814 3 17748821921438089573
12500047 106 18412539942033072480
13140716 1 18050296061396699897
13380535 76 18412545396726265791
13675066 3 18259991495503691722
138480 1 17617940231781478987
14790565 3 18269846324257115233
14866123 147 16904417603244967546
15042514 8 18192999437994118539
15196674 1 18410856568235037899
15375358 24 18343584040438259406
15442244 35 18338233761344744850
15536298 74 18342177756639767102
16945 1 18338796848199029851
18186145 218 18272379628573503568
200 152 17703788128508889863
20510252 161 18343024389193749521
20645477 56 18409449206273530629
20645477 70 17346046580300257350
21267235 1 18410583893673008826
21279426 13 18196375810437175398
21524375 3 18411419488308492855
23227448 37 18412543249337303831
23402539 116 18342731931932830965
23402655 69 18272368659227068732
23559900 14 18272089358279458134
2748010 2 18339091401551649511
3004659 81 18261965038479602710
335352 9 18338797802235631934
34934 24 18410851075272761074
350125 39 18410860988336894161
3545911 37 18412266142447925248
4028521 119 18408317779102324965
4214541 1 18410575088995177352
474 4 17386573608211227532
495365 180 17417799678405027640
5104073 3 18409730668344052978
633830 44 18129100013953935173
69090 78 18413668023878454927
7364860 26 18268712714720289766
77779 3 18410013247285619776
9709674 26 18341619225923337694

>  <PUBCHEM_SHAPE_MULTIPOLES>  (1) 
370.43
9.01
2.28
0.63
1.97
0.28
0
-3.12
0.15
-0.78
0.05
-0.03
-0.02
0.2

>  <PUBCHEM_SHAPE_SELFOVERLAP>  (1) 
841.796

>  <PUBCHEM_SHAPE_VOLUME>  (1) 
178.8

>  <PUBCHEM_COORDINATE_TYPE>  (1) 
2
5
10

$$$$
