43519
     RDKit          3D

 17 18  0  0  0  0  0  0  0  0999 V2000
    1.7231   -0.9444    0.7332 O   0  0  0  0  0  0  0  0  0  0  0  0
    4.8639    0.5664   -0.4608 N   0  0  0  0  0  0  0  0  0  0  0  0
   -4.6533    1.3921    0.1277 C   0  0  0  0  0  0  0  0  0  0  0  0
   -3.3177    2.0603    0.4488 C   0  0  0  0  0  0  0  0  0  0  0  0
   -4.6582   -0.1296    0.2620 C   0  0  0  0  0  0  0  0  0  0  0  0
   -2.1974    1.7058   -0.5286 C   0  0  0  0  0  0  0  0  0  0  0  0
   -3.7578   -0.8428   -0.7462 C   0  0  0  0  0  0  0  0  0  0  0  0
   -1.5691    0.3631   -0.2478 C   0  0  0  0  0  0  0  0  0  0  0  0
   -2.3019   -0.8339   -0.3500 C   0  0  0  0  0  0  0  0  0  0  0  0
   -0.2126    0.3076    0.1167 C   0  0  0  0  0  0  0  0  0  0  0  0
   -1.6595   -2.0558   -0.0852 C   0  0  0  0  0  0  0  0  0  0  0  0
    0.4097   -0.9121    0.3793 C   0  0  0  0  0  0  0  0  0  0  0  0
   -0.3139   -2.0943    0.2782 C   0  0  0  0  0  0  0  0  0  0  0  0
    2.5608    0.0890    0.2170 C   0  0  0  0  0  0  0  0  0  0  0  0
    3.9752   -0.4512    0.0803 C   0  0  0  0  0  0  0  0  0  0  0  0
    6.2179    0.0339   -0.6322 C   0  0  0  0  0  0  0  0  0  0  0  0
    4.8910    1.7459    0.4075 C   0  0  0  0  0  0  0  0  0  0  0  0
  1 12  1  0
  1 14  1  0
  2 15  1  0
  2 16  1  0
  2 17  1  0
  3  4  1  0
  3  5  1  0
  4  6  1  0
  5  7  1  0
  6  8  1  0
  7  9  1  0
  8  9  2  0
  8 10  1  0
  9 11  1  0
 10 12  2  0
 11 13  2  0
 12 13  1  0
 14 15  1  0
M  END
>  <PUBCHEM_COMPOUND_CID>  (1) 
43519

>  <PUBCHEM_CONFORMER_RMSD>  (1) 
0.6

>  <PUBCHEM_CONFORMER_DIVERSEORDER>  (1) 
7
130
27
26
128
77
31
133
76
105
118
34
1
103
3
65
131
44
83
39
52
117
25
17
40
88
87
100
29
10
72
19
89
38
55
106
75
33
50
93
56
70
91
8
43
90
6
59
84
57
28
54
63
109
18
125
2
48
99
60
37
86
69
110
13
80
92
114
11
16
64
132
49
42
45
47
62
35
23
119
51
71
15
32
78
98
82
12
74
58
14
46
4
66
53
97
129
9
22
5
24
108
96
94
134
112
104
95
101
107
41
122
20
116
79
81
30
67
115
85
21
111
68
36
121
113
126
135
127
120
61
102
123
73
124

>  <PUBCHEM_MMFF94_PARTIAL_CHARGES>  (1) 
17
1 -0.36
10 -0.15
11 -0.15
12 0.08
13 -0.15
14 0.28
15 0.27
16 0.27
17 0.27
2 -0.81
28 0.15
29 0.15
30 0.15
6 0.14
7 0.14
8 -0.14
9 -0.14

>  <PUBCHEM_EFFECTIVE_ROTOR_COUNT>  (1) 
5

>  <PUBCHEM_PHARMACOPHORE_FEATURES>  (1) 
4
1 1 acceptor
1 2 cation
6 8 9 10 11 12 13 rings
7 3 4 5 6 7 8 9 rings

>  <PUBCHEM_HEAVY_ATOM_COUNT>  (1) 
17

>  <PUBCHEM_ATOM_DEF_STEREO_COUNT>  (1) 
0

>  <PUBCHEM_ATOM_UDEF_STEREO_COUNT>  (1) 
0

>  <PUBCHEM_BOND_DEF_STEREO_COUNT>  (1) 
0

>  <PUBCHEM_BOND_UDEF_STEREO_COUNT>  (1) 
0

>  <PUBCHEM_ISOTOPIC_ATOM_COUNT>  (1) 
0

>  <PUBCHEM_COMPONENT_COUNT>  (1) 
1

>  <PUBCHEM_CACTVS_TAUTO_COUNT>  (1) 
1

>  <PUBCHEM_CONFORMER_ID>  (1) 
0000A9FF00000007

>  <PUBCHEM_MMFF94_ENERGY>  (1) 
46.3169

>  <PUBCHEM_FEATURE_SELFOVERLAP>  (1) 
20.305

>  <PUBCHEM_SHAPE_FINGERPRINT>  (1) 
10411042 1 17833833055427356883
10730089 173 18411421700490956892
12236239 1 17894348878244020118
12346645 44 18337388245382117435
12390115 104 18200324212574930241
12916748 109 18410016532930333026
13897977 58 18408604755905748397
14251764 18 18186235127085948826
14790565 3 18411142402947069113
15183329 4 18340774741712671262
15196674 1 18409728426350011523
17959699 21 18412545440140162608
18186145 218 17060044960877157506
19784866 170 18334861572188323697
200 152 10879988051603409121
20300324 65 18271802458289294503
20645477 56 18409451379795780494
20645477 70 17060069112359166326
20871999 31 18272083924444085342
21267235 1 18339645654887496759
21652331 79 18333447629772656828
22079108 93 17022908964312615912
23198884 109 16773801376677821721
23366157 5 17899415294433757138
23402539 116 18342452655668061630
23557571 272 18273223010280192068
23559900 14 18272930527803312162
293599 30 18411419488456056041
3004659 81 18338239263820583622
3009799 131 9655294783602045019
3545911 37 18410014334402819750
4214541 1 18412262844124012572
474 4 17530970211160177196
5104073 3 18333729091816785866
59755656 520 17240205434963428146

>  <PUBCHEM_SHAPE_MULTIPOLES>  (1) 
339
12.08
2.08
0.77
15.83
0.06
-0.03
4.86
-1.28
-1.34
0.17
0.04
0
-0.2

>  <PUBCHEM_SHAPE_SELFOVERLAP>  (1) 
691.806

>  <PUBCHEM_SHAPE_VOLUME>  (1) 
196.4

>  <PUBCHEM_COORDINATE_TYPE>  (1) 
2
5
10

$$$$
