43522
     RDKit          3D

 14 14  0  0  1  0  0  0  0  0999 V2000
    1.3987   -0.1376   -0.8950 O   0  0  0  0  0  0  0  0  0  0  0  0
    2.4313    0.1954    1.1673 O   0  0  0  0  0  0  0  0  0  0  0  0
    3.4458   -1.0786   -0.4558 N   0  0  0  0  0  0  0  0  0  0  0  0
   -0.7807   -1.4228    0.4326 C   0  0  0  0  0  0  0  0  0  0  0  0
   -1.9806   -2.1124   -0.2482 C   0  0  0  0  0  0  0  0  0  0  0  0
   -0.7317    0.0747    0.1824 C   0  0  0  0  0  0  0  0  0  0  0  0
   -0.7822   -1.7158    1.9379 C   0  0  0  0  0  0  0  0  0  0  0  0
    0.3557    0.6275   -0.4668 C   0  0  0  0  0  0  0  0  0  0  0  0
   -1.9444   -2.0121   -1.7684 C   0  0  0  0  0  0  0  0  0  0  0  0
   -1.7915    0.8477    0.6185 C   0  0  0  0  0  0  0  0  0  0  0  0
    0.3846    2.0044   -0.6886 C   0  0  0  0  0  0  0  0  0  0  0  0
   -1.7623    2.2246    0.3968 C   0  0  0  0  0  0  0  0  0  0  0  0
   -0.6744    2.8029   -0.2566 C   0  0  0  0  0  0  0  0  0  0  0  0
    2.4317   -0.2981    0.0438 C   0  0  0  0  0  0  0  0  0  0  0  0
  1  8  1  0
  1 14  1  0
  2 14  2  0
  3 14  1  0
  4  5  1  0
  4  6  1  0
  4  7  1  0
  5  9  1  0
  6  8  2  0
  6 10  1  0
  8 11  1  0
 10 12  2  0
 11 13  2  0
 12 13  1  0
M  END
>  <PUBCHEM_COMPOUND_CID>  (1) 
43522

>  <PUBCHEM_CONFORMER_RMSD>  (1) 
0.6

>  <PUBCHEM_CONFORMER_DIVERSEORDER>  (1) 
1
34
59
45
43
47
44
29
53
21
36
19
40
48
37
20
58
57
9
55
14
38
25
31
39
27
24
10
13
52
32
50
41
23
42
30
16
56
46
26
11
28
4
17
33
12
54
5
60
49
6
7
51
22
18
35
15
3
8
2

>  <PUBCHEM_MMFF94_PARTIAL_CHARGES>  (1) 
17
1 -0.23
10 -0.15
11 -0.15
12 -0.15
13 -0.15
14 0.78
2 -0.57
24 0.15
25 0.15
26 0.15
27 0.15
28 0.37
29 0.37
3 -0.8
4 0.14
6 -0.14
8 0.08

>  <PUBCHEM_EFFECTIVE_ROTOR_COUNT>  (1) 
4

>  <PUBCHEM_PHARMACOPHORE_FEATURES>  (1) 
5
1 2 acceptor
1 3 donor
1 7 hydrophobe
1 9 hydrophobe
6 6 8 10 11 12 13 rings

>  <PUBCHEM_HEAVY_ATOM_COUNT>  (1) 
14

>  <PUBCHEM_ATOM_DEF_STEREO_COUNT>  (1) 
0

>  <PUBCHEM_ATOM_UDEF_STEREO_COUNT>  (1) 
1

>  <PUBCHEM_BOND_DEF_STEREO_COUNT>  (1) 
0

>  <PUBCHEM_BOND_UDEF_STEREO_COUNT>  (1) 
0

>  <PUBCHEM_ISOTOPIC_ATOM_COUNT>  (1) 
0

>  <PUBCHEM_COMPONENT_COUNT>  (1) 
1

>  <PUBCHEM_CACTVS_TAUTO_COUNT>  (1) 
2

>  <PUBCHEM_CONFORMER_ID>  (1) 
0000AA0200000001

>  <PUBCHEM_MMFF94_ENERGY>  (1) 
37.8267

>  <PUBCHEM_FEATURE_SELFOVERLAP>  (1) 
25.371

>  <PUBCHEM_SHAPE_FINGERPRINT>  (1) 
1 1 17474670550945544383
12326174 3 17261050220719763445
12423570 1 11908286892629249565
14817 1 17537768413971368463
15490181 7 17975680706675192544
16945 1 18341888541762899265
20524608 308 18199750245697792806
20645476 183 17171841014256578470
20711985 344 18409158896723133170
20871998 184 18340221690703831695
21524375 3 17904484008613995984
23388829 49 17839176664383153236
23419403 2 17113192170393375044
23526113 38 17754718752405890899
257057 1 18197206160342779143
2748010 2 18265625453235154484
53812654 25 18341624758152074305
54338 74 18261384585283859416
5845 1 12118673821272202057
6338986 31 18126839619504593079
81228 2 18409158913765806816

>  <PUBCHEM_SHAPE_MULTIPOLES>  (1) 
271.39
3.4
3.04
1.37
2.23
1.95
0.14
-2.46
-0.43
-1
-0.16
-0.58
-0.78
-0.44

>  <PUBCHEM_SHAPE_SELFOVERLAP>  (1) 
555.874

>  <PUBCHEM_SHAPE_VOLUME>  (1) 
155.6

>  <PUBCHEM_COORDINATE_TYPE>  (1) 
2
5
10

$$$$
