43521
     RDKit          3D

 22 25  0  0  0  0  0  0  0  0999 V2000
    0.3049    0.1208   -2.1001 O   0  0  0  0  0  0  0  0  0  0  0  0
   -2.7920    1.5211    0.8271 N   0  0  0  0  0  0  0  0  0  0  0  0
   -2.2740   -0.3705   -0.7419 C   0  0  0  0  0  0  0  0  0  0  0  0
   -3.2135    0.6644   -1.4286 C   0  0  0  0  0  0  0  0  0  0  0  0
   -3.0301   -0.8966    0.5136 C   0  0  0  0  0  0  0  0  0  0  0  0
   -1.0553    0.4050   -0.2335 C   0  0  0  0  0  0  0  0  0  0  0  0
   -3.5463    1.8081   -0.4283 C   0  0  0  0  0  0  0  0  0  0  0  0
   -3.3682    0.2953    1.4541 C   0  0  0  0  0  0  0  0  0  0  0  0
    0.3208    0.0411   -0.6551 C   0  0  0  0  0  0  0  0  0  0  0  0
   -1.4121    1.4002    0.5995 C   0  0  0  0  0  0  0  0  0  0  0  0
    0.6556   -1.4098   -0.2440 C   0  0  0  0  0  0  0  0  0  0  0  0
    1.4291    1.0053   -0.1717 C   0  0  0  0  0  0  0  0  0  0  0  0
    0.2035   -1.8567    0.9684 C   0  0  0  0  0  0  0  0  0  0  0  0
    1.6767    1.0776    1.1720 C   0  0  0  0  0  0  0  0  0  0  0  0
    1.3876   -2.1732   -1.1135 C   0  0  0  0  0  0  0  0  0  0  0  0
    2.1019    1.7346   -1.1137 C   0  0  0  0  0  0  0  0  0  0  0  0
    0.5062   -3.1668    1.3398 C   0  0  0  0  0  0  0  0  0  0  0  0
    2.6760    1.9476    1.6080 C   0  0  0  0  0  0  0  0  0  0  0  0
    1.6902   -3.4832   -0.7422 C   0  0  0  0  0  0  0  0  0  0  0  0
    3.1012    2.6046   -0.6777 C   0  0  0  0  0  0  0  0  0  0  0  0
    1.2496   -3.9800    0.4845 C   0  0  0  0  0  0  0  0  0  0  0  0
    3.3883    2.7112    0.6833 C   0  0  0  0  0  0  0  0  0  0  0  0
  1  9  1  0
  2  7  1  0
  2  8  1  0
  2 10  1  0
  3  4  1  0
  3  5  1  0
  3  6  1  0
  4  7  1  0
  5  8  1  0
  6  9  1  0
  6 10  2  0
  9 11  1  0
  9 12  1  0
 11 13  2  0
 11 15  1  0
 12 14  2  0
 12 16  1  0
 13 17  1  0
 14 18  1  0
 15 19  2  0
 16 20  2  0
 17 21  2  0
 18 22  2  0
 19 21  1  0
 20 22  1  0
M  END
>  <PUBCHEM_COMPOUND_CID>  (1) 
43521

>  <PUBCHEM_CONFORMER_RMSD>  (1) 
0.6

>  <PUBCHEM_CONFORMER_DIVERSEORDER>  (1) 
2
7
4
3
6
5
11
8
9
12
1
10

>  <PUBCHEM_MMFF94_PARTIAL_CHARGES>  (1) 
32
1 -0.68
10 -0.05
11 -0.14
12 -0.14
13 -0.15
14 -0.15
15 -0.15
16 -0.15
17 -0.15
18 -0.15
19 -0.15
2 -0.84
20 -0.15
21 -0.15
22 -0.15
3 0.14
32 0.15
33 0.4
34 0.15
35 0.15
36 0.15
37 0.15
38 0.15
39 0.15
40 0.15
41 0.15
42 0.15
43 0.15
6 -0.28
7 0.37
8 0.37
9 0.71

>  <PUBCHEM_EFFECTIVE_ROTOR_COUNT>  (1) 
3.8

>  <PUBCHEM_PHARMACOPHORE_FEATURES>  (1) 
6
1 1 acceptor
1 1 donor
1 2 cation
6 11 13 15 17 19 21 rings
6 12 14 16 18 20 22 rings
8 2 3 4 5 6 7 8 10 rings

>  <PUBCHEM_HEAVY_ATOM_COUNT>  (1) 
22

>  <PUBCHEM_ATOM_DEF_STEREO_COUNT>  (1) 
0

>  <PUBCHEM_ATOM_UDEF_STEREO_COUNT>  (1) 
0

>  <PUBCHEM_BOND_DEF_STEREO_COUNT>  (1) 
0

>  <PUBCHEM_BOND_UDEF_STEREO_COUNT>  (1) 
0

>  <PUBCHEM_ISOTOPIC_ATOM_COUNT>  (1) 
0

>  <PUBCHEM_COMPONENT_COUNT>  (1) 
1

>  <PUBCHEM_CACTVS_TAUTO_COUNT>  (1) 
1

>  <PUBCHEM_CONFORMER_ID>  (1) 
0000AA0100000002

>  <PUBCHEM_MMFF94_ENERGY>  (1) 
109.7477

>  <PUBCHEM_FEATURE_SELFOVERLAP>  (1) 
30.446

>  <PUBCHEM_SHAPE_FINGERPRINT>  (1) 
10165383 225 17687517589547890193
11578080 2 17608365736261086180
121448 382 18055338395598663197
12160290 23 17763459912980642046
12553582 1 17617103507896215003
12788726 201 17470434596948844266
13004483 165 17042599289521660154
13132413 78 17836657326924974812
13134695 92 17977942380544663231
13140716 1 18410856572651285826
133893 2 18266720420903465575
13538477 17 17684077368384274720
13681431 1 18124874551828823326
14178342 30 18336838575625895929
14223421 5 18409457972834447435
14787075 74 17624403573835939661
14955137 171 17695936348535040139
15042514 8 17687750858065073162
15295992 7 17629214972368769096
15309172 13 18263640826094033928
15906896 17 17903624530134805678
16752209 62 17760066807143974830
16945 1 18271811176814384102
17980427 23 17127304114668418201
1813 80 17624980434851257983
20028762 73 17192927774836215831
20510252 161 17980761858960031521
20567600 347 18339633555289247735
20600515 1 17266383479127000052
20645476 183 18120646083685884924
21120745 212 17189279105818140342
21524375 3 18272083958882944988
21731228 192 18338513170094033192
22112679 90 17334799486495838622
22149856 69 18116174250744178465
2255824 54 18339925892138003927
22907989 373 17615980236535355268
22956985 138 18186517692046415370
23419403 2 17466843334237612618
23557571 272 17190380228006073472
23559900 14 17896055256277230221
2748010 2 18186812352798648335
3091708 16 9260807650691268922
3187 122 16324809541213527017
350125 39 18337120067339448442
35225 105 17832685139153138882
404807 78 16960927454574807935
4175511 71 17767127505702932751
427121 178 18124340395373000203
4340502 62 18335423508830260475
458136 41 18266481916958519833
5895379 119 16268000567509428617
6138700 20 18268713814912224278
633830 44 18059868297479634508
6442390 28 18053126165392594179
70251023 43 18200314295653608527
7364860 26 18270398274255173159
74978 22 18194121811779660231
81228 2 17476072905123241210
9981440 41 18338780312944433417

>  <PUBCHEM_SHAPE_MULTIPOLES>  (1) 
441.9
5.38
4.33
1.57
2.55
4.71
-0.06
-5.06
0.5
-3.73
0.53
-0.06
-0.08
0.51

>  <PUBCHEM_SHAPE_SELFOVERLAP>  (1) 
982.307

>  <PUBCHEM_SHAPE_VOLUME>  (1) 
233.7

>  <PUBCHEM_COORDINATE_TYPE>  (1) 
2
5
10

$$$$
