4354
     RDKit          3D

 12 11  0  0  0  0  0  0  0  0999 V2000
   -2.7143   -1.7351    1.0613 Br  0  0  0  0  0  0  0  0  0  0  0  0
    2.4134    0.2784    0.2238 P   0  0  0  0  0  0  0  0  0  0  0  0
    0.9141    0.0918   -0.3519 O   0  0  0  0  0  0  0  0  0  0  0  0
    3.3288   -0.5713   -0.8036 O   0  0  0  0  0  0  0  0  0  0  0  0
    2.4011   -0.6382    1.5561 O   0  0  0  0  0  0  0  0  0  0  0  0
    2.8399    1.7012    0.4373 O   0  0  0  0  0  0  0  0  0  0  0  0
   -1.5757    1.6125   -0.9592 O   0  0  0  0  0  0  0  0  0  0  0  0
   -1.8848   -0.5415   -0.1645 N   0  0  0  0  0  0  0  0  0  0  0  0
   -0.9805   -1.1670   -1.1164 C   0  0  0  0  0  0  0  0  0  0  0  0
    0.4382   -1.2283   -0.5803 C   0  0  0  0  0  0  0  0  0  0  0  0
   -2.1102    0.8306   -0.1685 C   0  0  0  0  0  0  0  0  0  0  0  0
   -3.0699    1.3667    0.8659 C   0  0  0  0  0  0  0  0  0  0  0  0
  1  8  1  0
  2  3  1  0
  2  4  1  0
  2  5  1  0
  2  6  2  0
  3 10  1  0
  7 11  2  0
  8  9  1  0
  8 11  1  0
  9 10  1  0
 11 12  1  0
M  END
>  <PUBCHEM_COMPOUND_CID>  (1) 
4354

>  <PUBCHEM_CONFORMER_RMSD>  (1) 
0.6

>  <PUBCHEM_CONFORMER_DIVERSEORDER>  (1) 
1
14
23
10
22
17
20
16
24
5
21
18
15
6
19
11
2
9
13
27
12
7
26
25
8
3
4

>  <PUBCHEM_MMFF94_PARTIAL_CHARGES>  (1) 
14
1 0.01
10 0.28
11 0.57
12 0.06
2 1.51
20 0.5
21 0.5
3 -0.55
4 -0.77
5 -0.77
6 -0.7
7 -0.57
8 -0.37
9 0.3

>  <PUBCHEM_EFFECTIVE_ROTOR_COUNT>  (1) 
5

>  <PUBCHEM_PHARMACOPHORE_FEATURES>  (1) 
5
1 4 acceptor
1 5 acceptor
1 6 acceptor
1 7 acceptor
4 2 4 5 6 anion

>  <PUBCHEM_HEAVY_ATOM_COUNT>  (1) 
12

>  <PUBCHEM_ATOM_DEF_STEREO_COUNT>  (1) 
0

>  <PUBCHEM_ATOM_UDEF_STEREO_COUNT>  (1) 
0

>  <PUBCHEM_BOND_DEF_STEREO_COUNT>  (1) 
0

>  <PUBCHEM_BOND_UDEF_STEREO_COUNT>  (1) 
0

>  <PUBCHEM_ISOTOPIC_ATOM_COUNT>  (1) 
0

>  <PUBCHEM_COMPONENT_COUNT>  (1) 
1

>  <PUBCHEM_CACTVS_TAUTO_COUNT>  (1) 
1

>  <PUBCHEM_CONFORMER_ID>  (1) 
0000110200000001

>  <PUBCHEM_MMFF94_ENERGY>  (1) 
-16.3805

>  <PUBCHEM_FEATURE_SELFOVERLAP>  (1) 
25.408

>  <PUBCHEM_SHAPE_FINGERPRINT>  (1) 
10857977 72 18336277837464522407
12932764 1 17967530147221658036
13764800 53 18202008715790750905
15775835 57 18409168800854492064
17844478 74 18340779250557874419
20279233 1 11169909511167248758
20653085 51 18060703874781865671
21028194 46 17131830962737081519
22959321 28 18194401314844058160
23598294 1 18259708908420758043
3248919 1 18272356581974068212
81228 2 17055532728424051198

>  <PUBCHEM_SHAPE_MULTIPOLES>  (1) 
222.42
5.59
1.88
1.23
2.38
0.25
0.18
0.69
1.56
-1.17
0.14
-0.03
-0.26
0.41

>  <PUBCHEM_SHAPE_SELFOVERLAP>  (1) 
392.387

>  <PUBCHEM_SHAPE_VOLUME>  (1) 
147.7

>  <PUBCHEM_COORDINATE_TYPE>  (1) 
2
5
10

$$$$
