43554
     RDKit          3D

  8  8  0  0  1  0  0  0  0  0999 V2000
    0.7137   -1.3224    0.0599 O   0  0  0  0  0  0  0  0  0  0  0  0
   -0.9046   -0.4305   -1.3872 O   0  0  0  0  0  0  0  0  0  0  0  0
   -0.0466    0.8699    0.4733 C   0  0  0  0  0  0  0  0  0  0  0  0
   -0.4745   -0.5137   -0.0287 C   0  0  0  0  0  0  0  0  0  0  0  0
    1.3595    0.9612   -0.0882 C   0  0  0  0  0  0  0  0  0  0  0  0
    1.8597   -0.4577    0.0938 C   0  0  0  0  0  0  0  0  0  0  0  0
   -0.9335    2.0326    0.0576 C   0  0  0  0  0  0  0  0  0  0  0  0
   -1.5739   -1.1393    0.8196 C   0  0  0  0  0  0  0  0  0  0  0  0
  1  4  1  0
  1  6  1  0
  2  4  1  0
  3  4  1  0
  3  5  1  0
  3  7  1  0
  4  8  1  0
  5  6  1  0
M  END
>  <PUBCHEM_COMPOUND_CID>  (1) 
43554

>  <PUBCHEM_CONFORMER_RMSD>  (1) 
0.4

>  <PUBCHEM_CONFORMER_DIVERSEORDER>  (1) 
2
1

>  <PUBCHEM_MMFF94_PARTIAL_CHARGES>  (1) 
5
1 -0.56
2 -0.68
20 0.4
4 0.56
6 0.28

>  <PUBCHEM_EFFECTIVE_ROTOR_COUNT>  (1) 
1

>  <PUBCHEM_PHARMACOPHORE_FEATURES>  (1) 
4
1 1 acceptor
1 2 acceptor
1 2 donor
5 1 3 4 5 6 rings

>  <PUBCHEM_HEAVY_ATOM_COUNT>  (1) 
8

>  <PUBCHEM_ATOM_DEF_STEREO_COUNT>  (1) 
2

>  <PUBCHEM_ATOM_UDEF_STEREO_COUNT>  (1) 
0

>  <PUBCHEM_BOND_DEF_STEREO_COUNT>  (1) 
0

>  <PUBCHEM_BOND_UDEF_STEREO_COUNT>  (1) 
0

>  <PUBCHEM_ISOTOPIC_ATOM_COUNT>  (1) 
0

>  <PUBCHEM_COMPONENT_COUNT>  (1) 
1

>  <PUBCHEM_CACTVS_TAUTO_COUNT>  (1) 
1

>  <PUBCHEM_CONFORMER_ID>  (1) 
0000AA2200000002

>  <PUBCHEM_MMFF94_ENERGY>  (1) 
15.6901

>  <PUBCHEM_FEATURE_SELFOVERLAP>  (1) 
20.338

>  <PUBCHEM_SHAPE_FINGERPRINT>  (1) 
12423570 1 12430579375698471678
137420 1 14287491885980656944
21040471 1 17977671900774095632
24536 1 18261383434512029992
29004967 10 18119533386175681394
5084963 1 17548695184170705824
5943 1 12544854299248726127

>  <PUBCHEM_SHAPE_MULTIPOLES>  (1) 
152.9
1.92
1.79
0.9
0.26
0.89
-0.22
-0.5
0.22
-0.23
0.13
-0.29
-0.08
0.07

>  <PUBCHEM_SHAPE_SELFOVERLAP>  (1) 
299.622

>  <PUBCHEM_SHAPE_VOLUME>  (1) 
94.4

>  <PUBCHEM_COORDINATE_TYPE>  (1) 
2
5
10

$$$$
