43560
     RDKit          3D

 23 27  0  0  1  0  0  0  0  0999 V2000
   -4.1570    0.0484    1.7253 O   0  0  0  0  0  0  0  0  0  0  0  0
   -3.5860   -1.9135   -1.2637 O   0  0  0  0  0  0  0  0  0  0  0  0
   -4.8396    2.0274   -0.2054 O   0  0  0  0  0  0  0  0  0  0  0  0
   -1.4125    0.4486   -0.0866 C   0  0  0  0  0  0  0  0  0  0  0  0
   -4.2222   -0.2321    0.3270 C   0  0  0  0  0  0  0  0  0  0  0  0
   -3.2388   -1.3581    0.0060 C   0  0  0  0  0  0  0  0  0  0  0  0
   -3.8789    1.0132   -0.4845 C   0  0  0  0  0  0  0  0  0  0  0  0
   -2.4792    1.5266   -0.1459 C   0  0  0  0  0  0  0  0  0  0  0  0
   -1.7893   -0.9089   -0.0048 C   0  0  0  0  0  0  0  0  0  0  0  0
   -0.0297    0.8043   -0.0650 C   0  0  0  0  0  0  0  0  0  0  0  0
    0.9508   -0.2202   -0.0069 C   0  0  0  0  0  0  0  0  0  0  0  0
    0.5592   -1.5761    0.0434 C   0  0  0  0  0  0  0  0  0  0  0  0
   -0.7999   -1.9011    0.0470 C   0  0  0  0  0  0  0  0  0  0  0  0
    2.3371    0.0981    0.0044 C   0  0  0  0  0  0  0  0  0  0  0  0
    0.4314    2.1383   -0.0943 C   0  0  0  0  0  0  0  0  0  0  0  0
    2.7562    1.4459   -0.0351 C   0  0  0  0  0  0  0  0  0  0  0  0
    3.3086   -0.9309    0.0572 C   0  0  0  0  0  0  0  0  0  0  0  0
    1.5334   -2.5823    0.0954 C   0  0  0  0  0  0  0  0  0  0  0  0
    1.7921    2.4539   -0.0818 C   0  0  0  0  0  0  0  0  0  0  0  0
    2.8905   -2.2647    0.1009 C   0  0  0  0  0  0  0  0  0  0  0  0
    4.1259    1.7495   -0.0243 C   0  0  0  0  0  0  0  0  0  0  0  0
    4.6714   -0.5991    0.0663 C   0  0  0  0  0  0  0  0  0  0  0  0
    5.0764    0.7328    0.0254 C   0  0  0  0  0  0  0  0  0  0  0  0
  1  5  1  0
  2  6  1  0
  3  7  1  0
  4  8  1  0
  4  9  2  0
  4 10  1  0
  5  6  1  0
  5  7  1  0
  6  9  1  0
  7  8  1  0
  9 13  1  0
 10 11  2  0
 10 15  1  0
 11 12  1  0
 11 14  1  0
 12 13  2  0
 12 18  1  0
 14 16  2  0
 14 17  1  0
 15 19  2  0
 16 19  1  0
 16 21  1  0
 17 20  1  0
 17 22  2  0
 18 20  2  0
 21 23  2  0
 22 23  1  0
M  END
>  <PUBCHEM_COMPOUND_CID>  (1) 
43560

>  <PUBCHEM_CONFORMER_RMSD>  (1) 
0.6

>  <PUBCHEM_CONFORMER_DIVERSEORDER>  (1) 
2
1

>  <PUBCHEM_MMFF94_PARTIAL_CHARGES>  (1) 
28
1 -0.68
13 -0.15
15 -0.15
18 -0.15
19 -0.15
2 -0.68
20 -0.15
21 -0.15
22 -0.15
23 -0.15
29 0.15
3 -0.68
30 0.15
31 0.15
32 0.15
33 0.4
34 0.4
35 0.4
36 0.15
37 0.15
38 0.15
39 0.15
4 -0.14
5 0.28
6 0.42
7 0.28
8 0.14
9 -0.14

>  <PUBCHEM_EFFECTIVE_ROTOR_COUNT>  (1) 
0.8

>  <PUBCHEM_PHARMACOPHORE_FEATURES>  (1) 
11
1 1 acceptor
1 1 donor
1 2 acceptor
1 2 donor
1 3 acceptor
1 3 donor
6 10 11 14 15 16 19 rings
6 11 12 14 17 18 20 rings
6 14 16 17 21 22 23 rings
6 4 5 6 7 8 9 rings
6 4 9 10 11 12 13 rings

>  <PUBCHEM_HEAVY_ATOM_COUNT>  (1) 
23

>  <PUBCHEM_ATOM_DEF_STEREO_COUNT>  (1) 
3

>  <PUBCHEM_ATOM_UDEF_STEREO_COUNT>  (1) 
0

>  <PUBCHEM_BOND_DEF_STEREO_COUNT>  (1) 
0

>  <PUBCHEM_BOND_UDEF_STEREO_COUNT>  (1) 
0

>  <PUBCHEM_ISOTOPIC_ATOM_COUNT>  (1) 
0

>  <PUBCHEM_COMPONENT_COUNT>  (1) 
1

>  <PUBCHEM_CACTVS_TAUTO_COUNT>  (1) 
1

>  <PUBCHEM_CONFORMER_ID>  (1) 
0000AA2800000002

>  <PUBCHEM_MMFF94_ENERGY>  (1) 
77.3712

>  <PUBCHEM_FEATURE_SELFOVERLAP>  (1) 
55.975

>  <PUBCHEM_SHAPE_FINGERPRINT>  (1) 
10411042 1 16464458535528951738
10616163 171 18339643446493617407
10906281 52 18264786496642285580
10967382 1 18410011009939883508
1100329 8 17184749091767131928
11471102 20 18410571777865302220
11578080 2 16879616073648500574
12107183 9 17836932196257672595
12236239 1 17918276450435309571
12403260 363 18265321992347060542
12422481 6 18192405547237962248
12788726 201 17345475877952297177
12838862 33 18338215117002748896
13132413 78 18412262835038283980
13140716 1 18121225543150174794
13224815 77 18408322194022782483
138480 1 17977664213025774506
13862211 1 18409442588383152706
13944108 23 16387023676406489397
14790565 3 18119818151725861276
15081414 286 18341625797681898464
15196674 1 18410291423912011502
15442244 35 18339360751624427043
15536298 74 18342176665723394150
1601671 61 18410575080890461480
16945 1 18264772232243629254
17349148 13 18333726948833689736
17492 89 18412261748691990359
1813 80 17022626364112671540
19591789 44 18266459991182122038
200 152 18130500912000211157
20645477 70 18341609265877970895
20691752 17 17676480644673194786
20739085 24 18192454998805943376
21267235 1 18410582785645338454
21279426 13 18338237046904776502
21421861 104 17824535275843100082
21709351 56 18410005563594448028
221490 88 18408329882046222226
22393880 68 18342458157795487428
23227448 37 18412261748765161495
2334 1 18410009931592089718
23402539 116 18342168982132325406
23559900 14 18269269080710184430
2748010 2 18265327309537691510
335352 9 18337952290668127150
34934 24 18411131398939682639
350125 39 18339926013003457155
3680242 22 18262233305687703146
4214541 1 18410573989673531629
474 4 18335702788261076778
5104073 3 18409165510761565258
543358 83 18339361859979203474
6138700 20 18337675222787122558
633830 44 17676205783909203281
7364860 26 18412263904859712846
9709674 26 18410015454872968902
9981440 41 17186712265362753200

>  <PUBCHEM_SHAPE_MULTIPOLES>  (1) 
455.72
9.5
2.77
0.77
1.87
0.19
0.1
-1.8
0.35
-0.62
-0.19
0.63
0.08
-0.18

>  <PUBCHEM_SHAPE_SELFOVERLAP>  (1) 
1052.379

>  <PUBCHEM_SHAPE_VOLUME>  (1) 
234

>  <PUBCHEM_COORDINATE_TYPE>  (1) 
2
5
10

$$$$
