43578
     RDKit          3D

 21 24  0  0  0  0  0  0  0  0999 V2000
   -5.4616   -1.8028   -1.6949 Cl  0  0  0  0  0  0  0  0  0  0  0  0
    4.0739    0.0596   -1.1842 O   0  0  0  0  0  0  0  0  0  0  0  0
    4.1159   -2.0441   -0.0157 O   0  0  0  0  0  0  0  0  0  0  0  0
    0.8069    2.8867   -0.7511 N   0  0  0  0  0  0  0  0  0  0  0  0
    0.8617    0.4186    0.6159 C   0  0  0  0  0  0  0  0  0  0  0  0
   -0.2071    1.3070    0.7787 C   0  0  0  0  0  0  0  0  0  0  0  0
    1.9166    0.7832   -0.2494 C   0  0  0  0  0  0  0  0  0  0  0  0
   -1.3704    1.0202    1.6695 C   0  0  0  0  0  0  0  0  0  0  0  0
    2.9727   -0.1134   -0.3993 C   0  0  0  0  0  0  0  0  0  0  0  0
    3.0007   -1.3171    0.2673 C   0  0  0  0  0  0  0  0  0  0  0  0
    0.9108   -0.8243    1.2909 C   0  0  0  0  0  0  0  0  0  0  0  0
   -2.4007    0.3096    0.8242 C   0  0  0  0  0  0  0  0  0  0  0  0
    1.9859   -1.7012    1.1179 C   0  0  0  0  0  0  0  0  0  0  0  0
   -0.1849    2.5075    0.0835 C   0  0  0  0  0  0  0  0  0  0  0  0
    1.8324    2.0192   -0.8988 C   0  0  0  0  0  0  0  0  0  0  0  0
    4.7913   -1.1653   -0.9361 C   0  0  0  0  0  0  0  0  0  0  0  0
   -2.3741   -1.0732    0.7413 C   0  0  0  0  0  0  0  0  0  0  0  0
   -3.3524    1.0542    0.1460 C   0  0  0  0  0  0  0  0  0  0  0  0
   -3.3249   -1.7291   -0.0406 C   0  0  0  0  0  0  0  0  0  0  0  0
   -4.3033    0.3982   -0.6358 C   0  0  0  0  0  0  0  0  0  0  0  0
   -4.2895   -0.9935   -0.7292 C   0  0  0  0  0  0  0  0  0  0  0  0
  1 21  1  0
  2  9  1  0
  2 16  1  0
  3 10  1  0
  3 16  1  0
  4 14  1  0
  4 15  2  0
  5  6  1  0
  5  7  1  0
  5 11  2  0
  6  8  1  0
  6 14  2  0
  7  9  2  0
  7 15  1  0
  8 12  1  0
  9 10  1  0
 10 13  2  0
 11 13  1  0
 12 17  2  0
 12 18  1  0
 17 19  1  0
 18 20  2  0
 19 21  2  0
 20 21  1  0
M  END
>  <PUBCHEM_COMPOUND_CID>  (1) 
43578

>  <PUBCHEM_CONFORMER_RMSD>  (1) 
0.6

>  <PUBCHEM_CONFORMER_DIVERSEORDER>  (1) 
1
6
7
2
5
3
4

>  <PUBCHEM_MMFF94_PARTIAL_CHARGES>  (1) 
27
1 -0.18
10 0.08
11 -0.15
12 -0.14
13 -0.15
14 0.16
15 0.16
16 0.56
17 -0.15
18 -0.15
19 -0.15
2 -0.36
20 -0.15
21 0.18
24 0.15
25 0.15
26 0.15
27 0.15
3 -0.36
30 0.15
31 0.15
32 0.15
33 0.15
4 -0.62
6 -0.14
8 0.29
9 0.08

>  <PUBCHEM_EFFECTIVE_ROTOR_COUNT>  (1) 
2.6

>  <PUBCHEM_PHARMACOPHORE_FEATURES>  (1) 
7
1 2 acceptor
1 3 acceptor
1 4 acceptor
5 2 3 9 10 16 rings
6 12 17 18 19 20 21 rings
6 4 5 6 7 14 15 rings
6 5 7 9 10 11 13 rings

>  <PUBCHEM_HEAVY_ATOM_COUNT>  (1) 
21

>  <PUBCHEM_ATOM_DEF_STEREO_COUNT>  (1) 
0

>  <PUBCHEM_ATOM_UDEF_STEREO_COUNT>  (1) 
0

>  <PUBCHEM_BOND_DEF_STEREO_COUNT>  (1) 
0

>  <PUBCHEM_BOND_UDEF_STEREO_COUNT>  (1) 
0

>  <PUBCHEM_ISOTOPIC_ATOM_COUNT>  (1) 
0

>  <PUBCHEM_COMPONENT_COUNT>  (1) 
1

>  <PUBCHEM_CACTVS_TAUTO_COUNT>  (1) 
1

>  <PUBCHEM_CONFORMER_ID>  (1) 
0000AA3A00000001

>  <PUBCHEM_MMFF94_ENERGY>  (1) 
64.4629

>  <PUBCHEM_FEATURE_SELFOVERLAP>  (1) 
35.701

>  <PUBCHEM_SHAPE_FINGERPRINT>  (1) 
10042902 136 17632293518541880039
11046707 91 17988645159789089587
11578080 2 18201140084146371185
11796584 16 17632298943401741263
12363563 72 16845573140932292819
12390115 104 10734432547047108890
12553582 1 18261961751578920539
12633257 1 13470401206026288903
12788726 201 18122061996837965433
12892183 10 13614248057140404206
13583140 156 14979108051789298944
14178342 30 16056340357472822899
14251764 38 12398025563942420942
14576447 43 18411136943948274518
15210252 30 16226042284395883533
15534591 1 11025809716096277281
17357779 13 17749395840669672892
17492 54 18188220891676439294
1798214 20 18412541015943896503
18186145 218 17167865287637528825
19141452 34 17984432840522600785
19784866 240 17917995001487053983
19862831 5 18187086143656853963
200 152 18187653449070941264
20291156 8 18413671309607362755
20388580 30 18342172314831781069
20626108 58 18201148927741456277
20645477 70 18263922314493385395
20775438 99 17479705644740885535
20871999 31 18261110751449522771
21503847 285 8069483546178757889
21634736 98 18337957895051737370
221357 26 18260542338614127887
221490 88 18117290348111344683
22393880 68 18333725823394015719
23379529 103 18200319960299325167
23402539 116 18335146341415792130
23503958 8 17417537912490198483
23559900 14 17988633086668007401
238 59 18044377368592324115
25222932 49 16481608592996291271
2748010 2 17683275773089415512
2838139 119 14491339585867663286
3004659 81 18341324561608086327
3009799 131 17676482852850770408
339767 52 18342449327169023526
3472631 163 13262396674552973047
4280585 95 18335132077708024474
46194498 28 16951704677508417799
463206 1 17845644993122771423
7808743 9 13045934703795809999
7970288 3 17988922292855409095
9709674 26 18190741032478053411

>  <PUBCHEM_SHAPE_MULTIPOLES>  (1) 
417.32
9.61
2.57
1.36
4.42
0.9
-0.05
-6.78
4.96
-0.45
0.4
0.35
-0.13
-1.2

>  <PUBCHEM_SHAPE_SELFOVERLAP>  (1) 
934.609

>  <PUBCHEM_SHAPE_VOLUME>  (1) 
222.5

>  <PUBCHEM_COORDINATE_TYPE>  (1) 
2
5
10

$$$$
