43576
     RDKit          3D

 24 26  0  0  0  0  0  0  0  0999 V2000
    5.9646    1.5054   -1.9160 Cl  0  0  0  0  0  0  0  0  0  0  0  0
   -3.7592   -1.1918   -1.0583 O   0  0  0  0  0  0  0  0  0  0  0  0
   -3.9673    1.4688   -0.4389 O   0  0  0  0  0  0  0  0  0  0  0  0
   -1.9153    2.7487    0.9001 O   0  0  0  0  0  0  0  0  0  0  0  0
   -0.3231   -3.3755    0.0088 N   0  0  0  0  0  0  0  0  0  0  0  0
   -0.5341   -0.6413    0.6467 C   0  0  0  0  0  0  0  0  0  0  0  0
    0.6057   -1.3735    0.9987 C   0  0  0  0  0  0  0  0  0  0  0  0
   -1.5813   -1.2947   -0.0354 C   0  0  0  0  0  0  0  0  0  0  0  0
    1.7664   -0.7721    1.7194 C   0  0  0  0  0  0  0  0  0  0  0  0
   -2.7339   -0.5777   -0.3968 C   0  0  0  0  0  0  0  0  0  0  0  0
   -0.6647    0.7230    0.9533 C   0  0  0  0  0  0  0  0  0  0  0  0
    2.8265   -0.1969    0.8025 C   0  0  0  0  0  0  0  0  0  0  0  0
   -2.8470    0.7768   -0.0843 C   0  0  0  0  0  0  0  0  0  0  0  0
   -1.8147    1.4258    0.5891 C   0  0  0  0  0  0  0  0  0  0  0  0
    0.6588   -2.7172    0.6608 C   0  0  0  0  0  0  0  0  0  0  0  0
   -1.4156   -2.6510   -0.3225 C   0  0  0  0  0  0  0  0  0  0  0  0
    2.7339    1.1269    0.4122 C   0  0  0  0  0  0  0  0  0  0  0  0
    3.8619   -1.0094    0.3764 C   0  0  0  0  0  0  0  0  0  0  0  0
    3.7094    1.6560   -0.4328 C   0  0  0  0  0  0  0  0  0  0  0  0
    4.8374   -0.4802   -0.4686 C   0  0  0  0  0  0  0  0  0  0  0  0
    4.7613    0.8526   -0.8732 C   0  0  0  0  0  0  0  0  0  0  0  0
   -3.7067   -1.1796   -2.4819 C   0  0  0  0  0  0  0  0  0  0  0  0
   -5.0356    1.4973    0.5047 C   0  0  0  0  0  0  0  0  0  0  0  0
   -1.4276    3.6796   -0.0638 C   0  0  0  0  0  0  0  0  0  0  0  0
  1 21  1  0
  2 10  1  0
  2 22  1  0
  3 13  1  0
  3 23  1  0
  4 14  1  0
  4 24  1  0
  5 15  2  0
  5 16  1  0
  6  7  2  0
  6  8  1  0
  6 11  1  0
  7  9  1  0
  7 15  1  0
  8 10  1  0
  8 16  2  0
  9 12  1  0
 10 13  2  0
 11 14  2  0
 12 17  2  0
 12 18  1  0
 13 14  1  0
 17 19  1  0
 18 20  2  0
 19 21  2  0
 20 21  1  0
M  END
>  <PUBCHEM_COMPOUND_CID>  (1) 
43576

>  <PUBCHEM_CONFORMER_RMSD>  (1) 
0.8

>  <PUBCHEM_CONFORMER_DIVERSEORDER>  (1) 
1
9
7
3
5
12
6
10
11
8
2
13
4

>  <PUBCHEM_MMFF94_PARTIAL_CHARGES>  (1) 
29
1 -0.18
10 0.08
11 -0.15
12 -0.14
13 0.08
14 0.08
15 0.16
16 0.16
17 -0.15
18 -0.15
19 -0.15
2 -0.36
20 -0.15
21 0.18
22 0.28
23 0.28
24 0.28
27 0.15
28 0.15
29 0.15
3 -0.36
30 0.15
31 0.15
32 0.15
33 0.15
4 -0.36
5 -0.62
7 -0.14
9 0.29

>  <PUBCHEM_EFFECTIVE_ROTOR_COUNT>  (1) 
5

>  <PUBCHEM_PHARMACOPHORE_FEATURES>  (1) 
7
1 2 acceptor
1 3 acceptor
1 4 acceptor
1 5 acceptor
6 12 17 18 19 20 21 rings
6 5 6 7 8 15 16 rings
6 6 8 10 11 13 14 rings

>  <PUBCHEM_HEAVY_ATOM_COUNT>  (1) 
24

>  <PUBCHEM_ATOM_DEF_STEREO_COUNT>  (1) 
0

>  <PUBCHEM_ATOM_UDEF_STEREO_COUNT>  (1) 
0

>  <PUBCHEM_BOND_DEF_STEREO_COUNT>  (1) 
0

>  <PUBCHEM_BOND_UDEF_STEREO_COUNT>  (1) 
0

>  <PUBCHEM_ISOTOPIC_ATOM_COUNT>  (1) 
0

>  <PUBCHEM_COMPONENT_COUNT>  (1) 
1

>  <PUBCHEM_CACTVS_TAUTO_COUNT>  (1) 
1

>  <PUBCHEM_CONFORMER_ID>  (1) 
0000AA3800000001

>  <PUBCHEM_MMFF94_ENERGY>  (1) 
104.0324

>  <PUBCHEM_FEATURE_SELFOVERLAP>  (1) 
35.56

>  <PUBCHEM_SHAPE_FINGERPRINT>  (1) 
10498660 4 18410283709808148961
10670039 82 18408040715257591444
10871710 139 18408890607275409405
11370993 144 12974148706404776516
11640471 11 17749386022701384050
12173636 292 18411692162918222072
12788726 201 18342176674081363240
12892183 10 13190330262614272768
13583140 156 16660912318809926403
13994607 96 17677630789712608624
14251751 93 18199467671351918212
14787075 74 18259703389925567139
14790565 3 18412550881874666081
14840074 17 18113344093837708557
14931854 50 18409164454590195292
14955137 171 18340499949578596433
15183329 4 18335152956203440198
15475509 35 12461855559777151303
15575132 122 18114748135726569333
16752209 62 18341880909616681050
17492 54 18187632652865661439
19591789 44 18339640161354975355
20775438 99 17051293041630986894
20871999 31 18342457101101877706
21033648 29 14779265276442751140
21756936 100 17531539801328353664
21857420 4 15473041956550842598
22620623 9 17489576905378221543
22907989 373 18268722782007126062
23366157 5 17830456081302718067
23402539 116 18343295976870752006
23559900 14 18202279247671216136
2637199 183 18334583391277650858
2748010 2 17547825896149956531
350125 39 18052814750177731627
474 4 18114745927933426730
59444896 2 12132217013383898059
59755656 520 17022908969150889458
6034566 193 16879654784505036204
633830 44 18187083910432407850
9981440 41 17539122166837124056

>  <PUBCHEM_SHAPE_MULTIPOLES>  (1) 
473.19
10.25
3.42
1.49
8.68
0.35
-0.7
4.97
-5.33
-1.9
0.13
0.02
-0.18
-2.15

>  <PUBCHEM_SHAPE_SELFOVERLAP>  (1) 
1021.852

>  <PUBCHEM_SHAPE_VOLUME>  (1) 
263.7

>  <PUBCHEM_COORDINATE_TYPE>  (1) 
2
5
10

$$$$
