43585
     RDKit          3D

 20 22  0  0  0  0  0  0  0  0999 V2000
   -0.5665   -1.9337    1.2524 S   0  0  0  0  0  0  0  0  0  0  0  0
   -1.7235    2.4127    0.7920 O   0  0  0  0  0  0  0  0  0  0  0  0
    6.0425   -0.7477   -0.8404 O   0  0  0  0  0  0  0  0  0  0  0  0
    4.0161   -0.6549   -1.8595 O   0  0  0  0  0  0  0  0  0  0  0  0
   -0.0197    0.8080    0.5070 C   0  0  0  0  0  0  0  0  0  0  0  0
   -2.8818   -0.7381    0.4656 C   0  0  0  0  0  0  0  0  0  0  0  0
    0.4126   -0.4970    0.8076 C   0  0  0  0  0  0  0  0  0  0  0  0
   -2.4907    0.4513   -0.1528 C   0  0  0  0  0  0  0  0  0  0  0  0
   -2.1740   -1.2265    1.6901 C   0  0  0  0  0  0  0  0  0  0  0  0
   -1.4266    1.2787    0.4269 C   0  0  0  0  0  0  0  0  0  0  0  0
    2.7324    0.2438    0.5080 C   0  0  0  0  0  0  0  0  0  0  0  0
    1.8007   -0.7551    0.7925 C   0  0  0  0  0  0  0  0  0  0  0  0
    0.9336    1.8097    0.2296 C   0  0  0  0  0  0  0  0  0  0  0  0
    2.2981    1.5297    0.2300 C   0  0  0  0  0  0  0  0  0  0  0  0
   -3.9297   -1.4759   -0.1018 C   0  0  0  0  0  0  0  0  0  0  0  0
   -3.1473    0.9227   -1.2940 C   0  0  0  0  0  0  0  0  0  0  0  0
    4.1897   -0.0734    0.4988 C   0  0  0  0  0  0  0  0  0  0  0  0
   -4.5794   -1.0190   -1.2503 C   0  0  0  0  0  0  0  0  0  0  0  0
   -4.1898    0.1802   -1.8442 C   0  0  0  0  0  0  0  0  0  0  0  0
    4.7034   -0.5155   -0.8573 C   0  0  0  0  0  0  0  0  0  0  0  0
  1  7  1  0
  1  9  1  0
  2 10  2  0
  3 20  1  0
  4 20  2  0
  5  7  2  0
  5 10  1  0
  5 13  1  0
  6  8  2  0
  6  9  1  0
  6 15  1  0
  7 12  1  0
  8 10  1  0
  8 16  1  0
 11 12  2  0
 11 14  1  0
 11 17  1  0
 13 14  2  0
 15 18  2  0
 16 19  2  0
 17 20  1  0
 18 19  1  0
M  END
>  <PUBCHEM_COMPOUND_CID>  (1) 
43585

>  <PUBCHEM_CONFORMER_RMSD>  (1) 
0.6

>  <PUBCHEM_CONFORMER_DIVERSEORDER>  (1) 
1
11
8
19
12
7
14
21
16
18
3
10
15
2
17
4
5
9
20
6
13

>  <PUBCHEM_MMFF94_PARTIAL_CHARGES>  (1) 
28
1 -0.33
10 0.4
11 -0.14
12 -0.15
13 -0.15
14 -0.15
15 -0.15
16 -0.15
17 0.2
18 -0.15
19 -0.15
2 -0.57
20 0.66
23 0.15
24 0.15
25 0.15
26 0.15
27 0.15
3 -0.65
30 0.15
31 0.15
32 0.5
4 -0.57
5 0.09
6 -0.14
7 0.1
8 0.09
9 0.37

>  <PUBCHEM_EFFECTIVE_ROTOR_COUNT>  (1) 
2.4

>  <PUBCHEM_PHARMACOPHORE_FEATURES>  (1) 
7
1 2 acceptor
1 3 acceptor
1 4 acceptor
3 3 4 20 anion
6 5 7 11 12 13 14 rings
6 6 8 15 16 18 19 rings
7 1 5 6 7 8 9 10 rings

>  <PUBCHEM_HEAVY_ATOM_COUNT>  (1) 
20

>  <PUBCHEM_ATOM_DEF_STEREO_COUNT>  (1) 
0

>  <PUBCHEM_ATOM_UDEF_STEREO_COUNT>  (1) 
0

>  <PUBCHEM_BOND_DEF_STEREO_COUNT>  (1) 
0

>  <PUBCHEM_BOND_UDEF_STEREO_COUNT>  (1) 
0

>  <PUBCHEM_ISOTOPIC_ATOM_COUNT>  (1) 
0

>  <PUBCHEM_COMPONENT_COUNT>  (1) 
1

>  <PUBCHEM_CACTVS_TAUTO_COUNT>  (1) 
1

>  <PUBCHEM_CONFORMER_ID>  (1) 
0000AA4100000001

>  <PUBCHEM_MMFF94_ENERGY>  (1) 
65.5075

>  <PUBCHEM_FEATURE_SELFOVERLAP>  (1) 
35.594

>  <PUBCHEM_SHAPE_FINGERPRINT>  (1) 
10498660 4 17313380136545446212
10759866 29 16950553368269292114
11089746 13 13334730250298515580
11796584 16 16272207470584319031
12251169 10 10807653467252052273
12363563 72 18201726171108980300
12553582 1 18408041792814445521
12596602 18 14836402532632155078
12670546 177 18114186345603533340
12824470 246 16056875836303781215
12892183 10 13686301232310852550
13288520 33 17132116835691620868
13583140 156 15213315113948332768
13675066 3 10663825186917479312
14911166 2 18260827107345444682
15163728 17 16372394893209488959
15880784 105 17060337444271610066
16752209 62 18334570231170685082
16945 1 18335419071274469337
17349148 13 18335698321816790618
17357779 13 18341896302895228416
17780758 139 14764071099784389518
17870717 6 18407760330949346943
1813 80 15482675722925621928
18186145 218 18261385676580183505
193927 3 17988650704765903268
19784866 240 17275388719807991550
19862831 5 18187079563714124321
200 152 17989485242591616521
20112054 13 10953451916966254051
20645476 183 16732982058994333451
20645477 70 18271239534100512492
20871999 31 18187082832247728580
21069387 34 17703513289014116906
21267235 1 18411422843210753115
21637258 2 16558739161886130895
22079108 93 12396302543474738877
221357 26 18336253622649651031
22182313 1 18043816613240779184
22393880 68 18262222391911877599
22907989 373 17823156634021744261
23175994 123 18341330089225877417
23379529 103 18057603376646524407
23402539 116 18343023263812071384
23493267 7 16732978752027459385
23559900 14 18336540629412857464
25 1 17896020088968862273
25147074 1 18117834391629051434
2748010 2 18046066235431965049
2838139 119 15213020453696174678
2871803 45 18410281528128104425
296302 2 14129055902560815449
3472631 163 14563073794621993239
3759504 43 16443067213659050347
474 4 13479139016326530838
56616090 284 18411136948021637251
90316 7 13542475284328339491
9709674 26 18192146212110812649

>  <PUBCHEM_SHAPE_MULTIPOLES>  (1) 
397.83
10.01
1.9
1.52
8.21
0.08
-0.54
-1.8
-6.49
-1.01
0.68
-0.18
-0.04
0.66

>  <PUBCHEM_SHAPE_SELFOVERLAP>  (1) 
861.035

>  <PUBCHEM_SHAPE_VOLUME>  (1) 
217.2

>  <PUBCHEM_COORDINATE_TYPE>  (1) 
2
5
10

$$$$
