43582
     RDKit          3D

  6  5  0  0  0  0  0  0  0  0999 V2000
   -2.0747   -0.8963   -0.0001 Br  0  0  0  0  0  0  0  0  0  0  0  0
    0.9182   -1.4757    0.0003 O   0  0  0  0  0  0  0  0  0  0  0  0
    0.7413   -0.2567   -0.0003 C   0  0  0  0  0  0  0  0  0  0  0  0
    1.9266    0.6777    0.0000 C   0  0  0  0  0  0  0  0  0  0  0  0
   -0.6455    0.3150   -0.0002 C   0  0  0  0  0  0  0  0  0  0  0  0
   -0.8659    1.6360    0.0003 C   0  0  0  0  0  0  0  0  0  0  0  0
  1  5  1  0
  2  3  2  0
  3  4  1  0
  3  5  1  0
  5  6  2  0
M  END
>  <PUBCHEM_COMPOUND_CID>  (1) 
43582

>  <PUBCHEM_CONFORMER_RMSD>  (1) 
0.4

>  <PUBCHEM_CONFORMER_DIVERSEORDER>  (1) 
1
3
4
2

>  <PUBCHEM_MMFF94_PARTIAL_CHARGES>  (1) 
8
1 -0.11
10 0.15
11 0.15
2 -0.57
3 0.49
4 0.06
5 0.12
6 -0.3

>  <PUBCHEM_EFFECTIVE_ROTOR_COUNT>  (1) 
1

>  <PUBCHEM_PHARMACOPHORE_FEATURES>  (1) 
2
1 1 hydrophobe
1 2 acceptor

>  <PUBCHEM_HEAVY_ATOM_COUNT>  (1) 
6

>  <PUBCHEM_ATOM_DEF_STEREO_COUNT>  (1) 
0

>  <PUBCHEM_ATOM_UDEF_STEREO_COUNT>  (1) 
0

>  <PUBCHEM_BOND_DEF_STEREO_COUNT>  (1) 
0

>  <PUBCHEM_BOND_UDEF_STEREO_COUNT>  (1) 
0

>  <PUBCHEM_ISOTOPIC_ATOM_COUNT>  (1) 
0

>  <PUBCHEM_COMPONENT_COUNT>  (1) 
1

>  <PUBCHEM_CACTVS_TAUTO_COUNT>  (1) 
2

>  <PUBCHEM_CONFORMER_ID>  (1) 
0000AA3E00000001

>  <PUBCHEM_MMFF94_ENERGY>  (1) 
8.3761

>  <PUBCHEM_FEATURE_SELFOVERLAP>  (1) 
10.148

>  <PUBCHEM_SHAPE_FINGERPRINT>  (1) 
139733 1 9223241740764278403
16714656 1 18268152148240966052
18185500 45 18268992149508004303
20096714 4 18050289163262789552
21040471 1 17978228257725968096
24536 1 18194948669639326284
29004967 10 18263368143236793995

>  <PUBCHEM_SHAPE_MULTIPOLES>  (1) 
123.55
2.56
1.58
0.63
0.27
0.27
0
-0.4
0
0.13
0
0.06
0.01
0

>  <PUBCHEM_SHAPE_SELFOVERLAP>  (1) 
214.361

>  <PUBCHEM_SHAPE_VOLUME>  (1) 
83.8

>  <PUBCHEM_COORDINATE_TYPE>  (1) 
2
5
10

$$$$
