4358
     RDKit          3D

 19 20  0  0  0  0  0  0  0  0999 V2000
   -1.5425   -1.8494    1.5635 O   0  0  0  0  0  0  0  0  0  0  0  0
   -2.6062   -0.7460   -0.1807 N   0  0  0  0  0  0  0  0  0  0  0  0
   -0.6137   -1.8267   -0.5626 N   0  0  0  0  0  0  0  0  0  0  0  0
   -3.7465   -0.2715    0.5714 C   0  0  0  0  0  0  0  0  0  0  0  0
   -4.9973   -0.1998   -0.3110 C   0  0  0  0  0  0  0  0  0  0  0  0
   -3.4500    1.0821    1.2258 C   0  0  0  0  0  0  0  0  0  0  0  0
   -4.9330    0.9424   -1.3250 C   0  0  0  0  0  0  0  0  0  0  0  0
   -3.3883    2.2221    0.2093 C   0  0  0  0  0  0  0  0  0  0  0  0
   -4.6484    2.2801   -0.6490 C   0  0  0  0  0  0  0  0  0  0  0  0
   -1.5842   -1.5053    0.3830 C   0  0  0  0  0  0  0  0  0  0  0  0
    0.5584   -2.6084   -0.2464 C   0  0  0  0  0  0  0  0  0  0  0  0
    1.7372   -1.7463    0.2009 C   0  0  0  0  0  0  0  0  0  0  0  0
    2.2243   -0.7406   -0.8509 C   0  0  0  0  0  0  0  0  0  0  0  0
    3.4112    0.0779   -0.4091 C   0  0  0  0  0  0  0  0  0  0  0  0
    3.2022    1.2834    0.2438 C   0  0  0  0  0  0  0  0  0  0  0  0
    4.6924   -0.3879   -0.6632 C   0  0  0  0  0  0  0  0  0  0  0  0
    4.3001    2.0408    0.6521 C   0  0  0  0  0  0  0  0  0  0  0  0
    5.7903    0.3694   -0.2548 C   0  0  0  0  0  0  0  0  0  0  0  0
    5.5941    1.5837    0.4028 C   0  0  0  0  0  0  0  0  0  0  0  0
  1 10  2  0
  2  4  1  0
  2 10  1  0
  3 10  1  0
  3 11  1  0
  4  5  1  0
  4  6  1  0
  5  7  1  0
  6  8  1  0
  7  9  1  0
  8  9  1  0
 11 12  1  0
 12 13  1  0
 13 14  1  0
 14 15  2  0
 14 16  1  0
 15 17  1  0
 16 18  2  0
 17 19  2  0
 18 19  1  0
M  END
>  <PUBCHEM_COMPOUND_CID>  (1) 
4358

>  <PUBCHEM_CONFORMER_RMSD>  (1) 
0.8

>  <PUBCHEM_CONFORMER_DIVERSEORDER>  (1) 
1
63
243
111
83
35
245
140
136
116
28
167
112
201
208
80
103
228
42
200
68
180
250
97
161
115
221
255
134
145
227
16
166
64
114
10
206
30
102
242
47
22
48
82
93
138
241
148
240
257
79
231
87
61
141
220
54
144
43
158
122
186
66
203
236
258
168
190
188
215
154
7
70
94
127
234
88
204
53
107
196
187
172
101
143
171
233
37
147
92
73
239
163
51
137
216
67
214
58
100
27
81
261
262
230
23
185
75
165
205
89
210
128
52
202
184
117
146
106
189
150
46
177
104
33
192
160
124
4
212
152
225
3
72
263
175
183
235
6
105
169
207
109
139
18
71
78
123
142
178
191
17
39
159
223
164
194
149
38
213
119
253
65
252
91
49
55
29
113
244
226
224
174
238
259
254
40
181
41
57
62
84
135
5
182
13
77
60
121
21
25
131
132
229
118
219
162
251
34
19
156
76
260
44
9
98
153
99
36
195
129
170
74
96
237
14
110
247
248
8
209
193
199
86
125
56
45
232
151
133
15
218
108
157
26
197
173
126
85
95
256
217
31
198
246
50
176
59
120
20
130
179
11
249
155
2
222
12
69
90
211
32
24

>  <PUBCHEM_MMFF94_PARTIAL_CHARGES>  (1) 
20
1 -0.57
10 0.69
11 0.3
13 0.14
14 -0.14
15 -0.15
16 -0.15
17 -0.15
18 -0.15
19 -0.15
2 -0.73
3 -0.73
31 0.37
32 0.37
39 0.15
4 0.3
40 0.15
41 0.15
42 0.15
43 0.15

>  <PUBCHEM_EFFECTIVE_ROTOR_COUNT>  (1) 
8.2

>  <PUBCHEM_PHARMACOPHORE_FEATURES>  (1) 
5
1 1 acceptor
1 2 donor
1 3 donor
6 14 15 16 17 18 19 rings
6 4 5 6 7 8 9 rings

>  <PUBCHEM_HEAVY_ATOM_COUNT>  (1) 
19

>  <PUBCHEM_ATOM_DEF_STEREO_COUNT>  (1) 
0

>  <PUBCHEM_ATOM_UDEF_STEREO_COUNT>  (1) 
0

>  <PUBCHEM_BOND_DEF_STEREO_COUNT>  (1) 
0

>  <PUBCHEM_BOND_UDEF_STEREO_COUNT>  (1) 
0

>  <PUBCHEM_ISOTOPIC_ATOM_COUNT>  (1) 
0

>  <PUBCHEM_COMPONENT_COUNT>  (1) 
1

>  <PUBCHEM_CACTVS_TAUTO_COUNT>  (1) 
3

>  <PUBCHEM_CONFORMER_ID>  (1) 
0000110600000001

>  <PUBCHEM_MMFF94_ENERGY>  (1) 
21.7179

>  <PUBCHEM_FEATURE_SELFOVERLAP>  (1) 
25.423

>  <PUBCHEM_SHAPE_FINGERPRINT>  (1) 
10498660 4 18412545379662363265
10968037 57 9439394732016960933
11089746 13 18413102858244193910
12596602 18 16298676087109549440
12633257 1 16081089315830720150
12769317 202 18272929397620433810
13103583 49 14129064698822623359
13402501 40 18411698789921410708
13941219 33 7925638829805800349
14123255 352 18409448081028808076
14123255 52 18412262843802506046
1420 369 8934999278379384510
14251764 30 10591756602011151765
14251764 38 18341620351284033156
14739800 52 18261659420393962530
14848178 96 18412545396905483960
15003188 100 18343016730950672980
17780758 139 11674874490005082543
1813 80 12391506490697028579
21033648 29 17168707419281880895
21095088 737 18273498944664948425
21279426 13 18341623581837541630
21315764 268 18409726300732044820
21401589 2 18261683610045386459
22950370 63 9223226368791749262
23559900 14 18122621648388677291
2838139 119 18341045246440665508
312425 83 17058944238353486221
341906 21 18114185249943819150
351380 180 18343585157161196940
351380 3 9871751286517290940
5104073 3 18114750317864861267
6328613 192 18262810678732453300
9981440 41 18260271845626804547

>  <PUBCHEM_SHAPE_MULTIPOLES>  (1) 
375.18
14.5
2.74
1.07
4.9
0.17
-0.09
-9.38
1.71
-0.51
-0.24
-0.77
-0.01
1.19

>  <PUBCHEM_SHAPE_SELFOVERLAP>  (1) 
760.552

>  <PUBCHEM_SHAPE_VOLUME>  (1) 
216.5

>  <PUBCHEM_COORDINATE_TYPE>  (1) 
2
5
10

$$$$
