43592
     RDKit          3D

 35 38  0  0  1  0  0  0  0  0999 V2000
    1.7335   -0.2496    1.5496 S   0  0  0  0  0  0  0  0  0  0  0  0
   -2.9511    0.2877    0.6294 S   0  0  0  0  0  0  0  0  0  0  0  0
   -5.7569    1.8437   -1.8938 S   0  0  0  0  0  0  0  0  0  0  0  0
    1.6141   -3.3139   -1.9445 O   0  0  0  0  0  0  0  0  0  0  0  0
   -1.1826   -4.0695   -0.6480 O   0  0  0  0  0  0  0  0  0  0  0  0
    5.6942   -1.3935    0.4365 O   0  0  0  0  0  0  0  0  0  0  0  0
   -2.0515   -2.1123   -1.4508 O   0  0  0  0  0  0  0  0  0  0  0  0
    6.8641    0.2507   -1.4414 O   0  0  0  0  0  0  0  0  0  0  0  0
   -5.6969    3.3510   -2.5117 O   0  0  0  0  0  0  0  0  0  0  0  0
   -4.6354    1.0854   -2.4085 O   0  0  0  0  0  0  0  0  0  0  0  0
   -7.1188    1.3584   -1.9861 O   0  0  0  0  0  0  0  0  0  0  0  0
    0.9304   -2.3060    0.0748 N   0  0  0  0  0  0  0  0  0  0  0  0
    3.6671   -1.1293   -0.6640 N   0  0  0  0  0  0  0  0  0  0  0  0
   -5.5576    1.2090    0.7400 N   0  0  0  0  0  0  0  0  0  0  0  0
   -5.2091   -0.4950    2.0352 N   0  0  0  0  0  0  0  0  0  0  0  0
   -6.7360    0.9695    1.3322 N   0  0  0  0  0  0  0  0  0  0  0  0
   -6.5167   -0.0740    2.1228 N   0  0  0  0  0  0  0  0  0  0  0  0
    1.9405   -1.9782    1.0644 C   0  0  0  0  0  0  0  0  0  0  0  0
    2.9794   -2.2608   -0.0429 C   0  0  0  0  0  0  0  0  0  0  0  0
    1.7700   -2.7831   -0.8697 C   0  0  0  0  0  0  0  0  0  0  0  0
   -0.3999   -2.1053    0.2589 C   0  0  0  0  0  0  0  0  0  0  0  0
   -0.8646   -1.3169    1.2572 C   0  0  0  0  0  0  0  0  0  0  0  0
    0.0439   -0.5146    2.1861 C   0  0  0  0  0  0  0  0  0  0  0  0
   -2.3258   -1.1100    1.5764 C   0  0  0  0  0  0  0  0  0  0  0  0
    4.9861   -0.7884   -0.3656 C   0  0  0  0  0  0  0  0  0  0  0  0
   -1.3095   -2.7295   -0.7134 C   0  0  0  0  0  0  0  0  0  0  0  0
    5.4824    0.4131   -1.1576 C   0  0  0  0  0  0  0  0  0  0  0  0
    5.2892    1.7025   -0.3946 C   0  0  0  0  0  0  0  0  0  0  0  0
   -4.6340    0.3123    1.1739 C   0  0  0  0  0  0  0  0  0  0  0  0
    4.1043    2.4251   -0.5348 C   0  0  0  0  0  0  0  0  0  0  0  0
    6.2955    2.1703    0.4507 C   0  0  0  0  0  0  0  0  0  0  0  0
   -5.4224    2.2919   -0.2010 C   0  0  0  0  0  0  0  0  0  0  0  0
    3.9256    3.6154    0.1699 C   0  0  0  0  0  0  0  0  0  0  0  0
    6.1167    3.3607    1.1554 C   0  0  0  0  0  0  0  0  0  0  0  0
    4.9317    4.0832    1.0150 C   0  0  0  0  0  0  0  0  0  0  0  0
  1 18  1  0
  1 23  1  0
  2 24  1  0
  2 29  1  0
  3  9  1  0
  3 10  2  0
  3 11  2  0
  3 32  1  0
  4 20  2  0
  5 26  1  0
  6 25  2  0
  7 26  2  0
  8 27  1  0
 12 18  1  0
 12 20  1  0
 12 21  1  0
 13 19  1  0
 13 25  1  0
 14 16  1  0
 14 29  1  0
 14 32  1  0
 15 17  1  0
 15 29  2  0
 16 17  2  0
 18 19  1  0
 19 20  1  0
 21 22  2  0
 21 26  1  0
 22 23  1  0
 22 24  1  0
 25 27  1  0
 27 28  1  0
 28 30  2  0
 28 31  1  0
 30 33  1  0
 31 34  2  0
 33 35  2  0
 34 35  1  0
M  END
>  <PUBCHEM_COMPOUND_CID>  (1) 
43592

>  <PUBCHEM_CONFORMER_RMSD>  (1) 
1

>  <PUBCHEM_CONFORMER_DIVERSEORDER>  (1) 
1
178
40
187
173
95
93
33
56
157
151
39
183
166
82
120
144
71
167
109
70
25
66
174
111
78
60
11
130
55
160
19
137
29
61
161
126
9
152
73
156
69
134
76
107
164
102
59
12
108
128
148
50
31
168
89
121
100
113
162
8
149
170
87
175
90
43
163
158
142
23
86
153
75
6
41
27
80
47
133
37
180
52
124
91
84
26
45
145
63
96
185
67
146
123
72
57
51
171
106
184
14
30
68
154
98
143
177
77
105
34
65
17
103
83
182
49
139
92
118
3
186
22
7
94
85
48
64
101
110
127
88
135
181
36
58
54
116
114
112
21
10
140
155
179
18
115
79
147
53
15
4
125
132
138
35
99
131
119
13
104
24
46
81
5
141
150
136
32
28
16
97
74
169
117
38
129
2
42
122
20
165
159
172
44
62
176

>  <PUBCHEM_MMFF94_PARTIAL_CHARGES>  (1) 
43
1 -0.45
10 -0.65
11 -0.65
12 -0.39
13 -0.65
14 0.31
15 -0.34
16 -0.42
18 0.44
19 0.28
2 -0.29
20 0.58
21 0.12
22 -0.28
23 0.37
24 0.37
25 0.57
26 0.71
27 0.48
28 -0.14
29 0.24
3 1.38
30 -0.15
31 -0.15
32 0.36
33 -0.15
34 -0.15
35 -0.15
4 -0.57
40 0.37
44 0.5
45 0.4
46 0.15
47 0.15
5 -0.65
50 0.15
51 0.15
52 0.15
53 0.5
6 -0.57
7 -0.57
8 -0.68
9 -0.68

>  <PUBCHEM_EFFECTIVE_ROTOR_COUNT>  (1) 
10.6

>  <PUBCHEM_PHARMACOPHORE_FEATURES>  (1) 
17
1 10 acceptor
1 11 acceptor
1 13 donor
1 4 acceptor
1 5 acceptor
1 6 acceptor
1 7 acceptor
1 8 acceptor
1 8 donor
1 9 acceptor
3 14 15 29 cation
3 5 7 26 anion
4 12 18 19 20 rings
4 3 9 10 11 anion
5 14 15 16 17 29 rings
6 1 12 18 21 22 23 rings
6 28 30 31 33 34 35 rings

>  <PUBCHEM_HEAVY_ATOM_COUNT>  (1) 
35

>  <PUBCHEM_ATOM_DEF_STEREO_COUNT>  (1) 
2

>  <PUBCHEM_ATOM_UDEF_STEREO_COUNT>  (1) 
1

>  <PUBCHEM_BOND_DEF_STEREO_COUNT>  (1) 
0

>  <PUBCHEM_BOND_UDEF_STEREO_COUNT>  (1) 
0

>  <PUBCHEM_ISOTOPIC_ATOM_COUNT>  (1) 
0

>  <PUBCHEM_COMPONENT_COUNT>  (1) 
1

>  <PUBCHEM_CACTVS_TAUTO_COUNT>  (1) 
2

>  <PUBCHEM_CONFORMER_ID>  (1) 
0000AA4800000001

>  <PUBCHEM_MMFF94_ENERGY>  (1) 
74.1797

>  <PUBCHEM_FEATURE_SELFOVERLAP>  (1) 
86.651

>  <PUBCHEM_SHAPE_FINGERPRINT>  (1) 
10673678 19 18200888334669197698
11456790 92 18040710352139352562
11479125 193 18339068393259435781
11621639 179 18408609163465672588
11796584 16 12535347848874727579
12422481 6 17749389299487215732
12857493 111 17472135072795481050
13878862 14 18335693924033965142
13947947 63 15719379604324251813
14117953 113 18201732721883328318
14556957 393 17060074596309944769
14739800 52 17532082809463731225
15082195 135 18197772202836554353
17686467 74 18187936136167810283
18335252 114 18341335501158951134
20511986 3 17845655988512549992
20715895 44 18272660077949693290
21033648 29 17458061568777650818
22121540 332 17968927596335960461
23569914 2 17753853295174326805
249057 3 18201169789036312798
25269216 80 15554162683614277125
2838139 119 18408881828282680262
6036956 94 17187003640677080000

>  <PUBCHEM_SHAPE_MULTIPOLES>  (1) 
654.99
19.53
4.92
2.19
9.73
0.94
0.37
20.75
2.72
-3.91
1.44
3.56
0.44
3.72

>  <PUBCHEM_SHAPE_SELFOVERLAP>  (1) 
1362.413

>  <PUBCHEM_SHAPE_VOLUME>  (1) 
373.2

>  <PUBCHEM_COORDINATE_TYPE>  (1) 
2
5
10

$$$$
