43591
     RDKit          3D

 27 27  0  0  1  0  0  0  0  0999 V2000
    1.7568    1.1754   -3.0369 O   0  0  0  0  0  0  0  0  0  0  0  0
   -2.6202   -1.5130   -2.8297 O   0  0  0  0  0  0  0  0  0  0  0  0
    3.8664   -0.9805   -1.1817 O   0  0  0  0  0  0  0  0  0  0  0  0
    4.9807   -2.0750    0.4641 O   0  0  0  0  0  0  0  0  0  0  0  0
    0.6431    1.2960   -0.8864 C   0  0  0  0  0  0  0  0  0  0  0  0
    0.7452    2.2537    0.3157 C   0  0  0  0  0  0  0  0  0  0  0  0
    1.3479    2.0642   -2.0101 C   0  0  0  0  0  0  0  0  0  0  0  0
    2.5593    2.6868   -1.3208 C   0  0  0  0  0  0  0  0  0  0  0  0
    2.0854    2.9201    0.0873 C   0  0  0  0  0  0  0  0  0  0  0  0
   -3.3563   -1.5763   -0.4896 C   0  0  0  0  0  0  0  0  0  0  0  0
    0.5979    1.5261    1.6497 C   0  0  0  0  0  0  0  0  0  0  0  0
   -0.7680    0.9371   -1.2300 C   0  0  0  0  0  0  0  0  0  0  0  0
   -2.6335   -0.7597   -1.6136 C   0  0  0  0  0  0  0  0  0  0  0  0
   -3.5425   -0.7607    0.8263 C   0  0  0  0  0  0  0  0  0  0  0  0
   -1.2276   -0.3233   -1.2650 C   0  0  0  0  0  0  0  0  0  0  0  0
   -4.7601   -2.0229   -0.9652 C   0  0  0  0  0  0  0  0  0  0  0  0
   -2.5509   -2.8613   -0.1860 C   0  0  0  0  0  0  0  0  0  0  0  0
    2.7815    3.6264    0.9866 C   0  0  0  0  0  0  0  0  0  0  0  0
   -4.3659    0.5272    0.6988 C   0  0  0  0  0  0  0  0  0  0  0  0
    1.5963    0.4423    1.9407 C   0  0  0  0  0  0  0  0  0  0  0  0
   -4.5270    1.2126    2.0579 C   0  0  0  0  0  0  0  0  0  0  0  0
    1.3416   -0.8462    2.2143 C   0  0  0  0  0  0  0  0  0  0  0  0
    2.4097   -1.8660    2.4829 C   0  0  0  0  0  0  0  0  0  0  0  0
   -5.3730    2.4713    1.9500 C   0  0  0  0  0  0  0  0  0  0  0  0
    2.4081   -3.0366    1.4900 C   0  0  0  0  0  0  0  0  0  0  0  0
    2.6461   -2.6188    0.0357 C   0  0  0  0  0  0  0  0  0  0  0  0
    3.9588   -1.8990   -0.1849 C   0  0  0  0  0  0  0  0  0  0  0  0
  1  7  1  0
  2 13  1  0
  3 27  1  0
  4 27  2  0
  5  6  1  0
  5  7  1  0
  5 12  1  0
  6  9  1  0
  6 11  1  0
  7  8  1  0
  8  9  1  0
  9 18  2  0
 10 13  1  0
 10 14  1  0
 10 16  1  0
 10 17  1  0
 11 20  1  0
 12 15  2  0
 13 15  1  0
 14 19  1  0
 19 21  1  0
 20 22  2  0
 21 24  1  0
 22 23  1  0
 23 25  1  0
 25 26  1  0
 26 27  1  0
M  END
>  <PUBCHEM_COMPOUND_CID>  (1) 
43591

>  <PUBCHEM_CONFORMER_RMSD>  (1) 
1.4

>  <PUBCHEM_CONFORMER_DIVERSEORDER>  (1) 
1
122
85
18
43
59
71
96
104
11
100
110
94
41
136
69
129
143
106
95
27
58
114
84
32
105
107
116
62
8
30
74
113
144
65
25
101
20
146
121
77
133
75
102
137
51
60
76
81
14
111
28
56
86
80
123
134
31
73
38
9
40
49
64
53
124
112
115
24
145
37
66
108
21
61
99
19
72
103
36
47
93
83
82
13
128
79
45
120
68
17
50
109
117
48
12
127
78
125
141
29
34
91
46
44
131
55
33
87
39
67
135
142
52
26
16
23
97
4
15
119
88
98
5
92
89
54
138
118
139
63
70
57
132
3
90
22
42
35
140
126
130
10
7
2
6

>  <PUBCHEM_MMFF94_PARTIAL_CHARGES>  (1) 
28
1 -0.68
11 0.14
12 -0.29
13 0.42
15 -0.29
18 -0.3
2 -0.68
20 -0.29
22 -0.29
23 0.14
26 0.06
27 0.66
3 -0.65
35 0.15
39 0.15
4 -0.57
46 0.15
47 0.15
48 0.4
5 0.14
51 0.15
54 0.4
55 0.15
6 0.14
65 0.5
7 0.28
8 0.14
9 -0.28

>  <PUBCHEM_EFFECTIVE_ROTOR_COUNT>  (1) 
12.8

>  <PUBCHEM_PHARMACOPHORE_FEATURES>  (1) 
12
1 1 acceptor
1 1 donor
1 2 acceptor
1 2 donor
1 24 hydrophobe
1 3 acceptor
1 4 acceptor
3 10 16 17 hydrophobe
3 3 4 27 anion
4 10 14 19 21 hydrophobe
4 22 23 25 26 hydrophobe
5 5 6 7 8 9 rings

>  <PUBCHEM_HEAVY_ATOM_COUNT>  (1) 
27

>  <PUBCHEM_ATOM_DEF_STEREO_COUNT>  (1) 
4

>  <PUBCHEM_ATOM_UDEF_STEREO_COUNT>  (1) 
0

>  <PUBCHEM_BOND_DEF_STEREO_COUNT>  (1) 
0

>  <PUBCHEM_BOND_UDEF_STEREO_COUNT>  (1) 
2

>  <PUBCHEM_ISOTOPIC_ATOM_COUNT>  (1) 
0

>  <PUBCHEM_COMPONENT_COUNT>  (1) 
1

>  <PUBCHEM_CACTVS_TAUTO_COUNT>  (1) 
1

>  <PUBCHEM_CONFORMER_ID>  (1) 
0000AA4700000001

>  <PUBCHEM_MMFF94_ENERGY>  (1) 
40.1892

>  <PUBCHEM_FEATURE_SELFOVERLAP>  (1) 
60.982

>  <PUBCHEM_SHAPE_FINGERPRINT>  (1) 
10764073 3 16269112190817741328
11421498 54 17911794988140005457
11488393 25 17677032621428339304
12156800 1 15188286698510226063
12553582 1 18190165815676242882
133893 2 18114168783281974819
13533116 47 18267862964415696423
14251757 17 15358270281536698562
15219462 58 17913192437607261033
15664445 248 15936682765578933551
1813 80 18335691694408173618
20429585 67 16878804707007642906
20600515 1 17774169972279083388
21421861 104 18339938038632837524
23419403 2 16663501720311762378
3633792 109 18337652197456626871
5081480 168 17967532346308158675
6669772 16 16879064347193877984

>  <PUBCHEM_SHAPE_MULTIPOLES>  (1) 
532.17
9.35
4.37
2.8
8.41
0.62
0.33
-2.2
-2.35
-3.19
-0.78
0.3
0.34
-3.5

>  <PUBCHEM_SHAPE_SELFOVERLAP>  (1) 
1045.365

>  <PUBCHEM_SHAPE_VOLUME>  (1) 
320

>  <PUBCHEM_COORDINATE_TYPE>  (1) 
2
5
10

$$$$
