43601
     RDKit          3D

  7  6  0  0  0  0  0  0  0  0999 V2000
   -1.2323   -0.4146    0.1736 O   0  0  0  0  0  0  0  0  0  0  0  0
    3.4727    0.4105   -0.0130 N   0  0  0  0  0  0  0  0  0  0  0  0
   -2.2010    0.5968   -0.0590 C   0  0  0  0  0  0  0  0  0  0  0  0
   -3.5728   -0.0400   -0.1236 C   0  0  0  0  0  0  0  0  0  0  0  0
    0.0243    0.0926    0.2292 C   0  0  0  0  0  0  0  0  0  0  0  0
    1.1031   -0.6023   -0.1385 C   0  0  0  0  0  0  0  0  0  0  0  0
    2.4060   -0.0430   -0.0687 C   0  0  0  0  0  0  0  0  0  0  0  0
  1  3  1  0
  1  5  1  0
  2  7  3  0
  3  4  1  0
  5  6  2  0
  6  7  1  0
M  END
>  <PUBCHEM_COMPOUND_CID>  (1) 
43601

>  <PUBCHEM_CONFORMER_RMSD>  (1) 
0.4

>  <PUBCHEM_CONFORMER_DIVERSEORDER>  (1) 
1
2
3
4
5

>  <PUBCHEM_MMFF94_PARTIAL_CHARGES>  (1) 
8
1 -0.36
13 0.15
14 0.15
2 -0.56
3 0.28
5 -0.07
6 -0.09
7 0.49

>  <PUBCHEM_EFFECTIVE_ROTOR_COUNT>  (1) 
2

>  <PUBCHEM_PHARMACOPHORE_FEATURES>  (1) 
2
1 1 acceptor
1 2 acceptor

>  <PUBCHEM_HEAVY_ATOM_COUNT>  (1) 
7

>  <PUBCHEM_ATOM_DEF_STEREO_COUNT>  (1) 
0

>  <PUBCHEM_ATOM_UDEF_STEREO_COUNT>  (1) 
0

>  <PUBCHEM_BOND_DEF_STEREO_COUNT>  (1) 
0

>  <PUBCHEM_BOND_UDEF_STEREO_COUNT>  (1) 
1

>  <PUBCHEM_ISOTOPIC_ATOM_COUNT>  (1) 
0

>  <PUBCHEM_COMPONENT_COUNT>  (1) 
1

>  <PUBCHEM_CACTVS_TAUTO_COUNT>  (1) 
1

>  <PUBCHEM_CONFORMER_ID>  (1) 
0000AA5100000001

>  <PUBCHEM_MMFF94_ENERGY>  (1) 
8.1825

>  <PUBCHEM_FEATURE_SELFOVERLAP>  (1) 
10.149

>  <PUBCHEM_SHAPE_FINGERPRINT>  (1) 
11062470 55 18114180834875635973
12932764 1 15554154879389297875
14325111 11 18409730634074055883
14390081 3 18410292493016184728
21293036 1 17418092139343721556
5460574 1 8934998170298947059

>  <PUBCHEM_SHAPE_MULTIPOLES>  (1) 
133.21
5.97
0.74
0.61
0.53
0
0
-0.68
-0.35
0.01
-0.01
0.03
0
0.03

>  <PUBCHEM_SHAPE_SELFOVERLAP>  (1) 
241.447

>  <PUBCHEM_SHAPE_VOLUME>  (1) 
83.5

>  <PUBCHEM_COORDINATE_TYPE>  (1) 
2
5
10

$$$$
