4360
     RDKit          3D

 12 11  0  0  1  0  0  0  0  0999 V2000
    2.0302   -1.5325    1.1872 O   0  0  0  0  0  0  0  0  0  0  0  0
    2.8796   -1.5340   -0.9154 O   0  0  0  0  0  0  0  0  0  0  0  0
   -4.2605   -0.5191   -1.1623 O   0  0  0  0  0  0  0  0  0  0  0  0
    3.6448    1.1054   -0.5579 N   0  0  0  0  0  0  0  0  0  0  0  0
   -2.8675   -0.4226    0.7151 N   0  0  0  0  0  0  0  0  0  0  0  0
   -0.0387    0.7274    0.4014 C   0  0  0  0  0  0  0  0  0  0  0  0
    1.2088    1.2028   -0.3501 C   0  0  0  0  0  0  0  0  0  0  0  0
   -1.3495    1.3484   -0.0983 C   0  0  0  0  0  0  0  0  0  0  0  0
    2.5035    0.5966    0.2073 C   0  0  0  0  0  0  0  0  0  0  0  0
   -2.5856    0.9843    0.7189 C   0  0  0  0  0  0  0  0  0  0  0  0
    2.5104   -0.9166    0.0756 C   0  0  0  0  0  0  0  0  0  0  0  0
   -3.6754   -1.0400   -0.2215 C   0  0  0  0  0  0  0  0  0  0  0  0
  1 11  1  0
  2 11  2  0
  3 12  2  0
  4  9  1  0
  5 10  1  0
  5 12  1  0
  6  7  1  0
  6  8  1  0
  7  9  1  0
  8 10  1  0
  9 11  1  0
M  END
>  <PUBCHEM_COMPOUND_CID>  (1) 
4360

>  <PUBCHEM_CONFORMER_RMSD>  (1) 
0.8

>  <PUBCHEM_CONFORMER_DIVERSEORDER>  (1) 
1
92
20
124
43
123
35
80
44
59
131
21
120
11
15
19
81
110
118
135
111
13
39
109
82
97
37
52
4
130
125
73
87
62
112
91
115
117
84
66
47
94
98
108
2
127
63
5
51
103
114
76
48
28
86
17
128
72
101
129
74
78
69
9
46
3
36
119
18
96
77
106
29
95
58
25
14
105
100
83
56
42
89
34
126
12
41
88
113
134
70
31
102
132
71
85
33
7
68
104
107
16
6
49
30
50
90
60
122
93
54
65
45
55
23
99
10
40
64
79
61
8
32
75
26
67
22
24
27
116
133
57
121
53
38

>  <PUBCHEM_MMFF94_PARTIAL_CHARGES>  (1) 
14
1 -0.65
10 0.3
11 0.66
12 0.57
2 -0.57
22 0.36
23 0.36
24 0.37
25 0.06
26 0.5
3 -0.57
4 -0.99
5 -0.73
9 0.33

>  <PUBCHEM_EFFECTIVE_ROTOR_COUNT>  (1) 
7

>  <PUBCHEM_PHARMACOPHORE_FEATURES>  (1) 
7
1 1 acceptor
1 2 acceptor
1 3 acceptor
1 4 cation
1 4 donor
1 5 donor
3 1 2 11 anion

>  <PUBCHEM_HEAVY_ATOM_COUNT>  (1) 
12

>  <PUBCHEM_ATOM_DEF_STEREO_COUNT>  (1) 
0

>  <PUBCHEM_ATOM_UDEF_STEREO_COUNT>  (1) 
1

>  <PUBCHEM_BOND_DEF_STEREO_COUNT>  (1) 
0

>  <PUBCHEM_BOND_UDEF_STEREO_COUNT>  (1) 
0

>  <PUBCHEM_ISOTOPIC_ATOM_COUNT>  (1) 
0

>  <PUBCHEM_COMPONENT_COUNT>  (1) 
1

>  <PUBCHEM_CACTVS_TAUTO_COUNT>  (1) 
2

>  <PUBCHEM_CONFORMER_ID>  (1) 
0000110800000001

>  <PUBCHEM_MMFF94_ENERGY>  (1) 
3.5334

>  <PUBCHEM_FEATURE_SELFOVERLAP>  (1) 
35.579

>  <PUBCHEM_SHAPE_FINGERPRINT>  (1) 
11769659 78 18341612581608514857
12932764 1 17969231031453931752
13922767 16 8430319004908973820
14251710 61 18342185444520808007
14251717 144 18335419092786176562
15757776 16 18333448746685336106
177051 138 18131351895071123431
19422 9 18201728314265759024
20201158 50 18113901588839226681
20279233 1 17313103068284302289
20281407 28 18131068251357714785
20442098 301 18201439138439079855
20645477 70 18408602543902833943
20653085 51 10737282424950783049
20828058 19 18272085011608796893
22485316 2 18201999945546867721
449060 23 18268438944671710830
58051976 378 18261959647493662836
581208 293 18334857238234207528
9882013 296 15840973585732332611

>  <PUBCHEM_SHAPE_MULTIPOLES>  (1) 
219.38
7.54
1.66
0.96
3.96
0.23
0.01
2.14
-1.55
-0.6
-0.02
0.17
0.21
-0.53

>  <PUBCHEM_SHAPE_SELFOVERLAP>  (1) 
409.599

>  <PUBCHEM_SHAPE_VOLUME>  (1) 
135.5

>  <PUBCHEM_COORDINATE_TYPE>  (1) 
2
5
10

$$$$
