43600
     RDKit          3D

  7  7  0  0  0  0  0  0  0  0999 V2000
    3.0224    0.3378    0.0000 Br  0  0  0  0  0  0  0  0  0  0  0  0
   -0.0236    1.3052   -0.0001 S   0  0  0  0  0  0  0  0  0  0  0  0
   -0.8582   -1.1413   -0.0002 N   0  0  0  0  0  0  0  0  0  0  0  0
   -2.5589    0.5012    0.0003 N   0  0  0  0  0  0  0  0  0  0  0  0
   -1.2564    0.1114   -0.0003 C   0  0  0  0  0  0  0  0  0  0  0  0
    1.1518    0.0565    0.0001 C   0  0  0  0  0  0  0  0  0  0  0  0
    0.5228   -1.1708    0.0001 C   0  0  0  0  0  0  0  0  0  0  0  0
  1  6  1  0
  2  5  1  0
  2  6  1  0
  3  5  2  0
  3  7  1  0
  4  5  1  0
  6  7  2  0
M  END
>  <PUBCHEM_COMPOUND_CID>  (1) 
43600

>  <PUBCHEM_CONFORMER_RMSD>  (1) 
0.4

>  <PUBCHEM_CONFORMER_DIVERSEORDER>  (1) 
1

>  <PUBCHEM_MMFF94_PARTIAL_CHARGES>  (1) 
10
1 -0.06
10 0.4
2 -0.08
3 -0.57
4 -0.88
5 0.46
6 0.1
7 0.08
8 0.15
9 0.4

>  <PUBCHEM_EFFECTIVE_ROTOR_COUNT>  (1) 
0

>  <PUBCHEM_PHARMACOPHORE_FEATURES>  (1) 
4
1 1 hydrophobe
1 4 donor
3 3 4 5 cation
5 2 3 5 6 7 rings

>  <PUBCHEM_HEAVY_ATOM_COUNT>  (1) 
7

>  <PUBCHEM_ATOM_DEF_STEREO_COUNT>  (1) 
0

>  <PUBCHEM_ATOM_UDEF_STEREO_COUNT>  (1) 
0

>  <PUBCHEM_BOND_DEF_STEREO_COUNT>  (1) 
0

>  <PUBCHEM_BOND_UDEF_STEREO_COUNT>  (1) 
0

>  <PUBCHEM_ISOTOPIC_ATOM_COUNT>  (1) 
0

>  <PUBCHEM_COMPONENT_COUNT>  (1) 
1

>  <PUBCHEM_CACTVS_TAUTO_COUNT>  (1) 
2

>  <PUBCHEM_CONFORMER_ID>  (1) 
0000AA5000000001

>  <PUBCHEM_MMFF94_ENERGY>  (1) 
4.5991

>  <PUBCHEM_FEATURE_SELFOVERLAP>  (1) 
20.297

>  <PUBCHEM_SHAPE_FINGERPRINT>  (1) 
14325111 11 18410855464692238880
14390081 3 18272930527091441488
16714656 1 18410293618561269428
20096714 4 18410292535960381523
21040471 1 18410856551076241730
23235685 24 18411133628069933188
23552423 10 18260550073723783022
29004967 10 14996279210869325800
5460574 1 9223230745415937536

>  <PUBCHEM_SHAPE_MULTIPOLES>  (1) 
143.89
3.5
1.3
0.63
1.38
0.04
0
-0.6
0
-0.12
0
0.1
-0.03
0

>  <PUBCHEM_SHAPE_SELFOVERLAP>  (1) 
266.041

>  <PUBCHEM_SHAPE_VOLUME>  (1) 
93.3

>  <PUBCHEM_COORDINATE_TYPE>  (1) 
2
5
10

$$$$
