43606
     RDKit          3D

 10  9  0  0  0  0  0  0  0  0999 V2000
   -3.5579   -1.2330   -0.4068 F   0  0  0  0  0  0  0  0  0  0  0  0
   -4.4845    0.7064   -0.0708 F   0  0  0  0  0  0  0  0  0  0  0  0
    0.3789    0.4853   -0.0800 C   0  0  0  0  0  0  0  0  0  0  0  0
    1.6354   -0.3097    0.2868 C   0  0  0  0  0  0  0  0  0  0  0  0
   -0.9230   -0.2341    0.2795 C   0  0  0  0  0  0  0  0  0  0  0  0
    2.9356    0.3755   -0.1395 C   0  0  0  0  0  0  0  0  0  0  0  0
   -2.1418    0.6169   -0.0775 C   0  0  0  0  0  0  0  0  0  0  0  0
    4.1512   -0.4938    0.1856 C   0  0  0  0  0  0  0  0  0  0  0  0
   -3.4381   -0.0772    0.2922 C   0  0  0  0  0  0  0  0  0  0  0  0
    5.4442    0.1637   -0.2696 C   0  0  0  0  0  0  0  0  0  0  0  0
  1  9  1  0
  2  9  1  0
  3  4  1  0
  3  5  1  0
  4  6  1  0
  5  7  1  0
  6  8  1  0
  7  9  1  0
  8 10  1  0
M  END
>  <PUBCHEM_COMPOUND_CID>  (1) 
43606

>  <PUBCHEM_CONFORMER_RMSD>  (1) 
0.6

>  <PUBCHEM_CONFORMER_DIVERSEORDER>  (1) 
1
140
22
10
110
9
138
56
144
91
105
21
127
69
94
13
72
109
102
50
95
130
41
11
25
119
28
68
118
99
128
108
16
93
131
47
92
87
76
139
36
4
106
135
44
57
63
70
82
75
39
90
46
7
79
121
32
136
15
103
123
35
18
125
17
101
66
126
111
40
137
14
60
85
143
2
88
27
132
134
42
104
48
116
23
122
114
71
5
86
124
43
8
129
107
19
59
113
49
38
83
98
20
84
65
141
37
100
112
117
62
53
74
33
133
51
26
34
55
80
89
30
81
64
12
115
52
142
77
97
58
3
61
31
6
67
24
78
96
54
120
29
45
73

>  <PUBCHEM_MMFF94_PARTIAL_CHARGES>  (1) 
3
1 -0.34
2 -0.34
9 0.68

>  <PUBCHEM_EFFECTIVE_ROTOR_COUNT>  (1) 
6

>  <PUBCHEM_PHARMACOPHORE_FEATURES>  (1) 
3
1 10 hydrophobe
3 3 5 7 hydrophobe
3 4 6 8 hydrophobe

>  <PUBCHEM_HEAVY_ATOM_COUNT>  (1) 
10

>  <PUBCHEM_ATOM_DEF_STEREO_COUNT>  (1) 
0

>  <PUBCHEM_ATOM_UDEF_STEREO_COUNT>  (1) 
0

>  <PUBCHEM_BOND_DEF_STEREO_COUNT>  (1) 
0

>  <PUBCHEM_BOND_UDEF_STEREO_COUNT>  (1) 
0

>  <PUBCHEM_ISOTOPIC_ATOM_COUNT>  (1) 
0

>  <PUBCHEM_COMPONENT_COUNT>  (1) 
1

>  <PUBCHEM_CACTVS_TAUTO_COUNT>  (1) 
1

>  <PUBCHEM_CONFORMER_ID>  (1) 
0000AA5600000001

>  <PUBCHEM_MMFF94_ENERGY>  (1) 
-1.0964

>  <PUBCHEM_FEATURE_SELFOVERLAP>  (1) 
15.236

>  <PUBCHEM_SHAPE_FINGERPRINT>  (1) 
11062470 55 11025797596030467768
14123238 8 18411982468679898788
17834072 33 18339644542184745764
17834076 25 17095525088692907321
190213 19 17346601876136373920
20645477 70 18336829672496645574
20719005 15 18408604760364142056
20828058 44 18060419127050663966
22485316 2 18413105052608420138
23402539 116 18335697243400178092
23402655 69 18187922841914466092
42788 4 18333732416422061416

>  <PUBCHEM_SHAPE_MULTIPOLES>  (1) 
191.25
10.91
0.86
0.65
4.14
0.07
-0.01
0.12
0.78
-0.39
0.05
0.03
0.02
-0.22

>  <PUBCHEM_SHAPE_SELFOVERLAP>  (1) 
341.164

>  <PUBCHEM_SHAPE_VOLUME>  (1) 
124.6

>  <PUBCHEM_COORDINATE_TYPE>  (1) 
2
5
10

$$$$
