43614
     RDKit          3D

 17 19  0  0  0  0  0  0  0  0999 V2000
   -0.1486    2.3306   -0.0203 O   0  0  0  0  0  0  0  0  0  0  0  0
   -0.1167   -2.3110    0.0231 O   0  0  0  0  0  0  0  0  0  0  0  0
    0.3770    0.0134    0.0000 N   0  0  0  0  0  0  0  0  0  0  0  0
    2.4556    1.2153   -0.0319 N   0  0  0  0  0  0  0  0  0  0  0  0
   -4.2796    0.6738    0.3317 C   0  0  0  0  0  0  0  0  0  0  0  0
   -4.2704   -0.7111   -0.3315 C   0  0  0  0  0  0  0  0  0  0  0  0
   -3.0376    1.5027   -0.0357 C   0  0  0  0  0  0  0  0  0  0  0  0
   -3.0167   -1.5230    0.0344 C   0  0  0  0  0  0  0  0  0  0  0  0
   -1.8124    0.6636   -0.0255 C   0  0  0  0  0  0  0  0  0  0  0  0
   -1.8032   -0.6670    0.0245 C   0  0  0  0  0  0  0  0  0  0  0  0
   -0.4243    1.1422   -0.0295 C   0  0  0  0  0  0  0  0  0  0  0  0
   -0.4087   -1.1264    0.0300 C   0  0  0  0  0  0  0  0  0  0  0  0
    1.8094    0.0233   -0.0001 C   0  0  0  0  0  0  0  0  0  0  0  0
    2.4659   -1.2014    0.0318 C   0  0  0  0  0  0  0  0  0  0  0  0
    3.8563   -1.2027    0.0313 C   0  0  0  0  0  0  0  0  0  0  0  0
    3.8068    1.1743   -0.0315 C   0  0  0  0  0  0  0  0  0  0  0  0
    4.5471    0.0036   -0.0008 C   0  0  0  0  0  0  0  0  0  0  0  0
  1 11  2  0
  2 12  2  0
  3 11  1  0
  3 12  1  0
  3 13  1  0
  4 13  2  0
  4 16  1  0
  5  6  1  0
  5  7  1  0
  6  8  1  0
  7  9  1  0
  8 10  1  0
  9 10  2  0
  9 11  1  0
 10 12  1  0
 13 14  1  0
 14 15  2  0
 15 17  1  0
 16 17  2  0
M  END
>  <PUBCHEM_COMPOUND_CID>  (1) 
43614

>  <PUBCHEM_CONFORMER_RMSD>  (1) 
0.6

>  <PUBCHEM_CONFORMER_DIVERSEORDER>  (1) 
1
2

>  <PUBCHEM_MMFF94_PARTIAL_CHARGES>  (1) 
19
1 -0.57
10 -0.12
11 0.62
12 0.62
13 0.43
14 -0.15
15 -0.15
16 0.16
17 -0.15
2 -0.57
26 0.15
27 0.15
28 0.15
29 0.15
3 -0.24
4 -0.62
7 0.14
8 0.14
9 -0.12

>  <PUBCHEM_EFFECTIVE_ROTOR_COUNT>  (1) 
2

>  <PUBCHEM_PHARMACOPHORE_FEATURES>  (1) 
6
1 1 acceptor
1 2 acceptor
1 4 acceptor
5 3 9 10 11 12 rings
6 4 13 14 15 16 17 rings
6 5 6 7 8 9 10 rings

>  <PUBCHEM_HEAVY_ATOM_COUNT>  (1) 
17

>  <PUBCHEM_ATOM_DEF_STEREO_COUNT>  (1) 
0

>  <PUBCHEM_ATOM_UDEF_STEREO_COUNT>  (1) 
0

>  <PUBCHEM_BOND_DEF_STEREO_COUNT>  (1) 
0

>  <PUBCHEM_BOND_UDEF_STEREO_COUNT>  (1) 
0

>  <PUBCHEM_ISOTOPIC_ATOM_COUNT>  (1) 
0

>  <PUBCHEM_COMPONENT_COUNT>  (1) 
1

>  <PUBCHEM_CACTVS_TAUTO_COUNT>  (1) 
1

>  <PUBCHEM_CONFORMER_ID>  (1) 
0000AA5E00000001

>  <PUBCHEM_MMFF94_ENERGY>  (1) 
31.7559

>  <PUBCHEM_FEATURE_SELFOVERLAP>  (1) 
30.523

>  <PUBCHEM_SHAPE_FINGERPRINT>  (1) 
10062212 137 18411973659464974615
10608611 8 18411697707895256448
10616163 171 18412546547693488447
10967382 1 18410575054725064298
11132069 177 18410570678142794825
11471102 20 18410008840796795790
11806522 49 18338794632528694199
12032990 46 18410296921248727707
12236239 1 17821446855123313770
13140716 1 18410576149836074243
13214271 11 18342736321320829151
13288520 33 18340771455566752638
13675066 3 18113905957021478513
13862211 1 18410849984477921751
14325111 11 18410855455843769988
15196674 1 18410856559645064326
15209294 21 17845385366628280129
15536298 74 18413671309791972518
16945 1 18122342372233813455
17804303 29 18342178890453240921
18186145 218 18261107452687818726
200 152 17988922275337077911
20510252 161 18271807891080292664
20645477 70 18341613681305220406
21029758 11 18342171198293557249
21267235 1 18410302414417155110
2334 1 18410574019521745507
23402539 116 18343293773494533046
23402655 69 18342175566132560796
23463225 33 18409167692626069270
23557571 272 18272942613192534212
23559900 14 18342455903417905862
2748010 2 18410573989488623095
335352 9 18122343484445701247
4214541 1 18411136909424973313
43471831 8 18262233309550640586
474 4 17241897673647885884
4990 188 18059863839688073214
5104073 3 18411418410482556178
537710 114 18410016558684598428
69090 78 18413103974366024022
7364860 26 18196934589845989768
77779 3 18411420609125944170
8809292 202 18260552259772648059
9709674 26 18411987961722167478

>  <PUBCHEM_SHAPE_MULTIPOLES>  (1) 
328.15
8.49
1.98
0.61
1.81
0.03
0
-0.04
0
-0.25
0
-0.07
-0.01
-0.12

>  <PUBCHEM_SHAPE_SELFOVERLAP>  (1) 
722.721

>  <PUBCHEM_SHAPE_VOLUME>  (1) 
173.3

>  <PUBCHEM_COORDINATE_TYPE>  (1) 
2
5
10

$$$$
