43610
     RDKit          3D

 26 29  0  0  1  0  0  0  0  0999 V2000
   -2.6945   -1.7944    0.8611 O   0  0  0  0  0  0  0  0  0  0  0  0
   -3.6063    1.9704   -1.7122 O   0  0  0  0  0  0  0  0  0  0  0  0
    1.9484   -0.3435    0.7433 O   0  0  0  0  0  0  0  0  0  0  0  0
   -2.7307    0.2548   -0.3273 N   0  0  0  0  0  0  0  0  0  0  0  0
    5.4782   -0.4660   -0.3281 N   0  0  0  0  0  0  0  0  0  0  0  0
   -4.4316   -1.2815   -0.7450 C   0  0  0  0  0  0  0  0  0  0  0  0
   -4.9694    0.1243   -0.9921 C   0  0  0  0  0  0  0  0  0  0  0  0
   -5.4156   -2.2619   -0.1131 C   0  0  0  0  0  0  0  0  0  0  0  0
   -5.8345    0.6958    0.1426 C   0  0  0  0  0  0  0  0  0  0  0  0
   -3.1752   -1.0094    0.0568 C   0  0  0  0  0  0  0  0  0  0  0  0
   -3.6903    0.9257   -1.0815 C   0  0  0  0  0  0  0  0  0  0  0  0
   -6.4074   -1.6409    0.8176 C   0  0  0  0  0  0  0  0  0  0  0  0
   -6.5926   -0.3216    0.9322 C   0  0  0  0  0  0  0  0  0  0  0  0
    6.1070    0.1573    0.8449 C   0  0  0  0  0  0  0  0  0  0  0  0
    6.3105   -1.5532   -0.8621 C   0  0  0  0  0  0  0  0  0  0  0  0
    7.4838    0.7248    0.4964 C   0  0  0  0  0  0  0  0  0  0  0  0
    7.6940   -1.0415   -1.2665 C   0  0  0  0  0  0  0  0  0  0  0  0
    8.3895   -0.3452   -0.1024 C   0  0  0  0  0  0  0  0  0  0  0  0
   -1.4546    0.7992    0.0215 C   0  0  0  0  0  0  0  0  0  0  0  0
    4.1440   -0.9615    0.0096 C   0  0  0  0  0  0  0  0  0  0  0  0
    3.2399    0.1821    0.4409 C   0  0  0  0  0  0  0  0  0  0  0  0
   -0.3603   -0.0472    0.2141 C   0  0  0  0  0  0  0  0  0  0  0  0
   -1.2983    2.1790    0.1727 C   0  0  0  0  0  0  0  0  0  0  0  0
    0.8838    0.4834    0.5559 C   0  0  0  0  0  0  0  0  0  0  0  0
   -0.0545    2.7095    0.5146 C   0  0  0  0  0  0  0  0  0  0  0  0
    1.0365    1.8618    0.7060 C   0  0  0  0  0  0  0  0  0  0  0  0
  1 10  2  0
  2 11  2  0
  3 21  1  0
  3 24  1  0
  4 10  1  0
  4 11  1  0
  4 19  1  0
  5 14  1  0
  5 15  1  0
  5 20  1  0
  6  7  1  0
  6  8  1  0
  6 10  1  0
  7  9  1  0
  7 11  1  0
  8 12  1  0
  9 13  1  0
 12 13  2  0
 14 16  1  0
 15 17  1  0
 16 18  1  0
 17 18  1  0
 19 22  2  0
 19 23  1  0
 20 21  1  0
 22 24  1  0
 23 25  2  0
 24 26  2  0
 25 26  1  0
M  END
>  <PUBCHEM_COMPOUND_CID>  (1) 
43610

>  <PUBCHEM_CONFORMER_RMSD>  (1) 
0.8

>  <PUBCHEM_CONFORMER_DIVERSEORDER>  (1) 
1
194
209
85
206
327
298
287
2
205
311
271
115
221
48
31
90
289
62
249
251
17
50
168
286
254
138
23
312
323
95
42
142
61
227
259
124
212
167
26
65
247
318
34
39
333
265
33
257
91
330
341
284
210
356
235
16
166
277
112
40
176
30
222
133
7
306
125
78
164
165
169
75
73
37
213
175
103
220
198
160
283
363
308
273
137
250
314
35
123
174
28
136
193
256
59
255
348
267
126
129
299
132
57
64
184
278
243
197
41
79
214
258
274
102
135
307
173
82
357
93
187
74
275
44
207
189
107
285
224
146
71
144
66
328
354
280
139
113
104
226
18
295
253
47
87
154
25
297
98
4
316
114
27
211
67
70
234
55
270
134
38
11
149
12
51
191
100
246
96
319
19
229
22
322
310
228
171
188
203
110
186
263
119
8
336
359
157
241
183
122
156
13
14
182
128
159
230
69
216
72
355
321
204
15
130
117
190
158
219
360
266
351
331
86
232
147
291
185
269
279
106
10
231
83
329
340
282
153
313
111
80
245
99
77
339
195
281
352
217
49
94
350
108
346
20
143
24
309
334
52
60
242
301
21
343
362
68
29
45
97
53
151
353
225
101
127
161
81
358
261
305
276
344
88
179
43
324
54
121
264
338
202
141
192
293
335
294
218
302
326
84
145
140
303
180
5
320
215
58
201
152
148
337
208
345
272
244
268
349
262
9
332
240
32
365
150
89
248
236
162
296
105
200
56
252
196
342
178
170
172
347
181
304
290
3
315
6
163
46
109
317
223
63
116
233
300
92
36
155
118
131
237
260
292
239
199
238
361
120
76
364
325
177
288

>  <PUBCHEM_MMFF94_PARTIAL_CHARGES>  (1) 
29
1 -0.57
10 0.57
11 0.57
12 -0.29
13 -0.29
14 0.27
15 0.27
19 0.12
2 -0.57
20 0.27
21 0.28
22 -0.15
23 -0.15
24 0.08
25 -0.15
26 -0.15
3 -0.36
33 0.15
34 0.15
4 -0.24
49 0.15
5 -0.81
50 0.15
51 0.15
52 0.15
6 0.06
7 0.06
8 0.14
9 0.14

>  <PUBCHEM_EFFECTIVE_ROTOR_COUNT>  (1) 
6.8

>  <PUBCHEM_PHARMACOPHORE_FEATURES>  (1) 
8
1 1 acceptor
1 2 acceptor
1 3 acceptor
1 5 cation
5 4 6 7 10 11 rings
6 19 22 23 24 25 26 rings
6 5 14 15 16 17 18 rings
6 6 7 8 9 12 13 rings

>  <PUBCHEM_HEAVY_ATOM_COUNT>  (1) 
26

>  <PUBCHEM_ATOM_DEF_STEREO_COUNT>  (1) 
0

>  <PUBCHEM_ATOM_UDEF_STEREO_COUNT>  (1) 
2

>  <PUBCHEM_BOND_DEF_STEREO_COUNT>  (1) 
0

>  <PUBCHEM_BOND_UDEF_STEREO_COUNT>  (1) 
0

>  <PUBCHEM_ISOTOPIC_ATOM_COUNT>  (1) 
0

>  <PUBCHEM_COMPONENT_COUNT>  (1) 
1

>  <PUBCHEM_CACTVS_TAUTO_COUNT>  (1) 
3

>  <PUBCHEM_CONFORMER_ID>  (1) 
0000AA5A00000001

>  <PUBCHEM_MMFF94_ENERGY>  (1) 
62.1319

>  <PUBCHEM_FEATURE_SELFOVERLAP>  (1) 
40.783

>  <PUBCHEM_SHAPE_FINGERPRINT>  (1) 
10076449 9 18261119586255182283
10299344 5 15626222421141221774
11315181 36 18131071541107335529
11524674 6 16845572032609717751
12166972 35 17894915144171151188
12516196 113 18343581854526596736
12596602 18 13758057624318539886
12760667 363 18131070428637127945
13288520 33 18412262835476049173
13673619 4 18334012826489774629
13685833 64 18202002135916683874
13690498 29 18259979384070450781
13885169 127 18131355180536670793
14251764 18 10592044652962015688
14420673 8 18413111684549900955
14840074 17 17346593058579286334
15142383 8 9583518716671213590
15183329 4 16443344278384647478
15419008 47 18413100663453284432
15461852 350 11025806391870380473
15716309 27 16487255461357052142
16087824 20 18267304228226742673
17780758 139 17847063290223377643
18335252 98 18413672418500417186
18681886 176 18261106409506709368
19427546 20 18261952929922654141
20281389 69 10737290138970223902
20554085 129 12613030656555265572
20567600 254 8646774378226709185
21150785 3 16588026818554825930
21267235 1 18409732885011361641
21403212 168 9511465498709263528
21521721 280 17346593110952362730
21623969 137 17489873726536851134
2297311 6 18410293601249576901
23035841 295 18409448085323853402
23198884 109 16081088164552449553
23559900 14 18411129273369007136
2838139 119 14851605462301881150
3004659 81 18259702320167564376
335352 9 18410004426351364941
3383291 50 18336828692611431291
34797466 226 18412266151707870460
4107672 100 18113898204853864821
4325135 7 18343865520485293436
437815 12 18343864437604895849
504843 32 13840563873366322544
636775 8 18261120694093701762
999808 66 18272654553793867703

>  <PUBCHEM_SHAPE_MULTIPOLES>  (1) 
507.5
23.21
2.18
1.09
35.41
0.62
-0.23
-10.57
-1.41
-1.73
-0.01
-0.42
0.06
1.87

>  <PUBCHEM_SHAPE_SELFOVERLAP>  (1) 
1085.043

>  <PUBCHEM_SHAPE_VOLUME>  (1) 
278.8

>  <PUBCHEM_COORDINATE_TYPE>  (1) 
2
5
10

$$$$
