4361
     RDKit          3D

 24 24  0  0  0  0  0  0  0  0999 V2000
    7.1258    0.6912   -0.4580 O   0  0  0  0  0  0  0  0  0  0  0  0
    6.6162   -1.4854    0.1740 N   0  0  0  0  0  0  0  0  0  0  0  0
   -5.4206   -1.2544   -0.2812 C   0  0  0  0  0  0  0  0  0  0  0  0
   -6.7702   -0.7246   -0.8388 C   0  0  0  0  0  0  0  0  0  0  0  0
   -7.3301    0.4128   -0.0036 C   0  0  0  0  0  0  0  0  0  0  0  0
   -4.4743   -0.0963    0.1139 C   0  0  0  0  0  0  0  0  0  0  0  0
   -6.3533    1.5788    0.0106 C   0  0  0  0  0  0  0  0  0  0  0  0
   -4.9040    1.1866    0.2168 C   0  0  0  0  0  0  0  0  0  0  0  0
   -4.8184   -2.1440   -1.3963 C   0  0  0  0  0  0  0  0  0  0  0  0
   -5.7003   -2.1389    0.9555 C   0  0  0  0  0  0  0  0  0  0  0  0
   -3.0990   -0.4761    0.3920 C   0  0  0  0  0  0  0  0  0  0  0  0
   -4.0411    2.3837    0.5430 C   0  0  0  0  0  0  0  0  0  0  0  0
   -2.0425    0.2651    0.0206 C   0  0  0  0  0  0  0  0  0  0  0  0
   -0.6348   -0.0514    0.2635 C   0  0  0  0  0  0  0  0  0  0  0  0
   -0.3269   -1.3347    1.0004 C   0  0  0  0  0  0  0  0  0  0  0  0
    0.3958    0.7278   -0.1306 C   0  0  0  0  0  0  0  0  0  0  0  0
    1.8163    0.5068    0.0588 C   0  0  0  0  0  0  0  0  0  0  0  0
    2.7493    1.3656   -0.3846 C   0  0  0  0  0  0  0  0  0  0  0  0
    4.1818    1.1638   -0.2385 C   0  0  0  0  0  0  0  0  0  0  0  0
    4.8384   -0.0027   -0.3831 C   0  0  0  0  0  0  0  0  0  0  0  0
    4.9307    2.4215    0.1174 C   0  0  0  0  0  0  0  0  0  0  0  0
    6.3114   -0.1961   -0.2301 C   0  0  0  0  0  0  0  0  0  0  0  0
    7.9708   -1.9470    0.3798 C   0  0  0  0  0  0  0  0  0  0  0  0
    8.9789   -0.8521    0.0987 C   0  0  0  0  0  0  0  0  0  0  0  0
  1 22  2  0
  2 22  1  0
  2 23  1  0
  3  4  1  0
  3  6  1  0
  3  9  1  0
  3 10  1  0
  4  5  1  0
  5  7  1  0
  6  8  2  0
  6 11  1  0
  7  8  1  0
  8 12  1  0
 11 13  2  0
 13 14  1  0
 14 15  1  0
 14 16  2  0
 16 17  1  0
 17 18  2  0
 18 19  1  0
 19 20  2  0
 19 21  1  0
 20 22  1  0
 23 24  1  0
M  END
>  <PUBCHEM_COMPOUND_CID>  (1) 
4361

>  <PUBCHEM_CONFORMER_RMSD>  (1) 
0.8

>  <PUBCHEM_CONFORMER_DIVERSEORDER>  (1) 
2
7
3
20
35
15
5
16
4
29
24
28
1
8
31
23
9
30
21
33
14
37
26
18
13
27
10
6
25
36
22
32
11
17
19
34
12

>  <PUBCHEM_MMFF94_PARTIAL_CHARGES>  (1) 
26
1 -0.57
11 -0.15
12 0.14
13 -0.15
14 -0.14
15 0.14
16 -0.15
17 -0.15
18 -0.15
19 -0.14
2 -0.73
20 -0.14
21 0.14
22 0.62
23 0.3
3 0.14
37 0.15
41 0.15
45 0.15
46 0.15
47 0.15
48 0.15
54 0.37
6 -0.14
7 0.14
8 -0.28

>  <PUBCHEM_EFFECTIVE_ROTOR_COUNT>  (1) 
7.8

>  <PUBCHEM_PHARMACOPHORE_FEATURES>  (1) 
6
1 1 acceptor
1 15 hydrophobe
1 2 donor
1 21 hydrophobe
3 3 9 10 hydrophobe
6 3 4 5 6 7 8 rings

>  <PUBCHEM_HEAVY_ATOM_COUNT>  (1) 
24

>  <PUBCHEM_ATOM_DEF_STEREO_COUNT>  (1) 
0

>  <PUBCHEM_ATOM_UDEF_STEREO_COUNT>  (1) 
0

>  <PUBCHEM_BOND_DEF_STEREO_COUNT>  (1) 
0

>  <PUBCHEM_BOND_UDEF_STEREO_COUNT>  (1) 
4

>  <PUBCHEM_ISOTOPIC_ATOM_COUNT>  (1) 
0

>  <PUBCHEM_COMPONENT_COUNT>  (1) 
1

>  <PUBCHEM_CACTVS_TAUTO_COUNT>  (1) 
2

>  <PUBCHEM_CONFORMER_ID>  (1) 
0000110900000002

>  <PUBCHEM_MMFF94_ENERGY>  (1) 
69.0788

>  <PUBCHEM_FEATURE_SELFOVERLAP>  (1) 
30.446

>  <PUBCHEM_SHAPE_FINGERPRINT>  (1) 
10 15 16774072995290163296
100830 39 18337953385526929125
10299344 5 18334859407419324422
10319688 140 16226595270879519354
106641 1 10807931587806505607
10670039 82 18334572408972947929
10730089 173 18413108364666612761
11135926 11 18336260168364868159
11315181 36 18260552255772995093
11524674 6 16272209717384997727
11719270 70 17775288253341354350
11724838 91 11887948853079121288
12091667 2 18411140260084727899
12166972 35 18409732897628095528
12236239 1 18410011070038030605
12592606 108 18410856530524824642
12645989 146 18408605876686900468
13885169 127 18410573959513886484
13914758 101 18410294687855340488
14251752 14 18273214200874954405
14251764 18 18409450293664998308
14251764 46 16702020872396901294
15183329 4 17894909620679171218
15419008 42 17700700549360751940
19841028 212 18263924338146532906
21315763 28 18412262856497360964
21792961 116 18334856131103264371
22224240 67 13110962024817628732
23081809 10 18335428988676111636
23402539 116 18409729599583121181
23522609 53 18118716303715290108
23536379 177 18341896307079627240
23559900 14 18269548515788543441
23569943 247 17823409397585680906
249057 25 18271821120049614920
28498 318 18260828168645484934
3004659 81 18260265257431386328
335352 9 18333735715468628390
4073 2 18114186396774142082
4325135 7 18413106152056939519
4339292 15 16629949033007488503
444769 64 18335424573307384651
531348 171 18342739633162945087
559249 180 18342175574791340007
59682541 35 12319731484143032574
59755656 520 17676486172881901555
6138700 20 18334858303101052456
6438161 24 17894341169627095906
99344 41 18343301440418033414
9965369 4 18409730647032973377

>  <PUBCHEM_SHAPE_MULTIPOLES>  (1) 
483.06
27.4
2.29
0.86
36.28
0.12
-0.05
-7.68
-1.31
-0.53
0.15
-0.76
-0.31
-1.05

>  <PUBCHEM_SHAPE_SELFOVERLAP>  (1) 
967.47

>  <PUBCHEM_SHAPE_VOLUME>  (1) 
285.1

>  <PUBCHEM_COORDINATE_TYPE>  (1) 
2
5
10

$$$$
