43615
     RDKit          3D

 24 26  0  0  0  0  0  0  0  0999 V2000
   -2.3384   -2.3437   -0.0733 O   0  0  0  0  0  0  0  0  0  0  0  0
   -2.0149    2.2735    0.2797 O   0  0  0  0  0  0  0  0  0  0  0  0
    4.4116   -1.1664    1.5657 O   0  0  0  0  0  0  0  0  0  0  0  0
   -1.6701   -0.0738    0.1459 N   0  0  0  0  0  0  0  0  0  0  0  0
    4.7878    0.1485   -0.3303 N   0  0  0  0  0  0  0  0  0  0  0  0
   -3.8858   -0.5684   -0.1058 C   0  0  0  0  0  0  0  0  0  0  0  0
   -3.7963    0.7529    0.0327 C   0  0  0  0  0  0  0  0  0  0  0  0
   -5.1562   -1.3186   -0.2745 C   0  0  0  0  0  0  0  0  0  0  0  0
   -4.9490    1.6885   -0.0027 C   0  0  0  0  0  0  0  0  0  0  0  0
   -6.3705   -0.4293    0.0410 C   0  0  0  0  0  0  0  0  0  0  0  0
   -6.2143    0.9889   -0.5265 C   0  0  0  0  0  0  0  0  0  0  0  0
   -2.5359   -1.1407   -0.0256 C   0  0  0  0  0  0  0  0  0  0  0  0
   -2.3811    1.1136    0.1849 C   0  0  0  0  0  0  0  0  0  0  0  0
   -0.2468   -0.1827    0.2651 C   0  0  0  0  0  0  0  0  0  0  0  0
    0.4333   -1.2231   -0.3730 C   0  0  0  0  0  0  0  0  0  0  0  0
    0.4683    0.7514    1.0190 C   0  0  0  0  0  0  0  0  0  0  0  0
    2.5299   -0.3947    0.4955 C   0  0  0  0  0  0  0  0  0  0  0  0
    1.8193   -1.3289   -0.2579 C   0  0  0  0  0  0  0  0  0  0  0  0
    1.8544    0.6455    1.1340 C   0  0  0  0  0  0  0  0  0  0  0  0
    3.9752   -0.5041    0.6148 C   0  0  0  0  0  0  0  0  0  0  0  0
    6.2417    0.0989   -0.2684 C   0  0  0  0  0  0  0  0  0  0  0  0
    4.2274    0.9198   -1.4376 C   0  0  0  0  0  0  0  0  0  0  0  0
    6.8011    1.2377    0.5591 C   0  0  0  0  0  0  0  0  0  0  0  0
    4.0094    0.0551   -2.6620 C   0  0  0  0  0  0  0  0  0  0  0  0
  1 12  2  0
  2 13  2  0
  3 20  2  0
  4 12  1  0
  4 13  1  0
  4 14  1  0
  5 20  1  0
  5 21  1  0
  5 22  1  0
  6  7  2  0
  6  8  1  0
  6 12  1  0
  7  9  1  0
  7 13  1  0
  8 10  1  0
  9 11  1  0
 10 11  1  0
 14 15  2  0
 14 16  1  0
 15 18  1  0
 16 19  2  0
 17 18  2  0
 17 19  1  0
 17 20  1  0
 21 23  1  0
 22 24  1  0
M  END
>  <PUBCHEM_COMPOUND_CID>  (1) 
43615

>  <PUBCHEM_CONFORMER_RMSD>  (1) 
0.8

>  <PUBCHEM_CONFORMER_DIVERSEORDER>  (1) 
1
4
3
2

>  <PUBCHEM_MMFF94_PARTIAL_CHARGES>  (1) 
24
1 -0.57
12 0.62
13 0.62
14 0.12
15 -0.15
16 -0.15
17 0.09
18 -0.15
19 -0.15
2 -0.57
20 0.54
21 0.3
22 0.3
3 -0.57
33 0.15
34 0.15
35 0.15
36 0.15
4 -0.24
5 -0.66
6 -0.12
7 -0.12
8 0.14
9 0.14

>  <PUBCHEM_EFFECTIVE_ROTOR_COUNT>  (1) 
6

>  <PUBCHEM_PHARMACOPHORE_FEATURES>  (1) 
6
1 1 acceptor
1 2 acceptor
1 3 acceptor
5 4 6 7 12 13 rings
6 14 15 16 17 18 19 rings
6 6 7 8 9 10 11 rings

>  <PUBCHEM_HEAVY_ATOM_COUNT>  (1) 
24

>  <PUBCHEM_ATOM_DEF_STEREO_COUNT>  (1) 
0

>  <PUBCHEM_ATOM_UDEF_STEREO_COUNT>  (1) 
0

>  <PUBCHEM_BOND_DEF_STEREO_COUNT>  (1) 
0

>  <PUBCHEM_BOND_UDEF_STEREO_COUNT>  (1) 
0

>  <PUBCHEM_ISOTOPIC_ATOM_COUNT>  (1) 
0

>  <PUBCHEM_COMPONENT_COUNT>  (1) 
1

>  <PUBCHEM_CACTVS_TAUTO_COUNT>  (1) 
1

>  <PUBCHEM_CONFORMER_ID>  (1) 
0000AA5F00000001

>  <PUBCHEM_MMFF94_ENERGY>  (1) 
52.8256

>  <PUBCHEM_FEATURE_SELFOVERLAP>  (1) 
30.52

>  <PUBCHEM_SHAPE_FINGERPRINT>  (1) 
10411042 1 17906731754992306487
10554248 39 18190445079029555319
10670039 82 18266755605608227996
10906281 52 18340503192062275859
10968037 39 18412261748928295185
11089746 13 15285356236633465532
11963148 33 18342448275082365415
12011746 2 18202843249495582885
12107183 9 17468183453990556936
12236239 1 17967530159927225034
12390115 104 17915754085257959113
12403259 415 17988913487955492129
12516196 113 17346878966146862552
12596602 18 16877667864125542769
12616971 3 16950284039776520870
12730499 353 16415479363976497278
12788726 201 18342455885895185137
13533116 47 17168135690452262554
13668630 136 11887956562034156292
14386348 63 17203614791670731550
15048467 5 18260265252782821980
15183329 4 18343862204216659625
1813 80 14117531947308370856
18608769 82 18340772654242982043
18681886 176 18341326794711654944
200 152 14201396071820389299
20511986 3 18041547092291530510
20645477 70 16056607504454406910
21033650 10 18194708998286501220
21150785 3 16773793718598282021
21267235 1 18341895238545348171
2297311 6 18130793356197055089
23175994 123 16845572032973149161
23402539 116 18341319042706966743
23522609 53 18267611081479111033
23536379 177 17967530155632231866
23557571 272 17917435297801168080
23559900 14 18201709704394317385
23569914 152 15403877813498908765
239999 70 17560798845046294250
300161 21 18333726918821757178
3004659 81 18336265635679069698
335352 9 18412819202099141885
3472631 163 18340771546230765836
34797466 226 17917999399037868420
350125 39 18413103961671221321
3545911 37 18413387631143669723
4073 2 18040438810404470490
4325135 7 18186801378819584061
474 4 16805614710819983404
5104073 3 18412538795741178563
542803 24 17748826310942093027
59755656 215 17704073975451455190
59755656 520 16732982046267745795
67856867 119 18187648071471745756

>  <PUBCHEM_SHAPE_MULTIPOLES>  (1) 
466.34
16.51
1.7
1.26
2.32
0.01
-0.68
3.13
-1.85
-1.42
0.08
2.25
0.05
-0.19

>  <PUBCHEM_SHAPE_SELFOVERLAP>  (1) 
1000.132

>  <PUBCHEM_SHAPE_VOLUME>  (1) 
258.1

>  <PUBCHEM_COORDINATE_TYPE>  (1) 
2
5
10

$$$$
