43613
     RDKit          3D

 25 28  0  0  1  0  0  0  0  0999 V2000
   -2.0561    1.0579    1.0041 O   0  0  0  0  0  0  0  0  0  0  0  0
    4.0151    2.0562   -1.2159 O   0  0  0  0  0  0  0  0  0  0  0  0
    1.1930   -1.3156    0.2156 O   0  0  0  0  0  0  0  0  0  0  0  0
    2.3211    0.6215   -0.4600 N   0  0  0  0  0  0  0  0  0  0  0  0
   -4.9324   -0.8870   -0.2093 N   0  0  0  0  0  0  0  0  0  0  0  0
    1.2799    1.5851   -0.1963 C   0  0  0  0  0  0  0  0  0  0  0  0
    4.4321   -0.2984   -0.8074 C   0  0  0  0  0  0  0  0  0  0  0  0
    3.3714   -1.4022   -0.8778 C   0  0  0  0  0  0  0  0  0  0  0  0
    0.0730    1.3315   -1.1021 C   0  0  0  0  0  0  0  0  0  0  0  0
    0.8830    1.5635    1.2818 C   0  0  0  0  0  0  0  0  0  0  0  0
   -1.4625    2.3095    0.6652 C   0  0  0  0  0  0  0  0  0  0  0  0
   -1.0644    2.3110   -0.8112 C   0  0  0  0  0  0  0  0  0  0  0  0
   -0.2557    2.5418    1.5737 C   0  0  0  0  0  0  0  0  0  0  0  0
    3.5891    0.9564   -0.8938 C   0  0  0  0  0  0  0  0  0  0  0  0
    2.1527   -0.7378   -0.2718 C   0  0  0  0  0  0  0  0  0  0  0  0
    5.2365   -0.2518    0.5021 C   0  0  0  0  0  0  0  0  0  0  0  0
    3.7538   -2.7460   -0.2662 C   0  0  0  0  0  0  0  0  0  0  0  0
    5.3751   -1.5567    1.2156 C   0  0  0  0  0  0  0  0  0  0  0  0
    4.7154   -2.6678    0.8742 C   0  0  0  0  0  0  0  0  0  0  0  0
   -3.1881    0.7829    0.1916 C   0  0  0  0  0  0  0  0  0  0  0  0
   -3.7568   -0.5702    0.5879 C   0  0  0  0  0  0  0  0  0  0  0  0
   -5.9845    0.1205   -0.0775 C   0  0  0  0  0  0  0  0  0  0  0  0
   -5.5589   -2.1453    0.1951 C   0  0  0  0  0  0  0  0  0  0  0  0
   -7.2049   -0.5850   -0.6499 C   0  0  0  0  0  0  0  0  0  0  0  0
   -6.9268   -2.0739   -0.4675 C   0  0  0  0  0  0  0  0  0  0  0  0
  1 11  1  0
  1 20  1  0
  2 14  2  0
  3 15  2  0
  4  6  1  0
  4 14  1  0
  4 15  1  0
  5 21  1  0
  5 22  1  0
  5 23  1  0
  6  9  1  0
  6 10  1  0
  7  8  1  0
  7 14  1  0
  7 16  1  0
  8 15  1  0
  8 17  1  0
  9 12  1  0
 10 13  1  0
 11 12  1  0
 11 13  1  0
 16 18  1  0
 17 19  1  0
 18 19  2  0
 20 21  1  0
 22 24  1  0
 23 25  1  0
 24 25  1  0
M  END
>  <PUBCHEM_COMPOUND_CID>  (1) 
43613

>  <PUBCHEM_CONFORMER_RMSD>  (1) 
0.8

>  <PUBCHEM_CONFORMER_DIVERSEORDER>  (1) 
1
170
202
82
33
130
174
158
97
111
179
90
195
203
4
65
201
180
197
182
30
46
51
192
143
184
136
88
91
64
188
86
10
173
204
138
207
135
140
54
43
165
5
193
57
156
164
122
113
2
163
79
191
52
80
205
99
153
100
159
18
206
117
185
50
62
124
32
81
151
41
183
169
8
71
28
69
199
87
58
194
38
92
106
63
120
160
109
93
114
67
118
126
9
157
27
171
175
22
47
141
11
116
187
161
167
123
20
42
73
181
132
3
128
83
149
155
186
34
131
101
24
68
75
16
176
95
107
61
59
108
56
110
13
133
6
134
162
39
102
145
119
121
200
44
144
172
127
154
115
49
53
72
147
12
26
168
98
74
150
21
166
178
152
31
105
55
112
190
66
196
45
78
189
15
14
40
129
7
103
148
25
84
142
104
96
137
48
37
23
198
19
94
125
76
139
70
85
35
146
17
29
177
36
60
89
77

>  <PUBCHEM_MMFF94_PARTIAL_CHARGES>  (1) 
21
1 -0.56
11 0.28
14 0.57
15 0.57
16 0.14
17 0.14
18 -0.29
19 -0.29
2 -0.57
20 0.28
21 0.27
22 0.27
23 0.27
3 -0.57
4 -0.42
42 0.15
43 0.15
5 -0.81
6 0.3
7 0.06
8 0.06

>  <PUBCHEM_EFFECTIVE_ROTOR_COUNT>  (1) 
7.8

>  <PUBCHEM_PHARMACOPHORE_FEATURES>  (1) 
8
1 1 acceptor
1 2 acceptor
1 3 acceptor
1 5 cation
5 4 7 8 14 15 rings
5 5 22 23 24 25 rings
6 6 9 10 11 12 13 rings
6 7 8 16 17 18 19 rings

>  <PUBCHEM_HEAVY_ATOM_COUNT>  (1) 
25

>  <PUBCHEM_ATOM_DEF_STEREO_COUNT>  (1) 
0

>  <PUBCHEM_ATOM_UDEF_STEREO_COUNT>  (1) 
2

>  <PUBCHEM_BOND_DEF_STEREO_COUNT>  (1) 
0

>  <PUBCHEM_BOND_UDEF_STEREO_COUNT>  (1) 
0

>  <PUBCHEM_ISOTOPIC_ATOM_COUNT>  (1) 
0

>  <PUBCHEM_COMPONENT_COUNT>  (1) 
1

>  <PUBCHEM_CACTVS_TAUTO_COUNT>  (1) 
3

>  <PUBCHEM_CONFORMER_ID>  (1) 
0000AA5D00000001

>  <PUBCHEM_MMFF94_ENERGY>  (1) 
41.9658

>  <PUBCHEM_FEATURE_SELFOVERLAP>  (1) 
40.778

>  <PUBCHEM_SHAPE_FINGERPRINT>  (1) 
10 15 10015585030704418333
10447042 23 18410574006631653717
10622 236 17972306331049037859
10753850 27 18408039611482462899
11796584 16 18265892454261858741
12166972 35 18041000643776540807
12516196 113 18131632288138140129
12596602 18 16702307836220841787
13103583 49 17703526440995261905
13533116 47 18408324397530928912
13885169 86 10303516343155704387
13955234 65 17984140645909445569
14251740 57 18059018268281793886
14251751 18 18410007715679017941
14251752 14 18114176394502087205
14347332 77 18335981991664623309
1454969 45 18334864948296674540
14848178 5 18410853218171207027
15019793 15 17620475044977808087
15119646 104 18410015420876564953
15183329 4 17676199166071325909
15188451 53 18335130943847195106
15475509 35 18272926145971449459
15927050 60 17482263116959535164
16760501 71 10519980478881378307
17134984 74 18261679288812998467
17492 89 18126288545631916078
17857418 61 18412827980147118403
1979834 28 17131841958048805063
20028762 73 18340205194073077766
20567600 70 18342172306073366491
21033648 29 14907909228537124537
21033650 10 16588578704984301237
21344244 78 16128655284402562001
23522609 53 18124628420771884393
23559900 14 18263358261266281341
23622692 118 18262236612712339060
244849 19 18127100105646768417
2838139 119 8214139625577639387
3004659 81 18334297569424803854
314194 84 18341341075709925235
329604 57 18410858758821294191
3421961 26 18201717414077008313
38570 142 9689625432209439281
4098825 35 17894625933852624437
439807 62 18335704992508143147
46194498 28 17386849581508769493
463206 1 18341331205901842311
465052 167 17775012318650779245
5104073 3 18059292063345107736
5718773 13 18189047604256907914
59682541 35 17988632017969899234
59682541 52 15719379608381719115
6438161 24 18341604954706933239
7808743 9 8574426509520530069

>  <PUBCHEM_SHAPE_MULTIPOLES>  (1) 
486.92
16.49
3.16
1.21
23.71
0.18
0.15
13.97
-1.13
-0.84
0.42
-0.81
-0.44
-1.33

>  <PUBCHEM_SHAPE_SELFOVERLAP>  (1) 
1025.593

>  <PUBCHEM_SHAPE_VOLUME>  (1) 
273.3

>  <PUBCHEM_COORDINATE_TYPE>  (1) 
2
5
10

$$$$
