43622
     RDKit          3D

 26 29  0  0  0  0  0  0  0  0999 V2000
    6.5789   -2.5256   -0.2711 O   0  0  0  0  0  0  0  0  0  0  0  0
    2.2177    2.1535   -0.5754 O   0  0  0  0  0  0  0  0  0  0  0  0
   -4.3134    1.6958   -0.4816 O   0  0  0  0  0  0  0  0  0  0  0  0
   -0.9785   -1.3463    0.6003 O   0  0  0  0  0  0  0  0  0  0  0  0
   -2.3038    0.5526    0.0675 N   0  0  0  0  0  0  0  0  0  0  0  0
    4.7743   -0.3821    0.2298 N   0  0  0  0  0  0  0  0  0  0  0  0
   -4.2514   -0.6282   -0.1047 C   0  0  0  0  0  0  0  0  0  0  0  0
   -3.2884   -1.5059    0.1690 C   0  0  0  0  0  0  0  0  0  0  0  0
   -5.6790   -0.9763   -0.3196 C   0  0  0  0  0  0  0  0  0  0  0  0
   -3.4973   -2.9656    0.3449 C   0  0  0  0  0  0  0  0  0  0  0  0
   -5.8585   -2.4932   -0.4970 C   0  0  0  0  0  0  0  0  0  0  0  0
   -4.9924   -3.2985    0.4821 C   0  0  0  0  0  0  0  0  0  0  0  0
   -3.6549    0.7107   -0.1912 C   0  0  0  0  0  0  0  0  0  0  0  0
   -2.0176   -0.7820    0.3005 C   0  0  0  0  0  0  0  0  0  0  0  0
    4.5937   -1.2879   -0.9132 C   0  0  0  0  0  0  0  0  0  0  0  0
    6.1998   -0.2826    0.5729 C   0  0  0  0  0  0  0  0  0  0  0  0
    4.2171    0.9373   -0.0606 C   0  0  0  0  0  0  0  0  0  0  0  0
   -1.3427    1.6145    0.0910 C   0  0  0  0  0  0  0  0  0  0  0  0
    5.1931   -2.6537   -0.5910 C   0  0  0  0  0  0  0  0  0  0  0  0
    6.7621   -1.6721    0.8592 C   0  0  0  0  0  0  0  0  0  0  0  0
    2.7209    0.8442   -0.3141 C   0  0  0  0  0  0  0  0  0  0  0  0
   -0.0130    1.3657   -0.2589 C   0  0  0  0  0  0  0  0  0  0  0  0
    0.9234    2.3993   -0.2344 C   0  0  0  0  0  0  0  0  0  0  0  0
   -1.7297    2.9038    0.4655 C   0  0  0  0  0  0  0  0  0  0  0  0
    0.5331    3.6852    0.1400 C   0  0  0  0  0  0  0  0  0  0  0  0
   -0.7934    3.9373    0.4900 C   0  0  0  0  0  0  0  0  0  0  0  0
  1 19  1  0
  1 20  1  0
  2 21  1  0
  2 23  1  0
  3 13  2  0
  4 14  2  0
  5 13  1  0
  5 14  1  0
  5 18  1  0
  6 15  1  0
  6 16  1  0
  6 17  1  0
  7  8  2  0
  7  9  1  0
  7 13  1  0
  8 10  1  0
  8 14  1  0
  9 11  1  0
 10 12  1  0
 11 12  1  0
 15 19  1  0
 16 20  1  0
 17 21  1  0
 18 22  2  0
 18 24  1  0
 22 23  1  0
 23 25  2  0
 24 26  2  0
 25 26  1  0
M  END
>  <PUBCHEM_COMPOUND_CID>  (1) 
43622

>  <PUBCHEM_CONFORMER_RMSD>  (1) 
0.8

>  <PUBCHEM_CONFORMER_DIVERSEORDER>  (1) 
1
59
38
42
23
22
27
57
44
65
33
51
61
49
71
41
39
17
14
9
30
34
29
2
47
64
8
40
21
63
60
62
50
35
48
72
56
15
5
18
31
74
45
12
3
55
13
24
67
54
4
73
70
11
69
19
26
43
68
46
16
53
28
32
75
7
10
25
6
20
58
52
36
66
37

>  <PUBCHEM_MMFF94_PARTIAL_CHARGES>  (1) 
28
1 -0.56
10 0.14
13 0.62
14 0.62
15 0.27
16 0.27
17 0.27
18 0.12
19 0.28
2 -0.36
20 0.28
21 0.28
22 -0.15
23 0.08
24 -0.15
25 -0.15
26 -0.15
3 -0.57
4 -0.57
47 0.15
48 0.15
49 0.15
5 -0.24
50 0.15
6 -0.81
7 -0.12
8 -0.12
9 0.14

>  <PUBCHEM_EFFECTIVE_ROTOR_COUNT>  (1) 
7.2

>  <PUBCHEM_PHARMACOPHORE_FEATURES>  (1) 
9
1 1 acceptor
1 2 acceptor
1 3 acceptor
1 4 acceptor
1 6 cation
5 5 7 8 13 14 rings
6 1 6 15 16 19 20 rings
6 18 22 23 24 25 26 rings
6 7 8 9 10 11 12 rings

>  <PUBCHEM_HEAVY_ATOM_COUNT>  (1) 
26

>  <PUBCHEM_ATOM_DEF_STEREO_COUNT>  (1) 
0

>  <PUBCHEM_ATOM_UDEF_STEREO_COUNT>  (1) 
0

>  <PUBCHEM_BOND_DEF_STEREO_COUNT>  (1) 
0

>  <PUBCHEM_BOND_UDEF_STEREO_COUNT>  (1) 
0

>  <PUBCHEM_ISOTOPIC_ATOM_COUNT>  (1) 
0

>  <PUBCHEM_COMPONENT_COUNT>  (1) 
1

>  <PUBCHEM_CACTVS_TAUTO_COUNT>  (1) 
1

>  <PUBCHEM_CONFORMER_ID>  (1) 
0000AA6600000001

>  <PUBCHEM_MMFF94_ENERGY>  (1) 
59.7036

>  <PUBCHEM_FEATURE_SELFOVERLAP>  (1) 
45.746

>  <PUBCHEM_SHAPE_FINGERPRINT>  (1) 
10693767 8 17910941763429208303
10939801 23 18340764953714201598
11197282 1 18411141324994725806
11443803 9 16844449312060355265
12107183 9 18270698536326471369
12166972 35 17895196631652474814
12403259 226 18193836162258716429
12760667 363 18410855460354989149
13911852 28 18340486763416794727
13955234 65 17695069194727967417
14211702 104 18412549812190023038
14347332 77 18408886217923684764
14420673 8 18409451375669858627
14790565 3 17619352000991498297
14866123 147 18340775832471100705
15042514 8 18339927021730688017
15250474 111 18044656396113221266
15320467 1 18410856564389502870
15352361 1 18410857672442559644
15728490 83 18263093149102645507
15803439 3 16957009520133191021
17492 89 18338236097411236913
17627616 140 17823690867692826778
19319366 153 17690568902178000812
20843269 155 18334851676742436282
21130935 74 17834402590362027219
21223535 225 14851878124174460580
21279426 13 18262229028258835671
21585480 29 17557964398565027598
21682296 61 18338519741874238739
22122407 14 15697424526218605104
23559900 14 18265888250063908497
23569914 152 18125690527808789047
23569943 247 18338516460926134427
23572383 38 18341895152029012614
255183 313 17981625779233173665
3004659 81 18113335332415238372
32027 91 18267860756722767581
335352 9 18410009966811658525
3383291 50 18261110798436513043
3421961 26 18197498634768145336
444735 79 18340474665469699504
463206 1 18265336281703942738
4756088 132 17904757035586741274
50080093 196 17173198808249573954
5104073 3 18130514122998516977
559249 180 18409164394650400629
56633871 153 18340783563042468241
5718773 13 18339919419881083015
6138700 20 18408039589549002163
6201320 77 16952568820976558131
6431902 208 18412819179828045278
7970288 3 18411135865864270254
88748 71 18263932196975633209
9709674 26 17830735718512778665

>  <PUBCHEM_SHAPE_MULTIPOLES>  (1) 
501.63
16.34
4.82
0.78
17.36
2.08
0
-19.11
0.02
-1.4
0.38
0.33
-0.14
0.26

>  <PUBCHEM_SHAPE_SELFOVERLAP>  (1) 
1079.29

>  <PUBCHEM_SHAPE_VOLUME>  (1) 
275.8

>  <PUBCHEM_COORDINATE_TYPE>  (1) 
2
5
10

$$$$
