43625
     RDKit          3D

 16 16  0  0  0  0  0  0  0  0999 V2000
    0.5678    2.5605    0.3996 O   0  0  0  0  0  0  0  0  0  0  0  0
    5.7059   -1.4836   -0.2599 O   0  0  0  0  0  0  0  0  0  0  0  0
   -4.4846   -1.0345   -0.5527 O   0  0  0  0  0  0  0  0  0  0  0  0
   -3.0494   -2.5644    0.0945 O   0  0  0  0  0  0  0  0  0  0  0  0
    2.1727   -0.4725   -0.1049 N   0  0  0  0  0  0  0  0  0  0  0  0
   -3.3391   -1.3720   -0.1674 N   0  0  0  0  0  0  0  0  0  0  0  0
    1.2862   -0.1363    1.0097 C   0  0  0  0  0  0  0  0  0  0  0  0
   -0.0788    0.2570    0.5500 C   0  0  0  0  0  0  0  0  0  0  0  0
   -0.3780    1.5892    0.2640 C   0  0  0  0  0  0  0  0  0  0  0  0
    3.4931   -0.8400    0.3812 C   0  0  0  0  0  0  0  0  0  0  0  0
   -1.0597   -0.7244    0.4061 C   0  0  0  0  0  0  0  0  0  0  0  0
   -2.3396   -0.3736   -0.0236 C   0  0  0  0  0  0  0  0  0  0  0  0
   -1.6580    1.9397   -0.1657 C   0  0  0  0  0  0  0  0  0  0  0  0
   -2.6387    0.9584   -0.3095 C   0  0  0  0  0  0  0  0  0  0  0  0
    4.4261   -1.1470   -0.7793 C   0  0  0  0  0  0  0  0  0  0  0  0
    1.3741    2.8435   -0.7422 C   0  0  0  0  0  0  0  0  0  0  0  0
  1  9  1  0
  1 16  1  0
  2 15  1  0
  3  6  1  0
  4  6  2  0
  5  7  1  0
  5 10  1  0
  6 12  1  0
  7  8  1  0
  8  9  2  0
  8 11  1  0
  9 13  1  0
 10 15  1  0
 11 12  2  0
 12 14  1  0
 13 14  2  0
M  CHG  2   3  -1   6   1
M  END
>  <PUBCHEM_COMPOUND_CID>  (1) 
43625

>  <PUBCHEM_CONFORMER_RMSD>  (1) 
0.8

>  <PUBCHEM_CONFORMER_DIVERSEORDER>  (1) 
1
10
6
11
3
5
7
4
9
2
12
8

>  <PUBCHEM_MMFF94_PARTIAL_CHARGES>  (1) 
21
1 -0.36
10 0.27
11 -0.15
12 0.13
13 -0.15
14 -0.15
15 0.28
16 0.28
19 0.36
2 -0.68
22 0.15
23 0.15
24 0.15
3 -0.52
30 0.4
4 -0.52
5 -0.9
6 0.91
7 0.41
8 -0.14
9 0.08

>  <PUBCHEM_EFFECTIVE_ROTOR_COUNT>  (1) 
6

>  <PUBCHEM_PHARMACOPHORE_FEATURES>  (1) 
9
1 1 acceptor
1 2 acceptor
1 2 donor
1 3 acceptor
1 3 anion
1 4 acceptor
1 5 cation
1 5 donor
6 8 9 11 12 13 14 rings

>  <PUBCHEM_HEAVY_ATOM_COUNT>  (1) 
16

>  <PUBCHEM_ATOM_DEF_STEREO_COUNT>  (1) 
0

>  <PUBCHEM_ATOM_UDEF_STEREO_COUNT>  (1) 
0

>  <PUBCHEM_BOND_DEF_STEREO_COUNT>  (1) 
0

>  <PUBCHEM_BOND_UDEF_STEREO_COUNT>  (1) 
0

>  <PUBCHEM_ISOTOPIC_ATOM_COUNT>  (1) 
0

>  <PUBCHEM_COMPONENT_COUNT>  (1) 
1

>  <PUBCHEM_CACTVS_TAUTO_COUNT>  (1) 
1

>  <PUBCHEM_CONFORMER_ID>  (1) 
0000AA6900000001

>  <PUBCHEM_MMFF94_ENERGY>  (1) 
46.4727

>  <PUBCHEM_FEATURE_SELFOVERLAP>  (1) 
45.753

>  <PUBCHEM_SHAPE_FINGERPRINT>  (1) 
10465860 71 18335419058447589184
10756046 5 18261674860786158157
10989021 7 18410012173454345912
12032990 46 18342174475026381178
12553582 1 18335412465810343075
12841375 25 18411418422971759747
14790565 3 17690845557842929305
14911166 2 18336535015927407805
16945 1 18190442910197638289
20300324 65 18336834078942511608
20374829 77 18413102840589700858
20388580 30 18339081591804056564
20645477 70 18120641685976932015
20671657 53 18409733988433062244
20871998 22 18340763861758644281
20871999 31 18262512598499163165
21339142 51 18337950086848900068
21501502 16 18339368573277305449
21728266 224 18189884328474000674
221490 88 18190747637599736426
22213442 358 18411418414592945192
23382010 3 16950568834625645266
23402539 116 18336826386556124134
23532345 42 18339911680560531616
23557571 272 18200316511682256878
23559900 14 18197490737193232378
2748010 2 18190723414590802705
3071541 250 18337675329301390441
7364860 26 18197211662201562872

>  <PUBCHEM_SHAPE_MULTIPOLES>  (1) 
295.83
8.12
2.75
0.82
8.43
1.45
0.03
-7.01
-2.13
-0.67
-0.37
0.27
0.06
0.01

>  <PUBCHEM_SHAPE_SELFOVERLAP>  (1) 
601.381

>  <PUBCHEM_SHAPE_VOLUME>  (1) 
172.9

>  <PUBCHEM_COORDINATE_TYPE>  (1) 
2
5
10

$$$$
