43639
     RDKit          3D

 21 21  0  0  0  0  0  0  0  0999 V2000
    2.4894   -0.4932    0.7408 O   0  0  0  0  0  0  0  0  0  0  0  0
    4.7613   -0.4896    0.3317 O   0  0  0  0  0  0  0  0  0  0  0  0
    1.0331   -2.1804    0.0081 N   0  0  0  0  0  0  0  0  0  0  0  0
   -0.7797   -2.4357   -1.1336 N   0  0  0  0  0  0  0  0  0  0  0  0
   -1.6047    2.3848   -0.1412 C   0  0  0  0  0  0  0  0  0  0  0  0
   -0.3221    2.2074   -0.9578 C   0  0  0  0  0  0  0  0  0  0  0  0
   -2.8780    2.0827   -0.9393 C   0  0  0  0  0  0  0  0  0  0  0  0
    0.9528    2.4263   -0.1361 C   0  0  0  0  0  0  0  0  0  0  0  0
   -4.1936    2.1635   -0.1568 C   0  0  0  0  0  0  0  0  0  0  0  0
    2.2369    2.2266   -0.9456 C   0  0  0  0  0  0  0  0  0  0  0  0
   -4.2942    1.2484    1.0670 C   0  0  0  0  0  0  0  0  0  0  0  0
    3.5116    2.4398   -0.1191 C   0  0  0  0  0  0  0  0  0  0  0  0
   -4.2064   -0.2369    0.7176 C   0  0  0  0  0  0  0  0  0  0  0  0
    3.6591    1.5188    1.0880 C   0  0  0  0  0  0  0  0  0  0  0  0
   -4.3056   -1.1068    1.9611 C   0  0  0  0  0  0  0  0  0  0  0  0
    3.7296    0.0684    0.6823 C   0  0  0  0  0  0  0  0  0  0  0  0
    2.4119   -1.8693    0.3493 C   0  0  0  0  0  0  0  0  0  0  0  0
    0.5007   -2.0592   -1.2122 C   0  0  0  0  0  0  0  0  0  0  0  0
    0.0776   -2.6423    0.8810 C   0  0  0  0  0  0  0  0  0  0  0  0
   -1.0704   -2.8039    0.1580 C   0  0  0  0  0  0  0  0  0  0  0  0
   -1.7094   -2.4493   -2.2432 C   0  0  0  0  0  0  0  0  0  0  0  0
  1 16  1  0
  1 17  1  0
  2 16  2  0
  3 17  1  0
  3 18  1  0
  3 19  1  0
  4 18  2  0
  4 20  1  0
  4 21  1  0
  5  6  1  0
  5  7  1  0
  6  8  1  0
  7  9  1  0
  8 10  1  0
  9 11  1  0
 10 12  1  0
 11 13  1  0
 12 14  1  0
 13 15  1  0
 14 16  1  0
 19 20  2  0
M  CHG  1   4   1
M  END
>  <PUBCHEM_COMPOUND_CID>  (1) 
43639

>  <PUBCHEM_CONFORMER_RMSD>  (1) 
1.4

>  <PUBCHEM_CONFORMER_DIVERSEORDER>  (1) 
1
4
67
109
103
26
78
36
11
14
47
77
44
88
57
99
82
46
25
96
71
8
104
6
19
56
20
101
13
55
61
112
58
66
29
28
105
42
17
102
3
43
65
107
91
86
79
80
106
18
9
69
45
108
72
54
74
95
31
73
76
40
70
90
94
83
21
23
32
53
100
7
111
49
12
62
84
35
37
5
98
15
16
30
89
97
27
64
75
33
22
59
2
60
24
63
39
87
93
34
41
113
92
85
50
38
81
51
52
110
10
68
48

>  <PUBCHEM_MMFF94_PARTIAL_CHARGES>  (1) 
14
1 -0.43
14 0.06
16 0.66
17 0.79
18 0.65
19 0.2
2 -0.57
20 0.2
21 0.51
3 -0.76
4 -0.76
47 0.15
48 0.15
49 0.15

>  <PUBCHEM_EFFECTIVE_ROTOR_COUNT>  (1) 
13

>  <PUBCHEM_PHARMACOPHORE_FEATURES>  (1) 
4
1 15 hydrophobe
1 2 acceptor
3 3 4 18 cation
5 3 4 18 19 20 rings

>  <PUBCHEM_HEAVY_ATOM_COUNT>  (1) 
21

>  <PUBCHEM_ATOM_DEF_STEREO_COUNT>  (1) 
0

>  <PUBCHEM_ATOM_UDEF_STEREO_COUNT>  (1) 
0

>  <PUBCHEM_BOND_DEF_STEREO_COUNT>  (1) 
0

>  <PUBCHEM_BOND_UDEF_STEREO_COUNT>  (1) 
0

>  <PUBCHEM_ISOTOPIC_ATOM_COUNT>  (1) 
0

>  <PUBCHEM_COMPONENT_COUNT>  (1) 
1

>  <PUBCHEM_CACTVS_TAUTO_COUNT>  (1) 
1

>  <PUBCHEM_CONFORMER_ID>  (1) 
0000AA7700000001

>  <PUBCHEM_MMFF94_ENERGY>  (1) 
9.393

>  <PUBCHEM_FEATURE_SELFOVERLAP>  (1) 
20.297

>  <PUBCHEM_SHAPE_FINGERPRINT>  (1) 
104564 63 18122340452795168396
13402501 40 18262521369133760929
14464042 87 17984127425894119727
17138139 8 17626340788886399701
20261772 1 18411139181462614632
20621476 7 18336271240099116523
21197605 99 18410299151038472011
21315764 371 17128698424424753733
338550 245 18261678163832176140
6287921 2 17844823481652661519
6438718 38 17914898870572939862
7064713 232 18344143696067531401
9862522 239 18341333409119195339

>  <PUBCHEM_SHAPE_MULTIPOLES>  (1) 
410.47
8.65
4.53
1.54
1.57
0.81
-0.29
-3.96
4
0.5
-1.23
1.15
0.81
-0.01

>  <PUBCHEM_SHAPE_SELFOVERLAP>  (1) 
791.645

>  <PUBCHEM_SHAPE_VOLUME>  (1) 
252.3

>  <PUBCHEM_COORDINATE_TYPE>  (1) 
2
5
10

$$$$
