43636
     RDKit          3D

 20 23  0  0  0  0  0  0  0  0999 V2000
    2.0627    3.1650   -0.0004 F   0  0  0  0  0  0  0  0  0  0  0  0
    0.2794   -0.5837    0.0001 C   0  0  0  0  0  0  0  0  0  0  0  0
   -0.5354    0.5862    0.0002 C   0  0  0  0  0  0  0  0  0  0  0  0
    1.7205   -0.4781    0.0001 C   0  0  0  0  0  0  0  0  0  0  0  0
   -1.9766    0.4806    0.0002 C   0  0  0  0  0  0  0  0  0  0  0  0
   -0.3840   -1.8277    0.0000 C   0  0  0  0  0  0  0  0  0  0  0  0
   -2.5768   -0.8012   -0.0003 C   0  0  0  0  0  0  0  0  0  0  0  0
    2.3205    0.8037   -0.0002 C   0  0  0  0  0  0  0  0  0  0  0  0
   -1.7728   -1.9363   -0.0004 C   0  0  0  0  0  0  0  0  0  0  0  0
    0.1278    1.8301    0.0001 C   0  0  0  0  0  0  0  0  0  0  0  0
    1.5167    1.9387   -0.0002 C   0  0  0  0  0  0  0  0  0  0  0  0
    2.6104   -1.5849    0.0004 C   0  0  0  0  0  0  0  0  0  0  0  0
   -2.8666    1.5875    0.0007 C   0  0  0  0  0  0  0  0  0  0  0  0
    0.2428   -3.1876    0.0000 C   0  0  0  0  0  0  0  0  0  0  0  0
   -3.9753   -0.9468   -0.0005 C   0  0  0  0  0  0  0  0  0  0  0  0
    3.7191    0.9494   -0.0002 C   0  0  0  0  0  0  0  0  0  0  0  0
   -4.2563    1.4334    0.0004 C   0  0  0  0  0  0  0  0  0  0  0  0
    4.0002   -1.4308    0.0003 C   0  0  0  0  0  0  0  0  0  0  0  0
   -4.8114    0.1642   -0.0002 C   0  0  0  0  0  0  0  0  0  0  0  0
    4.5552   -0.1616   -0.0001 C   0  0  0  0  0  0  0  0  0  0  0  0
  1 11  1  0
  2  3  1  0
  2  4  1  0
  2  6  2  0
  3  5  2  0
  3 10  1  0
  4  8  2  0
  4 12  1  0
  5  7  1  0
  5 13  1  0
  6  9  1  0
  6 14  1  0
  7  9  2  0
  7 15  1  0
  8 11  1  0
  8 16  1  0
 10 11  2  0
 12 18  2  0
 13 17  2  0
 15 19  2  0
 16 20  2  0
 17 19  1  0
 18 20  1  0
M  END
>  <PUBCHEM_COMPOUND_CID>  (1) 
43636

>  <PUBCHEM_CONFORMER_RMSD>  (1) 
0.6

>  <PUBCHEM_CONFORMER_DIVERSEORDER>  (1) 
1

>  <PUBCHEM_MMFF94_PARTIAL_CHARGES>  (1) 
24
1 -0.19
10 -0.15
11 0.19
12 -0.15
13 -0.15
14 0.14
15 -0.15
16 -0.15
17 -0.15
18 -0.15
19 -0.15
20 -0.15
21 0.15
22 0.15
23 0.15
24 0.15
28 0.15
29 0.15
30 0.15
31 0.15
32 0.15
33 0.15
6 -0.14
9 -0.15

>  <PUBCHEM_EFFECTIVE_ROTOR_COUNT>  (1) 
0

>  <PUBCHEM_PHARMACOPHORE_FEATURES>  (1) 
4
6 2 3 4 8 10 11 rings
6 2 3 5 6 7 9 rings
6 4 8 12 16 18 20 rings
6 5 7 13 15 17 19 rings

>  <PUBCHEM_HEAVY_ATOM_COUNT>  (1) 
20

>  <PUBCHEM_ATOM_DEF_STEREO_COUNT>  (1) 
0

>  <PUBCHEM_ATOM_UDEF_STEREO_COUNT>  (1) 
0

>  <PUBCHEM_BOND_DEF_STEREO_COUNT>  (1) 
0

>  <PUBCHEM_BOND_UDEF_STEREO_COUNT>  (1) 
0

>  <PUBCHEM_ISOTOPIC_ATOM_COUNT>  (1) 
0

>  <PUBCHEM_COMPONENT_COUNT>  (1) 
1

>  <PUBCHEM_CACTVS_TAUTO_COUNT>  (1) 
1

>  <PUBCHEM_CONFORMER_ID>  (1) 
0000AA7400000001

>  <PUBCHEM_MMFF94_ENERGY>  (1) 
86.3544

>  <PUBCHEM_FEATURE_SELFOVERLAP>  (1) 
20.367

>  <PUBCHEM_SHAPE_FINGERPRINT>  (1) 
10062212 137 18342168964815598311
10411042 1 17402049998882134471
10608611 8 18338796839635482033
10616163 171 18122629624015552798
10906281 52 18339942462717644798
10967382 1 18338797797407725862
1100329 8 18411135874459181026
11132069 177 18410569561377373386
11471102 20 18410570678037182853
11578080 2 16842749723473258275
11680986 33 18263648544186792091
12011746 2 18410013212799268254
12403259 226 18409162221233775837
12403260 363 18411975892990101039
12592029 89 18336550425958914187
13132413 78 18340768139466839309
13140716 1 18410863191581088817
138480 1 17978510836636296618
13862211 1 18338510846400934538
14178342 30 17834660970491627480
14790565 3 18410302376010687684
14866123 147 17262729776497808034
15099037 51 18410856546776149255
15196674 1 18410573976566843271
15442244 35 18411136943842604064
15536298 74 18342455954350735072
1601671 61 18338235955592796736
16945 1 18122625230031744358
17492 89 18339923843397146135
17804303 29 18409453591508895581
1813 80 17240201023778690500
18186145 218 18410852148893090533
19591789 44 18266458707050392470
200 152 18060132142263798349
20028762 73 18201434839620903263
20905425 154 17764872394659756414
21267235 1 18410865338843443722
21279426 13 18194402182306081055
21421861 104 17682117668879373979
21501502 16 18195807594405384486
21524375 3 18334576845589456715
221490 88 18336272360980176627
2334 1 18410856611189946627
23366157 5 17969779872956854252
23402539 116 18271517628996048678
23463225 33 18408886217654620342
23558518 356 17828200222723397194
23559900 14 18271803566676050880
238 59 17684605954303991573
2748010 2 18409729581701462975
3004659 81 18188215300162107590
335352 9 18338516335278974782
34934 24 18410851097185304570
350125 39 18410016567691147401
3680242 22 18191305979142887850
4214541 1 18410856547156015685
495365 180 17417800786379982994
5104073 3 18410573998062734249
6138700 20 18267026051267495838
69090 78 18413105078251727359
7364860 26 18269273624658905200
7832392 63 18339919415622687934
9709674 26 18339647840224146607
9981440 41 17544471320296227144

>  <PUBCHEM_SHAPE_MULTIPOLES>  (1) 
404.32
8.27
2.86
0.61
1.83
0.22
0
-0.86
0
-0.73
0
0.01
0.02
0

>  <PUBCHEM_SHAPE_SELFOVERLAP>  (1) 
927.856

>  <PUBCHEM_SHAPE_VOLUME>  (1) 
211.3

>  <PUBCHEM_COORDINATE_TYPE>  (1) 
2
5
10

$$$$
