43647
     RDKit          3D

 23 24  0  0  0  0  0  0  0  0999 V2000
   -3.6022    0.3169    0.2438 O   0  0  0  0  0  0  0  0  0  0  0  0
    3.2508    1.3302   -0.3004 O   0  0  0  0  0  0  0  0  0  0  0  0
    2.5639   -0.9053   -0.0936 N   0  0  0  0  0  0  0  0  0  0  0  0
    5.8406    0.7085    0.0488 N   0  0  0  0  0  0  0  0  0  0  0  0
    1.1600   -0.8226   -0.2525 C   0  0  0  0  0  0  0  0  0  0  0  0
    0.3318   -1.7367    0.3786 C   0  0  0  0  0  0  0  0  0  0  0  0
   -1.5842   -0.6272   -0.5884 C   0  0  0  0  0  0  0  0  0  0  0  0
   -1.0494   -1.6386    0.2095 C   0  0  0  0  0  0  0  0  0  0  0  0
    7.2040    0.2298    0.2430 C   0  0  0  0  0  0  0  0  0  0  0  0
    4.8915   -0.3950    0.0904 C   0  0  0  0  0  0  0  0  0  0  0  0
    0.6431    0.1876   -1.0485 C   0  0  0  0  0  0  0  0  0  0  0  0
   -0.7380    0.2859   -1.2174 C   0  0  0  0  0  0  0  0  0  0  0  0
    8.1903    1.3923    0.1621 C   0  0  0  0  0  0  0  0  0  0  0  0
   -3.0608   -0.5219   -0.7693 C   0  0  0  0  0  0  0  0  0  0  0  0
    3.4859    0.1391   -0.1241 C   0  0  0  0  0  0  0  0  0  0  0  0
    0.8771   -2.8300    1.2390 C   0  0  0  0  0  0  0  0  0  0  0  0
    9.6237    0.9158    0.3403 C   0  0  0  0  0  0  0  0  0  0  0  0
   -4.9616    0.4879    0.2421 C   0  0  0  0  0  0  0  0  0  0  0  0
   -5.7343   -0.1480   -0.7231 C   0  0  0  0  0  0  0  0  0  0  0  0
   -5.5549    1.2966    1.2050 C   0  0  0  0  0  0  0  0  0  0  0  0
   -7.1182    0.0268   -0.7255 C   0  0  0  0  0  0  0  0  0  0  0  0
   -6.9388    1.4713    1.2028 C   0  0  0  0  0  0  0  0  0  0  0  0
   -7.7203    0.8365    0.2376 C   0  0  0  0  0  0  0  0  0  0  0  0
  1 14  1  0
  1 18  1  0
  2 15  2  0
  3  5  1  0
  3 15  1  0
  4  9  1  0
  4 10  1  0
  5  6  2  0
  5 11  1  0
  6  8  1  0
  6 16  1  0
  7  8  2  0
  7 12  1  0
  7 14  1  0
  9 13  1  0
 10 15  1  0
 11 12  2  0
 13 17  1  0
 18 19  2  0
 18 20  1  0
 19 21  1  0
 20 22  2  0
 21 23  2  0
 22 23  1  0
M  END
>  <PUBCHEM_COMPOUND_CID>  (1) 
43647

>  <PUBCHEM_CONFORMER_RMSD>  (1) 
1

>  <PUBCHEM_CONFORMER_DIVERSEORDER>  (1) 
1
28
63
22
46
43
64
42
65
58
54
30
15
10
34
51
27
49
38
57
40
59
20
36
12
50
47
48
26
7
56
32
33
68
24
44
31
16
25
66
21
35
41
17
62
60
29
23
6
55
67
52
37
4
53
13
8
19
45
39
2
61
9
3
11
5
18
14

>  <PUBCHEM_MMFF94_PARTIAL_CHARGES>  (1) 
31
1 -0.36
10 0.33
11 -0.15
12 -0.15
14 0.42
15 0.57
16 0.14
18 0.08
19 -0.15
2 -0.57
20 -0.15
21 -0.15
22 -0.15
23 -0.15
24 0.15
29 0.15
3 -0.55
30 0.15
33 0.37
34 0.36
4 -0.9
43 0.15
44 0.15
45 0.15
46 0.15
47 0.15
5 0.12
6 -0.14
7 -0.14
8 -0.15
9 0.27

>  <PUBCHEM_EFFECTIVE_ROTOR_COUNT>  (1) 
9

>  <PUBCHEM_PHARMACOPHORE_FEATURES>  (1) 
8
1 1 acceptor
1 17 hydrophobe
1 2 acceptor
1 3 donor
1 4 cation
1 4 donor
6 18 19 20 21 22 23 rings
6 5 6 7 8 11 12 rings

>  <PUBCHEM_HEAVY_ATOM_COUNT>  (1) 
23

>  <PUBCHEM_ATOM_DEF_STEREO_COUNT>  (1) 
0

>  <PUBCHEM_ATOM_UDEF_STEREO_COUNT>  (1) 
0

>  <PUBCHEM_BOND_DEF_STEREO_COUNT>  (1) 
0

>  <PUBCHEM_BOND_UDEF_STEREO_COUNT>  (1) 
0

>  <PUBCHEM_ISOTOPIC_ATOM_COUNT>  (1) 
0

>  <PUBCHEM_COMPONENT_COUNT>  (1) 
1

>  <PUBCHEM_CACTVS_TAUTO_COUNT>  (1) 
2

>  <PUBCHEM_CONFORMER_ID>  (1) 
0000AA7F00000001

>  <PUBCHEM_MMFF94_ENERGY>  (1) 
62.3648

>  <PUBCHEM_FEATURE_SELFOVERLAP>  (1) 
40.594

>  <PUBCHEM_SHAPE_FINGERPRINT>  (1) 
10 15 17530963583709134802
10076449 9 10663821880119676818
10165383 225 18335136496986538530
106641 1 17603588542779249337
10670039 82 15769781221852314147
11135609 99 12252200579133897217
11315181 36 18343581846638132567
12236239 1 18343300328580179111
13540713 5 17098355373589332958
13631057 29 18339076116792301663
13726171 33 17558844888462340689
14123256 10 11095887073050528044
14251764 18 18342736321347235172
14251764 46 18410572894229764477
14344974 52 16773505668132142641
14849402 71 18411419543985403488
15048467 5 18202563968798780543
15183329 4 15698004015468336795
15461852 350 16988840626627703485
155225 1 18202566159986943497
15690457 1 11602539836391014072
15706992 2 18272382978611259904
18006028 8 10231756695446612570
1818759 1 7997971297561693568
18603816 31 12685100323482512489
18643901 69 8574438642671104056
18681886 176 17131823288289731217
20735858 18 17458064858770208643
21150785 3 15339121251646650052
21267235 1 10159698005785757967
21403212 168 18260828193787580198
21781055 127 18262537901006183076
221357 26 12247674942794273883
22224240 67 18040715870048934979
23035841 295 11025799795190996837
23576562 1 14476374072792970481
246663 6 11025795388686458848
24771293 8 18408324380076851117
249057 3 15051726521675577424
2838139 119 17846778533285569433
3009799 131 16272209704394573938
3178227 256 17385445423407961996
335352 9 18335137631301036236
3633792 109 16199883782543893102
4073 2 18343024401694400135
465052 167 15502382213789739727
5104073 3 17750793449361928664
5385378 56 18260828164509403626
54039377 194 9367338246249777345
5758199 1 18408886230513395442
5937810 71 16128386934882948329
59682541 35 18040439905937154513
59755656 520 18409724079843725422
6081469 158 14692575412587163448

>  <PUBCHEM_SHAPE_MULTIPOLES>  (1) 
451.63
26.03
1.75
1.04
27.48
0.96
-0.05
-17.28
-4.54
0.44
-0.72
-1.13
0.02
-1.09

>  <PUBCHEM_SHAPE_SELFOVERLAP>  (1) 
936.602

>  <PUBCHEM_SHAPE_VOLUME>  (1) 
258

>  <PUBCHEM_COORDINATE_TYPE>  (1) 
2
5
10

$$$$
