43661
     RDKit          3D

 21 24  0  0  0  0  0  0  0  0999 V2000
   -1.3951    0.0454    0.0090 N   0  0  0  0  0  0  0  0  0  0  0  0
   -4.0863    0.3345   -0.8222 N   0  0  0  0  0  0  0  0  0  0  0  0
   -3.3962    0.5181    0.4515 C   0  0  0  0  0  0  0  0  0  0  0  0
   -2.0991    1.3220    0.2831 C   0  0  0  0  0  0  0  0  0  0  0  0
   -2.4605   -0.6580    0.7647 C   0  0  0  0  0  0  0  0  0  0  0  0
   -0.1178   -0.0123    0.7303 C   0  0  0  0  0  0  0  0  0  0  0  0
    0.6256   -1.3128    0.4664 C   0  0  0  0  0  0  0  0  0  0  0  0
    0.7366    1.2161    0.4572 C   0  0  0  0  0  0  0  0  0  0  0  0
    1.1769   -1.6316   -0.7917 C   0  0  0  0  0  0  0  0  0  0  0  0
    1.3129    1.4765   -0.8030 C   0  0  0  0  0  0  0  0  0  0  0  0
    0.7458   -2.2423    1.5173 C   0  0  0  0  0  0  0  0  0  0  0  0
    0.9384    2.1389    1.5016 C   0  0  0  0  0  0  0  0  0  0  0  0
   -5.3067   -0.4379   -0.6435 C   0  0  0  0  0  0  0  0  0  0  0  0
    1.0883   -0.7461   -1.9626 C   0  0  0  0  0  0  0  0  0  0  0  0
    1.1470    0.5937   -1.9676 C   0  0  0  0  0  0  0  0  0  0  0  0
    1.8076   -2.8752   -0.9704 C   0  0  0  0  0  0  0  0  0  0  0  0
    2.0500    2.6590   -0.9907 C   0  0  0  0  0  0  0  0  0  0  0  0
    1.3892   -3.4646    1.3279 C   0  0  0  0  0  0  0  0  0  0  0  0
    1.6862    3.2988    1.3034 C   0  0  0  0  0  0  0  0  0  0  0  0
    1.9177   -3.7822    0.0830 C   0  0  0  0  0  0  0  0  0  0  0  0
    2.2396    3.5603    0.0563 C   0  0  0  0  0  0  0  0  0  0  0  0
  1  4  1  0
  1  5  1  0
  1  6  1  0
  2  3  1  0
  2 13  1  0
  3  4  1  0
  3  5  1  0
  6  7  1  0
  6  8  1  0
  7  9  1  0
  7 11  2  0
  8 10  2  0
  8 12  1  0
  9 14  1  0
  9 16  2  0
 10 15  1  0
 10 17  1  0
 11 18  1  0
 12 19  2  0
 14 15  2  0
 16 20  1  0
 17 21  2  0
 18 20  2  0
 19 21  1  0
M  END
>  <PUBCHEM_COMPOUND_CID>  (1) 
43661

>  <PUBCHEM_CONFORMER_RMSD>  (1) 
0.6

>  <PUBCHEM_CONFORMER_DIVERSEORDER>  (1) 
1
2

>  <PUBCHEM_MMFF94_PARTIAL_CHARGES>  (1) 
32
1 -0.69
10 0.03
11 -0.15
12 -0.15
13 0.27
14 -0.18
15 -0.18
16 -0.15
17 -0.15
18 -0.15
19 -0.15
2 -0.84
20 -0.15
21 -0.15
28 0.36
29 0.15
3 0.21
30 0.15
34 0.15
35 0.15
36 0.15
37 0.15
38 0.15
39 0.15
4 0.21
40 0.15
41 0.15
5 0.21
6 0.56
7 -0.14
8 -0.14
9 0.03

>  <PUBCHEM_EFFECTIVE_ROTOR_COUNT>  (1) 
3

>  <PUBCHEM_PHARMACOPHORE_FEATURES>  (1) 
7
1 1 cation
1 2 cation
1 2 donor
4 1 3 4 5 rings
6 7 9 11 16 18 20 rings
6 8 10 12 17 19 21 rings
7 6 7 8 9 10 14 15 rings

>  <PUBCHEM_HEAVY_ATOM_COUNT>  (1) 
21

>  <PUBCHEM_ATOM_DEF_STEREO_COUNT>  (1) 
0

>  <PUBCHEM_ATOM_UDEF_STEREO_COUNT>  (1) 
0

>  <PUBCHEM_BOND_DEF_STEREO_COUNT>  (1) 
0

>  <PUBCHEM_BOND_UDEF_STEREO_COUNT>  (1) 
0

>  <PUBCHEM_ISOTOPIC_ATOM_COUNT>  (1) 
0

>  <PUBCHEM_COMPONENT_COUNT>  (1) 
1

>  <PUBCHEM_CACTVS_TAUTO_COUNT>  (1) 
1

>  <PUBCHEM_CONFORMER_ID>  (1) 
0000AA8D00000001

>  <PUBCHEM_MMFF94_ENERGY>  (1) 
80.1616

>  <PUBCHEM_FEATURE_SELFOVERLAP>  (1) 
35.541

>  <PUBCHEM_SHAPE_FINGERPRINT>  (1) 
10165383 225 17324420418894586321
10764073 3 16449201286030590948
11578080 2 17681544836607390820
12532896 13 17910103951830320017
12553582 1 17977958882157687075
12730499 353 18267314295322927587
12788726 201 17400658020917396782
13004483 165 17689427192285121979
13134695 92 18193265304784654615
13583140 156 16907497872333513232
13681431 1 18339080359000593587
13878862 14 9511191725194983923
13955234 65 18410857677075085563
14617773 55 17179147123052485510
14787075 74 18337400335899802142
14817 1 14783995315272636988
15852999 172 18052270770989575676
15906896 17 17472689703544215610
16945 1 18265922222542758132
20567600 347 18194676197341569847
20600515 1 17483391924606658297
21304303 282 17189491757674215429
21452121 199 18197214750335250403
21452121 99 17831602124737469564
21524375 3 18198902711127189225
22112679 90 17619940269222442448
22149856 69 18042138704007429667
2255824 54 18411984641870293847
23419403 2 17462526617042251684
238 59 18199482119616529605
25222932 49 17912913179319680303
2748010 2 17904508511386445875
404807 78 16528863421058435383
4409770 3 17401773419708354606
5845 1 12975531882762056961
6442390 28 17834421255492505091
7364860 26 18412261722847294131
7471813 234 18194683661752085447
81228 2 17329717517782013955

>  <PUBCHEM_SHAPE_MULTIPOLES>  (1) 
422.21
5.15
4.82
1.67
11.21
1.91
-0.3
-1.69
-1.28
-5.9
1.4
-0.74
0.13
0.15

>  <PUBCHEM_SHAPE_SELFOVERLAP>  (1) 
925.81

>  <PUBCHEM_SHAPE_VOLUME>  (1) 
227.7

>  <PUBCHEM_COORDINATE_TYPE>  (1) 
2
5
10

$$$$
