43666
     RDKit          3D

 13 13  0  0  0  0  0  0  0  0999 V2000
    1.0526    2.6831   -0.3343 Cl  0  0  0  0  0  0  0  0  0  0  0  0
   -2.0611    2.2069    0.2216 Cl  0  0  0  0  0  0  0  0  0  0  0  0
    1.8281   -2.6704   -0.1548 Cl  0  0  0  0  0  0  0  0  0  0  0  0
    2.6053    0.1898   -0.4524 O   0  0  0  0  0  0  0  0  0  0  0  0
   -2.7639   -0.6555    0.5062 O   0  0  0  0  0  0  0  0  0  0  0  0
    1.2743   -0.0049   -0.2153 C   0  0  0  0  0  0  0  0  0  0  0  0
   -1.4423   -0.4173    0.2685 C   0  0  0  0  0  0  0  0  0  0  0  0
    0.4074    1.0848   -0.1318 C   0  0  0  0  0  0  0  0  0  0  0  0
    0.7828   -1.3007   -0.0569 C   0  0  0  0  0  0  0  0  0  0  0  0
   -0.9509    0.8784    0.1100 C   0  0  0  0  0  0  0  0  0  0  0  0
   -0.5754   -1.5069    0.1850 C   0  0  0  0  0  0  0  0  0  0  0  0
    3.4454    0.3539    0.6862 C   0  0  0  0  0  0  0  0  0  0  0  0
   -3.6023   -0.8411   -0.6318 C   0  0  0  0  0  0  0  0  0  0  0  0
  1  8  1  0
  2 10  1  0
  3  9  1  0
  4  6  1  0
  4 12  1  0
  5  7  1  0
  5 13  1  0
  6  8  2  0
  6  9  1  0
  7 10  2  0
  7 11  1  0
  8 10  1  0
  9 11  2  0
M  END
>  <PUBCHEM_COMPOUND_CID>  (1) 
43666

>  <PUBCHEM_CONFORMER_RMSD>  (1) 
0.6

>  <PUBCHEM_CONFORMER_DIVERSEORDER>  (1) 
1
2

>  <PUBCHEM_MMFF94_PARTIAL_CHARGES>  (1) 
14
1 -0.18
10 0.18
11 -0.15
12 0.28
13 0.28
14 0.15
2 -0.18
3 -0.18
4 -0.36
5 -0.36
6 0.08
7 0.08
8 0.18
9 0.18

>  <PUBCHEM_EFFECTIVE_ROTOR_COUNT>  (1) 
2

>  <PUBCHEM_PHARMACOPHORE_FEATURES>  (1) 
3
1 4 acceptor
1 5 acceptor
6 6 7 8 9 10 11 rings

>  <PUBCHEM_HEAVY_ATOM_COUNT>  (1) 
13

>  <PUBCHEM_ATOM_DEF_STEREO_COUNT>  (1) 
0

>  <PUBCHEM_ATOM_UDEF_STEREO_COUNT>  (1) 
0

>  <PUBCHEM_BOND_DEF_STEREO_COUNT>  (1) 
0

>  <PUBCHEM_BOND_UDEF_STEREO_COUNT>  (1) 
0

>  <PUBCHEM_ISOTOPIC_ATOM_COUNT>  (1) 
0

>  <PUBCHEM_COMPONENT_COUNT>  (1) 
1

>  <PUBCHEM_CACTVS_TAUTO_COUNT>  (1) 
1

>  <PUBCHEM_CONFORMER_ID>  (1) 
0000AA9200000001

>  <PUBCHEM_MMFF94_ENERGY>  (1) 
52.7779

>  <PUBCHEM_FEATURE_SELFOVERLAP>  (1) 
15.223

>  <PUBCHEM_SHAPE_FINGERPRINT>  (1) 
10219947 1 18410009978889406114
10967382 1 18338519766957817878
11206711 2 18408612456682091645
12382932 28 18265612091787173112
12423570 1 17549265830774125907
13140716 1 18122067773399686267
13380535 21 18195541293606269664
14993402 34 18336550529238257724
16945 1 18337683004318056675
193761 8 18122063096227649798
20201158 50 18335419097244901479
21501502 16 18267022752093776266
22344851 341 18119245069353232042
2334 1 17690003757131604883
23388829 49 18340761628264666005
23402539 116 18341598348049979334
23463225 33 18334292042197357346
23526114 1 18267305335188003582
23552423 10 18189345562726892718
23559900 14 18198920124095440558
241688 4 18120662326935206818
2748010 2 18266465295382317223
5084963 1 18131079271863864776
53812653 166 18343017753184648400

>  <PUBCHEM_SHAPE_MULTIPOLES>  (1) 
261.4
4.58
2.83
0.74
0.87
0.54
0
-0.75
-0.11
-0.52
0.22
-0.01
0.02
-0.11

>  <PUBCHEM_SHAPE_SELFOVERLAP>  (1) 
514.851

>  <PUBCHEM_SHAPE_VOLUME>  (1) 
159.9

>  <PUBCHEM_COORDINATE_TYPE>  (1) 
2
5
10

$$$$
