43667
     RDKit          3D

 16 18  0  0  1  0  0  0  0  0999 V2000
    0.8076   -0.3370    0.0262 N   0  0  0  0  0  0  0  0  0  0  0  0
    3.1250   -0.8055   -0.3301 N   0  0  0  0  0  0  0  0  0  0  0  0
    1.0573    1.0131    0.0071 C   0  0  0  0  0  0  0  0  0  0  0  0
    2.4522    1.5304   -0.0038 C   0  0  0  0  0  0  0  0  0  0  0  0
    1.8447   -1.3612    0.1310 C   0  0  0  0  0  0  0  0  0  0  0  0
    3.4525    0.4383    0.3832 C   0  0  0  0  0  0  0  0  0  0  0  0
   -0.5516   -0.5730    0.0242 C   0  0  0  0  0  0  0  0  0  0  0  0
   -0.1554    1.6643   -0.0310 C   0  0  0  0  0  0  0  0  0  0  0  0
   -1.1792    0.6769   -0.0191 C   0  0  0  0  0  0  0  0  0  0  0  0
   -1.2828   -1.7703    0.0614 C   0  0  0  0  0  0  0  0  0  0  0  0
   -2.5876    0.7338   -0.0358 C   0  0  0  0  0  0  0  0  0  0  0  0
   -0.3559    3.1281   -0.0771 C   0  0  0  0  0  0  0  0  0  0  0  0
    4.1881   -1.7944   -0.1505 C   0  0  0  0  0  0  0  0  0  0  0  0
   -3.3229   -0.4555   -0.0042 C   0  0  0  0  0  0  0  0  0  0  0  0
   -2.6780   -1.6881    0.0452 C   0  0  0  0  0  0  0  0  0  0  0  0
   -4.8142   -0.4000   -0.0269 C   0  0  0  0  0  0  0  0  0  0  0  0
  1  3  1  0
  1  5  1  0
  1  7  1  0
  2  5  1  0
  2  6  1  0
  2 13  1  0
  3  4  1  0
  3  8  2  0
  4  6  1  0
  7  9  2  0
  7 10  1  0
  8  9  1  0
  8 12  1  0
  9 11  1  0
 10 15  2  0
 11 14  2  0
 14 15  1  0
 14 16  1  0
M  END
>  <PUBCHEM_COMPOUND_CID>  (1) 
43667

>  <PUBCHEM_CONFORMER_RMSD>  (1) 
0.4

>  <PUBCHEM_CONFORMER_DIVERSEORDER>  (1) 
1
2
3

>  <PUBCHEM_MMFF94_PARTIAL_CHARGES>  (1) 
18
1 0.05
10 -0.15
11 -0.15
12 0.18
13 0.27
14 -0.14
15 -0.15
16 0.14
2 -0.81
23 0.15
24 0.15
3 -0.33
31 0.15
4 0.18
5 0.53
6 0.27
7 -0.15
8 -0.18

>  <PUBCHEM_EFFECTIVE_ROTOR_COUNT>  (1) 
0.8

>  <PUBCHEM_PHARMACOPHORE_FEATURES>  (1) 
5
1 1 cation
1 2 cation
5 1 3 7 8 9 rings
6 1 2 3 4 5 6 rings
6 7 9 10 11 14 15 rings

>  <PUBCHEM_HEAVY_ATOM_COUNT>  (1) 
16

>  <PUBCHEM_ATOM_DEF_STEREO_COUNT>  (1) 
0

>  <PUBCHEM_ATOM_UDEF_STEREO_COUNT>  (1) 
0

>  <PUBCHEM_BOND_DEF_STEREO_COUNT>  (1) 
0

>  <PUBCHEM_BOND_UDEF_STEREO_COUNT>  (1) 
0

>  <PUBCHEM_ISOTOPIC_ATOM_COUNT>  (1) 
0

>  <PUBCHEM_COMPONENT_COUNT>  (1) 
1

>  <PUBCHEM_CACTVS_TAUTO_COUNT>  (1) 
1

>  <PUBCHEM_CONFORMER_ID>  (1) 
0000AA9300000001

>  <PUBCHEM_MMFF94_ENERGY>  (1) 
32.8445

>  <PUBCHEM_FEATURE_SELFOVERLAP>  (1) 
25.588

>  <PUBCHEM_SHAPE_FINGERPRINT>  (1) 
10130415 120 18335699468267051371
10608611 8 18410568517705919881
10618630 7 18409730659975605124
10967382 1 18338516442658418514
11132069 177 18411411843081881987
11471102 20 18410288151088896783
11543360 7 15430329060732229970
11680986 33 18266459995772423731
116883 192 18341055107854421196
12032990 46 18409452487776094963
13140716 1 18411141328882868402
13296908 3 18409450318649013322
13571099 22 18412262878299011151
13583140 156 14476669742240747079
13690532 89 18411418414883173463
13862211 1 18410569566057995083
14115302 16 17894923935452104566
14178342 30 17766541818277179202
14648413 74 17975132359726739249
15196674 1 18410855447259084169
15442244 35 18412548708235624393
15536298 74 18342738541813620218
15848700 24 18412537725887970229
16945 1 18265610992227825448
17804303 29 18341898424920302438
18186145 218 17676480674690636039
19141452 34 18201718470580895167
193761 8 17689716355390039667
19591789 44 16899629208045402737
200 152 17988918985909145951
20510252 161 18270959038186656040
20645477 70 18411980282156917199
21029758 11 18413100672063693985
21029758 27 18261122876231915645
21267235 1 18410583876482674587
21296965 67 18410854356459002609
21501502 16 18412268366961305820
221490 88 18118972635567671643
2334 1 18338236097400641946
23402539 116 18272643516186547671
23463225 33 18410857684979256484
23557571 272 18272095950858923004
23559900 14 18340199709810225448
2748010 2 18411133675272200140
3091708 16 9138334167086215296
3286 77 17203599385238055531
335352 9 18266741272895886773
34934 24 18339917237863129366
5104073 3 18411700980306629731
537710 114 18336834176983311869
69090 78 18343015623223754231
7364860 26 18124314067055046969
81228 2 18265065642955658640
8809292 202 18333455352055406898
9709674 26 18264490770284118115

>  <PUBCHEM_SHAPE_MULTIPOLES>  (1) 
319.31
7.01
2.5
0.62
0.81
1.27
-0.01
-3.3
0.07
-0.61
0.07
-0.04
0
0.17

>  <PUBCHEM_SHAPE_SELFOVERLAP>  (1) 
693.943

>  <PUBCHEM_SHAPE_VOLUME>  (1) 
175

>  <PUBCHEM_COORDINATE_TYPE>  (1) 
2
5
10

$$$$
