43675
     RDKit          3D

 24 28  0  0  1  0  0  0  0  0999 V2000
   -2.5167   -1.9910    1.0604 O   0  0  0  0  0  0  0  0  0  0  0  0
   -4.7790   -1.7808   -0.5043 O   0  0  0  0  0  0  0  0  0  0  0  0
   -4.2673    0.1434    1.5703 O   0  0  0  0  0  0  0  0  0  0  0  0
   -3.2955    2.1762   -1.2737 O   0  0  0  0  0  0  0  0  0  0  0  0
   -1.3131   -0.3271   -0.1329 C   0  0  0  0  0  0  0  0  0  0  0  0
   -2.4179   -1.3678   -0.2205 C   0  0  0  0  0  0  0  0  0  0  0  0
   -3.7720   -0.7821   -0.6355 C   0  0  0  0  0  0  0  0  0  0  0  0
   -4.1388    0.4542    0.1844 C   0  0  0  0  0  0  0  0  0  0  0  0
   -3.0813    1.5433   -0.0112 C   0  0  0  0  0  0  0  0  0  0  0  0
   -1.6508    1.0395   -0.0057 C   0  0  0  0  0  0  0  0  0  0  0  0
    0.0619   -0.7234   -0.1253 C   0  0  0  0  0  0  0  0  0  0  0  0
    1.0710    0.2692   -0.0163 C   0  0  0  0  0  0  0  0  0  0  0  0
    0.7182    1.6319    0.0937 C   0  0  0  0  0  0  0  0  0  0  0  0
   -0.6303    1.9964    0.0994 C   0  0  0  0  0  0  0  0  0  0  0  0
    2.4487   -0.0868   -0.0123 C   0  0  0  0  0  0  0  0  0  0  0  0
    0.4903   -2.0665   -0.2165 C   0  0  0  0  0  0  0  0  0  0  0  0
    2.8323   -1.4418   -0.1125 C   0  0  0  0  0  0  0  0  0  0  0  0
    3.4479    0.9112    0.0939 C   0  0  0  0  0  0  0  0  0  0  0  0
    1.7191    2.6071    0.1982 C   0  0  0  0  0  0  0  0  0  0  0  0
    1.8422   -2.4194   -0.2120 C   0  0  0  0  0  0  0  0  0  0  0  0
    3.0667    2.2523    0.1972 C   0  0  0  0  0  0  0  0  0  0  0  0
    4.1931   -1.7834   -0.1083 C   0  0  0  0  0  0  0  0  0  0  0  0
    4.8012    0.5422    0.0952 C   0  0  0  0  0  0  0  0  0  0  0  0
    5.1703   -0.7967   -0.0057 C   0  0  0  0  0  0  0  0  0  0  0  0
  1  6  1  0
  2  7  1  0
  3  8  1  0
  4  9  1  0
  5  6  1  0
  5 10  2  0
  5 11  1  0
  6  7  1  0
  7  8  1  0
  8  9  1  0
  9 10  1  0
 10 14  1  0
 11 12  2  0
 11 16  1  0
 12 13  1  0
 12 15  1  0
 13 14  2  0
 13 19  1  0
 15 17  2  0
 15 18  1  0
 16 20  2  0
 17 20  1  0
 17 22  1  0
 18 21  1  0
 18 23  2  0
 19 21  2  0
 22 24  2  0
 23 24  1  0
M  END
>  <PUBCHEM_COMPOUND_CID>  (1) 
43675

>  <PUBCHEM_CONFORMER_RMSD>  (1) 
0.6

>  <PUBCHEM_CONFORMER_DIVERSEORDER>  (1) 
2
1

>  <PUBCHEM_MMFF94_PARTIAL_CHARGES>  (1) 
30
1 -0.68
10 -0.14
14 -0.15
16 -0.15
19 -0.15
2 -0.68
20 -0.15
21 -0.15
22 -0.15
23 -0.15
24 -0.15
29 0.15
3 -0.68
30 0.15
31 0.15
32 0.15
33 0.4
34 0.4
35 0.4
36 0.4
37 0.15
38 0.15
39 0.15
4 -0.68
40 0.15
5 -0.14
6 0.42
7 0.28
8 0.28
9 0.42

>  <PUBCHEM_EFFECTIVE_ROTOR_COUNT>  (1) 
0.8

>  <PUBCHEM_PHARMACOPHORE_FEATURES>  (1) 
13
1 1 acceptor
1 1 donor
1 2 acceptor
1 2 donor
1 3 acceptor
1 3 donor
1 4 acceptor
1 4 donor
6 11 12 15 16 17 20 rings
6 12 13 15 18 19 21 rings
6 15 17 18 22 23 24 rings
6 5 10 11 12 13 14 rings
6 5 6 7 8 9 10 rings

>  <PUBCHEM_HEAVY_ATOM_COUNT>  (1) 
24

>  <PUBCHEM_ATOM_DEF_STEREO_COUNT>  (1) 
4

>  <PUBCHEM_ATOM_UDEF_STEREO_COUNT>  (1) 
0

>  <PUBCHEM_BOND_DEF_STEREO_COUNT>  (1) 
0

>  <PUBCHEM_BOND_UDEF_STEREO_COUNT>  (1) 
0

>  <PUBCHEM_ISOTOPIC_ATOM_COUNT>  (1) 
0

>  <PUBCHEM_COMPONENT_COUNT>  (1) 
1

>  <PUBCHEM_CACTVS_TAUTO_COUNT>  (1) 
1

>  <PUBCHEM_CONFORMER_ID>  (1) 
0000AA9B00000002

>  <PUBCHEM_MMFF94_ENERGY>  (1) 
83.5155

>  <PUBCHEM_FEATURE_SELFOVERLAP>  (1) 
66.141

>  <PUBCHEM_SHAPE_FINGERPRINT>  (1) 
10411042 1 18268147557544120430
10616163 171 18412826901746551143
10675989 125 16534811224264841140
10967382 1 18411980282436102020
1100329 8 16897082739331504656
11578080 2 17024858260968760046
12236239 1 17703791440060725783
12403259 226 18410566314472385501
12553582 1 18339077077867125434
13140716 1 18412831312593626760
13224815 77 18272651250889923503
13402501 40 18409166597393558495
13583140 156 16805590491040536561
13862211 1 18411132516248559370
13944108 23 16025892358970165653
14223421 5 18408885165361246037
14787075 74 18335423473885095954
14790565 3 18194409012016997820
14866123 147 17118329797941401122
15196674 1 18411980252339669484
15536298 74 18343863329461141624
15788980 27 18187365411088926504
1601671 61 18341332215223814486
16945 1 18268432321826969568
17349148 13 18408599262478968632
17492 89 18413106147614792367
1813 80 17530684312167042828
19591789 44 18340204193165459742
200 152 18059853986774619955
20028762 73 18131063874512442302
21267235 1 18412270540225606006
21279426 13 18193837037903920340
21421861 104 17826512167653571162
221357 26 18411411826297625839
221490 88 18409452517941047402
2334 1 18339923826385341348
23402539 116 18341886360447014366
23559900 14 18411691089039527440
2748010 2 18411415146207391444
335352 9 18267584615388895060
34934 24 18266453209328528431
350125 39 18411702093135954461
3680242 22 18191304879989878282
4214541 1 18411135814297912237
5104073 3 18412825793565660378
8809292 202 18334017193859468259
9709674 26 18410013251501751663
9981440 41 17331950037841598384

>  <PUBCHEM_SHAPE_MULTIPOLES>  (1) 
470.43
9.5
2.83
0.8
0.46
0.32
-0.08
-1.58
-0.17
-0.52
0.11
0.68
0.02
0.36

>  <PUBCHEM_SHAPE_SELFOVERLAP>  (1) 
1085.929

>  <PUBCHEM_SHAPE_VOLUME>  (1) 
241.4

>  <PUBCHEM_COORDINATE_TYPE>  (1) 
2
5
10

$$$$
