4367
     RDKit          3D

 15 14  0  0  1  0  0  0  0  0999 V2000
    4.2213   -0.0784   -1.3805 O   0  0  0  0  0  0  0  0  0  0  0  0
    2.7684   -1.7037   -0.7515 O   0  0  0  0  0  0  0  0  0  0  0  0
   -4.1139   -2.1107    0.0934 O   0  0  0  0  0  0  0  0  0  0  0  0
   -1.9507   -1.7318   -0.0508 O   0  0  0  0  0  0  0  0  0  0  0  0
    3.4748   -0.5901    1.8504 N   0  0  0  0  0  0  0  0  0  0  0  0
   -1.1838    0.7642   -0.1402 N   0  0  0  0  0  0  0  0  0  0  0  0
   -3.4291   -0.0303    0.0182 N   0  0  0  0  0  0  0  0  0  0  0  0
   -3.0745    2.2129   -0.0406 N   0  0  0  0  0  0  0  0  0  0  0  0
   -3.1289   -1.3688    0.0187 N   0  0  0  0  0  0  0  0  0  0  0  0
    1.6227    0.6562    0.8416 C   0  0  0  0  0  0  0  0  0  0  0  0
    1.1446    1.4857   -0.3591 C   0  0  0  0  0  0  0  0  0  0  0  0
    3.0907    0.2260    0.7013 C   0  0  0  0  0  0  0  0  0  0  0  0
   -0.3064    1.9336   -0.2157 C   0  0  0  0  0  0  0  0  0  0  0  0
    3.3252   -0.6374   -0.5246 C   0  0  0  0  0  0  0  0  0  0  0  0
   -2.4606    0.9727   -0.0606 C   0  0  0  0  0  0  0  0  0  0  0  0
  1 14  1  0
  2 14  2  0
  3  9  1  0
  4  9  2  0
  5 12  1  0
  6 13  1  0
  6 15  2  0
  7  9  1  0
  7 15  1  0
  8 15  1  0
 10 11  1  0
 10 12  1  0
 11 13  1  0
 12 14  1  0
M  CHG  2   3  -1   9   1
M  END
>  <PUBCHEM_COMPOUND_CID>  (1) 
4367

>  <PUBCHEM_CONFORMER_RMSD>  (1) 
0.8

>  <PUBCHEM_CONFORMER_DIVERSEORDER>  (1) 
1
137
33
75
19
110
39
56
131
76
105
67
111
114
18
136
139
113
55
83
65
49
133
144
57
72
32
96
77
91
27
97
98
68
123
23
109
85
143
106
58
142
7
120
138
92
145
134
13
88
87
140
73
99
16
71
53
102
5
51
84
78
50
147
104
80
15
95
8
108
21
112
100
150
60
24
86
42
125
63
10
124
28
82
9
46
135
146
41
126
29
107
69
130
93
25
30
20
34
127
129
35
74
43
61
6
148
116
121
64
118
128
59
4
2
14
122
81
66
38
45
36
17
79
26
3
62
103
101
94
119
149
47
132
22
52
115
89
37
31
117
44
40
54
90
12
141
70
48
11

>  <PUBCHEM_MMFF94_PARTIAL_CHARGES>  (1) 
19
1 -0.65
12 0.33
13 0.25
14 0.66
15 0.55
2 -0.57
23 0.36
24 0.36
25 0.5
26 0.4
27 0.4
28 0.4
3 -0.52
4 -0.52
5 -0.99
6 -0.7
7 -0.45
8 -0.85
9 1.04

>  <PUBCHEM_EFFECTIVE_ROTOR_COUNT>  (1) 
7

>  <PUBCHEM_PHARMACOPHORE_FEATURES>  (1) 
10
1 1 acceptor
1 2 acceptor
1 3 acceptor
1 4 acceptor
1 5 cation
1 5 donor
1 7 donor
1 8 donor
3 1 2 14 anion
4 6 7 8 15 cation

>  <PUBCHEM_HEAVY_ATOM_COUNT>  (1) 
15

>  <PUBCHEM_ATOM_DEF_STEREO_COUNT>  (1) 
0

>  <PUBCHEM_ATOM_UDEF_STEREO_COUNT>  (1) 
1

>  <PUBCHEM_BOND_DEF_STEREO_COUNT>  (1) 
0

>  <PUBCHEM_BOND_UDEF_STEREO_COUNT>  (1) 
0

>  <PUBCHEM_ISOTOPIC_ATOM_COUNT>  (1) 
0

>  <PUBCHEM_COMPONENT_COUNT>  (1) 
1

>  <PUBCHEM_CACTVS_TAUTO_COUNT>  (1) 
3

>  <PUBCHEM_CONFORMER_ID>  (1) 
0000110F00000001

>  <PUBCHEM_MMFF94_ENERGY>  (1) 
26.1505

>  <PUBCHEM_FEATURE_SELFOVERLAP>  (1) 
50.943

>  <PUBCHEM_SHAPE_FINGERPRINT>  (1) 
12346177 29 18340473496542619757
13296908 3 17989484104520475176
14251705 54 18341053029005970575
14251710 61 18341619247424157975
17834074 16 18343582945047324148
18186145 218 12252186212700426148
18915474 69 18259711094695956182
19107657 162 18343297072008369008
19107657 46 18411980230632737542
20279233 1 18201427039695652616
20281407 28 18341615871727783728
20281475 54 18336547127381656908
20442098 301 18272644692548767718
20645477 70 18119804974686374175
20671657 53 17895745313809135717
20871999 31 18334300859306403740
21249577 43 18342738507295886223
21634736 98 18115310119153586244
23048698 100 14692273033287308592
23402539 116 17968097491596490868
23532345 42 18341328967964801174
23559900 14 18270399365883702844
449060 23 18335138704383561249
5902787 121 18336535058666266144
603831 33 17530965744310150512
7364860 26 18123753311893444740

>  <PUBCHEM_SHAPE_MULTIPOLES>  (1) 
260.31
8.25
2.21
1.03
0.47
0.18
0.22
3.48
-0.24
2.25
-0.2
-1.54
0.13
0.24

>  <PUBCHEM_SHAPE_SELFOVERLAP>  (1) 
500.922

>  <PUBCHEM_SHAPE_VOLUME>  (1) 
157.5

>  <PUBCHEM_COORDINATE_TYPE>  (1) 
2
5
10

$$$$
