43689
     RDKit          3D

 19 18  0  0  0  0  0  0  0  0999 V2000
   -7.6257    0.2099    0.0207 S   0  0  0  0  0  0  0  0  0  0  0  0
    7.5961    0.2145    0.0502 S   0  0  0  0  0  0  0  0  0  0  0  0
   -6.1444   -0.4765    0.0550 O   0  0  0  0  0  0  0  0  0  0  0  0
    6.1188   -0.4786   -0.0028 O   0  0  0  0  0  0  0  0  0  0  0  0
   -7.8650    0.7730   -1.2925 O   0  0  0  0  0  0  0  0  0  0  0  0
   -7.8301    0.9754    1.2337 O   0  0  0  0  0  0  0  0  0  0  0  0
    7.7789    0.8610    1.3338 O   0  0  0  0  0  0  0  0  0  0  0  0
    7.8508    0.9021   -1.1994 O   0  0  0  0  0  0  0  0  0  0  0  0
    2.5245    0.3076   -0.0743 N   0  0  0  0  0  0  0  0  0  0  0  0
   -1.2262   -0.5377   -0.0365 C   0  0  0  0  0  0  0  0  0  0  0  0
   -2.4787    0.3414   -0.0457 C   0  0  0  0  0  0  0  0  0  0  0  0
    0.0479    0.3120   -0.0723 C   0  0  0  0  0  0  0  0  0  0  0  0
   -3.7501   -0.5016    0.0237 C   0  0  0  0  0  0  0  0  0  0  0  0
    1.3280   -0.5253   -0.0794 C   0  0  0  0  0  0  0  0  0  0  0  0
   -5.0014    0.3635   -0.0281 C   0  0  0  0  0  0  0  0  0  0  0  0
    3.7281   -0.5120   -0.0710 C   0  0  0  0  0  0  0  0  0  0  0  0
    4.9719    0.3609   -0.0217 C   0  0  0  0  0  0  0  0  0  0  0  0
   -8.5549   -1.2962    0.1542 C   0  0  0  0  0  0  0  0  0  0  0  0
    8.5317   -1.2935    0.0523 C   0  0  0  0  0  0  0  0  0  0  0  0
  1  3  1  0
  1  5  2  0
  1  6  2  0
  1 18  1  0
  2  4  1  0
  2  7  2  0
  2  8  2  0
  2 19  1  0
  3 15  1  0
  4 17  1  0
  9 14  1  0
  9 16  1  0
 10 11  1  0
 10 12  1  0
 11 13  1  0
 12 14  1  0
 13 15  1  0
 16 17  1  0
M  END
>  <PUBCHEM_COMPOUND_CID>  (1) 
43689

>  <PUBCHEM_CONFORMER_RMSD>  (1) 
1.2

>  <PUBCHEM_CONFORMER_DIVERSEORDER>  (1) 
1
225
154
314
164
341
272
117
303
325
333
37
218
212
273
7
294
172
46
174
320
240
297
252
288
14
135
41
11
45
286
12
205
85
111
229
67
147
199
109
264
98
58
185
304
346
23
170
95
162
15
155
236
181
6
231
348
2
32
26
324
266
16
75
176
123
305
64
40
271
138
313
28
194
232
125
21
151
187
188
121
24
131
339
94
257
42
179
89
319
142
261
207
278
204
62
97
43
343
153
105
25
318
145
251
345
140
31
150
182
296
222
110
275
248
168
191
116
245
198
106
301
323
72
311
99
197
118
246
83
217
76
285
178
70
68
177
211
298
202
17
337
157
93
259
114
276
160
234
228
186
134
224
171
112
223
175
299
35
39
80
136
29
159
279
281
183
316
101
30
19
254
201
270
226
132
71
55
268
328
86
342
139
327
104
221
242
322
210
349
289
227
163
340
331
81
321
152
69
241
260
34
329
146
103
22
77
13
287
335
300
65
122
84
57
216
238
203
310
189
312
158
36
235
195
256
208
38
347
74
66
79
173
10
336
78
262
317
247
249
47
50
3
196
306
214
130
230
344
149
9
60
61
219
133
144
315
90
4
73
88
96
156
5
180
108
51
215
243
190
165
282
100
119
330
59
309
166
250
269
48
255
33
115
52
302
265
290
113
53
237
18
233
107
258
274
8
167
126
283
141
280
213
143
169
326
332
184
307
193
244
267
148
308
128
239
54
27
220
277
82
284
49
200
92
192
120
127
334
253
292
206
293
350
209
263
91
87
63
291
56
295
44
338
161
102
124
137
129
20

>  <PUBCHEM_MMFF94_PARTIAL_CHARGES>  (1) 
16
1 1.38
14 0.27
15 0.28
16 0.27
17 0.28
18 0.11
19 0.11
2 1.38
3 -0.46
32 0.36
4 -0.46
5 -0.65
6 -0.65
7 -0.65
8 -0.65
9 -0.9

>  <PUBCHEM_EFFECTIVE_ROTOR_COUNT>  (1) 
12

>  <PUBCHEM_PHARMACOPHORE_FEATURES>  (1) 
7
1 5 acceptor
1 6 acceptor
1 7 acceptor
1 8 acceptor
1 9 cation
1 9 donor
4 10 11 12 13 hydrophobe

>  <PUBCHEM_HEAVY_ATOM_COUNT>  (1) 
19

>  <PUBCHEM_ATOM_DEF_STEREO_COUNT>  (1) 
0

>  <PUBCHEM_ATOM_UDEF_STEREO_COUNT>  (1) 
0

>  <PUBCHEM_BOND_DEF_STEREO_COUNT>  (1) 
0

>  <PUBCHEM_BOND_UDEF_STEREO_COUNT>  (1) 
0

>  <PUBCHEM_ISOTOPIC_ATOM_COUNT>  (1) 
0

>  <PUBCHEM_COMPONENT_COUNT>  (1) 
1

>  <PUBCHEM_CACTVS_TAUTO_COUNT>  (1) 
1

>  <PUBCHEM_CONFORMER_ID>  (1) 
0000AAA900000001

>  <PUBCHEM_MMFF94_ENERGY>  (1) 
3.4584

>  <PUBCHEM_FEATURE_SELFOVERLAP>  (1) 
35.554

>  <PUBCHEM_SHAPE_FINGERPRINT>  (1) 
11315181 36 18342177766100055505
11638347 137 18409448056119321650
12091667 2 17458063764761291007
13885169 127 18335138674830356605
14123256 10 17704072888856065570
14251764 18 18272090482769378169
14251764 46 18410856559639848046
16120349 18 17386008416384955452
20621476 8 18187363220787552446
22224240 67 18409165519494365522
232437 2 18335140890421999914
23521765 1 18341895194640665647
28498 318 18333731295651979062
33684 2 18343301461633796046
59567204 34 17895187750642081469
59682541 35 18341613745708202155
67123 10 18186521020755929303
8209 1 18410856563940044630

>  <PUBCHEM_SHAPE_MULTIPOLES>  (1) 
358.51
35.29
1.03
0.86
1.91
0.15
-0.03
0.08
-1.18
-0.01
-0.02
-0.01
-0.23
0.04

>  <PUBCHEM_SHAPE_SELFOVERLAP>  (1) 
643.695

>  <PUBCHEM_SHAPE_VOLUME>  (1) 
231.4

>  <PUBCHEM_COORDINATE_TYPE>  (1) 
2
5
10

$$$$
