43697
     RDKit          3D

 20 19  0  0  0  0  0  0  0  0999 V2000
   -8.2560    0.1951    0.0033 S   0  0  0  0  0  0  0  0  0  0  0  0
    8.2391   -0.1186    0.0052 S   0  0  0  0  0  0  0  0  0  0  0  0
   -6.7700   -0.4812    0.0359 O   0  0  0  0  0  0  0  0  0  0  0  0
    6.7336    0.5135    0.0243 O   0  0  0  0  0  0  0  0  0  0  0  0
   -8.4896    0.7810   -1.3010 O   0  0  0  0  0  0  0  0  0  0  0  0
   -8.4749    0.9362    1.2288 O   0  0  0  0  0  0  0  0  0  0  0  0
    8.4840   -0.7399   -1.2804 O   0  0  0  0  0  0  0  0  0  0  0  0
    8.4861   -0.8121    1.2531 O   0  0  0  0  0  0  0  0  0  0  0  0
    1.8937    0.3673   -0.0130 N   0  0  0  0  0  0  0  0  0  0  0  0
   -1.8509   -0.5054   -0.0195 C   0  0  0  0  0  0  0  0  0  0  0  0
   -0.5829    0.3538   -0.0297 C   0  0  0  0  0  0  0  0  0  0  0  0
   -3.1097    0.3646   -0.0217 C   0  0  0  0  0  0  0  0  0  0  0  0
    0.7034   -0.4740   -0.0428 C   0  0  0  0  0  0  0  0  0  0  0  0
   -4.3754   -0.4886    0.0223 C   0  0  0  0  0  0  0  0  0  0  0  0
    3.1032   -0.4436   -0.0160 C   0  0  0  0  0  0  0  0  0  0  0  0
    4.3393    0.4491    0.0242 C   0  0  0  0  0  0  0  0  0  0  0  0
   -5.6326    0.3684   -0.0228 C   0  0  0  0  0  0  0  0  0  0  0  0
    5.6220   -0.3712    0.0000 C   0  0  0  0  0  0  0  0  0  0  0  0
   -9.1751   -1.3199    0.1015 C   0  0  0  0  0  0  0  0  0  0  0  0
    9.1126    1.4255    0.0485 C   0  0  0  0  0  0  0  0  0  0  0  0
  1  3  1  0
  1  5  2  0
  1  6  2  0
  1 19  1  0
  2  4  1  0
  2  7  2  0
  2  8  2  0
  2 20  1  0
  3 17  1  0
  4 18  1  0
  9 13  1  0
  9 15  1  0
 10 11  1  0
 10 12  1  0
 11 13  1  0
 12 14  1  0
 14 17  1  0
 15 16  1  0
 16 18  1  0
M  END
>  <PUBCHEM_COMPOUND_CID>  (1) 
43697

>  <PUBCHEM_CONFORMER_RMSD>  (1) 
1.2

>  <PUBCHEM_CONFORMER_DIVERSEORDER>  (1) 
1
78
26
31
107
72
18
55
95
27
43
81
47
38
74
3
45
25
59
110
114
22
104
36
7
23
51
101
73
15
11
32
52
61
10
40
41
8
83
53
6
71
106
4
35
57
17
113
75
92
24
37
112
80
68
21
30
70
9
12
97
56
79
14
46
109
102
5
86
39
13
94
111
34
50
100
49
48
77
76
58
108
67
60
88
20
82
28
90
54
105
66
98
103
93
91
19
65
69
87
42
99
62
16
63
85
64
2
29
33
84
44
96
89

>  <PUBCHEM_MMFF94_PARTIAL_CHARGES>  (1) 
16
1 1.38
13 0.27
15 0.27
17 0.28
18 0.28
19 0.11
2 1.38
20 0.11
3 -0.46
31 0.36
4 -0.46
5 -0.65
6 -0.65
7 -0.65
8 -0.65
9 -0.9

>  <PUBCHEM_EFFECTIVE_ROTOR_COUNT>  (1) 
13

>  <PUBCHEM_PHARMACOPHORE_FEATURES>  (1) 
7
1 5 acceptor
1 6 acceptor
1 7 acceptor
1 8 acceptor
1 9 cation
1 9 donor
4 10 11 12 14 hydrophobe

>  <PUBCHEM_HEAVY_ATOM_COUNT>  (1) 
20

>  <PUBCHEM_ATOM_DEF_STEREO_COUNT>  (1) 
0

>  <PUBCHEM_ATOM_UDEF_STEREO_COUNT>  (1) 
0

>  <PUBCHEM_BOND_DEF_STEREO_COUNT>  (1) 
0

>  <PUBCHEM_BOND_UDEF_STEREO_COUNT>  (1) 
0

>  <PUBCHEM_ISOTOPIC_ATOM_COUNT>  (1) 
0

>  <PUBCHEM_COMPONENT_COUNT>  (1) 
1

>  <PUBCHEM_CACTVS_TAUTO_COUNT>  (1) 
1

>  <PUBCHEM_CONFORMER_ID>  (1) 
0000AAB100000001

>  <PUBCHEM_MMFF94_ENERGY>  (1) 
3.2236

>  <PUBCHEM_FEATURE_SELFOVERLAP>  (1) 
35.553

>  <PUBCHEM_SHAPE_FINGERPRINT>  (1) 
11315181 36 18343868827530834435
11638347 137 17822290159383837370
14123256 10 18410855455833194497
14251764 18 18411136913640592275
14251764 46 18272370880226177598
14428016 248 18202289116762400104
15510794 2 18408609162273811954
21362267 2 18270102626642078640
21362267 20 17530685441907811227
21362267 313 18269273465750104674
22224240 67 17822009821972086323
232437 2 18187083962161809035
23521765 1 18341895194640652647
33684 2 18410573985151457643
59682541 35 16950566596678820960
67123 10 18410575097553268567
8209 1 18413389838999452892

>  <PUBCHEM_SHAPE_MULTIPOLES>  (1) 
379.09
40.07
1.02
0.84
1.46
0.04
-0.02
1.38
0.49
0.02
0.03
0
0.01
0.05

>  <PUBCHEM_SHAPE_SELFOVERLAP>  (1) 
681.626

>  <PUBCHEM_SHAPE_VOLUME>  (1) 
244.2

>  <PUBCHEM_COORDINATE_TYPE>  (1) 
2
5
10

$$$$
