43717
     RDKit          3D

 23 28  0  0  1  0  0  0  0  0999 V2000
   -1.9517   -3.3297   -0.5799 O   0  0  0  0  0  0  0  0  0  0  0  0
   -2.2583   -2.3216    0.3718 C   0  0  0  0  0  0  0  0  0  0  0  0
   -1.4988   -1.0252    0.2326 C   0  0  0  0  0  0  0  0  0  0  0  0
   -0.1023   -1.0586    0.1886 C   0  0  0  0  0  0  0  0  0  0  0  0
   -3.2377   -2.7040   -0.6786 C   0  0  0  0  0  0  0  0  0  0  0  0
    0.6214    0.1466    0.0594 C   0  0  0  0  0  0  0  0  0  0  0  0
   -2.2046    0.1795    0.1516 C   0  0  0  0  0  0  0  0  0  0  0  0
   -0.0662    1.3866   -0.0252 C   0  0  0  0  0  0  0  0  0  0  0  0
   -1.5036    1.4041    0.0217 C   0  0  0  0  0  0  0  0  0  0  0  0
    2.0432    0.0923    0.0163 C   0  0  0  0  0  0  0  0  0  0  0  0
    2.7183   -1.1499    0.1016 C   0  0  0  0  0  0  0  0  0  0  0  0
    0.5811   -2.2794    0.2719 C   0  0  0  0  0  0  0  0  0  0  0  0
    2.7957    1.2795   -0.1123 C   0  0  0  0  0  0  0  0  0  0  0  0
    0.7288    2.5486   -0.1529 C   0  0  0  0  0  0  0  0  0  0  0  0
    1.9731   -2.3253    0.2289 C   0  0  0  0  0  0  0  0  0  0  0  0
   -3.6096    0.1615    0.2007 C   0  0  0  0  0  0  0  0  0  0  0  0
    2.1246    2.4990   -0.1956 C   0  0  0  0  0  0  0  0  0  0  0  0
   -2.2903    2.5819   -0.0539 C   0  0  0  0  0  0  0  0  0  0  0  0
    4.1198   -1.1844    0.0574 C   0  0  0  0  0  0  0  0  0  0  0  0
    4.1968    1.2171   -0.1540 C   0  0  0  0  0  0  0  0  0  0  0  0
   -4.3466    1.3389    0.1235 C   0  0  0  0  0  0  0  0  0  0  0  0
   -3.6864    2.5504   -0.0039 C   0  0  0  0  0  0  0  0  0  0  0  0
    4.8535   -0.0078   -0.0697 C   0  0  0  0  0  0  0  0  0  0  0  0
  1  2  1  0
  1  5  1  0
  2  3  1  0
  2  5  1  0
  3  4  1  0
  3  7  2  0
  4  6  1  0
  4 12  2  0
  6  8  1  0
  6 10  2  0
  7  9  1  0
  7 16  1  0
  8  9  2  0
  8 14  1  0
  9 18  1  0
 10 11  1  0
 10 13  1  0
 11 15  2  0
 11 19  1  0
 12 15  1  0
 13 17  1  0
 13 20  2  0
 14 17  2  0
 16 21  2  0
 18 22  2  0
 19 23  2  0
 20 23  1  0
 21 22  1  0
M  END
>  <PUBCHEM_COMPOUND_CID>  (1) 
43717

>  <PUBCHEM_CONFORMER_RMSD>  (1) 
0.6

>  <PUBCHEM_CONFORMER_DIVERSEORDER>  (1) 
2
1

>  <PUBCHEM_MMFF94_PARTIAL_CHARGES>  (1) 
29
1 -0.3
12 -0.15
14 -0.15
15 -0.15
16 -0.15
17 -0.15
18 -0.15
19 -0.15
2 0.08
20 -0.15
21 -0.15
22 -0.15
23 -0.15
24 0.1
25 0.1
26 0.1
27 0.15
28 0.15
29 0.15
3 -0.03
30 0.15
31 0.15
32 0.15
33 0.15
34 0.15
35 0.15
36 0.15
37 0.15
5 -0.05

>  <PUBCHEM_EFFECTIVE_ROTOR_COUNT>  (1) 
1.6

>  <PUBCHEM_PHARMACOPHORE_FEATURES>  (1) 
6
1 1 acceptor
6 10 11 13 19 20 23 rings
6 3 4 6 7 8 9 rings
6 4 6 10 11 12 15 rings
6 6 8 10 13 14 17 rings
6 7 9 16 18 21 22 rings

>  <PUBCHEM_HEAVY_ATOM_COUNT>  (1) 
23

>  <PUBCHEM_ATOM_DEF_STEREO_COUNT>  (1) 
0

>  <PUBCHEM_ATOM_UDEF_STEREO_COUNT>  (1) 
1

>  <PUBCHEM_BOND_DEF_STEREO_COUNT>  (1) 
0

>  <PUBCHEM_BOND_UDEF_STEREO_COUNT>  (1) 
0

>  <PUBCHEM_ISOTOPIC_ATOM_COUNT>  (1) 
0

>  <PUBCHEM_COMPONENT_COUNT>  (1) 
1

>  <PUBCHEM_CACTVS_TAUTO_COUNT>  (1) 
1

>  <PUBCHEM_CONFORMER_ID>  (1) 
0000AAC500000002

>  <PUBCHEM_MMFF94_ENERGY>  (1) 
92.0037

>  <PUBCHEM_FEATURE_SELFOVERLAP>  (1) 
30.6

>  <PUBCHEM_SHAPE_FINGERPRINT>  (1) 
10062212 137 18334571365152989610
10319926 262 18198600277764850232
10411042 1 17906173206351579051
10616163 171 18411421747282001047
10863032 1 18412825798145560848
10967382 1 18337672988575570272
1100329 8 18410855443148999776
11578080 2 17416955321756653017
12403259 226 18126282192894789192
12403260 363 18192703660717536234
12403814 3 17531247214712221949
12838862 33 18265032687682490000
13140716 1 18266186204418502153
138480 1 17113819583890561579
14178342 30 18338780312901910376
14223421 5 18340486797597087472
14790565 3 18123478180509759225
15042514 8 18337116769395116635
15196674 1 18409168775142632544
15442244 35 18409728478121714682
16087824 20 18411136958030571231
16728300 4 16523829375293578674
16945 1 18410288099280276785
17492 89 18338236076121796322
19591789 44 18121500150458367541
19930381 70 17833831573504455247
20028762 73 18201431438396571279
20691752 17 17531237396627765280
20739085 24 17688901655760434193
20775438 99 16114814868483017167
20905425 154 18198068190338485334
21236236 1 18339079393186794276
21267235 1 18337682909981737554
21478907 32 18195244653670106327
21501502 16 18337391650868956022
22393880 68 18340778130193935212
23227448 37 18412262826622435759
2334 1 18049726518425937753
23558518 356 18043535121010066768
23559900 14 18343301423728014230
238 59 17176829408528625205
25147074 1 18186796998723075266
2748010 2 18265335190839576760
335352 9 18337672988855197422
34934 24 18336262349580351066
350125 39 18410579526223687625
5104073 3 18409728499923762088
7164475 11 18268425926594285839
7832392 63 18410572868686943970
9709674 26 18341898467543168382

>  <PUBCHEM_SHAPE_MULTIPOLES>  (1) 
467.46
7.91
3.73
0.67
2.37
0.96
0.01
-1.35
0.2
-2.25
0.36
-0.1
0.11
-0.51

>  <PUBCHEM_SHAPE_SELFOVERLAP>  (1) 
1099.918

>  <PUBCHEM_SHAPE_VOLUME>  (1) 
237.5

>  <PUBCHEM_COORDINATE_TYPE>  (1) 
2
5
10

$$$$
