43719
     RDKit          3D

 21 25  0  0  1  0  0  0  0  0999 V2000
    2.9355    2.5853    0.5621 O   0  0  0  0  0  0  0  0  0  0  0  0
    1.9513    2.2417   -0.4022 C   0  0  0  0  0  0  0  0  0  0  0  0
    1.3041    0.8896   -0.2369 C   0  0  0  0  0  0  0  0  0  0  0  0
    1.6930    3.2983    0.6111 C   0  0  0  0  0  0  0  0  0  0  0  0
   -0.0974    0.7922   -0.1845 C   0  0  0  0  0  0  0  0  0  0  0  0
    2.1251   -0.2419   -0.1397 C   0  0  0  0  0  0  0  0  0  0  0  0
   -0.7287   -0.4664   -0.0303 C   0  0  0  0  0  0  0  0  0  0  0  0
    1.5263   -1.5052    0.0143 C   0  0  0  0  0  0  0  0  0  0  0  0
    0.1222   -1.5972    0.0661 C   0  0  0  0  0  0  0  0  0  0  0  0
   -2.1674   -0.5294    0.0194 C   0  0  0  0  0  0  0  0  0  0  0  0
   -0.8701    1.9522   -0.2864 C   0  0  0  0  0  0  0  0  0  0  0  0
   -2.9176    0.6707   -0.0875 C   0  0  0  0  0  0  0  0  0  0  0  0
    3.5261   -0.1430   -0.1923 C   0  0  0  0  0  0  0  0  0  0  0  0
   -2.2588    1.8928   -0.2386 C   0  0  0  0  0  0  0  0  0  0  0  0
    2.3446   -2.6440    0.1123 C   0  0  0  0  0  0  0  0  0  0  0  0
   -2.9078   -1.7290    0.1705 C   0  0  0  0  0  0  0  0  0  0  0  0
    4.3246   -1.2821   -0.0935 C   0  0  0  0  0  0  0  0  0  0  0  0
    3.7341   -2.5322    0.0587 C   0  0  0  0  0  0  0  0  0  0  0  0
   -4.3221    0.6440   -0.0428 C   0  0  0  0  0  0  0  0  0  0  0  0
   -4.3047   -1.7419    0.2135 C   0  0  0  0  0  0  0  0  0  0  0  0
   -5.0121   -0.5547    0.1068 C   0  0  0  0  0  0  0  0  0  0  0  0
  1  2  1  0
  1  4  1  0
  2  3  1  0
  2  4  1  0
  3  5  2  0
  3  6  1  0
  5  7  1  0
  5 11  1  0
  6  8  2  0
  6 13  1  0
  7  9  2  0
  7 10  1  0
  8  9  1  0
  8 15  1  0
 10 12  2  0
 10 16  1  0
 11 14  2  0
 12 14  1  0
 12 19  1  0
 13 17  2  0
 15 18  2  0
 16 20  2  0
 17 18  1  0
 19 21  2  0
 20 21  1  0
M  END
>  <PUBCHEM_COMPOUND_CID>  (1) 
43719

>  <PUBCHEM_CONFORMER_RMSD>  (1) 
0.6

>  <PUBCHEM_CONFORMER_DIVERSEORDER>  (1) 
1
2

>  <PUBCHEM_MMFF94_PARTIAL_CHARGES>  (1) 
29
1 -0.3
11 -0.15
13 -0.15
14 -0.15
15 -0.15
16 -0.15
17 -0.15
18 -0.15
19 -0.15
2 0.08
20 -0.15
21 -0.15
22 0.1
23 0.1
24 0.1
25 0.15
26 0.15
27 0.15
28 0.15
29 0.15
3 -0.03
30 0.15
31 0.15
32 0.15
33 0.15
34 0.15
35 0.15
4 -0.05
9 -0.15

>  <PUBCHEM_EFFECTIVE_ROTOR_COUNT>  (1) 
1.6

>  <PUBCHEM_PHARMACOPHORE_FEATURES>  (1) 
5
1 1 acceptor
6 10 12 16 19 20 21 rings
6 3 5 6 7 8 9 rings
6 5 7 10 11 12 14 rings
6 6 8 13 15 17 18 rings

>  <PUBCHEM_HEAVY_ATOM_COUNT>  (1) 
21

>  <PUBCHEM_ATOM_DEF_STEREO_COUNT>  (1) 
0

>  <PUBCHEM_ATOM_UDEF_STEREO_COUNT>  (1) 
1

>  <PUBCHEM_BOND_DEF_STEREO_COUNT>  (1) 
0

>  <PUBCHEM_BOND_UDEF_STEREO_COUNT>  (1) 
0

>  <PUBCHEM_ISOTOPIC_ATOM_COUNT>  (1) 
0

>  <PUBCHEM_COMPONENT_COUNT>  (1) 
1

>  <PUBCHEM_CACTVS_TAUTO_COUNT>  (1) 
1

>  <PUBCHEM_CONFORMER_ID>  (1) 
0000AAC700000001

>  <PUBCHEM_MMFF94_ENERGY>  (1) 
79.8009

>  <PUBCHEM_FEATURE_SELFOVERLAP>  (1) 
25.446

>  <PUBCHEM_SHAPE_FINGERPRINT>  (1) 
10411042 1 18266741281676309646
10967382 1 18338236093010644708
1100329 8 18124599669769941313
11405975 8 18412831283219692329
11578080 2 17559648760004898929
11680986 33 18262524817681107259
11806522 49 18335140869068229438
11963148 33 17685492448302806587
12403259 226 18335978688296585637
12553582 1 18339071584483082854
12633257 1 18270411481791408953
13140716 1 18121212345138024570
13533116 47 18342176713374125409
138480 1 18410575097775392788
14223421 5 18408599292591446309
14787075 74 18259992544108863930
14790565 3 17759813936576382317
14866123 147 16972239865106569250
15042514 8 17905324022940178242
15196674 1 18409168775010679327
15352361 1 18337673014161063030
15442244 35 18339364063313348049
15475509 84 18129119848356073553
15536298 74 18340769337862986965
15927050 60 17909267224404371998
16945 1 18410567362333044788
17492 89 18338236080564411235
17804303 29 18337395946042039013
18186145 218 17676480666575338199
19591789 44 17762340614354033156
200 152 18273209781944554455
20028762 73 16830105481620259959
20645477 70 18335977670737398567
21029758 11 18267297634269365813
21065198 57 18410293627472853449
21267235 1 18337401434794510975
21452121 103 18340760563250264776
221490 88 18335989743579263795
22182313 1 18115569535342087773
2334 1 18049725414482166692
23366157 5 18113619023236449060
23419403 2 18115565111483055446
23557571 272 18055357929590181350
23559900 14 18410567396830141097
2748010 2 17903652017962390886
3091708 16 9213756266920947776
3286 77 18335139782378005420
335352 9 18337672989055761509
3421961 26 18410855477334417896
350125 39 18409733958379080861
352729 6 17326897781621173428
4409770 3 17322100135832758444
5104073 3 18410299146680032931
58807428 26 18051957410718842608
59755656 215 18338236084853616772
6443956 14 18410014312627530308
7364860 26 18412261765897375656
84936 182 18057325195798648080
8809292 202 18260272932147755459
9709674 26 18335142046205968123
9981440 41 17762050343332241544

>  <PUBCHEM_SHAPE_MULTIPOLES>  (1) 
426.3
8.45
3.37
0.67
4.81
1.4
-0.01
-3.8
-0.24
-2.61
-0.41
-0.06
0.11
0.41

>  <PUBCHEM_SHAPE_SELFOVERLAP>  (1) 
981.12

>  <PUBCHEM_SHAPE_VOLUME>  (1) 
221.2

>  <PUBCHEM_COORDINATE_TYPE>  (1) 
2
5
10

$$$$
