43713
     RDKit          3D

 19 21  0  0  1  0  0  0  0  0999 V2000
   -1.7013   -1.7665    0.4611 O   0  0  0  0  0  0  0  0  0  0  0  0
    4.8872    2.0175    0.1720 O   0  0  0  0  0  0  0  0  0  0  0  0
    4.5673   -0.3126    0.0087 N   0  0  0  0  0  0  0  0  0  0  0  0
   -1.0616   -0.8693   -0.4556 C   0  0  0  0  0  0  0  0  0  0  0  0
   -1.9473   -0.3707    0.6421 C   0  0  0  0  0  0  0  0  0  0  0  0
    0.4060   -0.7241   -0.3346 C   0  0  0  0  0  0  0  0  0  0  0  0
   -3.3203    0.1103    0.3200 C   0  0  0  0  0  0  0  0  0  0  0  0
    0.9843    0.5453   -0.2165 C   0  0  0  0  0  0  0  0  0  0  0  0
    1.2318   -1.8550   -0.3370 C   0  0  0  0  0  0  0  0  0  0  0  0
   -3.5341    1.4535    0.0101 C   0  0  0  0  0  0  0  0  0  0  0  0
   -4.3923   -0.7821    0.3305 C   0  0  0  0  0  0  0  0  0  0  0  0
    2.3678    0.6822   -0.1028 C   0  0  0  0  0  0  0  0  0  0  0  0
    2.6153   -1.7181   -0.2230 C   0  0  0  0  0  0  0  0  0  0  0  0
    3.1833   -0.4496   -0.1058 C   0  0  0  0  0  0  0  0  0  0  0  0
   -4.8198    1.9043   -0.2889 C   0  0  0  0  0  0  0  0  0  0  0  0
   -5.6780   -0.3313    0.0312 C   0  0  0  0  0  0  0  0  0  0  0  0
   -5.8916    1.0119   -0.2784 C   0  0  0  0  0  0  0  0  0  0  0  0
    5.3123    0.8674    0.1347 C   0  0  0  0  0  0  0  0  0  0  0  0
    6.7909    0.5871    0.2322 C   0  0  0  0  0  0  0  0  0  0  0  0
  1  4  1  0
  1  5  1  0
  2 18  2  0
  3 14  1  0
  3 18  1  0
  4  5  1  0
  4  6  1  0
  5  7  1  0
  6  8  2  0
  6  9  1  0
  7 10  2  0
  7 11  1  0
  8 12  1  0
  9 13  2  0
 10 15  1  0
 11 16  2  0
 12 14  2  0
 13 14  1  0
 15 17  2  0
 16 17  1  0
 18 19  1  0
M  END
>  <PUBCHEM_COMPOUND_CID>  (1) 
43713

>  <PUBCHEM_CONFORMER_RMSD>  (1) 
0.6

>  <PUBCHEM_CONFORMER_DIVERSEORDER>  (1) 
1
12
5
7
10
8
3
11
6
2
9
4

>  <PUBCHEM_MMFF94_PARTIAL_CHARGES>  (1) 
31
1 -0.3
10 -0.15
11 -0.15
12 -0.15
13 -0.15
14 0.12
15 -0.15
16 -0.15
17 -0.15
18 0.57
19 0.06
2 -0.57
20 0.1
21 0.1
22 0.15
23 0.15
24 0.15
25 0.15
26 0.15
27 0.15
28 0.15
29 0.15
3 -0.55
30 0.15
31 0.37
4 0.08
5 0.08
6 -0.03
7 -0.03
8 -0.15
9 -0.15

>  <PUBCHEM_EFFECTIVE_ROTOR_COUNT>  (1) 
4.6

>  <PUBCHEM_PHARMACOPHORE_FEATURES>  (1) 
5
1 1 acceptor
1 2 acceptor
1 3 donor
6 6 8 9 12 13 14 rings
6 7 10 11 15 16 17 rings

>  <PUBCHEM_HEAVY_ATOM_COUNT>  (1) 
19

>  <PUBCHEM_ATOM_DEF_STEREO_COUNT>  (1) 
2

>  <PUBCHEM_ATOM_UDEF_STEREO_COUNT>  (1) 
0

>  <PUBCHEM_BOND_DEF_STEREO_COUNT>  (1) 
0

>  <PUBCHEM_BOND_UDEF_STEREO_COUNT>  (1) 
0

>  <PUBCHEM_ISOTOPIC_ATOM_COUNT>  (1) 
0

>  <PUBCHEM_COMPONENT_COUNT>  (1) 
1

>  <PUBCHEM_CACTVS_TAUTO_COUNT>  (1) 
2

>  <PUBCHEM_CONFORMER_ID>  (1) 
0000AAC100000001

>  <PUBCHEM_MMFF94_ENERGY>  (1) 
50.1067

>  <PUBCHEM_FEATURE_SELFOVERLAP>  (1) 
25.371

>  <PUBCHEM_SHAPE_FINGERPRINT>  (1) 
10 15 18187929520989609592
10014705 185 18412263956151296563
10595046 47 18271803489529890383
11089746 13 18060413634315084472
11128504 68 14620788323177029034
117890 112 18334858303164472776
12107183 9 17615966612883053715
12236239 1 17775003470801812839
12507557 5 18187369835448742349
12596602 18 17385442150068097488
12633257 1 16370730360989648846
13073987 5 18187085005981209051
13288520 33 9511462225759301315
13402501 40 18410571790434433481
13533116 47 15195294075767545286
13631057 29 17987792055527345847
13740256 8 9223226351659132021
13785724 45 17833545701004369850
14350574 20 10159696897953064922
14528608 73 18272931626423500412
15048467 5 18409448098662455252
15188451 53 15936986253080440507
15196674 1 18338800013922073981
15238133 3 17748836206546892948
15961568 22 18408325462525173900
17834072 33 18273213101347684350
18335252 98 18411421731241816019
19489759 90 17821447967678112193
200 152 17917990547621662283
20157964 124 18340204094729352183
20281389 69 18408038529182722968
20645477 56 18409448098567425307
20645477 70 17632024039852101110
21150785 3 12319453321197712152
21315764 268 18334006203450251092
21452121 103 18409446956338525466
22950370 63 9439400242006496379
23035841 295 10664103350189477269
23402539 116 18409162225718342063
23402655 69 18130786724872882679
23559900 14 18413670197031582643
26918003 58 11241971477777276679
2767999 5 18202280312268957512
2838139 119 18341888606235141492
2916195 48 18334856112952730481
293599 30 18342739633057138238
300161 21 18260545602567875815
335352 9 18412546514372311366
34797466 226 17846787312124401885
34934 24 18411133632449549886
351380 180 18335421249281810765
351380 3 8718828673882929312
3545911 37 18342460352233793819
4072396 5 18411410692816890098
4073 2 17968101962446976066
4325135 7 18201716280558628335
441001 317 18409168788486392481
465052 167 10881398725723595984
5104073 3 18261399888642784419
542803 24 16917352519704908483
59682541 35 18335429006493758603
59682541 52 16916520159665108812
59755656 215 18340212908371476446
59755656 520 18186514432102621642
9971528 1 17967821491917359254

>  <PUBCHEM_SHAPE_MULTIPOLES>  (1) 
374.29
15.57
1.84
0.69
5.01
0.06
0
7.35
0.7
0.08
-0.07
-0.14
-0.04
0.61

>  <PUBCHEM_SHAPE_SELFOVERLAP>  (1) 
803.847

>  <PUBCHEM_SHAPE_VOLUME>  (1) 
206.8

>  <PUBCHEM_COORDINATE_TYPE>  (1) 
2
5
10

$$$$
