43722
     RDKit          3D

 18 19  0  0  1  0  0  0  0  0999 V2000
    0.5140   -1.6607    1.3282 O   0  0  0  0  0  0  0  0  0  0  0  0
   -4.8312    1.3428   -0.0504 N   0  0  0  0  0  0  0  0  0  0  0  0
    0.6063   -2.7644   -1.7933 N   0  0  0  0  0  0  0  0  0  0  0  0
    0.3979   -0.8997    0.0969 C   0  0  0  0  0  0  0  0  0  0  0  0
   -1.0264   -0.2886    0.0567 C   0  0  0  0  0  0  0  0  0  0  0  0
    1.4529    0.1532    0.0366 C   0  0  0  0  0  0  0  0  0  0  0  0
   -1.4291    0.3172   -1.0999 C   0  0  0  0  0  0  0  0  0  0  0  0
   -1.7968   -0.3913    1.1804 C   0  0  0  0  0  0  0  0  0  0  0  0
    2.0154    0.5075   -1.1896 C   0  0  0  0  0  0  0  0  0  0  0  0
    1.8771    0.7833    1.2066 C   0  0  0  0  0  0  0  0  0  0  0  0
   -2.7106    0.8672   -1.1357 C   0  0  0  0  0  0  0  0  0  0  0  0
   -3.0783    0.1584    1.1446 C   0  0  0  0  0  0  0  0  0  0  0  0
   -3.5351    0.7878   -0.0134 C   0  0  0  0  0  0  0  0  0  0  0  0
    0.5026   -1.9551   -0.9675 C   0  0  0  0  0  0  0  0  0  0  0  0
    3.0021    1.4919   -1.2459 C   0  0  0  0  0  0  0  0  0  0  0  0
    2.8636    1.7677    1.1504 C   0  0  0  0  0  0  0  0  0  0  0  0
    3.4261    2.1222   -0.0759 C   0  0  0  0  0  0  0  0  0  0  0  0
    1.7493   -2.3394    1.3713 C   0  0  0  0  0  0  0  0  0  0  0  0
  1  4  1  0
  1 18  1  0
  2 13  1  0
  3 14  3  0
  4  5  1  0
  4  6  1  0
  4 14  1  0
  5  7  2  0
  5  8  1  0
  6  9  2  0
  6 10  1  0
  7 11  1  0
  8 12  2  0
  9 15  1  0
 10 16  2  0
 11 13  2  0
 12 13  1  0
 15 17  2  0
 16 17  1  0
M  END
>  <PUBCHEM_COMPOUND_CID>  (1) 
43722

>  <PUBCHEM_CONFORMER_RMSD>  (1) 
0.6

>  <PUBCHEM_CONFORMER_DIVERSEORDER>  (1) 
1
10
3
9
4
6
5
8
2
7

>  <PUBCHEM_MMFF94_PARTIAL_CHARGES>  (1) 
29
1 -0.56
10 -0.15
11 -0.15
12 -0.15
13 0.1
14 0.36
15 -0.15
16 -0.15
17 -0.15
18 0.28
19 0.15
2 -0.9
20 0.15
21 0.15
22 0.15
23 0.15
24 0.15
25 0.15
26 0.15
27 0.15
3 -0.56
31 0.4
32 0.4
4 0.77
5 -0.14
6 -0.14
7 -0.15
8 -0.15
9 -0.15

>  <PUBCHEM_EFFECTIVE_ROTOR_COUNT>  (1) 
3

>  <PUBCHEM_PHARMACOPHORE_FEATURES>  (1) 
6
1 1 acceptor
1 2 cation
1 2 donor
1 3 acceptor
6 5 7 8 11 12 13 rings
6 6 9 10 15 16 17 rings

>  <PUBCHEM_HEAVY_ATOM_COUNT>  (1) 
18

>  <PUBCHEM_ATOM_DEF_STEREO_COUNT>  (1) 
0

>  <PUBCHEM_ATOM_UDEF_STEREO_COUNT>  (1) 
1

>  <PUBCHEM_BOND_DEF_STEREO_COUNT>  (1) 
0

>  <PUBCHEM_BOND_UDEF_STEREO_COUNT>  (1) 
0

>  <PUBCHEM_ISOTOPIC_ATOM_COUNT>  (1) 
0

>  <PUBCHEM_COMPONENT_COUNT>  (1) 
1

>  <PUBCHEM_CACTVS_TAUTO_COUNT>  (1) 
1

>  <PUBCHEM_CONFORMER_ID>  (1) 
0000AACA00000001

>  <PUBCHEM_MMFF94_ENERGY>  (1) 
76.1191

>  <PUBCHEM_FEATURE_SELFOVERLAP>  (1) 
30.446

>  <PUBCHEM_SHAPE_FINGERPRINT>  (1) 
10618630 7 8502111659320233856
107287 299 18410303488417091263
11640471 11 18198599181466689156
12138202 97 17843969384440159708
12173636 292 17537444294617589348
12251169 10 16153701054891361545
12326174 3 18267023855974477714
12423570 1 13674844200632171894
12633257 1 16443332196024894504
12730499 353 18272102591004800619
12788726 201 17615403001578943406
13134695 92 18120919621536320986
13294875 104 18201143439063487368
13681431 1 17981334386912484838
14178342 30 17313118466322242619
14817 1 13465914915091039458
14955137 171 18270959025739837778
15309172 13 18261394515258920585
15422964 175 11170174450451779113
15775835 57 18339072791326480544
15906896 17 17975135653982713194
16945 1 18116131308479413042
17134986 127 18272089434961031156
1813 80 17698166140947116870
18186145 218 17845669143238027308
19786989 88 18341043026406797127
20559304 39 17701814393489000971
20600515 1 16818255469528987374
21524375 3 18338233881250154276
21731228 192 17895750828494312024
21756936 100 17606971869535300004
21947302 44 18261394390994818177
23382010 3 16415200125949669428
23419403 2 17328931616403928098
23557571 272 17969246532644758003
23559900 14 17168715115742059367
25 1 17774179979610801252
276578 36 18334010614296605336
3060560 45 17989484108593844789
3082319 5 15267072466138701480
495365 180 18261948528023429617
5895379 119 17056122814102109649
7097593 13 16226310595424529360
7364860 26 18270399369593302390
81228 2 17547287165258407314
9999458 23 17530687580674084306

>  <PUBCHEM_SHAPE_MULTIPOLES>  (1) 
354.6
6.17
2.44
1.62
4.58
1.45
-0.12
-5.22
0.4
-1.7
-0.24
-0.43
0.49
0.08

>  <PUBCHEM_SHAPE_SELFOVERLAP>  (1) 
768.182

>  <PUBCHEM_SHAPE_VOLUME>  (1) 
192.7

>  <PUBCHEM_COORDINATE_TYPE>  (1) 
2
5
10

$$$$
