43753
     RDKit          3D

 18 19  0  0  0  0  0  0  0  0999 V2000
    7.3349    1.1418    0.1505 Cl  0  0  0  0  0  0  0  0  0  0  0  0
   -6.5205    0.8953   -0.3667 O   0  0  0  0  0  0  0  0  0  0  0  0
   -0.4200   -1.0137   -0.0791 O   0  0  0  0  0  0  0  0  0  0  0  0
   -3.9967   -0.2245    0.3244 N   0  0  0  0  0  0  0  0  0  0  0  0
    0.7332   -0.2347    0.0822 N   0  0  0  0  0  0  0  0  0  0  0  0
   -4.1063    0.9087   -0.6046 C   0  0  0  0  0  0  0  0  0  0  0  0
   -5.2110   -1.0495    0.2577 C   0  0  0  0  0  0  0  0  0  0  0  0
   -2.8094   -1.0241    0.0297 C   0  0  0  0  0  0  0  0  0  0  0  0
   -5.3581    1.7208   -0.2849 C   0  0  0  0  0  0  0  0  0  0  0  0
   -6.4372   -0.1914    0.5561 C   0  0  0  0  0  0  0  0  0  0  0  0
   -1.5472   -0.1939    0.2000 C   0  0  0  0  0  0  0  0  0  0  0  0
    3.1403   -0.4497   -0.0894 C   0  0  0  0  0  0  0  0  0  0  0  0
    1.7660   -0.9709   -0.1695 C   0  0  0  0  0  0  0  0  0  0  0  0
    4.2040   -1.2918   -0.3728 C   0  0  0  0  0  0  0  0  0  0  0  0
    3.3457    0.8742    0.2664 C   0  0  0  0  0  0  0  0  0  0  0  0
    5.5062   -0.7977   -0.2985 C   0  0  0  0  0  0  0  0  0  0  0  0
    4.6480    1.3685    0.3405 C   0  0  0  0  0  0  0  0  0  0  0  0
    5.7283    0.5325    0.0580 C   0  0  0  0  0  0  0  0  0  0  0  0
  1 18  1  0
  2  9  1  0
  2 10  1  0
  3  5  1  0
  3 11  1  0
  4  6  1  0
  4  7  1  0
  4  8  1  0
  5 13  2  0
  6  9  1  0
  7 10  1  0
  8 11  1  0
 12 13  1  0
 12 14  2  0
 12 15  1  0
 14 16  1  0
 15 17  2  0
 16 18  2  0
 17 18  1  0
M  END
>  <PUBCHEM_COMPOUND_CID>  (1) 
43753

>  <PUBCHEM_CONFORMER_RMSD>  (1) 
0.8

>  <PUBCHEM_CONFORMER_DIVERSEORDER>  (1) 
1
17
14
3
18
10
22
19
13
20
7
15
5
21
16
8
12
2
6
9
4
11

>  <PUBCHEM_MMFF94_PARTIAL_CHARGES>  (1) 
23
1 -0.18
10 0.28
11 0.28
12 0.09
13 0.3
14 -0.15
15 -0.15
16 -0.15
17 -0.15
18 0.18
2 -0.56
3 -0.22
31 0.06
32 0.15
33 0.15
34 0.15
35 0.15
4 -0.81
5 -0.51
6 0.27
7 0.27
8 0.27
9 0.28

>  <PUBCHEM_EFFECTIVE_ROTOR_COUNT>  (1) 
6.2

>  <PUBCHEM_PHARMACOPHORE_FEATURES>  (1) 
5
1 2 acceptor
1 4 cation
1 5 acceptor
6 12 14 15 16 17 18 rings
6 2 4 6 7 9 10 rings

>  <PUBCHEM_HEAVY_ATOM_COUNT>  (1) 
18

>  <PUBCHEM_ATOM_DEF_STEREO_COUNT>  (1) 
0

>  <PUBCHEM_ATOM_UDEF_STEREO_COUNT>  (1) 
0

>  <PUBCHEM_BOND_DEF_STEREO_COUNT>  (1) 
0

>  <PUBCHEM_BOND_UDEF_STEREO_COUNT>  (1) 
1

>  <PUBCHEM_ISOTOPIC_ATOM_COUNT>  (1) 
0

>  <PUBCHEM_COMPONENT_COUNT>  (1) 
1

>  <PUBCHEM_CACTVS_TAUTO_COUNT>  (1) 
1

>  <PUBCHEM_CONFORMER_ID>  (1) 
0000AAE900000001

>  <PUBCHEM_MMFF94_ENERGY>  (1) 
32.559

>  <PUBCHEM_FEATURE_SELFOVERLAP>  (1) 
25.371

>  <PUBCHEM_SHAPE_FINGERPRINT>  (1) 
10354089 29 17603867801811232980
11315181 36 18202003231908668105
117890 112 18407478860288526878
12091667 2 18408604781965903931
125118 31 18186804673197183084
13073987 5 18040997293992349491
13167372 99 18271247123117924688
13403585 85 18260830389106907125
13533116 47 15913054166905201798
13668630 136 11239996758983237813
14123256 10 17418095420899293496
14251732 16 18408887369212504747
14251764 18 17967531294262730260
14251764 46 17385442133141116995
14729087 3 18408600361837920809
14933364 13 18410577287986583021
15048467 5 18411136943984976892
15183329 4 17775287148869776321
15716309 27 11241973681037431801
17834076 25 17167863066901929834
17844677 252 18410581673396345937
19489759 90 17676207974896191459
20157964 124 18273498962124340118
20281389 69 18259702276706376941
20645477 70 18059299768949212902
21150785 3 16486969617934494805
220451 1 14764350422760808983
22224240 67 14996281453274985840
23035841 295 10879994657600707655
23081809 10 15984830298086396818
23402539 116 18412259545488980703
23536379 177 18408885118201229411
23559900 14 18060412555740002689
246663 6 12901539123576006144
2916195 48 18335137600793075137
29717793 49 16845580794748585060
300161 21 17988920094005595926
3014965 18 18341612556218987078
3545911 37 18341614836730043818
4073 2 18041284361080244498
42788 4 18410293605597337163
4325135 7 18272647983221677959
5104073 3 17968661502222283611
59682541 35 18260277365334311515
59755656 520 17822286915908543122

>  <PUBCHEM_SHAPE_MULTIPOLES>  (1) 
350.6
21.27
1.49
0.69
4.52
0.25
0
6.34
-0.45
-0.05
0.08
0.15
0.03
1

>  <PUBCHEM_SHAPE_SELFOVERLAP>  (1) 
708.375

>  <PUBCHEM_SHAPE_VOLUME>  (1) 
206

>  <PUBCHEM_COORDINATE_TYPE>  (1) 
2
5
10

$$$$
