43767
     RDKit          3D

 12 11  0  0  0  0  0  0  0  0999 V2000
   -4.1690    0.8144    0.9302 O   0  0  0  0  0  0  0  0  0  0  0  0
    0.2105   -2.2171    0.7100 O   0  0  0  0  0  0  0  0  0  0  0  0
    0.7940   -0.3126    0.0037 N   0  0  0  0  0  0  0  0  0  0  0  0
    1.1235   -1.5787    0.1728 N   0  0  0  0  0  0  0  0  0  0  0  0
    1.9208    0.6199    0.1723 C   0  0  0  0  0  0  0  0  0  0  0  0
    0.1471   -0.0759   -1.2816 C   0  0  0  0  0  0  0  0  0  0  0  0
   -1.3331   -0.4465   -1.2070 C   0  0  0  0  0  0  0  0  0  0  0  0
    1.3809    2.0530    0.1194 C   0  0  0  0  0  0  0  0  0  0  0  0
    2.5749    0.3542    1.5323 C   0  0  0  0  0  0  0  0  0  0  0  0
    2.9374    0.3980   -0.9538 C   0  0  0  0  0  0  0  0  0  0  0  0
   -2.0596    0.3907   -0.1556 C   0  0  0  0  0  0  0  0  0  0  0  0
   -3.5275    0.0007   -0.0428 C   0  0  0  0  0  0  0  0  0  0  0  0
  1 12  1  0
  2  4  2  0
  3  4  1  0
  3  5  1  0
  3  6  1  0
  5  8  1  0
  5  9  1  0
  5 10  1  0
  6  7  1  0
  7 11  1  0
 11 12  1  0
M  END
>  <PUBCHEM_COMPOUND_CID>  (1) 
43767

>  <PUBCHEM_CONFORMER_RMSD>  (1) 
0.6

>  <PUBCHEM_CONFORMER_DIVERSEORDER>  (1) 
5
29
26
36
35
14
50
58
22
13
64
46
47
71
51
54
57
28
52
70
33
49
19
7
15
76
74
18
11
2
72
68
62
55
31
1
27
21
60
17
32
69
6
75
41
12
23
40
73
8
61
9
3
20
39
53
10
66
48
56
59
4
45
25
30
34
37
63
44
16
67
42
24
38
65
43

>  <PUBCHEM_MMFF94_PARTIAL_CHARGES>  (1) 
8
1 -0.68
12 0.28
2 -0.16
3 -0.36
30 0.4
4 -0.01
5 0.27
6 0.27

>  <PUBCHEM_EFFECTIVE_ROTOR_COUNT>  (1) 
6

>  <PUBCHEM_PHARMACOPHORE_FEATURES>  (1) 
3
1 1 acceptor
1 1 donor
4 5 8 9 10 hydrophobe

>  <PUBCHEM_HEAVY_ATOM_COUNT>  (1) 
12

>  <PUBCHEM_ATOM_DEF_STEREO_COUNT>  (1) 
0

>  <PUBCHEM_ATOM_UDEF_STEREO_COUNT>  (1) 
0

>  <PUBCHEM_BOND_DEF_STEREO_COUNT>  (1) 
0

>  <PUBCHEM_BOND_UDEF_STEREO_COUNT>  (1) 
0

>  <PUBCHEM_ISOTOPIC_ATOM_COUNT>  (1) 
0

>  <PUBCHEM_COMPONENT_COUNT>  (1) 
1

>  <PUBCHEM_CACTVS_TAUTO_COUNT>  (1) 
1

>  <PUBCHEM_CONFORMER_ID>  (1) 
0000AAF700000005

>  <PUBCHEM_MMFF94_ENERGY>  (1) 
25.8079

>  <PUBCHEM_FEATURE_SELFOVERLAP>  (1) 
15.223

>  <PUBCHEM_SHAPE_FINGERPRINT>  (1) 
10219947 1 17530682121511831255
12932764 1 18412258407433280773
14252887 29 15719689683830496297
14350558 41 12540701414024398937
15775835 57 17917708028366746089
16945 1 18338502106105122532
170605 34 18131351929525839861
201361 129 18337118847610784929
20653085 51 17631174263033521316
21730867 7 18260833670229604635
21930827 45 18192712461000193230
230 275 18273204309533824537
23235685 24 18260828228184280884
276578 36 18410295804425387926
5084963 1 18202566215172327372
81228 2 17465375722095035986

>  <PUBCHEM_SHAPE_MULTIPOLES>  (1) 
225.25
5.45
1.6
1.26
5.41
0.26
0
-1.91
1.2
-0.46
0.38
-0.39
0.07
-0.31

>  <PUBCHEM_SHAPE_SELFOVERLAP>  (1) 
421.117

>  <PUBCHEM_SHAPE_VOLUME>  (1) 
143.8

>  <PUBCHEM_COORDINATE_TYPE>  (1) 
2
5
10

$$$$
