43769
     RDKit          3D

 12 11  0  0  0  0  0  0  0  0999 V2000
    1.1497    1.0777    0.5489 O   0  0  0  0  0  0  0  0  0  0  0  0
   -0.8007   -2.3298    1.3666 O   0  0  0  0  0  0  0  0  0  0  0  0
   -0.4103   -0.9875   -0.2182 N   0  0  0  0  0  0  0  0  0  0  0  0
   -0.8911   -2.1738    0.1429 N   0  0  0  0  0  0  0  0  0  0  0  0
   -2.3793    0.3635   -0.8180 C   0  0  0  0  0  0  0  0  0  0  0  0
   -1.1122   -0.3404   -1.2920 C   0  0  0  0  0  0  0  0  0  0  0  0
   -2.0922    1.4668    0.2030 C   0  0  0  0  0  0  0  0  0  0  0  0
    1.0320   -1.0852   -0.5226 C   0  0  0  0  0  0  0  0  0  0  0  0
    1.7388    0.1609   -0.0223 C   0  0  0  0  0  0  0  0  0  0  0  0
   -3.3658    2.1902    0.6117 C   0  0  0  0  0  0  0  0  0  0  0  0
    3.2381    0.2012   -0.2742 C   0  0  0  0  0  0  0  0  0  0  0  0
    3.8930    1.4563    0.2742 C   0  0  0  0  0  0  0  0  0  0  0  0
  1  9  2  0
  2  4  2  0
  3  4  1  0
  3  6  1  0
  3  8  1  0
  5  6  1  0
  5  7  1  0
  7 10  1  0
  8  9  1  0
  9 11  1  0
 11 12  1  0
M  END
>  <PUBCHEM_COMPOUND_CID>  (1) 
43769

>  <PUBCHEM_CONFORMER_RMSD>  (1) 
0.8

>  <PUBCHEM_CONFORMER_DIVERSEORDER>  (1) 
2
13
210
47
184
235
203
121
40
198
100
1
91
220
12
192
218
139
9
48
236
152
63
116
76
90
19
158
163
195
27
181
93
180
55
115
189
20
99
82
45
216
230
221
10
206
101
59
183
144
125
187
148
106
95
154
22
190
194
4
58
143
6
179
24
11
170
197
172
136
150
78
199
26
159
223
34
3
131
18
60
141
79
118
23
112
234
134
88
153
196
207
233
61
28
224
137
185
73
42
229
133
108
56
117
37
209
46
102
149
96
201
176
39
16
205
87
193
17
15
30
109
132
31
68
164
186
227
98
169
32
129
120
44
72
173
232
107
168
94
69
226
110
51
162
140
41
208
33
124
211
71
146
65
36
77
53
142
21
25
38
166
174
70
167
222
171
35
128
165
157
57
161
50
75
29
225
147
215
67
188
123
81
5
7
135
104
191
85
84
127
214
219
8
92
156
43
217
62
138
151
155
122
97
212
64
213
200
119
80
204
86
228
177
182
202
111
145
231
14
114
103
89
54
83
160
126
52
105
130
49
66
175
178
113
74

>  <PUBCHEM_MMFF94_PARTIAL_CHARGES>  (1) 
8
1 -0.57
11 0.06
2 -0.16
3 -0.36
4 -0.01
6 0.27
8 0.33
9 0.45

>  <PUBCHEM_EFFECTIVE_ROTOR_COUNT>  (1) 
7

>  <PUBCHEM_PHARMACOPHORE_FEATURES>  (1) 
3
1 1 acceptor
1 10 hydrophobe
1 12 hydrophobe

>  <PUBCHEM_HEAVY_ATOM_COUNT>  (1) 
12

>  <PUBCHEM_ATOM_DEF_STEREO_COUNT>  (1) 
0

>  <PUBCHEM_ATOM_UDEF_STEREO_COUNT>  (1) 
0

>  <PUBCHEM_BOND_DEF_STEREO_COUNT>  (1) 
0

>  <PUBCHEM_BOND_UDEF_STEREO_COUNT>  (1) 
0

>  <PUBCHEM_ISOTOPIC_ATOM_COUNT>  (1) 
0

>  <PUBCHEM_COMPONENT_COUNT>  (1) 
1

>  <PUBCHEM_CACTVS_TAUTO_COUNT>  (1) 
3

>  <PUBCHEM_CONFORMER_ID>  (1) 
0000AAF900000002

>  <PUBCHEM_MMFF94_ENERGY>  (1) 
13.8446

>  <PUBCHEM_FEATURE_SELFOVERLAP>  (1) 
15.223

>  <PUBCHEM_SHAPE_FINGERPRINT>  (1) 
122479 349 18413673512910105588
12932764 1 16878209949106708484
13764800 53 18337113474474653544
14123255 52 18340204068659452497
15775835 57 18201157637835392989
170605 34 18127694833740647573
18186145 218 18338515218925178892
18342897 96 18201431459222346589
19837323 101 18341612658849438974
20112054 60 18268986673604075856
201361 129 18050291358228493705
20653085 51 17988929933247864694
21524375 3 18340760451517564541
23402539 116 18268414901545203511
23500284 214 18412266146711374064
25 1 18270684147405170980
298252 57 17489017163485483661
305870 269 18190173482155436077
81228 2 17969793070953563491
81539 233 18192434065557472109

>  <PUBCHEM_SHAPE_MULTIPOLES>  (1) 
225.25
5.57
2.36
1.02
2.55
0.57
-0.01
-4.8
-0.27
-1.15
-0.89
-0.43
0.35
-0.04

>  <PUBCHEM_SHAPE_SELFOVERLAP>  (1) 
416.486

>  <PUBCHEM_SHAPE_VOLUME>  (1) 
143

>  <PUBCHEM_COORDINATE_TYPE>  (1) 
2
5
10

$$$$
