4376
     RDKit          3D

 10  9  0  0  1  0  0  0  0  0999 V2000
   -0.9461    1.6023   -1.1247 O   0  0  0  0  0  0  0  0  0  0  0  0
    2.9383   -0.9561   -0.4611 O   0  0  0  0  0  0  0  0  0  0  0  0
   -1.0672    1.4062    1.1318 O   0  0  0  0  0  0  0  0  0  0  0  0
    2.1051    1.0774    0.1286 O   0  0  0  0  0  0  0  0  0  0  0  0
   -1.6100   -1.3585    0.3041 N   0  0  0  0  0  0  0  0  0  0  0  0
   -0.4953   -0.5570   -0.2010 C   0  0  0  0  0  0  0  0  0  0  0  0
    0.8003   -0.9507    0.5193 C   0  0  0  0  0  0  0  0  0  0  0  0
   -0.8714    0.8971    0.0360 C   0  0  0  0  0  0  0  0  0  0  0  0
   -2.8420   -1.0238   -0.3925 C   0  0  0  0  0  0  0  0  0  0  0  0
    1.9884   -0.1368    0.0595 C   0  0  0  0  0  0  0  0  0  0  0  0
  1  8  1  0
  2 10  1  0
  3  8  2  0
  4 10  2  0
  5  6  1  0
  5  9  1  0
  6  7  1  0
  6  8  1  0
  7 10  1  0
M  END
>  <PUBCHEM_COMPOUND_CID>  (1) 
4376

>  <PUBCHEM_CONFORMER_RMSD>  (1) 
0.6

>  <PUBCHEM_CONFORMER_DIVERSEORDER>  (1) 
2
17
28
3
24
29
34
30
8
21
22
20
1
11
16
12
10
23
19
6
4
31
15
25
32
7
18
26
5
14
33
27
9
13

>  <PUBCHEM_MMFF94_PARTIAL_CHARGES>  (1) 
13
1 -0.65
10 0.66
14 0.36
18 0.5
19 0.5
2 -0.65
3 -0.57
4 -0.57
5 -0.9
6 0.33
7 0.06
8 0.66
9 0.27

>  <PUBCHEM_EFFECTIVE_ROTOR_COUNT>  (1) 
4

>  <PUBCHEM_PHARMACOPHORE_FEATURES>  (1) 
8
1 1 acceptor
1 2 acceptor
1 3 acceptor
1 4 acceptor
1 5 cation
1 5 donor
3 1 3 8 anion
3 2 4 10 anion

>  <PUBCHEM_HEAVY_ATOM_COUNT>  (1) 
10

>  <PUBCHEM_ATOM_DEF_STEREO_COUNT>  (1) 
0

>  <PUBCHEM_ATOM_UDEF_STEREO_COUNT>  (1) 
1

>  <PUBCHEM_BOND_DEF_STEREO_COUNT>  (1) 
0

>  <PUBCHEM_BOND_UDEF_STEREO_COUNT>  (1) 
0

>  <PUBCHEM_ISOTOPIC_ATOM_COUNT>  (1) 
0

>  <PUBCHEM_COMPONENT_COUNT>  (1) 
1

>  <PUBCHEM_CACTVS_TAUTO_COUNT>  (1) 
1

>  <PUBCHEM_CONFORMER_ID>  (1) 
0000111800000002

>  <PUBCHEM_MMFF94_ENERGY>  (1) 
12.9371

>  <PUBCHEM_FEATURE_SELFOVERLAP>  (1) 
40.713

>  <PUBCHEM_SHAPE_FINGERPRINT>  (1) 
12897270 3 18333445460740247910
14128692 85 18192433193557551503
15310529 11 16917069962417473160
20653085 51 15286187372903408399
21040471 1 17974839571658263248
23552423 10 18334296469997617394
241688 4 18334014977862175696
24536 1 18059282154971190464
29004967 10 17970064646083047227
5084963 1 18407761417565354050

>  <PUBCHEM_SHAPE_MULTIPOLES>  (1) 
177.34
3.63
1.63
0.86
0.88
0.4
0.02
-1.24
-0.52
-0.45
-0.02
-0.18
0.24
0.04

>  <PUBCHEM_SHAPE_SELFOVERLAP>  (1) 
338.39

>  <PUBCHEM_SHAPE_VOLUME>  (1) 
108.9

>  <PUBCHEM_COORDINATE_TYPE>  (1) 
2
5
10

$$$$
