43775
     RDKit          3D

  8  7  0  0  0  0  0  0  0  0999 V2000
    1.7693    0.3156   -0.4178 O   0  0  0  0  0  0  0  0  0  0  0  0
   -1.0007   -2.1260    0.1067 O   0  0  0  0  0  0  0  0  0  0  0  0
   -0.5220   -0.0801    0.3020 N   0  0  0  0  0  0  0  0  0  0  0  0
   -0.8316   -1.0682   -0.5114 N   0  0  0  0  0  0  0  0  0  0  0  0
   -0.9853    1.2170   -0.1981 C   0  0  0  0  0  0  0  0  0  0  0  0
    0.9052   -0.0062    0.6783 C   0  0  0  0  0  0  0  0  0  0  0  0
   -2.4696    1.4080    0.0638 C   0  0  0  0  0  0  0  0  0  0  0  0
    3.1346    0.3400   -0.0233 C   0  0  0  0  0  0  0  0  0  0  0  0
  1  6  1  0
  1  8  1  0
  2  4  2  0
  3  4  1  0
  3  5  1  0
  3  6  1  0
  5  7  1  0
M  END
>  <PUBCHEM_COMPOUND_CID>  (1) 
43775

>  <PUBCHEM_CONFORMER_RMSD>  (1) 
0.6

>  <PUBCHEM_CONFORMER_DIVERSEORDER>  (1) 
1
48
47
37
18
23
24
12
2
40
33
6
29
14
35
21
16
46
17
13
30
39
4
5
38
25
10
31
45
19
42
44
11
15
20
28
27
9
41
36
34
32
7
43
3
8
22
26

>  <PUBCHEM_MMFF94_PARTIAL_CHARGES>  (1) 
7
1 -0.56
2 -0.16
3 -0.36
4 -0.01
5 0.27
6 0.55
8 0.28

>  <PUBCHEM_EFFECTIVE_ROTOR_COUNT>  (1) 
4

>  <PUBCHEM_PHARMACOPHORE_FEATURES>  (1) 
1
1 1 acceptor

>  <PUBCHEM_HEAVY_ATOM_COUNT>  (1) 
8

>  <PUBCHEM_ATOM_DEF_STEREO_COUNT>  (1) 
0

>  <PUBCHEM_ATOM_UDEF_STEREO_COUNT>  (1) 
0

>  <PUBCHEM_BOND_DEF_STEREO_COUNT>  (1) 
0

>  <PUBCHEM_BOND_UDEF_STEREO_COUNT>  (1) 
0

>  <PUBCHEM_ISOTOPIC_ATOM_COUNT>  (1) 
0

>  <PUBCHEM_COMPONENT_COUNT>  (1) 
1

>  <PUBCHEM_CACTVS_TAUTO_COUNT>  (1) 
1

>  <PUBCHEM_CONFORMER_ID>  (1) 
0000AAFF00000001

>  <PUBCHEM_MMFF94_ENERGY>  (1) 
15.3743

>  <PUBCHEM_FEATURE_SELFOVERLAP>  (1) 
5.074

>  <PUBCHEM_SHAPE_FINGERPRINT>  (1) 
12932741 1 17703792556936904064
14325111 11 18339080371949084649
16714656 1 18410293609839563429
21040471 1 18339916017892028809
23552449 1 18340768259921349104

>  <PUBCHEM_SHAPE_MULTIPOLES>  (1) 
142.94
3.66
1.66
0.7
2.16
0.98
-0.04
-1.73
0.14
-1.1
0.06
0.06
-0.01
-0.08

>  <PUBCHEM_SHAPE_SELFOVERLAP>  (1) 
254.313

>  <PUBCHEM_SHAPE_VOLUME>  (1) 
93.8

>  <PUBCHEM_COORDINATE_TYPE>  (1) 
2
5
10

$$$$
