4378
     RDKit          3D

  9  8  0  0  1  0  0  0  0  0999 V2000
   -0.4261    2.0862    0.5088 O   0  0  0  0  0  0  0  0  0  0  0  0
   -1.1339    0.9371   -1.3099 O   0  0  0  0  0  0  0  0  0  0  0  0
   -0.9350   -1.3979    0.1660 N   0  0  0  0  0  0  0  0  0  0  0  0
    1.4165   -0.6182    0.2640 C   0  0  0  0  0  0  0  0  0  0  0  0
   -0.0699   -0.2763    0.5297 C   0  0  0  0  0  0  0  0  0  0  0  0
    2.4151    0.4615    0.6968 C   0  0  0  0  0  0  0  0  0  0  0  0
    1.6533   -1.0028   -1.2002 C   0  0  0  0  0  0  0  0  0  0  0  0
   -0.6076    0.9420   -0.2060 C   0  0  0  0  0  0  0  0  0  0  0  0
   -2.3123   -1.1317    0.5509 C   0  0  0  0  0  0  0  0  0  0  0  0
  1  8  1  0
  2  8  2  0
  3  5  1  0
  3  9  1  0
  4  5  1  0
  4  6  1  0
  4  7  1  0
  5  8  1  0
M  END
>  <PUBCHEM_COMPOUND_CID>  (1) 
4378

>  <PUBCHEM_CONFORMER_RMSD>  (1) 
0.6

>  <PUBCHEM_CONFORMER_DIVERSEORDER>  (1) 
1
8
6
9
5
10
4
11
12
3
7
2

>  <PUBCHEM_MMFF94_PARTIAL_CHARGES>  (1) 
8
1 -0.65
18 0.36
2 -0.57
22 0.5
3 -0.9
5 0.33
8 0.66
9 0.27

>  <PUBCHEM_EFFECTIVE_ROTOR_COUNT>  (1) 
3

>  <PUBCHEM_PHARMACOPHORE_FEATURES>  (1) 
6
1 1 acceptor
1 2 acceptor
1 3 cation
1 3 donor
3 1 2 8 anion
3 4 6 7 hydrophobe

>  <PUBCHEM_HEAVY_ATOM_COUNT>  (1) 
9

>  <PUBCHEM_ATOM_DEF_STEREO_COUNT>  (1) 
0

>  <PUBCHEM_ATOM_UDEF_STEREO_COUNT>  (1) 
1

>  <PUBCHEM_BOND_DEF_STEREO_COUNT>  (1) 
0

>  <PUBCHEM_BOND_UDEF_STEREO_COUNT>  (1) 
0

>  <PUBCHEM_ISOTOPIC_ATOM_COUNT>  (1) 
0

>  <PUBCHEM_COMPONENT_COUNT>  (1) 
1

>  <PUBCHEM_CACTVS_TAUTO_COUNT>  (1) 
1

>  <PUBCHEM_CONFORMER_ID>  (1) 
0000111A00000001

>  <PUBCHEM_MMFF94_ENERGY>  (1) 
12.7585

>  <PUBCHEM_FEATURE_SELFOVERLAP>  (1) 
30.506

>  <PUBCHEM_SHAPE_FINGERPRINT>  (1) 
12423570 1 10349547367260492766
137420 1 7898991787090707694
20653091 64 17537457475534741019
20711978 78 17418104182601058686
21040471 1 17829893135538034544
21922407 69 15720263615745943458
23552449 11 18049164672310961563
24536 1 18199461074297748288
29004967 10 18272374229783905370
5084963 1 17244152517933604330

>  <PUBCHEM_SHAPE_MULTIPOLES>  (1) 
168.5
2.78
1.69
1.08
0.32
0.59
-0.31
-0.78
0.41
-0.48
-0.01
0.16
0.01
0.59

>  <PUBCHEM_SHAPE_SELFOVERLAP>  (1) 
311.506

>  <PUBCHEM_SHAPE_VOLUME>  (1) 
107.3

>  <PUBCHEM_COORDINATE_TYPE>  (1) 
2
5
10

$$$$
