43794
     RDKit          3D

 26 29  0  0  0  0  0  0  0  0999 V2000
    3.9792   -2.4247   -0.4425 O   0  0  0  0  0  0  0  0  0  0  0  0
    1.9286   -3.1779    0.1738 O   0  0  0  0  0  0  0  0  0  0  0  0
    5.2211    3.0289   -0.4740 O   0  0  0  0  0  0  0  0  0  0  0  0
    6.1111    1.0625   -0.8970 O   0  0  0  0  0  0  0  0  0  0  0  0
    0.1231   -0.7807    0.9274 N   0  0  0  0  0  0  0  0  0  0  0  0
   -2.5567   -0.1116    0.4234 N   0  0  0  0  0  0  0  0  0  0  0  0
    2.6522   -2.1706    0.0071 N   0  0  0  0  0  0  0  0  0  0  0  0
    4.6270   -1.2067   -0.5697 N   0  0  0  0  0  0  0  0  0  0  0  0
    5.1402    1.7749   -0.5326 N   0  0  0  0  0  0  0  0  0  0  0  0
   -0.6302   -1.5948   -0.0303 C   0  0  0  0  0  0  0  0  0  0  0  0
   -0.6978   -0.2798    2.0302 C   0  0  0  0  0  0  0  0  0  0  0  0
   -1.7488   -0.7405   -0.6372 C   0  0  0  0  0  0  0  0  0  0  0  0
   -1.8162    0.6041    1.4747 C   0  0  0  0  0  0  0  0  0  0  0  0
    1.3340   -0.1966    0.5726 C   0  0  0  0  0  0  0  0  0  0  0  0
   -3.8543    0.2996    0.0952 C   0  0  0  0  0  0  0  0  0  0  0  0
    2.5005   -0.8565    0.1472 C   0  0  0  0  0  0  0  0  0  0  0  0
    1.5501    1.2092    0.5992 C   0  0  0  0  0  0  0  0  0  0  0  0
    3.7577   -0.2475   -0.2204 C   0  0  0  0  0  0  0  0  0  0  0  0
   -4.8246   -0.6208   -0.3664 C   0  0  0  0  0  0  0  0  0  0  0  0
   -4.2485    1.6533    0.2107 C   0  0  0  0  0  0  0  0  0  0  0  0
    2.7757    1.8479    0.2440 C   0  0  0  0  0  0  0  0  0  0  0  0
    3.9253    1.1487   -0.1786 C   0  0  0  0  0  0  0  0  0  0  0  0
   -6.1168   -0.2103   -0.6942 C   0  0  0  0  0  0  0  0  0  0  0  0
   -5.5408    2.0639   -0.1169 C   0  0  0  0  0  0  0  0  0  0  0  0
   -6.4748    1.1321   -0.5693 C   0  0  0  0  0  0  0  0  0  0  0  0
   -7.1162   -1.2063   -1.1765 C   0  0  0  0  0  0  0  0  0  0  0  0
  1  7  1  0
  1  8  1  0
  2  7  1  0
  3  9  1  0
  4  9  2  0
  5 10  1  0
  5 11  1  0
  5 14  1  0
  6 12  1  0
  6 13  1  0
  6 15  1  0
  7 16  2  0
  8 18  2  0
  9 22  1  0
 10 12  1  0
 11 13  1  0
 14 16  1  0
 14 17  2  0
 15 19  2  0
 15 20  1  0
 16 18  1  0
 17 21  1  0
 18 22  1  0
 19 23  1  0
 20 24  2  0
 21 22  2  0
 23 25  2  0
 23 26  1  0
 24 25  1  0
M  CHG  4   2  -1   3  -1   7   1   9   1
M  END
>  <PUBCHEM_COMPOUND_CID>  (1) 
43794

>  <PUBCHEM_CONFORMER_RMSD>  (1) 
0.8

>  <PUBCHEM_CONFORMER_DIVERSEORDER>  (1) 
3
16
5
2
19
24
4
18
23
20
6
11
21
7
10
15
25
12
22
1
9
14
26
8
17
13

>  <PUBCHEM_MMFF94_PARTIAL_CHARGES>  (1) 
32
1 -0.12
10 0.37
11 0.37
12 0.37
13 0.37
14 0.1
15 0.1
16 -0.08
17 -0.15
18 0.29
19 -0.15
2 -0.63
20 -0.15
21 -0.15
22 0.13
23 -0.14
24 -0.15
25 -0.15
26 0.14
3 -0.52
35 0.15
36 0.15
37 0.15
38 0.15
39 0.15
4 -0.52
40 0.15
5 -0.84
6 -0.84
7 0.95
8 -0.41
9 0.91

>  <PUBCHEM_EFFECTIVE_ROTOR_COUNT>  (1) 
4.2

>  <PUBCHEM_PHARMACOPHORE_FEATURES>  (1) 
11
1 2 anion
1 3 acceptor
1 3 anion
1 4 acceptor
1 5 cation
1 6 cation
1 8 acceptor
5 1 7 8 16 18 rings
6 14 16 17 18 21 22 rings
6 15 19 20 23 24 25 rings
6 5 6 10 11 12 13 rings

>  <PUBCHEM_HEAVY_ATOM_COUNT>  (1) 
26

>  <PUBCHEM_ATOM_DEF_STEREO_COUNT>  (1) 
0

>  <PUBCHEM_ATOM_UDEF_STEREO_COUNT>  (1) 
0

>  <PUBCHEM_BOND_DEF_STEREO_COUNT>  (1) 
0

>  <PUBCHEM_BOND_UDEF_STEREO_COUNT>  (1) 
0

>  <PUBCHEM_ISOTOPIC_ATOM_COUNT>  (1) 
0

>  <PUBCHEM_COMPONENT_COUNT>  (1) 
1

>  <PUBCHEM_CACTVS_TAUTO_COUNT>  (1) 
1

>  <PUBCHEM_CONFORMER_ID>  (1) 
0000AB1200000003

>  <PUBCHEM_MMFF94_ENERGY>  (1) 
106.3792

>  <PUBCHEM_FEATURE_SELFOVERLAP>  (1) 
56.036

>  <PUBCHEM_SHAPE_FINGERPRINT>  (1) 
10299344 5 18060701698441423283
10411042 1 17760648071455969370
10595046 47 18412542094502725773
10693767 8 17987247642800344174
12107183 9 17621039755618478889
12236239 1 17989205910877556363
12730499 353 18261118473495084539
12788726 201 17346325855858086457
13668630 136 16773803618677332133
14528608 73 18410292502001576399
14681490 219 18409728439536451285
14931854 50 18130799970758187108
14933364 13 18409731747240770877
14955137 171 12179833997291755752
15183329 4 18342177739444346489
15348495 7 9727626220544168581
15961568 22 18040151816658619589
16989378 47 16915121529224395766
17349148 13 16271928199221372723
17844677 252 18340209601141104557
18222031 100 14692567715140566913
18335252 98 18336270145668946251
18608769 82 18265618878183822891
18681886 176 18060127713630907106
20157964 124 18408886230528959685
2026 5 14835025888466673900
20554085 129 17988068024592847184
20612939 158 18411984624262962042
20645477 70 18272091552411693054
21033648 29 16371002958960016461
21150785 3 18272369810779392565
21521239 73 17703523134060374326
221357 26 18410570644105264517
22393880 68 18059855129452133724
23522609 53 17845675706639347817
23559900 14 18129087928169476971
2838139 119 18259701207470887141
29717793 49 17846222107524094622
3004659 81 18200872872834553898
312425 54 10592041367259495101
335352 9 18410016546891310726
3472631 163 16805608126329156836
34797466 226 18343026575601096071
4073 2 18187368740379950675
46194498 28 18339360755967036598
497634 4 18413103945372242269
59682541 52 18339072688632205783
6327066 14 18119251916391496940
633830 44 18259979345510826771
7495541 125 17346306125326785483

>  <PUBCHEM_SHAPE_MULTIPOLES>  (1) 
486.69
16.49
2.58
1.09
12.77
0.22
0.4
-5.04
-7.25
-2.88
-0.34
0.37
0
-0.89

>  <PUBCHEM_SHAPE_SELFOVERLAP>  (1) 
1058.985

>  <PUBCHEM_SHAPE_VOLUME>  (1) 
265.4

>  <PUBCHEM_COORDINATE_TYPE>  (1) 
2
5
10

$$$$
