43790
     RDKit          3D

 16 18  0  0  0  0  0  0  0  0999 V2000
   -0.3318   -2.6890   -0.0038 O   0  0  0  0  0  0  0  0  0  0  0  0
    1.9334   -2.5498    0.0187 O   0  0  0  0  0  0  0  0  0  0  0  0
   -3.5651    1.8767   -0.0088 O   0  0  0  0  0  0  0  0  0  0  0  0
   -3.6960   -0.3146   -0.0240 O   0  0  0  0  0  0  0  0  0  0  0  0
    2.7916    0.4239    0.0423 N   0  0  0  0  0  0  0  0  0  0  0  0
    0.8590   -1.9081    0.0116 N   0  0  0  0  0  0  0  0  0  0  0  0
   -1.4112   -1.8208   -0.0099 N   0  0  0  0  0  0  0  0  0  0  0  0
   -3.0154    0.7443   -0.0109 N   0  0  0  0  0  0  0  0  0  0  0  0
    3.5738    1.4873    0.6859 C   0  0  0  0  0  0  0  0  0  0  0  0
    3.5820    1.3385   -0.7919 C   0  0  0  0  0  0  0  0  0  0  0  0
    1.3749    0.4714    0.0291 C   0  0  0  0  0  0  0  0  0  0  0  0
    0.5180   -0.6223    0.0151 C   0  0  0  0  0  0  0  0  0  0  0  0
    0.6711    1.6907    0.0288 C   0  0  0  0  0  0  0  0  0  0  0  0
   -0.9255   -0.5712    0.0013 C   0  0  0  0  0  0  0  0  0  0  0  0
   -1.6062    0.6602    0.0010 C   0  0  0  0  0  0  0  0  0  0  0  0
   -0.7527    1.7827    0.0155 C   0  0  0  0  0  0  0  0  0  0  0  0
  1  6  1  0
  1  7  1  0
  2  6  1  0
  3  8  1  0
  4  8  2  0
  5  9  1  0
  5 10  1  0
  5 11  1  0
  6 12  2  0
  7 14  2  0
  8 15  1  0
  9 10  1  0
 11 12  1  0
 11 13  2  0
 12 14  1  0
 13 16  1  0
 14 15  1  0
 15 16  2  0
M  CHG  4   2  -1   3  -1   6   1   8   1
M  END
>  <PUBCHEM_COMPOUND_CID>  (1) 
43790

>  <PUBCHEM_CONFORMER_RMSD>  (1) 
0.6

>  <PUBCHEM_CONFORMER_DIVERSEORDER>  (1) 
1

>  <PUBCHEM_MMFF94_PARTIAL_CHARGES>  (1) 
22
1 -0.12
10 -0.03
11 0.1
12 -0.08
13 -0.15
14 0.29
15 0.13
16 -0.15
17 0.1
18 0.1
19 0.1
2 -0.63
20 0.1
21 0.15
22 0.15
3 -0.52
4 -0.52
5 -0.44
6 0.95
7 -0.41
8 0.91
9 -0.03

>  <PUBCHEM_EFFECTIVE_ROTOR_COUNT>  (1) 
2.6

>  <PUBCHEM_PHARMACOPHORE_FEATURES>  (1) 
8
1 2 anion
1 3 acceptor
1 3 anion
1 4 acceptor
1 5 cation
1 7 acceptor
5 1 6 7 12 14 rings
6 11 12 13 14 15 16 rings

>  <PUBCHEM_HEAVY_ATOM_COUNT>  (1) 
16

>  <PUBCHEM_ATOM_DEF_STEREO_COUNT>  (1) 
0

>  <PUBCHEM_ATOM_UDEF_STEREO_COUNT>  (1) 
0

>  <PUBCHEM_BOND_DEF_STEREO_COUNT>  (1) 
0

>  <PUBCHEM_BOND_UDEF_STEREO_COUNT>  (1) 
0

>  <PUBCHEM_ISOTOPIC_ATOM_COUNT>  (1) 
0

>  <PUBCHEM_COMPONENT_COUNT>  (1) 
1

>  <PUBCHEM_CACTVS_TAUTO_COUNT>  (1) 
1

>  <PUBCHEM_CONFORMER_ID>  (1) 
0000AB0E00000001

>  <PUBCHEM_MMFF94_ENERGY>  (1) 
64.5508

>  <PUBCHEM_FEATURE_SELFOVERLAP>  (1) 
40.807

>  <PUBCHEM_SHAPE_FINGERPRINT>  (1) 
10967382 1 18410573998046935016
10980938 120 18409730638310929553
11132069 177 18337949094954216600
11543360 7 15697989786263128165
11680986 33 18336274452650732010
12173636 292 18265614479762875964
13140716 1 17834117815973908235
13380535 21 18410582781249994987
13380535 76 18409164437035818002
14617773 55 17558553504410131633
14897335 6 18411131446189519662
15536298 74 18271524187242141990
16945 1 18338797926320158713
18186145 218 18271535199375161444
193761 8 17834395622758754600
20510252 161 18055358191139957888
20588541 1 18410013260049280329
20645476 183 17896615057766396868
20645477 70 18197491827898524517
21501502 16 18411131403487954899
21524375 3 18335414686128625434
2334 1 18338797810445725481
23402539 116 18270669995329629900
23402655 69 18269259198391480469
23419403 2 17172622689746476366
23463225 33 18334006177684955424
23559900 14 18272094950701657908
2748010 2 18337399244550652415
3071541 12 18195812864319687532
3071541 37 18335987467130441964
43471831 8 18408318891166727178
528862 383 18261949644124160938
528886 8 18339074990423485312
53812653 166 18343017834741398280
54173680 148 18049161373491273971
7364860 26 18198059175497659814
81228 2 17761199312594169034
81539 233 18187079529386008509
84936 182 18129937854214354137

>  <PUBCHEM_SHAPE_MULTIPOLES>  (1) 
285.87
5.51
2.68
0.65
0.26
1.7
0.01
-3.07
0.1
-0.11
-0.02
0.33
-0.12
0

>  <PUBCHEM_SHAPE_SELFOVERLAP>  (1) 
622.765

>  <PUBCHEM_SHAPE_VOLUME>  (1) 
157.4

>  <PUBCHEM_COORDINATE_TYPE>  (1) 
2
5
10

$$$$
