4380
     RDKit          2D

 17 17  0  0  1  0  0  0  0  0999 V2000
    0.0000    0.0000    0.0000 Cl  0  0  0  0  0  0  0  0  0  0  0  0
    0.0000    0.0000    0.0000 Cl  0  0  0  0  0  0  0  0  0  0  0  0
    0.0000    0.0000    0.0000 O   0  0  0  0  0  0  0  0  0  0  0  0
    0.0000    0.0000    0.0000 N   0  0  0  0  0  0  0  0  0  0  0  0
    0.0000    0.0000    0.0000 C   0  0  0  0  0  0  0  0  0  0  0  0
    0.0000    0.0000    0.0000 C   0  0  0  0  0  0  0  0  0  0  0  0
    0.0000    0.0000    0.0000 C   0  0  0  0  0  0  0  0  0  0  0  0
    0.0000    0.0000    0.0000 C   0  0  0  0  0  0  0  0  0  0  0  0
    0.0000    0.0000    0.0000 C   0  0  0  0  0  0  0  0  0  0  0  0
    0.0000    0.0000    0.0000 C   0  0  0  0  0  0  0  0  0  0  0  0
    0.0000    0.0000    0.0000 C   0  0  0  0  0  0  0  0  0  0  0  0
    0.0000    0.0000    0.0000 C   0  0  0  0  0  0  0  0  0  0  0  0
    0.0000    0.0000    0.0000 C   0  0  0  0  0  0  0  0  0  0  0  0
    0.0000    0.0000    0.0000 C   0  0  0  0  0  0  0  0  0  0  0  0
    0.0000    0.0000    0.0000 C   0  0  0  0  0  0  0  0  0  0  0  0
    0.0000    0.0000    0.0000 C   0  0  0  0  0  0  0  0  0  0  0  0
    0.0000    0.0000    0.0000 C   0  0  0  0  0  0  0  0  0  0  0  0
  1 11  1  0
  2 16  1  0
  3  7  1  0
  3 10  1  0
  4  5  1  0
  4  8  1  0
  4  9  1  0
  5  6  1  0
  6  7  1  0
  8 13  1  0
 10 11  2  0
 10 12  1  0
 11 14  1  0
 12 15  2  0
 13 17  3  0
 14 16  2  0
 15 16  1  0
M  END
>  <PUBCHEM_COMPOUND_CID>  (1) 
4380

>  <PUBCHEM_CONFORMER_RMSD>  (1) 
0.8

>  <PUBCHEM_CONFORMER_DIVERSEORDER>  (1) 
18
116
196
191
259
178
261
262
36
185
156
135
222
102
150
140
224
13
170
253
251
246
221
87
237
103
213
52
217
250
225
166
255
124
132
230
84
236
168
92
155
235
66
244
252
90
130
254
161
218
129
118
195
119
105
202
20
179
3
216
214
68
45
81
209
223
2
123
211
205
247
175
26
74
8
233
220
30
9
204
56
41
229
16
97
257
82
98
165
19
248
139
71
219
96
184
152
1
212
144
190
95
39
193
23
109
110
148
200
72
256
28
11
186
44
158
245
57
189
126
29
232
146
101
113
64
151
106
121
163
240
78
203
138
53
263
5
115
100
183
70
226
141
79
88
76
258
14
173
107
25
133
198
62
114
177
60
48
93
67
134
160
125
228
80
99
7
54
15
188
239
120
192
61
194
231
149
207
227
169
51
122
159
242
127
206
10
21
65
162
187
260
174
167
91
147
182
199
24
208
27
234
164
86
94
40
6
172
117
112
201
89
85
31
215
153
38
17
176
59
43
137
12
108
128
50
34
35
210
154
42
157
145
171
46
32
197
181
77
49
75
33
142
243
83
180
22
4
136
58
143
47
241
111
55
131
104
37
63
73
69
249
238

>  <PUBCHEM_MMFF94_PARTIAL_CHARGES>  (1) 
20
1 -0.18
10 0.08
11 0.18
12 -0.15
13 -0.2
14 -0.15
15 -0.15
16 0.18
17 -0.18
2 -0.18
29 0.15
3 -0.36
30 0.15
31 0.15
32 0.18
4 -0.81
5 0.27
7 0.28
8 0.47
9 0.27

>  <PUBCHEM_EFFECTIVE_ROTOR_COUNT>  (1) 
6

>  <PUBCHEM_PHARMACOPHORE_FEATURES>  (1) 
4
1 17 hydrophobe
1 3 acceptor
1 4 cation
6 10 11 12 14 15 16 rings

>  <PUBCHEM_HEAVY_ATOM_COUNT>  (1) 
17

>  <PUBCHEM_ATOM_DEF_STEREO_COUNT>  (1) 
0

>  <PUBCHEM_ATOM_UDEF_STEREO_COUNT>  (1) 
0

>  <PUBCHEM_BOND_DEF_STEREO_COUNT>  (1) 
0

>  <PUBCHEM_BOND_UDEF_STEREO_COUNT>  (1) 
0

>  <PUBCHEM_ISOTOPIC_ATOM_COUNT>  (1) 
0

>  <PUBCHEM_COMPONENT_COUNT>  (1) 
1

>  <PUBCHEM_CACTVS_TAUTO_COUNT>  (1) 
1

$$$$
