43806
     RDKit          3D

  8  8  0  0  1  0  0  0  0  0999 V2000
   -1.0389    1.6578    0.8897 N   0  0  0  0  0  0  0  0  0  0  0  0
    1.9706    0.3038   -0.8683 N   0  0  0  0  0  0  0  0  0  0  0  0
   -0.2673    1.1435   -0.2487 C   0  0  0  0  0  0  0  0  0  0  0  0
    1.0527    0.5209    0.2567 C   0  0  0  0  0  0  0  0  0  0  0  0
   -1.1223    0.1285   -1.0262 C   0  0  0  0  0  0  0  0  0  0  0  0
    0.8068   -0.7951    1.0163 C   0  0  0  0  0  0  0  0  0  0  0  0
   -1.3551   -1.1683   -0.2494 C   0  0  0  0  0  0  0  0  0  0  0  0
   -0.0467   -1.7911    0.2300 C   0  0  0  0  0  0  0  0  0  0  0  0
  1  3  1  0
  2  4  1  0
  3  4  1  0
  3  5  1  0
  4  6  1  0
  5  7  1  0
  6  8  1  0
  7  8  1  0
M  END
>  <PUBCHEM_COMPOUND_CID>  (1) 
43806

>  <PUBCHEM_CONFORMER_RMSD>  (1) 
0.4

>  <PUBCHEM_CONFORMER_DIVERSEORDER>  (1) 
1
2

>  <PUBCHEM_MMFF94_PARTIAL_CHARGES>  (1) 
8
1 -0.99
19 0.36
2 -0.99
20 0.36
21 0.36
22 0.36
3 0.27
4 0.27

>  <PUBCHEM_EFFECTIVE_ROTOR_COUNT>  (1) 
1.2

>  <PUBCHEM_PHARMACOPHORE_FEATURES>  (1) 
5
1 1 cation
1 1 donor
1 2 cation
1 2 donor
6 3 4 5 6 7 8 rings

>  <PUBCHEM_HEAVY_ATOM_COUNT>  (1) 
8

>  <PUBCHEM_ATOM_DEF_STEREO_COUNT>  (1) 
2

>  <PUBCHEM_ATOM_UDEF_STEREO_COUNT>  (1) 
0

>  <PUBCHEM_BOND_DEF_STEREO_COUNT>  (1) 
0

>  <PUBCHEM_BOND_UDEF_STEREO_COUNT>  (1) 
0

>  <PUBCHEM_ISOTOPIC_ATOM_COUNT>  (1) 
0

>  <PUBCHEM_COMPONENT_COUNT>  (1) 
1

>  <PUBCHEM_CACTVS_TAUTO_COUNT>  (1) 
1

>  <PUBCHEM_CONFORMER_ID>  (1) 
0000AB1E00000001

>  <PUBCHEM_MMFF94_ENERGY>  (1) 
-2.7333

>  <PUBCHEM_FEATURE_SELFOVERLAP>  (1) 
25.371

>  <PUBCHEM_SHAPE_FINGERPRINT>  (1) 
12423570 1 10834164190823964805
137420 1 10207100980011033896
18185500 45 18048285908890353599
21040471 1 18044067241756919471
29004967 10 17555465281137281540
5943 1 15763907849094387020

>  <PUBCHEM_SHAPE_MULTIPOLES>  (1) 
154.67
1.8
1.74
1.05
0.48
0.13
0
-0.19
0.16
-0.27
-0.14
-0.19
0.04
0.46

>  <PUBCHEM_SHAPE_SELFOVERLAP>  (1) 
296.217

>  <PUBCHEM_SHAPE_VOLUME>  (1) 
93.4

>  <PUBCHEM_COORDINATE_TYPE>  (1) 
2
5
10

$$$$
