43817
     RDKit          3D

 25 29  0  0  0  0  0  0  0  0999 V2000
   -3.3062   -1.8197   -0.2736 O   0  0  0  0  0  0  0  0  0  0  0  0
   -2.6230    0.4010    0.0869 N   0  0  0  0  0  0  0  0  0  0  0  0
   -7.6331    0.5448    0.0438 N   0  0  0  0  0  0  0  0  0  0  0  0
    3.0425    0.0574    0.0128 C   0  0  0  0  0  0  0  0  0  0  0  0
    5.2343    1.3699    0.2213 C   0  0  0  0  0  0  0  0  0  0  0  0
    5.1038   -0.9743    1.1153 C   0  0  0  0  0  0  0  0  0  0  0  0
    5.0971   -0.5678   -1.3719 C   0  0  0  0  0  0  0  0  0  0  0  0
    3.6986    1.4548    0.2392 C   0  0  0  0  0  0  0  0  0  0  0  0
    3.5678   -0.8827    1.1381 C   0  0  0  0  0  0  0  0  0  0  0  0
    3.5610   -0.4751   -1.3561 C   0  0  0  0  0  0  0  0  0  0  0  0
    5.7010    0.4226    1.3355 C   0  0  0  0  0  0  0  0  0  0  0  0
    5.6941    0.8270   -1.1389 C   0  0  0  0  0  0  0  0  0  0  0  0
    5.5594   -1.5129   -0.2507 C   0  0  0  0  0  0  0  0  0  0  0  0
    1.5542    0.1478    0.0318 C   0  0  0  0  0  0  0  0  0  0  0  0
    0.9325    1.3798    0.2350 C   0  0  0  0  0  0  0  0  0  0  0  0
    0.7832   -1.0001   -0.1530 C   0  0  0  0  0  0  0  0  0  0  0  0
   -0.4597    1.4641    0.2536 C   0  0  0  0  0  0  0  0  0  0  0  0
   -0.6091   -0.9159   -0.1347 C   0  0  0  0  0  0  0  0  0  0  0  0
   -1.2306    0.3163    0.0685 C   0  0  0  0  0  0  0  0  0  0  0  0
   -3.5525   -0.6343   -0.0792 C   0  0  0  0  0  0  0  0  0  0  0  0
   -4.9800   -0.2220   -0.0363 C   0  0  0  0  0  0  0  0  0  0  0  0
   -5.9246   -1.1349    0.3680 C   0  0  0  0  0  0  0  0  0  0  0  0
   -5.3135    1.0603   -0.4019 C   0  0  0  0  0  0  0  0  0  0  0  0
   -7.2404   -0.7015    0.3910 C   0  0  0  0  0  0  0  0  0  0  0  0
   -6.6567    1.3954   -0.3445 C   0  0  0  0  0  0  0  0  0  0  0  0
  1 20  2  0
  2 19  1  0
  2 20  1  0
  3 24  2  0
  3 25  1  0
  4  8  1  0
  4  9  1  0
  4 10  1  0
  4 14  1  0
  5  8  1  0
  5 11  1  0
  5 12  1  0
  6  9  1  0
  6 11  1  0
  6 13  1  0
  7 10  1  0
  7 12  1  0
  7 13  1  0
 14 15  2  0
 14 16  1  0
 15 17  1  0
 16 18  2  0
 17 19  2  0
 18 19  1  0
 20 21  1  0
 21 22  2  0
 21 23  1  0
 22 24  1  0
 23 25  2  0
M  END
>  <PUBCHEM_COMPOUND_CID>  (1) 
43817

>  <PUBCHEM_CONFORMER_RMSD>  (1) 
0.8

>  <PUBCHEM_CONFORMER_DIVERSEORDER>  (1) 
1

>  <PUBCHEM_MMFF94_PARTIAL_CHARGES>  (1) 
25
1 -0.57
14 -0.14
15 -0.15
16 -0.15
17 -0.15
18 -0.15
19 0.12
2 -0.55
20 0.54
21 0.09
22 -0.15
23 -0.15
24 0.16
25 0.16
3 -0.62
4 0.14
41 0.15
42 0.15
43 0.15
44 0.15
45 0.37
46 0.15
47 0.15
48 0.15
49 0.15

>  <PUBCHEM_EFFECTIVE_ROTOR_COUNT>  (1) 
5.2

>  <PUBCHEM_PHARMACOPHORE_FEATURES>  (1) 
9
1 1 acceptor
1 2 donor
1 3 acceptor
6 14 15 16 17 18 19 rings
6 3 21 22 23 24 25 rings
6 4 5 6 8 9 11 rings
6 4 5 7 8 10 12 rings
6 4 6 7 9 10 13 rings
6 5 6 7 11 12 13 rings

>  <PUBCHEM_HEAVY_ATOM_COUNT>  (1) 
25

>  <PUBCHEM_ATOM_DEF_STEREO_COUNT>  (1) 
0

>  <PUBCHEM_ATOM_UDEF_STEREO_COUNT>  (1) 
0

>  <PUBCHEM_BOND_DEF_STEREO_COUNT>  (1) 
0

>  <PUBCHEM_BOND_UDEF_STEREO_COUNT>  (1) 
0

>  <PUBCHEM_ISOTOPIC_ATOM_COUNT>  (1) 
0

>  <PUBCHEM_COMPONENT_COUNT>  (1) 
1

>  <PUBCHEM_CACTVS_TAUTO_COUNT>  (1) 
2

>  <PUBCHEM_CONFORMER_ID>  (1) 
0000AB2900000001

>  <PUBCHEM_MMFF94_ENERGY>  (1) 
87.1095

>  <PUBCHEM_FEATURE_SELFOVERLAP>  (1) 
58.144

>  <PUBCHEM_SHAPE_FINGERPRINT>  (1) 
10299344 5 17748828510165945115
10638233 991 16081095887220244213
11524674 6 17489586775587854999
11578080 2 14274891921240556028
11646440 116 17918281965368464603
11719270 70 18272650125730435199
11796584 16 18341331175436099258
11963148 33 18410288121067655487
12166972 35 18040720272723171349
12236239 1 17967814942091998467
12516196 113 17704353281865209681
13533116 47 17603861161950380946
13685833 64 18410577305831142595
13914758 101 15195291898366643571
14251752 14 18187363203961078557
14251764 18 18408322203440775163
14294032 229 17752208284219508693
14856354 85 16877951555542995267
14933364 13 18334859420283263693
15142383 8 18040426672836960365
15183329 4 18410577267107995033
15419008 42 18054785088237303357
17844677 252 18334579044554891485
20157964 124 17632858633680634912
20281389 69 18186518796184643541
21130935 74 18343302552920084043
21150785 3 17748834024888018812
21236236 1 17845941728202498777
21267235 1 18411419476209529114
21792934 111 18270951367607076632
220451 1 17458063768091297299
23035841 295 16008748013870671361
23081809 10 17676205775619825551
23198884 109 16588026810339632657
23522609 53 18043276594318873925
23536379 177 17530682096005862249
23559900 14 18130781313462328313
239999 70 18272092704100972038
24771293 8 18128519660983486648
29717793 49 17917996066143064860
3004659 81 18334861614895423068
34797466 226 16486978422886795288
397830 11 16486113171623419275
4073 2 17822858704925258586
4325135 7 18408044026756569428
4340502 62 16805318899084358858
4463277 17 18410011044183746209
465052 167 18413110563209768614
542803 24 16732702752996835447
59755656 215 18342742879683435055
59755656 520 17240481429867986579

>  <PUBCHEM_SHAPE_MULTIPOLES>  (1) 
498.66
20.57
1.57
1.03
27.1
0.09
0.06
0.12
-0.14
-0.1
-0.03
-1.72
-0.09
0.33

>  <PUBCHEM_SHAPE_SELFOVERLAP>  (1) 
1112.703

>  <PUBCHEM_SHAPE_VOLUME>  (1) 
256.9

>  <PUBCHEM_COORDINATE_TYPE>  (1) 
2
5
10

$$$$
