43839
     RDKit          3D

 22 23  0  0  0  0  0  0  0  0999 V2000
   -6.6715    1.7417   -0.6120 Cl  0  0  0  0  0  0  0  0  0  0  0  0
    2.2545    1.5329    0.8704 O   0  0  0  0  0  0  0  0  0  0  0  0
    1.6393   -5.0870   -0.4897 O   0  0  0  0  0  0  0  0  0  0  0  0
    1.2769   -3.1879   -1.6796 O   0  0  0  0  0  0  0  0  0  0  0  0
    4.3040    2.4164    0.0030 C   0  0  0  0  0  0  0  0  0  0  0  0
   -1.0438    0.0383    0.3474 C   0  0  0  0  0  0  0  0  0  0  0  0
    3.5615    1.1655    0.4510 C   0  0  0  0  0  0  0  0  0  0  0  0
    0.5885   -1.7170    0.6492 C   0  0  0  0  0  0  0  0  0  0  0  0
    1.2695    0.5913    0.7214 C   0  0  0  0  0  0  0  0  0  0  0  0
    5.7156    2.0922   -0.4775 C   0  0  0  0  0  0  0  0  0  0  0  0
   -0.7290   -1.3183    0.4236 C   0  0  0  0  0  0  0  0  0  0  0  0
   -0.0411    0.9963    0.4966 C   0  0  0  0  0  0  0  0  0  0  0  0
    1.5913   -0.7590    0.7987 C   0  0  0  0  0  0  0  0  0  0  0  0
   -2.4106    0.4520    0.1149 C   0  0  0  0  0  0  0  0  0  0  0  0
    0.9261   -3.1675    0.7302 C   0  0  0  0  0  0  0  0  0  0  0  0
    6.4384    3.3378   -0.9644 C   0  0  0  0  0  0  0  0  0  0  0  0
   -3.4656   -0.3401    0.5676 C   0  0  0  0  0  0  0  0  0  0  0  0
   -2.6734    1.6428   -0.5627 C   0  0  0  0  0  0  0  0  0  0  0  0
    1.2899   -3.7789   -0.6086 C   0  0  0  0  0  0  0  0  0  0  0  0
   -4.7833    0.0582    0.3427 C   0  0  0  0  0  0  0  0  0  0  0  0
   -3.9910    2.0413   -0.7875 C   0  0  0  0  0  0  0  0  0  0  0  0
   -5.0462    1.2491   -0.3347 C   0  0  0  0  0  0  0  0  0  0  0  0
  1 22  1  0
  2  7  1  0
  2  9  1  0
  3 19  1  0
  4 19  2  0
  5  7  1  0
  5 10  1  0
  6 11  1  0
  6 12  2  0
  6 14  1  0
  8 11  2  0
  8 13  1  0
  8 15  1  0
  9 12  1  0
  9 13  2  0
 10 16  1  0
 14 17  2  0
 14 18  1  0
 15 19  1  0
 17 20  1  0
 18 21  2  0
 20 22  2  0
 21 22  1  0
M  END
>  <PUBCHEM_COMPOUND_CID>  (1) 
43839

>  <PUBCHEM_CONFORMER_RMSD>  (1) 
0.8

>  <PUBCHEM_CONFORMER_DIVERSEORDER>  (1) 
1
25
18
48
70
16
55
44
7
8
50
67
78
61
33
34
22
21
15
42
27
74
49
62
51
77
64
68
17
72
28
38
46
12
10
31
20
43
14
23
37
30
26
41
4
5
54
13
59
40
69
76
65
53
32
36
58
29
2
45
63
3
19
6
60
66
9
35
73
75
39
11
52
56
24
71
57
47

>  <PUBCHEM_MMFF94_PARTIAL_CHARGES>  (1) 
25
1 -0.18
11 -0.15
12 -0.15
13 -0.15
15 0.2
17 -0.15
18 -0.15
19 0.66
2 -0.36
20 -0.15
21 -0.15
22 0.18
29 0.15
3 -0.65
30 0.15
31 0.15
37 0.15
38 0.15
39 0.15
4 -0.57
40 0.15
41 0.5
7 0.28
8 -0.14
9 0.08

>  <PUBCHEM_EFFECTIVE_ROTOR_COUNT>  (1) 
7

>  <PUBCHEM_PHARMACOPHORE_FEATURES>  (1) 
7
1 16 hydrophobe
1 2 acceptor
1 3 acceptor
1 4 acceptor
3 3 4 19 anion
6 14 17 18 20 21 22 rings
6 6 8 9 11 12 13 rings

>  <PUBCHEM_HEAVY_ATOM_COUNT>  (1) 
22

>  <PUBCHEM_ATOM_DEF_STEREO_COUNT>  (1) 
0

>  <PUBCHEM_ATOM_UDEF_STEREO_COUNT>  (1) 
0

>  <PUBCHEM_BOND_DEF_STEREO_COUNT>  (1) 
0

>  <PUBCHEM_BOND_UDEF_STEREO_COUNT>  (1) 
0

>  <PUBCHEM_ISOTOPIC_ATOM_COUNT>  (1) 
0

>  <PUBCHEM_COMPONENT_COUNT>  (1) 
1

>  <PUBCHEM_CACTVS_TAUTO_COUNT>  (1) 
1

>  <PUBCHEM_CONFORMER_ID>  (1) 
0000AB3F00000001

>  <PUBCHEM_MMFF94_ENERGY>  (1) 
58.3719

>  <PUBCHEM_FEATURE_SELFOVERLAP>  (1) 
35.579

>  <PUBCHEM_SHAPE_FINGERPRINT>  (1) 
10369192 42 18261675964587504765
105312 117 18264774427483607876
107951 10 18199473332377407726
12293681 160 17988648531713451368
12730499 353 18411141316546501643
12788726 201 17758666034058114594
12895836 83 18263644142442088256
12895837 130 17609224790552091060
13257819 101 17531228566059064693
13257819 37 18265625440756252942
13533116 47 18129370515916932353
13540713 4 18115037303669708347
13757389 114 18119257404847628268
13911987 19 18340772631987449849
14508225 48 17404578879714875190
14790565 3 18336267932838239688
15961568 22 17894346670557776773
167882 2 18410294679734995034
17539 30 17693653028188393774
17980427 23 17313385694481138173
1813 80 17413307962604661535
18915476 22 18340218405449788475
20554085 129 18130488808861804936
20645477 70 18268700611871253467
21781055 127 18201160967136791808
23366157 5 18119250562642653842
23559900 14 18048869698605460955
23598288 3 17537733466059558978
293599 30 18335421322138590600
3103668 31 17834103526877151903
3298306 158 18341619235103804126
3388396 114 16172302911007973396
3411729 13 18261105236310594945
38695281 34 18411419540058908724
44249763 50 17980200009563775772
46194498 28 18266172830085352367
5104073 3 18042405734550331009
5219985 13 18334853969912080748
60123966 16 17974267843187666501
6025842 7 18340760447549592727
6327066 14 18261953058892816916
6669772 16 18272096011104724438
6898599 12 17975984481734612396
7364860 26 18269830922034419027
77188 2 17689150111260636066
81228 2 17332223807277441787
9709674 26 18338229342208636155
9841814 1 17973999544891136019

>  <PUBCHEM_SHAPE_MULTIPOLES>  (1) 
437.01
12.77
4.99
1.03
0.77
7.07
-0.18
-18.33
-3.58
-6.73
-2.01
-0.35
0.32
0.39

>  <PUBCHEM_SHAPE_SELFOVERLAP>  (1) 
911.409

>  <PUBCHEM_SHAPE_VOLUME>  (1) 
250.1

>  <PUBCHEM_COORDINATE_TYPE>  (1) 
2
5
10

$$$$
