43841
     RDKit          3D

 23 24  0  0  0  0  0  0  0  0999 V2000
    4.8750   -4.5675   -0.5941 Cl  0  0  0  0  0  0  0  0  0  0  0  0
   -2.3830    0.5380    1.1901 O   0  0  0  0  0  0  0  0  0  0  0  0
    1.5633    5.6595   -0.8669 O   0  0  0  0  0  0  0  0  0  0  0  0
    0.7482    3.7903   -1.8648 O   0  0  0  0  0  0  0  0  0  0  0  0
   -4.4382   -0.3980    0.3941 C   0  0  0  0  0  0  0  0  0  0  0  0
   -5.1123   -1.6154   -0.2349 C   0  0  0  0  0  0  0  0  0  0  0  0
   -2.9512   -0.6323    0.6188 C   0  0  0  0  0  0  0  0  0  0  0  0
   -6.5958   -1.3567   -0.4960 C   0  0  0  0  0  0  0  0  0  0  0  0
   -1.0632    0.7834    0.9131 C   0  0  0  0  0  0  0  0  0  0  0  0
    1.1441   -0.0306    0.4004 C   0  0  0  0  0  0  0  0  0  0  0  0
    0.7390    2.3445    0.5786 C   0  0  0  0  0  0  0  0  0  0  0  0
   -0.1986   -0.2808    0.6841 C   0  0  0  0  0  0  0  0  0  0  0  0
   -0.6035    2.0943    0.8624 C   0  0  0  0  0  0  0  0  0  0  0  0
    1.6129    1.2820    0.3477 C   0  0  0  0  0  0  0  0  0  0  0  0
   -7.2630   -2.5543   -1.1534 C   0  0  0  0  0  0  0  0  0  0  0  0
    2.0498   -1.1328    0.1599 C   0  0  0  0  0  0  0  0  0  0  0  0
    1.2393    3.7483    0.5199 C   0  0  0  0  0  0  0  0  0  0  0  0
    3.4003   -1.0100    0.4873 C   0  0  0  0  0  0  0  0  0  0  0  0
    1.5732   -2.3181   -0.4004 C   0  0  0  0  0  0  0  0  0  0  0  0
    1.1461    4.3659   -0.8615 C   0  0  0  0  0  0  0  0  0  0  0  0
    4.2738   -2.0722    0.2544 C   0  0  0  0  0  0  0  0  0  0  0  0
    2.4469   -3.3803   -0.6330 C   0  0  0  0  0  0  0  0  0  0  0  0
    3.7971   -3.2575   -0.3057 C   0  0  0  0  0  0  0  0  0  0  0  0
  1 23  1  0
  2  7  1  0
  2  9  1  0
  3 20  1  0
  4 20  2  0
  5  6  1  0
  5  7  1  0
  6  8  1  0
  8 15  1  0
  9 12  2  0
  9 13  1  0
 10 12  1  0
 10 14  2  0
 10 16  1  0
 11 13  2  0
 11 14  1  0
 11 17  1  0
 16 18  2  0
 16 19  1  0
 17 20  1  0
 18 21  1  0
 19 22  2  0
 21 23  2  0
 22 23  1  0
M  END
>  <PUBCHEM_COMPOUND_CID>  (1) 
43841

>  <PUBCHEM_CONFORMER_RMSD>  (1) 
0.8

>  <PUBCHEM_CONFORMER_DIVERSEORDER>  (1) 
1
58
160
80
122
88
64
170
109
128
117
86
119
132
187
124
23
77
162
41
156
190
176
26
149
84
177
110
94
171
35
39
12
85
151
154
196
184
42
115
4
121
152
206
114
5
65
104
161
188
3
204
173
134
113
20
10
118
157
53
28
51
98
27
144
38
74
200
175
25
76
60
79
126
167
21
17
142
75
135
172
24
95
66
14
195
100
120
61
174
93
71
70
180
18
92
131
83
56
153
50
40
155
137
164
32
72
194
163
147
90
82
101
73
111
7
143
102
33
203
140
6
34
116
107
103
47
89
19
49
112
193
22
91
189
36
55
16
158
37
62
97
191
181
81
108
123
69
148
125
48
46
99
45
8
129
67
133
178
44
54
9
168
31
146
106
201
30
127
96
57
52
198
205
11
197
59
68
43
87
15
145
105
63
29
199
78
13
2
159
138
130
150
186
179
136
192
166
185
139
202
165
141
182
183
169

>  <PUBCHEM_MMFF94_PARTIAL_CHARGES>  (1) 
25
1 -0.18
11 -0.14
12 -0.15
13 -0.15
14 -0.15
17 0.2
18 -0.15
19 -0.15
2 -0.36
20 0.66
21 -0.15
22 -0.15
23 0.18
3 -0.65
32 0.15
33 0.15
34 0.15
4 -0.57
40 0.15
41 0.15
42 0.15
43 0.15
44 0.5
7 0.28
9 0.08

>  <PUBCHEM_EFFECTIVE_ROTOR_COUNT>  (1) 
8

>  <PUBCHEM_PHARMACOPHORE_FEATURES>  (1) 
7
1 15 hydrophobe
1 2 acceptor
1 3 acceptor
1 4 acceptor
3 3 4 20 anion
6 16 18 19 21 22 23 rings
6 9 10 11 12 13 14 rings

>  <PUBCHEM_HEAVY_ATOM_COUNT>  (1) 
23

>  <PUBCHEM_ATOM_DEF_STEREO_COUNT>  (1) 
0

>  <PUBCHEM_ATOM_UDEF_STEREO_COUNT>  (1) 
0

>  <PUBCHEM_BOND_DEF_STEREO_COUNT>  (1) 
0

>  <PUBCHEM_BOND_UDEF_STEREO_COUNT>  (1) 
0

>  <PUBCHEM_ISOTOPIC_ATOM_COUNT>  (1) 
0

>  <PUBCHEM_COMPONENT_COUNT>  (1) 
1

>  <PUBCHEM_CACTVS_TAUTO_COUNT>  (1) 
1

>  <PUBCHEM_CONFORMER_ID>  (1) 
0000AB4100000001

>  <PUBCHEM_MMFF94_ENERGY>  (1) 
58.2496

>  <PUBCHEM_FEATURE_SELFOVERLAP>  (1) 
35.579

>  <PUBCHEM_SHAPE_FINGERPRINT>  (1) 
10411042 1 18340769226046690010
10693767 8 18130802191060711302
11045515 52 18263366884632248881
11069576 57 18270956977060939047
11719270 70 18052810635630782169
12403259 226 18126564523182110074
12500047 106 17110732164235597346
12623949 98 17417536813285150014
12788726 201 17611469631578831209
13540713 5 18130243626807229233
13690498 29 17620501024859922598
13955234 65 18056476377723049385
13968360 50 18051407663136283569
14508225 48 18265615372936517140
14790565 3 17330273286718973051
15842332 3 17915769598568841993
15878777 1 17058682674560453712
17539 30 17904202529479493952
19141452 34 17840879473176948841
19319366 153 17912361241113168349
20645477 70 18337664343407959371
23559900 14 18340481292108722339
3057174 1 17759541240485749620
3380486 145 18121236293570011105
3388396 114 17901989363698490972
3421961 26 18343860035210884371
4017518 198 18052827142103230164
4409770 3 17543634132142972921
46194498 28 18188196724132614383
60123966 16 18116691072226263429
6025842 7 18195242446082757237
6700243 42 17411370640850038094
77188 2 18411139095653186192
7970288 3 18270960138020894439

>  <PUBCHEM_SHAPE_MULTIPOLES>  (1) 
457.59
11.8
7.19
1.11
24.33
8.42
0.24
-21.42
3.2
-7.44
3.64
0.32
0.73
-0.91

>  <PUBCHEM_SHAPE_SELFOVERLAP>  (1) 
949.355

>  <PUBCHEM_SHAPE_VOLUME>  (1) 
262.9

>  <PUBCHEM_COORDINATE_TYPE>  (1) 
2
5
10

$$$$
