43849
     RDKit          3D

 25 27  0  0  0  0  0  0  0  0999 V2000
    3.1965    0.8280   -0.0325 O   0  0  0  0  0  0  0  0  0  0  0  0
   -4.2697   -1.9279   -0.4351 O   0  0  0  0  0  0  0  0  0  0  0  0
   -2.2725    1.0839   -0.3212 N   0  0  0  0  0  0  0  0  0  0  0  0
   -4.9700    0.2631   -0.4594 N   0  0  0  0  0  0  0  0  0  0  0  0
   -6.3031   -0.1127   -0.5518 N   0  0  0  0  0  0  0  0  0  0  0  0
   -0.3578   -0.0561   -0.2156 C   0  0  0  0  0  0  0  0  0  0  0  0
   -1.4435   -0.9744   -0.2688 C   0  0  0  0  0  0  0  0  0  0  0  0
   -0.9053    1.2282   -0.2498 C   0  0  0  0  0  0  0  0  0  0  0  0
   -2.6074   -0.2434   -0.3331 C   0  0  0  0  0  0  0  0  0  0  0  0
    1.0425   -0.1946   -0.1414 C   0  0  0  0  0  0  0  0  0  0  0  0
   -0.1193    2.3856   -0.2135 C   0  0  0  0  0  0  0  0  0  0  0  0
    1.8412    0.9542   -0.1041 C   0  0  0  0  0  0  0  0  0  0  0  0
   -1.3364   -2.4491   -0.2572 C   0  0  0  0  0  0  0  0  0  0  0  0
   -3.9560   -0.7132   -0.4020 C   0  0  0  0  0  0  0  0  0  0  0  0
    1.2671    2.2234   -0.1398 C   0  0  0  0  0  0  0  0  0  0  0  0
   -7.0548    0.4251    0.5741 C   0  0  0  0  0  0  0  0  0  0  0  0
    3.7225   -0.4969    0.0009 C   0  0  0  0  0  0  0  0  0  0  0  0
   -6.5339   -0.1579    1.8847 C   0  0  0  0  0  0  0  0  0  0  0  0
   -8.5372    0.1171    0.3883 C   0  0  0  0  0  0  0  0  0  0  0  0
    5.2173   -0.4279    0.1112 C   0  0  0  0  0  0  0  0  0  0  0  0
    5.9918   -0.3908   -1.0431 C   0  0  0  0  0  0  0  0  0  0  0  0
    5.8146   -0.4012    1.3664 C   0  0  0  0  0  0  0  0  0  0  0  0
    7.3813   -0.3264   -0.9408 C   0  0  0  0  0  0  0  0  0  0  0  0
    7.2043   -0.3366    1.4687 C   0  0  0  0  0  0  0  0  0  0  0  0
    7.9876   -0.2993    0.3150 C   0  0  0  0  0  0  0  0  0  0  0  0
  1 12  1  0
  1 17  1  0
  2 14  2  0
  3  8  1  0
  3  9  1  0
  4  5  1  0
  4 14  1  0
  5 16  1  0
  6  7  1  0
  6  8  2  0
  6 10  1  0
  7  9  2  0
  7 13  1  0
  8 11  1  0
  9 14  1  0
 10 12  2  0
 11 15  2  0
 12 15  1  0
 16 18  1  0
 16 19  1  0
 17 20  1  0
 20 21  2  0
 20 22  1  0
 21 23  1  0
 22 24  2  0
 23 25  2  0
 24 25  1  0
M  END
>  <PUBCHEM_COMPOUND_CID>  (1) 
43849

>  <PUBCHEM_CONFORMER_RMSD>  (1) 
0.8

>  <PUBCHEM_CONFORMER_DIVERSEORDER>  (1) 
1
98
130
82
11
120
24
68
52
92
123
57
60
147
25
53
43
100
143
96
152
70
42
35
64
26
113
89
119
122
84
101
99
148
134
117
23
21
10
132
58
66
33
103
83
79
63
87
137
61
138
67
65
16
81
135
36
110
140
77
51
69
78
55
62
71
41
112
145
86
108
133
80
111
54
4
102
93
144
127
136
154
7
30
129
139
107
115
95
27
19
46
151
124
88
12
48
44
34
72
142
126
91
104
74
59
14
47
28
118
131
31
128
8
121
76
15
85
37
3
50
114
153
90
39
141
40
94
56
13
22
32
146
75
18
73
29
9
109
125
20
38
149
116
105
49
106
150
6
45
5
97
17
2

>  <PUBCHEM_MMFF94_PARTIAL_CHARGES>  (1) 
33
1 -0.36
10 -0.15
11 -0.15
12 0.08
13 0.18
14 0.71
15 -0.15
16 0.27
17 0.42
2 -0.57
20 -0.14
21 -0.15
22 -0.15
23 -0.15
24 -0.15
25 -0.15
26 0.27
27 0.15
28 0.15
3 0.03
32 0.15
34 0.37
35 0.36
4 -0.42
44 0.15
45 0.15
46 0.15
47 0.15
48 0.15
5 -0.64
7 -0.18
8 -0.15
9 -0.24

>  <PUBCHEM_EFFECTIVE_ROTOR_COUNT>  (1) 
7

>  <PUBCHEM_PHARMACOPHORE_FEATURES>  (1) 
10
1 1 acceptor
1 2 acceptor
1 3 cation
1 3 donor
1 4 donor
1 5 donor
3 16 18 19 hydrophobe
5 3 6 7 8 9 rings
6 20 21 22 23 24 25 rings
6 6 8 10 11 12 15 rings

>  <PUBCHEM_HEAVY_ATOM_COUNT>  (1) 
25

>  <PUBCHEM_ATOM_DEF_STEREO_COUNT>  (1) 
0

>  <PUBCHEM_ATOM_UDEF_STEREO_COUNT>  (1) 
0

>  <PUBCHEM_BOND_DEF_STEREO_COUNT>  (1) 
0

>  <PUBCHEM_BOND_UDEF_STEREO_COUNT>  (1) 
0

>  <PUBCHEM_ISOTOPIC_ATOM_COUNT>  (1) 
0

>  <PUBCHEM_COMPONENT_COUNT>  (1) 
1

>  <PUBCHEM_CACTVS_TAUTO_COUNT>  (1) 
3

>  <PUBCHEM_CONFORMER_ID>  (1) 
0000AB4900000001

>  <PUBCHEM_MMFF94_ENERGY>  (1) 
52.6307

>  <PUBCHEM_FEATURE_SELFOVERLAP>  (1) 
52.319

>  <PUBCHEM_SHAPE_FINGERPRINT>  (1) 
10050765 1 18121781900550355575
10066227 49 15285627752034640080
10299344 5 17095243622300980146
10429389 143 14045742612606436267
10883706 142 16343990213492837131
11524674 6 17346313821233447654
12236239 1 17676482818833748044
12516196 113 18202560692519565848
12592606 108 18410009966484818455
12838862 33 18339343215310049814
13540713 5 18053661662078460093
13685833 64 18334012796176953832
13914758 101 15698008409256777923
14251764 18 18335139782457171825
14617045 38 18411418402183212686
15131766 46 14762626487913974728
15183329 4 18335416867856025886
15301273 46 17489592251327706668
15461852 350 15985099747977228629
15849732 13 17632856434309291701
16087824 20 18337670799050500861
18006028 8 18272367572764152388
21033648 29 16773497929302734754
21095086 128 15285357327845186035
21150785 3 14417853643997966696
21267235 1 18408044000686059068
21304253 13 18131068246736226385
21403212 168 18343021074032852071
21781055 127 17702128943782530865
21792934 111 18411975871162564456
21792961 116 17749660805649393527
22122407 14 15410614847854570202
22224240 67 17060334128461951374
22311459 1 18409729555979268414
2297311 6 18272092678463108500
23035841 295 18260546731796069559
23198884 109 14996279197905361404
23559900 14 18268140032486825408
246663 6 17530969081562724905
249057 3 18411979191699064375
3004659 81 18260547844899513836
3178227 256 18260556623437958123
335352 9 18410572907721321847
3383291 50 18410294722363187859
34797466 226 18201722865086689732
4017518 198 17275111634731769310
4098825 35 15574982928064562124
5047190 69 17489587810416731665
5104073 3 18269556220632227433
5219985 9 18333729121834570772
5283156 175 18040432171275963098
59755656 520 13470396764904063172

>  <PUBCHEM_SHAPE_MULTIPOLES>  (1) 
487.81
23.9
1.69
1.08
0.38
0.3
-0.43
-4.36
-5.92
0.71
0.25
-0.42
-0.13
-0.33

>  <PUBCHEM_SHAPE_SELFOVERLAP>  (1) 
1047.546

>  <PUBCHEM_SHAPE_VOLUME>  (1) 
271.5

>  <PUBCHEM_COORDINATE_TYPE>  (1) 
2
5
10

$$$$
