43842
     RDKit          3D

 20 21  0  0  0  0  0  0  0  0999 V2000
   -1.4076   -0.6745   -2.4112 Cl  0  0  0  0  0  0  0  0  0  0  0  0
   -6.1218   -0.7187    0.1698 Cl  0  0  0  0  0  0  0  0  0  0  0  0
    2.0112    3.2058   -0.4196 O   0  0  0  0  0  0  0  0  0  0  0  0
    4.3815   -3.1017    0.3754 O   0  0  0  0  0  0  0  0  0  0  0  0
    3.1238   -2.0719   -1.2094 O   0  0  0  0  0  0  0  0  0  0  0  0
   -0.2723    0.4270    0.2358 C   0  0  0  0  0  0  0  0  0  0  0  0
    1.9900   -0.2831    0.6815 C   0  0  0  0  0  0  0  0  0  0  0  0
    0.6239   -0.5615    0.6356 C   0  0  0  0  0  0  0  0  0  0  0  0
   -1.6929    0.1374    0.1868 C   0  0  0  0  0  0  0  0  0  0  0  0
    0.1900    1.6924   -0.1184 C   0  0  0  0  0  0  0  0  0  0  0  0
    2.4559    0.9831    0.3276 C   0  0  0  0  0  0  0  0  0  0  0  0
    1.5560    1.9708   -0.0724 C   0  0  0  0  0  0  0  0  0  0  0  0
    2.9529   -1.3396    1.1068 C   0  0  0  0  0  0  0  0  0  0  0  0
   -2.3018   -0.3640   -0.9636 C   0  0  0  0  0  0  0  0  0  0  0  0
   -2.4533    0.3737    1.3322 C   0  0  0  0  0  0  0  0  0  0  0  0
   -3.6712   -0.6291   -0.9688 C   0  0  0  0  0  0  0  0  0  0  0  0
   -3.8227    0.1086    1.3268 C   0  0  0  0  0  0  0  0  0  0  0  0
   -4.4317   -0.3928    0.1763 C   0  0  0  0  0  0  0  0  0  0  0  0
    3.4701   -2.1836   -0.0415 C   0  0  0  0  0  0  0  0  0  0  0  0
    3.4198    3.4218   -0.3497 C   0  0  0  0  0  0  0  0  0  0  0  0
  1 14  1  0
  2 18  1  0
  3 12  1  0
  3 20  1  0
  4 19  1  0
  5 19  2  0
  6  8  1  0
  6  9  1  0
  6 10  2  0
  7  8  2  0
  7 11  1  0
  7 13  1  0
  9 14  2  0
  9 15  1  0
 10 12  1  0
 11 12  2  0
 13 19  1  0
 14 16  1  0
 15 17  2  0
 16 18  2  0
 17 18  1  0
M  END
>  <PUBCHEM_COMPOUND_CID>  (1) 
43842

>  <PUBCHEM_CONFORMER_RMSD>  (1) 
0.6

>  <PUBCHEM_CONFORMER_DIVERSEORDER>  (1) 
1
39
19
44
36
18
43
17
48
24
45
4
42
13
46
47
32
22
41
16
31
23
34
33
20
21
11
30
27
15
40
37
26
10
28
12
14
29
38
35
25
9
7
8
2
3
5
6

>  <PUBCHEM_MMFF94_PARTIAL_CHARGES>  (1) 
25
1 -0.18
10 -0.15
11 -0.15
12 0.08
13 0.2
14 0.18
15 -0.15
16 -0.15
17 -0.15
18 0.18
19 0.66
2 -0.18
20 0.28
21 0.15
22 0.15
23 0.15
26 0.15
27 0.15
28 0.15
3 -0.36
32 0.5
4 -0.65
5 -0.57
7 -0.14
8 -0.15

>  <PUBCHEM_EFFECTIVE_ROTOR_COUNT>  (1) 
4

>  <PUBCHEM_PHARMACOPHORE_FEATURES>  (1) 
6
1 3 acceptor
1 4 acceptor
1 5 acceptor
3 4 5 19 anion
6 6 7 8 10 11 12 rings
6 9 14 15 16 17 18 rings

>  <PUBCHEM_HEAVY_ATOM_COUNT>  (1) 
20

>  <PUBCHEM_ATOM_DEF_STEREO_COUNT>  (1) 
0

>  <PUBCHEM_ATOM_UDEF_STEREO_COUNT>  (1) 
0

>  <PUBCHEM_BOND_DEF_STEREO_COUNT>  (1) 
0

>  <PUBCHEM_BOND_UDEF_STEREO_COUNT>  (1) 
0

>  <PUBCHEM_ISOTOPIC_ATOM_COUNT>  (1) 
0

>  <PUBCHEM_COMPONENT_COUNT>  (1) 
1

>  <PUBCHEM_CACTVS_TAUTO_COUNT>  (1) 
1

>  <PUBCHEM_CONFORMER_ID>  (1) 
0000AB4200000001

>  <PUBCHEM_MMFF94_ENERGY>  (1) 
61.1604

>  <PUBCHEM_FEATURE_SELFOVERLAP>  (1) 
30.504

>  <PUBCHEM_SHAPE_FINGERPRINT>  (1) 
10369192 42 17534349121904033460
12107183 9 18124885560347150273
12236239 1 18131071588668655577
12363563 72 18190176793918476826
12553582 1 18266454317900115394
12707595 3 18115019715040198250
12916754 54 18409448090346632523
13009979 54 17988653934423113168
13140716 1 18048310334971006528
13533116 47 18341332288449463403
13544592 145 17749108890047438339
13583140 156 18123757714957031809
13955234 65 18338518650424765520
14178000 29 18340772529160993890
14739800 52 17346308358114149160
15042514 8 17689435980056767408
15806764 133 17895182273766896861
15842332 3 17988639756983936429
15848702 151 18409728448278548267
17818456 19 17773607009567673169
17980427 23 14260194680180848681
1813 80 18270407070770409582
19784866 34 18051409874923563488
20361792 2 18338789001641894214
20369508 70 18040425573415101090
20388580 30 18411140203822969722
20645476 183 17915179246554987397
20645477 70 18334289898792385835
20671657 53 18335417907401615890
20693207 138 17676491657233319987
2255824 54 18411420622369834626
23175994 123 18189054205098888851
23559900 14 18335698351950218083
23566358 27 18338237175390110126
23598291 2 18272378542026029121
2748010 2 18120352299580700408
312423 11 18341344331284683681
3286 77 18040995120559484339
3421961 26 18410291393805127138
465052 167 18413114957183235159
474 4 18121501520627593633
5281201 14 18187359926795634365
6025842 7 18337672035003205245
6049 1 17603297142275692021
7364860 26 18410858797887820424
77492 1 18059574741244762105
7970288 3 18265330607994649002
81228 2 17760910858797262616
8272917 22 18337392741943922397
9841814 1 18113888339281921848

>  <PUBCHEM_SHAPE_MULTIPOLES>  (1) 
397.72
9.58
2.97
1.41
9.06
0.99
0.6
-3.54
-1.01
-6.8
0.43
0.8
-0.38
-0.8

>  <PUBCHEM_SHAPE_SELFOVERLAP>  (1) 
836.697

>  <PUBCHEM_SHAPE_VOLUME>  (1) 
227

>  <PUBCHEM_COORDINATE_TYPE>  (1) 
2
5
10

$$$$
