43847
     RDKit          3D

 23 24  0  0  0  0  0  0  0  0999 V2000
    6.9901   -0.0058   -0.2856 Cl  0  0  0  0  0  0  0  0  0  0  0  0
   -3.3045   -2.7586   -0.1365 S   0  0  0  0  0  0  0  0  0  0  0  0
   -1.6762   -2.6127   -0.2433 O   0  0  0  0  0  0  0  0  0  0  0  0
   -2.8730    4.0642    0.4146 O   0  0  0  0  0  0  0  0  0  0  0  0
   -3.7110   -2.6628    1.2513 O   0  0  0  0  0  0  0  0  0  0  0  0
   -3.9321   -1.9748   -1.1816 O   0  0  0  0  0  0  0  0  0  0  0  0
   -2.0331    2.6957   -1.2414 O   0  0  0  0  0  0  0  0  0  0  0  0
    1.0551   -0.2171    0.1881 C   0  0  0  0  0  0  0  0  0  0  0  0
   -1.0443    0.8687    0.6880 C   0  0  0  0  0  0  0  0  0  0  0  0
    0.3453    0.9190    0.5760 C   0  0  0  0  0  0  0  0  0  0  0  0
   -1.0136   -1.4541    0.0240 C   0  0  0  0  0  0  0  0  0  0  0  0
    0.3759   -1.4036   -0.0880 C   0  0  0  0  0  0  0  0  0  0  0  0
    2.4966   -0.1655    0.0735 C   0  0  0  0  0  0  0  0  0  0  0  0
   -1.7238   -0.3178    0.4121 C   0  0  0  0  0  0  0  0  0  0  0  0
   -1.8043    2.0834    1.1021 C   0  0  0  0  0  0  0  0  0  0  0  0
    3.1262    1.0300   -0.2723 C   0  0  0  0  0  0  0  0  0  0  0  0
    3.2564   -1.3115    0.3080 C   0  0  0  0  0  0  0  0  0  0  0  0
   -2.2330    2.9548   -0.0624 C   0  0  0  0  0  0  0  0  0  0  0  0
    4.5158    1.0797   -0.3837 C   0  0  0  0  0  0  0  0  0  0  0  0
    4.6460   -1.2619    0.1967 C   0  0  0  0  0  0  0  0  0  0  0  0
    5.2758   -0.0663   -0.1490 C   0  0  0  0  0  0  0  0  0  0  0  0
   -3.3967   -4.4659   -0.6110 C   0  0  0  0  0  0  0  0  0  0  0  0
   -3.3376    4.9829   -0.5797 C   0  0  0  0  0  0  0  0  0  0  0  0
  1 21  1  0
  2  3  1  0
  2  5  2  0
  2  6  2  0
  2 22  1  0
  3 11  1  0
  4 18  1  0
  4 23  1  0
  7 18  2  0
  8 10  1  0
  8 12  2  0
  8 13  1  0
  9 10  2  0
  9 14  1  0
  9 15  1  0
 11 12  1  0
 11 14  2  0
 13 16  2  0
 13 17  1  0
 15 18  1  0
 16 19  1  0
 17 20  2  0
 19 21  2  0
 20 21  1  0
M  END
>  <PUBCHEM_COMPOUND_CID>  (1) 
43847

>  <PUBCHEM_CONFORMER_RMSD>  (1) 
0.8

>  <PUBCHEM_CONFORMER_DIVERSEORDER>  (1) 
4
79
104
9
59
96
10
67
32
48
112
31
11
72
111
106
101
20
98
12
108
54
27
19
52
103
68
37
65
21
71
92
115
3
118
74
6
30
100
13
75
2
81
17
70
23
91
18
90
29
66
69
86
5
102
105
49
53
43
28
38
57
83
60
25
93
15
39
114
85
1
7
94
63
41
84
110
22
8
47
82
58
76
87
77
40
80
42
24
97
64
14
16
26
44
89
34
99
45
88
51
116
73
33
36
78
95
35
50
46
61
113
117
109
107
55
56
62

>  <PUBCHEM_MMFF94_PARTIAL_CHARGES>  (1) 
28
1 -0.18
10 -0.15
11 0.08
12 -0.15
14 -0.15
15 0.2
16 -0.15
17 -0.15
18 0.66
19 -0.15
2 1.38
20 -0.15
21 0.18
22 0.11
23 0.28
24 0.15
25 0.15
26 0.15
29 0.15
3 -0.27
30 0.15
31 0.15
32 0.15
4 -0.43
5 -0.65
6 -0.65
7 -0.57
9 -0.14

>  <PUBCHEM_EFFECTIVE_ROTOR_COUNT>  (1) 
6

>  <PUBCHEM_PHARMACOPHORE_FEATURES>  (1) 
5
1 5 acceptor
1 6 acceptor
1 7 acceptor
6 13 16 17 19 20 21 rings
6 8 9 10 11 12 14 rings

>  <PUBCHEM_HEAVY_ATOM_COUNT>  (1) 
23

>  <PUBCHEM_ATOM_DEF_STEREO_COUNT>  (1) 
0

>  <PUBCHEM_ATOM_UDEF_STEREO_COUNT>  (1) 
0

>  <PUBCHEM_BOND_DEF_STEREO_COUNT>  (1) 
0

>  <PUBCHEM_BOND_UDEF_STEREO_COUNT>  (1) 
0

>  <PUBCHEM_ISOTOPIC_ATOM_COUNT>  (1) 
0

>  <PUBCHEM_COMPONENT_COUNT>  (1) 
1

>  <PUBCHEM_CACTVS_TAUTO_COUNT>  (1) 
1

>  <PUBCHEM_CONFORMER_ID>  (1) 
0000AB4700000004

>  <PUBCHEM_MMFF94_ENERGY>  (1) 
61.3652

>  <PUBCHEM_FEATURE_SELFOVERLAP>  (1) 
25.388

>  <PUBCHEM_SHAPE_FINGERPRINT>  (1) 
10411042 1 18195246852340070443
105312 117 18265900151149358220
11045515 52 18190457358319591279
11056379 131 18411708690242858886
11101153 10 18191032407660784828
11315621 246 18200048355483950030
12107183 9 17902223413498813682
12160290 23 18051730747687222553
12403259 226 18199185264467622240
12553582 1 18197210562748262666
12788726 201 18335129904106705947
13004483 165 18267580380630333555
13540713 5 18114736037420654010
13590594 115 18265622172845478891
138480 1 16321468559394563625
14251757 5 18409720773409315335
14347332 77 18411419548950017430
14508225 48 18268702982250141477
15042514 8 18339652217206985787
15439362 3 17765153865589029748
16087824 20 18411139122588463377
16988056 13 17761751255422137085
17492 89 18412547605073341494
17539 30 18341043090709974229
1813 80 17983033415940192487
19427546 20 18410296913049202900
19427546 62 17832990443173461761
200 152 18263924500553092018
20101258 96 18337964500759217185
20600515 1 17912947246092682615
21049683 271 17612598134536587263
21267235 1 18340217400913010066
21426921 1 18411139143097896768
21641784 216 18191040069243787036
22907989 373 18410003360197311797
22950370 63 18124883605456996139
23402539 116 18270964664546581062
23419403 2 17130687539622043769
23558518 356 18260838068244954658
23559900 14 18270672182005956232
23929065 36 18268967895869888928
25147074 1 18041550352926303570
266924 87 18412258415691626895
283562 15 18335136522551205394
3004659 81 18116986883398372534
3091708 16 9131033414335604769
350125 39 18340211881663419320
38695281 34 17905324022803067093
4409770 3 18410852145062333751
474 4 17835238939561249521
5104073 3 18342737395848903658
59755656 520 18192990426577381076
6327066 14 18118402847989931220
6677587 24 16162662942811103549
68521 5 18340205288260865787
7164475 11 18337675312527313502
77188 2 18050850223804926213

>  <PUBCHEM_SHAPE_MULTIPOLES>  (1) 
449.7
11.18
5.55
0.91
19.14
3.46
0.01
-2.07
-1.59
-13.22
-1.12
-0.64
0.08
-0.26

>  <PUBCHEM_SHAPE_SELFOVERLAP>  (1) 
935.194

>  <PUBCHEM_SHAPE_VOLUME>  (1) 
259

>  <PUBCHEM_COORDINATE_TYPE>  (1) 
2
5
10

$$$$
