43859
     RDKit          3D

 26 28  0  0  1  0  0  0  0  0999 V2000
    3.4189    3.8000    0.1508 Cl  0  0  0  0  0  0  0  0  0  0  0  0
    3.2237    2.0382   -2.2097 Cl  0  0  0  0  0  0  0  0  0  0  0  0
    0.4472   -1.9140    0.5695 O   0  0  0  0  0  0  0  0  0  0  0  0
    1.9272   -3.4085    1.5313 O   0  0  0  0  0  0  0  0  0  0  0  0
   -3.8045    0.7736    0.2361 O   0  0  0  0  0  0  0  0  0  0  0  0
    3.5897   -1.1644   -0.2060 C   0  0  0  0  0  0  0  0  0  0  0  0
    2.4818   -0.1636   -0.0568 C   0  0  0  0  0  0  0  0  0  0  0  0
    2.6715   -1.2322    0.9719 C   0  0  0  0  0  0  0  0  0  0  0  0
    4.9867   -0.6742   -0.0223 C   0  0  0  0  0  0  0  0  0  0  0  0
    3.4757   -2.2524   -1.2215 C   0  0  0  0  0  0  0  0  0  0  0  0
    2.7769    1.2119    0.3153 C   0  0  0  0  0  0  0  0  0  0  0  0
    1.6561   -2.3123    1.0622 C   0  0  0  0  0  0  0  0  0  0  0  0
    3.1017    2.2285   -0.4977 C   0  0  0  0  0  0  0  0  0  0  0  0
   -0.5893   -2.8870    0.6151 C   0  0  0  0  0  0  0  0  0  0  0  0
   -1.8392   -2.3064    0.0456 C   0  0  0  0  0  0  0  0  0  0  0  0
   -2.2418   -1.0220    0.4116 C   0  0  0  0  0  0  0  0  0  0  0  0
   -2.6061   -3.0482   -0.8530 C   0  0  0  0  0  0  0  0  0  0  0  0
   -3.4111   -0.4793   -0.1211 C   0  0  0  0  0  0  0  0  0  0  0  0
   -3.7753   -2.5056   -1.3858 C   0  0  0  0  0  0  0  0  0  0  0  0
   -4.1778   -1.2211   -1.0198 C   0  0  0  0  0  0  0  0  0  0  0  0
   -2.8418    1.7688    0.2583 C   0  0  0  0  0  0  0  0  0  0  0  0
   -1.9507    1.8677   -0.7948 C   0  0  0  0  0  0  0  0  0  0  0  0
   -2.7957    2.6377    1.3335 C   0  0  0  0  0  0  0  0  0  0  0  0
   -0.9804    2.8695   -0.7721 C   0  0  0  0  0  0  0  0  0  0  0  0
   -1.8256    3.6396    1.3562 C   0  0  0  0  0  0  0  0  0  0  0  0
   -0.9178    3.7554    0.3033 C   0  0  0  0  0  0  0  0  0  0  0  0
  1 13  1  0
  2 13  1  0
  3 12  1  0
  3 14  1  0
  4 12  2  0
  5 18  1  0
  5 21  1  0
  6  7  1  0
  6  8  1  0
  6  9  1  0
  6 10  1  0
  7  8  1  0
  7 11  1  0
  8 12  1  0
 11 13  2  3
 14 15  1  0
 15 16  2  0
 15 17  1  0
 16 18  1  0
 17 19  2  0
 18 20  2  0
 19 20  1  0
 21 22  2  0
 21 23  1  0
 22 24  1  0
 23 25  2  0
 24 26  2  0
 25 26  1  0
M  END
>  <PUBCHEM_COMPOUND_CID>  (1) 
43859

>  <PUBCHEM_CONFORMER_RMSD>  (1) 
1

>  <PUBCHEM_CONFORMER_DIVERSEORDER>  (1) 
1
437
87
315
395
244
74
435
327
150
160
255
93
51
50
210
183
359
443
352
270
231
182
381
336
440
249
390
370
39
344
217
414
104
283
23
236
10
413
77
368
328
291
209
433
405
157
338
52
412
107
342
386
31
436
377
302
409
142
335
373
123
253
76
84
79
313
116
298
45
208
219
329
383
220
326
6
446
245
429
169
11
135
349
64
158
311
170
423
180
410
237
269
411
363
334
259
324
274
99
257
273
374
431
205
56
22
362
330
284
35
28
369
103
282
422
124
71
230
385
141
322
105
5
7
285
426
144
367
407
403
95
366
32
341
382
215
389
420
27
97
185
108
304
166
138
25
49
96
288
146
90
21
387
408
275
308
203
41
307
235
264
57
152
399
155
286
30
372
232
13
4
295
271
200
337
207
66
9
310
134
361
379
147
404
345
38
306
421
132
444
60
168
261
129
193
176
353
401
300
319
380
162
339
223
67
224
126
46
33
106
211
42
167
172
297
151
279
434
233
393
34
179
346
268
136
325
438
197
148
254
65
177
159
154
364
43
247
165
290
63
227
15
194
80
118
68
430
242
400
112
195
156
196
191
133
392
20
221
375
238
19
131
62
281
287
47
78
299
365
115
8
216
175
318
36
424
12
256
121
258
402
85
239
53
161
360
18
37
55
206
305
202
14
81
415
425
246
234
378
276
117
143
88
314
260
91
24
296
190
384
371
266
376
199
89
204
98
178
343
398
186
350
59
181
228
139
40
192
351
396
441
16
58
26
2
212
163
113
44
316
213
198
280
188
111
94
29
173
109
332
347
17
355
323
442
214
397
229
251
358
48
86
3
226
317
447
82
248
70
340
102
83
128
428
120
417
391
114
130
294
267
225
277
293
331
101
303
252
92
218
394
72
171
263
292
149
100
125
406
174
75
222
119
54
432
145
187
427
321
127
320
243
73
333
265
69
189
240
250
309
388
241
419
272
301
312
61
289
356
164
110
445
357
153
278
184
262
122
439
418
416
348
201
137
354
140

>  <PUBCHEM_MMFF94_PARTIAL_CHARGES>  (1) 
38
1 -0.14
10 0.09
11 -0.19
12 0.72
13 0.28
14 0.42
15 -0.14
16 -0.15
17 -0.15
18 0.08
19 -0.15
2 -0.14
20 -0.15
21 0.08
22 -0.15
23 -0.15
24 -0.15
25 -0.15
26 -0.15
27 0.1
28 0.1
3 -0.43
35 0.15
38 0.15
39 0.15
4 -0.57
40 0.15
41 0.15
42 0.15
43 0.15
44 0.15
45 0.15
46 0.15
5 -0.17
6 -0.19
7 -0.06
8 -0.1
9 0.09

>  <PUBCHEM_EFFECTIVE_ROTOR_COUNT>  (1) 
7.6

>  <PUBCHEM_PHARMACOPHORE_FEATURES>  (1) 
5
1 4 acceptor
1 5 acceptor
3 6 9 10 hydrophobe
6 15 16 17 18 19 20 rings
6 21 22 23 24 25 26 rings

>  <PUBCHEM_HEAVY_ATOM_COUNT>  (1) 
26

>  <PUBCHEM_ATOM_DEF_STEREO_COUNT>  (1) 
2

>  <PUBCHEM_ATOM_UDEF_STEREO_COUNT>  (1) 
0

>  <PUBCHEM_BOND_DEF_STEREO_COUNT>  (1) 
0

>  <PUBCHEM_BOND_UDEF_STEREO_COUNT>  (1) 
0

>  <PUBCHEM_ISOTOPIC_ATOM_COUNT>  (1) 
0

>  <PUBCHEM_COMPONENT_COUNT>  (1) 
1

>  <PUBCHEM_CACTVS_TAUTO_COUNT>  (1) 
1

>  <PUBCHEM_CONFORMER_ID>  (1) 
0000AB5300000001

>  <PUBCHEM_MMFF94_ENERGY>  (1) 
72.6565

>  <PUBCHEM_FEATURE_SELFOVERLAP>  (1) 
25.372

>  <PUBCHEM_SHAPE_FINGERPRINT>  (1) 
10498660 4 18191864737097470878
10708813 3 18263649454820260828
10871710 139 18338517443987367059
11513181 2 18201165450354291294
12038231 1 18337390542820466104
12156800 1 14003066232420076325
12553582 1 18122354741813706441
12788726 201 18270978915680475429
12978246 48 18050001099932834913
13122387 1 17760366587202716280
13140716 1 18335143141127132258
13402501 40 17548130494866806216
14117953 113 17401190180662003077
14363568 33 16470389747223556787
14466204 15 18262508209749715626
14790565 3 18270405984703398681
14931854 50 18192991753869702701
151778 21 17261880944925897441
17977149 70 17475254405027535550
19311894 1 17981327789953520462
19930381 70 17907291401408144483
20764821 26 18338238266633920744
20775438 99 16687352571403309695
21857420 4 15113892045437044254
21864079 5 18336828585104938027
22113638 7 17832693583064350793
238918 7 15238875082718145915
392239 28 18126002917237493384
463206 1 18266179615880530497
5048184 11 17907579129598859905
57527585 103 17387710515554390648
5895379 119 18341886343330708778
70634741 139 15810061103849606085
7097593 13 18120091680548304772

>  <PUBCHEM_SHAPE_MULTIPOLES>  (1) 
521.2
8.68
5.84
1.42
2.32
2.76
-0.3
-1.24
-2.22
-0.4
1.05
0.28
0.03
-2.17

>  <PUBCHEM_SHAPE_SELFOVERLAP>  (1) 
1094.414

>  <PUBCHEM_SHAPE_VOLUME>  (1) 
295.8

>  <PUBCHEM_COORDINATE_TYPE>  (1) 
2
5
10

$$$$
