4385
     RDKit          3D

 18 17  0  0  1  0  0  0  0  0999 V2000
    3.2123   -0.3763    0.4165 O   0  0  0  0  0  0  0  0  0  0  0  0
   -0.9148   -0.2582    1.7703 O   0  0  0  0  0  0  0  0  0  0  0  0
    1.7423    0.4512   -1.1421 O   0  0  0  0  0  0  0  0  0  0  0  0
   -4.6309   -0.4941   -1.2131 O   0  0  0  0  0  0  0  0  0  0  0  0
    1.1581   -1.2841    0.2839 N   0  0  0  0  0  0  0  0  0  0  0  0
   -2.1896   -0.1454   -0.1654 N   0  0  0  0  0  0  0  0  0  0  0  0
   -5.6203    1.0134    0.2096 N   0  0  0  0  0  0  0  0  0  0  0  0
    4.1979    0.5657   -0.0215 C   0  0  0  0  0  0  0  0  0  0  0  0
   -0.1871   -1.4964   -0.1818 C   0  0  0  0  0  0  0  0  0  0  0  0
    3.6452    1.9761    0.1784 C   0  0  0  0  0  0  0  0  0  0  0  0
    4.5003    0.3030   -1.4961 C   0  0  0  0  0  0  0  0  0  0  0  0
    5.4481    0.3528    0.8293 C   0  0  0  0  0  0  0  0  0  0  0  0
   -3.2270    0.7112    0.3600 C   0  0  0  0  0  0  0  0  0  0  0  0
   -1.1064   -0.5632    0.5951 C   0  0  0  0  0  0  0  0  0  0  0  0
   -0.6108   -2.9464   -0.0072 C   0  0  0  0  0  0  0  0  0  0  0  0
    2.0116   -0.3285   -0.2343 C   0  0  0  0  0  0  0  0  0  0  0  0
   -2.8914    2.1772    0.1359 C   0  0  0  0  0  0  0  0  0  0  0  0
   -4.5375    0.3420   -0.3177 C   0  0  0  0  0  0  0  0  0  0  0  0
  1  8  1  0
  1 16  1  0
  2 14  2  0
  3 16  2  0
  4 18  2  0
  5  9  1  0
  5 16  1  0
  6 13  1  0
  6 14  1  0
  7 18  1  0
  8 10  1  0
  8 11  1  0
  8 12  1  0
  9 14  1  0
  9 15  1  0
 13 17  1  0
 13 18  1  0
M  END
>  <PUBCHEM_COMPOUND_CID>  (1) 
4385

>  <PUBCHEM_CONFORMER_RMSD>  (1) 
1

>  <PUBCHEM_CONFORMER_DIVERSEORDER>  (1) 
1
158
25
98
117
68
2
135
54
180
6
71
188
87
47
143
183
185
114
179
102
76
20
137
73
10
196
187
172
37
164
128
77
75
159
31
83
167
147
106
104
152
7
74
46
155
52
5
153
197
97
190
89
33
173
69
50
17
115
184
80
124
189
90
168
198
45
56
186
35
26
129
64
122
141
107
48
82
100
16
88
126
163
178
177
193
93
11
96
150
67
51
118
108
39
86
132
18
112
79
131
165
61
9
38
195
30
148
113
146
138
23
170
142
91
145
171
8
162
40
154
157
149
19
127
160
65
181
169
120
14
24
66
140
116
72
130
63
85
109
139
95
134
36
133
34
81
42
125
78
58
3
111
29
110
62
41
53
103
151
119
174
175
27
182
192
101
57
43
60
123
70
49
84
92
144
59
44
22
13
55
136
21
28
166
99
191
32
161
105
94
156
121
176
12
15
4
194

>  <PUBCHEM_MMFF94_PARTIAL_CHARGES>  (1) 
17
1 -0.43
13 0.36
14 0.57
16 0.78
18 0.57
2 -0.57
3 -0.57
30 0.37
31 0.37
38 0.37
39 0.37
4 -0.57
5 -0.73
6 -0.73
7 -0.8
8 0.28
9 0.36

>  <PUBCHEM_EFFECTIVE_ROTOR_COUNT>  (1) 
8

>  <PUBCHEM_PHARMACOPHORE_FEATURES>  (1) 
7
1 2 acceptor
1 3 acceptor
1 4 acceptor
1 5 donor
1 6 donor
1 7 donor
4 8 10 11 12 hydrophobe

>  <PUBCHEM_HEAVY_ATOM_COUNT>  (1) 
18

>  <PUBCHEM_ATOM_DEF_STEREO_COUNT>  (1) 
0

>  <PUBCHEM_ATOM_UDEF_STEREO_COUNT>  (1) 
2

>  <PUBCHEM_BOND_DEF_STEREO_COUNT>  (1) 
0

>  <PUBCHEM_BOND_UDEF_STEREO_COUNT>  (1) 
0

>  <PUBCHEM_ISOTOPIC_ATOM_COUNT>  (1) 
0

>  <PUBCHEM_COMPONENT_COUNT>  (1) 
1

>  <PUBCHEM_CACTVS_TAUTO_COUNT>  (1) 
8

>  <PUBCHEM_CONFORMER_ID>  (1) 
0000112100000001

>  <PUBCHEM_MMFF94_ENERGY>  (1) 
42.6791

>  <PUBCHEM_FEATURE_SELFOVERLAP>  (1) 
35.522

>  <PUBCHEM_SHAPE_FINGERPRINT>  (1) 
10670039 82 18116169796024569388
11089746 13 18409442618431820184
12119455 92 18040711467849887775
12507557 5 17458632228640727021
12596602 18 14273462482762025149
12633257 1 15647053798046985512
12670546 177 17632293501509443533
12841375 25 10015859873133779010
12916748 109 18413112757547517176
13583140 156 17530968020151967281
14123255 52 18410573989631281666
14251764 18 18113612400987391210
14252887 29 10737281342624052336
15885798 251 9223231849344144247
17834072 32 18335990882014700620
18186145 218 17988094317659705562
187816 3 17704355471987216291
200 152 12679467482215393518
20281475 54 9871450024810844467
20374829 77 11959727144971907477
204376 136 18334016090380186899
20645477 56 18411140268342463474
20645477 70 16415492523803603134
20671657 53 14261351353596977626
20871999 31 16773783836353190623
212847 35 18187085066258469924
212916 134 18340189856928688010
21499 59 18409728439720593447
21524375 3 18261111854871242866
22950370 63 9295287261380151024
23227448 37 18198622322681953837
23402539 116 18342731940322240485
23503953 91 16153988062561214680
23557571 272 18200037389862749943
23559900 14 18131356319631548582
2838139 119 18260821601050113541
2916195 48 18059565914759986472
3004659 81 11383829372718260048
314173 41 10303804393484043780
328317 168 18412825797987227305
351380 180 18412260640515912200
465052 167 8502363460473320353
474 4 17968104101118714125
5207 217 18334289907883759727
59755656 520 18410285922101746942
83771 10 10375870766424653235

>  <PUBCHEM_SHAPE_MULTIPOLES>  (1) 
332.01
11.72
2.05
1.08
0.64
0.75
-0.05
-5.68
-1.15
0.72
0.1
-0.45
0
-0.19

>  <PUBCHEM_SHAPE_SELFOVERLAP>  (1) 
648.481

>  <PUBCHEM_SHAPE_VOLUME>  (1) 
199.7

>  <PUBCHEM_COORDINATE_TYPE>  (1) 
2
5
10

$$$$
