43865
     RDKit          3D

 13 12  0  0  0  0  0  0  0  0999 V2000
   -1.2122   -0.9150    0.6296 O   0  0  0  0  0  0  0  0  0  0  0  0
   -2.3386    1.0186   -0.2364 O   0  0  0  0  0  0  0  0  0  0  0  0
    1.2172    0.2147   -0.2865 O   0  0  0  0  0  0  0  0  0  0  0  0
    3.8488    0.6113    0.5771 O   0  0  0  0  0  0  0  0  0  0  0  0
   -1.1120    0.4643    0.2577 C   0  0  0  0  0  0  0  0  0  0  0  0
   -0.0246    0.6902   -0.7917 C   0  0  0  0  0  0  0  0  0  0  0  0
    2.2720    0.4258   -1.2147 C   0  0  0  0  0  0  0  0  0  0  0  0
   -1.5722   -1.7941   -0.4274 C   0  0  0  0  0  0  0  0  0  0  0  0
   -3.3974    0.9213    0.7076 C   0  0  0  0  0  0  0  0  0  0  0  0
    3.5652   -0.0995   -0.6219 C   0  0  0  0  0  0  0  0  0  0  0  0
   -1.6396   -3.2082    0.1086 C   0  0  0  0  0  0  0  0  0  0  0  0
   -4.6491    1.5266    0.1087 C   0  0  0  0  0  0  0  0  0  0  0  0
    5.0425    0.1440    1.1894 C   0  0  0  0  0  0  0  0  0  0  0  0
  1  5  1  0
  1  8  1  0
  2  5  1  0
  2  9  1  0
  3  6  1  0
  3  7  1  0
  4 10  1  0
  4 13  1  0
  5  6  1  0
  7 10  1  0
  8 11  1  0
  9 12  1  0
M  END
>  <PUBCHEM_COMPOUND_CID>  (1) 
43865

>  <PUBCHEM_CONFORMER_RMSD>  (1) 
0.8

>  <PUBCHEM_CONFORMER_DIVERSEORDER>  (1) 
2
64
32
90
89
11
75
67
71
46
50
30
61
65
63
5
48
78
85
59
66
34
38
81
70
25
86
52
92
40
77
55
41
76
20
16
37
69
73
33
62
7
17
88
35
79
22
82
26
58
6
42
56
29
21
43
91
83
68
9
31
51
84
15
60
54
13
44
8
72
74
3
45
49
1
23
47
87
12
39
19
27
36
57
28
53
18
80
14
10
24
4
93

>  <PUBCHEM_MMFF94_PARTIAL_CHARGES>  (1) 
11
1 -0.56
10 0.28
13 0.28
2 -0.56
3 -0.56
4 -0.56
5 0.56
6 0.28
7 0.28
8 0.28
9 0.28

>  <PUBCHEM_EFFECTIVE_ROTOR_COUNT>  (1) 
9

>  <PUBCHEM_PHARMACOPHORE_FEATURES>  (1) 
4
1 1 acceptor
1 2 acceptor
1 3 acceptor
1 4 acceptor

>  <PUBCHEM_HEAVY_ATOM_COUNT>  (1) 
13

>  <PUBCHEM_ATOM_DEF_STEREO_COUNT>  (1) 
0

>  <PUBCHEM_ATOM_UDEF_STEREO_COUNT>  (1) 
0

>  <PUBCHEM_BOND_DEF_STEREO_COUNT>  (1) 
0

>  <PUBCHEM_BOND_UDEF_STEREO_COUNT>  (1) 
0

>  <PUBCHEM_ISOTOPIC_ATOM_COUNT>  (1) 
0

>  <PUBCHEM_COMPONENT_COUNT>  (1) 
1

>  <PUBCHEM_CACTVS_TAUTO_COUNT>  (1) 
1

>  <PUBCHEM_CONFORMER_ID>  (1) 
0000AB5900000002

>  <PUBCHEM_MMFF94_ENERGY>  (1) 
24.4322

>  <PUBCHEM_FEATURE_SELFOVERLAP>  (1) 
20.338

>  <PUBCHEM_SHAPE_FINGERPRINT>  (1) 
12119455 92 18040997302693086285
12500047 106 18341893004513390746
12932764 1 17531248396149981908
13380535 76 18343027661821841415
14178000 22 18410569544635360653
14178000 29 10882270681241250913
15375358 24 17847063281111346228
20279233 1 17846224358229350028
20645477 56 18411984658681001884
212916 134 18342166731078994968
21339142 149 18131346436394569743
21501502 16 18119252998021304172
21618674 25 17917991642268656214
22169311 14 18343578556260790680
22926399 37 14117512151603467808
22959321 60 17774713286169424784
23380061 50 17988926678021356800
23402539 116 18343012277428465101
23503953 91 18334852840541241208
23532345 11 18340206392436817046
23557571 272 18058744618471154548
23559900 14 18200888309590146204
23598291 2 17750526237528353662
3086196 2 18268988876590054342
3250762 1 17912360133011878913
366044 4 18410016503282202337
69090 78 18410294692302983119
7615 1 17896886658455142604
81539 233 18115595816689667527
88987 49 18267320865984580934

>  <PUBCHEM_SHAPE_MULTIPOLES>  (1) 
244.06
8.97
2.21
1.03
6.47
2.79
0.01
-4.1
-2.78
-3
-0.07
0.9
-0.11
-0.1

>  <PUBCHEM_SHAPE_SELFOVERLAP>  (1) 
440.107

>  <PUBCHEM_SHAPE_VOLUME>  (1) 
157.6

>  <PUBCHEM_COORDINATE_TYPE>  (1) 
2
5
10

$$$$
