43869
     RDKit          3D

 14 14  0  0  0  0  0  0  0  0999 V2000
   -5.1075    1.3097    0.1775 O   0  0  0  0  0  0  0  0  0  0  0  0
    0.1812   -3.4478    0.0045 O   0  0  0  0  0  0  0  0  0  0  0  0
    0.4820   -1.2912   -0.2182 N   0  0  0  0  0  0  0  0  0  0  0  0
    0.9827   -2.5168    0.1342 N   0  0  0  0  0  0  0  0  0  0  0  0
   -1.6184   -0.1123    0.2364 C   0  0  0  0  0  0  0  0  0  0  0  0
   -0.8708   -1.0525   -0.7075 C   0  0  0  0  0  0  0  0  0  0  0  0
   -3.0426    0.1443   -0.2535 C   0  0  0  0  0  0  0  0  0  0  0  0
   -3.7841    1.1140    0.6574 C   0  0  0  0  0  0  0  0  0  0  0  0
    1.3259   -0.1298   -0.1089 C   0  0  0  0  0  0  0  0  0  0  0  0
    1.1267    0.9251   -0.9769 C   0  0  0  0  0  0  0  0  0  0  0  0
    2.3086   -0.1071    0.8603 C   0  0  0  0  0  0  0  0  0  0  0  0
    1.9449    2.0500   -0.8712 C   0  0  0  0  0  0  0  0  0  0  0  0
    3.1267    1.0179    0.9659 C   0  0  0  0  0  0  0  0  0  0  0  0
    2.9447    2.0964    0.1001 C   0  0  0  0  0  0  0  0  0  0  0  0
  1  8  1  0
  2  4  2  0
  3  4  1  0
  3  6  1  0
  3  9  1  0
  5  6  1  0
  5  7  1  0
  7  8  1  0
  9 10  2  0
  9 11  1  0
 10 12  1  0
 11 13  2  0
 12 14  2  0
 13 14  1  0
M  END
>  <PUBCHEM_COMPOUND_CID>  (1) 
43869

>  <PUBCHEM_CONFORMER_RMSD>  (1) 
0.6

>  <PUBCHEM_CONFORMER_DIVERSEORDER>  (1) 
1
94
50
102
70
76
111
112
141
134
124
72
69
67
129
65
43
83
92
147
113
109
63
23
85
4
58
118
56
95
26
62
93
110
98
40
74
103
22
54
117
7
130
49
29
88
104
107
119
45
17
57
139
2
125
3
96
143
86
79
127
47
60
101
42
25
77
28
11
87
90
31
16
136
48
53
105
106
84
36
39
99
12
64
34
18
122
115
35
44
66
38
108
75
37
132
123
100
82
73
121
135
14
68
5
116
19
148
78
9
137
61
13
89
91
10
120
6
138
126
81
33
46
41
27
140
8
145
114
144
97
131
128
51
15
24
32
59
20
52
146
133
30
142
71
21
55
80

>  <PUBCHEM_MMFF94_PARTIAL_CHARGES>  (1) 
17
1 -0.68
10 -0.15
11 -0.15
12 -0.15
13 -0.15
14 -0.15
2 -0.16
23 0.15
24 0.15
25 0.15
26 0.15
27 0.15
28 0.4
3 -0.3
6 0.37
8 0.28
9 0.1

>  <PUBCHEM_EFFECTIVE_ROTOR_COUNT>  (1) 
6

>  <PUBCHEM_PHARMACOPHORE_FEATURES>  (1) 
3
1 1 acceptor
1 1 donor
6 9 10 11 12 13 14 rings

>  <PUBCHEM_HEAVY_ATOM_COUNT>  (1) 
14

>  <PUBCHEM_ATOM_DEF_STEREO_COUNT>  (1) 
0

>  <PUBCHEM_ATOM_UDEF_STEREO_COUNT>  (1) 
0

>  <PUBCHEM_BOND_DEF_STEREO_COUNT>  (1) 
0

>  <PUBCHEM_BOND_UDEF_STEREO_COUNT>  (1) 
0

>  <PUBCHEM_ISOTOPIC_ATOM_COUNT>  (1) 
0

>  <PUBCHEM_COMPONENT_COUNT>  (1) 
1

>  <PUBCHEM_CACTVS_TAUTO_COUNT>  (1) 
1

>  <PUBCHEM_CONFORMER_ID>  (1) 
0000AB5D00000001

>  <PUBCHEM_MMFF94_ENERGY>  (1) 
40.4323

>  <PUBCHEM_FEATURE_SELFOVERLAP>  (1) 
15.223

>  <PUBCHEM_SHAPE_FINGERPRINT>  (1) 
10465860 228 18340491071300654033
12202030 40 13697235905271302208
14123255 52 18340207500311694913
15490181 8 18266455588994111934
15775835 57 18272932756084691401
15906896 17 17982728868156646198
1741750 31 18196652028247529232
20157964 124 18336820880883005965
20361792 2 8286209314095721409
20671657 1 18269001903431442183
21524375 3 18271803566211495863
21731228 192 18334574693562584043
2255824 54 18268717108476965535
23532345 1 18410014295896054129
23558518 356 18190739941308914458
276578 36 18341898497491621784
305870 269 18410854369238273042
449060 23 11170178831217934081
474 4 18409730660244851345
49207404 50 18189071892317357851
6333272 397 18338237175743336411
6992083 37 17898273151281542468
7364860 26 18198908015438063207
81228 2 17689158236979855978

>  <PUBCHEM_SHAPE_MULTIPOLES>  (1) 
266.41
6.55
2.78
0.94
8.34
2.49
-0.01
-5.67
1.6
-0.63
-0.14
-0.37
-0.23
-0.52

>  <PUBCHEM_SHAPE_SELFOVERLAP>  (1) 
533.918

>  <PUBCHEM_SHAPE_VOLUME>  (1) 
157.1

>  <PUBCHEM_COORDINATE_TYPE>  (1) 
2
5
10

$$$$
