43870
     RDKit          3D

 11 10  0  0  0  0  0  0  0  0999 V2000
   -4.9524   -0.6928    0.0446 O   0  0  0  0  0  0  0  0  0  0  0  0
    3.7312   -2.0696   -0.1146 O   0  0  0  0  0  0  0  0  0  0  0  0
    1.8175    2.4071   -0.5500 O   0  0  0  0  0  0  0  0  0  0  0  0
    1.1047    0.5215    0.0849 N   0  0  0  0  0  0  0  0  0  0  0  0
    1.2129    1.8095    0.3484 N   0  0  0  0  0  0  0  0  0  0  0  0
   -1.3066    0.2180   -0.2345 C   0  0  0  0  0  0  0  0  0  0  0  0
   -0.1012   -0.0619    0.6612 C   0  0  0  0  0  0  0  0  0  0  0  0
   -2.5835   -0.3776    0.3561 C   0  0  0  0  0  0  0  0  0  0  0  0
    2.2805   -0.2664    0.4898 C   0  0  0  0  0  0  0  0  0  0  0  0
   -3.7851   -0.1410   -0.5495 C   0  0  0  0  0  0  0  0  0  0  0  0
    2.5820   -1.3469   -0.5363 C   0  0  0  0  0  0  0  0  0  0  0  0
  1 10  1  0
  2 11  1  0
  3  5  2  0
  4  5  1  0
  4  7  1  0
  4  9  1  0
  6  7  1  0
  6  8  1  0
  8 10  1  0
  9 11  1  0
M  END
>  <PUBCHEM_COMPOUND_CID>  (1) 
43870

>  <PUBCHEM_CONFORMER_RMSD>  (1) 
0.8

>  <PUBCHEM_CONFORMER_DIVERSEORDER>  (1) 
1
101
128
135
28
22
143
117
139
121
27
93
31
118
33
75
10
80
58
96
113
14
19
88
26
60
140
94
25
48
56
98
132
2
6
77
18
123
3
106
84
40
136
68
87
46
38
63
120
111
34
57
9
35
108
17
30
90
61
23
137
71
16
53
100
70
130
65
78
72
55
43
4
86
11
64
119
8
127
114
41
81
5
62
50
133
83
82
85
126
7
37
13
24
42
129
51
141
131
76
49
105
20
99
110
104
32
74
95
103
15
134
107
97
142
12
79
73
112
102
115
45
92
124
89
138
122
69
39
44
52
36
67
91
54
59
116
47
21
109
29
66
125

>  <PUBCHEM_MMFF94_PARTIAL_CHARGES>  (1) 
11
1 -0.68
10 0.28
11 0.28
2 -0.68
24 0.4
25 0.4
3 -0.16
4 -0.36
5 -0.01
7 0.27
9 0.27

>  <PUBCHEM_EFFECTIVE_ROTOR_COUNT>  (1) 
7

>  <PUBCHEM_PHARMACOPHORE_FEATURES>  (1) 
4
1 1 acceptor
1 1 donor
1 2 acceptor
1 2 donor

>  <PUBCHEM_HEAVY_ATOM_COUNT>  (1) 
11

>  <PUBCHEM_ATOM_DEF_STEREO_COUNT>  (1) 
0

>  <PUBCHEM_ATOM_UDEF_STEREO_COUNT>  (1) 
0

>  <PUBCHEM_BOND_DEF_STEREO_COUNT>  (1) 
0

>  <PUBCHEM_BOND_UDEF_STEREO_COUNT>  (1) 
0

>  <PUBCHEM_ISOTOPIC_ATOM_COUNT>  (1) 
0

>  <PUBCHEM_COMPONENT_COUNT>  (1) 
1

>  <PUBCHEM_CACTVS_TAUTO_COUNT>  (1) 
1

>  <PUBCHEM_CONFORMER_ID>  (1) 
0000AB5E00000001

>  <PUBCHEM_MMFF94_ENERGY>  (1) 
13.4537

>  <PUBCHEM_FEATURE_SELFOVERLAP>  (1) 
20.298

>  <PUBCHEM_SHAPE_FINGERPRINT>  (1) 
12932764 1 17417809616933164865
14252887 29 18342452617398848138
15477762 27 18411981368778088734
17041 50 18261101933776357645
177051 138 17846779594216058495
18186145 218 17967524680266301953
20339313 130 18411981360214553993
20645477 70 18336823182399900839
20671657 53 18410014290799083967
20708731 107 18409732893358741996
20711978 1 18412547595765183161
20871998 22 18339918217363521378
23532345 12 18059577949627478401
7364860 26 18342455997458936536
81539 233 18117278262548276676

>  <PUBCHEM_SHAPE_MULTIPOLES>  (1) 
198.8
7.45
1.85
0.76
7.45
0.79
-0.01
-3.93
0.79
-2.52
0.3
-0.02
0.01
0.12

>  <PUBCHEM_SHAPE_SELFOVERLAP>  (1) 
361.53

>  <PUBCHEM_SHAPE_VOLUME>  (1) 
128

>  <PUBCHEM_COORDINATE_TYPE>  (1) 
2
5
10

$$$$
