43872
     RDKit          3D

 13 12  0  0  1  0  0  0  0  0999 V2000
   -1.5823   -0.3831    1.4151 O   0  0  0  0  0  0  0  0  0  0  0  0
   -5.0819    1.2440   -0.2261 O   0  0  0  0  0  0  0  0  0  0  0  0
    0.9320   -2.8626    0.5653 O   0  0  0  0  0  0  0  0  0  0  0  0
    0.7224   -0.9159   -0.2181 N   0  0  0  0  0  0  0  0  0  0  0  0
    1.2709   -2.1087   -0.3549 N   0  0  0  0  0  0  0  0  0  0  0  0
   -1.4805    0.1377    0.0908 C   0  0  0  0  0  0  0  0  0  0  0  0
   -0.6289   -0.8072   -0.7622 C   0  0  0  0  0  0  0  0  0  0  0  0
    1.5731    0.1383   -0.7859 C   0  0  0  0  0  0  0  0  0  0  0  0
   -2.8923    0.2673   -0.4876 C   0  0  0  0  0  0  0  0  0  0  0  0
    2.6811    0.5129    0.1969 C   0  0  0  0  0  0  0  0  0  0  0  0
    3.5922    1.5951   -0.3836 C   0  0  0  0  0  0  0  0  0  0  0  0
   -3.7824    1.1833    0.3477 C   0  0  0  0  0  0  0  0  0  0  0  0
    4.6767    1.9988    0.6026 C   0  0  0  0  0  0  0  0  0  0  0  0
  1  6  1  0
  2 12  1  0
  3  5  2  0
  4  5  1  0
  4  7  1  0
  4  8  1  0
  6  7  1  0
  6  9  1  0
  8 10  1  0
  9 12  1  0
 10 11  1  0
 11 13  1  0
M  END
>  <PUBCHEM_COMPOUND_CID>  (1) 
43872

>  <PUBCHEM_CONFORMER_RMSD>  (1) 
0.8

>  <PUBCHEM_CONFORMER_DIVERSEORDER>  (1) 
1
88
15
388
439
149
112
173
265
408
141
13
322
321
316
278
45
123
325
11
218
250
294
171
381
182
280
205
114
414
74
124
279
412
299
159
135
59
324
111
51
113
132
6
425
391
315
397
310
354
191
287
65
183
328
78
288
222
254
429
180
80
208
28
101
118
129
384
228
437
353
177
137
125
190
266
55
161
29
42
221
225
30
185
35
150
334
82
22
339
260
94
423
244
10
160
345
16
428
95
163
81
143
192
276
277
96
102
7
109
75
415
349
263
270
89
370
2
152
440
5
58
77
207
162
306
285
103
335
402
121
169
241
363
410
348
336
436
116
356
41
305
271
46
365
393
194
155
418
110
416
239
313
283
374
67
206
403
3
201
68
76
435
9
232
33
307
385
168
187
359
49
395
355
44
434
245
364
19
426
21
14
36
297
105
394
281
387
377
119
56
178
236
104
209
133
4
92
93
329
61
256
300
284
405
375
27
226
292
368
158
153
319
26
18
257
216
320
275
383
248
346
69
60
361
317
122
193
140
64
146
210
172
130
139
389
17
219
53
38
358
367
73
272
83
134
396
411
63
148
70
230
157
39
424
200
198
291
392
224
303
327
186
379
115
422
196
399
12
417
401
362
366
147
273
214
181
390
227
251
164
293
338
258
145
298
91
296
289
373
8
97
371
211
240
43
400
176
343
409
170
66
378
229
47
308
126
341
197
301
268
262
406
106
86
212
34
253
23
87
204
304
85
267
48
351
184
261
57
282
269
175
136
386
50
246
331
84
337
318
220
167
252
166
237
290
154
372
195
323
71
360
131
213
238
419
333
100
40
430
352
217
340
144
309
202
188
342
259
427
54
138
62
79
117
20
274
380
107
215
72
98
255
151
295
31
382
433
37
156
404
332
376
369
350
120
189
128
231
142
235
264
420
326
330
203
99
52
243
247
407
24
242
302
174
357
286
344
127
199
249
165
233
223
398
347
32
413
108
431
421
432
179
438
314
90
311
25
312
234

>  <PUBCHEM_MMFF94_PARTIAL_CHARGES>  (1) 
11
1 -0.68
12 0.28
2 -0.68
3 -0.16
30 0.4
31 0.4
4 -0.36
5 -0.01
6 0.28
7 0.27
8 0.27

>  <PUBCHEM_EFFECTIVE_ROTOR_COUNT>  (1) 
8

>  <PUBCHEM_PHARMACOPHORE_FEATURES>  (1) 
5
1 1 acceptor
1 1 donor
1 13 hydrophobe
1 2 acceptor
1 2 donor

>  <PUBCHEM_HEAVY_ATOM_COUNT>  (1) 
13

>  <PUBCHEM_ATOM_DEF_STEREO_COUNT>  (1) 
0

>  <PUBCHEM_ATOM_UDEF_STEREO_COUNT>  (1) 
1

>  <PUBCHEM_BOND_DEF_STEREO_COUNT>  (1) 
0

>  <PUBCHEM_BOND_UDEF_STEREO_COUNT>  (1) 
0

>  <PUBCHEM_ISOTOPIC_ATOM_COUNT>  (1) 
0

>  <PUBCHEM_COMPONENT_COUNT>  (1) 
1

>  <PUBCHEM_CACTVS_TAUTO_COUNT>  (1) 
1

>  <PUBCHEM_CONFORMER_ID>  (1) 
0000AB6000000001

>  <PUBCHEM_MMFF94_ENERGY>  (1) 
16.6454

>  <PUBCHEM_FEATURE_SELFOVERLAP>  (1) 
25.372

>  <PUBCHEM_SHAPE_FINGERPRINT>  (1) 
122479 349 18268992171230812604
12616999 72 16845569777951840253
14123255 52 18412824715724326312
15775835 57 18272651268207118236
170605 34 18273218581762760542
17834072 32 18267306615484396828
18186145 218 18059033764412469060
20112054 13 18335701689076646068
204376 136 18409168852367530964
20871999 31 16271916169165780813
21499 59 18413386557396532157
21524375 3 18342173414406680054
21618674 25 18333452032361736897
22096605 113 18411703145355241889
22926399 37 17847065497309514737
23532345 1 18337112268037385689
305870 269 18408884049134154614
328317 168 18343016718255830877
449060 62 18343303634961289261
7364860 26 18269275655888357494
81539 233 18408040693244489772

>  <PUBCHEM_SHAPE_MULTIPOLES>  (1) 
239.96
8.49
2.28
0.92
1.54
1.49
0.11
-8.37
0.57
-1.38
0.33
0.05
0.06
0.19

>  <PUBCHEM_SHAPE_SELFOVERLAP>  (1) 
440.555

>  <PUBCHEM_SHAPE_VOLUME>  (1) 
153.2

>  <PUBCHEM_COORDINATE_TYPE>  (1) 
2
5
10

$$$$
