4388
     RDKit          3D

 13 12  0  0  1  0  0  0  0  0999 V2000
    1.4381   -1.8823   -0.2876 O   0  0  0  0  0  0  0  0  0  0  0  0
    0.9184    0.6669   -1.4551 O   0  0  0  0  0  0  0  0  0  0  0  0
   -1.1915   -1.9620   -0.6662 O   0  0  0  0  0  0  0  0  0  0  0  0
    2.9572    0.6813    1.5034 O   0  0  0  0  0  0  0  0  0  0  0  0
    3.4809    0.8814   -0.6962 O   0  0  0  0  0  0  0  0  0  0  0  0
   -1.5957   -0.2177    0.8118 N   0  0  0  0  0  0  0  0  0  0  0  0
    0.6957   -0.8727    0.3816 C   0  0  0  0  0  0  0  0  0  0  0  0
    1.1615    0.5177   -0.0620 C   0  0  0  0  0  0  0  0  0  0  0  0
   -3.0376   -0.2418    0.7287 C   0  0  0  0  0  0  0  0  0  0  0  0
   -0.7868   -1.0896    0.0993 C   0  0  0  0  0  0  0  0  0  0  0  0
   -3.5298    0.6770   -0.3845 C   0  0  0  0  0  0  0  0  0  0  0  0
   -3.1566    2.1350   -0.1549 C   0  0  0  0  0  0  0  0  0  0  0  0
    2.6463    0.7067    0.1819 C   0  0  0  0  0  0  0  0  0  0  0  0
  1  7  1  0
  2  8  1  0
  3 10  2  0
  4 13  1  0
  5 13  2  0
  6  9  1  0
  6 10  1  0
  7  8  1  0
  7 10  1  0
  8 13  1  0
  9 11  1  0
 11 12  1  0
M  END
>  <PUBCHEM_COMPOUND_CID>  (1) 
4388

>  <PUBCHEM_CONFORMER_RMSD>  (1) 
0.6

>  <PUBCHEM_CONFORMER_DIVERSEORDER>  (1) 
4
337
31
396
408
319
113
273
349
73
359
369
144
383
212
37
368
87
358
235
149
386
254
265
100
357
267
336
240
40
415
39
30
11
437
88
385
126
154
197
107
271
50
422
395
231
423
44
46
389
266
344
49
192
28
324
350
217
377
384
53
275
183
105
429
163
314
305
393
191
333
402
220
71
407
57
295
7
343
58
74
41
259
421
170
414
239
162
137
281
8
115
26
432
35
382
354
25
59
190
56
376
36
248
424
64
312
353
114
109
289
375
436
151
12
288
223
412
129
83
116
69
367
434
228
400
79
111
366
206
78
397
399
247
147
388
370
18
363
419
2
365
82
210
81
48
274
67
372
326
304
92
75
356
426
409
62
76
364
322
22
211
13
291
91
174
14
340
119
283
361
131
394
117
355
352
65
55
325
121
331
209
47
34
108
153
332
318
244
404
159
176
380
54
237
392
430
118
245
232
300
90
335
196
219
346
221
204
328
72
3
61
173
309
317
233
272
125
60
177
313
405
401
1
112
19
9
43
181
257
342
33
416
339
282
136
427
263
373
150
307
199
5
103
68
45
102
106
172
152
51
406
230
323
258
280
256
52
378
127
261
425
165
250
178
418
142
80
226
277
428
374
351
38
32
93
182
200
128
420
104
431
227
290
201
381
251
146
320
139
308
264
279
433
205
123
330
284
321
6
145
371
15
122
167
293
166
276
184
95
241
120
124
411
255
23
379
362
158
413
110
296
148
225
179
175
213
77
391
161
303
341
311
24
249
286
417
306
155
97
410
171
301
141
94
27
329
169
253
338
187
130
347
262
16
164
168
360
98
66
435
216
143
260
224
140
101
133
285
234
194
20
89
207
222
84
292
243
387
63
246
310
198
156
17
10
287
398
242
214
297
134
160
390
238
195
236
268
132
157
96
269
42
327
99
294
403
185
70
188
135
215
186
252
86
345
189
21
218
208
334
348
180
138
85
316
202
229
315
193
302
278
29
203
298
270
299

>  <PUBCHEM_MMFF94_PARTIAL_CHARGES>  (1) 
15
1 -0.68
10 0.57
13 0.66
2 -0.68
20 0.37
24 0.4
25 0.4
26 0.5
3 -0.57
4 -0.65
5 -0.57
6 -0.73
7 0.34
8 0.34
9 0.3

>  <PUBCHEM_EFFECTIVE_ROTOR_COUNT>  (1) 
6

>  <PUBCHEM_PHARMACOPHORE_FEATURES>  (1) 
10
1 1 acceptor
1 1 donor
1 12 hydrophobe
1 2 acceptor
1 2 donor
1 3 acceptor
1 4 acceptor
1 5 acceptor
1 6 donor
3 4 5 13 anion

>  <PUBCHEM_HEAVY_ATOM_COUNT>  (1) 
13

>  <PUBCHEM_ATOM_DEF_STEREO_COUNT>  (1) 
0

>  <PUBCHEM_ATOM_UDEF_STEREO_COUNT>  (1) 
2

>  <PUBCHEM_BOND_DEF_STEREO_COUNT>  (1) 
0

>  <PUBCHEM_BOND_UDEF_STEREO_COUNT>  (1) 
0

>  <PUBCHEM_ISOTOPIC_ATOM_COUNT>  (1) 
0

>  <PUBCHEM_COMPONENT_COUNT>  (1) 
1

>  <PUBCHEM_CACTVS_TAUTO_COUNT>  (1) 
2

>  <PUBCHEM_CONFORMER_ID>  (1) 
0000112400000004

>  <PUBCHEM_MMFF94_ENERGY>  (1) 
3.0183

>  <PUBCHEM_FEATURE_SELFOVERLAP>  (1) 
50.827

>  <PUBCHEM_SHAPE_FINGERPRINT>  (1) 
10149128 76 18338518526218677993
12138202 97 17703794772543917270
12932764 1 18131072661946210419
13618510 140 18334859389991795285
14897335 6 18343013402340540243
15775835 57 18343585123075895029
18186145 218 17704357662504874825
20281407 28 12685085990711875681
20711983 138 7997698571264124517
21524375 3 18412260632036676059
230 275 18336272266596364941
23382010 3 13542170762424814048
23402539 116 16343431621944654552
23557571 272 18270694150943049095
2748010 2 18265906773898796207
305870 269 18260545593640571739
449060 23 8790889605089236993
81228 2 17696191783040905499

>  <PUBCHEM_SHAPE_MULTIPOLES>  (1) 
233.21
5.94
1.83
1.03
1.16
0.22
0.05
-3.19
0.41
0.65
-0.31
-0.4
-0.12
0.18

>  <PUBCHEM_SHAPE_SELFOVERLAP>  (1) 
446.978

>  <PUBCHEM_SHAPE_VOLUME>  (1) 
141.6

>  <PUBCHEM_COORDINATE_TYPE>  (1) 
2
5
10

$$$$
