43910
     RDKit          3D

 16 16  0  0  1  0  0  0  0  0999 V2000
   -4.1775    0.9871    0.3275 F   0  0  0  0  0  0  0  0  0  0  0  0
   -2.4595    2.2469    0.7344 F   0  0  0  0  0  0  0  0  0  0  0  0
   -2.9252    1.6756   -1.3115 F   0  0  0  0  0  0  0  0  0  0  0  0
    1.7044   -0.7212   -1.8816 O   0  0  0  0  0  0  0  0  0  0  0  0
    3.7507    0.1120   -0.0331 N   0  0  0  0  0  0  0  0  0  0  0  0
    1.5840   -1.0148   -0.4834 C   0  0  0  0  0  0  0  0  0  0  0  0
    2.3372    0.0543    0.3328 C   0  0  0  0  0  0  0  0  0  0  0  0
    0.1380   -1.0838   -0.1240 C   0  0  0  0  0  0  0  0  0  0  0  0
   -0.6651    0.0505   -0.2422 C   0  0  0  0  0  0  0  0  0  0  0  0
   -0.4112   -2.2832    0.3296 C   0  0  0  0  0  0  0  0  0  0  0  0
   -2.0176   -0.0146    0.0931 C   0  0  0  0  0  0  0  0  0  0  0  0
    4.4397    1.1426    0.7287 C   0  0  0  0  0  0  0  0  0  0  0  0
   -1.7635   -2.3483    0.6649 C   0  0  0  0  0  0  0  0  0  0  0  0
   -2.5667   -1.2141    0.5466 C   0  0  0  0  0  0  0  0  0  0  0  0
   -2.8772    1.1976   -0.0339 C   0  0  0  0  0  0  0  0  0  0  0  0
    5.9097    1.2134    0.3519 C   0  0  0  0  0  0  0  0  0  0  0  0
  1 15  1  0
  2 15  1  0
  3 15  1  0
  4  6  1  0
  5  7  1  0
  5 12  1  0
  6  7  1  0
  6  8  1  0
  8  9  2  0
  8 10  1  0
  9 11  1  0
 10 13  2  0
 11 14  2  0
 11 15  1  0
 12 16  1  0
 13 14  1  0
M  END
>  <PUBCHEM_COMPOUND_CID>  (1) 
43910

>  <PUBCHEM_CONFORMER_RMSD>  (1) 
0.6

>  <PUBCHEM_CONFORMER_DIVERSEORDER>  (1) 
1
21
42
18
3
37
40
27
41
30
29
48
15
6
34
43
44
49
25
4
47
38
12
8
19
10
32
7
45
11
9
16
39
2
35
13
17
50
22
5
36
31
24
28
26
46
14
23
33
20

>  <PUBCHEM_MMFF94_PARTIAL_CHARGES>  (1) 
21
1 -0.34
10 -0.15
11 -0.14
12 0.27
13 -0.15
14 -0.15
15 1.16
2 -0.34
20 0.36
21 0.15
22 0.15
25 0.15
26 0.15
27 0.4
3 -0.34
4 -0.68
5 -0.9
6 0.42
7 0.27
8 -0.14
9 -0.15

>  <PUBCHEM_EFFECTIVE_ROTOR_COUNT>  (1) 
5

>  <PUBCHEM_PHARMACOPHORE_FEATURES>  (1) 
5
1 4 acceptor
1 4 donor
1 5 cation
1 5 donor
6 8 9 10 11 13 14 rings

>  <PUBCHEM_HEAVY_ATOM_COUNT>  (1) 
16

>  <PUBCHEM_ATOM_DEF_STEREO_COUNT>  (1) 
0

>  <PUBCHEM_ATOM_UDEF_STEREO_COUNT>  (1) 
1

>  <PUBCHEM_BOND_DEF_STEREO_COUNT>  (1) 
0

>  <PUBCHEM_BOND_UDEF_STEREO_COUNT>  (1) 
0

>  <PUBCHEM_ISOTOPIC_ATOM_COUNT>  (1) 
0

>  <PUBCHEM_COMPONENT_COUNT>  (1) 
1

>  <PUBCHEM_CACTVS_TAUTO_COUNT>  (1) 
1

>  <PUBCHEM_CONFORMER_ID>  (1) 
0000AB8600000001

>  <PUBCHEM_MMFF94_ENERGY>  (1) 
20.6388

>  <PUBCHEM_FEATURE_SELFOVERLAP>  (1) 
25.374

>  <PUBCHEM_SHAPE_FINGERPRINT>  (1) 
10608611 8 18342460352639962730
122479 349 18413669123716902886
12251169 10 18040716991341048924
12403259 415 18189620436591921381
12507560 40 18410859876046073762
13214271 11 18342455988763214622
13296909 8 18186798123229183462
14123255 352 18410851075526027116
14178342 30 17821733870545312746
14251764 30 12534766344779048885
15042514 8 18047196533391593746
15061688 2 18335412414222840253
15209294 21 18040991856647992706
15219456 202 18272942621962232526
15279308 16 18201444683400205566
16945 1 18189073017388376899
1741750 31 18410576171532664490
17834072 32 18411701010741197808
18186145 218 18268157448114610399
18915476 22 17346054293898159446
20281475 54 10665236929788001798
20510252 161 18411986883605975931
20645477 56 18409733971369075090
20645477 70 17203342091729133430
20671657 1 18048600322098390659
21524375 3 18190186685249394579
21650355 55 17974854183000556162
23402539 116 18267296719853230367
23500284 214 18412547599991436008
23557571 272 18271253831814636294
23559900 14 18270965614620745710
27216 239 18341049726149558050
2748010 2 18045521737170236983
633830 44 17984985895256383493
7364860 26 17978511936264020915
81228 2 18190481509074216667
90316 7 17458336442737982604

>  <PUBCHEM_SHAPE_MULTIPOLES>  (1) 
296.6
8.83
2.26
1
13.57
0.16
0.37
-5.69
-1.71
-2.2
-0.28
0.12
0.01
0.84

>  <PUBCHEM_SHAPE_SELFOVERLAP>  (1) 
604.965

>  <PUBCHEM_SHAPE_VOLUME>  (1) 
173.7

>  <PUBCHEM_COORDINATE_TYPE>  (1) 
2
5
10

$$$$
