43929
     RDKit          3D

 20 20  0  0  0  0  0  0  0  0999 V2000
   -4.6104   -0.2404    0.1897 O   0  0  0  0  0  0  0  0  0  0  0  0
   -3.9916    1.5805   -1.0752 O   0  0  0  0  0  0  0  0  0  0  0  0
    4.1969   -0.1445    0.0787 N   0  0  0  0  0  0  0  0  0  0  0  0
   -1.9071   -1.9627    1.3509 N   0  0  0  0  0  0  0  0  0  0  0  0
    2.8205    0.1120   -0.0907 C   0  0  0  0  0  0  0  0  0  0  0  0
    4.9097    0.3974    1.2185 C   0  0  0  0  0  0  0  0  0  0  0  0
    4.9136   -0.9651   -0.8773 C   0  0  0  0  0  0  0  0  0  0  0  0
    2.1364    0.8919    0.8420 C   0  0  0  0  0  0  0  0  0  0  0  0
    2.1432   -0.4137   -1.1910 C   0  0  0  0  0  0  0  0  0  0  0  0
    5.3068    1.8443    0.9803 C   0  0  0  0  0  0  0  0  0  0  0  0
    4.7017   -2.4437   -0.5995 C   0  0  0  0  0  0  0  0  0  0  0  0
    0.1140    0.6169   -0.4237 C   0  0  0  0  0  0  0  0  0  0  0  0
    0.7750    1.1456    0.6745 C   0  0  0  0  0  0  0  0  0  0  0  0
    0.7819   -0.1598   -1.3584 C   0  0  0  0  0  0  0  0  0  0  0  0
   -1.3215    0.8846   -0.6004 C   0  0  0  0  0  0  0  0  0  0  0  0
   -2.3248    0.1398   -0.0990 C   0  0  0  0  0  0  0  0  0  0  0  0
   -3.7142    0.5993   -0.3999 C   0  0  0  0  0  0  0  0  0  0  0  0
   -5.9903    0.0801   -0.0176 C   0  0  0  0  0  0  0  0  0  0  0  0
   -2.0929   -1.0198    0.7003 C   0  0  0  0  0  0  0  0  0  0  0  0
   -6.8469   -0.9425    0.6979 C   0  0  0  0  0  0  0  0  0  0  0  0
  1 17  1  0
  1 18  1  0
  2 17  2  0
  3  5  1  0
  3  6  1  0
  3  7  1  0
  4 19  3  0
  5  8  2  0
  5  9  1  0
  6 10  1  0
  7 11  1  0
  8 13  1  0
  9 14  2  0
 12 13  2  0
 12 14  1  0
 12 15  1  0
 15 16  2  0
 16 17  1  0
 16 19  1  0
 18 20  1  0
M  END
>  <PUBCHEM_COMPOUND_CID>  (1) 
43929

>  <PUBCHEM_CONFORMER_RMSD>  (1) 
0.8

>  <PUBCHEM_CONFORMER_DIVERSEORDER>  (1) 
1
21
24
3
25
15
22
30
14
23
27
32
29
13
8
31
26
28
2
18
19
5
4
16
10
11
20
12
17
6
9
7

>  <PUBCHEM_MMFF94_PARTIAL_CHARGES>  (1) 
22
1 -0.43
12 0.03
13 -0.15
14 -0.15
15 -0.18
16 0.08
17 0.71
18 0.28
19 0.49
2 -0.57
25 0.15
26 0.15
3 -0.84
33 0.15
34 0.15
35 0.15
4 -0.56
5 0.1
6 0.37
7 0.37
8 -0.15
9 -0.15

>  <PUBCHEM_EFFECTIVE_ROTOR_COUNT>  (1) 
7

>  <PUBCHEM_PHARMACOPHORE_FEATURES>  (1) 
4
1 2 acceptor
1 3 cation
1 4 acceptor
6 5 8 9 12 13 14 rings

>  <PUBCHEM_HEAVY_ATOM_COUNT>  (1) 
20

>  <PUBCHEM_ATOM_DEF_STEREO_COUNT>  (1) 
0

>  <PUBCHEM_ATOM_UDEF_STEREO_COUNT>  (1) 
0

>  <PUBCHEM_BOND_DEF_STEREO_COUNT>  (1) 
0

>  <PUBCHEM_BOND_UDEF_STEREO_COUNT>  (1) 
1

>  <PUBCHEM_ISOTOPIC_ATOM_COUNT>  (1) 
0

>  <PUBCHEM_COMPONENT_COUNT>  (1) 
1

>  <PUBCHEM_CACTVS_TAUTO_COUNT>  (1) 
1

>  <PUBCHEM_CONFORMER_ID>  (1) 
0000AB9900000001

>  <PUBCHEM_MMFF94_ENERGY>  (1) 
55.5298

>  <PUBCHEM_FEATURE_SELFOVERLAP>  (1) 
20.297

>  <PUBCHEM_SHAPE_FINGERPRINT>  (1) 
12236239 1 16153425047887806925
12403259 415 18409726232044022013
12596602 18 18131073723283057651
12616971 3 16630237035158374548
13073987 5 18201440246551432489
13533116 47 17917711284126062274
13760787 5 17417801834326032172
13862211 1 17894914079462054683
13955234 65 18060127740238883394
14115302 16 17894921744965600839
14341114 176 18130790066004173385
14573314 32 18335137549142782436
15375358 24 18413385432399988932
15475509 35 18261946337775440226
17844677 252 18343024354660392148
200 152 16845569807921717169
20645477 70 17917429792333265118
21130935 74 18201723946791031787
21150785 3 16805615775555310422
21267235 1 17775010042797919806
21279426 13 18194962946121174485
220451 1 17418089948805042380
23402539 116 18260260859426956525
23557571 272 18187078417702174932
23559900 14 18334300847270671974
26918003 58 16988846086121960447
29717793 49 17312825970222138423
300161 21 12535345663079271965
3004659 81 17313111860203767686
34797466 226 18114472231643759732
4340502 62 18409160031053370314
465052 167 18131354064462527838
5104073 3 17845652538910169064
542803 24 15339120143471345037
59755656 215 18041276583184374343

>  <PUBCHEM_SHAPE_MULTIPOLES>  (1) 
389.89
14.72
1.72
1.22
11.71
0.52
0.02
1.89
2.6
-2.11
0.21
-0.12
0.08
2.06

>  <PUBCHEM_SHAPE_SELFOVERLAP>  (1) 
793.231

>  <PUBCHEM_SHAPE_VOLUME>  (1) 
226.2

>  <PUBCHEM_COORDINATE_TYPE>  (1) 
2
5
10

$$$$
