43923
     RDKit          3D

 13 12  0  0  1  0  0  0  0  0999 V2000
    1.2252   -1.4797   -0.2468 C   0  0  0  0  0  0  0  0  0  0  0  0
   -0.0308   -0.8527   -0.8969 C   0  0  0  0  0  0  0  0  0  0  0  0
    2.1104   -0.4526    0.4946 C   0  0  0  0  0  0  0  0  0  0  0  0
   -1.0838   -0.3295    0.0876 C   0  0  0  0  0  0  0  0  0  0  0  0
    0.8291   -2.6529    0.6792 C   0  0  0  0  0  0  0  0  0  0  0  0
   -2.3044    0.2228   -0.6583 C   0  0  0  0  0  0  0  0  0  0  0  0
    2.5986    0.7409   -0.3365 C   0  0  0  0  0  0  0  0  0  0  0  0
   -3.3901    0.7889    0.2757 C   0  0  0  0  0  0  0  0  0  0  0  0
    3.5177    1.6854    0.4390 C   0  0  0  0  0  0  0  0  0  0  0  0
    0.0033   -3.7277   -0.0162 C   0  0  0  0  0  0  0  0  0  0  0  0
   -4.5795    1.2823   -0.5519 C   0  0  0  0  0  0  0  0  0  0  0  0
   -2.8689    1.9246    1.1574 C   0  0  0  0  0  0  0  0  0  0  0  0
    3.9732    2.8502   -0.4269 C   0  0  0  0  0  0  0  0  0  0  0  0
  1  2  1  0
  1  3  1  0
  1  5  1  0
  2  4  1  0
  3  7  1  0
  4  6  1  0
  5 10  1  0
  6  8  1  0
  7  9  1  0
  8 11  1  0
  8 12  1  0
  9 13  1  0
M  END
>  <PUBCHEM_COMPOUND_CID>  (1) 
43923

>  <PUBCHEM_CONFORMER_RMSD>  (1) 
0.8

>  <PUBCHEM_CONFORMER_DIVERSEORDER>  (1) 
2
22
24
44
55
14
9
45
21
27
36
1
28
8
48
43
57
50
16
15
34
23
31
11
51
59
39
38
54
12
47
26
40
56
7
37
58
53
10
60
19
30
20
18
3
4
35
49
42
6
33
46
32
25
41
17
52
29
13
5

>  <PUBCHEM_MMFF94_PARTIAL_CHARGES>  (1) 
0

>  <PUBCHEM_EFFECTIVE_ROTOR_COUNT>  (1) 
8

>  <PUBCHEM_PHARMACOPHORE_FEATURES>  (1) 
6
1 10 hydrophobe
1 13 hydrophobe
3 1 2 5 hydrophobe
3 4 6 8 hydrophobe
3 8 11 12 hydrophobe
5 1 3 5 7 9 hydrophobe

>  <PUBCHEM_HEAVY_ATOM_COUNT>  (1) 
13

>  <PUBCHEM_ATOM_DEF_STEREO_COUNT>  (1) 
0

>  <PUBCHEM_ATOM_UDEF_STEREO_COUNT>  (1) 
1

>  <PUBCHEM_BOND_DEF_STEREO_COUNT>  (1) 
0

>  <PUBCHEM_BOND_UDEF_STEREO_COUNT>  (1) 
0

>  <PUBCHEM_ISOTOPIC_ATOM_COUNT>  (1) 
0

>  <PUBCHEM_COMPONENT_COUNT>  (1) 
1

>  <PUBCHEM_CACTVS_TAUTO_COUNT>  (1) 
1

>  <PUBCHEM_CONFORMER_ID>  (1) 
0000AB9300000002

>  <PUBCHEM_MMFF94_ENERGY>  (1) 
7.9446

>  <PUBCHEM_FEATURE_SELFOVERLAP>  (1) 
31.242

>  <PUBCHEM_SHAPE_FINGERPRINT>  (1) 
122479 349 18338234998237173836
12788726 201 17832693944089855074
13618510 140 18413109476235175328
14123255 52 18410009978889685436
15342168 16 18334575775937015165
17041 49 17620479004435235099
170605 34 18272371940655864471
1741750 31 18268146642509734464
17834072 32 18265617761234174588
201361 129 18269278967149477801
204376 136 18335983150830682245
20510252 161 18124038080998931562
20671657 1 18267590112936607623
21499 59 18410287025733638301
21524375 3 18271802432471926924
22096605 113 18337951186814097873
22182937 141 18052261988066473992
2255824 54 18197216949337952663
23532345 1 18337108952407042169
23558518 356 18044093682072011370
298252 57 17489584588916348118
31174 14 18046626703210819551
4175511 71 17476650775787871547
474 4 18410008814842629057
6333272 397 18410575093527320227
633830 44 18343586222123384141
68521 5 17761775474020590686
7364860 26 18194964037032779183
81228 2 17756149243104117826
81539 233 18409163290411288901
8199 26 18341333387418161552

>  <PUBCHEM_SHAPE_MULTIPOLES>  (1) 
267.53
7.44
3.82
0.94
2.81
2.8
0.06
-9.03
-0.27
-2.47
0.35
0.3
-0.15
-0.61

>  <PUBCHEM_SHAPE_SELFOVERLAP>  (1) 
478.085

>  <PUBCHEM_SHAPE_VOLUME>  (1) 
175.6

>  <PUBCHEM_COORDINATE_TYPE>  (1) 
2
5
10

$$$$
