43933
     RDKit          3D

 18 20  0  0  0  0  0  0  0  0999 V2000
   -0.4761    0.7206    0.2324 O   0  0  0  0  0  0  0  0  0  0  0  0
   -0.7736   -1.4962   -0.1344 N   0  0  0  0  0  0  0  0  0  0  0  0
    6.4437    1.4303   -0.5491 N   0  0  0  0  0  0  0  0  0  0  0  0
    3.0966   -0.1162    0.3695 C   0  0  0  0  0  0  0  0  0  0  0  0
    4.4630    0.4565    0.5616 C   0  0  0  0  0  0  0  0  0  0  0  0
    0.7529    0.1255    0.2315 C   0  0  0  0  0  0  0  0  0  0  0  0
    0.5670   -1.2307    0.0071 C   0  0  0  0  0  0  0  0  0  0  0  0
    1.9874    0.7351    0.4186 C   0  0  0  0  0  0  0  0  0  0  0  0
    2.9532   -1.4911    0.1454 C   0  0  0  0  0  0  0  0  0  0  0  0
    1.6893   -2.0700   -0.0392 C   0  0  0  0  0  0  0  0  0  0  0  0
    5.1018    0.8978   -0.7603 C   0  0  0  0  0  0  0  0  0  0  0  0
   -1.3330   -0.3145    0.0072 C   0  0  0  0  0  0  0  0  0  0  0  0
   -2.7237    0.0439   -0.0383 C   0  0  0  0  0  0  0  0  0  0  0  0
   -3.1142    1.3739    0.1419 C   0  0  0  0  0  0  0  0  0  0  0  0
   -3.6947   -0.9361   -0.2621 C   0  0  0  0  0  0  0  0  0  0  0  0
   -4.4645    1.7210    0.0987 C   0  0  0  0  0  0  0  0  0  0  0  0
   -5.0451   -0.5892   -0.3054 C   0  0  0  0  0  0  0  0  0  0  0  0
   -5.4299    0.7394   -0.1249 C   0  0  0  0  0  0  0  0  0  0  0  0
  1  6  1  0
  1 12  1  0
  2  7  1  0
  2 12  2  0
  3 11  1  0
  4  5  1  0
  4  8  2  0
  4  9  1  0
  5 11  1  0
  6  7  2  0
  6  8  1  0
  7 10  1  0
  9 10  2  0
 12 13  1  0
 13 14  2  0
 13 15  1  0
 14 16  1  0
 15 17  2  0
 16 18  2  0
 17 18  1  0
M  END
>  <PUBCHEM_COMPOUND_CID>  (1) 
43933

>  <PUBCHEM_CONFORMER_RMSD>  (1) 
0.6

>  <PUBCHEM_CONFORMER_DIVERSEORDER>  (1) 
2
5
4
3
1
6

>  <PUBCHEM_MMFF94_PARTIAL_CHARGES>  (1) 
28
1 -0.28
10 -0.15
11 0.27
12 0.43
13 0.05
14 -0.15
15 -0.15
16 -0.15
17 -0.15
18 -0.15
2 -0.57
21 0.15
22 0.15
23 0.15
26 0.15
27 0.15
28 0.36
29 0.36
3 -0.99
30 0.15
31 0.15
32 0.15
4 -0.14
5 0.14
6 0.14
7 0.23
8 -0.15
9 -0.15

>  <PUBCHEM_EFFECTIVE_ROTOR_COUNT>  (1) 
3

>  <PUBCHEM_PHARMACOPHORE_FEATURES>  (1) 
5
1 3 cation
1 3 donor
5 1 2 6 7 12 rings
6 13 14 15 16 17 18 rings
6 4 6 7 8 9 10 rings

>  <PUBCHEM_HEAVY_ATOM_COUNT>  (1) 
18

>  <PUBCHEM_ATOM_DEF_STEREO_COUNT>  (1) 
0

>  <PUBCHEM_ATOM_UDEF_STEREO_COUNT>  (1) 
0

>  <PUBCHEM_BOND_DEF_STEREO_COUNT>  (1) 
0

>  <PUBCHEM_BOND_UDEF_STEREO_COUNT>  (1) 
0

>  <PUBCHEM_ISOTOPIC_ATOM_COUNT>  (1) 
0

>  <PUBCHEM_COMPONENT_COUNT>  (1) 
1

>  <PUBCHEM_CACTVS_TAUTO_COUNT>  (1) 
1

>  <PUBCHEM_CONFORMER_ID>  (1) 
0000AB9D00000002

>  <PUBCHEM_MMFF94_ENERGY>  (1) 
33.2209

>  <PUBCHEM_FEATURE_SELFOVERLAP>  (1) 
25.489

>  <PUBCHEM_SHAPE_FINGERPRINT>  (1) 
10014705 185 18261669265134510405
11471102 20 18341608179166894090
11796584 16 13614524064929819820
12107183 9 17547571479329502323
12236239 1 18186799188576102064
12390115 104 17987811717676214561
12403259 415 18131625720737772449
12596602 18 17022902354516566833
12670543 26 18130516262513988132
13760787 19 18343861113105237591
14528608 73 18341611533826385764
14790565 3 18336834190348703404
15048467 5 18334294270932254900
15196674 1 18340204098818603979
15536298 74 18272086046173870635
15961568 22 18187087239206441548
1601671 61 18409166610732511380
17834072 33 18343579646486099543
18222031 100 8358262579360470442
19784866 140 16559039268088021418
200 152 17989479715665025579
20281389 69 18187078464888740484
20612939 158 18340209579413274910
20645477 70 18129098931179493550
21267235 1 18342181016483456699
21637258 2 13470414327689389828
23402539 116 18201147819544974565
23402655 69 18272929397499088367
23559900 14 17913482446183464963
245318 6 17171258496628089860
25147074 1 18336809971186389706
293599 30 18411702106152543208
296302 2 18260548905144479963
300161 21 18260261932746695973
3004659 81 18411421666711610246
3472631 163 18190471635408464988
34797466 226 17346320444157185820
3545911 37 18413388731140613625
4214541 1 18341327791513085673
4325135 7 18410572916274417527
4340502 62 16732703844082170066
474 4 17967818270797258428
4990 188 17775571931482910270
5104073 3 18339640040921987203
542803 24 18259983773131335929
633830 44 18335698282846086775
77779 3 18341048519717519227
9709674 26 18341334414321637743

>  <PUBCHEM_SHAPE_MULTIPOLES>  (1) 
354.6
12.87
1.76
0.7
3.02
0.3
0.02
-5.98
1.91
0.33
0.07
0.34
-0.07
-0.57

>  <PUBCHEM_SHAPE_SELFOVERLAP>  (1) 
780.832

>  <PUBCHEM_SHAPE_VOLUME>  (1) 
193.2

>  <PUBCHEM_COORDINATE_TYPE>  (1) 
2
5
10

$$$$
