43936
     RDKit          3D

 22 24  0  0  1  0  0  0  0  0999 V2000
   -3.2551   -2.3133    1.1524 Cl  0  0  0  0  0  0  0  0  0  0  0  0
   -6.9074    1.4881    0.1035 Cl  0  0  0  0  0  0  0  0  0  0  0  0
   -0.3423    0.6266   -0.1577 O   0  0  0  0  0  0  0  0  0  0  0  0
    6.2451    1.3447    0.8914 O   0  0  0  0  0  0  0  0  0  0  0  0
    4.2107    1.0545    1.8467 O   0  0  0  0  0  0  0  0  0  0  0  0
   -0.7668   -1.5963   -0.2832 N   0  0  0  0  0  0  0  0  0  0  0  0
    4.5863    0.1506   -0.3914 C   0  0  0  0  0  0  0  0  0  0  0  0
    3.1858   -0.3690   -0.3678 C   0  0  0  0  0  0  0  0  0  0  0  0
    0.8538   -0.0258   -0.2495 C   0  0  0  0  0  0  0  0  0  0  0  0
    2.1243    0.5366   -0.2659 C   0  0  0  0  0  0  0  0  0  0  0  0
    0.5902   -1.3855   -0.3258 C   0  0  0  0  0  0  0  0  0  0  0  0
    2.9638   -1.7494   -0.4471 C   0  0  0  0  0  0  0  0  0  0  0  0
    1.6656   -2.2796   -0.4276 C   0  0  0  0  0  0  0  0  0  0  0  0
    4.8854    1.0806   -1.5835 C   0  0  0  0  0  0  0  0  0  0  0  0
   -1.2592   -0.3809   -0.1848 C   0  0  0  0  0  0  0  0  0  0  0  0
   -2.6304    0.0399   -0.0982 C   0  0  0  0  0  0  0  0  0  0  0  0
    4.9665    0.8836    0.8989 C   0  0  0  0  0  0  0  0  0  0  0  0
   -3.6196   -0.7581    0.4884 C   0  0  0  0  0  0  0  0  0  0  0  0
   -2.9791    1.2904   -0.6207 C   0  0  0  0  0  0  0  0  0  0  0  0
   -4.9395   -0.3112    0.5515 C   0  0  0  0  0  0  0  0  0  0  0  0
   -4.2990    1.7372   -0.5580 C   0  0  0  0  0  0  0  0  0  0  0  0
   -5.2792    0.9364    0.0282 C   0  0  0  0  0  0  0  0  0  0  0  0
  1 18  1  0
  2 22  1  0
  3  9  1  0
  3 15  1  0
  4 17  1  0
  5 17  2  0
  6 11  1  0
  6 15  2  0
  7  8  1  0
  7 14  1  0
  7 17  1  0
  8 10  1  0
  8 12  2  0
  9 10  2  0
  9 11  1  0
 11 13  2  0
 12 13  1  0
 15 16  1  0
 16 18  2  0
 16 19  1  0
 18 20  1  0
 19 21  2  0
 20 22  2  0
 21 22  1  0
M  END
>  <PUBCHEM_COMPOUND_CID>  (1) 
43936

>  <PUBCHEM_CONFORMER_RMSD>  (1) 
0.6

>  <PUBCHEM_CONFORMER_DIVERSEORDER>  (1) 
6
21
27
36
10
23
3
16
22
1
34
5
9
18
31
28
32
37
14
11
30
4
35
19
29
2
24
12
17
15
7
25
26
20
13
33
8

>  <PUBCHEM_MMFF94_PARTIAL_CHARGES>  (1) 
28
1 -0.18
10 -0.15
11 0.23
12 -0.15
13 -0.15
15 0.43
16 0.05
17 0.66
18 0.18
19 -0.15
2 -0.18
20 -0.15
21 -0.15
22 0.18
24 0.15
25 0.15
26 0.15
3 -0.28
30 0.15
31 0.15
32 0.15
33 0.5
4 -0.65
5 -0.57
6 -0.57
7 0.2
8 -0.14
9 0.14

>  <PUBCHEM_EFFECTIVE_ROTOR_COUNT>  (1) 
3

>  <PUBCHEM_PHARMACOPHORE_FEATURES>  (1) 
7
1 14 hydrophobe
1 4 acceptor
1 5 acceptor
3 4 5 17 anion
5 3 6 9 11 15 rings
6 16 18 19 20 21 22 rings
6 8 9 10 11 12 13 rings

>  <PUBCHEM_HEAVY_ATOM_COUNT>  (1) 
22

>  <PUBCHEM_ATOM_DEF_STEREO_COUNT>  (1) 
0

>  <PUBCHEM_ATOM_UDEF_STEREO_COUNT>  (1) 
1

>  <PUBCHEM_BOND_DEF_STEREO_COUNT>  (1) 
0

>  <PUBCHEM_BOND_UDEF_STEREO_COUNT>  (1) 
0

>  <PUBCHEM_ISOTOPIC_ATOM_COUNT>  (1) 
0

>  <PUBCHEM_COMPONENT_COUNT>  (1) 
1

>  <PUBCHEM_CACTVS_TAUTO_COUNT>  (1) 
1

>  <PUBCHEM_CONFORMER_ID>  (1) 
0000ABA000000006

>  <PUBCHEM_MMFF94_ENERGY>  (1) 
49.2425

>  <PUBCHEM_FEATURE_SELFOVERLAP>  (1) 
35.698

>  <PUBCHEM_SHAPE_FINGERPRINT>  (1) 
10 15 17894919541958984433
10319926 262 18260824887222458138
10670039 82 18339097990628068300
10912923 1 17095524045432507862
11089746 13 17632572747614275298
11128504 68 15626221325254628712
11595378 159 17168414974373490644
12236239 1 16226048907525213353
12403259 118 18261110841490757820
12403259 415 18272376420607343528
12596602 18 16443070529505872505
12616971 3 16298391287806903535
12633257 1 17458061585994488796
12730499 353 18202289091145453606
12969540 114 17703783725935322750
13533116 47 18199188395409194307
13675066 3 18412548729721042878
13685833 64 10665230341055046637
13955234 65 18199187291618923722
14341114 328 17458063794024345256
14461889 52 18261398862441226939
14528608 73 17846775204606235061
15183329 4 14261356855703459792
15196674 1 18408609128246116647
15375358 24 18335144172135632163
1601671 61 18335424577860593860
16079462 125 18336538335926571541
17980427 23 17822578316749353839
1813 80 15574721270025231895
18222031 100 7853856087952433332
19784866 170 18409166619105921222
20645477 56 18260832583945796141
20645477 70 17916027862751338391
21033648 29 18129649915754578416
21130935 74 18338522933325278715
21150785 3 15697993055096893141
21452121 103 18411695453264350882
21859007 373 16807556272308424055
220451 1 15864075390210344938
23402539 116 17895192233948939095
23559900 14 18261682450183410494
2916195 48 18201995577459509480
300161 21 18411416198706325119
34797466 226 16702021989152046213
34934 24 18342171167859599055
3545911 37 18409735032247031325
4073 2 18114190747549911906
4340502 62 17313107427644544003
495365 180 17632287974514527758
5104073 3 18335988562705961635
542803 24 17676491656869037213
59682541 52 16630259034861995492
960060 61 13542466471123642572

>  <PUBCHEM_SHAPE_MULTIPOLES>  (1) 
433.9
14.94
2.1
1.07
2.88
0.92
0.24
-8.64
2.43
0.72
0.03
-1.3
-0.21
1.33

>  <PUBCHEM_SHAPE_SELFOVERLAP>  (1) 
939.797

>  <PUBCHEM_SHAPE_VOLUME>  (1) 
240.7

>  <PUBCHEM_COORDINATE_TYPE>  (1) 
2
5
10

$$$$
