4394
     RDKit          3D

 33 35  0  0  1  0  0  0  0  0999 V2000
    2.6107   -1.1584    2.4972 O   0  0  0  0  0  0  0  0  0  0  0  0
   -0.7894   -1.8526   -0.8155 O   0  0  0  0  0  0  0  0  0  0  0  0
    2.3089   -2.7417   -1.3787 O   0  0  0  0  0  0  0  0  0  0  0  0
    2.6326   -1.5366   -3.7806 O   0  0  0  0  0  0  0  0  0  0  0  0
   -3.4484    1.5890    0.4366 N   0  0  0  0  0  0  0  0  0  0  0  0
    1.1380   -0.8364    0.7350 N   0  0  0  0  0  0  0  0  0  0  0  0
   -1.9537   -2.7228    0.9893 N   0  0  0  0  0  0  0  0  0  0  0  0
    3.4356   -1.2003   -2.6829 N   0  0  0  0  0  0  0  0  0  0  0  0
   -0.0484   -1.2793    1.4230 C   0  0  0  0  0  0  0  0  0  0  0  0
   -0.7222   -0.1373    2.2024 C   0  0  0  0  0  0  0  0  0  0  0  0
    3.5115   -0.3113    0.4330 C   0  0  0  0  0  0  0  0  0  0  0  0
   -1.6035    0.7571    1.3837 C   0  0  0  0  0  0  0  0  0  0  0  0
    4.6147    0.4214    1.2232 C   0  0  0  0  0  0  0  0  0  0  0  0
   -4.8535    1.7462    0.1047 C   0  0  0  0  0  0  0  0  0  0  0  0
   -1.2219    1.7641    0.4388 C   0  0  0  0  0  0  0  0  0  0  0  0
   -2.3942    2.2522   -0.1542 C   0  0  0  0  0  0  0  0  0  0  0  0
   -5.3574    0.8036   -0.9993 C   0  0  0  0  0  0  0  0  0  0  0  0
    5.5468    1.3104    0.3727 C   0  0  0  0  0  0  0  0  0  0  0  0
   -2.9844    0.7518    1.4154 C   0  0  0  0  0  0  0  0  0  0  0  0
   -5.5390   -0.6505   -0.5392 C   0  0  0  0  0  0  0  0  0  0  0  0
    2.3863   -0.8124    1.3375 C   0  0  0  0  0  0  0  0  0  0  0  0
   -4.2883   -1.5138   -0.7379 C   0  0  0  0  0  0  0  0  0  0  0  0
    4.0922   -1.4801   -0.3831 C   0  0  0  0  0  0  0  0  0  0  0  0
   -4.2954   -2.7338    0.1897 C   0  0  0  0  0  0  0  0  0  0  0  0
   -0.9464   -1.9751    0.3984 C   0  0  0  0  0  0  0  0  0  0  0  0
   -2.9518   -3.4622    0.2288 C   0  0  0  0  0  0  0  0  0  0  0  0
    0.0164    2.2954    0.0169 C   0  0  0  0  0  0  0  0  0  0  0  0
   -2.3675    3.2291   -1.1628 C   0  0  0  0  0  0  0  0  0  0  0  0
    6.6514    1.9646    1.2036 C   0  0  0  0  0  0  0  0  0  0  0  0
    4.7236    2.3928   -0.3319 C   0  0  0  0  0  0  0  0  0  0  0  0
    0.0492    3.2757   -0.9798 C   0  0  0  0  0  0  0  0  0  0  0  0
   -1.1272    3.7318   -1.5630 C   0  0  0  0  0  0  0  0  0  0  0  0
    3.1746   -1.8807   -1.5211 C   0  0  0  0  0  0  0  0  0  0  0  0
  1 21  2  0
  2 25  2  0
  3 33  2  0
  4  8  1  0
  5 14  1  0
  5 16  1  0
  5 19  1  0
  6  9  1  0
  6 21  1  0
  7 25  1  0
  7 26  1  0
  8 33  1  0
  9 10  1  0
  9 25  1  0
 10 12  1  0
 11 13  1  0
 11 21  1  0
 11 23  1  0
 12 15  1  0
 12 19  2  0
 13 18  1  0
 14 17  1  0
 15 16  2  0
 15 27  1  0
 16 28  1  0
 17 20  1  0
 18 29  1  0
 18 30  1  0
 20 22  1  0
 22 24  1  0
 23 33  1  0
 24 26  1  0
 27 31  2  0
 28 32  2  0
 31 32  1  0
M  END
>  <PUBCHEM_COMPOUND_CID>  (1) 
4394

>  <PUBCHEM_CONFORMER_RMSD>  (1) 
1.2

>  <PUBCHEM_CONFORMER_DIVERSEORDER>  (1) 
4
468
443
280
193
615
332
679
27
313
308
662
398
282
348
486
18
660
35
20
75
272
465
563
121
87
379
115
656
73
77
196
177
19
86
90
58
243
85
611
442
232
1
84
127
560
311
629
166
676
254
588
11
671
269
143
538
252
381
473
506
114
339
440
171
12
275
220
294
61
155
450
21
51
72
2
16
522
98
125
394
451
356
330
24
117
14
76
30
149
545
44
150
402
579
170
246
56
278
495
130
89
137
50
403
594
283
187
539
43
401
13
642
180
109
467
60
284
368
79
469
295
475
497
122
241
645
29
639
406
45
183
316
34
39
355
52
141
233
10
48
49
40
244
154
400
15
31
444
132
665
172
491
164
66
120
161
6
118
190
286
479
383
262
326
338
476
430
184
9
176
70
625
268
92
136
688
23
433
454
153
97
53
126
253
65
8
5
197
107
7
17
267
448
464
305
249
3
441
366
509
22
226
108
570
64
94

>  <PUBCHEM_MMFF94_PARTIAL_CHARGES>  (1) 
33
1 -0.57
10 0.18
11 0.06
12 -0.18
14 0.26
16 -0.15
19 -0.3
2 -0.57
21 0.57
23 0.06
25 0.57
26 0.3
27 -0.15
28 -0.15
3 -0.57
31 -0.15
32 -0.15
33 0.57
4 -0.44
45 0.15
48 0.37
5 0.05
57 0.37
58 0.15
59 0.15
6 -0.73
66 0.15
67 0.15
68 0.37
69 0.4
7 -0.73
8 -0.39
9 0.36

>  <PUBCHEM_EFFECTIVE_ROTOR_COUNT>  (1) 
9.8

>  <PUBCHEM_PHARMACOPHORE_FEATURES>  (1) 
11
1 1 acceptor
1 2 acceptor
1 3 acceptor
1 5 cation
1 6 donor
1 7 donor
1 8 donor
3 18 29 30 hydrophobe
4 11 13 18 23 hydrophobe
5 5 12 15 16 19 rings
6 15 16 27 28 31 32 rings

>  <PUBCHEM_HEAVY_ATOM_COUNT>  (1) 
33

>  <PUBCHEM_ATOM_DEF_STEREO_COUNT>  (1) 
0

>  <PUBCHEM_ATOM_UDEF_STEREO_COUNT>  (1) 
2

>  <PUBCHEM_BOND_DEF_STEREO_COUNT>  (1) 
0

>  <PUBCHEM_BOND_UDEF_STEREO_COUNT>  (1) 
0

>  <PUBCHEM_ISOTOPIC_ATOM_COUNT>  (1) 
0

>  <PUBCHEM_COMPONENT_COUNT>  (1) 
1

>  <PUBCHEM_CACTVS_TAUTO_COUNT>  (1) 
12

>  <PUBCHEM_CONFORMER_ID>  (1) 
0000112A00000004

>  <PUBCHEM_MMFF94_ENERGY>  (1) 
60.2069

>  <PUBCHEM_FEATURE_SELFOVERLAP>  (1) 
55.973

>  <PUBCHEM_SHAPE_FINGERPRINT>  (1) 
11578080 2 17845675693179029586
14790565 3 17977663118131082057
14840074 17 17912931879010368716
14910302 57 18199181780980184395
15406563 42 18343022215893059134
15575132 122 18126007306978230484
15961568 22 18335701693519533828
17492 54 18187912968517784601
21285901 2 18202278113272498023
23227448 37 18408321099075342480
23559900 14 18058448712505179818
255183 451 17619907705272190271
4280585 95 18190446333122640347
463206 1 18188493591887699561
6036956 94 16815469852568391268

>  <PUBCHEM_SHAPE_MULTIPOLES>  (1) 
635.72
12.08
4.43
2.17
7.51
1.2
-1.28
1.69
-0.17
-2.33
-1.58
2.13
-0.94
1.65

>  <PUBCHEM_SHAPE_SELFOVERLAP>  (1) 
1313.88

>  <PUBCHEM_SHAPE_VOLUME>  (1) 
362.6

>  <PUBCHEM_COORDINATE_TYPE>  (1) 
2
5
10

$$$$
