43949
     RDKit          3D

 27 29  0  0  1  0  0  0  0  0999 V2000
   -5.4126    0.3753   -0.6128 S   0  0  0  0  0  0  0  0  0  0  0  0
    2.8823    1.8197   -0.1734 O   0  0  0  0  0  0  0  0  0  0  0  0
    0.3525    0.2727    1.8021 O   0  0  0  0  0  0  0  0  0  0  0  0
   -0.2000   -2.0669    0.6748 O   0  0  0  0  0  0  0  0  0  0  0  0
   -5.2037    1.7853   -0.9112 O   0  0  0  0  0  0  0  0  0  0  0  0
   -6.0904   -0.4761   -1.5804 O   0  0  0  0  0  0  0  0  0  0  0  0
    3.3871   -1.6462   -0.4637 N   0  0  0  0  0  0  0  0  0  0  0  0
   -0.5046    2.0679    0.6088 N   0  0  0  0  0  0  0  0  0  0  0  0
   -6.2142    0.2429    0.8904 N   0  0  0  0  0  0  0  0  0  0  0  0
    4.8931    0.4465   -0.1394 C   0  0  0  0  0  0  0  0  0  0  0  0
    3.5929    0.8092   -0.8796 C   0  0  0  0  0  0  0  0  0  0  0  0
    4.5292   -0.1892    1.2138 C   0  0  0  0  0  0  0  0  0  0  0  0
    5.6122   -0.6234   -0.9733 C   0  0  0  0  0  0  0  0  0  0  0  0
    2.7088   -0.4450   -1.0032 C   0  0  0  0  0  0  0  0  0  0  0  0
    3.6546   -1.4304    0.9749 C   0  0  0  0  0  0  0  0  0  0  0  0
    4.6764   -1.8283   -1.1668 C   0  0  0  0  0  0  0  0  0  0  0  0
    1.9633    2.4968   -1.0190 C   0  0  0  0  0  0  0  0  0  0  0  0
    1.2584    3.5791   -0.2102 C   0  0  0  0  0  0  0  0  0  0  0  0
    0.5015    3.0219    0.9882 C   0  0  0  0  0  0  0  0  0  0  0  0
   -0.4961    0.7511    1.0540 C   0  0  0  0  0  0  0  0  0  0  0  0
   -1.5916   -0.1167    0.5501 C   0  0  0  0  0  0  0  0  0  0  0  0
   -2.8259    0.4565    0.2443 C   0  0  0  0  0  0  0  0  0  0  0  0
   -1.3984   -1.4879    0.3816 C   0  0  0  0  0  0  0  0  0  0  0  0
   -3.8672   -0.3415   -0.2300 C   0  0  0  0  0  0  0  0  0  0  0  0
   -2.4395   -2.2861   -0.0931 C   0  0  0  0  0  0  0  0  0  0  0  0
   -3.6740   -1.7127   -0.3987 C   0  0  0  0  0  0  0  0  0  0  0  0
   -0.0939   -3.4744    0.4717 C   0  0  0  0  0  0  0  0  0  0  0  0
  1  5  2  0
  1  6  2  0
  1  9  1  0
  1 24  1  0
  2 11  1  0
  2 17  1  0
  3 20  2  0
  4 23  1  0
  4 27  1  0
  7 14  1  0
  7 15  1  0
  7 16  1  0
  8 19  1  0
  8 20  1  0
 10 11  1  0
 10 12  1  0
 10 13  1  0
 11 14  1  0
 12 15  1  0
 13 16  1  0
 17 18  1  0
 18 19  1  0
 20 21  1  0
 21 22  2  0
 21 23  1  0
 22 24  1  0
 23 25  2  0
 24 26  2  0
 25 26  1  0
M  END
>  <PUBCHEM_COMPOUND_CID>  (1) 
43949

>  <PUBCHEM_CONFORMER_RMSD>  (1) 
1

>  <PUBCHEM_CONFORMER_DIVERSEORDER>  (1) 
4
99
397
438
343
33
73
150
254
56
274
87
29
380
238
305
39
267
312
315
398
316
289
251
314
259
64
54
310
212
319
43
428
46
332
350
178
233
78
139
156
79
420
1
418
3
210
42
268
84
258
52
195
255
25
242
2
257
27
412
247
232
335
137
371
384
66
44
437
261
244
18
366
114
15
41
246
346
265
331
389
104
220
245
37
348
302
221
209
152
264
123
118
364
369
284
381
385
217
28
117
227
145
317
17
32
275
408
339
286
388
287
333
325
429
273
192
112
31
72
105
293
57
65
11
122
392
337
358
215
8
236
80
294
415
322
101
91
407
430
241
203
175
171
48
352
172
130
278
376
436
190
34
263
270
158
434
283
98
180
269
36
45
135
30
155
106
288
186
223
89
357
119
95
229
21
100
166
35
417
86
226
9
202
280
282
188
177
219
108
328
406
351
300
354
377
421
62
353
361
427
148
419
324
126
360
127
303
271
340
327
363
140
399
435
83
128
67
249
311
116
296
14
133
163
93
115
307
334
7
143
370
396
6
40
372
291
416
402
179
378
20
58
262
382
121
356
272
110
250
222
208
404
285
234
19
253
109
341
306
362
125
205
225
191
141
124
424
386
218
136
308
198
374
47
134
82
74
422
297
63
159
23
49
410
248
405
161
409
59
187
169
256
395
90
183
50
53
197
292
165
425
61
173
266
243
313
149
142
432
138
38
359
383
184
260
51
368
237
391
355
414
154
147
102
162
76
92
277
26
96
206
276
167
204
423
55
107
193
403
413
160
22
194
120
338
10
394
433
336
174
301
240
321
182
5
131
281
68
200
298
168
309
347
97
426
390
329
12
387
330
345
132
111
393
401
279
295
342
379
144
375
320
214
164
231
199
235
373
88
185
176
228
170
431
113
24
85
94
299
213
211
153
69
189
290
129
70
77
252
181
323
216
326
365
411
16
13
230
201
157
349
146
71
304
103
224
60
196
367
151
81
207
75
239
400
318
344

>  <PUBCHEM_MMFF94_PARTIAL_CHARGES>  (1) 
29
1 1.45
11 0.28
14 0.27
15 0.27
16 0.27
17 0.28
19 0.3
2 -0.56
20 0.54
21 0.09
22 -0.15
23 0.08
24 -0.01
25 -0.15
26 -0.15
27 0.28
3 -0.57
4 -0.36
46 0.37
47 0.15
48 0.15
49 0.15
5 -0.65
50 0.42
51 0.42
6 -0.65
7 -0.81
8 -0.73
9 -0.98

>  <PUBCHEM_EFFECTIVE_ROTOR_COUNT>  (1) 
10.2

>  <PUBCHEM_PHARMACOPHORE_FEATURES>  (1) 
10
1 2 acceptor
1 3 acceptor
1 4 acceptor
1 5 acceptor
1 6 acceptor
1 7 cation
1 8 donor
1 9 donor
6 21 22 23 24 25 26 rings
8 7 10 11 12 13 14 15 16 rings

>  <PUBCHEM_HEAVY_ATOM_COUNT>  (1) 
27

>  <PUBCHEM_ATOM_DEF_STEREO_COUNT>  (1) 
0

>  <PUBCHEM_ATOM_UDEF_STEREO_COUNT>  (1) 
1

>  <PUBCHEM_BOND_DEF_STEREO_COUNT>  (1) 
0

>  <PUBCHEM_BOND_UDEF_STEREO_COUNT>  (1) 
0

>  <PUBCHEM_ISOTOPIC_ATOM_COUNT>  (1) 
0

>  <PUBCHEM_COMPONENT_COUNT>  (1) 
1

>  <PUBCHEM_CACTVS_TAUTO_COUNT>  (1) 
2

>  <PUBCHEM_CONFORMER_ID>  (1) 
0000ABAD00000004

>  <PUBCHEM_MMFF94_ENERGY>  (1) 
59.0133

>  <PUBCHEM_FEATURE_SELFOVERLAP>  (1) 
50.774

>  <PUBCHEM_SHAPE_FINGERPRINT>  (1) 
10498660 4 18411423903941354042
10693767 8 18131055040286622535
11578080 2 14058153995030534292
11646440 116 18342184353419468353
12553582 1 18267892595225941544
12670545 2 18186237321144395546
12788726 201 18339365154414656024
12838862 33 18336813265536536240
13004483 165 18339634543532509502
14117953 113 18271248231456844902
14251751 18 15840975806710564239
14464042 87 18272375234990901689
1454969 45 7925622285972091041
14790565 3 18268998596581132561
14931854 50 18335991887268955558
15099037 51 18410573994189746185
15183329 4 18408601461808361381
15238133 3 18186519943257305862
15420108 30 17338177207987376105
15475509 8 18201447917695124529
17349148 13 17775294863000434633
20715895 44 18261950748120601765
21250096 35 18273216408667739368
21315764 371 14979956994835110007
22440779 20 16592567930126218267
23559900 14 18270680986562546224
3004659 81 18334296470372066500
3178227 256 18337405885361182083
339767 52 18341893004761232630
340366 18 18114186392510699829
3459 83 18272375261135245033
345986 75 17388229296839736434
3680242 22 18335139739375870907
4098825 35 17023762245782095956
437795 139 16198431409219811325
460360 51 18263649644057110001
463206 1 18340207500337711470
6138700 20 18339082592600229102
6442390 28 9079114466735503772
7399639 24 17042889560433020777
8988823 20 16917060083977173848
9709674 26 18122067760731302122

>  <PUBCHEM_SHAPE_MULTIPOLES>  (1) 
515.21
12.93
3.46
1.28
8.01
1.08
-0.06
-1.75
4.24
-1.04
-0.15
-0.27
0.07
0.12

>  <PUBCHEM_SHAPE_SELFOVERLAP>  (1) 
1068.2

>  <PUBCHEM_SHAPE_VOLUME>  (1) 
296.3

>  <PUBCHEM_COORDINATE_TYPE>  (1) 
2
5
10

$$$$
