43940
     RDKit          3D

 11 10  0  0  0  0  0  0  0  0999 V2000
    5.5371    1.0229   -0.1800 Br  0  0  0  0  0  0  0  0  0  0  0  0
    4.1726   -1.8787   -0.3930 Br  0  0  0  0  0  0  0  0  0  0  0  0
   -1.0895   -0.1882    0.3196 C   0  0  0  0  0  0  0  0  0  0  0  0
    0.1642    0.5635   -0.1339 C   0  0  0  0  0  0  0  0  0  0  0  0
   -2.3600    0.4772   -0.2123 C   0  0  0  0  0  0  0  0  0  0  0  0
    1.4348   -0.1249    0.3693 C   0  0  0  0  0  0  0  0  0  0  0  0
   -3.6112   -0.2926    0.2133 C   0  0  0  0  0  0  0  0  0  0  0  0
    2.7275    0.5875   -0.0546 C   0  0  0  0  0  0  0  0  0  0  0  0
   -4.8785    0.3534   -0.3462 C   0  0  0  0  0  0  0  0  0  0  0  0
    4.0251   -0.0922    0.3709 C   0  0  0  0  0  0  0  0  0  0  0  0
   -6.1222   -0.4279    0.0469 C   0  0  0  0  0  0  0  0  0  0  0  0
  1 10  1  0
  2 10  1  0
  3  4  1  0
  3  5  1  0
  4  6  1  0
  5  7  1  0
  6  8  1  0
  7  9  1  0
  8 10  1  0
  9 11  1  0
M  END
>  <PUBCHEM_COMPOUND_CID>  (1) 
43940

>  <PUBCHEM_CONFORMER_RMSD>  (1) 
0.6

>  <PUBCHEM_CONFORMER_DIVERSEORDER>  (1) 
2
172
22
295
31
19
138
10
300
69
262
42
146
267
92
83
198
20
54
176
263
23
110
314
139
41
136
164
289
18
27
186
124
168
167
261
166
141
78
157
120
183
35
241
57
108
58
259
96
147
215
284
48
16
51
52
13
301
189
82
150
11
47
173
222
315
192
194
91
244
223
182
8
196
119
184
66
121
123
193
238
204
24
113
79
95
72
153
207
94
214
230
33
163
305
9
266
63
236
151
128
97
303
60
285
1
221
208
30
287
50
70
115
228
74
296
4
56
161
25
234
148
109
188
49
103
257
53
21
43
101
220
270
275
32
216
142
169
129
156
67
218
149
199
88
219
104
269
137
6
179
203
118
264
38
297
122
45
185
280
12
200
171
277
15
29
98
213
102
291
64
77
211
274
135
253
59
62
3
158
258
226
34
140
306
100
127
26
227
126
93
288
75
247
5
217
205
7
201
240
195
133
174
202
231
299
248
271
28
190
116
243
40
272
17
170
44
279
237
112
55
99
154
286
152
229
106
268
111
134
14
233
178
125
304
160
212
105
87
197
181
132
312
89
159
68
260
232
250
90
249
242
281
206
85
155
191
81
76
175
293
239
39
254
290
80
294
130
84
117
283
235
273
61
209
107
282
86
309
36
245
210
255
177
225
165
311
65
307
265
46
246
114
256
71
278
73
308
276
144
252
298
131
310
145
302
37
292
162
251
143
313
180
187
224

>  <PUBCHEM_MMFF94_PARTIAL_CHARGES>  (1) 
3
1 -0.23
10 0.46
2 -0.23

>  <PUBCHEM_EFFECTIVE_ROTOR_COUNT>  (1) 
7

>  <PUBCHEM_PHARMACOPHORE_FEATURES>  (1) 
4
1 1 hydrophobe
1 11 hydrophobe
1 2 hydrophobe
3 1 2 10 hydrophobe

>  <PUBCHEM_HEAVY_ATOM_COUNT>  (1) 
11

>  <PUBCHEM_ATOM_DEF_STEREO_COUNT>  (1) 
0

>  <PUBCHEM_ATOM_UDEF_STEREO_COUNT>  (1) 
0

>  <PUBCHEM_BOND_DEF_STEREO_COUNT>  (1) 
0

>  <PUBCHEM_BOND_UDEF_STEREO_COUNT>  (1) 
0

>  <PUBCHEM_ISOTOPIC_ATOM_COUNT>  (1) 
0

>  <PUBCHEM_COMPONENT_COUNT>  (1) 
1

>  <PUBCHEM_CACTVS_TAUTO_COUNT>  (1) 
1

>  <PUBCHEM_CONFORMER_ID>  (1) 
0000ABA400000002

>  <PUBCHEM_MMFF94_ENERGY>  (1) 
0.8264

>  <PUBCHEM_FEATURE_SELFOVERLAP>  (1) 
21.639

>  <PUBCHEM_SHAPE_FINGERPRINT>  (1) 
11287383 113 17968098650409531144
114248 4 18113616789526264561
13533116 47 17917993837176727602
14123238 8 17989488523799008776
1420 363 17676493847951126819
14251718 22 18260829319216724193
15242433 33 18344145903828297366
17834072 33 18343862238286149980
17834076 25 18060420231210667352
20279233 1 17894357674674620346
20645477 70 18341333289082189950
20719005 15 18335419062879654561
20767249 213 17022903479686981172
220451 1 17775567554747900223
22485316 2 18343017804808443822
23402539 116 8574712382448618241
23532345 1 18410015477038440688
366044 4 17676204684650822571
42788 4 18259702302476096209
522135 26 18343582928547949866
5374978 207 15769770243599653682
57483677 66 18272647952766808799
6025842 7 18341615906757487366
8209 1 18187363246947609821

>  <PUBCHEM_SHAPE_MULTIPOLES>  (1) 
238.26
15.16
1.27
0.71
10.73
0.56
-0.01
0.46
-1.02
-2.13
-0.16
-0.15
0.03
0.25

>  <PUBCHEM_SHAPE_SELFOVERLAP>  (1) 
397.869

>  <PUBCHEM_SHAPE_VOLUME>  (1) 
162.9

>  <PUBCHEM_COORDINATE_TYPE>  (1) 
2
5
10

$$$$
