43943
     RDKit          3D

 13 12  0  0  1  0  0  0  0  0999 V2000
   -0.1064   -0.2930    0.5540 C   0  0  0  0  0  0  0  0  0  0  0  0
    0.7689   -1.5904    0.5055 C   0  0  0  0  0  0  0  0  0  0  0  0
   -1.5512   -0.5382    0.0430 C   0  0  0  0  0  0  0  0  0  0  0  0
    0.5348    0.9122   -0.1839 C   0  0  0  0  0  0  0  0  0  0  0  0
    1.1008   -2.0463   -0.9313 C   0  0  0  0  0  0  0  0  0  0  0  0
   -2.4627    0.6917    0.1530 C   0  0  0  0  0  0  0  0  0  0  0  0
    1.9318    1.2926    0.3208 C   0  0  0  0  0  0  0  0  0  0  0  0
    0.1265   -2.7265    1.3172 C   0  0  0  0  0  0  0  0  0  0  0  0
   -3.8729    0.4462   -0.3919 C   0  0  0  0  0  0  0  0  0  0  0  0
    2.4994    2.5411   -0.3607 C   0  0  0  0  0  0  0  0  0  0  0  0
    1.9787   -3.2907   -0.9843 C   0  0  0  0  0  0  0  0  0  0  0  0
   -4.8032    1.6376   -0.2242 C   0  0  0  0  0  0  0  0  0  0  0  0
    3.8555    2.9636    0.1829 C   0  0  0  0  0  0  0  0  0  0  0  0
  1  2  1  0
  1  3  1  0
  1  4  1  0
  2  5  1  0
  2  8  1  0
  3  6  1  0
  4  7  1  0
  5 11  1  0
  6  9  1  0
  7 10  1  0
  9 12  1  0
 10 13  1  0
M  END
>  <PUBCHEM_COMPOUND_CID>  (1) 
43943

>  <PUBCHEM_CONFORMER_RMSD>  (1) 
0.8

>  <PUBCHEM_CONFORMER_DIVERSEORDER>  (1) 
1
26
14
23
40
24
9
12
15
16
33
22
37
21
29
30
35
8
6
28
38
11
39
4
7
3
19
25
17
10
34
5
20
27
36
31
18
32
2
13

>  <PUBCHEM_MMFF94_PARTIAL_CHARGES>  (1) 
0

>  <PUBCHEM_EFFECTIVE_ROTOR_COUNT>  (1) 
8

>  <PUBCHEM_PHARMACOPHORE_FEATURES>  (1) 
7
1 11 hydrophobe
1 12 hydrophobe
1 13 hydrophobe
1 8 hydrophobe
3 1 2 5 hydrophobe
3 3 6 9 hydrophobe
3 4 7 10 hydrophobe

>  <PUBCHEM_HEAVY_ATOM_COUNT>  (1) 
13

>  <PUBCHEM_ATOM_DEF_STEREO_COUNT>  (1) 
0

>  <PUBCHEM_ATOM_UDEF_STEREO_COUNT>  (1) 
1

>  <PUBCHEM_BOND_DEF_STEREO_COUNT>  (1) 
0

>  <PUBCHEM_BOND_UDEF_STEREO_COUNT>  (1) 
0

>  <PUBCHEM_ISOTOPIC_ATOM_COUNT>  (1) 
0

>  <PUBCHEM_COMPONENT_COUNT>  (1) 
1

>  <PUBCHEM_CACTVS_TAUTO_COUNT>  (1) 
1

>  <PUBCHEM_CONFORMER_ID>  (1) 
0000ABA700000001

>  <PUBCHEM_MMFF94_ENERGY>  (1) 
10.3775

>  <PUBCHEM_FEATURE_SELFOVERLAP>  (1) 
35.778

>  <PUBCHEM_SHAPE_FINGERPRINT>  (1) 
11357001 24 17540254675943961946
12500047 106 18053944241199947048
13380535 76 18336826510492782849
13380536 305 18265333911308932003
14004458 79 17117776743228626790
14123255 52 18337387257344895641
14178000 22 18125995212007660952
15502722 9 18413111649730791567
15906896 17 17831293166212388018
167882 2 18411422826072822204
17041 50 17978224964050268989
1741750 31 18194400232676375712
17539 30 17264118953604785534
20524608 308 17835804471221993016
20645477 56 17766572622052073624
20645477 70 18339917109699822087
20671657 1 18338802204455686853
20671657 53 17909549463263054775
20871998 184 17618235339268444266
212916 134 18056741338414045288
21499 59 18338792433294643445
21524375 3 18191858127184941865
2255824 54 18266735792955603059
23419403 2 17829656908126547714
23558518 356 18043531831171178130
23598288 3 17613442559714911564
23598291 2 18129368329504239869
2748010 2 18051158039863627038
3071541 12 18339647724328244033
3084891 72 18342175626357828104
3250762 1 18264226844348834082
4175511 376 18270415909575819214
474229 33 18048879890483784987
57210444 14 18266754643519540684
58051976 378 18190459544816796799
58734987 36 18123192303169971031
58734987 41 18339364161986839030
7364860 26 18341892935646246997
81228 2 17184453859799052377
81539 233 18409162225333395533

>  <PUBCHEM_SHAPE_MULTIPOLES>  (1) 
267.53
6.57
4.19
0.98
7.52
1.42
0.06
-7.39
-1.01
-5.18
-0.34
-0.23
0.73
0.78

>  <PUBCHEM_SHAPE_SELFOVERLAP>  (1) 
477.146

>  <PUBCHEM_SHAPE_VOLUME>  (1) 
175.9

>  <PUBCHEM_COORDINATE_TYPE>  (1) 
2
5
10

$$$$
