43956
     RDKit          3D

 36 41  0  0  0  0  0  0  0  0999 V2000
   -4.9735   -4.4652    0.0324 Cl  0  0  0  0  0  0  0  0  0  0  0  0
   -5.3373    1.5247   -2.1103 O   0  0  0  0  0  0  0  0  0  0  0  0
   -5.6633    3.6206   -0.3191 O   0  0  0  0  0  0  0  0  0  0  0  0
   -0.8387   -0.1031    1.5406 N   0  0  0  0  0  0  0  0  0  0  0  0
    0.3814   -1.9511   -0.5111 N   0  0  0  0  0  0  0  0  0  0  0  0
   -0.7179    1.2570    2.1705 C   0  0  0  0  0  0  0  0  0  0  0  0
   -1.8408   -0.4028    0.7639 C   0  0  0  0  0  0  0  0  0  0  0  0
   -2.0998    1.7928    2.5204 C   0  0  0  0  0  0  0  0  0  0  0  0
   -2.8568    0.6470    0.4312 C   0  0  0  0  0  0  0  0  0  0  0  0
   -2.9834    1.7359    1.3080 C   0  0  0  0  0  0  0  0  0  0  0  0
    0.2802   -1.0648    1.7988 C   0  0  0  0  0  0  0  0  0  0  0  0
   -1.9954   -1.7852    0.2190 C   0  0  0  0  0  0  0  0  0  0  0  0
    0.9605   -1.3144    0.4639 C   0  0  0  0  0  0  0  0  0  0  0  0
   -3.6387    0.5914   -0.7275 C   0  0  0  0  0  0  0  0  0  0  0  0
   -3.9369    2.7264    1.0541 C   0  0  0  0  0  0  0  0  0  0  0  0
   -0.9152   -2.4770   -0.3615 C   0  0  0  0  0  0  0  0  0  0  0  0
   -4.5768    1.5934   -0.9814 C   0  0  0  0  0  0  0  0  0  0  0  0
   -4.7315    2.6535   -0.0893 C   0  0  0  0  0  0  0  0  0  0  0  0
   -3.2436   -2.4144    0.3565 C   0  0  0  0  0  0  0  0  0  0  0  0
    2.3534   -0.8194    0.2576 C   0  0  0  0  0  0  0  0  0  0  0  0
   -1.1378   -3.7725   -0.8525 C   0  0  0  0  0  0  0  0  0  0  0  0
   -3.4372   -3.7071   -0.1266 C   0  0  0  0  0  0  0  0  0  0  0  0
   -2.3870   -4.3833   -0.7379 C   0  0  0  0  0  0  0  0  0  0  0  0
    2.7873    0.3224    0.9245 C   0  0  0  0  0  0  0  0  0  0  0  0
    3.2090   -1.5035   -0.6006 C   0  0  0  0  0  0  0  0  0  0  0  0
    4.0890    0.7847    0.7310 C   0  0  0  0  0  0  0  0  0  0  0  0
    4.5107   -1.0412   -0.7938 C   0  0  0  0  0  0  0  0  0  0  0  0
    4.9508    0.1029   -0.1280 C   0  0  0  0  0  0  0  0  0  0  0  0
    6.3011    0.5822   -0.3293 C   0  0  0  0  0  0  0  0  0  0  0  0
   -6.5791    0.8306   -2.0131 C   0  0  0  0  0  0  0  0  0  0  0  0
   -5.2477    4.7534   -1.0792 C   0  0  0  0  0  0  0  0  0  0  0  0
    6.5721    1.4956   -1.3482 C   0  0  0  0  0  0  0  0  0  0  0  0
    7.3317    0.1313    0.4955 C   0  0  0  0  0  0  0  0  0  0  0  0
    7.8738    1.9580   -1.5423 C   0  0  0  0  0  0  0  0  0  0  0  0
    8.6333    0.5938    0.3013 C   0  0  0  0  0  0  0  0  0  0  0  0
    8.9042    1.5072   -0.7176 C   0  0  0  0  0  0  0  0  0  0  0  0
  1 22  1  0
  2 17  1  0
  2 30  1  0
  3 18  1  0
  3 31  1  0
  4  6  1  0
  4  7  2  0
  4 11  1  0
  5 13  2  0
  5 16  1  0
  6  8  1  0
  7  9  1  0
  7 12  1  0
  8 10  1  0
  9 10  2  0
  9 14  1  0
 10 15  1  0
 11 13  1  0
 12 16  2  0
 12 19  1  0
 13 20  1  0
 14 17  2  0
 15 18  2  0
 16 21  1  0
 17 18  1  0
 19 22  2  0
 20 24  2  0
 20 25  1  0
 21 23  2  0
 22 23  1  0
 24 26  1  0
 25 27  2  0
 26 28  2  0
 27 28  1  0
 28 29  1  0
 29 32  2  0
 29 33  1  0
 32 34  1  0
 33 35  2  0
 34 36  2  0
 35 36  1  0
M  CHG  1   4   1
M  END
>  <PUBCHEM_COMPOUND_CID>  (1) 
43956

>  <PUBCHEM_CONFORMER_RMSD>  (1) 
0.8

>  <PUBCHEM_CONFORMER_DIVERSEORDER>  (1) 
1
2
3
4

>  <PUBCHEM_MMFF94_PARTIAL_CHARGES>  (1) 
48
1 -0.18
10 -0.14
11 0.41
12 0.09
13 0.3
14 -0.15
15 -0.15
16 0.18
17 0.08
18 0.08
19 -0.15
2 -0.36
20 0.09
21 -0.15
22 0.18
23 -0.15
24 -0.15
25 -0.15
26 -0.15
27 -0.15
3 -0.36
30 0.28
31 0.28
32 -0.15
33 -0.15
34 -0.15
35 -0.15
36 -0.15
4 -0.09
43 0.15
44 0.15
45 0.15
46 0.15
47 0.15
48 0.15
49 0.15
5 -0.63
50 0.15
51 0.15
58 0.15
59 0.15
6 0.35
60 0.15
61 0.15
62 0.15
7 0.23
8 0.14
9 0.09

>  <PUBCHEM_EFFECTIVE_ROTOR_COUNT>  (1) 
4.6

>  <PUBCHEM_PHARMACOPHORE_FEATURES>  (1) 
9
1 2 acceptor
1 3 acceptor
1 5 acceptor
6 12 16 19 21 22 23 rings
6 20 24 25 26 27 28 rings
6 29 32 33 34 35 36 rings
6 4 6 7 8 9 10 rings
6 9 10 14 15 17 18 rings
7 4 5 7 11 12 13 16 rings

>  <PUBCHEM_HEAVY_ATOM_COUNT>  (1) 
36

>  <PUBCHEM_ATOM_DEF_STEREO_COUNT>  (1) 
0

>  <PUBCHEM_ATOM_UDEF_STEREO_COUNT>  (1) 
0

>  <PUBCHEM_BOND_DEF_STEREO_COUNT>  (1) 
0

>  <PUBCHEM_BOND_UDEF_STEREO_COUNT>  (1) 
0

>  <PUBCHEM_ISOTOPIC_ATOM_COUNT>  (1) 
0

>  <PUBCHEM_COMPONENT_COUNT>  (1) 
1

>  <PUBCHEM_CACTVS_TAUTO_COUNT>  (1) 
2

>  <PUBCHEM_CONFORMER_ID>  (1) 
0000ABB400000001

>  <PUBCHEM_MMFF94_ENERGY>  (1) 
155.7178

>  <PUBCHEM_FEATURE_SELFOVERLAP>  (1) 
45.73

>  <PUBCHEM_SHAPE_FINGERPRINT>  (1) 
10076449 9 18272091660477166763
10190206 1 18411971474007077463
10290309 65 18130518465474729790
10369192 42 18263086527054170573
10411042 1 17909830182579625315
105312 117 18409730617152734295
10554248 39 18340770330881381430
10669705 176 18410296921945170758
11135609 187 18268989791945661225
11297750 10 17914045662809409571
11621639 254 18411133671779638981
12107698 1 18196657509021470242
12124843 1 17916579834810672725
12895837 130 18187374246106076292
13690498 29 18198060476551458291
13726171 33 18265620892845199609
13782708 43 12894771607083148804
13911987 19 18270399374384571121
13947934 56 18411696613464709578
14068700 675 18123474044730150806
14118638 360 18334294314557609290
14294032 229 18411426115854286299
14400156 188 10302082593152618061
14931854 50 17845934035609953704
15064981 113 17917152672643316420
15064981 194 18270414878699785385
15198563 99 18268981163614866119
15328684 2 18187913011710103698
15419008 91 17916858132803813952
15439362 3 18123471574817824927
15513586 35 17610936708185640724
15803439 3 17131541752455628766
16114785 44 16226310544132770407
16992828 155 18040148496427432036
19427546 20 18339929306594981554
20511986 3 18408881859323111890
20609170 92 18201446878471860254
21033648 144 18340209591933920310
21033648 29 17459204987961764616
21033650 10 18261106430327847475
22182313 1 17773293833452960731
23522609 53 16982649020094265937
23559900 14 17917708050427100240
23569914 2 16157909763009130973
23576562 1 18262241148536005524
249057 25 17750241477508440030
255183 451 17337023163007355311
2838139 119 17969784064401817093
32027 91 17771652070021328558
354706 132 18411413982313686741
4058900 60 18052822451576267825
4258327 124 18187092783613191757
4409770 3 18343017835338036131
44249763 50 18341887520352220680
48014 12 18337687420072133580
484989 97 18198614618365478751
504843 32 18409452474991939739
5372103 7 17605538982661943301
563151 74 16588309319775857920
563151 97 18260830427904589794
5776283 40 18271515451817102465
6327066 14 18336546006284591973
6677587 24 17175425332575665861
6898599 12 18411142445774935670
999808 66 10663816378182635452

>  <PUBCHEM_SHAPE_MULTIPOLES>  (1) 
721.03
20.93
5.27
1.73
48.76
2.18
-0.33
-15.74
9.63
-13.47
1.48
-1.29
-1.13
-0.01

>  <PUBCHEM_SHAPE_SELFOVERLAP>  (1) 
1600.867

>  <PUBCHEM_SHAPE_VOLUME>  (1) 
385

>  <PUBCHEM_COORDINATE_TYPE>  (1) 
2
5
10

$$$$
