43951
     RDKit          3D

 36 41  0  0  1  0  0  0  0  0999 V2000
    4.9707   -4.2383   -0.0484 Cl  0  0  0  0  0  0  0  0  0  0  0  0
    5.0767    2.0552   -2.2811 O   0  0  0  0  0  0  0  0  0  0  0  0
    5.9830    3.3342    0.0127 O   0  0  0  0  0  0  0  0  0  0  0  0
    0.7366   -0.0853    1.5144 N   0  0  0  0  0  0  0  0  0  0  0  0
   -0.5152   -2.0517   -0.6001 N   0  0  0  0  0  0  0  0  0  0  0  0
    1.5486   -0.2308    0.2751 C   0  0  0  0  0  0  0  0  0  0  0  0
    1.5878   -0.0344    2.7112 C   0  0  0  0  0  0  0  0  0  0  0  0
    2.7336    0.7299    0.2145 C   0  0  0  0  0  0  0  0  0  0  0  0
    2.4796    1.2056    2.6820 C   0  0  0  0  0  0  0  0  0  0  0  0
    3.1949    1.3807    1.3710 C   0  0  0  0  0  0  0  0  0  0  0  0
   -0.3078   -1.1094    1.6922 C   0  0  0  0  0  0  0  0  0  0  0  0
    1.8699   -1.6912   -0.0599 C   0  0  0  0  0  0  0  0  0  0  0  0
   -1.0402   -1.3674    0.3776 C   0  0  0  0  0  0  0  0  0  0  0  0
    3.3774    0.9745   -1.0113 C   0  0  0  0  0  0  0  0  0  0  0  0
    0.8083   -2.5275   -0.4856 C   0  0  0  0  0  0  0  0  0  0  0  0
    4.2857    2.2577    1.2875 C   0  0  0  0  0  0  0  0  0  0  0  0
    3.1512   -2.2443    0.0903 C   0  0  0  0  0  0  0  0  0  0  0  0
    4.4676    1.8412   -1.0817 C   0  0  0  0  0  0  0  0  0  0  0  0
    4.9225    2.4809    0.0676 C   0  0  0  0  0  0  0  0  0  0  0  0
   -2.4189   -0.8285    0.2120 C   0  0  0  0  0  0  0  0  0  0  0  0
    1.0663   -3.8643   -0.8128 C   0  0  0  0  0  0  0  0  0  0  0  0
    3.3890   -3.5824   -0.2266 C   0  0  0  0  0  0  0  0  0  0  0  0
    2.3511   -4.3885   -0.6852 C   0  0  0  0  0  0  0  0  0  0  0  0
   -2.7879    0.3405    0.8705 C   0  0  0  0  0  0  0  0  0  0  0  0
   -3.3287   -1.4983   -0.6004 C   0  0  0  0  0  0  0  0  0  0  0  0
   -4.0792    0.8446    0.7152 C   0  0  0  0  0  0  0  0  0  0  0  0
   -4.6199   -0.9942   -0.7557 C   0  0  0  0  0  0  0  0  0  0  0  0
   -4.9952    0.1773   -0.0979 C   0  0  0  0  0  0  0  0  0  0  0  0
    6.1552    1.1873   -2.6245 C   0  0  0  0  0  0  0  0  0  0  0  0
    5.6967    4.7086   -0.2393 C   0  0  0  0  0  0  0  0  0  0  0  0
   -6.3350    0.6995   -0.2590 C   0  0  0  0  0  0  0  0  0  0  0  0
   -7.3484    0.3004    0.6125 C   0  0  0  0  0  0  0  0  0  0  0  0
   -6.6131    1.6022   -1.2854 C   0  0  0  0  0  0  0  0  0  0  0  0
   -8.6399    0.8038    0.4575 C   0  0  0  0  0  0  0  0  0  0  0  0
   -7.9048    2.1057   -1.4403 C   0  0  0  0  0  0  0  0  0  0  0  0
   -8.9182    1.7065   -0.5687 C   0  0  0  0  0  0  0  0  0  0  0  0
  1 22  1  0
  2 18  1  0
  2 29  1  0
  3 19  1  0
  3 30  1  0
  4  6  1  0
  4  7  1  0
  4 11  1  0
  5 13  2  0
  5 15  1  0
  6  8  1  0
  6 12  1  0
  7  9  1  0
  8 10  2  0
  8 14  1  0
  9 10  1  0
 10 16  1  0
 11 13  1  0
 12 15  2  0
 12 17  1  0
 13 20  1  0
 14 18  2  0
 15 21  1  0
 16 19  2  0
 17 22  2  0
 18 19  1  0
 20 24  2  0
 20 25  1  0
 21 23  2  0
 22 23  1  0
 24 26  1  0
 25 27  2  0
 26 28  2  0
 27 28  1  0
 28 31  1  0
 31 32  2  0
 31 33  1  0
 32 34  1  0
 33 35  2  0
 34 36  2  0
 35 36  1  0
M  END
>  <PUBCHEM_COMPOUND_CID>  (1) 
43951

>  <PUBCHEM_CONFORMER_RMSD>  (1) 
0.8

>  <PUBCHEM_CONFORMER_DIVERSEORDER>  (1) 
1
5
6
8
4
2
7
9
3

>  <PUBCHEM_MMFF94_PARTIAL_CHARGES>  (1) 
48
1 -0.18
10 -0.14
11 0.33
12 -0.14
13 0.3
14 -0.15
15 0.18
16 -0.15
17 -0.15
18 0.08
19 0.08
2 -0.36
20 0.09
21 -0.15
22 0.18
23 -0.15
24 -0.15
25 -0.15
26 -0.15
27 -0.15
29 0.28
3 -0.36
30 0.28
32 -0.15
33 -0.15
34 -0.15
35 -0.15
36 -0.15
4 -0.81
44 0.15
45 0.15
46 0.15
47 0.15
48 0.15
49 0.15
5 -0.63
50 0.15
51 0.15
52 0.15
59 0.15
6 0.56
60 0.15
61 0.15
62 0.15
63 0.15
7 0.27
8 -0.14
9 0.14

>  <PUBCHEM_EFFECTIVE_ROTOR_COUNT>  (1) 
4.6

>  <PUBCHEM_PHARMACOPHORE_FEATURES>  (1) 
10
1 2 acceptor
1 3 acceptor
1 4 cation
1 5 acceptor
6 12 15 17 21 22 23 rings
6 20 24 25 26 27 28 rings
6 31 32 33 34 35 36 rings
6 4 6 7 8 9 10 rings
6 8 10 14 16 18 19 rings
7 4 5 6 11 12 13 15 rings

>  <PUBCHEM_HEAVY_ATOM_COUNT>  (1) 
36

>  <PUBCHEM_ATOM_DEF_STEREO_COUNT>  (1) 
0

>  <PUBCHEM_ATOM_UDEF_STEREO_COUNT>  (1) 
1

>  <PUBCHEM_BOND_DEF_STEREO_COUNT>  (1) 
0

>  <PUBCHEM_BOND_UDEF_STEREO_COUNT>  (1) 
0

>  <PUBCHEM_ISOTOPIC_ATOM_COUNT>  (1) 
0

>  <PUBCHEM_COMPONENT_COUNT>  (1) 
1

>  <PUBCHEM_CACTVS_TAUTO_COUNT>  (1) 
2

>  <PUBCHEM_CONFORMER_ID>  (1) 
0000ABAF00000001

>  <PUBCHEM_MMFF94_ENERGY>  (1) 
148.3006

>  <PUBCHEM_FEATURE_SELFOVERLAP>  (1) 
50.801

>  <PUBCHEM_SHAPE_FINGERPRINT>  (1) 
10554248 39 18271511006599603343
10673678 19 18411989073801978271
10675989 125 18342744048626728552
10721379 63 18341339894694489854
11135609 127 18411410701084746607
11578080 2 18041857197536976930
11621639 179 18187643631404295268
1200032 147 18333735736173266778
12124843 1 17846223322694644821
12166972 35 18057321678310304595
12440610 7 18041849514215043723
12717326 69 10158820569795330045
13383665 225 18188781673062299135
13540713 4 18261690237122889243
13878862 14 18267845226020799103
13944108 23 18410569570047423273
14068700 675 17843687652193380930
14294032 229 18196654214707908931
14747281 78 18270696289684041655
14931854 50 17703796933266310785
15183329 4 17132112430073377905
15347591 1 18410291420140147671
15439362 3 18409166632439436866
17899979 129 18411984667223613121
19053607 189 18340192081548050809
19304144 158 18261105318632761629
19309040 13 18341609369205249327
21033648 29 18127404777387982256
21133410 127 18260258655323900460
21583282 1 18343017796424231981
22393880 68 17702943763466090359
23516275 100 18113607989814854213
23522609 53 17560255626595020977
23523766 6 17983018843042823934
23559900 14 18200583693114301931
23569914 2 17389622438123206061
249057 25 17702946912505092483
249057 3 18129373818098761583
27425 322 17894629275295294483
3534868 343 17630330731726079959
3633792 109 18343308098318494256
3918712 181 18270677692070273800
397830 11 18187655713262933963
4073 2 18408322207989710459
4093350 32 18261110759670127169
44317340 157 18411697661030443943
45377200 153 15625650761606237039
46194498 28 18263645061248234431
5109719 28 18040724667181349865
9849439 229 18269264819727632560
9962374 69 18199732667046282927

>  <PUBCHEM_SHAPE_MULTIPOLES>  (1) 
721.03
21.16
5.09
1.88
49.61
2.31
0.39
-19.27
-7.76
-12.54
-1.47
-2.17
-1.02
0.33

>  <PUBCHEM_SHAPE_SELFOVERLAP>  (1) 
1594.649

>  <PUBCHEM_SHAPE_VOLUME>  (1) 
386.1

>  <PUBCHEM_COORDINATE_TYPE>  (1) 
2
5
10

$$$$
