43963
     RDKit          3D

 13 12  0  0  1  0  0  0  0  0999 V2000
   -3.8048   -0.2108   -0.0747 C   0  0  0  0  0  0  0  0  0  0  0  0
   -2.5145    0.6389    0.0729 C   0  0  0  0  0  0  0  0  0  0  0  0
   -1.2072   -0.1517    0.2093 C   0  0  0  0  0  0  0  0  0  0  0  0
    2.5594    0.9080    0.4347 C   0  0  0  0  0  0  0  0  0  0  0  0
    0.0000    0.7902    0.2833 C   0  0  0  0  0  0  0  0  0  0  0  0
    1.3118    0.0038    0.3843 C   0  0  0  0  0  0  0  0  0  0  0  0
    3.8489    0.0876    0.6583 C   0  0  0  0  0  0  0  0  0  0  0  0
   -5.0424    0.6823   -0.2615 C   0  0  0  0  0  0  0  0  0  0  0  0
   -3.6521   -1.1018   -1.3233 C   0  0  0  0  0  0  0  0  0  0  0  0
   -4.0156   -1.1188    1.1482 C   0  0  0  0  0  0  0  0  0  0  0  0
    2.6734    1.8029   -0.8023 C   0  0  0  0  0  0  0  0  0  0  0  0
    4.2673   -0.8060   -0.5125 C   0  0  0  0  0  0  0  0  0  0  0  0
    5.5759   -1.5246   -0.2166 C   0  0  0  0  0  0  0  0  0  0  0  0
  1  2  1  0
  1  8  1  0
  1  9  1  0
  1 10  1  0
  2  3  1  0
  3  5  1  0
  4  6  1  0
  4  7  1  0
  4 11  1  0
  5  6  1  0
  7 12  1  0
 12 13  1  0
M  END
>  <PUBCHEM_COMPOUND_CID>  (1) 
43963

>  <PUBCHEM_CONFORMER_RMSD>  (1) 
0.8

>  <PUBCHEM_CONFORMER_DIVERSEORDER>  (1) 
1
30
52
12
6
43
27
29
39
25
50
21
41
40
26
15
48
19
46
34
18
31
2
38
9
17
42
3
14
33
16
45
10
13
47
22
49
4
37
5
20
44
32
23
11
24
8
36
28
51
35
7

>  <PUBCHEM_MMFF94_PARTIAL_CHARGES>  (1) 
0

>  <PUBCHEM_EFFECTIVE_ROTOR_COUNT>  (1) 
7

>  <PUBCHEM_PHARMACOPHORE_FEATURES>  (1) 
3
1 11 hydrophobe
1 13 hydrophobe
4 1 8 9 10 hydrophobe

>  <PUBCHEM_HEAVY_ATOM_COUNT>  (1) 
13

>  <PUBCHEM_ATOM_DEF_STEREO_COUNT>  (1) 
0

>  <PUBCHEM_ATOM_UDEF_STEREO_COUNT>  (1) 
1

>  <PUBCHEM_BOND_DEF_STEREO_COUNT>  (1) 
0

>  <PUBCHEM_BOND_UDEF_STEREO_COUNT>  (1) 
0

>  <PUBCHEM_ISOTOPIC_ATOM_COUNT>  (1) 
0

>  <PUBCHEM_COMPONENT_COUNT>  (1) 
1

>  <PUBCHEM_CACTVS_TAUTO_COUNT>  (1) 
1

>  <PUBCHEM_CONFORMER_ID>  (1) 
0000ABBB00000001

>  <PUBCHEM_MMFF94_ENERGY>  (1) 
17.1191

>  <PUBCHEM_FEATURE_SELFOVERLAP>  (1) 
15.223

>  <PUBCHEM_SHAPE_FINGERPRINT>  (1) 
100836 57 9006763307872879394
10680689 15 18410854365433773297
10912923 1 16773798142351131120
11128504 68 15719401641706313486
11858739 19 17917147208753734588
13167823 11 18272366494542556422
13237642 15 11167938078218117045
13675066 3 18342171197887219616
13690532 89 18412545388600275506
13897977 58 12396300344430319327
14123238 8 9727631713379987513
14251718 22 16877951563599893858
14252887 29 16773803550548523478
14455015 7 18409456881459281642
15239154 128 9151179757022101042
15242439 84 18040996237229778393
17834072 33 18342740741327687588
17834072 8 18261387824016144437
17834076 25 14634870838056682345
18186145 218 17313379062925084009
19489759 90 14549019862464694795
200 152 18201717358004595153
20279233 1 14548740633534340461
20281475 54 18130506448023183965
20325693 3 16950000336049373979
20432913 95 17561368365841080134
20605781 2 7925619008763961038
20645477 70 18259989305603101266
22485316 2 17846493763862785481
22646028 1 18202561791276676758
23218964 4 18411698742934746085
23402539 116 17917987265654919869
23532345 12 18343025462893687056
23557571 272 18335984147216031869
23559900 14 18260828232716897920
23590187 198 17775004570281844078
26918003 58 16702017569414160834
32948 21 17676485012813119140
42 15 17704071785408108162
4990 188 17894351081599101498
522135 26 17167578285222446440
542803 24 15068340094852247997
573450 72 17060338522202958195
58051976 100 18113897161076188255
633830 44 18040710402813769969
90127 26 17603309284137909033
9971528 1 18410006650664655280

>  <PUBCHEM_SHAPE_MULTIPOLES>  (1) 
267.53
12.67
1.47
1
2.45
0.07
-0.08
-4.35
-1.13
1.04
-0.24
-0.51
-0.17
0.12

>  <PUBCHEM_SHAPE_SELFOVERLAP>  (1) 
484.05

>  <PUBCHEM_SHAPE_VOLUME>  (1) 
174.3

>  <PUBCHEM_COORDINATE_TYPE>  (1) 
2
5
10

$$$$
