43964
     RDKit          3D

 10  9  0  0  1  0  0  0  0  0999 V2000
    0.1243    0.0464   -0.1483 O   0  0  0  0  0  0  0  0  0  0  0  0
    1.1694    0.9134    0.2842 C   0  0  0  0  0  0  0  0  0  0  0  0
    2.5265    0.3766   -0.1824 C   0  0  0  0  0  0  0  0  0  0  0  0
    2.7897   -1.0436    0.3259 C   0  0  0  0  0  0  0  0  0  0  0  0
   -1.1417    0.4890    0.3173 C   0  0  0  0  0  0  0  0  0  0  0  0
   -2.2116   -0.4748   -0.1759 C   0  0  0  0  0  0  0  0  0  0  0  0
    0.9031    2.3095   -0.2623 C   0  0  0  0  0  0  0  0  0  0  0  0
   -3.6054   -0.0493    0.2765 C   0  0  0  0  0  0  0  0  0  0  0  0
    4.1207   -1.5771   -0.1806 C   0  0  0  0  0  0  0  0  0  0  0  0
   -4.6750   -0.9902   -0.2543 C   0  0  0  0  0  0  0  0  0  0  0  0
  1  2  1  0
  1  5  1  0
  2  3  1  0
  2  7  1  0
  3  4  1  0
  4  9  1  0
  5  6  1  0
  6  8  1  0
  8 10  1  0
M  END
>  <PUBCHEM_COMPOUND_CID>  (1) 
43964

>  <PUBCHEM_CONFORMER_RMSD>  (1) 
0.6

>  <PUBCHEM_CONFORMER_DIVERSEORDER>  (1) 
1
150
34
131
91
221
218
63
225
14
79
124
228
78
229
4
59
88
38
116
167
201
152
219
227
75
94
66
117
41
213
104
74
194
224
16
197
52
82
64
76
204
205
151
217
72
5
161
202
147
184
199
42
143
120
103
86
174
153
148
100
24
188
214
87
44
89
154
155
80
203
140
108
26
156
58
212
168
45
111
193
98
62
97
77
40
179
206
226
107
139
192
146
50
172
196
68
112
46
128
96
158
138
114
21
157
85
27
183
220
81
43
125
223
57
216
47
129
191
90
222
95
92
211
123
61
110
208
55
182
185
83
134
54
71
11
35
177
69
48
122
215
6
159
28
170
162
130
25
210
109
51
106
7
165
186
15
207
169
17
20
175
36
121
127
3
18
135
200
164
12
39
171
144
49
126
37
181
67
173
160
187
102
163
99
9
22
56
30
101
23
93
141
209
73
118
189
133
19
65
2
198
70
176
10
31
195
132
8
166
29
113
60
190
32
145
33
53
149
84
119
105
115
136
137
13
178
180
142

>  <PUBCHEM_MMFF94_PARTIAL_CHARGES>  (1) 
3
1 -0.56
2 0.28
5 0.28

>  <PUBCHEM_EFFECTIVE_ROTOR_COUNT>  (1) 
6

>  <PUBCHEM_PHARMACOPHORE_FEATURES>  (1) 
3
1 1 acceptor
1 10 hydrophobe
1 9 hydrophobe

>  <PUBCHEM_HEAVY_ATOM_COUNT>  (1) 
10

>  <PUBCHEM_ATOM_DEF_STEREO_COUNT>  (1) 
0

>  <PUBCHEM_ATOM_UDEF_STEREO_COUNT>  (1) 
1

>  <PUBCHEM_BOND_DEF_STEREO_COUNT>  (1) 
0

>  <PUBCHEM_BOND_UDEF_STEREO_COUNT>  (1) 
0

>  <PUBCHEM_ISOTOPIC_ATOM_COUNT>  (1) 
0

>  <PUBCHEM_COMPONENT_COUNT>  (1) 
1

>  <PUBCHEM_CACTVS_TAUTO_COUNT>  (1) 
1

>  <PUBCHEM_CONFORMER_ID>  (1) 
0000ABBC00000001

>  <PUBCHEM_MMFF94_ENERGY>  (1) 
7.5995

>  <PUBCHEM_FEATURE_SELFOVERLAP>  (1) 
15.223

>  <PUBCHEM_SHAPE_FINGERPRINT>  (1) 
11987891 38 18410293657485318747
12032990 46 18410293579700815918
13690532 89 18413107260269186999
14251717 144 18409165515146702643
14252887 29 18202005400218773594
15477762 27 18337390538514715332
177051 138 18273214196638165251
17834072 8 18335694993417635269
18186145 218 17603577565407284601
20645477 70 18335698386072767511
20671657 53 18409733945393705293
20871998 22 18200036127643265126
22485316 2 18411978065842684583
23532345 12 18202286888059059969
42 15 17989489615090045163
94968 8 18334858312039477970

>  <PUBCHEM_SHAPE_MULTIPOLES>  (1) 
199.93
8.26
1.77
0.67
5.19
0.74
-0.01
-5.48
0.44
-1.45
0.16
0.01
0
-0.17

>  <PUBCHEM_SHAPE_SELFOVERLAP>  (1) 
353.688

>  <PUBCHEM_SHAPE_VOLUME>  (1) 
132.2

>  <PUBCHEM_COORDINATE_TYPE>  (1) 
2
5
10

$$$$
