43973
     RDKit          3D

 23 24  0  0  1  0  0  0  0  0999 V2000
    0.5425    2.0578   -2.5196 Cl  0  0  0  0  0  0  0  0  0  0  0  0
    2.2205   -0.1839   -1.7335 S   0  0  0  0  0  0  0  0  0  0  0  0
    1.4658   -1.2412   -2.3724 O   0  0  0  0  0  0  0  0  0  0  0  0
    3.4794    0.3072   -2.2531 O   0  0  0  0  0  0  0  0  0  0  0  0
    0.2768    2.1539    0.7212 N   0  0  0  0  0  0  0  0  0  0  0  0
   -2.9935   -1.1114   -0.0819 N   0  0  0  0  0  0  0  0  0  0  0  0
   -0.9389    2.7362    0.1921 C   0  0  0  0  0  0  0  0  0  0  0  0
   -1.9775    1.6400   -0.0822 C   0  0  0  0  0  0  0  0  0  0  0  0
   -2.4005    0.8981    1.1917 C   0  0  0  0  0  0  0  0  0  0  0  0
   -3.4810   -0.1398    0.8903 C   0  0  0  0  0  0  0  0  0  0  0  0
    1.0202    1.2398    0.0529 C   0  0  0  0  0  0  0  0  0  0  0  0
    1.7751    0.2021    0.7811 C   0  0  0  0  0  0  0  0  0  0  0  0
   -1.4705    3.7511    1.1989 C   0  0  0  0  0  0  0  0  0  0  0  0
    2.4794   -0.6483   -0.0739 C   0  0  0  0  0  0  0  0  0  0  0  0
    1.1914    1.1191   -1.2712 C   0  0  0  0  0  0  0  0  0  0  0  0
   -4.0243   -2.1087   -0.3749 C   0  0  0  0  0  0  0  0  0  0  0  0
   -1.7789   -1.7655    0.4078 C   0  0  0  0  0  0  0  0  0  0  0  0
    1.8659   -0.0215    2.1491 C   0  0  0  0  0  0  0  0  0  0  0  0
    3.2646   -1.7023    0.3487 C   0  0  0  0  0  0  0  0  0  0  0  0
   -5.2952   -1.4510   -0.8852 C   0  0  0  0  0  0  0  0  0  0  0  0
   -1.2228   -2.7331   -0.6230 C   0  0  0  0  0  0  0  0  0  0  0  0
    2.6541   -1.0828    2.6155 C   0  0  0  0  0  0  0  0  0  0  0  0
    3.3474   -1.9159    1.7219 C   0  0  0  0  0  0  0  0  0  0  0  0
  1 15  1  0
  2  3  2  0
  2  4  2  0
  2 14  1  0
  2 15  1  0
  5  7  1  0
  5 11  1  0
  6 10  1  0
  6 16  1  0
  6 17  1  0
  7  8  1  0
  7 13  1  0
  8  9  1  0
  9 10  1  0
 11 12  1  0
 11 15  2  0
 12 14  2  0
 12 18  1  0
 14 19  1  0
 16 20  1  0
 17 21  1  0
 18 22  2  0
 19 23  2  0
 22 23  1  0
M  END
>  <PUBCHEM_COMPOUND_CID>  (1) 
43973

>  <PUBCHEM_CONFORMER_RMSD>  (1) 
0.8

>  <PUBCHEM_CONFORMER_DIVERSEORDER>  (1) 
1
71
34
162
198
149
142
21
117
118
208
64
201
134
206
154
183
161
150
155
48
195
133
102
181
90
209
24
58
158
93
207
179
43
19
65
61
191
16
56
38
175
173
187
139
87
82
113
159
144
210
33
152
114
62
25
112
147
165
85
189
192
146
126
157
31
109
186
197
83
148
59
92
5
63
194
140
168
6
180
122
193
7
26
81
123
60
153
163
111
55
174
129
116
128
80
119
125
205
40
101
88
104
76
29
156
78
86
28
42
106
138
160
68
176
99
169
199
13
79
14
47
184
132
100
131
3
84
188
15
20
73
204
141
2
11
46
95
121
170
37
54
127
171
41
69
145
45
57
9
108
190
166
35
136
39
120
130
185
74
50
51
72
98
91
30
53
200
75
110
177
103
143
49
52
18
202
151
182
107
22
115
137
203
27
124
44
10
32
12
172
8
36
66
77
94
96
105
164
23
89
4
67
196
17
70
178
97
167
135

>  <PUBCHEM_MMFF94_PARTIAL_CHARGES>  (1) 
23
1 -0.14
10 0.27
11 0.07
12 0.03
14 -0.01
15 0.12
16 0.27
17 0.27
18 -0.15
19 -0.15
2 1.33
22 -0.15
23 -0.15
3 -0.65
31 0.4
39 0.15
4 -0.65
40 0.15
47 0.15
48 0.15
5 -0.87
6 -0.81
7 0.37

>  <PUBCHEM_EFFECTIVE_ROTOR_COUNT>  (1) 
8

>  <PUBCHEM_PHARMACOPHORE_FEATURES>  (1) 
7
1 3 acceptor
1 4 acceptor
1 5 cation
1 5 donor
1 6 cation
5 2 11 12 14 15 rings
6 12 14 18 19 22 23 rings

>  <PUBCHEM_HEAVY_ATOM_COUNT>  (1) 
23

>  <PUBCHEM_ATOM_DEF_STEREO_COUNT>  (1) 
0

>  <PUBCHEM_ATOM_UDEF_STEREO_COUNT>  (1) 
1

>  <PUBCHEM_BOND_DEF_STEREO_COUNT>  (1) 
0

>  <PUBCHEM_BOND_UDEF_STEREO_COUNT>  (1) 
0

>  <PUBCHEM_ISOTOPIC_ATOM_COUNT>  (1) 
0

>  <PUBCHEM_COMPONENT_COUNT>  (1) 
1

>  <PUBCHEM_CACTVS_TAUTO_COUNT>  (1) 
1

>  <PUBCHEM_CONFORMER_ID>  (1) 
0000ABC500000001

>  <PUBCHEM_MMFF94_ENERGY>  (1) 
42.2141

>  <PUBCHEM_FEATURE_SELFOVERLAP>  (1) 
35.601

>  <PUBCHEM_SHAPE_FINGERPRINT>  (1) 
10064457 181 17549539609279991170
11578080 2 17896298282306729372
11582403 64 14637414197784308748
12363563 72 18412536631088138659
12403259 327 17625519212871013232
12553582 1 18340499944956275859
12633257 1 16630230506808428699
12788726 201 18267321866965798233
13009979 54 18261396598508113098
13911987 19 15939832888210064020
14787075 74 18122358023501660196
16752209 62 18335980883488753123
21731516 1 18260554415529583073
22112679 90 17897177818578051288
23419403 2 16817077170704947304
23557571 272 17989204828878250171
23559900 14 17632306713145486977
23598288 3 18117297864758157137
23598291 2 17534084994030919112
25222932 49 17905039610258831411
3052486 1 18339367353189757415
3286 77 16056616360297377063
35225 105 17762295216544615134
484985 159 17466753040829503562
6438718 38 15942028312309758588
8509985 295 18262503888770139295
90525 40 17899714370175273649

>  <PUBCHEM_SHAPE_MULTIPOLES>  (1) 
457.35
6.96
3.47
2.42
6
1.82
0.55
-5.51
0.03
1.96
-0.43
-2.31
0.32
-2.06

>  <PUBCHEM_SHAPE_SELFOVERLAP>  (1) 
925.208

>  <PUBCHEM_SHAPE_VOLUME>  (1) 
271

>  <PUBCHEM_COORDINATE_TYPE>  (1) 
2
5
10

$$$$
