43980
     RDKit          3D

 27 29  0  0  0  0  0  0  0  0999 V2000
    5.2297   -2.3346   -2.5980 Cl  0  0  0  0  0  0  0  0  0  0  0  0
    1.8823    2.3084   -1.4433 O   0  0  0  0  0  0  0  0  0  0  0  0
   -0.9518   -0.5907    0.9766 N   0  0  0  0  0  0  0  0  0  0  0  0
   -5.2269   -0.2801    0.2426 N   0  0  0  0  0  0  0  0  0  0  0  0
    1.6879    0.4595    0.0630 C   0  0  0  0  0  0  0  0  0  0  0  0
    0.5121    0.1010   -0.8846 C   0  0  0  0  0  0  0  0  0  0  0  0
    1.0568    0.7860    1.4433 C   0  0  0  0  0  0  0  0  0  0  0  0
   -0.3873   -0.9995   -0.3140 C   0  0  0  0  0  0  0  0  0  0  0  0
    0.1063   -0.3061    1.9520 C   0  0  0  0  0  0  0  0  0  0  0  0
   -1.8612   -1.6153    1.4885 C   0  0  0  0  0  0  0  0  0  0  0  0
    2.7893   -0.6108    0.0617 C   0  0  0  0  0  0  0  0  0  0  0  0
    2.3067    1.7493   -0.4331 C   0  0  0  0  0  0  0  0  0  0  0  0
   -3.2175   -1.5825    0.7806 C   0  0  0  0  0  0  0  0  0  0  0  0
   -3.9343   -0.2390    0.9258 C   0  0  0  0  0  0  0  0  0  0  0  0
    3.4638    2.2937    0.3858 C   0  0  0  0  0  0  0  0  0  0  0  0
   -6.1528    0.6951    0.8355 C   0  0  0  0  0  0  0  0  0  0  0  0
   -5.0551   -0.0419   -1.1974 C   0  0  0  0  0  0  0  0  0  0  0  0
   -7.5256    0.6310    0.1645 C   0  0  0  0  0  0  0  0  0  0  0  0
   -6.3922   -0.1303   -1.9349 C   0  0  0  0  0  0  0  0  0  0  0  0
   -7.4163    0.8310   -1.3429 C   0  0  0  0  0  0  0  0  0  0  0  0
    3.4335   -0.9475   -1.1288 C   0  0  0  0  0  0  0  0  0  0  0  0
    3.1453   -1.2462    1.2512 C   0  0  0  0  0  0  0  0  0  0  0  0
    4.0018    3.6111   -0.1652 C   0  0  0  0  0  0  0  0  0  0  0  0
    4.4339   -1.9196   -1.1297 C   0  0  0  0  0  0  0  0  0  0  0  0
    4.1456   -2.2183    1.2504 C   0  0  0  0  0  0  0  0  0  0  0  0
    4.7899   -2.5549    0.0600 C   0  0  0  0  0  0  0  0  0  0  0  0
    5.1361    4.1512    0.6903 C   0  0  0  0  0  0  0  0  0  0  0  0
  1 24  1  0
  2 12  2  0
  3  8  1  0
  3  9  1  0
  3 10  1  0
  4 14  1  0
  4 16  1  0
  4 17  1  0
  5  6  1  0
  5  7  1  0
  5 11  1  0
  5 12  1  0
  6  8  1  0
  7  9  1  0
 10 13  1  0
 11 21  2  0
 11 22  1  0
 12 15  1  0
 13 14  1  0
 15 23  1  0
 16 18  1  0
 17 19  1  0
 18 20  1  0
 19 20  1  0
 21 24  1  0
 22 25  2  0
 23 27  1  0
 24 26  2  0
 25 26  1  0
M  END
>  <PUBCHEM_COMPOUND_CID>  (1) 
43980

>  <PUBCHEM_CONFORMER_RMSD>  (1) 
1

>  <PUBCHEM_CONFORMER_DIVERSEORDER>  (1) 
1
216
186
137
175
158
213
182
201
167
151
65
157
27
103
197
42
196
138
66
133
223
60
95
87
30
179
202
109
173
55
93
190
218
128
82
107
67
59
47
150
78
164
90
220
96
225
80
83
49
127
185
178
224
119
209
33
43
226
64
105
215
162
18
57
187
118
210
111
198
116
104
204
207
38
143
161
132
163
194
165
154
205
117
54
193
155
135
176
144
25
97
136
46
15
169
110
171
188
125
88
92
28
184
51
142
6
139
2
76
180
141
124
126
159
195
145
86
192
147
181
101
217
149
121
12
79
152
23
74
56
114
29
203
177
170
22
17
84
41
183
191
69
77
211
71
94
36
72
115
20
214
140
130
44
68
172
62
21
50
58
123
73
63
89
16
85
32
19
131
228
53
91
75
24
61
8
122
4
199
70
99
45
212
31
34
7
106
48
166
108
153
26
221
113
222
129
148
98
39
9
102
40
13
219
81
3
174
200
10
134
189
120
168
112
35
11
14
156
146
37
227
160
5
52
208
206
100

>  <PUBCHEM_MMFF94_PARTIAL_CHARGES>  (1) 
23
1 -0.18
10 0.27
11 -0.14
12 0.45
14 0.27
15 0.06
16 0.27
17 0.27
2 -0.57
21 -0.15
22 -0.15
24 0.18
25 -0.15
26 -0.15
3 -0.81
4 -0.81
5 0.2
54 0.15
55 0.15
58 0.15
59 0.15
8 0.27
9 0.27

>  <PUBCHEM_EFFECTIVE_ROTOR_COUNT>  (1) 
10.4

>  <PUBCHEM_PHARMACOPHORE_FEATURES>  (1) 
7
1 2 acceptor
1 27 hydrophobe
1 3 cation
1 4 cation
6 11 21 22 24 25 26 rings
6 3 5 6 7 8 9 rings
6 4 16 17 18 19 20 rings

>  <PUBCHEM_HEAVY_ATOM_COUNT>  (1) 
27

>  <PUBCHEM_ATOM_DEF_STEREO_COUNT>  (1) 
0

>  <PUBCHEM_ATOM_UDEF_STEREO_COUNT>  (1) 
0

>  <PUBCHEM_BOND_DEF_STEREO_COUNT>  (1) 
0

>  <PUBCHEM_BOND_UDEF_STEREO_COUNT>  (1) 
0

>  <PUBCHEM_ISOTOPIC_ATOM_COUNT>  (1) 
0

>  <PUBCHEM_COMPONENT_COUNT>  (1) 
1

>  <PUBCHEM_CACTVS_TAUTO_COUNT>  (1) 
2

>  <PUBCHEM_CONFORMER_ID>  (1) 
0000ABCC00000001

>  <PUBCHEM_MMFF94_ENERGY>  (1) 
44.83

>  <PUBCHEM_FEATURE_SELFOVERLAP>  (1) 
35.522

>  <PUBCHEM_SHAPE_FINGERPRINT>  (1) 
10554248 39 18131073736241714535
10670039 82 17750232509479621141
10675989 125 18408038498505671938
10816530 90 16515694372158388236
11135609 99 15697712619581611198
11297750 10 17969205752178546796
11578080 2 18189054364249912870
11796584 16 18413109463450942179
12166972 35 17775568593781767771
12403259 415 17894918447190470315
12616971 3 18059862753536068395
13540713 4 18117577312267516346
13726171 33 14636025381480360214
13878862 14 18338219540434013781
14068700 675 17702673125271927890
14118638 360 18266737081599045567
15081414 286 18186808023424797493
15183329 4 18261117314297058427
15238133 3 15357688700083660269
1577012 14 17989207071373495973
16994733 274 15069489157903022790
17349148 13 17489597735779878323
18222031 100 18059021583927915750
20157964 124 18410854391029614305
21033648 144 18261672666616402245
21033648 29 17240201054233701849
21403212 168 18269547399445290752
21859007 373 17459168742933317749
21968339 14 18201435943158167464
23081809 10 17418097624813420449
23559900 14 18408890654482691434
29717793 49 18202282481327675051
3004659 81 17989207023195159535
3411729 13 18337107990598274616
3633792 109 18130793334621829586
376196 1 17829607610808688768
4339292 15 17984709923009473430
5104073 3 17895192255444771523
54076057 255 15647066949099800495
57724786 102 18411141359438489809
60123966 16 18410855477513974164
6328613 192 16443357429479789911
9658208 31 17240207663840367499

>  <PUBCHEM_SHAPE_MULTIPOLES>  (1) 
541.69
17.79
3.47
1.91
36.42
3.64
0.48
1.63
6.51
-9.77
0.2
-0.19
-0.88
1.58

>  <PUBCHEM_SHAPE_SELFOVERLAP>  (1) 
1104.021

>  <PUBCHEM_SHAPE_VOLUME>  (1) 
313.9

>  <PUBCHEM_COORDINATE_TYPE>  (1) 
2
5
10

$$$$
