43989
     RDKit          3D

 21 21  0  0  1  0  0  0  0  0999 V2000
    2.2038   -0.8023    0.2165 Si  0  0  0  0  0  4  0  0  0  0  0  0
    0.5601   -1.0628    0.0021 O   0  0  0  0  0  0  0  0  0  0  0  0
    0.3291    2.2265    0.3693 O   0  0  0  0  0  0  0  0  0  0  0  0
   -0.0479    1.2816   -1.7005 O   0  0  0  0  0  0  0  0  0  0  0  0
    2.8091    0.6297   -0.8422 C   0  0  0  0  0  0  0  0  0  0  0  0
    2.6045   -0.4279    2.0158 C   0  0  0  0  0  0  0  0  0  0  0  0
    3.1648   -2.3436   -0.2850 C   0  0  0  0  0  0  0  0  0  0  0  0
   -0.3620   -0.0301    0.3182 C   0  0  0  0  0  0  0  0  0  0  0  0
    4.2901    0.9619   -0.7156 C   0  0  0  0  0  0  0  0  0  0  0  0
    2.2483   -1.5240    3.0115 C   0  0  0  0  0  0  0  0  0  0  0  0
    2.9655   -2.8047   -1.7229 C   0  0  0  0  0  0  0  0  0  0  0  0
   -1.7589   -0.5255    0.0346 C   0  0  0  0  0  0  0  0  0  0  0  0
   -0.0081    1.2102   -0.4787 C   0  0  0  0  0  0  0  0  0  0  0  0
   -2.8276   -0.0910    0.8046 C   0  0  0  0  0  0  0  0  0  0  0  0
   -1.9442   -1.4207   -1.0090 C   0  0  0  0  0  0  0  0  0  0  0  0
   -4.1105   -0.5620    0.5248 C   0  0  0  0  0  0  0  0  0  0  0  0
   -2.6385    0.8715    1.9308 C   0  0  0  0  0  0  0  0  0  0  0  0
   -3.2271   -1.8914   -1.2888 C   0  0  0  0  0  0  0  0  0  0  0  0
   -4.3100   -1.4622   -0.5220 C   0  0  0  0  0  0  0  0  0  0  0  0
    0.6593    3.4698   -0.2578 C   0  0  0  0  0  0  0  0  0  0  0  0
   -0.5999    4.2970   -0.4058 C   0  0  0  0  0  0  0  0  0  0  0  0
  1  2  1  0
  1  5  1  0
  1  6  1  0
  1  7  1  0
  2  8  1  0
  3 13  1  0
  3 20  1  0
  4 13  2  0
  5  9  1  0
  6 10  1  0
  7 11  1  0
  8 12  1  0
  8 13  1  0
 12 14  2  0
 12 15  1  0
 14 16  1  0
 14 17  1  0
 15 18  2  0
 16 19  2  0
 18 19  1  0
 20 21  1  0
M  END
>  <PUBCHEM_COMPOUND_CID>  (1) 
43989

>  <PUBCHEM_CONFORMER_RMSD>  (1) 
0.8

>  <PUBCHEM_CONFORMER_DIVERSEORDER>  (1) 
3
138
163
129
130
93
34
139
33
112
145
152
47
161
76
68
59
51
87
149
105
48
157
17
70
58
144
101
83
128
16
6
135
117
142
50
75
97
71
36
72
78
43
166
45
56
123
116
40
19
60
162
65
27
86
41
46
84
32
37
150
115
12
39
158
119
88
18
15
61
95
66
104
146
94
99
107
153
24
28
2
100
8
73
156
35
89
22
147
23
110
42
31
136
9
132
63
77
80
54
13
118
125
122
134
14
141
26
108
114
127
98
85
21
69
143
151
10
79
82
67
62
96
148
120
102
55
44
57
25
131
164
140
1
133
137
74
113
64
109
4
20
90
38
29
7
49
106
155
160
52
126
159
53
124
30
121
5
103
11
81
92
165
154
91
111

>  <PUBCHEM_MMFF94_PARTIAL_CHARGES>  (1) 
21
1 0.54
12 -0.14
13 0.66
14 -0.14
15 -0.15
16 -0.15
17 0.14
18 -0.15
19 -0.15
2 -0.58
20 0.28
3 -0.43
38 0.15
39 0.15
4 -0.57
43 0.15
44 0.15
5 -0.08
6 -0.08
7 -0.08
8 0.48

>  <PUBCHEM_EFFECTIVE_ROTOR_COUNT>  (1) 
9

>  <PUBCHEM_PHARMACOPHORE_FEATURES>  (1) 
2
1 4 acceptor
6 12 14 15 16 18 19 rings

>  <PUBCHEM_HEAVY_ATOM_COUNT>  (1) 
21

>  <PUBCHEM_ATOM_DEF_STEREO_COUNT>  (1) 
0

>  <PUBCHEM_ATOM_UDEF_STEREO_COUNT>  (1) 
1

>  <PUBCHEM_BOND_DEF_STEREO_COUNT>  (1) 
0

>  <PUBCHEM_BOND_UDEF_STEREO_COUNT>  (1) 
0

>  <PUBCHEM_ISOTOPIC_ATOM_COUNT>  (1) 
0

>  <PUBCHEM_COMPONENT_COUNT>  (1) 
1

>  <PUBCHEM_CACTVS_TAUTO_COUNT>  (1) 
1

>  <PUBCHEM_CONFORMER_ID>  (1) 
0000ABD500000003

>  <PUBCHEM_MMFF94_ENERGY>  (1) 
40.0542

>  <PUBCHEM_FEATURE_SELFOVERLAP>  (1) 
10.148

>  <PUBCHEM_SHAPE_FINGERPRINT>  (1) 
11578080 2 17773300262987360760
12160290 23 17683793324684727493
12553582 1 18410850001277612735
12716301 132 17761769559865993866
12788726 201 18189330165274489448
13132413 78 18340781402452956557
13583140 156 18115603672453773761
13681431 1 18187367674399762556
13692114 37 17402594265933520557
14178342 30 17843945147460524446
14787075 74 18042133209762945676
14955137 171 18122938504988590736
15664445 248 18270977846244051940
16752209 62 17903071136230293461
16945 1 18266179611321754135
1813 80 18410292493074349947
20600515 1 18196631077244208946
21524375 3 17326883483786269565
22112679 90 18411139108469250233
2255824 54 18050568735532130029
23419403 2 14789875641065832688
23526113 38 16298372587666756025
23557571 272 18266718226343891594
23558518 356 18044106652857005356
23559900 14 17131839775936106666
23598288 3 18045221539982449752
3286 77 17346593024288560762
34934 24 18409738356330535932
394222 165 17543047431225808785
474 4 17978508968314811009
6992083 37 18128553591045068707
70251023 43 18261678047868176082
7364860 26 18123470741826213085
81228 2 17973428919604068753

>  <PUBCHEM_SHAPE_MULTIPOLES>  (1) 
432.78
7.05
3.72
1.95
2.48
4.38
-1.38
-4.37
0.33
-0.65
1.42
-1.08
-0.89
-0.8

>  <PUBCHEM_SHAPE_SELFOVERLAP>  (1) 
850.549

>  <PUBCHEM_SHAPE_VOLUME>  (1) 
260.6

>  <PUBCHEM_COORDINATE_TYPE>  (1) 
2
5
10

$$$$
