43996
     RDKit          3D

 23 25  0  0  0  0  0  0  0  0999 V2000
    5.8590    1.5628   -1.6756 Cl  0  0  0  0  0  0  0  0  0  0  0  0
   -2.1741    2.7923    0.6868 O   0  0  0  0  0  0  0  0  0  0  0  0
   -4.1529    1.5089   -0.7769 O   0  0  0  0  0  0  0  0  0  0  0  0
   -0.5343   -3.3263   -0.1571 N   0  0  0  0  0  0  0  0  0  0  0  0
   -0.7808   -0.5969    0.4886 C   0  0  0  0  0  0  0  0  0  0  0  0
    0.3375   -1.3323    0.8985 C   0  0  0  0  0  0  0  0  0  0  0  0
   -1.7880   -1.2446   -0.2562 C   0  0  0  0  0  0  0  0  0  0  0  0
    1.4541   -0.7375    1.6907 C   0  0  0  0  0  0  0  0  0  0  0  0
   -1.6066   -2.5989   -0.5438 C   0  0  0  0  0  0  0  0  0  0  0  0
   -0.9284    0.7652    0.7974 C   0  0  0  0  0  0  0  0  0  0  0  0
   -2.9182   -0.5243   -0.6767 C   0  0  0  0  0  0  0  0  0  0  0  0
    2.5666   -0.1564    0.8422 C   0  0  0  0  0  0  0  0  0  0  0  0
    0.4094   -2.6733    0.5539 C   0  0  0  0  0  0  0  0  0  0  0  0
   -2.0557    1.4712    0.3743 C   0  0  0  0  0  0  0  0  0  0  0  0
   -3.0484    0.8280   -0.3613 C   0  0  0  0  0  0  0  0  0  0  0  0
   -2.6208   -3.3688   -1.3287 C   0  0  0  0  0  0  0  0  0  0  0  0
    2.4979    1.1705    0.4574 C   0  0  0  0  0  0  0  0  0  0  0  0
    3.6244   -0.9668    0.4711 C   0  0  0  0  0  0  0  0  0  0  0  0
    3.5216    1.7049   -0.3251 C   0  0  0  0  0  0  0  0  0  0  0  0
    4.6482   -0.4322   -0.3112 C   0  0  0  0  0  0  0  0  0  0  0  0
    4.5967    0.9036   -0.7092 C   0  0  0  0  0  0  0  0  0  0  0  0
   -1.6321    3.7288   -0.2420 C   0  0  0  0  0  0  0  0  0  0  0  0
   -5.2752    1.5220    0.1030 C   0  0  0  0  0  0  0  0  0  0  0  0
  1 21  1  0
  2 14  1  0
  2 22  1  0
  3 15  1  0
  3 23  1  0
  4  9  2  0
  4 13  1  0
  5  6  1  0
  5  7  2  0
  5 10  1  0
  6  8  1  0
  6 13  2  0
  7  9  1  0
  7 11  1  0
  8 12  1  0
  9 16  1  0
 10 14  2  0
 11 15  2  0
 12 17  2  0
 12 18  1  0
 14 15  1  0
 17 19  1  0
 18 20  2  0
 19 21  2  0
 20 21  1  0
M  END
>  <PUBCHEM_COMPOUND_CID>  (1) 
43996

>  <PUBCHEM_CONFORMER_RMSD>  (1) 
0.6

>  <PUBCHEM_CONFORMER_DIVERSEORDER>  (1) 
1
21
26
7
18
20
23
6
25
17
24
19
8
22
5
9
14
11
10
15
13
16
12
2
3
4

>  <PUBCHEM_MMFF94_PARTIAL_CHARGES>  (1) 
28
1 -0.18
10 -0.15
11 -0.15
12 -0.14
13 0.16
14 0.08
15 0.08
16 0.14
17 -0.15
18 -0.15
19 -0.15
2 -0.36
20 -0.15
21 0.18
22 0.28
23 0.28
26 0.15
27 0.15
28 0.15
3 -0.36
32 0.15
33 0.15
34 0.15
35 0.15
4 -0.62
6 -0.14
8 0.29
9 0.17

>  <PUBCHEM_EFFECTIVE_ROTOR_COUNT>  (1) 
4

>  <PUBCHEM_PHARMACOPHORE_FEATURES>  (1) 
6
1 2 acceptor
1 3 acceptor
1 4 acceptor
6 12 17 18 19 20 21 rings
6 4 5 6 7 9 13 rings
6 5 7 10 11 14 15 rings

>  <PUBCHEM_HEAVY_ATOM_COUNT>  (1) 
23

>  <PUBCHEM_ATOM_DEF_STEREO_COUNT>  (1) 
0

>  <PUBCHEM_ATOM_UDEF_STEREO_COUNT>  (1) 
0

>  <PUBCHEM_BOND_DEF_STEREO_COUNT>  (1) 
0

>  <PUBCHEM_BOND_UDEF_STEREO_COUNT>  (1) 
0

>  <PUBCHEM_ISOTOPIC_ATOM_COUNT>  (1) 
0

>  <PUBCHEM_COMPONENT_COUNT>  (1) 
1

>  <PUBCHEM_CACTVS_TAUTO_COUNT>  (1) 
1

>  <PUBCHEM_CONFORMER_ID>  (1) 
0000ABDC00000001

>  <PUBCHEM_MMFF94_ENERGY>  (1) 
90.6711

>  <PUBCHEM_FEATURE_SELFOVERLAP>  (1) 
30.478

>  <PUBCHEM_SHAPE_FINGERPRINT>  (1) 
10498660 4 18409440405890867928
10674148 151 16773524260945386112
10871710 139 18262238927425262365
11640471 11 17894624890043487790
12173636 292 18340193124934407252
12553582 1 18050844717340816098
12788726 201 18118679052899221554
13140716 1 18267282366129919691
13583140 156 16881301591025780763
13911987 19 18337379466886014717
13994607 96 17895209834139459632
1454969 45 18410854361798098109
14787075 74 18186517705547495019
14790565 3 18342460288464088057
14840074 17 18260555489657029189
14955137 171 18122077656742270883
15342168 16 17313110765066013980
15475509 35 11741259794024441061
15475509 8 18058169621483329351
15575132 122 18187366472205039701
16994733 274 15431690269793535167
17492 54 18262501668382446909
18785283 64 17475808545897452937
19591789 44 18340198704798525323
20101258 96 17831590042958172763
20775438 99 17338956001284146919
20871999 31 18269270321380655222
21524375 3 18263078821096338474
21756936 100 17676493908043804232
21857420 4 15688369205527281118
22393880 68 18271251629419242014
22620623 9 17774430719844149455
22907989 373 18341042016588491918
23366157 5 17758960320748111027
23402655 69 18335140921235422020
235170 7 17630068142200378156
23557571 272 18199194060386460582
23559900 14 18131061671900405848
25147074 1 18115010983883323586
25265897 201 17979115744483514164
26353 1 17408776157700049495
2637199 183 18335707079149605514
2748010 2 17838583967939829851
2838139 119 16807547506217116437
350125 39 17981599373678207011
469060 322 14346643867835434834
474 4 18114180778983000146
633830 44 17676204680683097578
7164475 11 18340476885250976890

>  <PUBCHEM_SHAPE_MULTIPOLES>  (1) 
458.48
9.74
3.92
1.21
8.64
0.42
0.05
-5.78
4.13
-3.73
0.74
0.69
0.21
-1.67

>  <PUBCHEM_SHAPE_SELFOVERLAP>  (1) 
991.039

>  <PUBCHEM_SHAPE_VOLUME>  (1) 
255.7

>  <PUBCHEM_COORDINATE_TYPE>  (1) 
2
5
10

$$$$
