4399
     RDKit          3D

 24 23  0  0  1  0  0  0  0  0999 V2000
    3.1404   -3.3539   -1.4834 S   0  0  0  0  0  0  0  0  0  0  0  0
    2.4081    0.0310   -0.0659 O   0  0  0  0  0  0  0  0  0  0  0  0
   -0.6299   -0.7487    1.4783 O   0  0  0  0  0  0  0  0  0  0  0  0
    3.7152   -1.0890    1.4589 O   0  0  0  0  0  0  0  0  0  0  0  0
    3.6695    3.0304    1.4027 O   0  0  0  0  0  0  0  0  0  0  0  0
    1.8190    1.7780    1.7933 O   0  0  0  0  0  0  0  0  0  0  0  0
   -6.1509   -1.1915   -0.0693 O   0  0  0  0  0  0  0  0  0  0  0  0
   -5.9954    0.4969    1.4430 O   0  0  0  0  0  0  0  0  0  0  0  0
    0.5807   -1.8002   -0.1995 N   0  0  0  0  0  0  0  0  0  0  0  0
   -4.8425    2.1637   -0.3839 N   0  0  0  0  0  0  0  0  0  0  0  0
    3.2829    1.8963   -1.3619 C   0  0  0  0  0  0  0  0  0  0  0  0
    3.3093    1.1420   -0.0189 C   0  0  0  0  0  0  0  0  0  0  0  0
   -2.7762   -0.1083   -0.2091 C   0  0  0  0  0  0  0  0  0  0  0  0
   -3.8389    0.0899   -1.2982 C   0  0  0  0  0  0  0  0  0  0  0  0
   -1.5640   -0.8632   -0.7530 C   0  0  0  0  0  0  0  0  0  0  0  0
    1.7137   -2.1575    0.6202 C   0  0  0  0  0  0  0  0  0  0  0  0
   -5.1167    0.7959   -0.8210 C   0  0  0  0  0  0  0  0  0  0  0  0
   -0.5114   -1.1145    0.3118 C   0  0  0  0  0  0  0  0  0  0  0  0
    3.7718    1.0337   -2.5274 C   0  0  0  0  0  0  0  0  0  0  0  0
    1.8728    2.4145   -1.6713 C   0  0  0  0  0  0  0  0  0  0  0  0
    2.7317   -1.0278    0.7283 C   0  0  0  0  0  0  0  0  0  0  0  0
    2.3611   -3.4668    0.1609 C   0  0  0  0  0  0  0  0  0  0  0  0
    2.8349    1.9916    1.1439 C   0  0  0  0  0  0  0  0  0  0  0  0
   -5.7852    0.0576    0.3216 C   0  0  0  0  0  0  0  0  0  0  0  0
  1 22  1  0
  2 12  1  0
  2 21  1  0
  3 18  2  0
  4 21  2  0
  5 23  1  0
  6 23  2  0
  7 24  1  0
  8 24  2  0
  9 16  1  0
  9 18  1  0
 10 17  1  0
 11 12  1  0
 11 19  1  0
 11 20  1  0
 12 23  1  0
 13 14  1  0
 13 15  1  0
 14 17  1  0
 15 18  1  0
 16 21  1  0
 16 22  1  0
 17 24  1  0
M  END
>  <PUBCHEM_COMPOUND_CID>  (1) 
4399

>  <PUBCHEM_CONFORMER_RMSD>  (1) 
1.2

>  <PUBCHEM_CONFORMER_DIVERSEORDER>  (1) 
1
124
192
206
201
54
38
33
198
56
169
202
138
195
125
41
65
31
194
67
174
186
156
180
16
149
168
106
117
71
20
121
53
184
104
182
105
183
14
190
161
122
136
10
199
7
50
114
97
160
57
83
82
148
4
90
111
93
145
81
55
172
21
175
176
13
155
187
171
75
193
32
29
181
173
132
91
128
142
28
59
49
18
92
78
101
72
95
80
94
48
68
162
109
147
3
116
154
15
102
9
133
27
110
89
134
45
113
107
177
17
69
61
130
164
152
170
153
188
12
30
126
191
86
98
84
62
185
108
35
8
58
74
88
178
76
22
144
25
135
150
115
11
151
60
46
146
119
19
167
200
39
77
2
137
100
37
129
204
207
85
66
34
99
163
51
189
5
47
70
141
40
96
205
203
36
120
159
44
118
73
79
123
165
140
166
112
43
143
64
63
158
157
87
131
6
23
52
179
24
103
26
127
42
197
208
139
196

>  <PUBCHEM_MMFF94_PARTIAL_CHARGES>  (1) 
25
1 -0.41
10 -0.99
12 0.34
15 0.06
16 0.36
17 0.33
18 0.57
2 -0.43
21 0.66
22 0.23
23 0.66
24 0.66
3 -0.57
35 0.37
4 -0.57
44 0.36
45 0.36
46 0.18
47 0.5
48 0.5
5 -0.65
6 -0.57
7 -0.65
8 -0.57
9 -0.73

>  <PUBCHEM_EFFECTIVE_ROTOR_COUNT>  (1) 
13

>  <PUBCHEM_PHARMACOPHORE_FEATURES>  (1) 
12
1 10 cation
1 10 donor
1 3 acceptor
1 4 acceptor
1 5 acceptor
1 6 acceptor
1 7 acceptor
1 8 acceptor
1 9 donor
3 11 19 20 hydrophobe
3 5 6 23 anion
3 7 8 24 anion

>  <PUBCHEM_HEAVY_ATOM_COUNT>  (1) 
24

>  <PUBCHEM_ATOM_DEF_STEREO_COUNT>  (1) 
0

>  <PUBCHEM_ATOM_UDEF_STEREO_COUNT>  (1) 
3

>  <PUBCHEM_BOND_DEF_STEREO_COUNT>  (1) 
0

>  <PUBCHEM_BOND_UDEF_STEREO_COUNT>  (1) 
0

>  <PUBCHEM_ISOTOPIC_ATOM_COUNT>  (1) 
0

>  <PUBCHEM_COMPONENT_COUNT>  (1) 
1

>  <PUBCHEM_CACTVS_TAUTO_COUNT>  (1) 
2

>  <PUBCHEM_CONFORMER_ID>  (1) 
0000112F00000001

>  <PUBCHEM_MMFF94_ENERGY>  (1) 
29.5901

>  <PUBCHEM_FEATURE_SELFOVERLAP>  (1) 
61.015

>  <PUBCHEM_SHAPE_FINGERPRINT>  (1) 
12633257 1 16443891894940974712
12730499 353 18411423950758622523
13955234 65 18412542089512154218
14251764 38 18040720247269559873
14251764 75 18198059385751195241
15664445 248 14261340401515210914
17844677 252 18263647269335957015
19752476 56 17774436204427618192
23559900 14 18041559131618033443
312423 11 18129391401709870531
474 4 18040992960159156135
513532 50 18131073740494549284
5281201 14 18338513024344726359
960060 61 13901913340461243753

>  <PUBCHEM_SHAPE_MULTIPOLES>  (1) 
446.71
12.42
3.65
1.84
26.27
1.15
-0.33
-2.92
-0.4
-5.69
-0.36
-1.85
-0.81
0.42

>  <PUBCHEM_SHAPE_SELFOVERLAP>  (1) 
864.889

>  <PUBCHEM_SHAPE_VOLUME>  (1) 
271.3

>  <PUBCHEM_COORDINATE_TYPE>  (1) 
2
5
10

$$$$
