44006
     RDKit          3D

 13 12  0  0  1  0  0  0  0  0999 V2000
   -2.9659   -0.3217   -0.2882 C   0  0  0  0  0  0  0  0  0  0  0  0
   -1.6475    0.4522   -0.0031 C   0  0  0  0  0  0  0  0  0  0  0  0
   -0.3474   -0.3293   -0.2396 C   0  0  0  0  0  0  0  0  0  0  0  0
    0.8770    0.5134    0.1372 C   0  0  0  0  0  0  0  0  0  0  0  0
   -4.1925    0.5915    0.0095 C   0  0  0  0  0  0  0  0  0  0  0  0
    2.1794   -0.2483   -0.1335 C   0  0  0  0  0  0  0  0  0  0  0  0
    3.4526    0.5600    0.1941 C   0  0  0  0  0  0  0  0  0  0  0  0
   -3.0404   -1.6020    0.5645 C   0  0  0  0  0  0  0  0  0  0  0  0
   -3.0479   -0.7242   -1.7757 C   0  0  0  0  0  0  0  0  0  0  0  0
    4.7327   -0.2651   -0.0568 C   0  0  0  0  0  0  0  0  0  0  0  0
   -4.3423    1.0639    1.4510 C   0  0  0  0  0  0  0  0  0  0  0  0
    3.5305    1.8564   -0.6203 C   0  0  0  0  0  0  0  0  0  0  0  0
    4.8118   -1.5469    0.7609 C   0  0  0  0  0  0  0  0  0  0  0  0
  1  2  1  0
  1  5  1  0
  1  8  1  0
  1  9  1  0
  2  3  1  0
  3  4  1  0
  4  6  1  0
  5 11  1  0
  6  7  1  0
  7 10  1  0
  7 12  1  0
 10 13  1  0
M  END
>  <PUBCHEM_COMPOUND_CID>  (1) 
44006

>  <PUBCHEM_CONFORMER_RMSD>  (1) 
0.8

>  <PUBCHEM_CONFORMER_DIVERSEORDER>  (1) 
1
28
39
42
41
23
5
61
33
50
36
64
51
14
32
7
49
54
8
10
60
20
46
34
40
3
62
31
52
11
37
53
30
21
9
26
44
2
15
17
29
19
63
6
59
47
27
12
35
25
18
48
43
55
24
16
4
38
45
57
22
56
13
58

>  <PUBCHEM_MMFF94_PARTIAL_CHARGES>  (1) 
0

>  <PUBCHEM_EFFECTIVE_ROTOR_COUNT>  (1) 
7

>  <PUBCHEM_PHARMACOPHORE_FEATURES>  (1) 
4
1 11 hydrophobe
1 12 hydrophobe
1 13 hydrophobe
3 1 8 9 hydrophobe

>  <PUBCHEM_HEAVY_ATOM_COUNT>  (1) 
13

>  <PUBCHEM_ATOM_DEF_STEREO_COUNT>  (1) 
0

>  <PUBCHEM_ATOM_UDEF_STEREO_COUNT>  (1) 
1

>  <PUBCHEM_BOND_DEF_STEREO_COUNT>  (1) 
0

>  <PUBCHEM_BOND_UDEF_STEREO_COUNT>  (1) 
0

>  <PUBCHEM_ISOTOPIC_ATOM_COUNT>  (1) 
0

>  <PUBCHEM_COMPONENT_COUNT>  (1) 
1

>  <PUBCHEM_CACTVS_TAUTO_COUNT>  (1) 
1

>  <PUBCHEM_CONFORMER_ID>  (1) 
0000ABE600000001

>  <PUBCHEM_MMFF94_ENERGY>  (1) 
18.3516

>  <PUBCHEM_FEATURE_SELFOVERLAP>  (1) 
20.3

>  <PUBCHEM_SHAPE_FINGERPRINT>  (1) 
10062212 137 18201715171676395847
10680689 15 16660640769565718999
10912923 1 18343581871458526336
11405975 8 18408887351726407938
12500047 106 16845569803605586231
12932764 1 16877930672609882305
13167823 11 18408884066124366642
13760787 5 18408601474403119396
14123238 8 8142082065735841440
14251718 22 12035740816248392946
14455015 7 17385729045678352042
15375358 24 14189574135171779788
18186145 218 17676481770128634752
19026448 5 18271805756655418268
19050596 39 18343021090479439832
19433438 15 18131633399938707397
20279233 1 15913331294620316197
20281475 54 18409445929276585942
20645477 56 17240754052636953575
20645477 70 18259984873360700338
22485316 2 18409444812869958098
22646028 1 18272926133535018038
2297311 6 14924234780895636575
23402539 116 17703783717662015964
23402655 69 18131636703217054740
23559900 14 18261107504860377040
42 15 18408322168653846842
5104073 3 18411138073503315368
522135 26 18186521003987419324
5281201 14 17022902346216269366
573450 72 17918267653841328839
633830 44 18412831299982895150
77779 3 18333733550092922024

>  <PUBCHEM_SHAPE_MULTIPOLES>  (1) 
267.53
11.54
1.5
1.14
5.46
0.01
0.17
0.42
-1.85
0.69
-0.14
-1.2
0.06
-1.33

>  <PUBCHEM_SHAPE_SELFOVERLAP>  (1) 
483.748

>  <PUBCHEM_SHAPE_VOLUME>  (1) 
175.7

>  <PUBCHEM_COORDINATE_TYPE>  (1) 
2
5
10

$$$$
