44007
     RDKit          3D

 13 13  0  0  1  0  0  0  0  0999 V2000
    3.0595   -0.6406   -0.0944 O   0  0  0  0  0  0  0  0  0  0  0  0
   -1.4269    0.7534    0.2586 C   0  0  0  0  0  0  0  0  0  0  0  0
   -0.5945   -0.5406    0.1129 C   0  0  0  0  0  0  0  0  0  0  0  0
   -0.4461    1.7957    0.8257 C   0  0  0  0  0  0  0  0  0  0  0  0
    0.8036   -0.0020    0.0061 C   0  0  0  0  0  0  0  0  0  0  0  0
    0.8971    1.2763    0.3966 C   0  0  0  0  0  0  0  0  0  0  0  0
   -1.9847    1.2082   -1.0956 C   0  0  0  0  0  0  0  0  0  0  0  0
   -0.7503   -1.4579    1.3246 C   0  0  0  0  0  0  0  0  0  0  0  0
    2.0839    2.1716    0.4690 C   0  0  0  0  0  0  0  0  0  0  0  0
    1.9008   -0.8248   -0.4867 C   0  0  0  0  0  0  0  0  0  0  0  0
   -2.9754    0.2030   -1.6441 C   0  0  0  0  0  0  0  0  0  0  0  0
   -2.1535   -2.0257    1.4109 C   0  0  0  0  0  0  0  0  0  0  0  0
    1.5866   -1.9166   -1.4836 C   0  0  0  0  0  0  0  0  0  0  0  0
  1 10  2  0
  2  3  1  0
  2  4  1  0
  2  7  1  0
  3  5  1  0
  3  8  1  0
  4  6  1  0
  5  6  2  0
  5 10  1  0
  6  9  1  0
  7 11  1  0
  8 12  1  0
 10 13  1  0
M  END
>  <PUBCHEM_COMPOUND_CID>  (1) 
44007

>  <PUBCHEM_CONFORMER_RMSD>  (1) 
0.6

>  <PUBCHEM_CONFORMER_DIVERSEORDER>  (1) 
1
22
57
54
20
44
30
25
24
58
12
34
55
26
41
37
52
60
7
4
29
42
38
32
16
43
50
2
8
49
10
31
56
33
35
61
45
48
59
53
3
9
18
47
21
23
40
11
14
27
46
39
13
19
36
5
28
51
17
15
6

>  <PUBCHEM_MMFF94_PARTIAL_CHARGES>  (1) 
8
1 -0.57
10 0.49
13 0.06
3 0.14
4 0.14
5 -0.12
6 -0.28
9 0.14

>  <PUBCHEM_EFFECTIVE_ROTOR_COUNT>  (1) 
3.6

>  <PUBCHEM_PHARMACOPHORE_FEATURES>  (1) 
4
1 1 acceptor
1 11 hydrophobe
1 12 hydrophobe
5 2 3 4 5 6 rings

>  <PUBCHEM_HEAVY_ATOM_COUNT>  (1) 
13

>  <PUBCHEM_ATOM_DEF_STEREO_COUNT>  (1) 
0

>  <PUBCHEM_ATOM_UDEF_STEREO_COUNT>  (1) 
2

>  <PUBCHEM_BOND_DEF_STEREO_COUNT>  (1) 
0

>  <PUBCHEM_BOND_UDEF_STEREO_COUNT>  (1) 
0

>  <PUBCHEM_ISOTOPIC_ATOM_COUNT>  (1) 
0

>  <PUBCHEM_COMPONENT_COUNT>  (1) 
1

>  <PUBCHEM_CACTVS_TAUTO_COUNT>  (1) 
8

>  <PUBCHEM_CONFORMER_ID>  (1) 
0000ABE700000001

>  <PUBCHEM_MMFF94_ENERGY>  (1) 
24.0949

>  <PUBCHEM_FEATURE_SELFOVERLAP>  (1) 
20.297

>  <PUBCHEM_SHAPE_FINGERPRINT>  (1) 
12138202 97 17969767756347378813
12423570 1 7903586255362603169
13024252 1 12471788487397258038
14128692 85 16916202434515533941
14761567 1 18116441336156257235
14817 1 8124165223087426459
15207287 21 18266721520552425038
15219456 202 18265052607671717577
15219459 28 18191571137417287347
15501101 241 17834140875558530923
15852999 172 18192126365083034760
161256 15 18120675757298038794
16945 1 18200866262716121196
18380122 1 17974857481508338080
18534176 82 18187091637046665078
20645476 183 16749930798966366054
20711978 78 17915205565476403299
20711985 344 17531251728844130411
21061003 4 18057351485704676290
21501502 16 18265351649017183209
21922407 69 15267064709670202082
22112679 90 17333349217921723337
22713034 7 17846509135540279647
22802520 49 18335137635173899567
23211744 25 18117830011057924965
23402539 116 18053371116173115206
23526113 38 18337950082580455790
23559900 14 18261389985149981674
241688 4 17624132702906804888
2748010 2 18268712886455301248
4369600 1 18121766240856955856
68419 9 16897353219033701481
81228 2 17767414478638995040

>  <PUBCHEM_SHAPE_MULTIPOLES>  (1) 
261.66
3.69
2.4
1.49
0.04
0.03
0.25
0.28
1.06
0.39
-0.43
-0.9
0.54
1.5

>  <PUBCHEM_SHAPE_SELFOVERLAP>  (1) 
521.414

>  <PUBCHEM_SHAPE_VOLUME>  (1) 
159

>  <PUBCHEM_COORDINATE_TYPE>  (1) 
2
5
10

$$$$
