44000
     RDKit          3D

 25 27  0  0  0  0  0  0  0  0999 V2000
    6.2467    0.5237   -1.8833 Cl  0  0  0  0  0  0  0  0  0  0  0  0
   -3.5495    2.4757   -0.7914 O   0  0  0  0  0  0  0  0  0  0  0  0
   -1.3082    3.5167    0.4734 O   0  0  0  0  0  0  0  0  0  0  0  0
   -0.8755   -2.8575    0.3339 N   0  0  0  0  0  0  0  0  0  0  0  0
   -1.7213   -0.6004    0.0104 C   0  0  0  0  0  0  0  0  0  0  0  0
   -2.9802   -2.6343   -0.7847 C   0  0  0  0  0  0  0  0  0  0  0  0
   -1.8078   -1.9881   -0.1170 C   0  0  0  0  0  0  0  0  0  0  0  0
   -0.5814   -0.0758    0.6538 C   0  0  0  0  0  0  0  0  0  0  0  0
    0.3956   -0.9589    1.1278 C   0  0  0  0  0  0  0  0  0  0  0  0
    1.6361   -0.5013    1.8206 C   0  0  0  0  0  0  0  0  0  0  0  0
   -2.7136    0.2692   -0.4718 C   0  0  0  0  0  0  0  0  0  0  0  0
   -0.4593    1.3156    0.8008 C   0  0  0  0  0  0  0  0  0  0  0  0
    0.2017   -2.3195    0.9445 C   0  0  0  0  0  0  0  0  0  0  0  0
   -3.7675   -3.5470    0.1718 C   0  0  0  0  0  0  0  0  0  0  0  0
   -2.5761   -3.4175   -2.0459 C   0  0  0  0  0  0  0  0  0  0  0  0
   -2.5762    1.6485   -0.3172 C   0  0  0  0  0  0  0  0  0  0  0  0
   -1.4515    2.1706    0.3176 C   0  0  0  0  0  0  0  0  0  0  0  0
    2.8003   -0.2423    0.8864 C   0  0  0  0  0  0  0  0  0  0  0  0
    2.9637    1.0210    0.3473 C   0  0  0  0  0  0  0  0  0  0  0  0
    3.6724   -1.2755    0.5937 C   0  0  0  0  0  0  0  0  0  0  0  0
    4.0350    1.2592   -0.5136 C   0  0  0  0  0  0  0  0  0  0  0  0
    4.7437   -1.0374   -0.2672 C   0  0  0  0  0  0  0  0  0  0  0  0
    4.9251    0.2300   -0.8208 C   0  0  0  0  0  0  0  0  0  0  0  0
   -4.6127    2.8034    0.1009 C   0  0  0  0  0  0  0  0  0  0  0  0
   -0.6395    4.2220   -0.5702 C   0  0  0  0  0  0  0  0  0  0  0  0
  1 23  1  0
  2 16  1  0
  2 24  1  0
  3 17  1  0
  3 25  1  0
  4  7  2  0
  4 13  1  0
  5  7  1  0
  5  8  2  0
  5 11  1  0
  6  7  1  0
  6 14  1  0
  6 15  1  0
  8  9  1  0
  8 12  1  0
  9 10  1  0
  9 13  2  0
 10 18  1  0
 11 16  2  0
 12 17  2  0
 16 17  1  0
 18 19  2  0
 18 20  1  0
 19 21  1  0
 20 22  2  0
 21 23  2  0
 22 23  1  0
M  END
>  <PUBCHEM_COMPOUND_CID>  (1) 
44000

>  <PUBCHEM_CONFORMER_RMSD>  (1) 
0.8

>  <PUBCHEM_CONFORMER_DIVERSEORDER>  (1) 
1
11
12
13
7
9
10
3
4
8
2
5
6

>  <PUBCHEM_MMFF94_PARTIAL_CHARGES>  (1) 
28
1 -0.18
10 0.29
11 -0.15
12 -0.15
13 0.16
16 0.08
17 0.08
18 -0.14
19 -0.15
2 -0.36
20 -0.15
21 -0.15
22 -0.15
23 0.18
24 0.28
25 0.28
29 0.15
3 -0.36
30 0.15
31 0.15
38 0.15
39 0.15
4 -0.62
40 0.15
41 0.15
6 0.14
7 0.17
9 -0.14

>  <PUBCHEM_EFFECTIVE_ROTOR_COUNT>  (1) 
5

>  <PUBCHEM_PHARMACOPHORE_FEATURES>  (1) 
7
1 2 acceptor
1 3 acceptor
1 4 acceptor
3 6 14 15 hydrophobe
6 18 19 20 21 22 23 rings
6 4 5 7 8 9 13 rings
6 5 8 11 12 16 17 rings

>  <PUBCHEM_HEAVY_ATOM_COUNT>  (1) 
25

>  <PUBCHEM_ATOM_DEF_STEREO_COUNT>  (1) 
0

>  <PUBCHEM_ATOM_UDEF_STEREO_COUNT>  (1) 
0

>  <PUBCHEM_BOND_DEF_STEREO_COUNT>  (1) 
0

>  <PUBCHEM_BOND_UDEF_STEREO_COUNT>  (1) 
0

>  <PUBCHEM_ISOTOPIC_ATOM_COUNT>  (1) 
0

>  <PUBCHEM_COMPONENT_COUNT>  (1) 
1

>  <PUBCHEM_CACTVS_TAUTO_COUNT>  (1) 
2

>  <PUBCHEM_CONFORMER_ID>  (1) 
0000ABE000000001

>  <PUBCHEM_MMFF94_ENERGY>  (1) 
97.4339

>  <PUBCHEM_FEATURE_SELFOVERLAP>  (1) 
35.554

>  <PUBCHEM_SHAPE_FINGERPRINT>  (1) 
10498660 4 18335975441591193792
10871710 139 18261396667132208727
11445158 3 17541366952368295655
12160290 23 18126537121179907267
12173636 292 18266165150399275908
12553582 1 18122894593317511123
12788726 201 18261951963560053618
13140716 1 18266154241256035481
13583140 156 16374368430613324955
13690498 29 18271260399537187222
13757389 114 18341905056461266189
13761468 95 17751927922034180756
13911987 19 18191012418793377253
14347332 77 18412545427392845846
1454969 45 18337389341295408853
14790565 3 18196655095007867657
14840074 17 18042414529968541701
14955137 171 18193011511199565283
15475509 35 12171620726694627629
15475509 8 18272091664582184575
15575132 122 17970071032621146541
15842332 3 17896298273626643578
16752209 62 18338782498740012314
16994733 274 15141499451492811863
17492 54 18189319222404701125
1813 80 17983569994720770827
18785283 64 17114391334221605257
19591789 44 18410567384472766569
20101258 96 18192162696532957011
20775438 99 17624931214599775885
20871999 31 18410854395166449322
21421566 26 18200874101115839230
21524375 3 18045499707897477608
21756936 100 17603599534175599008
22393880 68 18341901797055335438
22620623 9 18130780200580514599
22907989 373 18410566284343778638
23352939 185 18054235598415955627
23557571 272 18342746247000903518
23559900 14 18272925008712685144
25147074 1 18040705945160164674
25265897 201 17980517540178065708
255183 451 17622164993964325239
26353 1 17909527790541588039
340366 18 18121778318886007294
3610482 184 17969530185422992124
394222 165 17755295669903624219
4058900 60 17977668602840963025
44062 13 18271812289802290342
469060 322 13985243153329113043
474 4 17823702954014912728
633830 44 17458629974015070490
70251023 43 17980472687935228435
7164475 11 18410566310615079842
9658208 31 18129926906896032913

>  <PUBCHEM_SHAPE_MULTIPOLES>  (1) 
499.64
9.82
4.81
1.39
13.39
1.72
-0.28
0.01
-4.8
-7.57
-1.04
0.8
-0.64
-1.15

>  <PUBCHEM_SHAPE_SELFOVERLAP>  (1) 
1071.251

>  <PUBCHEM_SHAPE_VOLUME>  (1) 
281.5

>  <PUBCHEM_COORDINATE_TYPE>  (1) 
2
5
10

$$$$
