4401
     RDKit          3D

 16 18  0  0  0  0  0  0  0  0999 V2000
   -1.3325   -0.2583    0.4141 N   0  0  0  0  0  0  0  0  0  0  0  0
    3.2294   -0.6813   -0.1319 N   0  0  0  0  0  0  0  0  0  0  0  0
    0.0140    1.7087    0.2023 N   0  0  0  0  0  0  0  0  0  0  0  0
    1.2958   -1.7600    0.1277 N   0  0  0  0  0  0  0  0  0  0  0  0
    2.4351    1.6139   -0.0896 N   0  0  0  0  0  0  0  0  0  0  0  0
   -2.5742    0.4734    0.5480 C   0  0  0  0  0  0  0  0  0  0  0  0
   -3.1267    0.8528   -0.8203 C   0  0  0  0  0  0  0  0  0  0  0  0
   -3.6691   -0.4218    1.1153 C   0  0  0  0  0  0  0  0  0  0  0  0
   -3.8264   -0.4078   -1.3234 C   0  0  0  0  0  0  0  0  0  0  0  0
   -4.1803   -1.2232   -0.0799 C   0  0  0  0  0  0  0  0  0  0  0  0
   -0.0996    0.3485    0.2484 C   0  0  0  0  0  0  0  0  0  0  0  0
    1.0762   -0.4054    0.1231 C   0  0  0  0  0  0  0  0  0  0  0  0
    2.2676    0.2839   -0.0378 C   0  0  0  0  0  0  0  0  0  0  0  0
    2.5966   -1.8917   -0.0275 C   0  0  0  0  0  0  0  0  0  0  0  0
    1.2477    2.2448    0.0397 C   0  0  0  0  0  0  0  0  0  0  0  0
    4.6466   -0.4766   -0.3083 C   0  0  0  0  0  0  0  0  0  0  0  0
  1  6  1  0
  1 11  1  0
  2 13  1  0
  2 14  1  0
  2 16  1  0
  3 11  1  0
  3 15  2  0
  4 12  1  0
  4 14  2  0
  5 13  2  0
  5 15  1  0
  6  7  1  0
  6  8  1  0
  7  9  1  0
  8 10  1  0
  9 10  1  0
 11 12  2  0
 12 13  1  0
M  END
>  <PUBCHEM_COMPOUND_CID>  (1) 
4401

>  <PUBCHEM_CONFORMER_RMSD>  (1) 
0.6

>  <PUBCHEM_CONFORMER_DIVERSEORDER>  (1) 
1
11
4
12
8
13
5
3
14
6
9
10
2
7

>  <PUBCHEM_MMFF94_PARTIAL_CHARGES>  (1) 
15
1 -0.87
11 0.41
12 0.23
13 0.11
14 0.04
15 0.47
16 0.26
2 0.05
26 0.4
27 0.15
28 0.15
3 -0.62
4 -0.57
5 -0.57
6 0.37

>  <PUBCHEM_EFFECTIVE_ROTOR_COUNT>  (1) 
3

>  <PUBCHEM_PHARMACOPHORE_FEATURES>  (1) 
8
1 1 cation
1 1 donor
3 2 4 14 cation
3 2 5 13 cation
3 3 5 15 cation
5 2 4 12 13 14 rings
5 6 7 8 9 10 rings
6 3 5 11 12 13 15 rings

>  <PUBCHEM_HEAVY_ATOM_COUNT>  (1) 
16

>  <PUBCHEM_ATOM_DEF_STEREO_COUNT>  (1) 
0

>  <PUBCHEM_ATOM_UDEF_STEREO_COUNT>  (1) 
0

>  <PUBCHEM_BOND_DEF_STEREO_COUNT>  (1) 
0

>  <PUBCHEM_BOND_UDEF_STEREO_COUNT>  (1) 
0

>  <PUBCHEM_ISOTOPIC_ATOM_COUNT>  (1) 
0

>  <PUBCHEM_COMPONENT_COUNT>  (1) 
1

>  <PUBCHEM_CACTVS_TAUTO_COUNT>  (1) 
3

>  <PUBCHEM_CONFORMER_ID>  (1) 
0000113100000001

>  <PUBCHEM_MMFF94_ENERGY>  (1) 
29.9512

>  <PUBCHEM_FEATURE_SELFOVERLAP>  (1) 
41.203

>  <PUBCHEM_SHAPE_FINGERPRINT>  (1) 
11471102 20 18409448115604947652
11543360 7 16298395664204381150
11615757 297 18343586265347194323
11796584 16 16588298350608699570
11806522 49 18413389834862786624
12032990 46 18411424977382068770
12236239 1 17704075105512819067
13296908 3 18408602552597990617
13705890 14 18334575758619508281
13862211 1 18410572860667072346
14251717 144 18411697716152667294
14252887 29 17917157117533670550
14576447 43 18343012315650641079
15219456 202 18260265287095262953
15375462 189 18060705013364839843
15477762 27 18412262843628211854
15757776 16 18409445856499681218
16945 1 18410578374945741848
18186145 218 17748543736496069633
19422 9 18060424642226339951
19433438 38 17967811630846410087
200 152 18201432589130775239
20201158 50 18333733494073854475
20645477 70 18411694400896974383
20671657 53 18411141298791658188
20871998 22 18127985121942737910
21267235 1 18341342144698021191
21634736 98 18199740521754951247
21639500 275 18267860756248384173
221490 88 18264495163893087779
2255824 54 18341617082813492228
22646028 28 18131912667718965735
232386 152 16630518570649437143
23402539 116 18339640036695577734
23402655 69 18337669720221671645
2748010 2 18121229933070955272
2838139 119 15792313608219578150
2871803 45 18189044451824550827
581208 293 18340200890267082840
602551 16 15051443972392424183
7364860 26 18271241745850648464
77492 1 17704077317363019201
8809292 202 18114472257033891699

>  <PUBCHEM_SHAPE_MULTIPOLES>  (1) 
304.37
8.24
1.87
0.88
1.85
0.42
0.08
-2.68
1.13
-1.14
-0.01
0.93
-0.04
0.1

>  <PUBCHEM_SHAPE_SELFOVERLAP>  (1) 
657.4

>  <PUBCHEM_SHAPE_VOLUME>  (1) 
166.1

>  <PUBCHEM_COORDINATE_TYPE>  (1) 
2
5
10

$$$$
