44026
     RDKit          3D

 19 21  0  0  0  0  0  0  0  0999 V2000
   -3.7967   -0.7265   -2.1556 Cl  0  0  0  0  0  0  0  0  0  0  0  0
   -5.2629    0.1508    0.5920 Cl  0  0  0  0  0  0  0  0  0  0  0  0
    1.7634   -2.7245   -0.0631 N   0  0  0  0  0  0  0  0  0  0  0  0
    3.0161   -0.0367    0.1599 C   0  0  0  0  0  0  0  0  0  0  0  0
    1.3091    1.8083   -0.4807 C   0  0  0  0  0  0  0  0  0  0  0  0
    3.1759    0.3299   -1.3316 C   0  0  0  0  0  0  0  0  0  0  0  0
    3.2793    1.2350    0.9959 C   0  0  0  0  0  0  0  0  0  0  0  0
    2.1577    1.4260   -1.7140 C   0  0  0  0  0  0  0  0  0  0  0  0
    2.2674    2.3356    0.6109 C   0  0  0  0  0  0  0  0  0  0  0  0
    1.5603   -0.4396    0.3770 C   0  0  0  0  0  0  0  0  0  0  0  0
    0.6730    0.5302    0.0587 C   0  0  0  0  0  0  0  0  0  0  0  0
    1.2682   -1.8023    0.9113 C   0  0  0  0  0  0  0  0  0  0  0  0
   -0.7674    0.4321    0.1722 C   0  0  0  0  0  0  0  0  0  0  0  0
   -1.5285   -0.0398   -0.9014 C   0  0  0  0  0  0  0  0  0  0  0  0
   -1.4063    0.8099    1.3569 C   0  0  0  0  0  0  0  0  0  0  0  0
    1.5493   -4.1172    0.3427 C   0  0  0  0  0  0  0  0  0  0  0  0
   -2.9158   -0.1331   -0.7912 C   0  0  0  0  0  0  0  0  0  0  0  0
   -2.7936    0.7167    1.4671 C   0  0  0  0  0  0  0  0  0  0  0  0
   -3.5484    0.2452    0.3929 C   0  0  0  0  0  0  0  0  0  0  0  0
  1 17  1  0
  2 19  1  0
  3 12  1  0
  3 16  1  0
  4  6  1  0
  4  7  1  0
  4 10  1  0
  5  8  1  0
  5  9  1  0
  5 11  1  0
  6  8  1  0
  7  9  1  0
 10 11  2  0
 10 12  1  0
 11 13  1  0
 13 14  2  0
 13 15  1  0
 14 17  1  0
 15 18  2  0
 17 19  2  0
 18 19  1  0
M  END
>  <PUBCHEM_COMPOUND_CID>  (1) 
44026

>  <PUBCHEM_CONFORMER_RMSD>  (1) 
0.6

>  <PUBCHEM_CONFORMER_DIVERSEORDER>  (1) 
1
9
12
14
6
8
13
15
5
7
3
11
4
10
2

>  <PUBCHEM_MMFF94_PARTIAL_CHARGES>  (1) 
19
1 -0.18
10 -0.28
11 -0.17
12 0.41
13 0.03
14 -0.15
15 -0.15
16 0.27
17 0.18
18 -0.15
19 0.18
2 -0.18
3 -0.9
32 0.36
33 0.15
34 0.15
38 0.15
4 0.14
5 0.14

>  <PUBCHEM_EFFECTIVE_ROTOR_COUNT>  (1) 
3.8

>  <PUBCHEM_PHARMACOPHORE_FEATURES>  (1) 
4
1 3 cation
1 3 donor
6 13 14 15 17 18 19 rings
8 4 5 6 7 8 9 10 11 rings

>  <PUBCHEM_HEAVY_ATOM_COUNT>  (1) 
19

>  <PUBCHEM_ATOM_DEF_STEREO_COUNT>  (1) 
0

>  <PUBCHEM_ATOM_UDEF_STEREO_COUNT>  (1) 
0

>  <PUBCHEM_BOND_DEF_STEREO_COUNT>  (1) 
0

>  <PUBCHEM_BOND_UDEF_STEREO_COUNT>  (1) 
0

>  <PUBCHEM_ISOTOPIC_ATOM_COUNT>  (1) 
0

>  <PUBCHEM_COMPONENT_COUNT>  (1) 
1

>  <PUBCHEM_CACTVS_TAUTO_COUNT>  (1) 
1

>  <PUBCHEM_CONFORMER_ID>  (1) 
0000ABFA00000001

>  <PUBCHEM_MMFF94_ENERGY>  (1) 
54.4951

>  <PUBCHEM_FEATURE_SELFOVERLAP>  (1) 
20.297

>  <PUBCHEM_SHAPE_FINGERPRINT>  (1) 
11069576 57 17842240818865193887
11578080 2 17770183164502485969
12236239 1 18131073744415216457
12553582 1 17978791203448368778
13134695 92 17532626049802012604
13140716 1 18264768929524386434
13533116 47 18337963286222352355
13538477 17 17847058883223019137
14787075 74 17338416213946875397
14844126 61 16678076506879230426
15279307 12 18272088318401623895
15375462 189 18059850671497737131
15852999 172 18041548247658981986
16752209 62 17203050669502624297
16945 1 18408325484110292448
1813 80 17910403783497715358
18186145 218 18338796826845629781
19786989 88 17822018652382460285
19862831 5 18201725076066354205
20559304 39 18342741762807081352
20645477 70 18113618962922251715
21054139 6 18127112281488221127
22445834 79 18271810064554952553
2255824 54 18410579513112263532
22854114 111 18413110571609929097
23402539 116 17275098478930104316
23419403 2 16741085339895940992
23557571 272 15357699669414005015
23559900 14 18114471076002027731
23598291 2 17912100364525192499
238 59 18041268937483087807
2748010 2 18045516454133083520
283562 15 16532576566213688280
3060560 45 18187659032523197180
4340502 62 18336273426970972795
4409770 3 10817701718923884193
474 4 18198623426610492048
633830 44 18271254927094717413
7097593 13 18126852586285062371
7364860 26 18340487768470959498
77492 1 18202565085733123961
81228 2 17252597179873771978
8272917 22 18263092050059742499
9981440 41 16911704547812300840

>  <PUBCHEM_SHAPE_MULTIPOLES>  (1) 
389.77
7.5
2.76
1.59
8.4
3.85
-0.6
-1.1
-0.46
-3.29
0.5
0.77
-0.23
-0.91

>  <PUBCHEM_SHAPE_SELFOVERLAP>  (1) 
818.681

>  <PUBCHEM_SHAPE_VOLUME>  (1) 
225.3

>  <PUBCHEM_COORDINATE_TYPE>  (1) 
2
5
10

$$$$
