44034
     RDKit          3D

 22 24  0  0  1  0  0  0  0  0999 V2000
    4.3943    0.3852   -1.3145 Cl  0  0  0  0  0  0  0  0  0  0  0  0
    2.0774   -1.6131    1.9079 F   0  0  0  0  0  0  0  0  0  0  0  0
    3.6568   -2.0137    0.4765 F   0  0  0  0  0  0  0  0  0  0  0  0
    3.6726   -0.1636    1.6192 F   0  0  0  0  0  0  0  0  0  0  0  0
   -0.6571    2.6758    0.7019 N   0  0  0  0  0  0  0  0  0  0  0  0
   -3.3595   -0.0346    0.9253 C   0  0  0  0  0  0  0  0  0  0  0  0
   -2.2264   -1.2080   -1.1067 C   0  0  0  0  0  0  0  0  0  0  0  0
   -2.3348    0.9366    0.2778 C   0  0  0  0  0  0  0  0  0  0  0  0
   -1.6234    0.2191   -0.9167 C   0  0  0  0  0  0  0  0  0  0  0  0
   -2.6619   -1.3311    1.3732 C   0  0  0  0  0  0  0  0  0  0  0  0
   -4.4150   -0.4040   -0.1380 C   0  0  0  0  0  0  0  0  0  0  0  0
   -2.0818   -2.0685    0.1612 C   0  0  0  0  0  0  0  0  0  0  0  0
   -3.7422   -1.0472   -1.3600 C   0  0  0  0  0  0  0  0  0  0  0  0
   -1.4486    1.6238    1.3167 C   0  0  0  0  0  0  0  0  0  0  0  0
   -0.1056    0.2555   -1.0088 C   0  0  0  0  0  0  0  0  0  0  0  0
    0.6646   -0.3715   -0.0315 C   0  0  0  0  0  0  0  0  0  0  0  0
    0.5095    0.9159   -2.0701 C   0  0  0  0  0  0  0  0  0  0  0  0
    2.0565   -0.3378   -0.1161 C   0  0  0  0  0  0  0  0  0  0  0  0
    0.1988    3.3301    1.6841 C   0  0  0  0  0  0  0  0  0  0  0  0
    1.9015    0.9493   -2.1547 C   0  0  0  0  0  0  0  0  0  0  0  0
    2.6749    0.3226   -1.1776 C   0  0  0  0  0  0  0  0  0  0  0  0
    2.8494   -1.0210    0.9508 C   0  0  0  0  0  0  0  0  0  0  0  0
  1 21  1  0
  2 22  1  0
  3 22  1  0
  4 22  1  0
  5 14  1  0
  5 19  1  0
  6  8  1  0
  6 10  1  0
  6 11  1  0
  7  9  1  0
  7 12  1  0
  7 13  1  0
  8  9  1  0
  8 14  1  0
  9 15  1  0
 10 12  1  0
 11 13  1  0
 15 16  2  0
 15 17  1  0
 16 18  1  0
 17 20  2  0
 18 21  2  0
 18 22  1  0
 20 21  1  0
M  END
>  <PUBCHEM_COMPOUND_CID>  (1) 
44034

>  <PUBCHEM_CONFORMER_RMSD>  (1) 
0.8

>  <PUBCHEM_CONFORMER_DIVERSEORDER>  (1) 
3
5
2
1
4

>  <PUBCHEM_MMFF94_PARTIAL_CHARGES>  (1) 
19
1 -0.18
14 0.27
15 -0.14
16 -0.15
17 -0.15
18 -0.14
19 0.27
2 -0.34
20 -0.15
21 0.18
22 1.16
3 -0.34
37 0.36
38 0.15
39 0.15
4 -0.34
43 0.15
5 -0.9
9 0.14

>  <PUBCHEM_EFFECTIVE_ROTOR_COUNT>  (1) 
5.2

>  <PUBCHEM_PHARMACOPHORE_FEATURES>  (1) 
4
1 5 cation
1 5 donor
6 15 16 17 18 20 21 rings
8 6 7 8 9 10 11 12 13 rings

>  <PUBCHEM_HEAVY_ATOM_COUNT>  (1) 
22

>  <PUBCHEM_ATOM_DEF_STEREO_COUNT>  (1) 
2

>  <PUBCHEM_ATOM_UDEF_STEREO_COUNT>  (1) 
0

>  <PUBCHEM_BOND_DEF_STEREO_COUNT>  (1) 
0

>  <PUBCHEM_BOND_UDEF_STEREO_COUNT>  (1) 
0

>  <PUBCHEM_ISOTOPIC_ATOM_COUNT>  (1) 
0

>  <PUBCHEM_COMPONENT_COUNT>  (1) 
1

>  <PUBCHEM_CACTVS_TAUTO_COUNT>  (1) 
1

>  <PUBCHEM_CONFORMER_ID>  (1) 
0000AC0200000003

>  <PUBCHEM_MMFF94_ENERGY>  (1) 
60.2632

>  <PUBCHEM_FEATURE_SELFOVERLAP>  (1) 
20.297

>  <PUBCHEM_SHAPE_FINGERPRINT>  (1) 
10165383 225 16119425777071432473
10366900 7 17561087998886869422
10863032 1 17241056512792359839
11578080 2 18117251787964208837
12236239 1 18334867120758575735
12553582 1 18272094915523735107
12596599 1 17968672518523708170
12633257 1 15769231448178652279
12670545 47 16630530617668822437
12788726 201 18269568156167605265
13009979 54 18264212409443248098
13083527 12 17128148853415558119
13224815 77 18041000669694231982
133893 2 17841704412030868969
13583140 156 17058630882082502254
14022347 108 17984735326837948085
14289901 80 17989214737124962270
14787075 74 17905900519336404964
15375462 189 18263378025882578431
16752209 62 18340774745501035021
16945 1 17967815006590289917
17780758 139 17907273487485045818
18219364 16 15410603732188569536
18222031 100 17632571695431716781
18981168 100 13758060862496988742
200 152 18113904891785160871
20600515 1 17845925320915120795
20645477 70 17385437726283554134
20905425 154 16908333492157713735
23402539 116 17775294841414854941
23419403 2 17905563918201411637
23557571 272 17489320654396384429
23559900 14 17846230903532831708
23598288 3 18338808792982991681
35225 105 17768520591230604408
77492 1 18334587840562933269
81228 2 17773337680847873025
90316 7 18131352964666095689
9709674 26 15864079818210792259

>  <PUBCHEM_SHAPE_MULTIPOLES>  (1) 
427.82
7.18
2.36
2.02
1.44
2.33
-0.14
-2.9
0.02
-0.4
1.22
1.26
-0.15
-0.94

>  <PUBCHEM_SHAPE_SELFOVERLAP>  (1) 
904.581

>  <PUBCHEM_SHAPE_VOLUME>  (1) 
245.1

>  <PUBCHEM_COORDINATE_TYPE>  (1) 
2
5
10

$$$$
