44046
     RDKit          3D

 20 22  0  0  0  0  0  0  0  0999 V2000
    3.8010   -0.9626    2.0495 Cl  0  0  0  0  0  0  0  0  0  0  0  0
    5.3353    0.1492   -0.5734 Cl  0  0  0  0  0  0  0  0  0  0  0  0
   -1.7979   -2.5167   -0.2999 N   0  0  0  0  0  0  0  0  0  0  0  0
   -2.9503    0.2242   -0.2446 C   0  0  0  0  0  0  0  0  0  0  0  0
   -1.1870    1.9253    0.6073 C   0  0  0  0  0  0  0  0  0  0  0  0
   -3.1172    0.4345    1.2760 C   0  0  0  0  0  0  0  0  0  0  0  0
   -3.1561    1.5871   -0.9415 C   0  0  0  0  0  0  0  0  0  0  0  0
   -2.0657    1.4448    1.7841 C   0  0  0  0  0  0  0  0  0  0  0  0
   -2.1107    2.6017   -0.4305 C   0  0  0  0  0  0  0  0  0  0  0  0
   -1.5071   -0.2069   -0.4896 C   0  0  0  0  0  0  0  0  0  0  0  0
   -0.5899    0.6896   -0.0602 C   0  0  0  0  0  0  0  0  0  0  0  0
   -1.2568   -1.5145   -1.1645 C   0  0  0  0  0  0  0  0  0  0  0  0
    0.8475    0.5507   -0.1695 C   0  0  0  0  0  0  0  0  0  0  0  0
    1.5763   -0.0615    0.8544 C   0  0  0  0  0  0  0  0  0  0  0  0
    1.5157    1.0294   -1.3005 C   0  0  0  0  0  0  0  0  0  0  0  0
   -1.1525   -2.4976    1.0252 C   0  0  0  0  0  0  0  0  0  0  0  0
   -1.6681   -3.8647   -0.8820 C   0  0  0  0  0  0  0  0  0  0  0  0
    2.9608   -0.1940    0.7484 C   0  0  0  0  0  0  0  0  0  0  0  0
    2.9001    0.8969   -1.4065 C   0  0  0  0  0  0  0  0  0  0  0  0
    3.6227    0.2853   -0.3820 C   0  0  0  0  0  0  0  0  0  0  0  0
  1 18  1  0
  2 20  1  0
  3 12  1  0
  3 16  1  0
  3 17  1  0
  4  6  1  0
  4  7  1  0
  4 10  1  0
  5  8  1  0
  5  9  1  0
  5 11  1  0
  6  8  1  0
  7  9  1  0
 10 11  2  0
 10 12  1  0
 11 13  1  0
 13 14  2  0
 13 15  1  0
 14 18  1  0
 15 19  2  0
 18 20  2  0
 19 20  1  0
M  END
>  <PUBCHEM_COMPOUND_CID>  (1) 
44046

>  <PUBCHEM_CONFORMER_RMSD>  (1) 
0.6

>  <PUBCHEM_CONFORMER_DIVERSEORDER>  (1) 
1
9
8
5
11
4
3
12
6
7
10
2

>  <PUBCHEM_MMFF94_PARTIAL_CHARGES>  (1) 
19
1 -0.18
10 -0.28
11 -0.17
12 0.41
13 0.03
14 -0.15
15 -0.15
16 0.27
17 0.27
18 0.18
19 -0.15
2 -0.18
20 0.18
3 -0.81
33 0.15
34 0.15
4 0.14
41 0.15
5 0.14

>  <PUBCHEM_EFFECTIVE_ROTOR_COUNT>  (1) 
3.8

>  <PUBCHEM_PHARMACOPHORE_FEATURES>  (1) 
3
1 3 cation
6 13 14 15 18 19 20 rings
8 4 5 6 7 8 9 10 11 rings

>  <PUBCHEM_HEAVY_ATOM_COUNT>  (1) 
20

>  <PUBCHEM_ATOM_DEF_STEREO_COUNT>  (1) 
0

>  <PUBCHEM_ATOM_UDEF_STEREO_COUNT>  (1) 
0

>  <PUBCHEM_BOND_DEF_STEREO_COUNT>  (1) 
0

>  <PUBCHEM_BOND_UDEF_STEREO_COUNT>  (1) 
0

>  <PUBCHEM_ISOTOPIC_ATOM_COUNT>  (1) 
0

>  <PUBCHEM_COMPONENT_COUNT>  (1) 
1

>  <PUBCHEM_CACTVS_TAUTO_COUNT>  (1) 
1

>  <PUBCHEM_CONFORMER_ID>  (1) 
0000AC0E00000001

>  <PUBCHEM_MMFF94_ENERGY>  (1) 
66.1192

>  <PUBCHEM_FEATURE_SELFOVERLAP>  (1) 
15.223

>  <PUBCHEM_SHAPE_FINGERPRINT>  (1) 
10366900 7 17489864925969279100
10616163 171 18410858797872275598
121448 382 18058432254052883661
12236239 1 18259706679274773628
12500047 106 18340762659478972740
12553582 1 17978510063415725806
12592029 89 18043529422079036425
12788726 201 18335979882408504107
13083527 12 16906903001433274891
13140716 1 18128261288070825817
133893 2 17620195330535371977
13538477 17 18335418001959448436
13583140 156 17458070369192390933
13631057 29 18124033696533414238
14142880 1 11458690691479675527
14223421 5 18055341698634560456
14787075 74 17329421161334706280
15279307 12 18333732399210836194
15309172 13 18339936904618877441
15669948 3 18408603690627174062
15852999 172 18129937871456883646
16752209 62 18338503223197805791
16945 1 18272369763244829157
200 152 17603590741818692905
20028762 73 17773042063172293111
20645476 183 18334012778759539165
21452121 199 17763730384140292486
21731516 1 17907582780347584487
23184049 29 18125146393061922802
23402539 116 18131348596663295757
23419403 2 16626830903392663699
23557571 272 17986381403160881930
23559900 14 18202563974096074164
23598288 3 18190474924461759287
23598291 2 17968364681211710450
23728640 28 18410001126751221971
2748010 2 18049733922949510845
465052 167 17970935429913232027
4921388 177 18200887248337662854
5706482 22 18339071580541121145
5845 1 10992857864092311693
59755656 520 18059021579453178053
6992083 37 18114455669938454212
74978 22 18410854386687447044
77492 1 18259704484578088396
81228 2 18201155580672320991
90525 40 18260549978701590125
9709674 26 18130797750143804302

>  <PUBCHEM_SHAPE_MULTIPOLES>  (1) 
410.35
7.23
2.99
1.61
9.2
3.1
-0.52
-1.16
-0.26
-3.37
0.62
0.48
0.07
-1.18

>  <PUBCHEM_SHAPE_SELFOVERLAP>  (1) 
861.696

>  <PUBCHEM_SHAPE_VOLUME>  (1) 
238

>  <PUBCHEM_COORDINATE_TYPE>  (1) 
2
5
10

$$$$
