44062
     RDKit          3D

 27 30  0  0  0  0  0  0  0  0999 V2000
   -0.2907    1.2817   -0.4282 N   0  0  0  0  0  0  0  0  0  0  0  0
   -4.7102    0.0963   -1.1069 N   0  0  0  0  0  0  0  0  0  0  0  0
    3.2837    0.2903    0.5681 C   0  0  0  0  0  0  0  0  0  0  0  0
    2.1321    1.0692   -0.1203 C   0  0  0  0  0  0  0  0  0  0  0  0
    0.7487    0.5262    0.2560 C   0  0  0  0  0  0  0  0  0  0  0  0
    3.2609   -1.2050    0.2653 C   0  0  0  0  0  0  0  0  0  0  0  0
    4.6629    0.8840    0.3107 C   0  0  0  0  0  0  0  0  0  0  0  0
   -1.6148    0.7810   -0.0749 C   0  0  0  0  0  0  0  0  0  0  0  0
   -2.7418    1.5676   -0.7754 C   0  0  0  0  0  0  0  0  0  0  0  0
   -4.0848    1.0875   -0.3993 C   0  0  0  0  0  0  0  0  0  0  0  0
   -4.9227    1.4720    0.6221 C   0  0  0  0  0  0  0  0  0  0  0  0
   -5.9452   -0.1707   -0.5602 C   0  0  0  0  0  0  0  0  0  0  0  0
   -6.1041    0.6838    0.5329 C   0  0  0  0  0  0  0  0  0  0  0  0
    2.5492   -2.0401    1.0992 C   0  0  0  0  0  0  0  0  0  0  0  0
    5.6405    0.7393    1.2728 C   0  0  0  0  0  0  0  0  0  0  0  0
    3.9532   -1.6698   -0.8320 C   0  0  0  0  0  0  0  0  0  0  0  0
    4.8903    1.5479   -0.8768 C   0  0  0  0  0  0  0  0  0  0  0  0
    2.5284   -3.4071    0.8219 C   0  0  0  0  0  0  0  0  0  0  0  0
    6.9033    1.2828    1.0367 C   0  0  0  0  0  0  0  0  0  0  0  0
    3.9325   -3.0368   -1.1090 C   0  0  0  0  0  0  0  0  0  0  0  0
    6.1531    2.0916   -1.1128 C   0  0  0  0  0  0  0  0  0  0  0  0
   -6.9235   -1.0940   -0.9455 C   0  0  0  0  0  0  0  0  0  0  0  0
   -7.2972    0.6154    1.2794 C   0  0  0  0  0  0  0  0  0  0  0  0
    3.2198   -3.9056   -0.2824 C   0  0  0  0  0  0  0  0  0  0  0  0
    7.1599    1.9590   -0.1563 C   0  0  0  0  0  0  0  0  0  0  0  0
   -8.0988   -1.1436   -0.1904 C   0  0  0  0  0  0  0  0  0  0  0  0
   -8.2848   -0.3030    0.9054 C   0  0  0  0  0  0  0  0  0  0  0  0
  1  5  1  0
  1  8  1  0
  2 10  1  0
  2 12  1  0
  3  4  1  0
  3  6  1  0
  3  7  1  0
  4  5  1  0
  6 14  2  0
  6 16  1  0
  7 15  2  0
  7 17  1  0
  8  9  1  0
  9 10  1  0
 10 11  2  0
 11 13  1  0
 12 13  2  0
 12 22  1  0
 13 23  1  0
 14 18  1  0
 15 19  1  0
 16 20  2  0
 17 21  2  0
 18 24  2  0
 19 25  2  0
 20 24  1  0
 21 25  1  0
 22 26  2  0
 23 27  2  0
 26 27  1  0
M  END
>  <PUBCHEM_COMPOUND_CID>  (1) 
44062

>  <PUBCHEM_CONFORMER_RMSD>  (1) 
1

>  <PUBCHEM_CONFORMER_DIVERSEORDER>  (1) 
1
27
64
17
37
15
62
57
69
21
68
32
67
7
52
8
22
51
41
39
13
31
3
12
56
4
19
40
60
42
6
18
65
25
49
53
47
26
28
63
9
24
54
2
66
11
5
14
50
20
35
23
38
45
59
34
16
58
10
61
36
43
29
46
44
48
55
33
30

>  <PUBCHEM_MMFF94_PARTIAL_CHARGES>  (1) 
42
1 -0.9
10 -0.33
11 -0.15
12 -0.15
14 -0.15
15 -0.15
16 -0.15
17 -0.15
18 -0.15
19 -0.15
2 0.03
20 -0.15
21 -0.15
22 -0.15
23 -0.15
24 -0.15
25 -0.15
26 -0.15
27 -0.15
3 0.29
35 0.36
38 0.27
39 0.15
40 0.15
41 0.15
42 0.15
43 0.15
44 0.15
45 0.15
46 0.15
47 0.15
48 0.15
49 0.15
5 0.27
50 0.15
51 0.15
52 0.15
53 0.15
6 -0.14
7 -0.14
8 0.27
9 0.18

>  <PUBCHEM_EFFECTIVE_ROTOR_COUNT>  (1) 
8

>  <PUBCHEM_PHARMACOPHORE_FEATURES>  (1) 
8
1 1 cation
1 1 donor
1 2 cation
1 2 donor
5 2 10 11 12 13 rings
6 12 13 22 23 26 27 rings
6 6 14 16 18 20 24 rings
6 7 15 17 19 21 25 rings

>  <PUBCHEM_HEAVY_ATOM_COUNT>  (1) 
27

>  <PUBCHEM_ATOM_DEF_STEREO_COUNT>  (1) 
0

>  <PUBCHEM_ATOM_UDEF_STEREO_COUNT>  (1) 
0

>  <PUBCHEM_BOND_DEF_STEREO_COUNT>  (1) 
0

>  <PUBCHEM_BOND_UDEF_STEREO_COUNT>  (1) 
0

>  <PUBCHEM_ISOTOPIC_ATOM_COUNT>  (1) 
0

>  <PUBCHEM_COMPONENT_COUNT>  (1) 
1

>  <PUBCHEM_CACTVS_TAUTO_COUNT>  (1) 
1

>  <PUBCHEM_CONFORMER_ID>  (1) 
0000AC1E00000001

>  <PUBCHEM_MMFF94_ENERGY>  (1) 
60.4281

>  <PUBCHEM_FEATURE_SELFOVERLAP>  (1) 
40.689

>  <PUBCHEM_SHAPE_FINGERPRINT>  (1) 
10299344 5 18272653463267787253
10319688 140 18270965622867860790
10595046 47 18412545375562756705
11719270 70 18335414678145306954
12596602 18 18131351873970898737
12730499 353 18410575068253323640
13073987 5 18342739564216738521
13533116 47 18272370836944241051
1361 2 18408606946260357531
1361 4 18413671314493953367
13692114 37 18267294512461281066
13835254 42 18339082575384229172
14118638 360 18343300340995783801
14251764 18 18202282524599049509
14461889 52 18260831518161008546
15537594 2 18059847376872731965
1577012 14 17917991660202730381
16990366 60 17901662666869753930
18335252 98 18409733980470621715
18365409 1 18195250138332762190
21197605 99 18408882936711706106
21344244 246 18199476468484619254
21623969 137 18186519899553154825
220451 1 17917708007282150365
22149856 69 18341055125061138633
22224240 67 18409724102114847952
22956985 138 17827342291123751474
23516275 137 17631476525753250559
23729417 116 17615695034413514886
24771750 20 17752780296247937045
335507 130 18335423486960084109
3663271 9 18131072602512903465
4073 2 18335708256139813579
4093350 32 17561370556242785598
4112364 45 15792302626156786230
4340502 62 18410008836897415436
5109719 28 18200310047757399552
54076057 127 17917997161760775510
54076057 255 15267337461874030824
5758199 1 18342455975989368376
57634706 280 17917136330382607936
6057620 51 18340491157321897513
6371009 1 10953733387674371679
6394761 36 11023833876769240369

>  <PUBCHEM_SHAPE_MULTIPOLES>  (1) 
545.69
25.92
3.28
1.19
39.39
4.03
0.06
-5.65
2.19
-6.64
-0.37
-0.19
0.06
-0.48

>  <PUBCHEM_SHAPE_SELFOVERLAP>  (1) 
1184.575

>  <PUBCHEM_SHAPE_VOLUME>  (1) 
295.7

>  <PUBCHEM_COORDINATE_TYPE>  (1) 
2
5
10

$$$$
