44064
     RDKit          3D

 23 25  0  0  0  0  0  0  0  0999 V2000
    2.6364    0.3975    1.8212 N   0  0  0  0  0  0  0  0  0  0  0  0
    4.9223   -0.9804   -0.7795 N   0  0  0  0  0  0  0  0  0  0  0  0
   -2.1476   -0.4222   -2.0603 C   0  0  0  0  0  0  0  0  0  0  0  0
   -1.0217    0.6128   -2.0530 C   0  0  0  0  0  0  0  0  0  0  0  0
   -2.2712   -1.3856   -0.8930 C   0  0  0  0  0  0  0  0  0  0  0  0
   -1.2361    1.6680   -0.9983 C   0  0  0  0  0  0  0  0  0  0  0  0
   -0.8405   -0.0603    0.7497 C   0  0  0  0  0  0  0  0  0  0  0  0
   -1.6834   -1.2288    0.3819 C   0  0  0  0  0  0  0  0  0  0  0  0
   -1.1500    1.3323    0.3630 C   0  0  0  0  0  0  0  0  0  0  0  0
    0.3279   -0.2615    1.3898 C   0  0  0  0  0  0  0  0  0  0  0  0
   -3.0913   -2.5127   -1.1249 C   0  0  0  0  0  0  0  0  0  0  0  0
   -1.5292    2.9895   -1.3642 C   0  0  0  0  0  0  0  0  0  0  0  0
    1.2461    0.8403    1.8026 C   0  0  0  0  0  0  0  0  0  0  0  0
   -1.9491   -2.1979    1.3747 C   0  0  0  0  0  0  0  0  0  0  0  0
   -1.3651    2.3191    1.3373 C   0  0  0  0  0  0  0  0  0  0  0  0
    3.0502   -0.0662    0.5049 C   0  0  0  0  0  0  0  0  0  0  0  0
    4.5130   -0.4990    0.5353 C   0  0  0  0  0  0  0  0  0  0  0  0
   -3.3253   -3.4658   -0.1360 C   0  0  0  0  0  0  0  0  0  0  0  0
   -1.7370    3.9646   -0.3888 C   0  0  0  0  0  0  0  0  0  0  0  0
   -2.7545   -3.3068    1.1170 C   0  0  0  0  0  0  0  0  0  0  0  0
   -1.6561    3.6297    0.9602 C   0  0  0  0  0  0  0  0  0  0  0  0
    6.3142   -1.4324   -0.7516 C   0  0  0  0  0  0  0  0  0  0  0  0
    4.7480    0.0659   -1.7881 C   0  0  0  0  0  0  0  0  0  0  0  0
  1 13  1  0
  1 16  1  0
  2 17  1  0
  2 22  1  0
  2 23  1  0
  3  4  1  0
  3  5  1  0
  4  6  1  0
  5  8  2  0
  5 11  1  0
  6  9  2  0
  6 12  1  0
  7  8  1  0
  7  9  1  0
  7 10  2  3
  8 14  1  0
  9 15  1  0
 10 13  1  0
 11 18  2  0
 12 19  2  0
 14 20  2  0
 15 21  2  0
 16 17  1  0
 18 20  1  0
 19 21  1  0
M  END
>  <PUBCHEM_COMPOUND_CID>  (1) 
44064

>  <PUBCHEM_CONFORMER_RMSD>  (1) 
0.8

>  <PUBCHEM_CONFORMER_DIVERSEORDER>  (1) 
9
5
20
8
7
12
24
17
31
30
4
28
37
29
38
11
6
10
22
23
36
34
2
3
19
26
27
25
21
1
35
13
18
15
32
16
14
33

>  <PUBCHEM_MMFF94_PARTIAL_CHARGES>  (1) 
33
1 -0.9
10 -0.29
11 -0.15
12 -0.15
13 0.41
14 -0.15
15 -0.15
16 0.27
17 0.27
18 -0.15
19 -0.15
2 -0.81
20 -0.15
21 -0.15
22 0.27
23 0.27
28 0.15
3 0.14
31 0.15
32 0.15
33 0.15
34 0.15
37 0.36
4 0.14
40 0.15
41 0.15
42 0.15
43 0.15
5 -0.14
6 -0.14
7 -0.06
8 0.03
9 0.03

>  <PUBCHEM_EFFECTIVE_ROTOR_COUNT>  (1) 
5.4

>  <PUBCHEM_PHARMACOPHORE_FEATURES>  (1) 
6
1 1 cation
1 1 donor
1 2 cation
6 5 8 11 14 18 20 rings
6 6 9 12 15 19 21 rings
7 3 4 5 6 7 8 9 rings

>  <PUBCHEM_HEAVY_ATOM_COUNT>  (1) 
23

>  <PUBCHEM_ATOM_DEF_STEREO_COUNT>  (1) 
0

>  <PUBCHEM_ATOM_UDEF_STEREO_COUNT>  (1) 
0

>  <PUBCHEM_BOND_DEF_STEREO_COUNT>  (1) 
0

>  <PUBCHEM_BOND_UDEF_STEREO_COUNT>  (1) 
0

>  <PUBCHEM_ISOTOPIC_ATOM_COUNT>  (1) 
0

>  <PUBCHEM_COMPONENT_COUNT>  (1) 
1

>  <PUBCHEM_CACTVS_TAUTO_COUNT>  (1) 
1

>  <PUBCHEM_CONFORMER_ID>  (1) 
0000AC2000000009

>  <PUBCHEM_MMFF94_ENERGY>  (1) 
74.861

>  <PUBCHEM_FEATURE_SELFOVERLAP>  (1) 
30.46

>  <PUBCHEM_SHAPE_FINGERPRINT>  (1) 
10391435 84 17841436930907682478
10764073 3 17129615391347156019
107951 10 18055073151176815684
10928967 22 17131840876318621830
11578080 2 15333270823453651457
11954058 11 17766843101849514903
12714826 92 18202568371625679250
12788726 201 18335409132931369995
13135754 10 17987818365636430474
13681431 1 17904194081389605729
13994607 96 14635158876044329286
14713325 29 18338805524418187118
15163728 17 17544480751923342812
15463212 79 18115867387266059072
15475509 8 18339911715237106015
15842332 3 17532358795630545490
17980427 26 13148272847620057981
1813 80 18124597732538756299
18785283 64 17108472675860772993
21095088 737 16588594231216599604
21120745 212 18265917893295449148
22849341 161 18192732243946658915
22907989 373 18334010597074531774
23557571 272 18264750220863473680
24893989 43 16180641349383557365
2748010 2 16451463265618238159
3729539 64 17188147695199387646
44062 13 18269284474062819046
484985 159 16056595413710142022
4921388 177 18340487764492327772
57262259 84 18410288138051033603
58260988 587 17258232769756799569
6786 2 17836381349627767809
7399639 24 17985534796815177552
81228 2 18267842000353141009
84936 31 17188394509800127049

>  <PUBCHEM_SHAPE_MULTIPOLES>  (1) 
463.37
8.44
4.6
2.06
21.31
2.12
-0.33
-7.12
-3.02
-6.8
0.33
0.04
0.24
0.63

>  <PUBCHEM_SHAPE_SELFOVERLAP>  (1) 
982.961

>  <PUBCHEM_SHAPE_VOLUME>  (1) 
256.9

>  <PUBCHEM_COORDINATE_TYPE>  (1) 
2
5
10

$$$$
