44066
     RDKit          3D

 25 27  0  0  0  0  0  0  0  0999 V2000
   -5.6226    0.4558    0.0094 N   0  0  0  0  0  0  0  0  0  0  0  0
   -1.9432    1.0232   -0.1581 N   0  0  0  0  0  0  0  0  0  0  0  0
    3.7835   -0.4585    1.7047 C   0  0  0  0  0  0  0  0  0  0  0  0
    2.4356   -1.1432    1.9348 C   0  0  0  0  0  0  0  0  0  0  0  0
    1.6409    0.3179   -0.4264 C   0  0  0  0  0  0  0  0  0  0  0  0
    3.8534    0.7364    0.7701 C   0  0  0  0  0  0  0  0  0  0  0  0
    1.9620   -1.8762    0.7059 C   0  0  0  0  0  0  0  0  0  0  0  0
    2.8881    1.0944   -0.1971 C   0  0  0  0  0  0  0  0  0  0  0  0
    1.5810   -1.1590   -0.4403 C   0  0  0  0  0  0  0  0  0  0  0  0
   -4.3493    1.1201    0.2657 C   0  0  0  0  0  0  0  0  0  0  0  0
    0.4660    0.9686   -0.5355 C   0  0  0  0  0  0  0  0  0  0  0  0
   -3.2116    0.3508   -0.3988 C   0  0  0  0  0  0  0  0  0  0  0  0
   -0.8406    0.2850   -0.7656 C   0  0  0  0  0  0  0  0  0  0  0  0
    5.0256    1.5182    0.8766 C   0  0  0  0  0  0  0  0  0  0  0  0
    1.9039   -3.2771    0.6922 C   0  0  0  0  0  0  0  0  0  0  0  0
    3.1394    2.2118   -1.0243 C   0  0  0  0  0  0  0  0  0  0  0  0
    1.1554   -1.8514   -1.5841 C   0  0  0  0  0  0  0  0  0  0  0  0
   -6.7252    1.2063    0.6123 C   0  0  0  0  0  0  0  0  0  0  0  0
   -5.6007   -0.9149    0.5224 C   0  0  0  0  0  0  0  0  0  0  0  0
    5.2442    2.6273    0.0623 C   0  0  0  0  0  0  0  0  0  0  0  0
    1.4754   -3.9569   -0.4478 C   0  0  0  0  0  0  0  0  0  0  0  0
    4.2999    2.9736   -0.8913 C   0  0  0  0  0  0  0  0  0  0  0  0
    1.1025   -3.2451   -1.5850 C   0  0  0  0  0  0  0  0  0  0  0  0
   -6.7664    2.6336    0.0930 C   0  0  0  0  0  0  0  0  0  0  0  0
   -6.8970   -1.6406    0.2049 C   0  0  0  0  0  0  0  0  0  0  0  0
  1 10  1  0
  1 18  1  0
  1 19  1  0
  2 12  1  0
  2 13  1  0
  3  4  1  0
  3  6  1  0
  4  7  1  0
  5  8  1  0
  5  9  1  0
  5 11  2  3
  6  8  2  0
  6 14  1  0
  7  9  2  0
  7 15  1  0
  8 16  1  0
  9 17  1  0
 10 12  1  0
 11 13  1  0
 14 20  2  0
 15 21  2  0
 16 22  2  0
 17 23  2  0
 18 24  1  0
 19 25  1  0
 20 22  1  0
 21 23  1  0
M  END
>  <PUBCHEM_COMPOUND_CID>  (1) 
44066

>  <PUBCHEM_CONFORMER_RMSD>  (1) 
0.8

>  <PUBCHEM_CONFORMER_DIVERSEORDER>  (1) 
1
77
90
109
81
58
76
10
123
131
98
66
117
115
100
130
14
52
3
116
37
122
118
16
13
94
75
28
33
99
48
124
64
108
111
129
97
21
32
79
40
15
4
7
119
80
110
113
54
93
49
86
68
5
125
29
24
96
22
35
91
42
104
62
105
27
39
101
112
69
82
72
63
25
106
44
41
12
78
20
84
57
67
36
34
19
114
8
2
55
73
127
85
107
47
56
71
18
6
46
26
23
31
89
70
60
128
11
92
120
102
61
103
45
30
87
38
53
9
43
126
83
17
50
65
95
121
88
51
74
59

>  <PUBCHEM_MMFF94_PARTIAL_CHARGES>  (1) 
33
1 -0.81
10 0.27
11 -0.29
12 0.27
13 0.41
14 -0.15
15 -0.15
16 -0.15
17 -0.15
18 0.27
19 0.27
2 -0.9
20 -0.15
21 -0.15
22 -0.15
23 -0.15
3 0.14
32 0.15
37 0.36
38 0.15
39 0.15
4 0.14
40 0.15
41 0.15
46 0.15
47 0.15
48 0.15
49 0.15
5 -0.06
6 -0.14
7 -0.14
8 0.03
9 0.03

>  <PUBCHEM_EFFECTIVE_ROTOR_COUNT>  (1) 
7.4

>  <PUBCHEM_PHARMACOPHORE_FEATURES>  (1) 
6
1 1 cation
1 2 cation
1 2 donor
6 6 8 14 16 20 22 rings
6 7 9 15 17 21 23 rings
7 3 4 5 6 7 8 9 rings

>  <PUBCHEM_HEAVY_ATOM_COUNT>  (1) 
25

>  <PUBCHEM_ATOM_DEF_STEREO_COUNT>  (1) 
0

>  <PUBCHEM_ATOM_UDEF_STEREO_COUNT>  (1) 
0

>  <PUBCHEM_BOND_DEF_STEREO_COUNT>  (1) 
0

>  <PUBCHEM_BOND_UDEF_STEREO_COUNT>  (1) 
0

>  <PUBCHEM_ISOTOPIC_ATOM_COUNT>  (1) 
0

>  <PUBCHEM_COMPONENT_COUNT>  (1) 
1

>  <PUBCHEM_CACTVS_TAUTO_COUNT>  (1) 
1

>  <PUBCHEM_CONFORMER_ID>  (1) 
0000AC2200000001

>  <PUBCHEM_MMFF94_ENERGY>  (1) 
71.9213

>  <PUBCHEM_FEATURE_SELFOVERLAP>  (1) 
30.46

>  <PUBCHEM_SHAPE_FINGERPRINT>  (1) 
10554248 39 17843395186553680685
10835480 77 18409444753416266557
11421498 54 17989214723960778224
12107183 9 17691694385905200833
12373685 5 18339347610232471983
12596602 18 18412545422981366737
12788726 201 17691118658197239910
14118638 360 18272092695859060397
14347424 109 18195533597927247921
146900 427 18411979199878049073
14790565 3 18195246847786328725
15183329 4 8934732106166048025
16992610 120 18190755318257341900
18222031 100 10953730093524561340
19377110 9 18340761628950383901
21197605 99 18189057658527421595
22149856 69 18270420351473862659
22224240 67 18340483490472568329
23559900 14 18126012568350280255
239999 70 18341901740218778655
32027 91 17973998454476091039
3411729 13 18409731746370254924
4073 2 18335147505668102955
4340502 62 18334859445594112025
484985 159 9975520299350147818
5104073 3 18335711495045938177
57527585 21 16619238913126908284
9658208 31 18057320802758818688

>  <PUBCHEM_SHAPE_MULTIPOLES>  (1) 
504.53
15.65
4.15
1.36
36.35
2.71
0.15
-11.21
4
-3.38
-1.02
-1.44
0.6
-0.62

>  <PUBCHEM_SHAPE_SELFOVERLAP>  (1) 
1059.493

>  <PUBCHEM_SHAPE_VOLUME>  (1) 
281.9

>  <PUBCHEM_COORDINATE_TYPE>  (1) 
2
5
10

$$$$
