44078
     RDKit          3D

 17 19  0  0  1  0  0  0  0  0999 V2000
    0.6529    2.3129    0.2325 O   0  0  0  0  0  0  0  0  0  0  0  0
   -2.8865    0.0482   -0.3281 N   0  0  0  0  0  0  0  0  0  0  0  0
   -0.4832    0.1817    0.1734 C   0  0  0  0  0  0  0  0  0  0  0  0
   -1.7168    0.9138   -0.3508 C   0  0  0  0  0  0  0  0  0  0  0  0
   -4.0919    0.7260   -0.8041 C   0  0  0  0  0  0  0  0  0  0  0  0
   -3.2163   -0.4097    1.0214 C   0  0  0  0  0  0  0  0  0  0  0  0
   -0.2305   -1.0837   -0.6450 C   0  0  0  0  0  0  0  0  0  0  0  0
   -5.2081   -0.1965   -0.3369 C   0  0  0  0  0  0  0  0  0  0  0  0
   -4.6337   -0.9403    0.8649 C   0  0  0  0  0  0  0  0  0  0  0  0
    0.9847   -1.8318   -0.1104 C   0  0  0  0  0  0  0  0  0  0  0  0
    0.7408    1.0912    0.1442 C   0  0  0  0  0  0  0  0  0  0  0  0
    2.1958   -0.9416   -0.0538 C   0  0  0  0  0  0  0  0  0  0  0  0
    2.0815    0.4511    0.0727 C   0  0  0  0  0  0  0  0  0  0  0  0
    3.4740   -1.5177   -0.0860 C   0  0  0  0  0  0  0  0  0  0  0  0
    3.2289    1.2516    0.1368 C   0  0  0  0  0  0  0  0  0  0  0  0
    4.6158   -0.7190   -0.0195 C   0  0  0  0  0  0  0  0  0  0  0  0
    4.4928    0.6639    0.0886 C   0  0  0  0  0  0  0  0  0  0  0  0
  1 11  2  0
  2  4  1  0
  2  5  1  0
  2  6  1  0
  3  4  1  0
  3  7  1  0
  3 11  1  0
  5  8  1  0
  6  9  1  0
  7 10  1  0
  8  9  1  0
 10 12  1  0
 11 13  1  0
 12 13  2  0
 12 14  1  0
 13 15  1  0
 14 16  2  0
 15 17  2  0
 16 17  1  0
M  END
>  <PUBCHEM_COMPOUND_CID>  (1) 
44078

>  <PUBCHEM_CONFORMER_RMSD>  (1) 
0.6

>  <PUBCHEM_CONFORMER_DIVERSEORDER>  (1) 
1
4
3
5
2

>  <PUBCHEM_MMFF94_PARTIAL_CHARGES>  (1) 
18
1 -0.57
10 0.14
11 0.42
12 -0.14
13 0.09
14 -0.15
15 -0.15
16 -0.15
17 -0.15
2 -0.81
3 0.06
33 0.15
34 0.15
35 0.15
36 0.15
4 0.27
5 0.27
6 0.27

>  <PUBCHEM_EFFECTIVE_ROTOR_COUNT>  (1) 
3.6

>  <PUBCHEM_PHARMACOPHORE_FEATURES>  (1) 
5
1 1 acceptor
1 2 cation
5 2 5 6 8 9 rings
6 12 13 14 15 16 17 rings
6 3 7 10 11 12 13 rings

>  <PUBCHEM_HEAVY_ATOM_COUNT>  (1) 
17

>  <PUBCHEM_ATOM_DEF_STEREO_COUNT>  (1) 
0

>  <PUBCHEM_ATOM_UDEF_STEREO_COUNT>  (1) 
1

>  <PUBCHEM_BOND_DEF_STEREO_COUNT>  (1) 
0

>  <PUBCHEM_BOND_UDEF_STEREO_COUNT>  (1) 
0

>  <PUBCHEM_ISOTOPIC_ATOM_COUNT>  (1) 
0

>  <PUBCHEM_COMPONENT_COUNT>  (1) 
1

>  <PUBCHEM_CACTVS_TAUTO_COUNT>  (1) 
2

>  <PUBCHEM_CONFORMER_ID>  (1) 
0000AC2E00000001

>  <PUBCHEM_MMFF94_ENERGY>  (1) 
33.7756

>  <PUBCHEM_FEATURE_SELFOVERLAP>  (1) 
25.393

>  <PUBCHEM_SHAPE_FINGERPRINT>  (1) 
11287383 113 17749392593574001084
11471102 20 18412260640636867748
11615757 297 18131351908151223723
11796584 16 16950561047665646730
11806522 49 18411418414582272277
12032990 46 18410578349117811750
12236239 1 17346598577949598181
13140716 1 18124305271505175176
13675066 3 18408882962064226156
13760787 5 18273493476828500613
13862211 1 18341326721739519166
14251717 144 18413951680651007710
14252887 29 17988932136882741598
14386348 63 18187086156979566683
15196674 1 18411699842114077477
15219456 202 18334294266911243287
15375358 24 18187364324747102339
15961568 22 16588592031956663236
16945 1 18342453704447215974
17834072 33 18059851800868420591
18785283 64 18045783643933282980
200 152 18202559575711855449
20261772 1 18201717374894606415
20279233 1 18186243922451146115
20645477 70 18341046324451401470
21267235 1 18341057337338261934
21682296 61 18128825127473536910
221490 88 18263931114675815643
22854114 59 18411982468247427595
23402539 116 17917705786251256341
23402655 69 18342732988579233717
23557571 272 17386001724361606669
23559900 14 17894912889112678346
26918003 58 18333448733499812499
2871803 45 18334574599041635306
33824 294 18409446973376002458
4214541 1 18335701607540910597
465052 167 18410862074415182159
474 4 17130124636855682288
5104073 3 18338796710818112537
537710 114 18413111671385229348
542803 24 13623529043722982183
602551 16 16733272351370006891
69090 78 18272366494637625454

>  <PUBCHEM_SHAPE_MULTIPOLES>  (1) 
339
10.33
1.69
0.81
5.74
0.14
-0.05
-1.15
-0.29
-1.03
-0.02
0.62
-0.06
0.6

>  <PUBCHEM_SHAPE_SELFOVERLAP>  (1) 
724.712

>  <PUBCHEM_SHAPE_VOLUME>  (1) 
188.7

>  <PUBCHEM_COORDINATE_TYPE>  (1) 
2
5
10

$$$$
