44080
     RDKit          3D

 14 14  0  0  0  0  0  0  0  0999 V2000
    5.3328    0.7348    0.0161 F   0  0  0  0  0  0  0  0  0  0  0  0
    0.6409   -0.2226   -0.0021 O   0  0  0  0  0  0  0  0  0  0  0  0
   -0.3572   -2.2970   -0.0012 O   0  0  0  0  0  0  0  0  0  0  0  0
    2.7765    1.4215   -0.0158 O   0  0  0  0  0  0  0  0  0  0  0  0
   -1.6917   -0.3211    0.0008 C   0  0  0  0  0  0  0  0  0  0  0  0
    1.9351   -0.8348   -0.0048 C   0  0  0  0  0  0  0  0  0  0  0  0
   -2.9071   -1.0055    0.0013 C   0  0  0  0  0  0  0  0  0  0  0  0
   -1.6768    1.0736    0.0011 C   0  0  0  0  0  0  0  0  0  0  0  0
   -0.4401   -1.0615   -0.0004 C   0  0  0  0  0  0  0  0  0  0  0  0
    3.0241    0.2168   -0.0062 C   0  0  0  0  0  0  0  0  0  0  0  0
   -4.1076   -0.2953    0.0021 C   0  0  0  0  0  0  0  0  0  0  0  0
   -2.8772    1.7839    0.0021 C   0  0  0  0  0  0  0  0  0  0  0  0
   -4.0926    1.0994    0.0026 C   0  0  0  0  0  0  0  0  0  0  0  0
    4.4409   -0.2922    0.0043 C   0  0  0  0  0  0  0  0  0  0  0  0
  1 14  1  0
  2  6  1  0
  2  9  1  0
  3  9  2  0
  4 10  2  0
  5  7  2  0
  5  8  1  0
  5  9  1  0
  6 10  1  0
  7 11  1  0
  8 12  2  0
 10 14  1  0
 11 13  2  0
 12 13  1  0
M  END
>  <PUBCHEM_COMPOUND_CID>  (1) 
44080

>  <PUBCHEM_CONFORMER_RMSD>  (1) 
0.6

>  <PUBCHEM_CONFORMER_DIVERSEORDER>  (1) 
1
98
50
137
151
160
91
62
154
123
78
163
129
74
84
110
83
113
153
148
170
65
168
20
142
72
165
4
103
158
155
51
85
127
147
152
76
53
63
132
79
174
49
135
33
99
32
150
17
176
121
55
81
173
128
5
166
139
161
7
96
131
2
162
159
38
36
149
171
87
86
44
175
108
117
134
9
157
12
46
141
60
164
67
26
112
71
167
116
30
120
41
8
177
140
104
48
29
115
122
42
82
172
52
93
133
54
145
100
69
24
73
18
146
126
21
25
109
66
39
14
61
125
97
136
68
75
80
106
89
27
143
111
95
114
138
6
169
34
156
58
19
130
43
40
35
22
94
105
88
102
3
28
47
16
45
23
107
11
56
64
90
31
77
15
59
92
70
124
119
144
10
57
101
13
118
37

>  <PUBCHEM_MMFF94_PARTIAL_CHARGES>  (1) 
19
1 -0.34
10 0.45
11 -0.15
12 -0.15
13 -0.15
14 0.4
17 0.15
18 0.15
19 0.15
2 -0.43
20 0.15
21 0.15
3 -0.57
4 -0.57
5 0.09
6 0.34
7 -0.15
8 -0.15
9 0.63

>  <PUBCHEM_EFFECTIVE_ROTOR_COUNT>  (1) 
5

>  <PUBCHEM_PHARMACOPHORE_FEATURES>  (1) 
3
1 3 acceptor
1 4 acceptor
6 5 7 8 11 12 13 rings

>  <PUBCHEM_HEAVY_ATOM_COUNT>  (1) 
14

>  <PUBCHEM_ATOM_DEF_STEREO_COUNT>  (1) 
0

>  <PUBCHEM_ATOM_UDEF_STEREO_COUNT>  (1) 
0

>  <PUBCHEM_BOND_DEF_STEREO_COUNT>  (1) 
0

>  <PUBCHEM_BOND_UDEF_STEREO_COUNT>  (1) 
0

>  <PUBCHEM_ISOTOPIC_ATOM_COUNT>  (1) 
0

>  <PUBCHEM_COMPONENT_COUNT>  (1) 
1

>  <PUBCHEM_CACTVS_TAUTO_COUNT>  (1) 
3

>  <PUBCHEM_CONFORMER_ID>  (1) 
0000AC3000000001

>  <PUBCHEM_MMFF94_ENERGY>  (1) 
27.9093

>  <PUBCHEM_FEATURE_SELFOVERLAP>  (1) 
15.223

>  <PUBCHEM_SHAPE_FINGERPRINT>  (1) 
10608611 8 18412261731236963417
11132069 177 18334016064594273261
12346645 44 18336827494309546315
12815109 37 9295288335264367240
13081056 2 18342458153400494304
13214271 11 18408042910144037623
13897977 58 18408888438395480877
14325111 11 18410856529770333735
15196674 1 18410856521000934148
15501527 16 18412829092195728896
15536298 74 18269838627369362686
15775835 57 18334013860991103272
17802600 8 18411133653876861612
18186145 218 18130799905716148302
18522853 276 18413107264516727096
200 152 17489867137481745639
20300324 65 18130784573115288397
20645477 56 18341049700748960696
20645477 70 17060071307087493646
21524375 3 18409449171908588967
22485316 2 9583520906081037772
23402539 116 18343012307081350806
23402655 69 18130505253853600660
23557571 272 18059862800195360623
23559900 14 18201721726556255166
351380 180 18412542115376357484
3545911 37 18412547591559750214
366044 4 18409729564590555339
5104073 3 18409166571697680154
6430166 295 18409727348761548152
69090 78 18272367594138697278
7364860 26 18124033429718453751
77779 3 18410294700929918758

>  <PUBCHEM_SHAPE_MULTIPOLES>  (1) 
263.23
9.39
1.7
0.59
8.4
0.15
0
-2.95
-0.03
-0.73
0
-0.07
0
0

>  <PUBCHEM_SHAPE_SELFOVERLAP>  (1) 
542.582

>  <PUBCHEM_SHAPE_VOLUME>  (1) 
150.3

>  <PUBCHEM_COORDINATE_TYPE>  (1) 
2
5
10

$$$$
