44090
     RDKit          3D

 12 12  0  0  1  0  0  0  0  0999 V2000
    4.3331   -0.1578    0.4450 Cl  0  0  0  0  0  0  0  0  0  0  0  0
   -3.1141   -1.6086    0.0574 O   0  0  0  0  0  0  0  0  0  0  0  0
   -2.8069    1.7326    1.1011 N   0  0  0  0  0  0  0  0  0  0  0  0
   -0.0993    0.0833   -0.3567 C   0  0  0  0  0  0  0  0  0  0  0  0
   -1.5648    0.1616   -0.6230 C   0  0  0  0  0  0  0  0  0  0  0  0
    0.7692    0.9919   -0.9613 C   0  0  0  0  0  0  0  0  0  0  0  0
    0.4027   -0.8997    0.4963 C   0  0  0  0  0  0  0  0  0  0  0  0
    2.1398    0.9175   -0.7131 C   0  0  0  0  0  0  0  0  0  0  0  0
    1.7733   -0.9738    0.7446 C   0  0  0  0  0  0  0  0  0  0  0  0
    2.6418   -0.0653    0.1399 C   0  0  0  0  0  0  0  0  0  0  0  0
   -2.2053   -1.2215   -0.6709 C   0  0  0  0  0  0  0  0  0  0  0  0
   -2.2694    1.0398    0.3408 C   0  0  0  0  0  0  0  0  0  0  0  0
  1 10  1  0
  2 11  2  0
  3 12  3  0
  4  5  1  0
  4  6  2  0
  4  7  1  0
  5 11  1  0
  5 12  1  0
  6  8  1  0
  7  9  2  0
  8 10  2  0
  9 10  1  0
M  END
>  <PUBCHEM_COMPOUND_CID>  (1) 
44090

>  <PUBCHEM_CONFORMER_RMSD>  (1) 
0.6

>  <PUBCHEM_CONFORMER_DIVERSEORDER>  (1) 
1
4
5
3
2
6

>  <PUBCHEM_MMFF94_PARTIAL_CHARGES>  (1) 
17
1 -0.18
10 0.18
11 0.45
12 0.36
14 0.15
15 0.15
16 0.15
17 0.15
18 0.06
2 -0.57
3 -0.56
4 -0.14
5 0.4
6 -0.15
7 -0.15
8 -0.15
9 -0.15

>  <PUBCHEM_EFFECTIVE_ROTOR_COUNT>  (1) 
2

>  <PUBCHEM_PHARMACOPHORE_FEATURES>  (1) 
3
1 2 acceptor
1 3 acceptor
6 4 6 7 8 9 10 rings

>  <PUBCHEM_HEAVY_ATOM_COUNT>  (1) 
12

>  <PUBCHEM_ATOM_DEF_STEREO_COUNT>  (1) 
0

>  <PUBCHEM_ATOM_UDEF_STEREO_COUNT>  (1) 
1

>  <PUBCHEM_BOND_DEF_STEREO_COUNT>  (1) 
0

>  <PUBCHEM_BOND_UDEF_STEREO_COUNT>  (1) 
0

>  <PUBCHEM_ISOTOPIC_ATOM_COUNT>  (1) 
0

>  <PUBCHEM_COMPONENT_COUNT>  (1) 
1

>  <PUBCHEM_CACTVS_TAUTO_COUNT>  (1) 
2

>  <PUBCHEM_CONFORMER_ID>  (1) 
0000AC3A00000001

>  <PUBCHEM_MMFF94_ENERGY>  (1) 
23.3269

>  <PUBCHEM_FEATURE_SELFOVERLAP>  (1) 
15.223

>  <PUBCHEM_SHAPE_FINGERPRINT>  (1) 
11132069 177 18260820467637299732
12251169 10 18336550430153491801
124424 183 16486686962073756290
12932764 1 17895192164860086804
13760787 5 17240485793364393470
13764800 53 17417543427618408625
14325111 11 18261388975151782196
15219456 202 17060066908391862766
15775835 57 18340491066773864177
16945 1 18189330182680880668
19026448 4 17489587857750235998
19422 9 18408888442890856438
200 152 18336816598130601311
21061003 4 16081380626092725717
22445834 79 18333731282318684363
23402539 116 17845921984100247245
23419403 2 15599977357374246694
2748010 2 17394720675528854492
3248919 1 18271517624384394894
5084963 1 18041552645689499716

>  <PUBCHEM_SHAPE_MULTIPOLES>  (1) 
237.97
5.88
1.5
0.99
2.62
0.03
-0.04
0.35
-1.11
-1.1
-0.13
-0.23
-0.21
-0.94

>  <PUBCHEM_SHAPE_SELFOVERLAP>  (1) 
485.631

>  <PUBCHEM_SHAPE_VOLUME>  (1) 
136.7

>  <PUBCHEM_COORDINATE_TYPE>  (1) 
2
5
10

$$$$
