44093
     RDKit          3D

 14 14  0  0  1  0  0  0  0  0999 V2000
   -3.5125    0.2892    1.7967 S   0  0  0  0  0  0  0  0  0  0  0  0
   -0.9991    1.5602    0.2378 O   0  0  0  0  0  0  0  0  0  0  0  0
    2.8324    1.9486    0.3425 O   0  0  0  0  0  0  0  0  0  0  0  0
    2.0858    0.7789   -1.4659 O   0  0  0  0  0  0  0  0  0  0  0  0
    0.2193   -0.4047    0.1328 N   0  0  0  0  0  0  0  0  0  0  0  0
    1.4263    0.1139    0.7629 C   0  0  0  0  0  0  0  0  0  0  0  0
    2.2349   -1.1252    1.1294 C   0  0  0  0  0  0  0  0  0  0  0  0
    1.8157   -2.1470    0.0754 C   0  0  0  0  0  0  0  0  0  0  0  0
    0.3450   -1.8319   -0.1516 C   0  0  0  0  0  0  0  0  0  0  0  0
   -0.9306    0.3558   -0.0124 C   0  0  0  0  0  0  0  0  0  0  0  0
   -2.1401   -0.3862   -0.5226 C   0  0  0  0  0  0  0  0  0  0  0  0
    2.1306    0.9563   -0.2577 C   0  0  0  0  0  0  0  0  0  0  0  0
   -3.4278    0.2636   -0.0218 C   0  0  0  0  0  0  0  0  0  0  0  0
   -2.0798   -0.3717   -2.0455 C   0  0  0  0  0  0  0  0  0  0  0  0
  1 13  1  0
  2 10  2  0
  3 12  1  0
  4 12  2  0
  5  6  1  0
  5  9  1  0
  5 10  1  0
  6  7  1  0
  6 12  1  0
  7  8  1  0
  8  9  1  0
 10 11  1  0
 11 13  1  0
 11 14  1  0
M  END
>  <PUBCHEM_COMPOUND_CID>  (1) 
44093

>  <PUBCHEM_CONFORMER_RMSD>  (1) 
0.6

>  <PUBCHEM_CONFORMER_DIVERSEORDER>  (1) 
1
33
30
5
21
32
17
24
18
10
29
23
12
15
31
26
19
6
11
22
27
13
8
3
25
28
4
20
14
9
16
2
7

>  <PUBCHEM_MMFF94_PARTIAL_CHARGES>  (1) 
13
1 -0.41
10 0.57
11 0.06
12 0.66
13 0.23
2 -0.57
28 0.5
29 0.18
3 -0.65
4 -0.57
5 -0.66
6 0.36
9 0.3

>  <PUBCHEM_EFFECTIVE_ROTOR_COUNT>  (1) 
5

>  <PUBCHEM_PHARMACOPHORE_FEATURES>  (1) 
6
1 14 hydrophobe
1 2 acceptor
1 3 acceptor
1 4 acceptor
3 3 4 12 anion
5 5 6 7 8 9 rings

>  <PUBCHEM_HEAVY_ATOM_COUNT>  (1) 
14

>  <PUBCHEM_ATOM_DEF_STEREO_COUNT>  (1) 
2

>  <PUBCHEM_ATOM_UDEF_STEREO_COUNT>  (1) 
0

>  <PUBCHEM_BOND_DEF_STEREO_COUNT>  (1) 
0

>  <PUBCHEM_BOND_UDEF_STEREO_COUNT>  (1) 
0

>  <PUBCHEM_ISOTOPIC_ATOM_COUNT>  (1) 
0

>  <PUBCHEM_COMPONENT_COUNT>  (1) 
1

>  <PUBCHEM_CACTVS_TAUTO_COUNT>  (1) 
1

>  <PUBCHEM_CONFORMER_ID>  (1) 
0000AC3D00000001

>  <PUBCHEM_MMFF94_ENERGY>  (1) 
29.9779

>  <PUBCHEM_FEATURE_SELFOVERLAP>  (1) 
30.502

>  <PUBCHEM_SHAPE_FINGERPRINT>  (1) 
107287 299 18113914774346633731
12326174 3 17895462627688525602
12423570 1 14817047507024972134
12696612 119 18267583503002804098
12932764 1 18202279195609160801
13296908 3 17312830355468000587
14817 1 17544216216386714582
15219456 202 17676488337086060179
15775835 57 18201997746090894209
16945 1 18337938000990452426
17357990 137 17632022952913612243
18186145 218 18342744065099696228
18380122 1 17313387859160271191
19422 9 17989209243972748559
20511035 2 17480580447646673033
20559304 39 18342176605240391848
20645477 70 18261947462850818007
20653091 64 17896043144068509674
20715346 28 17385714781870370095
21041028 32 18123759655781050784
21061003 4 17972038041816714523
21524375 3 17752766003012564468
21730867 7 17749115486536741483
23402539 116 18059006306723917076
23526113 38 13542203674532688021
23552423 10 18339630136442591151
23557571 272 16298385764758236933
2748010 2 18042393656073366644
276578 36 18340217361476991714
53748568 43 18131349739076662343
6049 1 17458627753168493775
7364860 26 18341892961721960370
77492 1 17917423220748393723
81228 2 17251745058378063170
88987 49 16415468346873549967

>  <PUBCHEM_SHAPE_MULTIPOLES>  (1) 
269.37
5.22
1.79
1.5
2.94
0.2
-0.25
-0.93
1.24
-1.65
0.06
1.03
0.06
-0.69

>  <PUBCHEM_SHAPE_SELFOVERLAP>  (1) 
531.529

>  <PUBCHEM_SHAPE_VOLUME>  (1) 
163.7

>  <PUBCHEM_COORDINATE_TYPE>  (1) 
2
5
10

$$$$
