44105
     RDKit          3D

 11 10  0  0  0  0  0  0  0  0999 V2000
    1.6176   -0.2342   -0.0387 O   0  0  0  0  0  0  0  0  0  0  0  0
   -1.9833    1.8184   -0.9380 O   0  0  0  0  0  0  0  0  0  0  0  0
    0.4881    1.5944    0.7494 O   0  0  0  0  0  0  0  0  0  0  0  0
   -1.5732   -2.4206   -0.1278 O   0  0  0  0  0  0  0  0  0  0  0  0
   -0.6501   -0.3863    0.3399 N   0  0  0  0  0  0  0  0  0  0  0  0
   -0.5092   -1.7919   -0.1297 N   0  0  0  0  0  0  0  0  0  0  0  0
   -1.9607    0.1026    0.7394 C   0  0  0  0  0  0  0  0  0  0  0  0
   -2.7117    0.7069   -0.4330 C   0  0  0  0  0  0  0  0  0  0  0  0
    0.4872    0.4212    0.3806 C   0  0  0  0  0  0  0  0  0  0  0  0
    2.8288    0.5303   -0.0268 C   0  0  0  0  0  0  0  0  0  0  0  0
    3.9665   -0.3408   -0.5152 C   0  0  0  0  0  0  0  0  0  0  0  0
  1  9  1  0
  1 10  1  0
  2  8  1  0
  3  9  2  0
  4  6  2  0
  5  6  1  0
  5  7  1  0
  5  9  1  0
  7  8  1  0
 10 11  1  0
M  END
>  <PUBCHEM_COMPOUND_CID>  (1) 
44105

>  <PUBCHEM_CONFORMER_RMSD>  (1) 
0.6

>  <PUBCHEM_CONFORMER_DIVERSEORDER>  (1) 
1
120
176
132
80
106
165
123
180
91
147
93
26
150
116
59
157
43
172
65
137
130
92
68
129
94
98
139
54
166
205
154
167
71
42
100
126
38
187
114
203
30
135
182
136
85
127
124
32
15
36
27
156
47
25
22
192
16
177
58
7
97
134
41
39
152
161
105
109
29
113
62
89
162
34
138
21
160
33
198
207
9
208
77
61
60
48
163
50
143
159
82
64
90
141
188
146
6
199
76
164
131
197
151
95
102
44
191
84
173
20
200
13
119
112
117
189
11
23
175
184
115
40
86
178
31
83
74
57
193
8
148
122
49
55
170
75
63
125
73
52
185
37
87
99
128
12
53
70
121
56
72
108
190
88
140
2
101
204
18
4
196
110
96
179
144
133
35
66
79
155
81
24
153
28
142
45
103
104
3
111
169
19
69
17
171
158
201
46
5
67
174
186
202
145
195
51
181
168
10
194
78
118
14
206
149
107
183

>  <PUBCHEM_MMFF94_PARTIAL_CHARGES>  (1) 
11
1 -0.43
10 0.28
2 -0.68
21 0.4
3 -0.57
4 -0.16
5 -0.18
6 -0.02
7 0.3
8 0.28
9 0.78

>  <PUBCHEM_EFFECTIVE_ROTOR_COUNT>  (1) 
6

>  <PUBCHEM_PHARMACOPHORE_FEATURES>  (1) 
3
1 2 acceptor
1 2 donor
1 3 acceptor

>  <PUBCHEM_HEAVY_ATOM_COUNT>  (1) 
11

>  <PUBCHEM_ATOM_DEF_STEREO_COUNT>  (1) 
0

>  <PUBCHEM_ATOM_UDEF_STEREO_COUNT>  (1) 
0

>  <PUBCHEM_BOND_DEF_STEREO_COUNT>  (1) 
0

>  <PUBCHEM_BOND_UDEF_STEREO_COUNT>  (1) 
0

>  <PUBCHEM_ISOTOPIC_ATOM_COUNT>  (1) 
0

>  <PUBCHEM_COMPONENT_COUNT>  (1) 
1

>  <PUBCHEM_CACTVS_TAUTO_COUNT>  (1) 
1

>  <PUBCHEM_CONFORMER_ID>  (1) 
0000AC4900000001

>  <PUBCHEM_MMFF94_ENERGY>  (1) 
12.2834

>  <PUBCHEM_FEATURE_SELFOVERLAP>  (1) 
15.224

>  <PUBCHEM_SHAPE_FINGERPRINT>  (1) 
12138202 97 18410855447385938454
12716758 59 18411696599687880954
12932741 1 17988920123964625312
12932764 1 18261395576627351016
15310529 11 17531248339893244760
20201158 50 18059862735987044518
20653085 51 17749403541699060660
20711985 344 18191853725107344155
21040471 1 18337940221451244577
21293036 1 18342173353923898237
22959321 105 18338520850075800492
23552423 10 18191306194159959146
23559900 14 18272652330081911490
2748010 2 18126560356509671832
3248919 1 17561093509767408976

>  <PUBCHEM_SHAPE_MULTIPOLES>  (1) 
192.94
5.07
1.84
0.8
4.68
0.88
0.01
-0.48
1.15
-1.28
0.21
-0.2
-0.21
0.41

>  <PUBCHEM_SHAPE_SELFOVERLAP>  (1) 
357.113

>  <PUBCHEM_SHAPE_VOLUME>  (1) 
120.8

>  <PUBCHEM_COORDINATE_TYPE>  (1) 
2
5
10

$$$$
