44117
     RDKit          3D

 15 15  0  0  1  0  0  0  0  0999 V2000
    1.2665   -2.8293    0.1108 Br  0  0  0  0  0  0  0  0  0  0  0  0
    4.3572   -1.4325   -0.8867 Br  0  0  0  0  0  0  0  0  0  0  0  0
    4.3197    2.1477   -0.5959 Br  0  0  0  0  0  0  0  0  0  0  0  0
    1.3827    1.5659    0.4117 S   0  0  0  0  0  0  0  0  0  0  0  0
   -0.9108    0.8291    1.9763 O   0  0  0  0  0  0  0  0  0  0  0  0
   -3.0226   -0.2531    0.3460 N   0  0  0  0  0  0  0  0  0  0  0  0
   -1.6635   -0.0869   -0.1451 C   0  0  0  0  0  0  0  0  0  0  0  0
   -0.6526   -0.1833    1.0042 C   0  0  0  0  0  0  0  0  0  0  0  0
   -3.9848   -0.1586   -0.7510 C   0  0  0  0  0  0  0  0  0  0  0  0
    0.7668   -0.0126    0.5093 C   0  0  0  0  0  0  0  0  0  0  0  0
   -3.8735    1.2003   -1.4366 C   0  0  0  0  0  0  0  0  0  0  0  0
   -5.3933   -0.3867   -0.2120 C   0  0  0  0  0  0  0  0  0  0  0  0
    1.6434   -0.9731    0.1202 C   0  0  0  0  0  0  0  0  0  0  0  0
    2.8850   -0.4000   -0.2801 C   0  0  0  0  0  0  0  0  0  0  0  0
    2.8798    0.9732   -0.1712 C   0  0  0  0  0  0  0  0  0  0  0  0
  1 13  1  0
  2 14  1  0
  3 15  1  0
  4 10  1  0
  4 15  1  0
  5  8  1  0
  6  7  1  0
  6  9  1  0
  7  8  1  0
  8 10  1  0
  9 11  1  0
  9 12  1  0
 10 13  2  0
 13 14  1  0
 14 15  2  0
M  END
>  <PUBCHEM_COMPOUND_CID>  (1) 
44117

>  <PUBCHEM_CONFORMER_RMSD>  (1) 
0.6

>  <PUBCHEM_CONFORMER_DIVERSEORDER>  (1) 
1
45
23
48
18
25
50
31
44
12
16
46
17
14
38
22
32
39
20
33
35
4
7
37
34
6
11
47
43
42
9
36
15
5
41
3
2
40
19
30
49
13
8
28
24
21
29
27
10
26

>  <PUBCHEM_MMFF94_PARTIAL_CHARGES>  (1) 
15
1 -0.06
10 -0.14
13 0.06
14 0.06
15 0.1
2 -0.06
20 0.36
27 0.4
3 -0.06
4 -0.08
5 -0.68
6 -0.9
7 0.27
8 0.46
9 0.27

>  <PUBCHEM_EFFECTIVE_ROTOR_COUNT>  (1) 
4

>  <PUBCHEM_PHARMACOPHORE_FEATURES>  (1) 
9
1 1 hydrophobe
1 2 hydrophobe
1 3 hydrophobe
1 5 acceptor
1 5 donor
1 6 cation
1 6 donor
3 9 11 12 hydrophobe
5 4 10 13 14 15 rings

>  <PUBCHEM_HEAVY_ATOM_COUNT>  (1) 
15

>  <PUBCHEM_ATOM_DEF_STEREO_COUNT>  (1) 
0

>  <PUBCHEM_ATOM_UDEF_STEREO_COUNT>  (1) 
1

>  <PUBCHEM_BOND_DEF_STEREO_COUNT>  (1) 
0

>  <PUBCHEM_BOND_UDEF_STEREO_COUNT>  (1) 
0

>  <PUBCHEM_ISOTOPIC_ATOM_COUNT>  (1) 
0

>  <PUBCHEM_COMPONENT_COUNT>  (1) 
1

>  <PUBCHEM_CACTVS_TAUTO_COUNT>  (1) 
1

>  <PUBCHEM_CONFORMER_ID>  (1) 
0000AC5500000001

>  <PUBCHEM_MMFF94_ENERGY>  (1) 
12.0516

>  <PUBCHEM_FEATURE_SELFOVERLAP>  (1) 
45.674

>  <PUBCHEM_SHAPE_FINGERPRINT>  (1) 
10498660 4 17168971315057955397
11287383 113 18187646946453557835
11471102 20 18411138047786310188
11806522 49 17988925527191992346
12616999 72 18411414025073123651
12730499 353 18187370926206944435
12916748 109 17313103068553561333
13760787 5 18202294601382317795
14251717 144 18413108351259399998
14252887 29 11024108742033609326
14415576 193 18260265248139760356
16752209 62 16916780713792601921
16945 1 18263945254172234906
18186145 218 18407760322295913827
19784866 140 17989491796965079919
200 152 18060419079768970554
20600515 1 15410599407088203867
20645477 56 17968379064666612569
20645477 70 18342179951273389382
20671657 53 18201159858185434668
221357 26 18408879616854791997
23402539 116 17703794656811785010
23402655 69 18413387648529481653
23557571 272 16806189716646592259
23559900 14 18058732537292822224
23598291 2 17916320363003737688
2748010 2 18121807125442236042
3060560 45 18409164411624847054
4047638 21 17676204688787468824
5281201 14 18334857203737410445
57096353 35 17846506949649968904
603831 33 17846780702074858969
633830 44 18057631835267820192
81539 233 18334010609975355118

>  <PUBCHEM_SHAPE_MULTIPOLES>  (1) 
319.52
9.81
2.32
1.19
9.18
0.78
0.19
-1.65
-4.19
-2.98
-0.25
0.5
-0.26
0.45

>  <PUBCHEM_SHAPE_SELFOVERLAP>  (1) 
586.591

>  <PUBCHEM_SHAPE_VOLUME>  (1) 
208.3

>  <PUBCHEM_COORDINATE_TYPE>  (1) 
2
5
10

$$$$
