44112
     RDKit          3D

 28 30  0  0  1  0  0  0  0  0999 V2000
    1.1532   -1.8587   -0.3064 O   0  0  0  0  0  0  0  0  0  0  0  0
    0.7256    0.8875   -0.3646 O   0  0  0  0  0  0  0  0  0  0  0  0
    0.2986   -2.4254   -2.3673 O   0  0  0  0  0  0  0  0  0  0  0  0
    4.1919    0.2559   -0.2363 N   0  0  0  0  0  0  0  0  0  0  0  0
   -3.5127    2.4116    0.7979 N   0  0  0  0  0  0  0  0  0  0  0  0
    5.1444    0.5539    0.8247 C   0  0  0  0  0  0  0  0  0  0  0  0
    3.1629   -0.6631    0.2306 C   0  0  0  0  0  0  0  0  0  0  0  0
    2.1410   -0.9859   -0.8622 C   0  0  0  0  0  0  0  0  0  0  0  0
    5.8201   -0.7445    1.2811 C   0  0  0  0  0  0  0  0  0  0  0  0
    4.3881    1.1932    1.9940 C   0  0  0  0  0  0  0  0  0  0  0  0
    6.1928    1.5298    0.2801 C   0  0  0  0  0  0  0  0  0  0  0  0
    1.4392    0.2511   -1.4185 C   0  0  0  0  0  0  0  0  0  0  0  0
   -1.4881    1.7140    0.1726 C   0  0  0  0  0  0  0  0  0  0  0  0
   -0.4012    1.5827   -0.7144 C   0  0  0  0  0  0  0  0  0  0  0  0
   -2.6098    2.4356   -0.2410 C   0  0  0  0  0  0  0  0  0  0  0  0
   -1.7496    1.2572    1.4948 C   0  0  0  0  0  0  0  0  0  0  0  0
   -3.0019    1.7019    1.8513 C   0  0  0  0  0  0  0  0  0  0  0  0
   -0.4768    2.1765   -1.9796 C   0  0  0  0  0  0  0  0  0  0  0  0
   -2.6995    3.0347   -1.5025 C   0  0  0  0  0  0  0  0  0  0  0  0
    0.1821   -2.2700   -1.1616 C   0  0  0  0  0  0  0  0  0  0  0  0
   -1.6093    2.8908   -2.3655 C   0  0  0  0  0  0  0  0  0  0  0  0
   -3.7685    1.5233    3.0980 C   0  0  0  0  0  0  0  0  0  0  0  0
   -1.0850   -2.5154   -0.4276 C   0  0  0  0  0  0  0  0  0  0  0  0
   -2.2836   -2.3237   -1.0838 C   0  0  0  0  0  0  0  0  0  0  0  0
   -1.0247   -2.9278    0.8878 C   0  0  0  0  0  0  0  0  0  0  0  0
   -3.4741   -2.5545   -0.3945 C   0  0  0  0  0  0  0  0  0  0  0  0
   -2.2152   -3.1587    1.5771 C   0  0  0  0  0  0  0  0  0  0  0  0
   -3.4398   -2.9719    0.9359 C   0  0  0  0  0  0  0  0  0  0  0  0
  1  8  1  0
  1 20  1  0
  2 12  1  0
  2 14  1  0
  3 20  2  0
  4  6  1  0
  4  7  1  0
  5 15  1  0
  5 17  1  0
  6  9  1  0
  6 10  1  0
  6 11  1  0
  7  8  1  0
  8 12  1  0
 13 14  1  0
 13 15  2  0
 13 16  1  0
 14 18  2  0
 15 19  1  0
 16 17  2  0
 17 22  1  0
 18 21  1  0
 19 21  2  0
 20 23  1  0
 23 24  2  0
 23 25  1  0
 24 26  1  0
 25 27  2  0
 26 28  2  0
 27 28  1  0
M  END
>  <PUBCHEM_COMPOUND_CID>  (1) 
44112

>  <PUBCHEM_CONFORMER_RMSD>  (1) 
1.2

>  <PUBCHEM_CONFORMER_DIVERSEORDER>  (1) 
1
144
122
146
45
34
117
118
56
147
16
91
80
138
108
134
70
62
106
7
9
113
51
72
67
31
40
90
121
116
76
133
99
127
53
92
50
25
93
126
39
69
24
112
52
139
28
119
4
95
98
26
44
65
73
136
128
3
110
102
148
17
114
60
37
32
33
78
10
82
86
54
132
109
83
47
55
18
123
105
13
89
42
77
29
124
141
59
14
48
125
143
100
81
88
41
12
23
30
142
43
87
68
131
79
57
94
115
20
71
96
74
84
140
27
101
61
66
137
107
103
135
130
15
46
11
85
8
5
38
120
58
63
49
129
2
75
111
21
104
22
145
64
6
35
97
19
36

>  <PUBCHEM_MMFF94_PARTIAL_CHARGES>  (1) 
35
1 -0.43
12 0.28
14 0.08
15 -0.15
16 -0.15
17 -0.33
18 -0.15
19 -0.15
2 -0.36
20 0.63
21 -0.15
22 0.18
23 0.09
24 -0.15
25 -0.15
26 -0.15
27 -0.15
28 -0.15
3 -0.57
31 0.36
4 -0.9
44 0.15
45 0.27
46 0.15
47 0.15
48 0.15
5 0.03
52 0.15
53 0.15
54 0.15
55 0.15
56 0.15
6 0.27
7 0.27
8 0.28

>  <PUBCHEM_EFFECTIVE_ROTOR_COUNT>  (1) 
9

>  <PUBCHEM_PHARMACOPHORE_FEATURES>  (1) 
10
1 2 acceptor
1 3 acceptor
1 4 cation
1 4 donor
1 5 cation
1 5 donor
4 6 9 10 11 hydrophobe
5 5 13 15 16 17 rings
6 13 14 15 18 19 21 rings
6 23 24 25 26 27 28 rings

>  <PUBCHEM_HEAVY_ATOM_COUNT>  (1) 
28

>  <PUBCHEM_ATOM_DEF_STEREO_COUNT>  (1) 
0

>  <PUBCHEM_ATOM_UDEF_STEREO_COUNT>  (1) 
1

>  <PUBCHEM_BOND_DEF_STEREO_COUNT>  (1) 
0

>  <PUBCHEM_BOND_UDEF_STEREO_COUNT>  (1) 
0

>  <PUBCHEM_ISOTOPIC_ATOM_COUNT>  (1) 
0

>  <PUBCHEM_COMPONENT_COUNT>  (1) 
1

>  <PUBCHEM_CACTVS_TAUTO_COUNT>  (1) 
1

>  <PUBCHEM_CONFORMER_ID>  (1) 
0000AC5000000001

>  <PUBCHEM_MMFF94_ENERGY>  (1) 
71.2937

>  <PUBCHEM_FEATURE_SELFOVERLAP>  (1) 
50.837

>  <PUBCHEM_SHAPE_FINGERPRINT>  (1) 
104564 63 18053695673977380247
10930396 42 17763987614369723866
11578080 2 17559421122216474098
11582403 64 16303692948023810109
11595378 159 18336264652141829042
12422481 6 18268170754197866835
12788726 201 18115009931494854210
13004483 165 18118679052719035047
13583140 156 16733255760544630748
15324884 4 17683263377550016389
15338160 23 18270686484321411600
19734167 9 18126594286788201529
21033648 29 18119794830169546748
21236236 1 18413105087332070938
21344244 78 17836660986206145091
21756936 100 17346596366321412216
244849 19 16844194301848299948
25222932 49 16089034442735182073
35225 105 18052500427259518675
394222 165 17405395855392740557
4340502 62 18129389207039903377
445580 44 18261106417431811018
469060 322 18113617923402840523
484985 159 17604407649141578354
495365 180 17613994093334238493
5104073 3 18338778093379492090
5951187 136 14684755517790871131
7399639 24 17828208692868838677
81228 2 18336557087300209231

>  <PUBCHEM_SHAPE_MULTIPOLES>  (1) 
548.66
9.62
4.69
2.42
19.23
1.32
-0.6
-1.99
-6.04
-6.25
0.97
-1.66
-1.11
0.32

>  <PUBCHEM_SHAPE_SELFOVERLAP>  (1) 
1170.893

>  <PUBCHEM_SHAPE_VOLUME>  (1) 
307.8

>  <PUBCHEM_COORDINATE_TYPE>  (1) 
2
5
10

$$$$
