44143
     RDKit          3D

 24 25  0  0  1  0  0  0  0  0999 V2000
   -4.1123    0.2238    0.1419 O   0  0  0  0  0  0  0  0  0  0  0  0
    0.5640    1.1442   -0.0768 O   0  0  0  0  0  0  0  0  0  0  0  0
   -1.6469    0.6160    0.7280 O   0  0  0  0  0  0  0  0  0  0  0  0
   -3.5539   -1.7076   -1.0014 O   0  0  0  0  0  0  0  0  0  0  0  0
    2.5743   -1.6720    0.2388 N   0  0  0  0  0  0  0  0  0  0  0  0
    2.4612   -0.2689    0.1954 N   0  0  0  0  0  0  0  0  0  0  0  0
   -0.9345   -1.3143   -0.3908 N   0  0  0  0  0  0  0  0  0  0  0  0
    1.3107   -2.1998   -0.0304 C   0  0  0  0  0  0  0  0  0  0  0  0
    0.3938   -1.2324   -0.1559 C   0  0  0  0  0  0  0  0  0  0  0  0
    1.1109    0.0576    0.0174 C   0  0  0  0  0  0  0  0  0  0  0  0
    3.5697    0.5969    0.0217 C   0  0  0  0  0  0  0  0  0  0  0  0
   -6.3232    1.1760    0.4407 C   0  0  0  0  0  0  0  0  0  0  0  0
    3.4321   -2.2678    1.2585 C   0  0  0  0  0  0  0  0  0  0  0  0
    1.0871   -3.6730   -0.1002 C   0  0  0  0  0  0  0  0  0  0  0  0
   -5.4974    0.0378   -0.1650 C   0  0  0  0  0  0  0  0  0  0  0  0
    3.4348    1.9693    0.2545 C   0  0  0  0  0  0  0  0  0  0  0  0
    4.8068    0.0855   -0.3834 C   0  0  0  0  0  0  0  0  0  0  0  0
   -5.9020    2.5333   -0.1265 C   0  0  0  0  0  0  0  0  0  0  0  0
   -7.8128    0.9397    0.2008 C   0  0  0  0  0  0  0  0  0  0  0  0
   -1.8606   -0.3877    0.0650 C   0  0  0  0  0  0  0  0  0  0  0  0
    4.5257    2.8216    0.0838 C   0  0  0  0  0  0  0  0  0  0  0  0
    5.8976    0.9381   -0.5539 C   0  0  0  0  0  0  0  0  0  0  0  0
   -3.2820   -0.7223   -0.3420 C   0  0  0  0  0  0  0  0  0  0  0  0
    5.7571    2.3061   -0.3203 C   0  0  0  0  0  0  0  0  0  0  0  0
  1 15  1  0
  1 23  1  0
  2 10  2  0
  3 20  2  0
  4 23  2  0
  5  6  1  0
  5  8  1  0
  5 13  1  0
  6 10  1  0
  6 11  1  0
  7  9  1  0
  7 20  1  0
  8  9  2  0
  8 14  1  0
  9 10  1  0
 11 16  2  0
 11 17  1  0
 12 15  1  0
 12 18  1  0
 12 19  1  0
 16 21  1  0
 17 22  2  0
 20 23  1  0
 21 24  2  0
 22 24  1  0
M  END
>  <PUBCHEM_COMPOUND_CID>  (1) 
44143

>  <PUBCHEM_CONFORMER_RMSD>  (1) 
0.8

>  <PUBCHEM_CONFORMER_DIVERSEORDER>  (1) 
1
39
63
23
69
40
16
24
22
61
53
60
55
56
58
12
51
52
44
25
70
72
73
66
46
54
21
36
28
62
50
57
43
47
30
20
31
75
26
67
4
71
35
33
59
29
48
9
65
38
10
49
14
34
18
45
68
6
42
64
15
13
41
32
74
8
76
5
19
2
11
37
3
7
27
17

>  <PUBCHEM_MMFF94_PARTIAL_CHARGES>  (1) 
27
1 -0.43
10 0.62
11 0.12
13 0.37
14 0.14
15 0.28
16 -0.15
17 -0.15
2 -0.57
20 0.63
21 -0.15
22 -0.15
23 0.72
24 -0.15
3 -0.57
32 0.37
35 0.15
36 0.15
4 -0.57
43 0.15
44 0.15
45 0.15
5 -0.49
6 -0.16
7 -0.54
8 -0.04
9 0.12

>  <PUBCHEM_EFFECTIVE_ROTOR_COUNT>  (1) 
7

>  <PUBCHEM_PHARMACOPHORE_FEATURES>  (1) 
7
1 2 acceptor
1 3 acceptor
1 4 acceptor
1 7 donor
3 12 18 19 hydrophobe
5 5 6 8 9 10 rings
6 11 16 17 21 22 24 rings

>  <PUBCHEM_HEAVY_ATOM_COUNT>  (1) 
24

>  <PUBCHEM_ATOM_DEF_STEREO_COUNT>  (1) 
0

>  <PUBCHEM_ATOM_UDEF_STEREO_COUNT>  (1) 
0

>  <PUBCHEM_BOND_DEF_STEREO_COUNT>  (1) 
0

>  <PUBCHEM_BOND_UDEF_STEREO_COUNT>  (1) 
0

>  <PUBCHEM_ISOTOPIC_ATOM_COUNT>  (1) 
0

>  <PUBCHEM_COMPONENT_COUNT>  (1) 
1

>  <PUBCHEM_CACTVS_TAUTO_COUNT>  (1) 
2

>  <PUBCHEM_CONFORMER_ID>  (1) 
0000AC6F00000001

>  <PUBCHEM_MMFF94_ENERGY>  (1) 
79.3463

>  <PUBCHEM_FEATURE_SELFOVERLAP>  (1) 
35.551

>  <PUBCHEM_SHAPE_FINGERPRINT>  (1) 
10 15 18186524315544497833
10411042 1 17833832669170463610
10554248 39 18197765623505456335
10595046 47 18341609301202930071
10835480 77 18334854966872150437
10906281 52 17968111827416947445
12236239 1 18272088318290561807
12293681 160 17917999407374303832
12730499 353 18335709325164469099
12788726 201 17274546413019709409
13167372 99 18410855438706566640
13533116 47 17604142627946741002
13690498 29 17487889232755930047
13785724 45 17763462820500382954
13878862 14 18191563308087883917
13955234 65 18188486861457857938
14528608 73 18342173405494985541
14790565 3 18265336286077888620
14931854 50 18059590130482491832
15183329 4 18201719544539074945
15475509 35 16009580266811110194
18222031 100 10015591588275538494
18335252 114 18341889675813815244
19427546 62 18409168817887109906
20157964 124 18410576146189920633
20281389 69 18333449820728262725
20554085 129 17917417758024871154
21033648 29 18268141136203918992
22393880 68 17988636458449052951
23559900 14 17775004540312395558
23845131 108 18260269680662847290
255183 451 17770787806046542486
335352 9 18411422813499280262
3411729 13 18334576837030995386
3472631 163 18272655674769574933
34797466 226 18060145310739003829
34934 24 18413106169489873247
350125 39 18336542738499956948
4073 2 18041003976951146699
4340502 62 16805320002985847482
5104073 3 18114179744218135899
5385378 56 18260824895943819514
59755656 215 18411144606154100172
633830 44 18343015627349923462
6697151 62 17321516334172395359
77188 2 17761773958134921230
8272917 22 18411700950379495086

>  <PUBCHEM_SHAPE_MULTIPOLES>  (1) 
455.49
17.12
3.28
0.77
24.76
1.1
0.06
-14.24
-0.21
-2.94
0.08
-0.14
0.18
-1

>  <PUBCHEM_SHAPE_SELFOVERLAP>  (1) 
954.277

>  <PUBCHEM_SHAPE_VOLUME>  (1) 
257

>  <PUBCHEM_COORDINATE_TYPE>  (1) 
2
5
10

$$$$
