44147
     RDKit          3D

 22 26  0  0  0  0  0  0  0  0999 V2000
   -3.5315   -1.1496   -0.8203 O   0  0  0  0  0  0  0  0  0  0  0  0
    0.2280    0.2606    0.0176 C   0  0  0  0  0  0  0  0  0  0  0  0
   -0.0494   -1.1370    0.0650 C   0  0  0  0  0  0  0  0  0  0  0  0
   -0.9483    1.1838    0.1141 C   0  0  0  0  0  0  0  0  0  0  0  0
    1.5991    0.6852   -0.1001 C   0  0  0  0  0  0  0  0  0  0  0  0
   -1.3517   -1.6541   -0.0920 C   0  0  0  0  0  0  0  0  0  0  0  0
    0.9983   -2.0670    0.2439 C   0  0  0  0  0  0  0  0  0  0  0  0
   -2.2446    0.7151   -0.1766 C   0  0  0  0  0  0  0  0  0  0  0  0
    2.6306   -0.2691    0.0968 C   0  0  0  0  0  0  0  0  0  0  0  0
   -2.4588   -0.7282   -0.4083 C   0  0  0  0  0  0  0  0  0  0  0  0
    2.3155   -1.6135    0.3063 C   0  0  0  0  0  0  0  0  0  0  0  0
   -1.6204   -3.0262   -0.0162 C   0  0  0  0  0  0  0  0  0  0  0  0
    0.7205   -3.4413    0.3395 C   0  0  0  0  0  0  0  0  0  0  0  0
   -0.8710    2.5040    0.5955 C   0  0  0  0  0  0  0  0  0  0  0  0
    2.0318    1.9923   -0.4504 C   0  0  0  0  0  0  0  0  0  0  0  0
   -0.5815   -3.9168    0.2161 C   0  0  0  0  0  0  0  0  0  0  0  0
   -3.3700    1.5541   -0.1438 C   0  0  0  0  0  0  0  0  0  0  0  0
    3.9847    0.1089    0.0569 C   0  0  0  0  0  0  0  0  0  0  0  0
   -1.9879    3.3474    0.6422 C   0  0  0  0  0  0  0  0  0  0  0  0
    3.3809    2.3557   -0.5036 C   0  0  0  0  0  0  0  0  0  0  0  0
   -3.2333    2.8795    0.2477 C   0  0  0  0  0  0  0  0  0  0  0  0
    4.3591    1.4162   -0.2304 C   0  0  0  0  0  0  0  0  0  0  0  0
  1 10  2  0
  2  3  2  0
  2  4  1  0
  2  5  1  0
  3  6  1  0
  3  7  1  0
  4  8  2  0
  4 14  1  0
  5  9  2  0
  5 15  1  0
  6 10  1  0
  6 12  2  0
  7 11  2  0
  7 13  1  0
  8 10  1  0
  8 17  1  0
  9 11  1  0
  9 18  1  0
 12 16  1  0
 13 16  2  0
 14 19  2  0
 15 20  2  0
 17 21  2  0
 18 22  2  0
 19 21  1  0
 20 22  1  0
M  END
>  <PUBCHEM_COMPOUND_CID>  (1) 
44147

>  <PUBCHEM_CONFORMER_RMSD>  (1) 
0.6

>  <PUBCHEM_CONFORMER_DIVERSEORDER>  (1) 
1
2

>  <PUBCHEM_MMFF94_PARTIAL_CHARGES>  (1) 
28
1 -0.57
10 0.4
11 -0.15
12 -0.15
13 -0.15
14 -0.15
15 -0.15
16 -0.15
17 -0.15
18 -0.15
19 -0.15
20 -0.15
21 -0.15
22 -0.15
23 0.15
24 0.15
25 0.15
26 0.15
27 0.15
28 0.15
29 0.15
30 0.15
31 0.15
32 0.15
33 0.15
34 0.15
6 0.09
8 0.09

>  <PUBCHEM_EFFECTIVE_ROTOR_COUNT>  (1) 
0

>  <PUBCHEM_PHARMACOPHORE_FEATURES>  (1) 
6
1 1 acceptor
6 2 3 4 6 8 10 rings
6 2 3 5 7 9 11 rings
6 3 6 7 12 13 16 rings
6 4 8 14 17 19 21 rings
6 5 9 15 18 20 22 rings

>  <PUBCHEM_HEAVY_ATOM_COUNT>  (1) 
22

>  <PUBCHEM_ATOM_DEF_STEREO_COUNT>  (1) 
0

>  <PUBCHEM_ATOM_UDEF_STEREO_COUNT>  (1) 
0

>  <PUBCHEM_BOND_DEF_STEREO_COUNT>  (1) 
0

>  <PUBCHEM_BOND_UDEF_STEREO_COUNT>  (1) 
0

>  <PUBCHEM_ISOTOPIC_ATOM_COUNT>  (1) 
0

>  <PUBCHEM_COMPONENT_COUNT>  (1) 
1

>  <PUBCHEM_CACTVS_TAUTO_COUNT>  (1) 
1

>  <PUBCHEM_CONFORMER_ID>  (1) 
0000AC7300000001

>  <PUBCHEM_MMFF94_ENERGY>  (1) 
88.4794

>  <PUBCHEM_FEATURE_SELFOVERLAP>  (1) 
30.565

>  <PUBCHEM_SHAPE_FINGERPRINT>  (1) 
10319926 262 18126544934416853632
10369192 42 13120006706721519718
10411042 1 17618223249099750890
10967382 1 18410291414968648998
1100329 8 18122906430431559906
11370993 70 18337947900789959820
11578080 2 13353138101871902460
12173636 292 18411133632323008157
12553582 1 17834677479934690234
12788726 201 18339919436728214010
12954195 1 18195831741561173868
13027679 85 17833835254317821271
13140716 1 18048877686922897802
13583140 156 16950553428546481488
138480 1 17401488143627655474
14081887 123 18053371386851137160
14178342 30 18123451800883067114
14790565 3 18339090392778095657
14955137 171 17117510687147702091
15042514 8 18120378910718155018
15442244 35 18337668616705070810
16087824 20 18266462204119564175
16752209 62 18411977000901772312
16945 1 18410295826069198394
19591789 44 18410860944838328651
20510252 161 18342461473325811809
20739085 24 16686281071509214785
20775438 99 16329589079815929599
21029758 11 17835516403127864591
2255824 54 17978233755426297986
2334 1 18411133654050551667
23419403 2 15957743056442533028
23558518 356 18411141303097383062
23559900 14 18272089414377829000
2748010 2 15817053276299507726
3091708 16 9051667336232153418
335352 9 18266177219557792118
350125 39 18337958891478901297
352729 6 18337110171819239894
474 4 18193556658017594129
5939293 188 17330835716960291447
6443956 14 16967458088895024533
7364860 26 17906735799805903144
7832392 63 17979633433628411919
84936 182 18056189181528640528
9709674 26 18270970141167278388
9981440 41 18408598149955982058

>  <PUBCHEM_SHAPE_MULTIPOLES>  (1) 
446.88
6.1
4.8
0.72
2.59
2.35
0
-4.45
0.65
-1.66
-0.57
-0.09
-0.09
-0.94

>  <PUBCHEM_SHAPE_SELFOVERLAP>  (1) 
1043.445

>  <PUBCHEM_SHAPE_VOLUME>  (1) 
226

>  <PUBCHEM_COORDINATE_TYPE>  (1) 
2
5
10

$$$$
