44141
     RDKit          3D

 23 24  0  0  1  0  0  0  0  0999 V2000
    0.2371   -1.2053   -0.1298 O   0  0  0  0  0  0  0  0  0  0  0  0
   -4.4650   -0.5275   -0.5697 O   0  0  0  0  0  0  0  0  0  0  0  0
   -1.9512   -0.7398   -1.0294 O   0  0  0  0  0  0  0  0  0  0  0  0
   -4.0879    1.3407    0.7406 O   0  0  0  0  0  0  0  0  0  0  0  0
    2.0928    1.7321   -0.1194 N   0  0  0  0  0  0  0  0  0  0  0  0
    2.0603    0.3256   -0.1832 N   0  0  0  0  0  0  0  0  0  0  0  0
   -1.4192    1.1375    0.2659 N   0  0  0  0  0  0  0  0  0  0  0  0
    0.7870    2.1686    0.1085 C   0  0  0  0  0  0  0  0  0  0  0  0
   -0.0771    1.1460    0.1080 C   0  0  0  0  0  0  0  0  0  0  0  0
    0.7236   -0.0865   -0.1124 C   0  0  0  0  0  0  0  0  0  0  0  0
    3.2060   -0.4890   -0.0037 C   0  0  0  0  0  0  0  0  0  0  0  0
    2.9712    2.4483   -1.0392 C   0  0  0  0  0  0  0  0  0  0  0  0
    0.4734    3.6180    0.2693 C   0  0  0  0  0  0  0  0  0  0  0  0
    3.1662   -1.8454   -0.3416 C   0  0  0  0  0  0  0  0  0  0  0  0
    4.3852    0.0577    0.5118 C   0  0  0  0  0  0  0  0  0  0  0  0
   -2.2614    0.1985   -0.3109 C   0  0  0  0  0  0  0  0  0  0  0  0
    4.2943   -2.6469   -0.1657 C   0  0  0  0  0  0  0  0  0  0  0  0
    5.5133   -0.7436    0.6876 C   0  0  0  0  0  0  0  0  0  0  0  0
   -5.6674   -0.8883    0.1168 C   0  0  0  0  0  0  0  0  0  0  0  0
    5.4677   -2.0960    0.3488 C   0  0  0  0  0  0  0  0  0  0  0  0
   -3.7211    0.4237    0.0306 C   0  0  0  0  0  0  0  0  0  0  0  0
   -6.4100   -1.9402   -0.6930 C   0  0  0  0  0  0  0  0  0  0  0  0
   -5.3178   -1.3882    1.5103 C   0  0  0  0  0  0  0  0  0  0  0  0
  1 10  2  0
  2 19  1  0
  2 21  1  0
  3 16  2  0
  4 21  2  0
  5  6  1  0
  5  8  1  0
  5 12  1  0
  6 10  1  0
  6 11  1  0
  7  9  1  0
  7 16  1  0
  8  9  2  0
  8 13  1  0
  9 10  1  0
 11 14  2  0
 11 15  1  0
 14 17  1  0
 15 18  2  0
 16 21  1  0
 17 20  2  0
 18 20  1  0
 19 22  1  0
 19 23  1  0
M  END
>  <PUBCHEM_COMPOUND_CID>  (1) 
44141

>  <PUBCHEM_CONFORMER_RMSD>  (1) 
0.8

>  <PUBCHEM_CONFORMER_DIVERSEORDER>  (1) 
1
28
38
12
27
32
36
16
9
42
17
5
3
8
20
25
11
26
37
23
40
39
13
10
41
31
24
35
4
6
19
43
7
14
18
34
30
2
15
29
21
33
22

>  <PUBCHEM_MMFF94_PARTIAL_CHARGES>  (1) 
27
1 -0.57
10 0.62
11 0.12
12 0.37
13 0.14
14 -0.15
15 -0.15
16 0.63
17 -0.15
18 -0.15
19 0.28
2 -0.43
20 -0.15
21 0.72
3 -0.57
30 0.37
31 0.15
32 0.15
34 0.15
35 0.15
36 0.15
4 -0.57
5 -0.49
6 -0.16
7 -0.54
8 -0.04
9 0.12

>  <PUBCHEM_EFFECTIVE_ROTOR_COUNT>  (1) 
6

>  <PUBCHEM_PHARMACOPHORE_FEATURES>  (1) 
7
1 1 acceptor
1 3 acceptor
1 4 acceptor
1 7 donor
3 19 22 23 hydrophobe
5 5 6 8 9 10 rings
6 11 14 15 17 18 20 rings

>  <PUBCHEM_HEAVY_ATOM_COUNT>  (1) 
23

>  <PUBCHEM_ATOM_DEF_STEREO_COUNT>  (1) 
0

>  <PUBCHEM_ATOM_UDEF_STEREO_COUNT>  (1) 
0

>  <PUBCHEM_BOND_DEF_STEREO_COUNT>  (1) 
0

>  <PUBCHEM_BOND_UDEF_STEREO_COUNT>  (1) 
0

>  <PUBCHEM_ISOTOPIC_ATOM_COUNT>  (1) 
0

>  <PUBCHEM_COMPONENT_COUNT>  (1) 
1

>  <PUBCHEM_CACTVS_TAUTO_COUNT>  (1) 
2

>  <PUBCHEM_CONFORMER_ID>  (1) 
0000AC6D00000001

>  <PUBCHEM_MMFF94_ENERGY>  (1) 
82.2813

>  <PUBCHEM_FEATURE_SELFOVERLAP>  (1) 
35.551

>  <PUBCHEM_SHAPE_FINGERPRINT>  (1) 
10411042 1 18410572843254743812
10622 236 17557120003868849639
11578080 2 15215594436281807060
11595378 159 15123522354304764211
11796584 16 17603581928788349587
12107183 9 18270128890445325353
12236239 1 18202563982037045425
12403259 226 18409443704985284333
12422481 6 17274260513598910374
12596602 18 17561088007418847131
13009979 54 18059024890488244681
13533116 47 18339361980612814731
13740256 8 18335704931391767667
13782708 43 17748826336891751947
13862211 1 18409444761214695826
13911852 28 18339357457469530695
13955234 65 18196372739124706280
14251740 57 18060146397118329798
15196674 1 18412544271365446564
15250474 111 18058160816636836047
15352361 1 18410292484505364938
15927050 60 17837772593099415180
17492 89 18122904227525287210
17857418 61 18343018921943247407
1813 80 18341905056102044068
193927 3 18335148569939342395
20028762 73 18273212023649361055
20645477 56 11959734863450092659
20645477 70 18260265278325869864
21049683 271 18261962954782453108
21267235 1 18341054034677307318
21682296 61 18340772541988243791
221490 88 18262806284083818011
22393880 68 17895180105135231935
22950370 63 18411140190864214634
23402539 116 18270392793855811045
23559900 14 17749953383770678809
25147074 1 18340225015352170144
3004659 81 18113620067182410446
314194 84 18412545444107958571
3421961 26 18412542145525810552
34797466 226 16081660001394651813
46194498 28 17603863450967431404
465052 167 18412829075348344566
5104073 3 18272651203655853081
5718773 13 18116707423041145986
59682541 35 18339913893038362770
6025842 7 18261677098907042700
7495541 125 18114467841643727343
77188 2 18411135827442147420
7970288 3 18336542694976167714
8863177 126 17969797452200196099
9981440 41 17403443569192049648

>  <PUBCHEM_SHAPE_MULTIPOLES>  (1) 
434.91
14.11
3.13
0.9
12.7
1.74
-0.08
-11.97
-1.53
-2.31
0.09
0.55
-0.11
-0.54

>  <PUBCHEM_SHAPE_SELFOVERLAP>  (1) 
917.473

>  <PUBCHEM_SHAPE_VOLUME>  (1) 
243.9

>  <PUBCHEM_COORDINATE_TYPE>  (1) 
2
5
10

$$$$
