4414
     RDKit          3D

 29 32  0  0  1  0  0  0  0  0999 V2000
    3.3770    0.4494    1.9987 S   0  0  0  0  0  0  0  0  0  0  0  0
    1.8041    1.7426   -1.8806 O   0  0  0  0  0  0  0  0  0  0  0  0
   -0.0495   -1.2347   -0.9525 O   0  0  0  0  0  0  0  0  0  0  0  0
    5.0995   -1.6257    0.0812 O   0  0  0  0  0  0  0  0  0  0  0  0
    5.9526   -0.6748   -1.8168 O   0  0  0  0  0  0  0  0  0  0  0  0
   -1.7949   -2.3990   -0.1554 O   0  0  0  0  0  0  0  0  0  0  0  0
    2.9752    0.1660   -0.5744 N   0  0  0  0  0  0  0  0  0  0  0  0
   -1.3195    0.2871    0.2909 N   0  0  0  0  0  0  0  0  0  0  0  0
    2.3499   -0.2808    0.6692 C   0  0  0  0  0  0  0  0  0  0  0  0
    4.6133    1.1968    0.8240 C   0  0  0  0  0  0  0  0  0  0  0  0
    4.3787    0.5247   -0.5514 C   0  0  0  0  0  0  0  0  0  0  0  0
    1.1087    0.5274    0.2545 C   0  0  0  0  0  0  0  0  0  0  0  0
    1.9347    0.9487   -0.9770 C   0  0  0  0  0  0  0  0  0  0  0  0
    4.3282    2.7071    0.7558 C   0  0  0  0  0  0  0  0  0  0  0  0
    6.0219    0.9863    1.3914 C   0  0  0  0  0  0  0  0  0  0  0  0
   -0.1413   -0.2504   -0.2140 C   0  0  0  0  0  0  0  0  0  0  0  0
    5.2269   -0.7155   -0.7839 C   0  0  0  0  0  0  0  0  0  0  0  0
   -2.6440   -0.1630    0.0731 C   0  0  0  0  0  0  0  0  0  0  0  0
   -3.7123    0.7380    0.0832 C   0  0  0  0  0  0  0  0  0  0  0  0
   -2.8378   -1.5204   -0.1472 C   0  0  0  0  0  0  0  0  0  0  0  0
   -5.0210    0.2466   -0.1381 C   0  0  0  0  0  0  0  0  0  0  0  0
   -4.1246   -2.0036   -0.3646 C   0  0  0  0  0  0  0  0  0  0  0  0
   -3.5231    2.1117    0.3053 C   0  0  0  0  0  0  0  0  0  0  0  0
   -5.2101   -1.1271   -0.3605 C   0  0  0  0  0  0  0  0  0  0  0  0
   -6.1018    1.1434   -0.1300 C   0  0  0  0  0  0  0  0  0  0  0  0
   -4.6084    2.9884    0.3099 C   0  0  0  0  0  0  0  0  0  0  0  0
   -5.8952    2.5051    0.0929 C   0  0  0  0  0  0  0  0  0  0  0  0
   -1.8071   -3.4482    0.7903 C   0  0  0  0  0  0  0  0  0  0  0  0
   -0.3801   -3.8261    1.1258 C   0  0  0  0  0  0  0  0  0  0  0  0
  1  9  1  0
  1 10  1  0
  2 13  2  0
  3 16  2  0
  4 17  1  0
  5 17  2  0
  6 20  1  0
  6 28  1  0
  7  9  1  0
  7 11  1  0
  7 13  1  0
  8 16  1  0
  8 18  1  0
  9 12  1  0
 10 11  1  0
 10 14  1  0
 10 15  1  0
 11 17  1  0
 12 13  1  0
 12 16  1  0
 18 19  1  0
 18 20  2  0
 19 21  2  0
 19 23  1  0
 20 22  1  0
 21 24  1  0
 21 25  1  0
 22 24  2  0
 23 26  2  0
 25 27  2  0
 26 27  1  0
 28 29  1  0
M  CHG  1   4  -1
M  END
>  <PUBCHEM_COMPOUND_CID>  (1) 
4414

>  <PUBCHEM_CONFORMER_RMSD>  (1) 
0.8

>  <PUBCHEM_CONFORMER_DIVERSEORDER>  (1) 
1
175
184
61
187
44
42
139
126
10
194
135
179
46
132
108
52
196
30
117
195
190
36
151
121
147
43
193
113
33
138
63
185
152
68
191
39
158
111
180
7
186
177
198
50
166
3
169
18
60
73
141
188
92
173
114
96
12
149
65
71
11
131
51
197
143
159
123
78
99
93
47
129
163
192
82
124
162
59
120
80
67
181
127
27
189
98
24
64
20
40
137
26
154
91
55
75
105
142
85
148
86
103
102
83
15
183
29
160
87
136
37
35
19
110
171
6
134
84
32
8
88
161
122
170
155
94
182
45
157
17
130
9
77
118
95
25
2
41
38
49
156
89
168
140
23
144
62
119
146
28
150
115
106
104
167
172
58
133
69
97
14
128
56
48
125
90
74
79
31
22
116
21
100
81
70
66
34
13
72
54
165
109
76
16
101
107
164
112
176
53
4
153
178
57
174
5
145

>  <PUBCHEM_MMFF94_PARTIAL_CHARGES>  (1) 
31
1 -0.45
10 0.23
11 0.19
12 0.11
13 0.58
16 0.58
17 0.91
18 0.12
2 -0.57
20 0.08
22 -0.15
23 -0.15
24 -0.15
25 -0.15
26 -0.15
27 -0.15
28 0.28
3 -0.57
39 0.37
4 -0.9
40 0.15
41 0.15
42 0.15
43 0.15
44 0.15
45 0.15
5 -0.9
6 -0.36
7 -0.59
8 -0.55
9 0.44

>  <PUBCHEM_EFFECTIVE_ROTOR_COUNT>  (1) 
6.8

>  <PUBCHEM_PHARMACOPHORE_FEATURES>  (1) 
13
1 12 anion
1 2 acceptor
1 3 acceptor
1 4 acceptor
1 5 acceptor
1 6 acceptor
1 8 donor
3 10 14 15 hydrophobe
3 4 5 17 anion
4 7 9 12 13 rings
6 18 19 20 21 22 24 rings
6 19 21 23 25 26 27 rings
7 1 7 9 10 11 12 13 rings

>  <PUBCHEM_HEAVY_ATOM_COUNT>  (1) 
29

>  <PUBCHEM_ATOM_DEF_STEREO_COUNT>  (1) 
0

>  <PUBCHEM_ATOM_UDEF_STEREO_COUNT>  (1) 
3

>  <PUBCHEM_BOND_DEF_STEREO_COUNT>  (1) 
0

>  <PUBCHEM_BOND_UDEF_STEREO_COUNT>  (1) 
0

>  <PUBCHEM_ISOTOPIC_ATOM_COUNT>  (1) 
0

>  <PUBCHEM_COMPONENT_COUNT>  (1) 
1

>  <PUBCHEM_CACTVS_TAUTO_COUNT>  (1) 
2

>  <PUBCHEM_CONFORMER_ID>  (1) 
0000113E00000001

>  <PUBCHEM_MMFF94_ENERGY>  (1) 
106.8157

>  <PUBCHEM_FEATURE_SELFOVERLAP>  (1) 
70.09

>  <PUBCHEM_SHAPE_FINGERPRINT>  (1) 
10411042 1 17835234924764061039
10674148 151 18260270716757013994
11049842 53 18190202146804554966
11796584 16 18273500057320142142
12107183 9 18192701246592631674
12128747 34 18202285771314659606
12166972 35 18412268341255565681
12236239 1 18113334227933513977
12403259 415 18131634486813301017
12633257 1 16805322218756474513
13583140 156 17702381943537194466
13782708 43 17346314959784818127
14117953 113 18261111817113772197
14790565 3 18336826386287157371
14840074 17 17168148927077348775
15183329 4 18411141298881387638
15537594 2 17022901246514756466
15788980 27 18408326591984949552
15799311 1 15357699699341788962
15927050 60 18410573964453231067
17818456 19 18408044017560142197
17844677 252 18342179998428371728
18608769 82 18341895238661613763
19958102 18 18335411362051006431
21033648 29 17774426274484056160
21279426 13 18201441337462283566
21315764 268 18342168994685710149
22061861 79 17203612570856336396
23559900 14 18202001032062759024
23569943 247 17024847296276125626
3004659 81 18341897372948694486
3383291 50 18189335835275412155
3633792 109 18042382769122757335
4015057 19 17131832092392582737
4073 2 18335984272487209186
5104073 3 18335135392858223251
513202 73 16734379392355020518
5265222 85 18268724964325539358
5283173 99 18272369767418607401
5385378 56 18192436269065170587
59755656 215 18271811151034148087
59755656 520 18411979127359029215
6328613 192 18335150803876478148
6371380 46 18411702046250244206
9981440 41 18333735711195085459

>  <PUBCHEM_SHAPE_MULTIPOLES>  (1) 
561.35
15.64
3.44
1.27
2.81
1.85
0.01
-7.04
0.28
-3.54
-0.96
2.07
-0.02
0.58

>  <PUBCHEM_SHAPE_SELFOVERLAP>  (1) 
1211.184

>  <PUBCHEM_SHAPE_VOLUME>  (1) 
310.7

>  <PUBCHEM_COORDINATE_TYPE>  (1) 
2
5
10

$$$$
