44158
     RDKit          3D

 19 21  0  0  0  0  0  0  0  0999 V2000
   -4.9987   -1.2361   -0.0003 Cl  0  0  0  0  0  0  0  0  0  0  0  0
   -4.8339    1.9661    0.0000 Cl  0  0  0  0  0  0  0  0  0  0  0  0
    5.0998   -1.6767   -0.0014 Cl  0  0  0  0  0  0  0  0  0  0  0  0
    5.2295    1.5552    0.0016 Cl  0  0  0  0  0  0  0  0  0  0  0  0
    0.0738   -1.2851    0.0001 O   0  0  0  0  0  0  0  0  0  0  0  0
    0.1876    1.5664   -0.0005 O   0  0  0  0  0  0  0  0  0  0  0  0
   -2.3277   -2.5770    0.0006 N   0  0  0  0  0  0  0  0  0  0  0  0
   -1.0577   -0.5095    0.0000 C   0  0  0  0  0  0  0  0  0  0  0  0
   -1.0022    0.8834   -0.0003 C   0  0  0  0  0  0  0  0  0  0  0  0
    1.2637   -0.6023    0.0001 C   0  0  0  0  0  0  0  0  0  0  0  0
    1.3193    0.7908   -0.0003 C   0  0  0  0  0  0  0  0  0  0  0  0
   -2.2899   -1.1624    0.0002 C   0  0  0  0  0  0  0  0  0  0  0  0
   -2.1783    1.6323   -0.0002 C   0  0  0  0  0  0  0  0  0  0  0  0
    2.4400   -1.3511    0.0004 C   0  0  0  0  0  0  0  0  0  0  0  0
   -3.4676   -0.4144    0.0002 C   0  0  0  0  0  0  0  0  0  0  0  0
    2.5515    1.4435   -0.0005 C   0  0  0  0  0  0  0  0  0  0  0  0
   -3.4119    0.9805    0.0000 C   0  0  0  0  0  0  0  0  0  0  0  0
    3.6736   -0.6993    0.0003 C   0  0  0  0  0  0  0  0  0  0  0  0
    3.7292    0.6956   -0.0002 C   0  0  0  0  0  0  0  0  0  0  0  0
  1 15  1  0
  2 17  1  0
  3 18  1  0
  4 19  1  0
  5  8  1  0
  5 10  1  0
  6  9  1  0
  6 11  1  0
  7 12  1  0
  8  9  2  0
  8 12  1  0
  9 13  1  0
 10 11  2  0
 10 14  1  0
 11 16  1  0
 12 15  2  0
 13 17  2  0
 14 18  2  0
 15 17  1  0
 16 19  2  0
 18 19  1  0
M  END
>  <PUBCHEM_COMPOUND_CID>  (1) 
44158

>  <PUBCHEM_CONFORMER_RMSD>  (1) 
0.6

>  <PUBCHEM_CONFORMER_DIVERSEORDER>  (1) 
1

>  <PUBCHEM_MMFF94_PARTIAL_CHARGES>  (1) 
24
1 -0.18
10 0.08
11 0.08
12 0.1
13 -0.15
14 -0.15
15 0.18
16 -0.15
17 0.18
18 0.18
19 0.18
2 -0.18
20 0.15
21 0.15
22 0.15
23 0.4
24 0.4
3 -0.18
4 -0.18
5 -0.17
6 -0.17
7 -0.9
8 0.08
9 0.08

>  <PUBCHEM_EFFECTIVE_ROTOR_COUNT>  (1) 
0.4

>  <PUBCHEM_PHARMACOPHORE_FEATURES>  (1) 
7
1 5 acceptor
1 6 acceptor
1 7 cation
1 7 donor
6 10 11 14 16 18 19 rings
6 5 6 8 9 10 11 rings
6 8 9 12 13 15 17 rings

>  <PUBCHEM_HEAVY_ATOM_COUNT>  (1) 
19

>  <PUBCHEM_ATOM_DEF_STEREO_COUNT>  (1) 
0

>  <PUBCHEM_ATOM_UDEF_STEREO_COUNT>  (1) 
0

>  <PUBCHEM_BOND_DEF_STEREO_COUNT>  (1) 
0

>  <PUBCHEM_BOND_UDEF_STEREO_COUNT>  (1) 
0

>  <PUBCHEM_ISOTOPIC_ATOM_COUNT>  (1) 
0

>  <PUBCHEM_COMPONENT_COUNT>  (1) 
1

>  <PUBCHEM_CACTVS_TAUTO_COUNT>  (1) 
1

>  <PUBCHEM_CONFORMER_ID>  (1) 
0000AC7E00000001

>  <PUBCHEM_MMFF94_ENERGY>  (1) 
64.0205

>  <PUBCHEM_FEATURE_SELFOVERLAP>  (1) 
35.597

>  <PUBCHEM_SHAPE_FINGERPRINT>  (1) 
10608611 8 18411697698978319696
10616163 171 18339927137710382558
10967382 1 18410573993746796902
11132069 177 18409444791200040296
11471102 20 18411134732282612812
12107183 9 17977381633983350490
12236239 1 18040434395578444432
12390115 104 18200612319060345153
12507560 40 18411419526778361324
13073987 5 18410293618281629856
13140716 1 18410573972340409098
13167823 11 18408884031695835658
13288520 33 18412546478984080470
14790565 3 18052544266418782137
15196674 1 18410575076094314788
15375358 24 18272089370383378575
15442244 35 18410292467647086738
15536298 74 18413107260564313248
17492 89 18337673117641750466
17804303 29 18412265016881611660
1813 80 17094961048260957092
18186145 218 17822005398239952790
200 152 18131628993550025389
20510252 161 18272091578492564505
20645477 70 18341896269031726174
21065198 57 18411699902512612536
21236236 1 18412825781646063181
21267235 1 18410301306294591187
21279426 13 18339080376154102221
21421861 104 17823406099034505218
221490 88 18336553823509919674
23402539 116 18343294839042054829
23402655 69 18342173358287508924
23463225 33 18408886235035060068
23557571 272 18272661176554076516
23559900 14 18341891871121975152
245318 6 16665724014197114396
2871803 45 18261386762879868067
3004659 81 18334860481504130750
335352 9 18338517417652931380
34797466 226 17631743789078128468
34934 24 18409725157927352568
350125 39 18411703210254803873
3545911 37 18411702118937322252
4214541 1 18410573972298249729
474 4 17459195238845074924
5104073 3 18410575076131225992
559249 180 18336541608164305690
633830 44 17385447630841661200
69090 78 18411415086188333213
77779 3 18410294709219108032
8809292 202 18334580160987737338
9709674 26 18412268341249953206

>  <PUBCHEM_SHAPE_MULTIPOLES>  (1) 
381.77
11.07
2.31
0.61
2.48
0.23
0
-0.53
0
-0.54
0
0.01
-0.01
0

>  <PUBCHEM_SHAPE_SELFOVERLAP>  (1) 
815.337

>  <PUBCHEM_SHAPE_VOLUME>  (1) 
215.5

>  <PUBCHEM_COORDINATE_TYPE>  (1) 
2
5
10

$$$$
