44157
     RDKit          3D

 21 23  0  0  0  0  0  0  0  0999 V2000
   -4.8453   -0.4887   -0.0008 Cl  0  0  0  0  0  0  0  0  0  0  0  0
   -4.3854    2.6798    0.0012 Cl  0  0  0  0  0  0  0  0  0  0  0  0
    5.1771   -1.8485    0.0008 Cl  0  0  0  0  0  0  0  0  0  0  0  0
    5.5980    1.3585    0.0007 Cl  0  0  0  0  0  0  0  0  0  0  0  0
    0.2067   -1.0041   -0.0009 O   0  0  0  0  0  0  0  0  0  0  0  0
    0.5782    1.8254    0.0000 O   0  0  0  0  0  0  0  0  0  0  0  0
   -1.2794   -2.8087    0.0015 O   0  0  0  0  0  0  0  0  0  0  0  0
   -3.4600   -2.5559    0.0005 O   0  0  0  0  0  0  0  0  0  0  0  0
   -2.3005   -2.0856    0.0003 N   0  0  0  0  0  0  0  0  0  0  0  0
   -0.8499   -0.1292   -0.0006 C   0  0  0  0  0  0  0  0  0  0  0  0
   -0.6685    1.2530   -0.0001 C   0  0  0  0  0  0  0  0  0  0  0  0
    1.4535   -0.4317   -0.0005 C   0  0  0  0  0  0  0  0  0  0  0  0
    1.6350    0.9506   -0.0002 C   0  0  0  0  0  0  0  0  0  0  0  0
   -2.1362   -0.6678   -0.0008 C   0  0  0  0  0  0  0  0  0  0  0  0
   -1.7721    2.1052    0.0003 C   0  0  0  0  0  0  0  0  0  0  0  0
   -3.2413    0.1837   -0.0004 C   0  0  0  0  0  0  0  0  0  0  0  0
    2.5572   -1.2840   -0.0006 C   0  0  0  0  0  0  0  0  0  0  0  0
    2.9213    1.4891    0.0000 C   0  0  0  0  0  0  0  0  0  0  0  0
   -3.0596    1.5679    0.0002 C   0  0  0  0  0  0  0  0  0  0  0  0
    3.8447   -0.7465   -0.0003 C   0  0  0  0  0  0  0  0  0  0  0  0
    4.0264    0.6376   -0.0001 C   0  0  0  0  0  0  0  0  0  0  0  0
  1 16  1  0
  2 19  1  0
  3 20  1  0
  4 21  1  0
  5 10  1  0
  5 12  1  0
  6 11  1  0
  6 13  1  0
  7  9  1  0
  8  9  2  0
  9 14  1  0
 10 11  2  0
 10 14  1  0
 11 15  1  0
 12 13  2  0
 12 17  1  0
 13 18  1  0
 14 16  2  0
 15 19  2  0
 16 19  1  0
 17 20  2  0
 18 21  2  0
 20 21  1  0
M  CHG  2   7  -1   9   1
M  END
>  <PUBCHEM_COMPOUND_CID>  (1) 
44157

>  <PUBCHEM_CONFORMER_RMSD>  (1) 
0.6

>  <PUBCHEM_CONFORMER_DIVERSEORDER>  (1) 
1

>  <PUBCHEM_MMFF94_PARTIAL_CHARGES>  (1) 
24
1 -0.18
10 0.08
11 0.08
12 0.08
13 0.08
14 0.13
15 -0.15
16 0.18
17 -0.15
18 -0.15
19 0.18
2 -0.18
20 0.18
21 0.18
22 0.15
23 0.15
24 0.15
3 -0.18
4 -0.18
5 -0.17
6 -0.17
7 -0.52
8 -0.52
9 0.91

>  <PUBCHEM_EFFECTIVE_ROTOR_COUNT>  (1) 
1.4

>  <PUBCHEM_PHARMACOPHORE_FEATURES>  (1) 
8
1 5 acceptor
1 6 acceptor
1 7 acceptor
1 7 anion
1 8 acceptor
6 10 11 14 15 16 19 rings
6 12 13 17 18 20 21 rings
6 5 6 10 11 12 13 rings

>  <PUBCHEM_HEAVY_ATOM_COUNT>  (1) 
21

>  <PUBCHEM_ATOM_DEF_STEREO_COUNT>  (1) 
0

>  <PUBCHEM_ATOM_UDEF_STEREO_COUNT>  (1) 
0

>  <PUBCHEM_BOND_DEF_STEREO_COUNT>  (1) 
0

>  <PUBCHEM_BOND_UDEF_STEREO_COUNT>  (1) 
0

>  <PUBCHEM_ISOTOPIC_ATOM_COUNT>  (1) 
0

>  <PUBCHEM_COMPONENT_COUNT>  (1) 
1

>  <PUBCHEM_CACTVS_TAUTO_COUNT>  (1) 
1

>  <PUBCHEM_CONFORMER_ID>  (1) 
0000AC7D00000001

>  <PUBCHEM_MMFF94_ENERGY>  (1) 
78.6133

>  <PUBCHEM_FEATURE_SELFOVERLAP>  (1) 
40.797

>  <PUBCHEM_SHAPE_FINGERPRINT>  (1) 
10319926 262 18269535235949618152
10493431 412 18340776923366497937
10616163 171 18339645650033236918
10967382 1 18410856529611980743
11405975 8 18410572843302061010
11578080 2 13828482378832655569
12107183 9 17975972068893277570
12236239 1 17821443577794423520
12390115 104 18200329723002348113
12403814 3 17676203563622296597
12500047 106 18411976957730878089
12788726 201 17560245704276737264
13140716 1 18411418380101260352
138480 1 16897364210256107307
14341114 176 18410580582532493152
14790565 3 18051981316222748153
15042514 8 18408610279639944595
15196674 1 18410575059157253088
15442244 35 18409729543495169642
15536298 74 18413107243468963528
16945 1 18338517572715125093
17492 89 18409449219628535162
17804303 29 18412546479115981636
1813 80 17095243614222709900
19141452 34 18336828597921053548
19591789 44 18337390422650987563
200 152 18060133232568520853
20510252 161 18272091556901897841
20645477 70 18343022151858796518
21065198 57 18411980256666564632
21236236 1 18413107243511220037
21267235 1 18410019822711998283
21279426 13 18339643313264865180
21421861 104 17751349600366153610
21478907 32 18267582606162170007
21859007 373 17536011295886003796
221490 88 18337397140422709890
23402539 116 18270954653177852109
23557571 272 18272660068800875132
23558518 356 18260835937608703923
23559900 14 18270677568190370210
3004659 81 18334578993695324198
335352 9 18266458707234710364
34934 24 18408036295377476048
350125 39 18411140247263616793
3545911 37 18411702101852483052
4073 2 18186806911581662330
4214541 1 18410856538333966020
474 4 17458634470835305772
5104073 3 18411136918362964512
559249 180 18263640671765251354
633830 44 17095532785854751880
69090 78 18410290277045110057
77779 3 18410575085153715316
8809292 202 18408325505347797674
9709674 26 18343024363192019006

>  <PUBCHEM_SHAPE_MULTIPOLES>  (1) 
411.19
10.8
2.85
0.6
6.16
0.67
0
-0.92
0
-1.83
0
0.03
-0.03
0

>  <PUBCHEM_SHAPE_SELFOVERLAP>  (1) 
884.677

>  <PUBCHEM_SHAPE_VOLUME>  (1) 
229.5

>  <PUBCHEM_COORDINATE_TYPE>  (1) 
2
5
10

$$$$
