44152
     RDKit          3D

 36 39  0  0  0  0  0  0  0  0999 V2000
   -7.3934    3.1864   -2.1062 Cl  0  0  0  0  0  0  0  0  0  0  0  0
    0.0529    2.5115    3.1782 O   0  0  0  0  0  0  0  0  0  0  0  0
   -4.5917   -2.5349   -0.2377 O   0  0  0  0  0  0  0  0  0  0  0  0
    2.6905   -3.0111   -0.1031 O   0  0  0  0  0  0  0  0  0  0  0  0
    1.3144   -1.4755   -1.1371 O   0  0  0  0  0  0  0  0  0  0  0  0
    4.1915   -1.5143   -1.2357 O   0  0  0  0  0  0  0  0  0  0  0  0
    5.5532   -1.8536    0.5906 O   0  0  0  0  0  0  0  0  0  0  0  0
   -2.7869   -1.3049    0.3566 N   0  0  0  0  0  0  0  0  0  0  0  0
   -0.6529   -1.8172    0.8465 C   0  0  0  0  0  0  0  0  0  0  0  0
   -0.9209   -0.5320    1.3727 C   0  0  0  0  0  0  0  0  0  0  0  0
   -2.2511   -0.2199    1.0591 C   0  0  0  0  0  0  0  0  0  0  0  0
   -1.7962   -2.2604    0.2305 C   0  0  0  0  0  0  0  0  0  0  0  0
    0.6285   -2.5490    0.9384 C   0  0  0  0  0  0  0  0  0  0  0  0
   -0.1393    0.3971    2.0909 C   0  0  0  0  0  0  0  0  0  0  0  0
   -2.8153    1.0055    1.4631 C   0  0  0  0  0  0  0  0  0  0  0  0
   -1.9842   -3.5549   -0.4669 C   0  0  0  0  0  0  0  0  0  0  0  0
   -4.0903   -1.4172   -0.1748 C   0  0  0  0  0  0  0  0  0  0  0  0
   -0.7005    1.6135    2.4845 C   0  0  0  0  0  0  0  0  0  0  0  0
   -2.0213    1.9109    2.1745 C   0  0  0  0  0  0  0  0  0  0  0  0
   -4.9044   -0.2821   -0.6505 C   0  0  0  0  0  0  0  0  0  0  0  0
    1.5558   -2.2596   -0.2294 C   0  0  0  0  0  0  0  0  0  0  0  0
   -6.1379   -0.0117   -0.0581 C   0  0  0  0  0  0  0  0  0  0  0  0
   -4.4406    0.5201   -1.6932 C   0  0  0  0  0  0  0  0  0  0  0  0
   -6.9076    1.0610   -0.5082 C   0  0  0  0  0  0  0  0  0  0  0  0
   -5.2103    1.5928   -2.1433 C   0  0  0  0  0  0  0  0  0  0  0  0
    1.4011    2.1435    3.4635 C   0  0  0  0  0  0  0  0  0  0  0  0
   -6.4437    1.8632   -1.5507 C   0  0  0  0  0  0  0  0  0  0  0  0
    3.6755   -2.8524   -1.1376 C   0  0  0  0  0  0  0  0  0  0  0  0
    5.5599    0.2413   -0.5458 C   0  0  0  0  0  0  0  0  0  0  0  0
    5.1177   -1.1552   -0.3113 C   0  0  0  0  0  0  0  0  0  0  0  0
    5.0953    2.4810   -1.3233 C   0  0  0  0  0  0  0  0  0  0  0  0
    4.6795    1.1677   -1.1046 C   0  0  0  0  0  0  0  0  0  0  0  0
    6.8562    0.6282   -0.2056 C   0  0  0  0  0  0  0  0  0  0  0  0
    6.3916    2.8680   -0.9833 C   0  0  0  0  0  0  0  0  0  0  0  0
    7.2720    1.9416   -0.4244 C   0  0  0  0  0  0  0  0  0  0  0  0
    4.1531    3.4725   -1.9184 C   0  0  0  0  0  0  0  0  0  0  0  0
  1 27  1  0
  2 18  1  0
  2 26  1  0
  3 17  2  0
  4 21  1  0
  4 28  1  0
  5 21  2  0
  6 28  1  0
  6 30  1  0
  7 30  2  0
  8 11  1  0
  8 12  1  0
  8 17  1  0
  9 10  1  0
  9 12  2  0
  9 13  1  0
 10 11  2  0
 10 14  1  0
 11 15  1  0
 12 16  1  0
 13 21  1  0
 14 18  2  0
 15 19  2  0
 17 20  1  0
 18 19  1  0
 20 22  2  0
 20 23  1  0
 22 24  1  0
 23 25  2  0
 24 27  2  0
 25 27  1  0
 29 30  1  0
 29 32  1  0
 29 33  2  0
 31 32  2  0
 31 34  1  0
 31 36  1  0
 33 35  1  0
 34 35  2  0
M  END
>  <PUBCHEM_COMPOUND_CID>  (1) 
44152

>  <PUBCHEM_CONFORMER_RMSD>  (1) 
1

>  <PUBCHEM_CONFORMER_DIVERSEORDER>  (1) 
1
115
39
101
374
233
272
414
370
99
87
345
206
220
338
350
144
13
85
409
126
91
365
258
27
355
277
265
248
201
154
320
253
275
314
33
56
214
152
399
156
379
256
134
245
108
287
307
145
158
93
337
342
92
321
369
296
284
46
349
164
20
135
406
176
64
332
111
395
340
316
229
160
30
225
278
138
304
309
368
24
329
218
102
394
62
188
260
52
167
264
254
392
364
294
186
348
157
383
283
419
36
327
207
352
293
429
44
408
10
169
136
353
227
335
88
191
104
401
125
47
322
190
351
141
131
130
317
412
357
209
149
372
114
212
70
289
211
318
300
159
163
106
51
297
118
390
376
202
60
54
189
421
129
303
302
14
386
34
150
133
246
292
285
84
117
361
50
381
78
222
263
391
193
288
219
67
339
433
94
195
396
331
385
306
105
128
315
210
319
55
139
216
184
32
21
243
397
179
113
17
155
173
413
71
18
359
432
336
299
203
430
177
116
382
95
402
49
100
228
237
37
172
416
162
257
325
377
266
343
398
215
313
146
199
192
200
310
196
31
240
267
181
434
112
234
148
425
405
295
53
291
41
235
363
213
77
280
66
428
194
301
25
143
407
69
38
341
217
249
174
424
323
344
270
242
230
255
107
120
418
426
73
15
276
204
330
273
72
96
83
170
362
68
48
400
224
122
279
403
86
431
168
354
231
271
387
324
22
208
238
183
274
312
142
127
251
59
45
80
286
82
8
247
252
346
175
236
305
389
165
103
375
358
411
153
63
410
42
422
65
2
250
178
110
356
98
259
282
417
380
79
43
262
6
74
205
166
241
124
161
198
187
366
226
328
244
28
371
11
388
140
89
360
393
427
9
311
326
420
76
378
57
121
147
232
81
384
308
123
75
61
97
16
109
333
137
4
373
29
90
223
180
347
12
7
404
269
26
3
221
5
58
239
415
367
261
298
423
171
132
119
268
19
290
182
40
35
185
334
23
151
197
281

>  <PUBCHEM_MMFF94_PARTIAL_CHARGES>  (1) 
46
1 -0.18
11 -0.15
12 -0.33
13 0.24
14 -0.15
15 -0.15
16 0.18
17 0.49
18 0.08
19 -0.15
2 -0.36
20 0.09
21 0.66
22 -0.15
23 -0.15
24 -0.15
25 -0.15
26 0.28
27 0.18
28 0.56
29 0.09
3 -0.57
30 0.63
31 -0.14
32 -0.15
33 -0.15
34 -0.15
35 -0.15
36 0.14
39 0.15
4 -0.43
40 0.15
44 0.15
45 0.15
46 0.15
47 0.15
48 0.15
5 -0.57
54 0.15
55 0.15
56 0.15
57 0.15
6 -0.43
7 -0.57
8 0.29
9 -0.18

>  <PUBCHEM_EFFECTIVE_ROTOR_COUNT>  (1) 
10

>  <PUBCHEM_PHARMACOPHORE_FEATURES>  (1) 
8
1 2 acceptor
1 3 acceptor
1 5 acceptor
1 7 acceptor
5 8 9 10 11 12 rings
6 10 11 14 15 18 19 rings
6 20 22 23 24 25 27 rings
6 29 31 32 33 34 35 rings

>  <PUBCHEM_HEAVY_ATOM_COUNT>  (1) 
36

>  <PUBCHEM_ATOM_DEF_STEREO_COUNT>  (1) 
0

>  <PUBCHEM_ATOM_UDEF_STEREO_COUNT>  (1) 
0

>  <PUBCHEM_BOND_DEF_STEREO_COUNT>  (1) 
0

>  <PUBCHEM_BOND_UDEF_STEREO_COUNT>  (1) 
0

>  <PUBCHEM_ISOTOPIC_ATOM_COUNT>  (1) 
0

>  <PUBCHEM_COMPONENT_COUNT>  (1) 
1

>  <PUBCHEM_CACTVS_TAUTO_COUNT>  (1) 
1

>  <PUBCHEM_CONFORMER_ID>  (1) 
0000AC7800000001

>  <PUBCHEM_MMFF94_ENERGY>  (1) 
105.0239

>  <PUBCHEM_FEATURE_SELFOVERLAP>  (1) 
40.688

>  <PUBCHEM_SHAPE_FINGERPRINT>  (1) 
10673678 19 18335139739924646407
10677394 325 18342460292922890673
10811444 77 18187367649147209788
11387372 6 11312053253546903341
11445158 3 14395688417179511339
11505856 67 17058110816982114737
11513181 2 17415304757799465318
13690498 29 18129371769969009039
13911987 19 18060137626847995023
14556957 393 17774727458918339113
14705955 166 16298651851115261084
14739800 52 16950833696911499937
14767858 380 18060700576231080219
14904525 67 17535458233417069669
14931854 50 18130237025268317148
15082195 135 18272651199872769938
16989378 47 16415183616486014645
16994733 274 17458344100902021733
19304144 158 18337672035140842830
19438510 23 17312819343103749345
20511986 3 18339358673662193478
20715895 44 18334012792066674518
21033648 29 16660652868984665426
21049683 271 17909557495068903795
21814621 53 17386294194502431723
23559900 14 18058727056223658016
23569914 2 16373496668316471477
24771750 20 17912364526462501833
2838139 119 17967529099112423295
3388396 114 17988374697926677648
3534868 343 17772755957392382518
4098825 35 18334294288565440975
4173938 306 18339910607114879848
4394409 98 18343303712307442364
999808 66 9727643803955532158

>  <PUBCHEM_SHAPE_MULTIPOLES>  (1) 
702.54
19.44
4.4
2.61
4.21
0.34
-2.44
-15.31
13.52
1.74
1.52
-1.04
-2.6
1.06

>  <PUBCHEM_SHAPE_SELFOVERLAP>  (1) 
1523.047

>  <PUBCHEM_SHAPE_VOLUME>  (1) 
385.6

>  <PUBCHEM_COORDINATE_TYPE>  (1) 
2
5
10

$$$$
