44165
     RDKit          3D

 27 30  0  0  0  0  0  0  0  0999 V2000
   -4.4979    0.5795   -0.2472 S   0  0  0  0  0  0  0  0  0  0  0  0
    7.0684    0.1570   -1.5253 O   0  0  0  0  0  0  0  0  0  0  0  0
   -1.2568   -5.3385   -0.2701 O   0  0  0  0  0  0  0  0  0  0  0  0
    3.4545    0.8904    0.4550 N   0  0  0  0  0  0  0  0  0  0  0  0
   -1.5113    0.6628    0.6123 N   0  0  0  0  0  0  0  0  0  0  0  0
    3.5266   -0.3241   -0.3702 C   0  0  0  0  0  0  0  0  0  0  0  0
    4.6832    1.0749    1.2404 C   0  0  0  0  0  0  0  0  0  0  0  0
    6.0234   -0.0404   -0.5816 C   0  0  0  0  0  0  0  0  0  0  0  0
    4.7138   -0.2660   -1.3306 C   0  0  0  0  0  0  0  0  0  0  0  0
    5.9068    1.1776    0.3306 C   0  0  0  0  0  0  0  0  0  0  0  0
    2.2871    0.8424    1.3351 C   0  0  0  0  0  0  0  0  0  0  0  0
    0.9781    0.7537    0.5451 C   0  0  0  0  0  0  0  0  0  0  0  0
   -0.2798    0.7141    1.4108 C   0  0  0  0  0  0  0  0  0  0  0  0
   -2.0194   -0.6179    0.2778 C   0  0  0  0  0  0  0  0  0  0  0  0
   -2.0619    1.8964    0.1817 C   0  0  0  0  0  0  0  0  0  0  0  0
   -3.3522   -0.7816   -0.1489 C   0  0  0  0  0  0  0  0  0  0  0  0
   -3.3989    1.9819   -0.2547 C   0  0  0  0  0  0  0  0  0  0  0  0
   -1.2135   -1.7767    0.3206 C   0  0  0  0  0  0  0  0  0  0  0  0
   -1.2957    3.0816    0.1350 C   0  0  0  0  0  0  0  0  0  0  0  0
   -3.8490   -2.0531   -0.4865 C   0  0  0  0  0  0  0  0  0  0  0  0
   -1.7109   -3.0374   -0.0208 C   0  0  0  0  0  0  0  0  0  0  0  0
   -3.9379    3.2065   -0.6876 C   0  0  0  0  0  0  0  0  0  0  0  0
   -3.0311   -3.1761   -0.4215 C   0  0  0  0  0  0  0  0  0  0  0  0
   -1.8351    4.2950   -0.3008 C   0  0  0  0  0  0  0  0  0  0  0  0
   -3.1585    4.3583   -0.7093 C   0  0  0  0  0  0  0  0  0  0  0  0
   -0.8423   -4.2027    0.0354 C   0  0  0  0  0  0  0  0  0  0  0  0
    0.6105   -4.0578    0.4752 C   0  0  0  0  0  0  0  0  0  0  0  0
  1 16  1  0
  1 17  1  0
  2  8  1  0
  3 26  2  0
  4  6  1  0
  4  7  1  0
  4 11  1  0
  5 13  1  0
  5 14  1  0
  5 15  1  0
  6  9  1  0
  7 10  1  0
  8  9  1  0
  8 10  1  0
 11 12  1  0
 12 13  1  0
 14 16  2  0
 14 18  1  0
 15 17  2  0
 15 19  1  0
 16 20  1  0
 17 22  1  0
 18 21  2  0
 19 24  2  0
 20 23  2  0
 21 23  1  0
 21 26  1  0
 22 25  2  0
 24 25  1  0
 26 27  1  0
M  END
>  <PUBCHEM_COMPOUND_CID>  (1) 
44165

>  <PUBCHEM_CONFORMER_RMSD>  (1) 
0.8

>  <PUBCHEM_CONFORMER_DIVERSEORDER>  (1) 
1
6
80
25
10
20
57
23
58
74
54
50
75
39
32
2
48
14
21
77
44
65
81
17
63
30
40
82
78
67
31
62
22
43
76
28
4
8
13
61
64
11
3
24
12
49
83
47
9
69
71
56
70
72
55
38
34
73
60
19
29
27
33
18
26
59
51
16
35
46
45
53
68
37
79
5
41
7
15
42
52
66
36

>  <PUBCHEM_MMFF94_PARTIAL_CHARGES>  (1) 
32
1 -0.2
11 0.27
13 0.37
14 0.1
15 0.1
16 0.1
17 0.1
18 -0.15
19 -0.15
2 -0.68
20 -0.15
21 0.09
22 -0.15
23 -0.15
24 -0.15
25 -0.15
26 0.42
27 0.06
3 -0.57
4 -0.81
43 0.4
44 0.15
45 0.15
46 0.15
47 0.15
48 0.15
49 0.15
5 -0.57
50 0.15
6 0.27
7 0.27
8 0.28

>  <PUBCHEM_EFFECTIVE_ROTOR_COUNT>  (1) 
6.6

>  <PUBCHEM_PHARMACOPHORE_FEATURES>  (1) 
9
1 2 acceptor
1 2 donor
1 3 acceptor
1 4 cation
1 5 cation
6 1 5 14 15 16 17 rings
6 14 16 18 20 21 23 rings
6 15 17 19 22 24 25 rings
6 4 6 7 8 9 10 rings

>  <PUBCHEM_HEAVY_ATOM_COUNT>  (1) 
27

>  <PUBCHEM_ATOM_DEF_STEREO_COUNT>  (1) 
0

>  <PUBCHEM_ATOM_UDEF_STEREO_COUNT>  (1) 
0

>  <PUBCHEM_BOND_DEF_STEREO_COUNT>  (1) 
0

>  <PUBCHEM_BOND_UDEF_STEREO_COUNT>  (1) 
0

>  <PUBCHEM_ISOTOPIC_ATOM_COUNT>  (1) 
0

>  <PUBCHEM_COMPONENT_COUNT>  (1) 
1

>  <PUBCHEM_CACTVS_TAUTO_COUNT>  (1) 
2

>  <PUBCHEM_CONFORMER_ID>  (1) 
0000AC8500000001

>  <PUBCHEM_MMFF94_ENERGY>  (1) 
80.2931

>  <PUBCHEM_FEATURE_SELFOVERLAP>  (1) 
45.702

>  <PUBCHEM_SHAPE_FINGERPRINT>  (1) 
10165383 225 18270971124916022481
10319688 140 16537076870905252234
10411042 1 18049156967530197963
107951 10 18341612568765843967
11014199 57 17905606953651982146
11049842 53 17834373645569000232
11056379 131 18411139147377487996
11200772 71 18115885142988233476
12788726 201 18261100924258511970
13402501 40 18059581346846811406
13617811 41 18334574681152345117
13761468 95 17605548834931863164
13785724 45 17545328930908254995
138480 1 16970542214879148435
14251757 5 18337113461805970900
14790565 3 18053666880659397057
14910302 57 18342734135478121304
14955137 171 18045510969956186763
15230672 131 18264491673092562982
15439362 3 17616530657937824388
15463212 79 18261390014317609696
15927050 60 18198617740874852693
15961568 22 17975966885211779120
167882 2 17832424198552141929
17627616 140 18266181630490055810
18785283 64 17401768519699789937
19958102 18 18410567362744475750
20101258 96 18190468357804767737
20642791 178 17834104252340548107
20693207 138 18059859514793474440
21033650 10 18261117378964161520
22122407 14 15430037638621604581
22393880 68 18341614777027789086
23366157 5 17541088771878641163
23559900 14 18200869699180828720
24771750 20 17690559685373199685
255183 451 17692529331489342239
3298306 158 18127402359088941198
4015057 19 16917055686046909032
4280585 95 18049989293131035136
4394409 98 18187355520233211445
5085150 59 18200020739108428274
508706 21 18342736368792647366
5265222 85 18410863178448643588
5283173 99 18412544310632335416
531348 171 18335986359688100394
9981440 41 18262807250604369171

>  <PUBCHEM_SHAPE_MULTIPOLES>  (1) 
537.8
11.96
6.45
1.07
25.23
4.42
-0.02
-5.7
4.01
-8.67
0.83
1.18
-0.26
0.8

>  <PUBCHEM_SHAPE_SELFOVERLAP>  (1) 
1135.635

>  <PUBCHEM_SHAPE_VOLUME>  (1) 
302.1

>  <PUBCHEM_COORDINATE_TYPE>  (1) 
2
5
10

$$$$
