44168
     RDKit          3D

 19 20  0  0  0  0  0  0  0  0999 V2000
    0.9345   -1.9141    0.2364 O   0  0  0  0  0  0  0  0  0  0  0  0
    6.4948    0.7752   -0.0543 O   0  0  0  0  0  0  0  0  0  0  0  0
   -5.9441    1.2351   -0.1635 O   0  0  0  0  0  0  0  0  0  0  0  0
   -6.0383   -1.0051    0.1476 O   0  0  0  0  0  0  0  0  0  0  0  0
    0.2650    0.3191   -0.0689 N   0  0  0  0  0  0  0  0  0  0  0  0
    5.2693    0.4288   -0.0265 N   0  0  0  0  0  0  0  0  0  0  0  0
   -1.1280    0.2427   -0.0513 C   0  0  0  0  0  0  0  0  0  0  0  0
    2.6181   -0.3213    0.0367 C   0  0  0  0  0  0  0  0  0  0  0  0
    1.1881   -0.7257    0.0708 C   0  0  0  0  0  0  0  0  0  0  0  0
   -1.7574   -0.9900    0.1224 C   0  0  0  0  0  0  0  0  0  0  0  0
   -1.8915    1.3995   -0.2076 C   0  0  0  0  0  0  0  0  0  0  0  0
   -3.9134    0.0910   -0.0164 C   0  0  0  0  0  0  0  0  0  0  0  0
   -3.1501   -1.0659    0.1398 C   0  0  0  0  0  0  0  0  0  0  0  0
   -3.2842    1.3237   -0.1902 C   0  0  0  0  0  0  0  0  0  0  0  0
    3.5554   -1.2315   -0.3907 C   0  0  0  0  0  0  0  0  0  0  0  0
    2.9578    0.9502    0.4338 C   0  0  0  0  0  0  0  0  0  0  0  0
    4.8901   -0.8408   -0.4179 C   0  0  0  0  0  0  0  0  0  0  0  0
    4.2992    1.3165    0.3973 C   0  0  0  0  0  0  0  0  0  0  0  0
   -5.3654    0.0126    0.0026 C   0  0  0  0  0  0  0  0  0  0  0  0
  1  9  2  0
  2  6  1  0
  3 19  1  0
  4 19  2  0
  5  7  1  0
  5  9  1  0
  6 17  2  0
  6 18  1  0
  7 10  2  0
  7 11  1  0
  8  9  1  0
  8 15  2  0
  8 16  1  0
 10 13  1  0
 11 14  2  0
 12 13  2  0
 12 14  1  0
 12 19  1  0
 15 17  1  0
 16 18  2  0
M  CHG  2   2  -1   6   1
M  END
>  <PUBCHEM_COMPOUND_CID>  (1) 
44168

>  <PUBCHEM_CONFORMER_RMSD>  (1) 
0.6

>  <PUBCHEM_CONFORMER_DIVERSEORDER>  (1) 
1
4
3
2

>  <PUBCHEM_MMFF94_PARTIAL_CHARGES>  (1) 
29
1 -0.57
10 -0.15
11 -0.15
12 0.09
13 -0.15
14 -0.15
15 -0.15
16 -0.15
17 -0.06
18 -0.06
19 0.63
2 -0.75
20 0.37
21 0.15
22 0.15
23 0.15
24 0.15
25 0.15
26 0.15
27 0.15
28 0.15
29 0.5
3 -0.65
4 -0.57
5 -0.55
6 0.57
7 0.12
8 0.09
9 0.54

>  <PUBCHEM_EFFECTIVE_ROTOR_COUNT>  (1) 
4

>  <PUBCHEM_PHARMACOPHORE_FEATURES>  (1) 
8
1 1 acceptor
1 2 anion
1 3 acceptor
1 4 acceptor
1 5 donor
3 3 4 19 anion
6 6 8 15 16 17 18 rings
6 7 10 11 12 13 14 rings

>  <PUBCHEM_HEAVY_ATOM_COUNT>  (1) 
19

>  <PUBCHEM_ATOM_DEF_STEREO_COUNT>  (1) 
0

>  <PUBCHEM_ATOM_UDEF_STEREO_COUNT>  (1) 
0

>  <PUBCHEM_BOND_DEF_STEREO_COUNT>  (1) 
0

>  <PUBCHEM_BOND_UDEF_STEREO_COUNT>  (1) 
0

>  <PUBCHEM_ISOTOPIC_ATOM_COUNT>  (1) 
0

>  <PUBCHEM_COMPONENT_COUNT>  (1) 
1

>  <PUBCHEM_CACTVS_TAUTO_COUNT>  (1) 
3

>  <PUBCHEM_CONFORMER_ID>  (1) 
0000AC8800000001

>  <PUBCHEM_MMFF94_ENERGY>  (1) 
61.5885

>  <PUBCHEM_FEATURE_SELFOVERLAP>  (1) 
40.655

>  <PUBCHEM_SHAPE_FINGERPRINT>  (1) 
10 15 18337101380865249904
10968037 39 18408323298325093911
11287383 113 18412545418126976403
12107183 9 17620477904543734707
12236239 1 17530682099936787243
12403259 415 18411127039638015648
12596602 18 15864360189608014496
12730499 353 18343869922436712842
12916748 109 18410576171854300736
13081056 2 18411980256476511092
13533116 47 13470418725503857852
1420 363 18335144197931562987
14251764 18 18187359931507177154
14341114 176 18411987948615095780
14528608 73 18413668019615019303
15048467 5 18411418393355647977
15196674 1 18410292467283161257
17834072 33 17988639714023804839
17834076 25 17458062672594788875
17844677 252 18271533017573953592
19489759 90 16443061690990321133
200 152 17989486312302191203
20645477 56 18409165519578352255
20645477 70 18059579027791253750
21267235 1 18411427206243255079
21652331 79 18409728447840841172
220451 1 16200432468367722279
221357 26 18130788936823588936
22224240 67 13912603896956740088
23402539 116 18260544554437723575
23402655 69 18202282503055511294
23557571 272 18040718013295644901
23559900 14 18412539942070275305
3004659 81 18335986364241971910
34797466 226 17774731938985739452
351380 180 18410573993989331584
3545911 37 18412545418527896468
4073 2 18114186384411694018
4214541 1 18411982429587661497
42788 4 18411700984775669359
4325135 7 18341891918171456439
4463277 17 18411702067550695529
474229 33 18409167727191938675
5104073 3 18261957319515543225
542803 24 18410855455843763493
59755656 215 18410297986822961342
59755656 520 17676482869603982858
77779 3 18413108346885077566

>  <PUBCHEM_SHAPE_MULTIPOLES>  (1) 
357.57
14.86
1.53
0.64
0.4
0.05
0
-2.1
-0.43
-0.05
0.02
-0.11
0
0.56

>  <PUBCHEM_SHAPE_SELFOVERLAP>  (1) 
774.766

>  <PUBCHEM_SHAPE_VOLUME>  (1) 
194.8

>  <PUBCHEM_COORDINATE_TYPE>  (1) 
2
5
10

$$$$
