44167
     RDKit          3D

 19 20  0  0  0  0  0  0  0  0999 V2000
    1.1866   -2.2857    0.2348 O   0  0  0  0  0  0  0  0  0  0  0  0
    4.1621    2.6642    0.5931 O   0  0  0  0  0  0  0  0  0  0  0  0
   -5.7458    0.8704   -0.0758 O   0  0  0  0  0  0  0  0  0  0  0  0
   -4.2260    2.5237   -0.3610 O   0  0  0  0  0  0  0  0  0  0  0  0
    0.1731   -0.1845   -0.0588 N   0  0  0  0  0  0  0  0  0  0  0  0
    4.0016    1.4484    0.2490 N   0  0  0  0  0  0  0  0  0  0  0  0
   -1.1903   -0.4716    0.0161 C   0  0  0  0  0  0  0  0  0  0  0  0
    2.5986   -0.4582   -0.0445 C   0  0  0  0  0  0  0  0  0  0  0  0
   -2.1275    0.5530   -0.1151 C   0  0  0  0  0  0  0  0  0  0  0  0
    1.2493   -1.0749    0.0506 C   0  0  0  0  0  0  0  0  0  0  0  0
   -3.4904    0.2657   -0.0383 C   0  0  0  0  0  0  0  0  0  0  0  0
   -1.6158   -1.7836    0.2241 C   0  0  0  0  0  0  0  0  0  0  0  0
    2.7566    0.8552    0.3292 C   0  0  0  0  0  0  0  0  0  0  0  0
    3.6512   -1.2138   -0.5021 C   0  0  0  0  0  0  0  0  0  0  0  0
   -3.9159   -1.0464    0.1696 C   0  0  0  0  0  0  0  0  0  0  0  0
   -2.9787   -2.0710    0.3008 C   0  0  0  0  0  0  0  0  0  0  0  0
    4.9088   -0.6266   -0.5867 C   0  0  0  0  0  0  0  0  0  0  0  0
    5.0705    0.7023   -0.2089 C   0  0  0  0  0  0  0  0  0  0  0  0
   -4.4679    1.3333   -0.1758 C   0  0  0  0  0  0  0  0  0  0  0  0
  1 10  2  0
  2  6  1  0
  3 19  1  0
  4 19  2  0
  5  7  1  0
  5 10  1  0
  6 13  2  0
  6 18  1  0
  7  9  2  0
  7 12  1  0
  8 10  1  0
  8 13  1  0
  8 14  2  0
  9 11  1  0
 11 15  2  0
 11 19  1  0
 12 16  2  0
 14 17  1  0
 15 16  1  0
 17 18  2  0
M  CHG  2   2  -1   6   1
M  END
>  <PUBCHEM_COMPOUND_CID>  (1) 
44167

>  <PUBCHEM_CONFORMER_RMSD>  (1) 
0.6

>  <PUBCHEM_CONFORMER_DIVERSEORDER>  (1) 
1
15
17
18
29
3
23
4
26
2
5
16
27
7
25
11
20
8
28
9
24
6
22
10
19
13
21
12
14

>  <PUBCHEM_MMFF94_PARTIAL_CHARGES>  (1) 
29
1 -0.57
10 0.54
11 0.09
12 -0.15
13 -0.06
14 -0.15
15 -0.15
16 -0.15
17 -0.15
18 -0.06
19 0.63
2 -0.75
20 0.37
21 0.15
22 0.15
23 0.15
24 0.15
25 0.15
26 0.15
27 0.15
28 0.15
29 0.5
3 -0.65
4 -0.57
5 -0.55
6 0.57
7 0.12
8 0.09
9 -0.15

>  <PUBCHEM_EFFECTIVE_ROTOR_COUNT>  (1) 
4

>  <PUBCHEM_PHARMACOPHORE_FEATURES>  (1) 
8
1 1 acceptor
1 2 anion
1 3 acceptor
1 4 acceptor
1 5 donor
3 3 4 19 anion
6 6 8 13 14 17 18 rings
6 7 9 11 12 15 16 rings

>  <PUBCHEM_HEAVY_ATOM_COUNT>  (1) 
19

>  <PUBCHEM_ATOM_DEF_STEREO_COUNT>  (1) 
0

>  <PUBCHEM_ATOM_UDEF_STEREO_COUNT>  (1) 
0

>  <PUBCHEM_BOND_DEF_STEREO_COUNT>  (1) 
0

>  <PUBCHEM_BOND_UDEF_STEREO_COUNT>  (1) 
0

>  <PUBCHEM_ISOTOPIC_ATOM_COUNT>  (1) 
0

>  <PUBCHEM_COMPONENT_COUNT>  (1) 
1

>  <PUBCHEM_CACTVS_TAUTO_COUNT>  (1) 
2

>  <PUBCHEM_CONFORMER_ID>  (1) 
0000AC8700000001

>  <PUBCHEM_MMFF94_ENERGY>  (1) 
61.1921

>  <PUBCHEM_FEATURE_SELFOVERLAP>  (1) 
40.656

>  <PUBCHEM_SHAPE_FINGERPRINT>  (1) 
10014705 185 18408885144340096727
10498660 4 18411136935115727400
10608611 8 18411136948010983818
10646746 165 18408041823100580302
11089746 13 18410566267327497910
11405975 8 18407757032409299306
11595378 159 16660634112134698125
12390115 104 18197510532597604073
12403259 415 18341056323614911552
12596602 18 14779561083599195948
13081056 2 18411984693135464890
14252887 29 12685089259693560882
14528608 73 18413103970176331143
15196674 1 18410856589709841890
15239154 128 18409450292863196837
17834072 32 18411702075665798471
17834072 33 18202560691992110455
17844677 252 18410864290723444672
17959699 21 18411700980359636264
18186145 218 18259697909120223886
200 152 16271925978538703267
20645477 56 18334579014827171847
20645477 70 17632303328600702854
21065198 57 18410013256060450038
212847 35 18333734607282533494
21315763 129 18411416250071742350
21452121 103 18341885325660544072
21709351 56 18342453755506867070
221357 26 18201719522378429552
22289505 5 18272374153334291660
23227448 37 18411980299552609581
23402539 116 18413665816186189262
23402655 69 18343865532953431486
23557571 272 18339653320607353391
23559900 14 18270680866430361066
245318 6 16593665324652310668
2916195 48 18270955873333634152
335352 9 18410856526087536934
3545911 37 18409452466343365591
4028521 119 18412546496274505065
4214541 1 18411139142728631607
474 4 17748834024476509868
495365 180 17703780445250318938
5104073 3 18334295366006445891
542803 24 17458067070884036134
633830 44 18410287043161817198
77779 3 18411702114441992350
90127 26 18335710472057874274

>  <PUBCHEM_SHAPE_MULTIPOLES>  (1) 
357.57
12.44
2.36
0.67
0.38
0.55
-0.01
5.62
-0.92
-0.53
0.21
0.19
0.01
1.01

>  <PUBCHEM_SHAPE_SELFOVERLAP>  (1) 
774.759

>  <PUBCHEM_SHAPE_VOLUME>  (1) 
195.2

>  <PUBCHEM_COORDINATE_TYPE>  (1) 
2
5
10

$$$$
