4418
     RDKit          3D

 29 32  0  0  1  0  0  0  0  0999 V2000
   -2.7073    4.0697   -0.8202 O   0  0  0  0  0  0  0  0  0  0  0  0
   -3.4854    1.5352    0.0177 O   0  0  0  0  0  0  0  0  0  0  0  0
    4.5791   -0.1462   -1.6463 O   0  0  0  0  0  0  0  0  0  0  0  0
    0.0167    1.5857   -0.4203 N   0  0  0  0  0  0  0  0  0  0  0  0
    2.5800    0.5099    0.2364 N   0  0  0  0  0  0  0  0  0  0  0  0
    0.7711    0.8076   -1.4109 C   0  0  0  0  0  0  0  0  0  0  0  0
    0.9431    2.3402    0.4325 C   0  0  0  0  0  0  0  0  0  0  0  0
    1.7154   -0.1835   -0.7267 C   0  0  0  0  0  0  0  0  0  0  0  0
    1.8944    1.4006    1.1777 C   0  0  0  0  0  0  0  0  0  0  0  0
   -0.9211    2.4899   -1.0848 C   0  0  0  0  0  0  0  0  0  0  0  0
   -1.8009    3.2433   -0.0843 C   0  0  0  0  0  0  0  0  0  0  0  0
    3.7746   -0.1130    0.6149 C   0  0  0  0  0  0  0  0  0  0  0  0
   -2.6115    2.3203    0.8230 C   0  0  0  0  0  0  0  0  0  0  0  0
    4.7706   -0.4389   -0.3289 C   0  0  0  0  0  0  0  0  0  0  0  0
    4.0158   -0.4343    1.9662 C   0  0  0  0  0  0  0  0  0  0  0  0
    5.9570   -1.0593    0.0626 C   0  0  0  0  0  0  0  0  0  0  0  0
    5.2022   -1.0549    2.3575 C   0  0  0  0  0  0  0  0  0  0  0  0
    6.1727   -1.3674    1.4058 C   0  0  0  0  0  0  0  0  0  0  0  0
   -3.7909    0.2836    0.4815 C   0  0  0  0  0  0  0  0  0  0  0  0
   -3.4808   -0.8639   -0.2633 C   0  0  0  0  0  0  0  0  0  0  0  0
   -3.8174   -2.1358    0.2579 C   0  0  0  0  0  0  0  0  0  0  0  0
   -4.4224    0.1847    1.7199 C   0  0  0  0  0  0  0  0  0  0  0  0
    5.6254   -0.5024   -2.5473 C   0  0  0  0  0  0  0  0  0  0  0  0
   -2.8448   -0.7801   -1.5126 C   0  0  0  0  0  0  0  0  0  0  0  0
   -4.4532   -2.2198    1.5075 C   0  0  0  0  0  0  0  0  0  0  0  0
   -4.7532   -1.0662    2.2326 C   0  0  0  0  0  0  0  0  0  0  0  0
   -3.5081   -3.2865   -0.4853 C   0  0  0  0  0  0  0  0  0  0  0  0
   -2.5451   -1.9338   -2.2377 C   0  0  0  0  0  0  0  0  0  0  0  0
   -2.8763   -3.1847   -1.7251 C   0  0  0  0  0  0  0  0  0  0  0  0
  1 11  1  0
  2 13  1  0
  2 19  1  0
  3 14  1  0
  3 23  1  0
  4  6  1  0
  4  7  1  0
  4 10  1  0
  5  8  1  0
  5  9  1  0
  5 12  1  0
  6  8  1  0
  7  9  1  0
 10 11  1  0
 11 13  1  0
 12 14  2  0
 12 15  1  0
 14 16  1  0
 15 17  2  0
 16 18  2  0
 17 18  1  0
 19 20  1  0
 19 22  2  0
 20 21  2  0
 20 24  1  0
 21 25  1  0
 21 27  1  0
 22 26  1  0
 24 28  2  0
 25 26  2  0
 27 29  2  0
 28 29  1  0
M  END
>  <PUBCHEM_COMPOUND_CID>  (1) 
4418

>  <PUBCHEM_CONFORMER_RMSD>  (1) 
1.2

>  <PUBCHEM_CONFORMER_DIVERSEORDER>  (1) 
5
344
503
190
169
30
43
261
329
59
452
434
285
20
181
303
105
163
322
158
173
155
511
345
55
137
268
110
167
499
336
222
38
64
33
255
247
410
48
305
471
49
347
115
192
24
66
509
162
9
95
31
351
383
177
32
260
290
132
178
368
342
99
18
79
74
204
335
501
404
126
218
297
328
500
25
41
148
273
340
29
131
27
108
201
80
394
254
60
19
392
4
47
11
45
420
300
56
7
397
129
113
186
293
362
98
355
172
15
14
82
121
313
72
3
438
70
17
42
26
90
1
226
228
10
161
6
44

>  <PUBCHEM_MMFF94_PARTIAL_CHARGES>  (1) 
39
1 -0.68
10 0.27
11 0.28
12 0.1
13 0.28
14 0.08
15 -0.15
16 -0.15
17 -0.15
18 -0.15
19 0.08
2 -0.36
22 -0.15
23 0.28
24 -0.15
25 -0.15
26 -0.15
27 -0.15
28 -0.15
29 -0.15
3 -0.36
4 -0.81
43 0.15
44 0.4
45 0.15
46 0.15
47 0.15
48 0.15
5 -0.84
52 0.15
53 0.15
54 0.15
55 0.15
56 0.15
57 0.15
6 0.27
7 0.27
8 0.37
9 0.37

>  <PUBCHEM_EFFECTIVE_ROTOR_COUNT>  (1) 
8.2

>  <PUBCHEM_PHARMACOPHORE_FEATURES>  (1) 
10
1 1 acceptor
1 1 donor
1 2 acceptor
1 3 acceptor
1 4 cation
1 5 cation
6 12 14 15 16 17 18 rings
6 19 20 21 22 25 26 rings
6 20 21 24 27 28 29 rings
6 4 5 6 7 8 9 rings

>  <PUBCHEM_HEAVY_ATOM_COUNT>  (1) 
29

>  <PUBCHEM_ATOM_DEF_STEREO_COUNT>  (1) 
0

>  <PUBCHEM_ATOM_UDEF_STEREO_COUNT>  (1) 
1

>  <PUBCHEM_BOND_DEF_STEREO_COUNT>  (1) 
0

>  <PUBCHEM_BOND_UDEF_STEREO_COUNT>  (1) 
0

>  <PUBCHEM_ISOTOPIC_ATOM_COUNT>  (1) 
0

>  <PUBCHEM_COMPONENT_COUNT>  (1) 
1

>  <PUBCHEM_CACTVS_TAUTO_COUNT>  (1) 
1

>  <PUBCHEM_CONFORMER_ID>  (1) 
0000114200000005

>  <PUBCHEM_MMFF94_ENERGY>  (1) 
110.5851

>  <PUBCHEM_FEATURE_SELFOVERLAP>  (1) 
50.78

>  <PUBCHEM_SHAPE_FINGERPRINT>  (1) 
10462674 125 15693456611801941918
10483366 6 18196905878880433013
10928967 22 18261946453169967930
11135609 99 18050274879368030994
11370993 144 16702310035323088246
11524674 6 18059571322704229421
11991303 11 17751065922008345485
12422481 6 17917724512340484343
12633257 1 17632582690405803417
13103583 49 18271529783495098403
14114206 34 17676754444917894025
14674994 50 17702641359778197053
14844126 61 18337380566022764585
15537594 2 18261399939860625210
15685185 35 17103434082982657148
16110190 28 18200609093228370345
16991981 162 14635964822415523119
19377110 9 18260263075783314892
20775530 9 18191587656315240243
21033648 29 17703235005483178137
22393880 68 13479400661549966274
3383291 50 18272644641895506863
3459 110 17560221652406566656
44880168 125 17988653960219855798
484985 159 18262783121736959359
497634 4 16443355260336331459
508706 21 18201997707452104294
602551 16 18343299245805009958
6431902 208 18113610188578633002
7970288 3 18115028627176874923

>  <PUBCHEM_SHAPE_MULTIPOLES>  (1) 
569.24
14.22
3.75
2.34
17.13
1.86
0.01
-9.11
4.31
-5.68
-1.07
1.01
-1.12
-0.68

>  <PUBCHEM_SHAPE_SELFOVERLAP>  (1) 
1223.453

>  <PUBCHEM_SHAPE_VOLUME>  (1) 
314.4

>  <PUBCHEM_COORDINATE_TYPE>  (1) 
2
5
10

$$$$
