44194
     RDKit          3D

 17 18  0  0  0  0  0  0  0  0999 V2000
   -4.5597   -1.4399   -0.1215 Cl  0  0  0  0  0  0  0  0  0  0  0  0
    1.9428   -1.4887   -0.3143 O   0  0  0  0  0  0  0  0  0  0  0  0
    1.0488    3.4756   -0.1084 O   0  0  0  0  0  0  0  0  0  0  0  0
   -0.5489    1.7980   -0.3606 N   0  0  0  0  0  0  0  0  0  0  0  0
    2.0122    0.5394    0.7358 N   0  0  0  0  0  0  0  0  0  0  0  0
   -1.0044    0.4556   -0.1008 C   0  0  0  0  0  0  0  0  0  0  0  0
   -0.1381   -0.6053    0.2371 C   0  0  0  0  0  0  0  0  0  0  0  0
    1.3245   -0.4404    0.2732 C   0  0  0  0  0  0  0  0  0  0  0  0
    0.5909    2.3755    0.2131 C   0  0  0  0  0  0  0  0  0  0  0  0
    1.2420    1.6108    1.3371 C   0  0  0  0  0  0  0  0  0  0  0  0
   -2.3773    0.1568   -0.2178 C   0  0  0  0  0  0  0  0  0  0  0  0
   -0.6451   -1.8920    0.4946 C   0  0  0  0  0  0  0  0  0  0  0  0
   -1.3511    2.6287   -1.2607 C   0  0  0  0  0  0  0  0  0  0  0  0
   -2.8739   -1.1254    0.0319 C   0  0  0  0  0  0  0  0  0  0  0  0
   -2.0090   -2.1478    0.3957 C   0  0  0  0  0  0  0  0  0  0  0  0
    3.3582   -1.3458   -0.2884 C   0  0  0  0  0  0  0  0  0  0  0  0
    3.9881   -2.5551   -0.9459 C   0  0  0  0  0  0  0  0  0  0  0  0
  1 14  1  0
  2  8  1  0
  2 16  1  0
  3  9  2  0
  4  6  1  0
  4  9  1  0
  4 13  1  0
  5  8  2  0
  5 10  1  0
  6  7  2  0
  6 11  1  0
  7  8  1  0
  7 12  1  0
  9 10  1  0
 11 14  2  0
 12 15  2  0
 14 15  1  0
 16 17  1  0
M  END
>  <PUBCHEM_COMPOUND_CID>  (1) 
44194

>  <PUBCHEM_CONFORMER_RMSD>  (1) 
0.6

>  <PUBCHEM_CONFORMER_DIVERSEORDER>  (1) 
1
2
5
4
3

>  <PUBCHEM_MMFF94_PARTIAL_CHARGES>  (1) 
19
1 -0.18
10 0.31
11 -0.15
12 -0.15
13 0.3
14 0.18
15 -0.15
16 0.28
2 -0.43
20 0.15
21 0.15
25 0.15
3 -0.57
4 -0.48
5 -0.7
6 0.12
7 0.09
8 0.51
9 0.57

>  <PUBCHEM_EFFECTIVE_ROTOR_COUNT>  (1) 
2.4

>  <PUBCHEM_PHARMACOPHORE_FEATURES>  (1) 
3
1 3 acceptor
6 6 7 11 12 14 15 rings
7 4 5 6 7 8 9 10 rings

>  <PUBCHEM_HEAVY_ATOM_COUNT>  (1) 
17

>  <PUBCHEM_ATOM_DEF_STEREO_COUNT>  (1) 
0

>  <PUBCHEM_ATOM_UDEF_STEREO_COUNT>  (1) 
0

>  <PUBCHEM_BOND_DEF_STEREO_COUNT>  (1) 
0

>  <PUBCHEM_BOND_UDEF_STEREO_COUNT>  (1) 
0

>  <PUBCHEM_ISOTOPIC_ATOM_COUNT>  (1) 
0

>  <PUBCHEM_COMPONENT_COUNT>  (1) 
1

>  <PUBCHEM_CACTVS_TAUTO_COUNT>  (1) 
1

>  <PUBCHEM_CONFORMER_ID>  (1) 
0000ACA200000001

>  <PUBCHEM_MMFF94_ENERGY>  (1) 
64.4983

>  <PUBCHEM_FEATURE_SELFOVERLAP>  (1) 
15.233

>  <PUBCHEM_SHAPE_FINGERPRINT>  (1) 
10967382 1 18120369015350388025
11680986 33 18192155025848343443
116883 192 18409720777414366021
12138202 78 18338797943410194715
12524768 44 18192140723369533035
13140716 1 18195231239938459368
13380535 76 17686610656069842883
14022347 108 17967527995669948499
14648413 74 18047192131170551115
14761567 1 17688288115244223613
14790565 3 17691698792062195760
16945 1 18196653119058205817
17357779 13 18337938035471146823
17990270 104 18193551388008144067
19591789 44 17403744341814899601
20510252 161 18195248819577276610
20588541 1 18265891539454716064
20645476 183 17610065564073179438
20645477 70 18192981850218826127
20871998 22 18412260653210533360
20871999 31 18336267816894195670
21160774 45 17977953375571581681
21296965 67 18413109433290614690
22182313 1 18267563789171630084
22802520 49 18199459970533338192
2334 1 18337940216987738497
23352939 185 18270695232910797968
23402539 116 18269271266289466654
23419403 2 17773571893645528864
23557571 272 18339643344110429126
23559900 14 18268425909303763682
2748010 2 18267563763401806896
57262259 84 18126015866441967310
7364860 26 18196374946673910328
81228 2 18125460626150047146
84936 31 17417814019089858108
9709674 26 18120934160243873803

>  <PUBCHEM_SHAPE_MULTIPOLES>  (1) 
330.02
5.67
3.64
0.95
0.84
2.31
0
-5.7
1.15
-1.31
0.61
-0.26
0.27
1.31

>  <PUBCHEM_SHAPE_SELFOVERLAP>  (1) 
690.669

>  <PUBCHEM_SHAPE_VOLUME>  (1) 
187.9

>  <PUBCHEM_COORDINATE_TYPE>  (1) 
2
5
10

$$$$
