44215
     RDKit          3D

 13 13  0  0  0  0  0  0  0  0999 V2000
    1.1640    3.1995    0.1779 Cl  0  0  0  0  0  0  0  0  0  0  0  0
    1.9056   -1.8287   -0.4046 O   0  0  0  0  0  0  0  0  0  0  0  0
    2.8534    0.7508   -0.1823 O   0  0  0  0  0  0  0  0  0  0  0  0
   -2.9479   -1.5818   -0.0991 O   0  0  0  0  0  0  0  0  0  0  0  0
   -3.5421    0.5956    0.1700 O   0  0  0  0  0  0  0  0  0  0  0  0
    1.0388   -0.7901   -0.2431 C   0  0  0  0  0  0  0  0  0  0  0  0
   -1.2311    0.0086   -0.0265 C   0  0  0  0  0  0  0  0  0  0  0  0
   -0.3317   -1.0446   -0.1914 C   0  0  0  0  0  0  0  0  0  0  0  0
    1.5100    0.5180   -0.1298 C   0  0  0  0  0  0  0  0  0  0  0  0
   -0.7600    1.3166    0.0866 C   0  0  0  0  0  0  0  0  0  0  0  0
    0.6105    1.5714    0.0350 C   0  0  0  0  0  0  0  0  0  0  0  0
   -2.6599   -0.2574    0.0276 C   0  0  0  0  0  0  0  0  0  0  0  0
    2.3906   -2.4579    0.7798 C   0  0  0  0  0  0  0  0  0  0  0  0
  1 11  1  0
  2  6  1  0
  2 13  1  0
  3  9  1  0
  4 12  1  0
  5 12  2  0
  6  8  2  0
  6  9  1  0
  7  8  1  0
  7 10  2  0
  7 12  1  0
  9 11  2  0
 10 11  1  0
M  END
>  <PUBCHEM_COMPOUND_CID>  (1) 
44215

>  <PUBCHEM_CONFORMER_RMSD>  (1) 
0.6

>  <PUBCHEM_CONFORMER_DIVERSEORDER>  (1) 
1
3
2

>  <PUBCHEM_MMFF94_PARTIAL_CHARGES>  (1) 
17
1 -0.18
10 -0.15
11 0.18
12 0.63
13 0.28
14 0.15
15 0.15
19 0.45
2 -0.36
20 0.5
3 -0.53
4 -0.65
5 -0.57
6 0.08
7 0.09
8 -0.15
9 0.08

>  <PUBCHEM_EFFECTIVE_ROTOR_COUNT>  (1) 
2

>  <PUBCHEM_PHARMACOPHORE_FEATURES>  (1) 
6
1 2 acceptor
1 3 donor
1 4 acceptor
1 5 acceptor
3 4 5 12 anion
6 6 7 8 9 10 11 rings

>  <PUBCHEM_HEAVY_ATOM_COUNT>  (1) 
13

>  <PUBCHEM_ATOM_DEF_STEREO_COUNT>  (1) 
0

>  <PUBCHEM_ATOM_UDEF_STEREO_COUNT>  (1) 
0

>  <PUBCHEM_BOND_DEF_STEREO_COUNT>  (1) 
0

>  <PUBCHEM_BOND_UDEF_STEREO_COUNT>  (1) 
0

>  <PUBCHEM_ISOTOPIC_ATOM_COUNT>  (1) 
0

>  <PUBCHEM_COMPONENT_COUNT>  (1) 
1

>  <PUBCHEM_CACTVS_TAUTO_COUNT>  (1) 
4

>  <PUBCHEM_CONFORMER_ID>  (1) 
0000ACB700000001

>  <PUBCHEM_MMFF94_ENERGY>  (1) 
44.189

>  <PUBCHEM_FEATURE_SELFOVERLAP>  (1) 
30.504

>  <PUBCHEM_SHAPE_FINGERPRINT>  (1) 
1 1 18194400215263988628
10130415 120 18264208011206650851
10967382 1 18411420583488061197
13380535 76 17621598749606768412
14648413 74 18409450327666163985
14817 1 11448074713096909908
15442244 35 18340489942003979529
16945 1 18338514239419485885
17990270 104 18410855486114444875
19021347 11 18337953514306609654
19021347 4 17617938475197299216
193761 8 18050851022605883996
20645476 183 17536889036866466036
20645477 70 18199468943031698151
20711985 365 18048597019152040661
20871998 184 17695897844021226534
20871998 22 18126571115492867342
21040471 1 17619349148605342116
21501502 16 18339082562424603645
21524375 3 17767404947637079516
2334 1 18339362954979800500
23463225 33 18338517434890919854
23552423 10 18339363088445364717
241688 4 18194686951670569560
257057 1 18265320721031582986
2748010 2 18268425729009978884
3071541 236 16969680773278189672
53812653 166 18342736359843886784
63268167 104 18411143523901345761
7364860 26 18341613758413736104
81228 2 17764032358890392456

>  <PUBCHEM_SHAPE_MULTIPOLES>  (1) 
245.93
4.25
2.95
0.67
2.94
1.15
-0.04
-1.48
-0.24
-2.21
-0.41
-0.15
-0.1
-0.28

>  <PUBCHEM_SHAPE_SELFOVERLAP>  (1) 
508.977

>  <PUBCHEM_SHAPE_VOLUME>  (1) 
142.8

>  <PUBCHEM_COORDINATE_TYPE>  (1) 
2
5
10

$$$$
