44229
     RDKit          3D

 18 18  0  0  0  0  0  0  0  0999 V2000
    3.4612   -0.3995   -1.6379 O   0  0  0  0  0  0  0  0  0  0  0  0
   -0.4381   -1.1323    1.4594 O   0  0  0  0  0  0  0  0  0  0  0  0
    4.5012   -0.3424    0.4383 N   0  0  0  0  0  0  0  0  0  0  0  0
   -1.4734   -1.1676   -0.6179 N   0  0  0  0  0  0  0  0  0  0  0  0
   -2.7045   -1.3902   -0.0729 N   0  0  0  0  0  0  0  0  0  0  0  0
    2.1204   -0.6742    0.3614 C   0  0  0  0  0  0  0  0  0  0  0  0
    5.8487   -0.1295   -0.0369 C   0  0  0  0  0  0  0  0  0  0  0  0
    0.8958   -0.8092   -0.5374 C   0  0  0  0  0  0  0  0  0  0  0  0
    6.1916    1.3497   -0.1668 C   0  0  0  0  0  0  0  0  0  0  0  0
    3.4116   -0.4603   -0.4125 C   0  0  0  0  0  0  0  0  0  0  0  0
   -0.3906   -1.0516    0.2349 C   0  0  0  0  0  0  0  0  0  0  0  0
    6.1055    2.0921    1.1591 C   0  0  0  0  0  0  0  0  0  0  0  0
   -3.6451   -0.3534   -0.0505 C   0  0  0  0  0  0  0  0  0  0  0  0
   -4.7938   -0.4566    0.7435 C   0  0  0  0  0  0  0  0  0  0  0  0
   -3.4477    0.7981   -0.8222 C   0  0  0  0  0  0  0  0  0  0  0  0
   -5.7311    0.5762    0.7652 C   0  0  0  0  0  0  0  0  0  0  0  0
   -4.3850    1.8308   -0.8003 C   0  0  0  0  0  0  0  0  0  0  0  0
   -5.5268    1.7198   -0.0065 C   0  0  0  0  0  0  0  0  0  0  0  0
  1 10  2  0
  2 11  2  0
  3  7  1  0
  3 10  1  0
  4  5  1  0
  4 11  1  0
  5 13  1  0
  6  8  1  0
  6 10  1  0
  7  9  1  0
  8 11  1  0
  9 12  1  0
 13 14  2  0
 13 15  1  0
 14 16  1  0
 15 17  2  0
 16 18  2  0
 17 18  1  0
M  END
>  <PUBCHEM_COMPOUND_CID>  (1) 
44229

>  <PUBCHEM_CONFORMER_RMSD>  (1) 
0.8

>  <PUBCHEM_CONFORMER_DIVERSEORDER>  (1) 
2
275
25
214
189
269
135
101
19
74
21
246
130
48
199
249
207
238
166
264
153
193
58
148
230
57
244
81
79
247
212
233
165
227
134
177
200
197
191
85
281
96
271
268
206
155
73
178
257
62
122
146
93
105
119
231
47
160
16
104
140
149
253
63
202
114
175
10
279
116
203
108
9
187
254
90
139
152
222
209
183
258
241
156
94
103
78
127
129
251
110
280
136
169
24
100
68
173
76
240
3
228
77
259
53
226
107
215
274
168
80
126
34
128
261
113
99
250
117
31
112
217
8
123
64
70
270
71
5
18
143
147
30
184
69
201
61
181
151
273
248
276
35
132
171
204
46
278
60
20
65
211
86
194
125
121
7
262
196
49
38
144
188
27
256
245
91
142
235
42
225
67
50
89
243
120
13
242
161
43
11
162
22
210
82
180
272
218
223
145
164
167
163
192
1
159
115
266
232
157
59
263
32
137
179
44
88
36
98
158
87
26
17
97
111
55
72
66
239
185
51
131
4
216
29
41
45
84
37
229
124
15
12
14
52
234
83
154
213
6
40
102
182
118
23
150
75
174
190
198
172
170
224
221
138
186
54
219
277
208
133
205
109
260
265
39
33
252
267
92
56
236
220
237
255
106
176
95
141
195
28

>  <PUBCHEM_MMFF94_PARTIAL_CHARGES>  (1) 
24
1 -0.57
10 0.57
11 0.57
13 0.1
14 -0.15
15 -0.15
16 -0.15
17 -0.15
18 -0.15
2 -0.57
27 0.37
3 -0.73
31 0.37
32 0.4
33 0.15
34 0.15
35 0.15
36 0.15
37 0.15
4 -0.41
5 -0.52
6 0.06
7 0.3
8 0.06

>  <PUBCHEM_EFFECTIVE_ROTOR_COUNT>  (1) 
9

>  <PUBCHEM_PHARMACOPHORE_FEATURES>  (1) 
7
1 1 acceptor
1 12 hydrophobe
1 2 acceptor
1 3 donor
1 4 donor
1 5 donor
6 13 14 15 16 17 18 rings

>  <PUBCHEM_HEAVY_ATOM_COUNT>  (1) 
18

>  <PUBCHEM_ATOM_DEF_STEREO_COUNT>  (1) 
0

>  <PUBCHEM_ATOM_UDEF_STEREO_COUNT>  (1) 
0

>  <PUBCHEM_BOND_DEF_STEREO_COUNT>  (1) 
0

>  <PUBCHEM_BOND_UDEF_STEREO_COUNT>  (1) 
0

>  <PUBCHEM_ISOTOPIC_ATOM_COUNT>  (1) 
0

>  <PUBCHEM_COMPONENT_COUNT>  (1) 
1

>  <PUBCHEM_CACTVS_TAUTO_COUNT>  (1) 
4

>  <PUBCHEM_CONFORMER_ID>  (1) 
0000ACC500000002

>  <PUBCHEM_MMFF94_ENERGY>  (1) 
35.7311

>  <PUBCHEM_FEATURE_SELFOVERLAP>  (1) 
37.098

>  <PUBCHEM_SHAPE_FINGERPRINT>  (1) 
10354089 29 17095245804692927574
10692045 39 17822840993245138202
117890 112 18411698803385924648
12596602 18 17095238112037586560
12616971 3 16081093700765775102
13167372 99 18409729539411380920
13288520 33 10015578407490496059
13533116 47 18114458960511618522
13668630 136 11095880467148292057
14123256 34 10231752318442239476
1420 363 10737289038925748502
14251764 18 16153433878451324270
14528608 73 14476956800991382330
15048467 5 18272370871208955658
15183329 4 17489590065073523088
15501527 16 18411419505583112687
15716309 27 12829208875289978466
15880784 105 13118297987683017477
16079462 125 18130782387093050928
17870717 6 11743838062965471285
18222031 100 12103844549388330442
20281389 69 18409728456631086520
20645477 56 18413670214485979207
21150785 3 17561356301646847471
21637258 2 8502377707021940886
21682296 61 11819540507684421960
22224240 67 17313106354546304747
23559900 14 10087342410148823839
25122255 55 9007056898082127888
2838139 119 18272360967315473868
2916195 48 18409165519372617520
29717793 49 15913338983603396940
328310 630 17560528399007958768
33382 64 10953730089635665500
465052 167 11241973668310792138
49783359 22 11169911684262379946
5104073 3 17749954341332011265
5718773 13 7853270027144762409
59682541 35 18260840310966495745
960060 61 15051734183738848086

>  <PUBCHEM_SHAPE_MULTIPOLES>  (1) 
343.75
17.89
1.78
1.09
12.11
0.85
0
10.79
2.11
0.02
0.13
0.23
0.06
1.31

>  <PUBCHEM_SHAPE_SELFOVERLAP>  (1) 
686.338

>  <PUBCHEM_SHAPE_VOLUME>  (1) 
201.4

>  <PUBCHEM_COORDINATE_TYPE>  (1) 
2
5
10

$$$$
