44222
     RDKit          3D

 19 20  0  0  0  0  0  0  0  0999 V2000
    5.1127   -0.0014    0.2227 S   0  0  0  0  0  0  0  0  0  0  0  0
    5.7527   -0.0003   -1.2818 O   0  0  0  0  0  0  0  0  0  0  0  0
    5.4819    1.2633    0.8419 O   0  0  0  0  0  0  0  0  0  0  0  0
    5.4531   -1.2652    0.8574 O   0  0  0  0  0  0  0  0  0  0  0  0
   -0.7666    0.0014   -0.5825 N   0  0  0  0  0  0  0  0  0  0  0  0
   -1.3519   -0.0010    0.5261 N   0  0  0  0  0  0  0  0  0  0  0  0
    3.3829   -0.0008   -0.0149 C   0  0  0  0  0  0  0  0  0  0  0  0
    0.6257    0.0010   -0.3907 C   0  0  0  0  0  0  0  0  0  0  0  0
    2.6912   -1.2083   -0.1108 C   0  0  0  0  0  0  0  0  0  0  0  0
    2.6924    1.2076   -0.1074 C   0  0  0  0  0  0  0  0  0  0  0  0
    1.3090   -1.2075   -0.2992 C   0  0  0  0  0  0  0  0  0  0  0  0
    1.3103    1.2085   -0.2958 C   0  0  0  0  0  0  0  0  0  0  0  0
   -5.5011    0.0007   -0.0421 C   0  0  0  0  0  0  0  0  0  0  0  0
   -2.7372   -0.0004    0.3357 C   0  0  0  0  0  0  0  0  0  0  0  0
   -4.8104   -1.2076    0.0491 C   0  0  0  0  0  0  0  0  0  0  0  0
   -4.8101    1.2084    0.0556 C   0  0  0  0  0  0  0  0  0  0  0  0
   -3.4283   -1.2082    0.2381 C   0  0  0  0  0  0  0  0  0  0  0  0
   -3.4280    1.2077    0.2444 C   0  0  0  0  0  0  0  0  0  0  0  0
   -6.9785    0.0020   -0.2458 C   0  0  0  0  0  0  0  0  0  0  0  0
  1  2  1  0
  1  3  2  0
  1  4  2  0
  1  7  1  0
  5  6  2  0
  5  8  1  0
  6 14  1  0
  7  9  2  0
  7 10  1  0
  8 11  2  0
  8 12  1  0
  9 11  1  0
 10 12  2  0
 13 15  2  0
 13 16  1  0
 13 19  1  0
 14 17  2  0
 14 18  1  0
 15 17  1  0
 16 18  2  0
M  END
>  <PUBCHEM_COMPOUND_CID>  (1) 
44222

>  <PUBCHEM_CONFORMER_RMSD>  (1) 
0.6

>  <PUBCHEM_CONFORMER_DIVERSEORDER>  (1) 
1
2

>  <PUBCHEM_MMFF94_PARTIAL_CHARGES>  (1) 
28
1 1.49
10 -0.15
11 -0.15
12 -0.15
13 -0.14
14 0.18
15 -0.15
16 -0.15
17 -0.15
18 -0.15
19 0.14
2 -0.68
20 0.15
21 0.15
22 0.15
23 0.15
24 0.15
25 0.15
26 0.15
27 0.15
3 -0.65
31 0.5
4 -0.65
5 -0.18
6 -0.18
7 -0.01
8 0.18
9 -0.15

>  <PUBCHEM_EFFECTIVE_ROTOR_COUNT>  (1) 
3

>  <PUBCHEM_PHARMACOPHORE_FEATURES>  (1) 
6
1 2 acceptor
1 3 acceptor
1 4 acceptor
4 1 2 3 4 anion
6 13 14 15 16 17 18 rings
6 7 8 9 10 11 12 rings

>  <PUBCHEM_HEAVY_ATOM_COUNT>  (1) 
19

>  <PUBCHEM_ATOM_DEF_STEREO_COUNT>  (1) 
0

>  <PUBCHEM_ATOM_UDEF_STEREO_COUNT>  (1) 
0

>  <PUBCHEM_BOND_DEF_STEREO_COUNT>  (1) 
0

>  <PUBCHEM_BOND_UDEF_STEREO_COUNT>  (1) 
0

>  <PUBCHEM_ISOTOPIC_ATOM_COUNT>  (1) 
0

>  <PUBCHEM_COMPONENT_COUNT>  (1) 
1

>  <PUBCHEM_CACTVS_TAUTO_COUNT>  (1) 
1

>  <PUBCHEM_CONFORMER_ID>  (1) 
0000ACBE00000001

>  <PUBCHEM_MMFF94_ENERGY>  (1) 
42.0455

>  <PUBCHEM_FEATURE_SELFOVERLAP>  (1) 
30.503

>  <PUBCHEM_SHAPE_FINGERPRINT>  (1) 
10 15 18270671069873339864
10354089 29 18412262835375705508
10968037 39 18413388744436952743
11315181 36 18410578400989956233
11719270 70 18341890766672568494
11796584 16 16153430558330673026
12107183 9 17689716355273937441
12166972 35 18342177782041059657
12236239 1 17775003492202562407
12507557 5 18343585161620078017
12516196 113 17989487424667345273
12916748 109 16845858979469214432
13073987 5 18335985256013354579
13533116 47 18113894910756308754
1420 363 17775289360904469047
14251764 18 18335423465743274995
14341114 176 18411704287399785281
15788980 27 18335143106846248531
17834072 33 18410856572582720300
17834076 25 17967534575470031839
19489759 90 18411981356357306745
200 152 18202563977963637113
20281389 69 18259982661030601661
20645477 70 18271811150992411175
21033648 29 16916490467975845313
21267235 1 18410865373514080655
21709351 56 18409726287783476261
220451 1 18260271840956913458
22224240 67 18343293791323508426
23402539 116 18410006654990771159
23536379 177 18334574629317429185
23559900 14 18339355383543405601
26918003 58 18409449202484822779
300161 21 18408036304204774371
34797466 226 17418380215996655940
351380 180 18408322202781509257
3545911 37 18411702084651261541
4073 2 17968382345963773946
4214541 1 18409730647512923669
42630746 31 18131634461402479518
42788 4 18342176665348808769
5104073 3 18410298046704265929
542803 24 17385445431470174629
59755656 215 18341900662355995734
67856867 119 18264771128701155245
7495541 125 17059771242848591283
9971528 1 17676488379925405532

>  <PUBCHEM_SHAPE_MULTIPOLES>  (1) 
367.29
16.55
1.38
0.79
3.73
0
-0.04
-0.02
0.48
-0.1
0.09
-0.63
0
-0.01

>  <PUBCHEM_SHAPE_SELFOVERLAP>  (1) 
774.053

>  <PUBCHEM_SHAPE_VOLUME>  (1) 
206.4

>  <PUBCHEM_COORDINATE_TYPE>  (1) 
2
5
10

$$$$
