44230
     RDKit          3D

 18 18  0  0  0  0  0  0  0  0999 V2000
    3.4358    0.5954   -1.4990 O   0  0  0  0  0  0  0  0  0  0  0  0
   -0.4195   -1.4915    0.9740 O   0  0  0  0  0  0  0  0  0  0  0  0
    4.4646   -0.0947    0.4658 N   0  0  0  0  0  0  0  0  0  0  0  0
   -1.4448   -0.7805   -0.9833 N   0  0  0  0  0  0  0  0  0  0  0  0
   -2.6614   -1.2644   -0.5986 N   0  0  0  0  0  0  0  0  0  0  0  0
    5.7978    0.3598    0.1448 C   0  0  0  0  0  0  0  0  0  0  0  0
    2.1090   -0.5035    0.2046 C   0  0  0  0  0  0  0  0  0  0  0  0
    0.8975   -0.3494   -0.7089 C   0  0  0  0  0  0  0  0  0  0  0  0
    3.3867    0.0640   -0.3931 C   0  0  0  0  0  0  0  0  0  0  0  0
    5.9891    1.8069    0.5814 C   0  0  0  0  0  0  0  0  0  0  0  0
    6.8365   -0.5519    0.7852 C   0  0  0  0  0  0  0  0  0  0  0  0
   -0.3736   -0.9422   -0.1234 C   0  0  0  0  0  0  0  0  0  0  0  0
   -3.6642   -0.3706   -0.2037 C   0  0  0  0  0  0  0  0  0  0  0  0
   -4.8065   -0.8360    0.4590 C   0  0  0  0  0  0  0  0  0  0  0  0
   -3.5360    0.9984   -0.4673 C   0  0  0  0  0  0  0  0  0  0  0  0
   -5.8057    0.0545    0.8518 C   0  0  0  0  0  0  0  0  0  0  0  0
   -4.5352    1.8888   -0.0744 C   0  0  0  0  0  0  0  0  0  0  0  0
   -5.6701    1.4167    0.5852 C   0  0  0  0  0  0  0  0  0  0  0  0
  1  9  2  0
  2 12  2  0
  3  6  1  0
  3  9  1  0
  4  5  1  0
  4 12  1  0
  5 13  1  0
  6 10  1  0
  6 11  1  0
  7  8  1  0
  7  9  1  0
  8 12  1  0
 13 14  2  0
 13 15  1  0
 14 16  1  0
 15 17  2  0
 16 18  2  0
 17 18  1  0
M  END
>  <PUBCHEM_COMPOUND_CID>  (1) 
44230

>  <PUBCHEM_CONFORMER_RMSD>  (1) 
0.8

>  <PUBCHEM_CONFORMER_DIVERSEORDER>  (1) 
2
204
140
211
143
57
158
52
218
113
117
10
121
97
222
208
72
229
181
230
151
210
70
49
102
206
112
46
198
81
37
178
236
79
183
221
180
53
237
217
214
87
223
137
188
232
31
68
170
213
176
225
66
67
139
96
7
60
150
44
93
175
101
166
109
59
62
124
75
197
76
82
212
23
168
38
94
107
19
238
116
24
5
195
120
104
182
226
141
85
228
12
205
193
184
227
156
17
152
28
174
115
136
164
55
165
108
41
130
88
110
233
27
71
91
89
147
78
45
220
167
155
146
6
92
185
86
194
149
129
56
3
224
135
16
114
1
63
21
234
231
119
22
125
51
179
191
18
106
42
58
177
98
111
160
235
95
43
9
4
47
118
133
186
73
83
202
50
54
148
34
196
207
203
32
65
138
30
215
162
40
69
128
142
11
123
171
29
13
134
90
144
77
14
145
200
39
161
15
216
36
33
26
169
84
190
159
100
105
199
103
209
126
127
99
157
153
25
80
35
64
61
122
189
187
172
192
201
154
132
163
48
8
20
219
173
74
131

>  <PUBCHEM_MMFF94_PARTIAL_CHARGES>  (1) 
24
1 -0.57
12 0.57
13 0.1
14 -0.15
15 -0.15
16 -0.15
17 -0.15
18 -0.15
2 -0.57
22 0.37
3 -0.73
31 0.37
32 0.4
33 0.15
34 0.15
35 0.15
36 0.15
37 0.15
4 -0.41
5 -0.52
6 0.3
7 0.06
8 0.06
9 0.57

>  <PUBCHEM_EFFECTIVE_ROTOR_COUNT>  (1) 
8

>  <PUBCHEM_PHARMACOPHORE_FEATURES>  (1) 
7
1 1 acceptor
1 2 acceptor
1 3 donor
1 4 donor
1 5 donor
3 6 10 11 hydrophobe
6 13 14 15 16 17 18 rings

>  <PUBCHEM_HEAVY_ATOM_COUNT>  (1) 
18

>  <PUBCHEM_ATOM_DEF_STEREO_COUNT>  (1) 
0

>  <PUBCHEM_ATOM_UDEF_STEREO_COUNT>  (1) 
0

>  <PUBCHEM_BOND_DEF_STEREO_COUNT>  (1) 
0

>  <PUBCHEM_BOND_UDEF_STEREO_COUNT>  (1) 
0

>  <PUBCHEM_ISOTOPIC_ATOM_COUNT>  (1) 
0

>  <PUBCHEM_COMPONENT_COUNT>  (1) 
1

>  <PUBCHEM_CACTVS_TAUTO_COUNT>  (1) 
4

>  <PUBCHEM_CONFORMER_ID>  (1) 
0000ACC600000002

>  <PUBCHEM_MMFF94_ENERGY>  (1) 
40.4444

>  <PUBCHEM_FEATURE_SELFOVERLAP>  (1) 
37.097

>  <PUBCHEM_SHAPE_FINGERPRINT>  (1) 
10 15 18409171034258396713
10354089 29 17748827415017654894
10730089 173 18343584023036935168
10968037 39 10663817481809200379
11524674 6 15140681388681188873
117890 112 18202561800489168504
12236239 1 18334012796203178226
12516196 113 11169916091131272310
12596602 18 18040151829437636448
12616971 3 17168147874736534254
12714333 28 16056880230266314742
13167372 99 18413670206260054552
13288520 33 8142082066321468771
13533116 47 18334853880213646490
13668630 136 9871749100347535625
14123256 10 12895352192145303024
1420 363 13045944603246767574
14251752 14 18273494551055530474
14251764 18 17967536800384397686
14528608 73 12175617387099548402
14729087 3 17704067396046581536
14848160 23 11602823514316416005
14849402 71 17750243667768311436
14933364 13 18412265047537142000
15048467 5 17775849012191112211
15183329 4 17131838651129305554
15501527 16 18273215300645031965
15716309 27 14707208816123241026
15880784 105 14851900187405946405
16079462 125 17060048264250093106
17834072 8 11600003237253453633
17870717 6 9871747988673484341
18222031 100 9943806677543197950
18927931 339 13118001089647564955
20281389 69 18341891905017736832
20621476 66 17989492892218767961
20645477 56 18060418027860815727
21150785 3 13973957710352701309
21623969 137 13767919110011984616
22224240 67 17749108903000938059
23035841 295 9079119959913675397
23081809 10 18336540616712350998
23198884 109 14620795990231787101
23402539 116 18272645761985036054
23536379 177 18413106160958019466
23559900 14 8646475294253746599
25122255 55 11025796466264697897
270888 7 18056481652260198497
2767999 5 17203887461821950088
2838139 119 17917421025735788552
2916195 48 18342174483531900193
29717793 49 10663824096269852594
300161 21 15626503887106095830
3004659 81 10519980448573910247
3009799 131 15123786284566521218
328310 630 15482388771939234906
351380 3 8574707992623055581
465052 167 12757147974823448152
5104073 3 18189342277672881019
542803 24 18411978087939961414
54446538 1 18260550034779063629
5718773 13 12252487578340910193
59682541 35 18337118951549584027
59755656 520 18113334223760321090

>  <PUBCHEM_SHAPE_MULTIPOLES>  (1) 
343.75
18.5
1.54
0.99
13.8
0.55
-0.09
6.56
5.09
-0.84
0.13
0.2
-0.03
-0.05

>  <PUBCHEM_SHAPE_SELFOVERLAP>  (1) 
688.621

>  <PUBCHEM_SHAPE_VOLUME>  (1) 
201.4

>  <PUBCHEM_COORDINATE_TYPE>  (1) 
2
5
10

$$$$
