44236
     RDKit          3D

 15 15  0  0  0  0  0  0  0  0999 V2000
    4.6190    0.2650   -0.2841 N   0  0  0  0  0  0  0  0  0  0  0  0
    0.9072   -0.0147   -0.1274 N   0  0  0  0  0  0  0  0  0  0  0  0
    0.1469   -2.2543    0.2237 N   0  0  0  0  0  0  0  0  0  0  0  0
    3.2232    0.7006   -0.3103 C   0  0  0  0  0  0  0  0  0  0  0  0
    2.2926   -0.4897   -0.1255 C   0  0  0  0  0  0  0  0  0  0  0  0
   -1.4290   -0.3743    0.0288 C   0  0  0  0  0  0  0  0  0  0  0  0
   -0.0227   -0.8970    0.0410 C   0  0  0  0  0  0  0  0  0  0  0  0
    4.9208   -0.4074    0.9791 C   0  0  0  0  0  0  0  0  0  0  0  0
    5.5138    1.4044   -0.4831 C   0  0  0  0  0  0  0  0  0  0  0  0
   -4.0006    0.5820    0.0030 C   0  0  0  0  0  0  0  0  0  0  0  0
   -1.6516    0.9076    0.4653 C   0  0  0  0  0  0  0  0  0  0  0  0
   -2.4274   -1.2022   -0.4200 C   0  0  0  0  0  0  0  0  0  0  0  0
   -2.9590    1.3938    0.4522 C   0  0  0  0  0  0  0  0  0  0  0  0
   -3.7347   -0.7159   -0.4332 C   0  0  0  0  0  0  0  0  0  0  0  0
   -5.3984    1.1020   -0.0097 C   0  0  0  0  0  0  0  0  0  0  0  0
  1  4  1  0
  1  8  1  0
  1  9  1  0
  2  5  1  0
  2  7  2  0
  3  7  1  0
  4  5  1  0
  6  7  1  0
  6 11  2  0
  6 12  1  0
 10 13  2  0
 10 14  1  0
 10 15  1  0
 11 13  1  0
 12 14  2  0
M  END
>  <PUBCHEM_COMPOUND_CID>  (1) 
44236

>  <PUBCHEM_CONFORMER_RMSD>  (1) 
0.6

>  <PUBCHEM_CONFORMER_DIVERSEORDER>  (1) 
4
16
23
25
20
8
22
19
17
26
3
2
24
13
5
15
11
12
14
1
21
10
7
9
6
18

>  <PUBCHEM_MMFF94_PARTIAL_CHARGES>  (1) 
21
1 -0.81
10 -0.14
11 -0.15
12 -0.15
13 -0.15
14 -0.15
15 0.14
2 -0.7
26 0.15
27 0.15
28 0.15
29 0.15
3 -0.85
33 0.4
34 0.4
4 0.27
5 0.25
6 0.09
7 0.41
8 0.27
9 0.27

>  <PUBCHEM_EFFECTIVE_ROTOR_COUNT>  (1) 
4

>  <PUBCHEM_PHARMACOPHORE_FEATURES>  (1) 
4
1 1 cation
1 3 donor
3 2 3 7 cation
6 6 10 11 12 13 14 rings

>  <PUBCHEM_HEAVY_ATOM_COUNT>  (1) 
15

>  <PUBCHEM_ATOM_DEF_STEREO_COUNT>  (1) 
0

>  <PUBCHEM_ATOM_UDEF_STEREO_COUNT>  (1) 
0

>  <PUBCHEM_BOND_DEF_STEREO_COUNT>  (1) 
0

>  <PUBCHEM_BOND_UDEF_STEREO_COUNT>  (1) 
0

>  <PUBCHEM_ISOTOPIC_ATOM_COUNT>  (1) 
0

>  <PUBCHEM_COMPONENT_COUNT>  (1) 
1

>  <PUBCHEM_CACTVS_TAUTO_COUNT>  (1) 
2

>  <PUBCHEM_CONFORMER_ID>  (1) 
0000ACCC00000004

>  <PUBCHEM_MMFF94_ENERGY>  (1) 
44.5741

>  <PUBCHEM_FEATURE_SELFOVERLAP>  (1) 
20.297

>  <PUBCHEM_SHAPE_FINGERPRINT>  (1) 
10014705 185 18409448081298008869
100836 57 18408890632907569316
10912923 1 18187358865912201970
11128504 68 12463568504683201448
11401426 45 18342454841959454165
114248 4 16128653050528878600
12236239 1 18259701202911558603
12346645 44 18410293575558998331
12390115 104 17488196894058703369
12596602 18 17385726919553768976
12916748 109 18411990152049382688
13214271 11 18187088360545676723
13533116 47 17023177172578344258
13897977 58 18412547617451035701
14897335 6 18411982425313845191
15048467 5 18410573955825613157
200 152 12103851150684076830
20281389 69 18187362112718008909
20300324 65 18131632309322780783
20645477 56 18272654549688492493
20645477 70 16414929539263622758
20767249 213 18407760335286583429
20871999 31 17560790066096478319
212847 35 18410290316179948304
23402539 116 18272081721046553102
23402655 69 18202565064068214668
23557571 272 17774730864927293951
23559900 14 18130793352424158430
300161 21 18408600388245891644
351380 180 18272930535808002512
3545911 37 18343024371786942302
366044 4 18408886243424761978
474 4 18259709994736000160
5104073 3 18113896113367789568
542803 24 18259984885865475716
573450 72 18410281524060172570
83771 10 9943807776833091066

>  <PUBCHEM_SHAPE_MULTIPOLES>  (1) 
293.75
12.19
1.58
0.75
9.29
0.32
-0.06
-5.23
0.32
-0.37
-0.02
0.32
-0.01
-0.81

>  <PUBCHEM_SHAPE_SELFOVERLAP>  (1) 
592.834

>  <PUBCHEM_SHAPE_VOLUME>  (1) 
171.6

>  <PUBCHEM_COORDINATE_TYPE>  (1) 
2
5
10

$$$$
