44247
     RDKit          3D

 20 20  0  0  0  0  0  0  0  0999 V2000
   -4.8391    0.9363    0.1731 O   0  0  0  0  0  0  0  0  0  0  0  0
    5.0636    0.1966    0.0892 N   0  0  0  0  0  0  0  0  0  0  0  0
    1.3504   -0.1049    0.1225 N   0  0  0  0  0  0  0  0  0  0  0  0
    0.5918   -2.3681    0.2620 N   0  0  0  0  0  0  0  0  0  0  0  0
    3.6669    0.6292    0.0628 C   0  0  0  0  0  0  0  0  0  0  0  0
    5.3373   -0.7156   -1.0205 C   0  0  0  0  0  0  0  0  0  0  0  0
    5.9578    1.3524    0.0333 C   0  0  0  0  0  0  0  0  0  0  0  0
    2.7376   -0.5748    0.1212 C   0  0  0  0  0  0  0  0  0  0  0  0
    6.7628   -1.2263   -0.9803 C   0  0  0  0  0  0  0  0  0  0  0  0
    5.6941    2.3138    1.1737 C   0  0  0  0  0  0  0  0  0  0  0  0
    0.4206   -1.0006    0.1906 C   0  0  0  0  0  0  0  0  0  0  0  0
   -0.9873   -0.4824    0.1853 C   0  0  0  0  0  0  0  0  0  0  0  0
   -5.8402    0.0947   -0.3971 C   0  0  0  0  0  0  0  0  0  0  0  0
   -3.5623    0.4655    0.1765 C   0  0  0  0  0  0  0  0  0  0  0  0
   -1.9489   -1.2024    0.8492 C   0  0  0  0  0  0  0  0  0  0  0  0
   -1.2485    0.6877   -0.4827 C   0  0  0  0  0  0  0  0  0  0  0  0
   -3.2580   -0.7206    0.8447 C   0  0  0  0  0  0  0  0  0  0  0  0
   -2.5574    1.1696   -0.4871 C   0  0  0  0  0  0  0  0  0  0  0  0
   -6.4730    0.8031   -1.5852 C   0  0  0  0  0  0  0  0  0  0  0  0
   -6.8683   -0.2531    0.6687 C   0  0  0  0  0  0  0  0  0  0  0  0
  1 13  1  0
  1 14  1  0
  2  5  1  0
  2  6  1  0
  2  7  1  0
  3  8  1  0
  3 11  2  0
  4 11  1  0
  5  8  1  0
  6  9  1  0
  7 10  1  0
 11 12  1  0
 12 15  2  0
 12 16  1  0
 13 19  1  0
 13 20  1  0
 14 17  2  0
 14 18  1  0
 15 17  1  0
 16 18  2  0
M  END
>  <PUBCHEM_COMPOUND_CID>  (1) 
44247

>  <PUBCHEM_CONFORMER_RMSD>  (1) 
0.8

>  <PUBCHEM_CONFORMER_DIVERSEORDER>  (1) 
1
97
62
110
54
17
47
118
89
35
2
64
116
75
87
99
13
76
58
121
117
27
34
98
55
108
7
48
71
51
86
81
6
93
59
107
61
83
103
3
84
109
90
14
85
111
40
77
94
53
50
113
57
96
106
82
20
102
88
16
74
67
69
36
66
80
95
72
31
78
112
101
29
44
49
79
105
104
25
4
91
37
92
45
115
43
70
12
39
60
65
100
52
21
63
73
119
10
41
114
15
32
26
38
8
23
28
30
46
22
56
24
42
18
5
120
9
19
68
33
11

>  <PUBCHEM_MMFF94_PARTIAL_CHARGES>  (1) 
22
1 -0.36
11 0.41
12 0.09
13 0.28
14 0.08
15 -0.15
16 -0.15
17 -0.15
18 -0.15
2 -0.81
3 -0.7
36 0.15
37 0.15
38 0.15
39 0.15
4 -0.85
46 0.4
47 0.4
5 0.27
6 0.27
7 0.27
8 0.25

>  <PUBCHEM_EFFECTIVE_ROTOR_COUNT>  (1) 
8

>  <PUBCHEM_PHARMACOPHORE_FEATURES>  (1) 
6
1 1 acceptor
1 2 cation
1 4 donor
3 13 19 20 hydrophobe
3 3 4 11 cation
6 12 14 15 16 17 18 rings

>  <PUBCHEM_HEAVY_ATOM_COUNT>  (1) 
20

>  <PUBCHEM_ATOM_DEF_STEREO_COUNT>  (1) 
0

>  <PUBCHEM_ATOM_UDEF_STEREO_COUNT>  (1) 
0

>  <PUBCHEM_BOND_DEF_STEREO_COUNT>  (1) 
0

>  <PUBCHEM_BOND_UDEF_STEREO_COUNT>  (1) 
0

>  <PUBCHEM_ISOTOPIC_ATOM_COUNT>  (1) 
0

>  <PUBCHEM_COMPONENT_COUNT>  (1) 
1

>  <PUBCHEM_CACTVS_TAUTO_COUNT>  (1) 
2

>  <PUBCHEM_CONFORMER_ID>  (1) 
0000ACD700000001

>  <PUBCHEM_MMFF94_ENERGY>  (1) 
56.5739

>  <PUBCHEM_FEATURE_SELFOVERLAP>  (1) 
30.446

>  <PUBCHEM_SHAPE_FINGERPRINT>  (1) 
10 15 17749388213140272256
10591671 39 17894356566277691319
12011746 2 18334012778944272253
12236239 1 16702303451233058545
12730499 353 18412830174823120330
12916748 109 18409730651760502728
13288520 33 10807938167675407843
13533116 47 17531239505504564362
13668630 136 16486979458163493494
14251752 14 14333413320359908227
14251764 18 13551195489636242695
17834072 8 18411143520091720614
19489759 90 15213018242115031533
20157964 124 18060702797610016822
20281389 69 17967249788730871921
20645477 70 17775016683054996166
21150785 3 15626222459506043520
220451 1 13118006612864484586
221357 26 18201720635502940104
2215653 11 18271254846186612766
22224240 67 18334012817894494187
23035841 295 15698278911319852639
23081809 10 16415489250432056618
23198884 109 17704356567657362473
23402539 116 17603302674536531731
23536379 177 16702024149314523295
23559900 14 18270394014122687977
23622692 88 16153714236267299415
246663 6 13686294717146236221
29717793 49 17203335490216413590
300161 21 17968089828536259747
34797466 226 17846223262606605132
3545911 37 18187086139530749934
5104073 3 17969222235877745097
59682541 35 18187936110160181347
59755656 215 18261116231886340966
59755656 520 18409726270625322999

>  <PUBCHEM_SHAPE_MULTIPOLES>  (1) 
390.78
19.58
1.69
1.05
3.38
0.08
-0.16
4.76
-3.32
2.24
0.29
-0.3
0.1
2.21

>  <PUBCHEM_SHAPE_SELFOVERLAP>  (1) 
779.371

>  <PUBCHEM_SHAPE_VOLUME>  (1) 
234

>  <PUBCHEM_COORDINATE_TYPE>  (1) 
2
5
10

$$$$
