44249
     RDKit          3D

 20 21  0  0  0  0  0  0  0  0999 V2000
    4.9474    0.8364   -0.4421 O   0  0  0  0  0  0  0  0  0  0  0  0
   -4.9542    0.1792   -0.3670 N   0  0  0  0  0  0  0  0  0  0  0  0
   -1.2510   -0.1208   -0.2002 N   0  0  0  0  0  0  0  0  0  0  0  0
   -0.5109   -2.2977    0.4559 N   0  0  0  0  0  0  0  0  0  0  0  0
   -5.3464   -0.1834    0.9946 C   0  0  0  0  0  0  0  0  0  0  0  0
   -5.8772    1.2446   -0.7570 C   0  0  0  0  0  0  0  0  0  0  0  0
   -6.8663   -0.1907    0.9215 C   0  0  0  0  0  0  0  0  0  0  0  0
   -7.2150    0.7449   -0.2319 C   0  0  0  0  0  0  0  0  0  0  0  0
   -3.5612    0.5920   -0.4526 C   0  0  0  0  0  0  0  0  0  0  0  0
   -2.6423   -0.5611   -0.0752 C   0  0  0  0  0  0  0  0  0  0  0  0
   -0.3284   -0.9872    0.0636 C   0  0  0  0  0  0  0  0  0  0  0  0
    1.0837   -0.4991   -0.0712 C   0  0  0  0  0  0  0  0  0  0  0  0
    5.9267    0.2373    0.4052 C   0  0  0  0  0  0  0  0  0  0  0  0
    1.3400    0.8280    0.1667 C   0  0  0  0  0  0  0  0  0  0  0  0
    2.0541   -1.4025   -0.4266 C   0  0  0  0  0  0  0  0  0  0  0  0
    3.6667    0.3933   -0.3184 C   0  0  0  0  0  0  0  0  0  0  0  0
    2.6530    1.2817    0.0410 C   0  0  0  0  0  0  0  0  0  0  0  0
    3.3672   -0.9489   -0.5522 C   0  0  0  0  0  0  0  0  0  0  0  0
    6.9766   -0.4524   -0.4526 C   0  0  0  0  0  0  0  0  0  0  0  0
    6.5377    1.3064    1.2984 C   0  0  0  0  0  0  0  0  0  0  0  0
  1 13  1  0
  1 16  1  0
  2  5  1  0
  2  6  1  0
  2  9  1  0
  3 10  1  0
  3 11  2  0
  4 11  1  0
  5  7  1  0
  6  8  1  0
  7  8  1  0
  9 10  1  0
 11 12  1  0
 12 14  2  0
 12 15  1  0
 13 19  1  0
 13 20  1  0
 14 17  1  0
 15 18  2  0
 16 17  2  0
 16 18  1  0
M  END
>  <PUBCHEM_COMPOUND_CID>  (1) 
44249

>  <PUBCHEM_CONFORMER_RMSD>  (1) 
0.8

>  <PUBCHEM_CONFORMER_DIVERSEORDER>  (1) 
1
33
59
54
9
55
36
58
61
44
30
70
39
24
28
69
12
19
2
57
22
41
34
16
45
8
46
25
7
38
60
6
53
32
63
65
51
26
14
71
62
52
13
50
3
27
29
11
15
49
48
68
35
23
37
40
56
5
4
31
17
18
67
47
66
42
64
10
20
43
21

>  <PUBCHEM_MMFF94_PARTIAL_CHARGES>  (1) 
22
1 -0.36
10 0.25
11 0.41
12 0.09
13 0.28
14 -0.15
15 -0.15
16 0.08
17 -0.15
18 -0.15
2 -0.81
3 -0.7
34 0.15
35 0.15
36 0.15
37 0.15
38 0.4
39 0.4
4 -0.85
5 0.27
6 0.27
9 0.27

>  <PUBCHEM_EFFECTIVE_ROTOR_COUNT>  (1) 
7

>  <PUBCHEM_PHARMACOPHORE_FEATURES>  (1) 
7
1 1 acceptor
1 2 cation
1 4 donor
3 13 19 20 hydrophobe
3 3 4 11 cation
5 2 5 6 7 8 rings
6 12 14 15 16 17 18 rings

>  <PUBCHEM_HEAVY_ATOM_COUNT>  (1) 
20

>  <PUBCHEM_ATOM_DEF_STEREO_COUNT>  (1) 
0

>  <PUBCHEM_ATOM_UDEF_STEREO_COUNT>  (1) 
0

>  <PUBCHEM_BOND_DEF_STEREO_COUNT>  (1) 
0

>  <PUBCHEM_BOND_UDEF_STEREO_COUNT>  (1) 
0

>  <PUBCHEM_ISOTOPIC_ATOM_COUNT>  (1) 
0

>  <PUBCHEM_COMPONENT_COUNT>  (1) 
1

>  <PUBCHEM_CACTVS_TAUTO_COUNT>  (1) 
2

>  <PUBCHEM_CONFORMER_ID>  (1) 
0000ACD900000001

>  <PUBCHEM_MMFF94_ENERGY>  (1) 
54.833

>  <PUBCHEM_FEATURE_SELFOVERLAP>  (1) 
35.52

>  <PUBCHEM_SHAPE_FINGERPRINT>  (1) 
10 15 17967817179696282136
10299344 5 14923943449027082160
10354089 29 17894629258125350600
106641 1 16443353103999102285
10968037 39 10664101155951734317
11089746 13 17060337439654857009
11315181 36 8862940589947891527
11646440 116 18341899601314652192
11719270 70 18409165485461882762
12091667 2 18334294271680957879
12166972 35 13767929022311155390
12236239 1 16917068858262712167
12596602 18 15719398360240743981
12714333 28 17275385412820310414
12730499 353 18410582768618645015
12916748 109 18408327661479253117
13073987 5 18336265626703597489
13533116 47 16773519863442518750
13968360 50 15841557345145221388
14123256 10 17918275346729084297
14170010 4 18342176670171485164
14251764 18 17458061573056917458
14251764 46 18410856559655633340
15183329 4 16988565688501403287
15690457 1 13045950127292466801
15716309 27 13984378881412978241
19489759 90 16515405166989590845
20157964 124 17632579349506536630
20281389 69 18335136501181629724
21095086 128 14995999935353604160
21150785 3 16128653063862121589
220451 1 14405187249145962703
22224240 67 18261108591265803555
23035841 295 14345792755741351873
23198884 109 16558754507772487575
23402539 116 18340762727808066038
23402655 69 18131068238277621279
23622692 88 13984665862311130051
246663 6 12468632803854370960
29717793 49 16200441260529734932
300161 21 18202560683344185983
3009799 131 16702020894088009448
328311 84 18408328769897560358
33532 11 12973877105246910032
335352 9 18412267242639912118
3545911 37 18411983563606480407
4072396 5 18341604911651589986
4073 2 18041285464375071602
4325135 7 18411697712838992695
4340502 62 17167860855310537338
465052 167 8142085377324613800
5104073 3 17823138922257097897
5283156 175 14333135148239434814
5385378 56 18334292020554320250
59682541 35 18335706083260408193
59755656 215 18409731729485953918
59755656 520 17530962514421209715

>  <PUBCHEM_SHAPE_MULTIPOLES>  (1) 
390.78
20.88
1.44
0.9
10.23
0.34
0.15
-6.52
2.16
-0.69
0.09
0.11
-0.1
1.3

>  <PUBCHEM_SHAPE_SELFOVERLAP>  (1) 
800.556

>  <PUBCHEM_SHAPE_VOLUME>  (1) 
229.2

>  <PUBCHEM_COORDINATE_TYPE>  (1) 
2
5
10

$$$$
