44250
     RDKit          3D

  5  4  0  0  0  0  0  0  0  0999 V2000
   -2.8226    0.2715    0.0006 Cl  0  0  0  0  0  0  0  0  0  0  0  0
    1.5147   -0.5904    0.0006 C   0  0  0  0  0  0  0  0  0  0  0  0
    2.3345    0.6887    0.0000 C   0  0  0  0  0  0  0  0  0  0  0  0
    0.0756   -0.3013   -0.0006 C   0  0  0  0  0  0  0  0  0  0  0  0
   -1.1021   -0.0686   -0.0006 C   0  0  0  0  0  0  0  0  0  0  0  0
  1  5  1  0
  2  3  1  0
  2  4  1  0
  4  5  3  0
M  END
>  <PUBCHEM_COMPOUND_CID>  (1) 
44250

>  <PUBCHEM_CONFORMER_RMSD>  (1) 
0.4

>  <PUBCHEM_CONFORMER_DIVERSEORDER>  (1) 
1

>  <PUBCHEM_MMFF94_PARTIAL_CHARGES>  (1) 
4
1 -0.1
2 0.2
4 -0.2
5 0.1

>  <PUBCHEM_EFFECTIVE_ROTOR_COUNT>  (1) 
0

>  <PUBCHEM_PHARMACOPHORE_FEATURES>  (1) 
1
1 3 hydrophobe

>  <PUBCHEM_HEAVY_ATOM_COUNT>  (1) 
5

>  <PUBCHEM_ATOM_DEF_STEREO_COUNT>  (1) 
0

>  <PUBCHEM_ATOM_UDEF_STEREO_COUNT>  (1) 
0

>  <PUBCHEM_BOND_DEF_STEREO_COUNT>  (1) 
0

>  <PUBCHEM_BOND_UDEF_STEREO_COUNT>  (1) 
0

>  <PUBCHEM_ISOTOPIC_ATOM_COUNT>  (1) 
0

>  <PUBCHEM_COMPONENT_COUNT>  (1) 
1

>  <PUBCHEM_CACTVS_TAUTO_COUNT>  (1) 
1

>  <PUBCHEM_CONFORMER_ID>  (1) 
0000ACDA00000001

>  <PUBCHEM_MMFF94_ENERGY>  (1) 
-1.9294

>  <PUBCHEM_FEATURE_SELFOVERLAP>  (1) 
5.074

>  <PUBCHEM_SHAPE_FINGERPRINT>  (1) 
14390081 3 18342454854802385473
16714656 1 15841552972515143397
20096714 4 18340205288566632496
29004967 10 9583516520898388142
5460574 1 9295288343917579363

>  <PUBCHEM_SHAPE_MULTIPOLES>  (1) 
104.77
4.09
0.82
0.62
1.45
0.03
0
0.89
0
-0.27
0
0.02
0
0

>  <PUBCHEM_SHAPE_SELFOVERLAP>  (1) 
173.043

>  <PUBCHEM_SHAPE_VOLUME>  (1) 
71.2

>  <PUBCHEM_COORDINATE_TYPE>  (1) 
2
5
10

$$$$
