44267
     RDKit          3D

 28 31  0  0  0  0  0  0  0  0999 V2000
    2.6096    1.6379   -0.8686 O   0  0  0  0  0  0  0  0  0  0  0  0
   -3.7273   -0.5113   -0.7946 O   0  0  0  0  0  0  0  0  0  0  0  0
    4.6545    2.4375   -0.1506 O   0  0  0  0  0  0  0  0  0  0  0  0
   -5.8021   -1.1962   -0.0439 O   0  0  0  0  0  0  0  0  0  0  0  0
    0.5753   -0.5924    0.4058 C   0  0  0  0  0  0  0  0  0  0  0  0
   -0.7865   -0.9817    0.4265 C   0  0  0  0  0  0  0  0  0  0  0  0
    0.8401    0.7991    0.4813 C   0  0  0  0  0  0  0  0  0  0  0  0
   -1.8063   -0.0184    0.5180 C   0  0  0  0  0  0  0  0  0  0  0  0
   -0.1774    1.7680    0.5731 C   0  0  0  0  0  0  0  0  0  0  0  0
   -1.5208    1.3516    0.5915 C   0  0  0  0  0  0  0  0  0  0  0  0
    1.5947   -1.6064    0.3113 C   0  0  0  0  0  0  0  0  0  0  0  0
    1.2102   -2.9709    0.2412 C   0  0  0  0  0  0  0  0  0  0  0  0
   -1.1259   -2.3356    0.3556 C   0  0  0  0  0  0  0  0  0  0  0  0
    2.2258    1.3779    0.4725 C   0  0  0  0  0  0  0  0  0  0  0  0
   -3.2472   -0.4587    0.5379 C   0  0  0  0  0  0  0  0  0  0  0  0
   -0.1430   -3.3152    0.2643 C   0  0  0  0  0  0  0  0  0  0  0  0
    0.1154    3.1409    0.6466 C   0  0  0  0  0  0  0  0  0  0  0  0
   -2.5413    2.3136    0.6830 C   0  0  0  0  0  0  0  0  0  0  0  0
    2.9863   -1.3372    0.2824 C   0  0  0  0  0  0  0  0  0  0  0  0
    2.1794   -3.9844    0.1485 C   0  0  0  0  0  0  0  0  0  0  0  0
   -0.9070    4.0859    0.7371 C   0  0  0  0  0  0  0  0  0  0  0  0
   -2.2348    3.6723    0.7552 C   0  0  0  0  0  0  0  0  0  0  0  0
    3.9403   -2.3545    0.1897 C   0  0  0  0  0  0  0  0  0  0  0  0
    3.5365   -3.6787    0.1228 C   0  0  0  0  0  0  0  0  0  0  0  0
    3.8581    2.1715   -1.0407 C   0  0  0  0  0  0  0  0  0  0  0  0
   -5.0322   -0.8981   -0.9469 C   0  0  0  0  0  0  0  0  0  0  0  0
    4.1250    2.3909   -2.4990 C   0  0  0  0  0  0  0  0  0  0  0  0
   -5.3992   -0.9072   -2.3999 C   0  0  0  0  0  0  0  0  0  0  0  0
  1 14  1  0
  1 25  1  0
  2 15  1  0
  2 26  1  0
  3 25  2  0
  4 26  2  0
  5  6  1  0
  5  7  2  0
  5 11  1  0
  6  8  2  0
  6 13  1  0
  7  9  1  0
  7 14  1  0
  8 10  1  0
  8 15  1  0
  9 10  2  0
  9 17  1  0
 10 18  1  0
 11 12  2  0
 11 19  1  0
 12 16  1  0
 12 20  1  0
 13 16  2  0
 17 21  2  0
 18 22  2  0
 19 23  2  0
 20 24  2  0
 21 22  1  0
 23 24  1  0
 25 27  1  0
 26 28  1  0
M  END
>  <PUBCHEM_COMPOUND_CID>  (1) 
44267

>  <PUBCHEM_CONFORMER_RMSD>  (1) 
0.8

>  <PUBCHEM_CONFORMER_DIVERSEORDER>  (1) 
1
10
14
11
16
7
6
15
9
12
13
8
5
3
2
4

>  <PUBCHEM_MMFF94_PARTIAL_CHARGES>  (1) 
32
1 -0.43
13 -0.15
14 0.42
15 0.42
16 -0.15
17 -0.15
18 -0.15
19 -0.15
2 -0.43
20 -0.15
21 -0.15
22 -0.15
23 -0.15
24 -0.15
25 0.66
26 0.66
27 0.06
28 0.06
29 0.15
3 -0.57
34 0.15
35 0.15
36 0.15
37 0.15
38 0.15
39 0.15
4 -0.57
40 0.15
41 0.15
42 0.15
7 -0.14
8 -0.14

>  <PUBCHEM_EFFECTIVE_ROTOR_COUNT>  (1) 
6

>  <PUBCHEM_PHARMACOPHORE_FEATURES>  (1) 
6
1 3 acceptor
1 4 acceptor
6 11 12 19 20 23 24 rings
6 5 6 11 12 13 16 rings
6 5 6 7 8 9 10 rings
6 9 10 17 18 21 22 rings

>  <PUBCHEM_HEAVY_ATOM_COUNT>  (1) 
28

>  <PUBCHEM_ATOM_DEF_STEREO_COUNT>  (1) 
0

>  <PUBCHEM_ATOM_UDEF_STEREO_COUNT>  (1) 
0

>  <PUBCHEM_BOND_DEF_STEREO_COUNT>  (1) 
0

>  <PUBCHEM_BOND_UDEF_STEREO_COUNT>  (1) 
0

>  <PUBCHEM_ISOTOPIC_ATOM_COUNT>  (1) 
0

>  <PUBCHEM_COMPONENT_COUNT>  (1) 
1

>  <PUBCHEM_CACTVS_TAUTO_COUNT>  (1) 
1

>  <PUBCHEM_CONFORMER_ID>  (1) 
0000ACEB00000001

>  <PUBCHEM_MMFF94_ENERGY>  (1) 
120.5438

>  <PUBCHEM_FEATURE_SELFOVERLAP>  (1) 
30.519

>  <PUBCHEM_SHAPE_FINGERPRINT>  (1) 
10411042 1 18341045216998932275
10675989 125 18336262426816097756
10693767 8 17988357182459136655
10930396 42 17910081910924009984
10967382 1 18339361971411126106
1100329 8 18051418361641394320
11135609 187 18337389460826700873
11227688 84 18268438012954692231
11513181 2 18128826231295722870
12403260 363 18337947879489164426
12553582 1 18268718383913311225
12788726 201 18342747341948889336
13140716 1 18267598900608520257
13540713 5 18269564853226815985
13642711 20 18124584534130526261
138480 1 18340760537891807083
13911987 19 18046079408102475741
140371 6 18337671914834636482
14178342 30 18051113805673822578
14790565 3 18122650463429865433
19591789 44 17617392009185993890
20642791 178 18118424851576269520
23227448 37 17693654814435755427
23366157 5 18042136379554077898
23558518 356 18264493871165571033
23559900 14 18196358222082088977
25147074 1 18271536290676416225
266924 87 18410290307226295957
3178227 256 17832731314863795443
3380486 145 17972341752445934699
350125 39 18265907855925048208
46194498 28 17968642862069760167
463206 1 18341321301596436255
6669772 16 17910942870649464213
70251023 43 18339075970109000507
7164475 11 18340763732925507865
7471813 234 18269540676808453423
9981440 41 18263094343831183736

>  <PUBCHEM_SHAPE_MULTIPOLES>  (1) 
552.75
8.92
5.74
1.33
6.11
1.21
1.13
-2.72
4.79
-3.55
-0.4
0.41
0.66
-3.17

>  <PUBCHEM_SHAPE_SELFOVERLAP>  (1) 
1231.106

>  <PUBCHEM_SHAPE_VOLUME>  (1) 
295.4

>  <PUBCHEM_COORDINATE_TYPE>  (1) 
2
5
10

$$$$
