44275
     RDKit          3D

 21 24  0  0  0  0  0  0  0  0999 V2000
   -4.2701   -1.4316    0.8904 O   0  0  0  0  0  0  0  0  0  0  0  0
    0.5671   -0.0782    0.0587 C   0  0  0  0  0  0  0  0  0  0  0  0
   -0.4868    0.9428    0.1051 C   0  0  0  0  0  0  0  0  0  0  0  0
    0.1278   -1.4301    0.1378 C   0  0  0  0  0  0  0  0  0  0  0  0
    2.0170    0.1196   -0.0589 C   0  0  0  0  0  0  0  0  0  0  0  0
   -1.8541    0.5593    0.0014 C   0  0  0  0  0  0  0  0  0  0  0  0
   -2.2007   -0.7855   -0.0390 C   0  0  0  0  0  0  0  0  0  0  0  0
    2.9027   -0.9787    0.1317 C   0  0  0  0  0  0  0  0  0  0  0  0
   -1.2265   -1.7630    0.0737 C   0  0  0  0  0  0  0  0  0  0  0  0
    1.0312   -2.4844    0.2831 C   0  0  0  0  0  0  0  0  0  0  0  0
    2.3966   -2.2582    0.3255 C   0  0  0  0  0  0  0  0  0  0  0  0
   -0.2800    2.3320    0.3138 C   0  0  0  0  0  0  0  0  0  0  0  0
   -2.8887    1.5114   -0.0258 C   0  0  0  0  0  0  0  0  0  0  0  0
    2.6566    1.3348   -0.4201 C   0  0  0  0  0  0  0  0  0  0  0  0
    4.2992   -0.8173    0.0940 C   0  0  0  0  0  0  0  0  0  0  0  0
   -3.5806   -1.2612   -0.1296 C   0  0  0  0  0  0  0  0  0  0  0  0
   -1.3142    3.2759    0.3006 C   0  0  0  0  0  0  0  0  0  0  0  0
   -2.6201    2.8665    0.1075 C   0  0  0  0  0  0  0  0  0  0  0  0
    4.0474    1.4885   -0.4709 C   0  0  0  0  0  0  0  0  0  0  0  0
    4.8713    0.4148   -0.1905 C   0  0  0  0  0  0  0  0  0  0  0  0
   -4.1952   -1.5573   -1.4888 C   0  0  0  0  0  0  0  0  0  0  0  0
  1 16  2  0
  2  3  2  0
  2  4  1  0
  2  5  1  0
  3  6  1  0
  3 12  1  0
  4  9  2  0
  4 10  1  0
  5  8  2  0
  5 14  1  0
  6  7  2  0
  6 13  1  0
  7  9  1  0
  7 16  1  0
  8 11  1  0
  8 15  1  0
 10 11  2  0
 12 17  2  0
 13 18  2  0
 14 19  2  0
 15 20  2  0
 16 21  1  0
 17 18  1  0
 19 20  1  0
M  END
>  <PUBCHEM_COMPOUND_CID>  (1) 
44275

>  <PUBCHEM_CONFORMER_RMSD>  (1) 
0.6

>  <PUBCHEM_CONFORMER_DIVERSEORDER>  (1) 
1
3
2

>  <PUBCHEM_MMFF94_PARTIAL_CHARGES>  (1) 
26
1 -0.57
10 -0.15
11 -0.15
12 -0.15
13 -0.15
14 -0.15
15 -0.15
16 0.42
17 -0.15
18 -0.15
19 -0.15
20 -0.15
21 0.06
22 0.15
23 0.15
24 0.15
25 0.15
26 0.15
27 0.15
28 0.15
29 0.15
30 0.15
31 0.15
32 0.15
7 0.09
9 -0.15

>  <PUBCHEM_EFFECTIVE_ROTOR_COUNT>  (1) 
1

>  <PUBCHEM_PHARMACOPHORE_FEATURES>  (1) 
5
1 1 acceptor
6 2 3 4 6 7 9 rings
6 2 4 5 8 10 11 rings
6 3 6 12 13 17 18 rings
6 5 8 14 15 19 20 rings

>  <PUBCHEM_HEAVY_ATOM_COUNT>  (1) 
21

>  <PUBCHEM_ATOM_DEF_STEREO_COUNT>  (1) 
0

>  <PUBCHEM_ATOM_UDEF_STEREO_COUNT>  (1) 
0

>  <PUBCHEM_BOND_DEF_STEREO_COUNT>  (1) 
0

>  <PUBCHEM_BOND_UDEF_STEREO_COUNT>  (1) 
0

>  <PUBCHEM_ISOTOPIC_ATOM_COUNT>  (1) 
0

>  <PUBCHEM_COMPONENT_COUNT>  (1) 
1

>  <PUBCHEM_CACTVS_TAUTO_COUNT>  (1) 
2

>  <PUBCHEM_CONFORMER_ID>  (1) 
0000ACF300000001

>  <PUBCHEM_MMFF94_ENERGY>  (1) 
92.2237

>  <PUBCHEM_FEATURE_SELFOVERLAP>  (1) 
25.445

>  <PUBCHEM_SHAPE_FINGERPRINT>  (1) 
10369192 42 15837296935119239922
104564 63 18412826871897862869
10498660 4 18410011009687000876
10616163 171 18339925913533556534
10670039 82 18261970600171893244
10693767 8 17842822580891286103
10967382 1 18194122038811442728
1100329 8 17977388557301793474
12403259 226 18342171172571304336
12403260 363 18408597063956872930
12553582 1 18340480188064808339
12788726 201 18408600374870263002
13027679 85 18339080518394606709
13140716 1 17905613550732181651
13224815 77 18408609140803613650
138480 1 15960899092890702273
13911987 19 18117561940384021382
14178342 30 18120920734133285242
14223421 5 18338803299361156318
14787075 74 17969787582048812363
14790565 3 18266474272397436881
15196674 1 18409730634564523362
15442244 35 18120652431784516642
16752209 62 18410855473493105122
16945 1 18267297810705825363
17349148 13 18113897178176923258
17357779 13 18338782520683931533
17492 89 18337391526437178850
19591789 44 18122348136132691803
200 152 18410004464035470615
20510252 161 18341898484712338712
20905425 154 18342460305163077692
21029758 11 18340199808272784861
21267235 1 18409177623076137482
21501502 16 18337387119805267242
21641784 216 18187377535766169677
221490 88 18337962169014241026
23227448 37 18266458698476353901
2334 1 18410854348042946515
23352939 185 18201724006793376297
23366157 5 17969791761421275778
23402539 116 18343015627091187511
23557571 272 18202009815265351286
23558518 356 18187939321682901418
23559900 14 18055349137908203078
238 59 16599530742128198669
2748010 2 18412256208235899477
283562 15 18410855473155605729
2871803 45 18410289237504736590
335352 9 17977384932750433054
34934 24 18411418372197075769
350125 39 18409733958874764616
352729 6 17982165626398097193
474 4 17822021878325016172
5104073 3 18337951195472527218
532947 4 17765986582153937385
7097593 13 17465653494804858234
7164475 11 18340484478557561822
7832392 63 18050005489515965994
9709674 26 18126285237979291726
9981440 41 18334293193412325090

>  <PUBCHEM_SHAPE_MULTIPOLES>  (1) 
426.3
8.13
3.32
0.79
3.07
1.53
-0.13
-1.16
-1.15
-1.81
0.27
-0.44
-0.17
-0.81

>  <PUBCHEM_SHAPE_SELFOVERLAP>  (1) 
970.684

>  <PUBCHEM_SHAPE_VOLUME>  (1) 
222.6

>  <PUBCHEM_COORDINATE_TYPE>  (1) 
2
5
10

$$$$
