44288
     RDKit          3D

 21 24  0  0  0  0  0  0  0  0999 V2000
   -5.8842    0.0155    0.0013 Cl  0  0  0  0  0  0  0  0  0  0  0  0
   -1.0010    1.4913   -0.0002 N   0  0  0  0  0  0  0  0  0  0  0  0
    0.8683   -0.0522   -0.0002 C   0  0  0  0  0  0  0  0  0  0  0  0
   -0.0756   -1.1013   -0.0003 C   0  0  0  0  0  0  0  0  0  0  0  0
   -1.4558   -0.8589   -0.0003 C   0  0  0  0  0  0  0  0  0  0  0  0
    2.2970   -0.2407    0.0000 C   0  0  0  0  0  0  0  0  0  0  0  0
    0.3231    1.2470   -0.0002 C   0  0  0  0  0  0  0  0  0  0  0  0
   -1.8799    0.4751   -0.0002 C   0  0  0  0  0  0  0  0  0  0  0  0
    3.1373    0.8987    0.0000 C   0  0  0  0  0  0  0  0  0  0  0  0
   -3.2490    0.7310   -0.0001 C   0  0  0  0  0  0  0  0  0  0  0  0
    1.1839    2.3321   -0.0002 C   0  0  0  0  0  0  0  0  0  0  0  0
    0.2966   -2.5549   -0.0004 C   0  0  0  0  0  0  0  0  0  0  0  0
   -2.3970   -1.9042   -0.0004 C   0  0  0  0  0  0  0  0  0  0  0  0
    2.5675    2.1720   -0.0001 C   0  0  0  0  0  0  0  0  0  0  0  0
    2.9374   -1.5053    0.0002 C   0  0  0  0  0  0  0  0  0  0  0  0
   -4.1873   -0.3036   -0.0001 C   0  0  0  0  0  0  0  0  0  0  0  0
    4.5360    0.7585    0.0002 C   0  0  0  0  0  0  0  0  0  0  0  0
   -3.7605   -1.6252   -0.0001 C   0  0  0  0  0  0  0  0  0  0  0  0
   -3.7145    2.1582    0.0001 C   0  0  0  0  0  0  0  0  0  0  0  0
    4.3291   -1.6330    0.0005 C   0  0  0  0  0  0  0  0  0  0  0  0
    5.1288   -0.5003    0.0005 C   0  0  0  0  0  0  0  0  0  0  0  0
  1 16  1  0
  2  7  2  0
  2  8  1  0
  3  4  2  0
  3  6  1  0
  3  7  1  0
  4  5  1  0
  4 12  1  0
  5  8  2  0
  5 13  1  0
  6  9  2  0
  6 15  1  0
  7 11  1  0
  8 10  1  0
  9 14  1  0
  9 17  1  0
 10 16  2  0
 10 19  1  0
 11 14  2  0
 13 18  2  0
 15 20  2  0
 16 18  1  0
 17 21  2  0
 20 21  1  0
M  END
>  <PUBCHEM_COMPOUND_CID>  (1) 
44288

>  <PUBCHEM_CONFORMER_RMSD>  (1) 
0.6

>  <PUBCHEM_CONFORMER_DIVERSEORDER>  (1) 
1

>  <PUBCHEM_MMFF94_PARTIAL_CHARGES>  (1) 
25
1 -0.18
10 -0.14
11 -0.15
12 0.14
13 -0.15
14 -0.15
15 -0.15
16 0.18
17 -0.15
18 -0.15
19 0.14
2 -0.62
20 -0.15
21 -0.15
22 0.15
26 0.15
27 0.15
28 0.15
29 0.15
30 0.15
34 0.15
35 0.15
4 -0.14
7 0.31
8 0.31

>  <PUBCHEM_EFFECTIVE_ROTOR_COUNT>  (1) 
0

>  <PUBCHEM_PHARMACOPHORE_FEATURES>  (1) 
5
1 2 acceptor
6 2 3 4 5 7 8 rings
6 3 6 7 9 11 14 rings
6 5 8 10 13 16 18 rings
6 6 9 15 17 20 21 rings

>  <PUBCHEM_HEAVY_ATOM_COUNT>  (1) 
21

>  <PUBCHEM_ATOM_DEF_STEREO_COUNT>  (1) 
0

>  <PUBCHEM_ATOM_UDEF_STEREO_COUNT>  (1) 
0

>  <PUBCHEM_BOND_DEF_STEREO_COUNT>  (1) 
0

>  <PUBCHEM_BOND_UDEF_STEREO_COUNT>  (1) 
0

>  <PUBCHEM_ISOTOPIC_ATOM_COUNT>  (1) 
0

>  <PUBCHEM_COMPONENT_COUNT>  (1) 
1

>  <PUBCHEM_CACTVS_TAUTO_COUNT>  (1) 
1

>  <PUBCHEM_CONFORMER_ID>  (1) 
0000AD0000000001

>  <PUBCHEM_MMFF94_ENERGY>  (1) 
98.4289

>  <PUBCHEM_FEATURE_SELFOVERLAP>  (1) 
25.454

>  <PUBCHEM_SHAPE_FINGERPRINT>  (1) 
10062212 137 18343014510531721551
10616163 171 18340207491637357887
10967382 1 18410575101874603110
11471102 20 18410571803350288878
11578080 2 16914521431550217586
12011746 2 18411986862447377590
12107183 9 17761209921147631347
12236239 1 17846498140935470543
12403259 226 18339919432824019985
12403259 415 18334849520194184285
12788726 201 17845671303570070296
12838862 33 18338779187884313416
13140716 1 18411706495255874097
13862211 1 18410569561383018290
14341114 176 18409454695552750521
14790565 3 18338242574143187744
14866123 147 17191235132534562250
15099037 51 18410855460265526351
15196674 1 18410856542507419140
15256400 18 18411700976022412369
15442244 35 18411138030469388432
15536298 74 18341893030325360120
1601671 61 18411700950611109818
16945 1 18266741285743793509
17349148 13 18060136531229848869
17492 89 18266740362289752599
17804303 29 18410858771600857021
1813 80 17240483606846433532
18186145 218 17821719572208241631
19141452 34 18342175600566489999
19591789 44 18410009948608506539
200 152 18060135457793914983
20028762 73 18202278143369301287
21033648 29 17822557374810785933
21267235 1 18410582776986734643
21279426 13 18193838145720652591
21421861 104 17752480958907611930
221357 26 18411695483212986549
221490 88 18263650726130450698
2334 1 18338799025736749997
23366157 5 17969500592719039876
23402539 116 18343576356551908446
23558518 356 17683240631218846978
23559900 14 18341326811849475464
2748010 2 18410009974341172813
3004659 81 18260551096274113710
335352 9 18338798918383621567
34934 24 18340200908121983714
350125 39 18410295813553522617
351380 180 18411698811596168087
3545911 37 18411700997565703672
3680242 22 18191023409123629002
4214541 1 18410575067731415397
495365 180 17417800790722416570
5104073 3 18411419518225409408
59755656 215 18336264557309637887
6138700 20 18337674097115502190
7364860 26 18269554008845778520
77779 3 18410293622782266734
9709674 26 18264491856689044594
9981440 41 17399515018646831344

>  <PUBCHEM_SHAPE_MULTIPOLES>  (1) 
429.06
10.41
2.55
0.61
2.57
0.14
0
-0.61
0
-0.24
0
0.01
-0.01
0

>  <PUBCHEM_SHAPE_SELFOVERLAP>  (1) 
972.19

>  <PUBCHEM_SHAPE_VOLUME>  (1) 
225.8

>  <PUBCHEM_COORDINATE_TYPE>  (1) 
2
5
10

$$$$
