44284
     RDKit          3D

 19 22  0  0  0  0  0  0  0  0999 V2000
    4.2569    1.9579   -0.0007 O   0  0  0  0  0  0  0  0  0  0  0  0
    0.1559   -0.7040    0.0002 C   0  0  0  0  0  0  0  0  0  0  0  0
   -0.6288    0.4864    0.0002 C   0  0  0  0  0  0  0  0  0  0  0  0
    1.5992   -0.6352    0.0002 C   0  0  0  0  0  0  0  0  0  0  0  0
   -2.0721    0.4176    0.0002 C   0  0  0  0  0  0  0  0  0  0  0  0
    2.2318    0.6309   -0.0002 C   0  0  0  0  0  0  0  0  0  0  0  0
   -2.7049   -0.8485   -0.0003 C   0  0  0  0  0  0  0  0  0  0  0  0
    0.0660    1.7129    0.0002 C   0  0  0  0  0  0  0  0  0  0  0  0
   -0.5390   -1.9306    0.0000 C   0  0  0  0  0  0  0  0  0  0  0  0
    1.4572    1.7861   -0.0002 C   0  0  0  0  0  0  0  0  0  0  0  0
   -1.9302   -2.0037   -0.0004 C   0  0  0  0  0  0  0  0  0  0  0  0
    2.4606   -1.7644    0.0005 C   0  0  0  0  0  0  0  0  0  0  0  0
   -2.9336    1.5469    0.0007 C   0  0  0  0  0  0  0  0  0  0  0  0
    3.6337    0.7409   -0.0001 C   0  0  0  0  0  0  0  0  0  0  0  0
   -4.1067   -0.9583   -0.0005 C   0  0  0  0  0  0  0  0  0  0  0  0
    3.8539   -1.6457    0.0004 C   0  0  0  0  0  0  0  0  0  0  0  0
    4.4411   -0.3912    0.0000 C   0  0  0  0  0  0  0  0  0  0  0  0
   -4.3268    1.4283    0.0003 C   0  0  0  0  0  0  0  0  0  0  0  0
   -4.9141    0.1737   -0.0002 C   0  0  0  0  0  0  0  0  0  0  0  0
  1 14  1  0
  2  3  1  0
  2  4  2  0
  2  9  1  0
  3  5  1  0
  3  8  2  0
  4  6  1  0
  4 12  1  0
  5  7  2  0
  5 13  1  0
  6 10  2  0
  6 14  1  0
  7 11  1  0
  7 15  1  0
  8 10  1  0
  9 11  2  0
 12 16  2  0
 13 18  2  0
 14 17  2  0
 15 19  2  0
 16 17  1  0
 18 19  1  0
M  END
>  <PUBCHEM_COMPOUND_CID>  (1) 
44284

>  <PUBCHEM_CONFORMER_RMSD>  (1) 
0.4

>  <PUBCHEM_CONFORMER_DIVERSEORDER>  (1) 
1

>  <PUBCHEM_MMFF94_PARTIAL_CHARGES>  (1) 
25
1 -0.53
10 -0.15
11 -0.15
12 -0.15
13 -0.15
14 0.08
15 -0.15
16 -0.15
17 -0.15
18 -0.15
19 -0.15
20 0.15
21 0.15
22 0.15
23 0.15
24 0.15
25 0.15
26 0.15
27 0.15
28 0.15
29 0.15
30 0.15
31 0.45
8 -0.15
9 -0.15

>  <PUBCHEM_EFFECTIVE_ROTOR_COUNT>  (1) 
0

>  <PUBCHEM_PHARMACOPHORE_FEATURES>  (1) 
5
1 1 donor
6 2 3 4 6 8 10 rings
6 2 3 5 7 9 11 rings
6 4 6 12 14 16 17 rings
6 5 7 13 15 18 19 rings

>  <PUBCHEM_HEAVY_ATOM_COUNT>  (1) 
19

>  <PUBCHEM_ATOM_DEF_STEREO_COUNT>  (1) 
0

>  <PUBCHEM_ATOM_UDEF_STEREO_COUNT>  (1) 
0

>  <PUBCHEM_BOND_DEF_STEREO_COUNT>  (1) 
0

>  <PUBCHEM_BOND_UDEF_STEREO_COUNT>  (1) 
0

>  <PUBCHEM_ISOTOPIC_ATOM_COUNT>  (1) 
0

>  <PUBCHEM_COMPONENT_COUNT>  (1) 
1

>  <PUBCHEM_CACTVS_TAUTO_COUNT>  (1) 
3

>  <PUBCHEM_CONFORMER_ID>  (1) 
0000ACFC00000001

>  <PUBCHEM_MMFF94_ENERGY>  (1) 
71.1104

>  <PUBCHEM_FEATURE_SELFOVERLAP>  (1) 
25.441

>  <PUBCHEM_SHAPE_FINGERPRINT>  (1) 
10062212 137 18343576339736081431
10411042 1 16897646789293237735
10608611 8 18411134762004563912
10616163 171 18267588090107237958
10967382 1 18410573959418596614
1100329 8 16753249013125924435
11132069 177 18411413999192381274
11471102 20 18410853265610876710
11578080 2 16914804006365701099
12107183 9 17691408512079723129
12403259 226 18339918312080090353
12403259 415 18188206512178861757
12403814 3 17749103392209633637
12788726 201 17703240528537204200
13140716 1 18337675217479039338
13675066 3 18186525414322713915
138480 1 17762055437068943495
13862211 1 18410568449039314091
14178342 30 18051956311075345842
14790565 3 18267873787448601513
14866123 147 17047965451625878738
15196674 1 18410575089148021735
15375358 24 18413389843125855542
15442244 35 18411136892334567122
15536298 74 18413670210148495434
16945 1 18194682798299946471
17492 89 18411701023299545679
17804303 29 18411703188167855709
1813 80 17022903449616857980
18186145 218 17894345562207631214
19591789 44 18337389323102442951
200 152 17988920076899222439
20510252 161 18343585118622867449
20645477 70 18342459214347223902
21267235 1 18410864239305494146
21279426 13 18194965136586079167
21421861 104 17896308130919264922
21452121 103 18271234011310569088
221490 88 18335990881719152115
23402539 116 18272080578733114247
23463225 33 18409730642632257582
23559900 14 18342737369757397526
2748010 2 18410575071783523407
3004659 81 18261116215228594366
335352 9 18338798892656067790
34934 24 18340200886346499370
350125 39 18337956675381719820
3545911 37 18410577300897962612
4214541 1 18410575059162482369
474 4 17604153747965242452
495365 180 17417515995630517050
5104073 3 18410012143347104899
69090 78 18412823586232271599
7364860 26 18341893051916442560
77779 3 18410575080515869643
9709674 26 18411705412713462999
9981440 41 17398670593521552952

>  <PUBCHEM_SHAPE_MULTIPOLES>  (1) 
385.14
9.2
2.26
0.61
1.08
0.06
0
-0.91
0
-0.48
0
0.02
0.01
0

>  <PUBCHEM_SHAPE_SELFOVERLAP>  (1) 
885.811

>  <PUBCHEM_SHAPE_VOLUME>  (1) 
198.9

>  <PUBCHEM_COORDINATE_TYPE>  (1) 
2
5
10

$$$$
