44296
     RDKit          3D

 22 25  0  0  0  0  0  0  0  0999 V2000
    0.9848    0.0409   -0.0002 C   0  0  0  0  0  0  0  0  0  0  0  0
   -1.4338    0.6033   -0.0002 C   0  0  0  0  0  0  0  0  0  0  0  0
    0.6212   -1.3281   -0.0001 C   0  0  0  0  0  0  0  0  0  0  0  0
   -1.7646   -0.7637    0.0000 C   0  0  0  0  0  0  0  0  0  0  0  0
   -0.0774    0.9811   -0.0002 C   0  0  0  0  0  0  0  0  0  0  0  0
   -0.7316   -1.7106    0.0000 C   0  0  0  0  0  0  0  0  0  0  0  0
    2.3811    0.3971   -0.0002 C   0  0  0  0  0  0  0  0  0  0  0  0
   -2.4657    1.5579   -0.0002 C   0  0  0  0  0  0  0  0  0  0  0  0
   -3.1166   -1.1477    0.0000 C   0  0  0  0  0  0  0  0  0  0  0  0
    3.3587   -0.6320   -0.0001 C   0  0  0  0  0  0  0  0  0  0  0  0
    1.6127   -2.3130    0.0000 C   0  0  0  0  0  0  0  0  0  0  0  0
   -3.8040    1.1635    0.0001 C   0  0  0  0  0  0  0  0  0  0  0  0
   -4.1293   -0.1887    0.0000 C   0  0  0  0  0  0  0  0  0  0  0  0
    0.1364    2.4678    0.0018 C   0  0  0  0  0  0  0  0  0  0  0  0
   -1.0911   -3.1739    0.0006 C   0  0  0  0  0  0  0  0  0  0  0  0
    2.9607   -1.9707    0.0000 C   0  0  0  0  0  0  0  0  0  0  0  0
    2.8634    1.7303   -0.0004 C   0  0  0  0  0  0  0  0  0  0  0  0
    4.7287   -0.3186    0.0000 C   0  0  0  0  0  0  0  0  0  0  0  0
   -4.8703    2.2096   -0.0006 C   0  0  0  0  0  0  0  0  0  0  0  0
   -5.5541   -0.6365   -0.0001 C   0  0  0  0  0  0  0  0  0  0  0  0
    4.2289    2.0286   -0.0002 C   0  0  0  0  0  0  0  0  0  0  0  0
    5.1619    1.0035    0.0000 C   0  0  0  0  0  0  0  0  0  0  0  0
  1  3  1  0
  1  5  2  0
  1  7  1  0
  2  4  2  0
  2  5  1  0
  2  8  1  0
  3  6  2  0
  3 11  1  0
  4  6  1  0
  4  9  1  0
  5 14  1  0
  6 15  1  0
  7 10  2  0
  7 17  1  0
  8 12  2  0
  9 13  2  0
 10 16  1  0
 10 18  1  0
 11 16  2  0
 12 13  1  0
 12 19  1  0
 13 20  1  0
 17 21  2  0
 18 22  2  0
 21 22  1  0
M  END
>  <PUBCHEM_COMPOUND_CID>  (1) 
44296

>  <PUBCHEM_CONFORMER_RMSD>  (1) 
0.6

>  <PUBCHEM_CONFORMER_DIVERSEORDER>  (1) 
1

>  <PUBCHEM_MMFF94_PARTIAL_CHARGES>  (1) 
24
11 -0.15
12 -0.14
13 -0.14
14 0.14
15 0.14
16 -0.15
17 -0.15
18 -0.15
19 0.14
20 0.14
21 -0.15
22 -0.15
23 0.15
24 0.15
25 0.15
32 0.15
33 0.15
34 0.15
41 0.15
42 0.15
5 -0.14
6 -0.14
8 -0.15
9 -0.15

>  <PUBCHEM_EFFECTIVE_ROTOR_COUNT>  (1) 
0

>  <PUBCHEM_PHARMACOPHORE_FEATURES>  (1) 
4
6 1 2 3 4 5 6 rings
6 1 3 7 10 11 16 rings
6 2 4 8 9 12 13 rings
6 7 10 17 18 21 22 rings

>  <PUBCHEM_HEAVY_ATOM_COUNT>  (1) 
22

>  <PUBCHEM_ATOM_DEF_STEREO_COUNT>  (1) 
0

>  <PUBCHEM_ATOM_UDEF_STEREO_COUNT>  (1) 
0

>  <PUBCHEM_BOND_DEF_STEREO_COUNT>  (1) 
0

>  <PUBCHEM_BOND_UDEF_STEREO_COUNT>  (1) 
0

>  <PUBCHEM_ISOTOPIC_ATOM_COUNT>  (1) 
0

>  <PUBCHEM_COMPONENT_COUNT>  (1) 
1

>  <PUBCHEM_CACTVS_TAUTO_COUNT>  (1) 
1

>  <PUBCHEM_CONFORMER_ID>  (1) 
0000AD0800000001

>  <PUBCHEM_MMFF94_ENERGY>  (1) 
113.8561

>  <PUBCHEM_FEATURE_SELFOVERLAP>  (1) 
20.37

>  <PUBCHEM_SHAPE_FINGERPRINT>  (1) 
10411042 1 17185877190861481287
10493431 412 18410856594004822201
10616163 171 18339081621964065334
10967382 1 18410575089264098754
1100329 8 18267024053463650737
11112241 14 16197317715298871944
12011746 2 18411138056112442470
12107183 9 17691972561755924697
12236239 1 17846500331379373507
12390115 104 18271261447008118433
12403259 226 18118962486638682750
12403814 3 17675917711910121213
12788726 201 17632304423601196072
12838862 33 18267003090145244104
13140716 1 18265056829920027251
138480 1 17689997838709525090
14787075 74 18342454872277491283
14790565 3 18410860953581828609
15042514 8 18120377816081899123
15131766 46 16155408713061879292
15196674 1 18410856525517480003
15536298 74 18341896260045860150
1601671 61 18410292497453758704
16945 1 18266458895955028967
1813 80 16950286191196485852
19591789 44 18410573950865643775
200 152 18131348609605888177
20510252 161 18343585105421408945
20715895 44 18047743798430067149
20739085 24 18047780142337649025
21033648 29 18342447166995867361
21267235 1 18411145731240417502
21279426 13 18340771421064498780
21304253 335 18334583416551732133
21421861 104 17896874357774315090
22182313 1 18267610011583685679
23227448 37 18341049721875969206
2334 1 18410855447480792643
23402539 116 18343294868658426509
23558518 356 17684083969627234866
23559900 14 18270398266161604454
2748010 2 18337959999781157663
3004659 81 18334859386239880502
335352 9 18410575042478531262
34797466 226 16845015722564822332
34934 24 18410852196227726178
350125 39 18337110039086366108
3545911 37 18411420635323093812
3680242 22 18335417907718179346
4214541 1 18410856555440125093
474 4 17822296829066880764
474229 33 18411138060856094743
495365 180 17274532239616770896
5104073 3 18335986368045907449
59755656 215 18412551994613489502
633830 44 18199466576203745407
69090 78 18410572898577648202
9709674 26 18412550911643862390

>  <PUBCHEM_SHAPE_MULTIPOLES>  (1) 
452.75
10.32
2.94
0.62
1.94
0.68
0
-3.65
0
0.03
0
0
0
0

>  <PUBCHEM_SHAPE_SELFOVERLAP>  (1) 
1028.651

>  <PUBCHEM_SHAPE_VOLUME>  (1) 
221

>  <PUBCHEM_COORDINATE_TYPE>  (1) 
2
5
10

$$$$
