44302
     RDKit          3D

 16 17  0  0  0  0  0  0  0  0999 V2000
    2.3348   -2.1606    0.0207 O   0  0  0  0  0  0  0  0  0  0  0  0
    3.6832    0.3090   -0.0031 N   0  0  0  0  0  0  0  0  0  0  0  0
    2.2730    0.2376   -0.0022 C   0  0  0  0  0  0  0  0  0  0  0  0
   -0.5143    0.1261   -0.0009 C   0  0  0  0  0  0  0  0  0  0  0  0
    1.6245   -0.9974    0.0100 C   0  0  0  0  0  0  0  0  0  0  0  0
   -1.9601    0.0686   -0.0008 C   0  0  0  0  0  0  0  0  0  0  0  0
    0.2307   -1.0532    0.0105 C   0  0  0  0  0  0  0  0  0  0  0  0
    1.5279    1.4167   -0.0135 C   0  0  0  0  0  0  0  0  0  0  0  0
    0.1342    1.3610   -0.0128 C   0  0  0  0  0  0  0  0  0  0  0  0
    4.4148    0.3582    1.2462 C   0  0  0  0  0  0  0  0  0  0  0  0
    4.4151    0.3200   -1.2532 C   0  0  0  0  0  0  0  0  0  0  0  0
   -2.6573    0.0535    1.2074 C   0  0  0  0  0  0  0  0  0  0  0  0
   -2.6569    0.0291   -1.2085 C   0  0  0  0  0  0  0  0  0  0  0  0
   -4.0510   -0.0016    1.2079 C   0  0  0  0  0  0  0  0  0  0  0  0
   -4.0508   -0.0258   -1.2080 C   0  0  0  0  0  0  0  0  0  0  0  0
   -4.7477   -0.0412    0.0002 C   0  0  0  0  0  0  0  0  0  0  0  0
  1  5  1  0
  2  3  1  0
  2 10  1  0
  2 11  1  0
  3  5  2  0
  3  8  1  0
  4  6  1  0
  4  7  2  0
  4  9  1  0
  5  7  1  0
  6 12  2  0
  6 13  1  0
  8  9  2  0
 12 14  1  0
 13 15  2  0
 14 16  2  0
 15 16  1  0
M  END
>  <PUBCHEM_COMPOUND_CID>  (1) 
44302

>  <PUBCHEM_CONFORMER_RMSD>  (1) 
0.6

>  <PUBCHEM_CONFORMER_DIVERSEORDER>  (1) 
1
2

>  <PUBCHEM_MMFF94_PARTIAL_CHARGES>  (1) 
23
1 -0.53
10 0.37
11 0.37
12 -0.15
13 -0.15
14 -0.15
15 -0.15
16 -0.15
17 0.15
18 0.15
19 0.15
2 -0.84
26 0.15
27 0.15
28 0.15
29 0.15
3 0.1
30 0.15
31 0.45
5 0.08
7 -0.15
8 -0.15
9 -0.15

>  <PUBCHEM_EFFECTIVE_ROTOR_COUNT>  (1) 
2

>  <PUBCHEM_PHARMACOPHORE_FEATURES>  (1) 
4
1 1 donor
1 2 cation
6 3 4 5 7 8 9 rings
6 6 12 13 14 15 16 rings

>  <PUBCHEM_HEAVY_ATOM_COUNT>  (1) 
16

>  <PUBCHEM_ATOM_DEF_STEREO_COUNT>  (1) 
0

>  <PUBCHEM_ATOM_UDEF_STEREO_COUNT>  (1) 
0

>  <PUBCHEM_BOND_DEF_STEREO_COUNT>  (1) 
0

>  <PUBCHEM_BOND_UDEF_STEREO_COUNT>  (1) 
0

>  <PUBCHEM_ISOTOPIC_ATOM_COUNT>  (1) 
0

>  <PUBCHEM_COMPONENT_COUNT>  (1) 
1

>  <PUBCHEM_CACTVS_TAUTO_COUNT>  (1) 
3

>  <PUBCHEM_CONFORMER_ID>  (1) 
0000AD0E00000001

>  <PUBCHEM_MMFF94_ENERGY>  (1) 
71.3348

>  <PUBCHEM_FEATURE_SELFOVERLAP>  (1) 
20.297

>  <PUBCHEM_SHAPE_FINGERPRINT>  (1) 
10465860 250 17240474810405309561
11132069 177 18411694417886802770
11401426 45 18342729736877598665
11471102 20 18409167714338282588
11543360 7 15841268246285041544
12236239 1 17632578253994457249
124424 183 17530676619616734793
12616999 72 18041288703270626734
12670546 56 17274821328932362561
13140716 1 18194398016604652168
13167823 11 16056883519952736252
13296908 3 18041280963475782499
13675066 3 17846787320746082209
13760787 19 14620793821115248812
13760787 5 18408888434253403588
14144814 61 18131069316498872675
14252887 29 18341337716702588770
14289901 80 15719679852439378600
14576447 43 18201424931025128671
14911166 2 18411143558461498844
14993402 34 18131912667486694879
15219456 202 17967250867189545967
15309172 13 18411982468411139751
15375358 24 18040434386677247659
16945 1 18410575097912075108
17834072 33 16415477181589850184
18186145 218 18131630101445989388
19026448 4 16081085983015089672
19026448 5 16200434675970271436
200 152 18343577461033463629
20279233 1 17748828505791856595
204376 136 18337109068075727506
20645477 70 18263918856823627447
22854114 59 18342735230299006600
23402539 116 16226037912583190983
23402655 69 18339918230380558581
23557571 272 16660361454772884029
23559900 14 17096078083339645122
2748010 2 18121776132615090012
296302 2 17313107461983007533
300161 21 17774997969312495569
4072396 5 18261938688095066762
474 4 17844233236939741240
4990 188 17275113816590121300
633830 44 18201728387491440132
7495541 125 17313392282734285201
77492 1 17775566438293552417
77779 3 15769777961339210656
9971528 1 17846782918848053104

>  <PUBCHEM_SHAPE_MULTIPOLES>  (1) 
318.42
9.45
1.23
1.18
0.42
0.31
-0.01
-0.34
-0.01
-0.94
0.01
0.35
-0.07
-0.03

>  <PUBCHEM_SHAPE_SELFOVERLAP>  (1) 
682.425

>  <PUBCHEM_SHAPE_VOLUME>  (1) 
177.8

>  <PUBCHEM_COORDINATE_TYPE>  (1) 
2
5
10

$$$$
