44314
     RDKit          3D

 21 24  0  0  0  0  0  0  0  0999 V2000
   -1.5236   -0.4112   -0.0006 C   0  0  0  0  0  0  0  0  0  0  0  0
    1.2915    0.1195   -0.0005 C   0  0  0  0  0  0  0  0  0  0  0  0
   -1.0603    0.9169    0.0005 C   0  0  0  0  0  0  0  0  0  0  0  0
   -5.2848    0.1117    0.0002 C   0  0  0  0  0  0  0  0  0  0  0  0
   -3.8202    0.3933    0.0000 C   0  0  0  0  0  0  0  0  0  0  0  0
    0.7953   -1.2073   -0.0006 C   0  0  0  0  0  0  0  0  0  0  0  0
    0.3268    1.1596    0.0005 C   0  0  0  0  0  0  0  0  0  0  0  0
    2.7160    0.3367   -0.0003 C   0  0  0  0  0  0  0  0  0  0  0  0
   -2.9067   -0.6604   -0.0010 C   0  0  0  0  0  0  0  0  0  0  0  0
   -0.5886   -1.4550   -0.0010 C   0  0  0  0  0  0  0  0  0  0  0  0
   -1.9934    1.9682    0.0019 C   0  0  0  0  0  0  0  0  0  0  0  0
   -3.3638    1.7072    0.0015 C   0  0  0  0  0  0  0  0  0  0  0  0
    3.5877   -0.7834    0.0007 C   0  0  0  0  0  0  0  0  0  0  0  0
    1.6852   -2.2846   -0.0002 C   0  0  0  0  0  0  0  0  0  0  0  0
   -5.7437   -0.6467    1.2614 C   0  0  0  0  0  0  0  0  0  0  0  0
   -5.7448   -0.6439   -1.2622 C   0  0  0  0  0  0  0  0  0  0  0  0
    3.0603   -2.0764    0.0008 C   0  0  0  0  0  0  0  0  0  0  0  0
    3.3271    1.6160   -0.0017 C   0  0  0  0  0  0  0  0  0  0  0  0
    4.9819   -0.6061    0.0013 C   0  0  0  0  0  0  0  0  0  0  0  0
    4.7151    1.7789   -0.0013 C   0  0  0  0  0  0  0  0  0  0  0  0
    5.5429    0.6671    0.0005 C   0  0  0  0  0  0  0  0  0  0  0  0
  1  3  2  0
  1  9  1  0
  1 10  1  0
  2  6  1  0
  2  7  2  0
  2  8  1  0
  3  7  1  0
  3 11  1  0
  4  5  1  0
  4 15  1  0
  4 16  1  0
  5  9  2  0
  5 12  1  0
  6 10  2  0
  6 14  1  0
  8 13  2  0
  8 18  1  0
 11 12  2  0
 13 17  1  0
 13 19  1  0
 14 17  2  0
 18 20  2  0
 19 21  2  0
 20 21  1  0
M  END
>  <PUBCHEM_COMPOUND_CID>  (1) 
44314

>  <PUBCHEM_CONFORMER_RMSD>  (1) 
0.6

>  <PUBCHEM_CONFORMER_DIVERSEORDER>  (1) 
1

>  <PUBCHEM_MMFF94_PARTIAL_CHARGES>  (1) 
24
10 -0.15
11 -0.15
12 -0.15
14 -0.15
17 -0.15
18 -0.15
19 -0.15
20 -0.15
21 -0.15
23 0.15
24 0.15
25 0.15
26 0.15
27 0.15
28 0.15
35 0.15
36 0.15
37 0.15
38 0.15
39 0.15
4 0.14
5 -0.14
7 -0.15
9 -0.15

>  <PUBCHEM_EFFECTIVE_ROTOR_COUNT>  (1) 
1

>  <PUBCHEM_PHARMACOPHORE_FEATURES>  (1) 
5
3 4 15 16 hydrophobe
6 1 2 3 6 7 10 rings
6 1 3 5 9 11 12 rings
6 2 6 8 13 14 17 rings
6 8 13 18 19 20 21 rings

>  <PUBCHEM_HEAVY_ATOM_COUNT>  (1) 
21

>  <PUBCHEM_ATOM_DEF_STEREO_COUNT>  (1) 
0

>  <PUBCHEM_ATOM_UDEF_STEREO_COUNT>  (1) 
0

>  <PUBCHEM_BOND_DEF_STEREO_COUNT>  (1) 
0

>  <PUBCHEM_BOND_UDEF_STEREO_COUNT>  (1) 
0

>  <PUBCHEM_ISOTOPIC_ATOM_COUNT>  (1) 
0

>  <PUBCHEM_COMPONENT_COUNT>  (1) 
1

>  <PUBCHEM_CACTVS_TAUTO_COUNT>  (1) 
1

>  <PUBCHEM_CONFORMER_ID>  (1) 
0000AD1A00000001

>  <PUBCHEM_MMFF94_ENERGY>  (1) 
70.4946

>  <PUBCHEM_FEATURE_SELFOVERLAP>  (1) 
25.446

>  <PUBCHEM_SHAPE_FINGERPRINT>  (1) 
10 15 18261387906227633056
10090160 65 18334009505984182751
10411042 1 17834113040256176610
10670039 82 18188507791482039364
10835480 77 18261667096134139989
10967382 1 18410573972915428192
11578080 2 13335892481012157364
12107183 9 17620760483437816681
12236239 1 17775286058148529795
12403259 226 18118961395764709180
12403259 415 18260545593529828029
12730499 353 18410019840335128738
12838862 33 18338780317724859080
12916748 109 18410580578195386320
13009979 54 17342662163319768402
13140716 1 18122068873037901433
13533116 47 17894908491303538258
13583140 156 16588023532672976569
13862211 1 18411414016535975527
14251764 18 18334290964672165122
14341114 176 18408048406968914475
14528608 73 18413669123342408756
146900 427 18202567297482935505
14787075 74 18413106173621069979
14790565 3 18341619204611940489
15196674 1 18338798905477620229
15536298 74 18341613668620252182
17349148 13 18187364324541354397
17492 89 18196091040793864958
17834072 33 18343016696696202167
18681886 176 18272081683267644562
19489759 90 15719388426350302581
200 152 18273210885571723425
20645477 70 18342740668033740382
21267235 1 18411427176569010542
21623969 137 18335713762324836419
21652331 79 18410292505901093100
221357 26 18272373053553716372
22149856 69 18265917855463118331
23402539 116 18342170073154342901
23522609 53 17916047779000252969
23559900 14 18337387252828194089
239999 70 18272094860016500678
2871803 45 18334854991665585807
335352 9 18410575098692894742
33824 294 18408040693687906698
34797466 226 16702305701980804188
34934 24 18410569612985981351
350125 39 18411420587846676328
3545911 37 18409451397133924652
4073 2 18041287612348849379
4214541 1 18338517439196741953
42630746 31 18413108355702034502
4325135 7 18343861121884751743
4340502 62 17240765090170492170
474 4 17967819379273341268
474229 33 18410293627093298643
5104073 3 18337110038580088201
5283173 99 17750504105889438213
542803 24 17060340721152185313
59755656 215 18409170996052278950
7495541 125 17418085555100867315
9709674 26 18338804407331252623

>  <PUBCHEM_SHAPE_MULTIPOLES>  (1) 
432.17
12.99
2.09
0.77
5.71
0.1
0
-0.78
0
-1.3
0
0.87
0.1
0

>  <PUBCHEM_SHAPE_SELFOVERLAP>  (1) 
974.872

>  <PUBCHEM_SHAPE_VOLUME>  (1) 
209.7

>  <PUBCHEM_COORDINATE_TYPE>  (1) 
2
5
10

$$$$
