44313
     RDKit          3D

 21 24  0  0  0  0  0  0  0  0999 V2000
   -1.7532    0.0742    0.0002 C   0  0  0  0  0  0  0  0  0  0  0  0
   -3.1566   -0.0001    0.0002 C   0  0  0  0  0  0  0  0  0  0  0  0
   -3.8827   -1.3101   -0.0013 C   0  0  0  0  0  0  0  0  0  0  0  0
   -1.1274    1.3339    0.0007 C   0  0  0  0  0  0  0  0  0  0  0  0
    1.1062    0.2487   -0.0003 C   0  0  0  0  0  0  0  0  0  0  0  0
    0.4479   -1.0056    0.0003 C   0  0  0  0  0  0  0  0  0  0  0  0
   -0.9560   -1.0783    0.0002 C   0  0  0  0  0  0  0  0  0  0  0  0
    0.2791    1.4012    0.0003 C   0  0  0  0  0  0  0  0  0  0  0  0
    2.5467    0.2861   -0.0005 C   0  0  0  0  0  0  0  0  0  0  0  0
   -3.9311    1.1596    0.0009 C   0  0  0  0  0  0  0  0  0  0  0  0
    3.2715   -0.9342    0.0009 C   0  0  0  0  0  0  0  0  0  0  0  0
   -1.9217    2.4936    0.0018 C   0  0  0  0  0  0  0  0  0  0  0  0
   -4.7414   -1.5045   -1.2638 C   0  0  0  0  0  0  0  0  0  0  0  0
   -4.7427   -1.5069    1.2599 C   0  0  0  0  0  0  0  0  0  0  0  0
    1.1962   -2.1858    0.0010 C   0  0  0  0  0  0  0  0  0  0  0  0
   -3.3141    2.4061    0.0017 C   0  0  0  0  0  0  0  0  0  0  0  0
    2.5865   -2.1512    0.0016 C   0  0  0  0  0  0  0  0  0  0  0  0
    3.3129    1.4789   -0.0025 C   0  0  0  0  0  0  0  0  0  0  0  0
    4.6769   -0.9327    0.0012 C   0  0  0  0  0  0  0  0  0  0  0  0
    4.7105    1.4669   -0.0024 C   0  0  0  0  0  0  0  0  0  0  0  0
    5.3927    0.2603   -0.0002 C   0  0  0  0  0  0  0  0  0  0  0  0
  1  2  2  0
  1  4  1  0
  1  7  1  0
  2  3  1  0
  2 10  1  0
  3 13  1  0
  3 14  1  0
  4  8  1  0
  4 12  2  0
  5  6  1  0
  5  8  2  0
  5  9  1  0
  6  7  2  0
  6 15  1  0
  9 11  2  0
  9 18  1  0
 10 16  2  0
 11 17  1  0
 11 19  1  0
 12 16  1  0
 15 17  2  0
 18 20  2  0
 19 21  2  0
 20 21  1  0
M  END
>  <PUBCHEM_COMPOUND_CID>  (1) 
44313

>  <PUBCHEM_CONFORMER_RMSD>  (1) 
0.6

>  <PUBCHEM_CONFORMER_DIVERSEORDER>  (1) 
1

>  <PUBCHEM_MMFF94_PARTIAL_CHARGES>  (1) 
24
10 -0.15
12 -0.15
15 -0.15
16 -0.15
17 -0.15
18 -0.15
19 -0.15
2 -0.14
20 -0.15
21 -0.15
23 0.15
24 0.15
25 0.15
26 0.15
3 0.14
33 0.15
34 0.15
35 0.15
36 0.15
37 0.15
38 0.15
39 0.15
7 -0.15
8 -0.15

>  <PUBCHEM_EFFECTIVE_ROTOR_COUNT>  (1) 
1

>  <PUBCHEM_PHARMACOPHORE_FEATURES>  (1) 
5
3 3 13 14 hydrophobe
6 1 2 4 10 12 16 rings
6 1 4 5 6 7 8 rings
6 5 6 9 11 15 17 rings
6 9 11 18 19 20 21 rings

>  <PUBCHEM_HEAVY_ATOM_COUNT>  (1) 
21

>  <PUBCHEM_ATOM_DEF_STEREO_COUNT>  (1) 
0

>  <PUBCHEM_ATOM_UDEF_STEREO_COUNT>  (1) 
0

>  <PUBCHEM_BOND_DEF_STEREO_COUNT>  (1) 
0

>  <PUBCHEM_BOND_UDEF_STEREO_COUNT>  (1) 
0

>  <PUBCHEM_ISOTOPIC_ATOM_COUNT>  (1) 
0

>  <PUBCHEM_COMPONENT_COUNT>  (1) 
1

>  <PUBCHEM_CACTVS_TAUTO_COUNT>  (1) 
1

>  <PUBCHEM_CONFORMER_ID>  (1) 
0000AD1900000001

>  <PUBCHEM_MMFF94_ENERGY>  (1) 
76.863

>  <PUBCHEM_FEATURE_SELFOVERLAP>  (1) 
25.446

>  <PUBCHEM_SHAPE_FINGERPRINT>  (1) 
10090160 65 18260827145958348486
10608611 8 18337670793826449316
10616163 171 18412545375399044479
10670039 82 18188505626908089028
10906281 52 17986680273251669421
10967382 1 18338517567960949060
11488393 25 17487637229444293734
11806522 49 18409165527967839886
12107183 9 17689433784922310634
121448 382 16805324414059639859
12236239 1 17846784044050200911
12403259 118 18338505366439058704
12403259 226 18411412891550371848
12403259 415 18202279230285553600
12403260 363 18408880746383399280
13140716 1 17977954814617494259
13167823 11 18410572864423664118
13224815 77 18410013217057246971
13544653 18 18336549404035843381
13862211 1 18411132580177274630
14787075 74 18341049717612364362
15196674 1 18410573964103941024
15536298 74 18341613655735259342
16087824 20 18339640037788094829
17349148 13 17894917346929658472
17492 89 18338798901199399666
18681886 176 18412822500386163720
18927931 339 18411425016142503687
19591789 44 18340767130244483112
200 152 18342171185408415071
20510252 161 18342178851550661225
21065198 57 18194965136649388748
21236236 1 18412263930645295409
21267235 1 18410582794309100102
21709351 56 18334853896818204004
221490 88 18338805502901230530
22393880 68 18338520712320264726
23227448 37 18265893562506021765
23366157 5 17969789566687537354
23402539 116 18335134293388688911
23557571 272 18272940413836923735
23559900 14 18053377709011529730
2871803 45 18408599270884501247
335352 9 18050568443779958388
34934 24 18336541600149026637
350125 39 18410859884087375784
3545911 37 18337674109446334269
4214541 1 18410856516748489668
474 4 17894638062913997532
474229 33 18410292553425438098
4990 188 18060145310638725020
5104073 3 18410572838780286408
5283173 99 18042670742348063493
7495541 125 17560794472426721714
77779 3 18411137996294272844
9709674 26 18410018697589004138

>  <PUBCHEM_SHAPE_MULTIPOLES>  (1) 
432.17
10.92
2.58
0.77
2.71
0.44
0
-1.07
0
-1.15
0
-0.72
-0.23
0

>  <PUBCHEM_SHAPE_SELFOVERLAP>  (1) 
976.262

>  <PUBCHEM_SHAPE_VOLUME>  (1) 
210.8

>  <PUBCHEM_COORDINATE_TYPE>  (1) 
2
5
10

$$$$
