44319
     RDKit          3D

 20 23  0  0  0  0  0  0  0  0999 V2000
   -0.2798   -1.3738   -0.0489 N   0  0  0  0  0  0  0  0  0  0  0  0
   -1.3605    1.1509    0.2026 C   0  0  0  0  0  0  0  0  0  0  0  0
    0.0288    0.9906    0.1592 C   0  0  0  0  0  0  0  0  0  0  0  0
    0.5516   -0.3091    0.0306 C   0  0  0  0  0  0  0  0  0  0  0  0
   -2.2096    0.0450    0.1203 C   0  0  0  0  0  0  0  0  0  0  0  0
    1.9546   -0.4679   -0.0123 C   0  0  0  0  0  0  0  0  0  0  0  0
   -1.9524    2.5266    0.3403 C   0  0  0  0  0  0  0  0  0  0  0  0
   -1.6170   -1.2188   -0.0069 C   0  0  0  0  0  0  0  0  0  0  0  0
    2.8104    0.6607    0.0727 C   0  0  0  0  0  0  0  0  0  0  0  0
    0.8786    2.1004    0.2422 C   0  0  0  0  0  0  0  0  0  0  0  0
    2.2578    1.9366    0.1994 C   0  0  0  0  0  0  0  0  0  0  0  0
   -3.6089    0.1765    0.1618 C   0  0  0  0  0  0  0  0  0  0  0  0
    2.5566   -1.7383   -0.1393 C   0  0  0  0  0  0  0  0  0  0  0  0
   -2.2062    3.1740   -1.0132 C   0  0  0  0  0  0  0  0  0  0  0  0
   -2.4529   -2.3292   -0.0900 C   0  0  0  0  0  0  0  0  0  0  0  0
    4.2045    0.4932    0.0297 C   0  0  0  0  0  0  0  0  0  0  0  0
   -4.4236   -0.9485    0.0774 C   0  0  0  0  0  0  0  0  0  0  0  0
   -3.8438   -2.2043   -0.0489 C   0  0  0  0  0  0  0  0  0  0  0  0
    3.9443   -1.8898   -0.1807 C   0  0  0  0  0  0  0  0  0  0  0  0
    4.7675   -0.7747   -0.0960 C   0  0  0  0  0  0  0  0  0  0  0  0
  1  4  2  0
  1  8  1  0
  2  3  2  0
  2  5  1  0
  2  7  1  0
  3  4  1  0
  3 10  1  0
  4  6  1  0
  5  8  2  0
  5 12  1  0
  6  9  2  0
  6 13  1  0
  7 14  1  0
  8 15  1  0
  9 11  1  0
  9 16  1  0
 10 11  2  0
 12 17  2  0
 13 19  2  0
 15 18  2  0
 16 20  2  0
 17 18  1  0
 19 20  1  0
M  END
>  <PUBCHEM_COMPOUND_CID>  (1) 
44319

>  <PUBCHEM_CONFORMER_RMSD>  (1) 
0.6

>  <PUBCHEM_CONFORMER_DIVERSEORDER>  (1) 
1

>  <PUBCHEM_MMFF94_PARTIAL_CHARGES>  (1) 
25
1 -0.62
10 -0.15
11 -0.15
12 -0.15
13 -0.15
15 -0.15
16 -0.15
17 -0.15
18 -0.15
19 -0.15
2 -0.14
20 -0.15
23 0.15
24 0.15
25 0.15
26 0.15
30 0.15
31 0.15
32 0.15
33 0.15
34 0.15
35 0.15
4 0.31
7 0.14
8 0.31

>  <PUBCHEM_EFFECTIVE_ROTOR_COUNT>  (1) 
1

>  <PUBCHEM_PHARMACOPHORE_FEATURES>  (1) 
6
1 1 acceptor
1 14 hydrophobe
6 1 2 3 4 5 8 rings
6 3 4 6 9 10 11 rings
6 5 8 12 15 17 18 rings
6 6 9 13 16 19 20 rings

>  <PUBCHEM_HEAVY_ATOM_COUNT>  (1) 
20

>  <PUBCHEM_ATOM_DEF_STEREO_COUNT>  (1) 
0

>  <PUBCHEM_ATOM_UDEF_STEREO_COUNT>  (1) 
0

>  <PUBCHEM_BOND_DEF_STEREO_COUNT>  (1) 
0

>  <PUBCHEM_BOND_UDEF_STEREO_COUNT>  (1) 
0

>  <PUBCHEM_ISOTOPIC_ATOM_COUNT>  (1) 
0

>  <PUBCHEM_COMPONENT_COUNT>  (1) 
1

>  <PUBCHEM_CACTVS_TAUTO_COUNT>  (1) 
1

>  <PUBCHEM_CONFORMER_ID>  (1) 
0000AD1F00000001

>  <PUBCHEM_MMFF94_ENERGY>  (1) 
73.046

>  <PUBCHEM_FEATURE_SELFOVERLAP>  (1) 
30.532

>  <PUBCHEM_SHAPE_FINGERPRINT>  (1) 
10319926 262 18124852618375277698
10616163 171 18413111640993612118
10967382 1 18123469642071712738
1100329 8 17398949380017216379
11578080 2 17460006571057472908
116883 192 18410856568266693036
11806522 49 18409449215227267218
12403259 226 18412258462767059137
12553582 1 18339353162486241499
13140716 1 18340214093397497107
138480 1 15384438306001024897
14178342 30 18265881494011455736
14223421 5 18412257363455767984
14790565 3 17620200832131067944
15042514 8 18194681454471198042
15196674 1 18412263964598695986
15352361 1 18411982493911996114
15442244 35 18412266103682417458
15536298 74 18271526510840483282
15927050 60 15099300847990045348
16752209 62 18264474118848288211
16945 1 18410851092162486449
17357779 13 18337092545431479453
17492 89 18410575046373299114
17804303 29 18341618113436695257
1813 80 17603866740606262173
19141452 34 18343587356580299187
19591789 44 18266180530539934971
200 152 17988640835057871639
20510252 161 18343021043145213585
21267235 1 18339934795484181306
21307412 95 17410507480961610190
21421861 104 18187641358495826330
21501502 16 18411427210654507288
221490 88 18265058109651619218
22182313 1 18267845302914141016
23184049 29 18411983559074084244
2334 1 17907296911560794547
23402539 116 18343577456649027191
23463225 33 18340207495926693071
23557571 272 18200883872693769806
23559900 14 18341044194506279656
238 59 16454285264973838285
2748010 2 18268712697191767284
2871803 45 18408317804608533870
3091708 16 8990569708592010601
335352 9 18339925918292682797
350125 39 18411423899087256424
4214541 1 18339362963838598008
46194498 28 17317867394561000655
5104073 3 18341613732675601322
559249 180 18045214943419273930
7364860 26 18198904893355502776
81228 2 18261396667417558721
8809292 202 18335142028619884635
9709674 26 18341619178831678206

>  <PUBCHEM_SHAPE_MULTIPOLES>  (1) 
406.61
8.3
3.1
0.69
3.07
1.25
-0.05
-3.84
-0.21
-1.82
-0.39
-0.12
0.19
0.41

>  <PUBCHEM_SHAPE_SELFOVERLAP>  (1) 
928.444

>  <PUBCHEM_SHAPE_VOLUME>  (1) 
210.3

>  <PUBCHEM_COORDINATE_TYPE>  (1) 
2
5
10

$$$$
