44329
     RDKit          3D

 29 33  0  0  0  0  0  0  0  0999 V2000
   -7.4689    1.4756    1.2134 O   0  0  0  0  0  0  0  0  0  0  0  0
   -7.8748    0.7501   -0.8230 O   0  0  0  0  0  0  0  0  0  0  0  0
    3.3752   -1.3164   -0.0469 N   0  0  0  0  0  0  0  0  0  0  0  0
   -7.0867    0.9861    0.1238 N   0  0  0  0  0  0  0  0  0  0  0  0
    1.6568    0.3310    0.2005 C   0  0  0  0  0  0  0  0  0  0  0  0
    3.0096   -0.0161    0.0325 C   0  0  0  0  0  0  0  0  0  0  0  0
    0.7088   -0.6947    0.2825 C   0  0  0  0  0  0  0  0  0  0  0  0
    3.9646    1.0217   -0.0498 C   0  0  0  0  0  0  0  0  0  0  0  0
    1.0970   -2.0338    0.1997 C   0  0  0  0  0  0  0  0  0  0  0  0
    3.5619    2.3797    0.0357 C   0  0  0  0  0  0  0  0  0  0  0  0
    2.4622   -2.3034    0.0322 C   0  0  0  0  0  0  0  0  0  0  0  0
    1.2658    1.6730    0.2840 C   0  0  0  0  0  0  0  0  0  0  0  0
    2.2106    2.6886    0.2023 C   0  0  0  0  0  0  0  0  0  0  0  0
   -0.7136   -0.3672    0.4573 C   0  0  0  0  0  0  0  0  0  0  0  0
    5.3403    0.7559   -0.2181 C   0  0  0  0  0  0  0  0  0  0  0  0
    0.1663   -3.0847    0.2793 C   0  0  0  0  0  0  0  0  0  0  0  0
    4.5187    3.4051   -0.0468 C   0  0  0  0  0  0  0  0  0  0  0  0
    2.8619   -3.6346   -0.0518 C   0  0  0  0  0  0  0  0  0  0  0  0
    6.2804    1.7856   -0.2986 C   0  0  0  0  0  0  0  0  0  0  0  0
    0.5901   -4.4073    0.1928 C   0  0  0  0  0  0  0  0  0  0  0  0
    5.8696    3.1093   -0.2130 C   0  0  0  0  0  0  0  0  0  0  0  0
   -1.5895   -0.2015   -0.5500 C   0  0  0  0  0  0  0  0  0  0  0  0
    1.9413   -4.6826    0.0268 C   0  0  0  0  0  0  0  0  0  0  0  0
   -3.0197    0.1077   -0.3749 C   0  0  0  0  0  0  0  0  0  0  0  0
   -3.4547    0.6488    0.8240 C   0  0  0  0  0  0  0  0  0  0  0  0
   -3.9011   -0.1489   -1.4124 C   0  0  0  0  0  0  0  0  0  0  0  0
   -4.8085    0.9411    0.9901 C   0  0  0  0  0  0  0  0  0  0  0  0
   -5.2548    0.1436   -1.2464 C   0  0  0  0  0  0  0  0  0  0  0  0
   -5.7087    0.6885   -0.0451 C   0  0  0  0  0  0  0  0  0  0  0  0
  1  4  1  0
  2  4  2  0
  3  6  2  0
  3 11  1  0
  4 29  1  0
  5  6  1  0
  5  7  2  0
  5 12  1  0
  6  8  1  0
  7  9  1  0
  7 14  1  0
  8 10  2  0
  8 15  1  0
  9 11  2  0
  9 16  1  0
 10 13  1  0
 10 17  1  0
 11 18  1  0
 12 13  2  0
 14 22  2  0
 15 19  2  0
 16 20  2  0
 17 21  2  0
 18 23  2  0
 19 21  1  0
 20 23  1  0
 22 24  1  0
 24 25  2  0
 24 26  1  0
 25 27  1  0
 26 28  2  0
 27 29  2  0
 28 29  1  0
M  CHG  2   1  -1   4   1
M  END
>  <PUBCHEM_COMPOUND_CID>  (1) 
44329

>  <PUBCHEM_CONFORMER_RMSD>  (1) 
0.8

>  <PUBCHEM_CONFORMER_DIVERSEORDER>  (1) 
1

>  <PUBCHEM_MMFF94_PARTIAL_CHARGES>  (1) 
41
1 -0.52
11 0.31
12 -0.15
13 -0.15
14 -0.18
15 -0.15
16 -0.15
17 -0.15
18 -0.15
19 -0.15
2 -0.52
20 -0.15
21 -0.15
22 -0.18
23 -0.15
24 0.03
25 -0.15
26 -0.15
27 -0.15
28 -0.15
29 0.13
3 -0.62
30 0.15
31 0.15
32 0.15
33 0.15
34 0.15
35 0.15
36 0.15
37 0.15
38 0.15
39 0.15
4 0.91
40 0.15
41 0.15
42 0.15
43 0.15
44 0.15
45 0.15
6 0.31
7 0.03

>  <PUBCHEM_EFFECTIVE_ROTOR_COUNT>  (1) 
3

>  <PUBCHEM_PHARMACOPHORE_FEATURES>  (1) 
9
1 1 acceptor
1 1 anion
1 2 acceptor
1 3 acceptor
6 24 25 26 27 28 29 rings
6 3 5 6 7 9 11 rings
6 5 6 8 10 12 13 rings
6 8 10 15 17 19 21 rings
6 9 11 16 18 20 23 rings

>  <PUBCHEM_HEAVY_ATOM_COUNT>  (1) 
29

>  <PUBCHEM_ATOM_DEF_STEREO_COUNT>  (1) 
0

>  <PUBCHEM_ATOM_UDEF_STEREO_COUNT>  (1) 
0

>  <PUBCHEM_BOND_DEF_STEREO_COUNT>  (1) 
0

>  <PUBCHEM_BOND_UDEF_STEREO_COUNT>  (1) 
1

>  <PUBCHEM_ISOTOPIC_ATOM_COUNT>  (1) 
0

>  <PUBCHEM_COMPONENT_COUNT>  (1) 
1

>  <PUBCHEM_CACTVS_TAUTO_COUNT>  (1) 
1

>  <PUBCHEM_CONFORMER_ID>  (1) 
0000AD2900000001

>  <PUBCHEM_MMFF94_ENERGY>  (1) 
110.288

>  <PUBCHEM_FEATURE_SELFOVERLAP>  (1) 
45.839

>  <PUBCHEM_SHAPE_FINGERPRINT>  (1) 
10165383 225 18334297591437827780
10411042 1 17833832673460026234
10483366 6 18339655447681976854
10595046 47 18342736300584607113
10675989 125 18413389847895953496
10693767 8 18059297540009055278
10835480 77 18334573513480753637
1100329 8 18409443692612117946
11135609 187 18411696621041839913
11135926 11 18410566293234283039
11181472 205 17985271777714032697
11719270 70 18410568483725684776
11763715 3 17331141402985057798
12107183 9 17622733012300155713
12144603 126 18202282529722361023
12236239 1 17989204824831085549
12293681 160 17917436474917613608
12597179 24 18187368756752795962
12730499 353 18335425659817773355
12788726 201 17274829004756267937
13009979 54 17486208903345870491
13533116 47 18342453687246351859
13631057 29 18126277778555210543
13785724 45 17552366471203766199
138480 1 18050286964841011674
13955234 65 18335419002560845315
14117953 113 18411702063793779142
14400156 413 18336817582021796133
14415360 78 18122891286055809668
14790565 3 18338520841254107940
15183329 4 17346608494581503853
15250474 111 18130206213289526647
15276724 80 18267021662238486101
15439362 3 18411983581414071236
15484559 13 18341337721472771566
15664445 248 17913221870834186950
1577012 14 17917429792755615249
15927050 60 18341049726066078014
16728300 4 17317575749471011226
16993427 108 11239176450579901556
16993438 75 18046349901064354955
17844677 252 18267306418347755301
17913733 40 18338535121819563627
18335252 98 18335987558575059939
19315958 150 18336275583514183851
19319366 153 18343299270994616871
19427546 62 18408886269315904482
1979834 28 18041005037512552837
20157964 124 18410294692556327121
20505436 4 18131914879933085319
20511986 3 17775272868478563273
20554085 129 18059843009508092848
20715895 44 18338799026539064584
21033648 144 18114733919542490311
21033648 29 18195803192470770512
21033650 10 15195021431269975283
21049683 118 18194379299353259952
21049683 271 18044105562067558262
21307412 95 18056789661902878654
21344244 78 18055898918958918499
21792964 463 18195274173018100153
21927370 108 17761779464261922274
22033318 11 17554912983462657801
23522609 53 17774737364041222129
23845131 108 18334296504278877995
23929065 36 17408220922188029314
24771293 8 18128517320611412834
255183 451 17841438029274156318
27425 322 18271246144081646684
3178227 256 18334856074641215338
335352 9 18411141347223254452
350125 39 18049729821398479698
38570 142 18343028812762014782
38695281 34 18410856598764195034
397830 11 18114756997092628035
4058900 60 18336274500200963656
4073 2 18334861632634896851
4144715 1 18116163186586897377
4516262 110 18411694396813490989
474 4 18411980273413644411
5385378 56 18409729547595010288
6025842 7 18411417276263406327
6057620 51 18342452691051374445
6697151 62 17539660544908494231
70251023 43 17983586195648797334
8272917 22 18412825754911207359

>  <PUBCHEM_SHAPE_MULTIPOLES>  (1) 
575.11
16.43
4.96
0.89
27.94
6.41
-0.08
-16.95
-1.18
-7.74
0.33
1.22
-0.15
-0.7

>  <PUBCHEM_SHAPE_SELFOVERLAP>  (1) 
1313.173

>  <PUBCHEM_SHAPE_VOLUME>  (1) 
299.4

>  <PUBCHEM_COORDINATE_TYPE>  (1) 
2
5
10

$$$$
