44334
     RDKit          3D

 21 24  0  0  0  0  0  0  0  0999 V2000
    5.2937    1.1356   -0.0016 O   0  0  0  0  0  0  0  0  0  0  0  0
    3.4951    2.3942   -0.0007 O   0  0  0  0  0  0  0  0  0  0  0  0
    4.0502    1.2730   -0.0005 N   0  0  0  0  0  0  0  0  0  0  0  0
   -0.3967   -0.9055    0.0001 C   0  0  0  0  0  0  0  0  0  0  0  0
   -1.0299    0.3718    0.0004 C   0  0  0  0  0  0  0  0  0  0  0  0
    1.0443   -1.0137    0.0002 C   0  0  0  0  0  0  0  0  0  0  0  0
   -2.4708    0.4801    0.0003 C   0  0  0  0  0  0  0  0  0  0  0  0
    1.8270    0.1655    0.0006 C   0  0  0  0  0  0  0  0  0  0  0  0
   -3.2535   -0.6992   -0.0003 C   0  0  0  0  0  0  0  0  0  0  0  0
   -0.1903    1.5043    0.0008 C   0  0  0  0  0  0  0  0  0  0  0  0
   -1.2362   -2.0380   -0.0003 C   0  0  0  0  0  0  0  0  0  0  0  0
    1.1994    1.4068    0.0009 C   0  0  0  0  0  0  0  0  0  0  0  0
   -2.6259   -1.9405   -0.0005 C   0  0  0  0  0  0  0  0  0  0  0  0
    3.2317    0.1032    0.0008 C   0  0  0  0  0  0  0  0  0  0  0  0
    1.7613   -2.2397   -0.0001 C   0  0  0  0  0  0  0  0  0  0  0  0
   -3.1878    1.7061    0.0002 C   0  0  0  0  0  0  0  0  0  0  0  0
   -4.6583   -0.6369   -0.0004 C   0  0  0  0  0  0  0  0  0  0  0  0
    3.8946   -1.1190    0.0005 C   0  0  0  0  0  0  0  0  0  0  0  0
    3.1585   -2.2923    0.0002 C   0  0  0  0  0  0  0  0  0  0  0  0
   -4.5850    1.7587   -0.0001 C   0  0  0  0  0  0  0  0  0  0  0  0
   -5.3211    0.5854   -0.0005 C   0  0  0  0  0  0  0  0  0  0  0  0
  1  3  1  0
  2  3  2  0
  3 14  1  0
  4  5  1  0
  4  6  2  0
  4 11  1  0
  5  7  1  0
  5 10  2  0
  6  8  1  0
  6 15  1  0
  7  9  2  0
  7 16  1  0
  8 12  2  0
  8 14  1  0
  9 13  1  0
  9 17  1  0
 10 12  1  0
 11 13  2  0
 14 18  2  0
 15 19  2  0
 16 20  2  0
 17 21  2  0
 18 19  1  0
 20 21  1  0
M  CHG  2   1  -1   3   1
M  END
>  <PUBCHEM_COMPOUND_CID>  (1) 
44334

>  <PUBCHEM_CONFORMER_RMSD>  (1) 
0.6

>  <PUBCHEM_CONFORMER_DIVERSEORDER>  (1) 
1

>  <PUBCHEM_MMFF94_PARTIAL_CHARGES>  (1) 
26
1 -0.52
10 -0.15
11 -0.15
12 -0.15
13 -0.15
14 0.13
15 -0.15
16 -0.15
17 -0.15
18 -0.15
19 -0.15
2 -0.52
20 -0.15
21 -0.15
22 0.15
23 0.15
24 0.15
25 0.15
26 0.15
27 0.15
28 0.15
29 0.15
3 0.91
30 0.15
31 0.15
32 0.15

>  <PUBCHEM_EFFECTIVE_ROTOR_COUNT>  (1) 
1

>  <PUBCHEM_PHARMACOPHORE_FEATURES>  (1) 
7
1 1 acceptor
1 1 anion
1 2 acceptor
6 4 5 6 8 10 12 rings
6 4 5 7 9 11 13 rings
6 6 8 14 15 18 19 rings
6 7 9 16 17 20 21 rings

>  <PUBCHEM_HEAVY_ATOM_COUNT>  (1) 
21

>  <PUBCHEM_ATOM_DEF_STEREO_COUNT>  (1) 
0

>  <PUBCHEM_ATOM_UDEF_STEREO_COUNT>  (1) 
0

>  <PUBCHEM_BOND_DEF_STEREO_COUNT>  (1) 
0

>  <PUBCHEM_BOND_UDEF_STEREO_COUNT>  (1) 
0

>  <PUBCHEM_ISOTOPIC_ATOM_COUNT>  (1) 
0

>  <PUBCHEM_COMPONENT_COUNT>  (1) 
1

>  <PUBCHEM_CACTVS_TAUTO_COUNT>  (1) 
1

>  <PUBCHEM_CONFORMER_ID>  (1) 
0000AD2E00000001

>  <PUBCHEM_MMFF94_ENERGY>  (1) 
98.6691

>  <PUBCHEM_FEATURE_SELFOVERLAP>  (1) 
35.672

>  <PUBCHEM_SHAPE_FINGERPRINT>  (1) 
10411042 1 17474107601040732459
10608611 8 18410009931396716030
10616163 171 18339644558763520495
10967382 1 18410575076110087074
1100329 8 16536512160378314099
11471102 20 18411135818576996814
11578080 2 17058635499193588123
11595378 159 16950832622727071053
12107183 9 17692535511714620753
12403259 415 18115025187319104813
12403814 3 17749102297077323717
12788726 201 17489315122700170873
13140716 1 18335981978289202186
13675066 3 18041286504125850283
138480 1 17834113043933673091
14341114 176 18408895014438648211
14790565 3 18410862040150376305
15196674 1 18410855439033276359
15375358 24 18408324401593911131
15442244 35 18339361842546230690
15536298 74 18413108338047385526
1601671 61 18409729582134323892
16945 1 18266741466211781575
17492 89 18411139143040868331
1813 80 16950287286460417733
18186145 218 17749106656110614519
19591789 44 18265050228497153791
200 152 18060415816263712495
20645477 56 18334012800493026669
20645477 70 18271527502851666118
21033648 29 17168420455500496325
21267235 1 18339088098532186983
21304253 335 18335146366673990957
21421861 104 17896308135156229418
21452121 103 18341041974324393626
221490 88 18408893935711260643
23227448 37 18412261770134360031
23402539 116 18343294877833936565
23402655 69 18343300361958566687
23559900 14 18342455894632902890
245318 6 16882461914863971412
296302 2 18411421708864509727
3004659 81 18335141939016310950
335352 9 18338798901567957118
34934 24 18411696603819603518
350125 39 18337390440395001852
3545911 37 18410576197086157757
3680242 22 18262797337746257154
4214541 1 18410573964003844161
474 4 17822015353958301332
495365 180 17417515991261774690
5104073 3 18408887317419618995
543358 83 18412267199015038026
59755656 215 18412269411519320710
69090 78 18411979135748652639
7364860 26 18413109433770545694
77779 3 18410856534292082899
9709674 26 18411423903461442439
9981440 41 17252590586930959969

>  <PUBCHEM_SHAPE_MULTIPOLES>  (1) 
415.45
10.16
2.54
0.6
1.76
0.24
0
-2.94
0
-1.11
0
0.06
0.02
0

>  <PUBCHEM_SHAPE_SELFOVERLAP>  (1) 
953.834

>  <PUBCHEM_SHAPE_VOLUME>  (1) 
214.8

>  <PUBCHEM_COORDINATE_TYPE>  (1) 
2
5
10

$$$$
