44330
     RDKit          3D

 13 13  0  0  0  0  0  0  0  0999 V2000
   -2.9833    1.4644    0.0636 O   0  0  0  0  0  0  0  0  0  0  0  0
   -4.2123   -0.5160   -0.0745 N   0  0  0  0  0  0  0  0  0  0  0  0
   -5.3190   -0.2800    0.8050 C   0  0  0  0  0  0  0  0  0  0  0  0
   -5.4283   -0.0144   -0.6435 C   0  0  0  0  0  0  0  0  0  0  0  0
   -0.5543    0.2353   -0.0327 C   0  0  0  0  0  0  0  0  0  0  0  0
   -1.8179   -0.6176   -0.0906 C   0  0  0  0  0  0  0  0  0  0  0  0
    0.7251   -0.6087   -0.0396 C   0  0  0  0  0  0  0  0  0  0  0  0
   -3.0521    0.2407   -0.0233 C   0  0  0  0  0  0  0  0  0  0  0  0
    1.9720    0.2790   -0.0104 C   0  0  0  0  0  0  0  0  0  0  0  0
    3.2839   -0.5111   -0.0287 C   0  0  0  0  0  0  0  0  0  0  0  0
    4.5301    0.3768   -0.0256 C   0  0  0  0  0  0  0  0  0  0  0  0
    5.8074   -0.4626    0.0295 C   0  0  0  0  0  0  0  0  0  0  0  0
    7.0488    0.4142    0.0708 C   0  0  0  0  0  0  0  0  0  0  0  0
  1  8  2  0
  2  3  1  0
  2  4  1  0
  2  8  1  0
  3  4  1  0
  5  6  1  0
  5  7  1  0
  6  8  1  0
  7  9  1  0
  9 10  1  0
 10 11  1  0
 11 12  1  0
 12 13  1  0
M  END
>  <PUBCHEM_COMPOUND_CID>  (1) 
44330

>  <PUBCHEM_CONFORMER_RMSD>  (1) 
0.8

>  <PUBCHEM_CONFORMER_DIVERSEORDER>  (1) 
1
13
29
124
152
89
197
104
50
48
193
49
142
19
162
261
119
21
46
111
6
24
128
282
116
23
164
151
245
190
202
221
240
215
141
171
144
7
214
181
176
173
14
15
178
36
71
273
140
37
11
194
126
4
138
172
145
238
210
40
149
122
9
196
26
189
5
192
92
150
134
125
102
28
97
275
43
269
180
82
201
232
289
216
130
250
146
186
230
199
203
157
120
266
270
39
163
198
166
44
54
243
91
212
279
103
16
133
169
79
77
274
280
153
247
220
22
56
84
112
228
147
73
61
86
267
136
59
249
256
93
154
80
277
115
85
76
244
72
284
226
264
139
74
101
127
159
78
223
42
191
66
121
20
268
234
253
204
52
200
211
174
62
18
8
229
213
10
160
87
88
224
281
30
3
237
58
271
106
25
156
51
68
260
251
187
265
60
258
182
2
227
276
236
32
242
114
129
148
35
94
252
34
263
286
27
185
239
278
107
65
99
218
117
222
143
195
225
262
45
219
175
95
208
188
255
31
285
90
168
165
248
47
287
231
96
233
81
184
283
290
207
135
291
110
69
118
41
132
98
83
109
75
57
113
235
100
161
167
12
67
179
183
259
272
209
155
33
108
257
177
158
241
137
123
131
206
170
64
105
254
70
246
63
17
217
38
288
205
55
53

>  <PUBCHEM_MMFF94_PARTIAL_CHARGES>  (1) 
10
1 -0.57
14 0.1
15 0.1
16 0.1
17 0.1
2 -0.36
3 -0.05
4 -0.05
6 0.06
8 0.57

>  <PUBCHEM_EFFECTIVE_ROTOR_COUNT>  (1) 
8.6

>  <PUBCHEM_PHARMACOPHORE_FEATURES>  (1) 
2
1 1 acceptor
1 13 hydrophobe

>  <PUBCHEM_HEAVY_ATOM_COUNT>  (1) 
13

>  <PUBCHEM_ATOM_DEF_STEREO_COUNT>  (1) 
0

>  <PUBCHEM_ATOM_UDEF_STEREO_COUNT>  (1) 
0

>  <PUBCHEM_BOND_DEF_STEREO_COUNT>  (1) 
0

>  <PUBCHEM_BOND_UDEF_STEREO_COUNT>  (1) 
0

>  <PUBCHEM_ISOTOPIC_ATOM_COUNT>  (1) 
0

>  <PUBCHEM_COMPONENT_COUNT>  (1) 
1

>  <PUBCHEM_CACTVS_TAUTO_COUNT>  (1) 
1

>  <PUBCHEM_CONFORMER_ID>  (1) 
0000AD2A00000001

>  <PUBCHEM_MMFF94_ENERGY>  (1) 
16.5158

>  <PUBCHEM_FEATURE_SELFOVERLAP>  (1) 
10.148

>  <PUBCHEM_SHAPE_FINGERPRINT>  (1) 
10968037 39 18410012147800346383
11315181 36 17458350749078866089
12091667 2 18411418414888246887
13533116 47 17131554943239755686
14123238 8 18273495667293417902
1420 363 18333737913785119034
14251718 22 18187364333147022378
14251764 46 15554446297384084438
17834072 33 17968099758732574750
17834076 25 14908181954164098054
19489759 90 14706924038648963389
20281389 69 18408601462172533416
20645477 70 17489033643861054942
20767249 13 13551192190689961058
20767249 213 18410012152406465524
220451 1 16773795896716374654
23035841 295 9799693697148889612
23402539 116 18409443704879269791
23521765 1 18341894095171294358
3545911 37 18273496775906767678
42788 4 18410575088979145238
542803 24 16487256573262977922
54446538 1 18334576850053320228
57583515 80 15936407831984853149
8209 1 18408885140103119262

>  <PUBCHEM_SHAPE_MULTIPOLES>  (1) 
256.68
17.39
0.89
0.69
13.59
0.13
0.02
0.49
0.52
-0.19
0.01
-0.42
-0.02
0.07

>  <PUBCHEM_SHAPE_SELFOVERLAP>  (1) 
479.488

>  <PUBCHEM_SHAPE_VOLUME>  (1) 
161.8

>  <PUBCHEM_COORDINATE_TYPE>  (1) 
2
5
10

$$$$
