44335
     RDKit          3D

 13 14  0  0  1  0  0  0  0  0999 V2000
   -4.6128   -1.0446   -0.8326 O   0  0  0  0  0  0  0  0  0  0  0  0
   -1.5529    0.5050    0.5310 N   0  0  0  0  0  0  0  0  0  0  0  0
    0.6300   -0.0023    1.1013 C   0  0  0  0  0  0  0  0  0  0  0  0
    0.6865    1.3662    0.4165 C   0  0  0  0  0  0  0  0  0  0  0  0
    1.8983   -0.8452    0.9926 C   0  0  0  0  0  0  0  0  0  0  0  0
    1.4058    1.3396   -0.9410 C   0  0  0  0  0  0  0  0  0  0  0  0
   -0.6159   -0.6205    0.4788 C   0  0  0  0  0  0  0  0  0  0  0  0
   -0.7967    1.7316    0.2362 C   0  0  0  0  0  0  0  0  0  0  0  0
    2.5380   -0.8363   -0.3993 C   0  0  0  0  0  0  0  0  0  0  0  0
    2.7376    0.6032   -0.8812 C   0  0  0  0  0  0  0  0  0  0  0  0
   -2.7019    0.3209   -0.3407 C   0  0  0  0  0  0  0  0  0  0  0  0
    3.8675   -1.5895   -0.3848 C   0  0  0  0  0  0  0  0  0  0  0  0
   -3.4834   -0.9282    0.0231 C   0  0  0  0  0  0  0  0  0  0  0  0
  1 13  1  0
  2  7  1  0
  2  8  1  0
  2 11  1  0
  3  4  1  0
  3  5  1  0
  3  7  1  0
  4  6  1  0
  4  8  1  0
  5  9  1  0
  6 10  1  0
  9 10  1  0
  9 12  1  0
 11 13  1  0
M  END
>  <PUBCHEM_COMPOUND_CID>  (1) 
44335

>  <PUBCHEM_CONFORMER_RMSD>  (1) 
0.6

>  <PUBCHEM_CONFORMER_DIVERSEORDER>  (1) 
3
29
25
34
70
64
28
67
66
50
31
60
27
49
65
41
22
26
19
54
62
68
63
57
42
69
58
56
20
15
44
61
40
37
59
52
48
51
38
43
35
45
21
39
23
55
18
46
9
47
32
12
17
36
33
24
6
8
30
14
7
2
53
4
11
13
10
16
1
5

>  <PUBCHEM_MMFF94_PARTIAL_CHARGES>  (1) 
7
1 -0.68
11 0.27
13 0.28
2 -0.81
34 0.4
7 0.27
8 0.27

>  <PUBCHEM_EFFECTIVE_ROTOR_COUNT>  (1) 
3.4

>  <PUBCHEM_PHARMACOPHORE_FEATURES>  (1) 
5
1 1 acceptor
1 1 donor
1 2 cation
5 2 3 4 7 8 rings
6 3 4 5 6 9 10 rings

>  <PUBCHEM_HEAVY_ATOM_COUNT>  (1) 
13

>  <PUBCHEM_ATOM_DEF_STEREO_COUNT>  (1) 
0

>  <PUBCHEM_ATOM_UDEF_STEREO_COUNT>  (1) 
3

>  <PUBCHEM_BOND_DEF_STEREO_COUNT>  (1) 
0

>  <PUBCHEM_BOND_UDEF_STEREO_COUNT>  (1) 
0

>  <PUBCHEM_ISOTOPIC_ATOM_COUNT>  (1) 
0

>  <PUBCHEM_COMPONENT_COUNT>  (1) 
1

>  <PUBCHEM_CACTVS_TAUTO_COUNT>  (1) 
1

>  <PUBCHEM_CONFORMER_ID>  (1) 
0000AD2F00000003

>  <PUBCHEM_MMFF94_ENERGY>  (1) 
23.9576

>  <PUBCHEM_FEATURE_SELFOVERLAP>  (1) 
25.512

>  <PUBCHEM_SHAPE_FINGERPRINT>  (1) 
10465860 71 18334299729793327662
11206711 2 17749955444653568972
11769659 78 18343584010193977702
11806522 49 18410573985715882128
12138202 97 14635166628112048280
12251169 10 12247676080358869379
12346645 44 9079106748451860878
12382932 28 10447923966821579853
13705890 14 18409448094019159580
14128692 85 18410296869777750544
14350558 41 18060423507880506151
14576447 43 18341894159559108279
14993402 34 18113339682700280854
15477762 27 18411138077576742318
15757776 16 18113899330082236474
16945 1 17603878766820775792
18186145 218 17530684316477489609
18915474 69 18339359777068225999
19422 9 18342184362241485033
201361 129 9655569695800058014
20361792 2 18131345332593450645
20645477 70 18337948000011810871
20671657 53 18333734581006399156
20871999 31 18335138640117171149
21713013 43 17822286933700081951
23402539 116 18263361404660096158
23402655 69 18040433244374417077
23557571 272 18339908351544470720
23559900 14 17984415236369558714
2748010 2 17396724428128351312
276578 36 10303810995117666630
3060560 45 17168134680623419607
7364860 26 18199744915606734696
76465 3 18339357440780161398
94968 8 18340485663936971231

>  <PUBCHEM_SHAPE_MULTIPOLES>  (1) 
256.68
6.43
1.67
1.04
4.38
0.29
-0.05
-3.86
2.34
-0.41
0.12
-0.21
0
-0.42

>  <PUBCHEM_SHAPE_SELFOVERLAP>  (1) 
515.143

>  <PUBCHEM_SHAPE_VOLUME>  (1) 
152.9

>  <PUBCHEM_COORDINATE_TYPE>  (1) 
2
5
10

$$$$
