44339
     RDKit          3D

 21 24  0  0  0  0  0  0  0  0999 V2000
    0.0434   -1.3347   -0.0543 N   0  0  0  0  0  0  0  0  0  0  0  0
    1.0394    1.2247    0.1956 C   0  0  0  0  0  0  0  0  0  0  0  0
   -0.3439    1.0177    0.1576 C   0  0  0  0  0  0  0  0  0  0  0  0
    1.9249    0.1482    0.1079 C   0  0  0  0  0  0  0  0  0  0  0  0
   -0.8231   -0.2988    0.0293 C   0  0  0  0  0  0  0  0  0  0  0  0
    1.5846    2.6200    0.3319 C   0  0  0  0  0  0  0  0  0  0  0  0
    1.3748   -1.1348   -0.0178 C   0  0  0  0  0  0  0  0  0  0  0  0
   -2.2200   -0.5047   -0.0094 C   0  0  0  0  0  0  0  0  0  0  0  0
   -3.1131    0.5944    0.0795 C   0  0  0  0  0  0  0  0  0  0  0  0
   -1.2304    2.0981    0.2453 C   0  0  0  0  0  0  0  0  0  0  0  0
    3.3192    0.3270    0.1429 C   0  0  0  0  0  0  0  0  0  0  0  0
   -2.6034    1.8880    0.2065 C   0  0  0  0  0  0  0  0  0  0  0  0
    4.1710   -0.7696    0.0526 C   0  0  0  0  0  0  0  0  0  0  0  0
    2.2474   -2.2162   -0.1061 C   0  0  0  0  0  0  0  0  0  0  0  0
    1.8096    3.2765   -1.0223 C   0  0  0  0  0  0  0  0  0  0  0  0
   -2.7793   -1.7944   -0.1368 C   0  0  0  0  0  0  0  0  0  0  0  0
    3.6334   -2.0442   -0.0721 C   0  0  0  0  0  0  0  0  0  0  0  0
   -4.5009    0.3802    0.0396 C   0  0  0  0  0  0  0  0  0  0  0  0
   -4.1612   -1.9924   -0.1751 C   0  0  0  0  0  0  0  0  0  0  0  0
   -5.0213   -0.9057   -0.0871 C   0  0  0  0  0  0  0  0  0  0  0  0
    5.6488   -0.5792    0.0926 C   0  0  0  0  0  0  0  0  0  0  0  0
  1  5  2  0
  1  7  1  0
  2  3  2  0
  2  4  1  0
  2  6  1  0
  3  5  1  0
  3 10  1  0
  4  7  2  0
  4 11  1  0
  5  8  1  0
  6 15  1  0
  7 14  1  0
  8  9  2  0
  8 16  1  0
  9 12  1  0
  9 18  1  0
 10 12  2  0
 11 13  2  0
 13 17  1  0
 13 21  1  0
 14 17  2  0
 16 19  2  0
 18 20  2  0
 19 20  1  0
M  END
>  <PUBCHEM_COMPOUND_CID>  (1) 
44339

>  <PUBCHEM_CONFORMER_RMSD>  (1) 
0.6

>  <PUBCHEM_CONFORMER_DIVERSEORDER>  (1) 
1

>  <PUBCHEM_MMFF94_PARTIAL_CHARGES>  (1) 
25
1 -0.62
10 -0.15
11 -0.15
12 -0.15
13 -0.14
14 -0.15
16 -0.15
17 -0.15
18 -0.15
19 -0.15
2 -0.14
20 -0.15
21 0.14
24 0.15
25 0.15
26 0.15
27 0.15
31 0.15
32 0.15
33 0.15
34 0.15
35 0.15
5 0.31
6 0.14
7 0.31

>  <PUBCHEM_EFFECTIVE_ROTOR_COUNT>  (1) 
1

>  <PUBCHEM_PHARMACOPHORE_FEATURES>  (1) 
6
1 1 acceptor
1 15 hydrophobe
6 1 2 3 4 5 7 rings
6 3 5 8 9 10 12 rings
6 4 7 11 13 14 17 rings
6 8 9 16 18 19 20 rings

>  <PUBCHEM_HEAVY_ATOM_COUNT>  (1) 
21

>  <PUBCHEM_ATOM_DEF_STEREO_COUNT>  (1) 
0

>  <PUBCHEM_ATOM_UDEF_STEREO_COUNT>  (1) 
0

>  <PUBCHEM_BOND_DEF_STEREO_COUNT>  (1) 
0

>  <PUBCHEM_BOND_UDEF_STEREO_COUNT>  (1) 
0

>  <PUBCHEM_ISOTOPIC_ATOM_COUNT>  (1) 
0

>  <PUBCHEM_COMPONENT_COUNT>  (1) 
1

>  <PUBCHEM_CACTVS_TAUTO_COUNT>  (1) 
1

>  <PUBCHEM_CONFORMER_ID>  (1) 
0000AD3300000001

>  <PUBCHEM_MMFF94_ENERGY>  (1) 
75.6644

>  <PUBCHEM_FEATURE_SELFOVERLAP>  (1) 
30.532

>  <PUBCHEM_SHAPE_FINGERPRINT>  (1) 
10616163 171 18341896259893295167
10906281 52 18337129916042096242
10967382 1 18411699897943195682
1100329 8 18266738159129473546
11578080 2 17387110027835020956
11806522 49 18410011031098312818
11963148 33 17543345416010482067
12107183 9 17545600054807281330
12236239 1 17967533437609828914
12403259 226 18410285921890652393
12553582 1 18338505374533322331
13140716 1 18267867370265664947
13288520 33 18413389821571761351
138480 1 18339079392617855160
13862211 1 18410851053914183554
14341114 176 18413394236998621283
14787075 74 18333454244491479354
14790565 3 18339367491030157196
15042514 8 18050565136618704098
15196674 1 18411981377220278361
15352361 1 18411981342913397883
15442244 35 18412265004297396713
15536298 74 18270961348762828057
15927050 60 17694219272592513396
1601671 61 18412826859165935294
167882 2 18044382845071856708
16945 1 18410301306347156873
17492 89 18265895941997323459
17804303 29 18342458131925618865
1813 80 17749111071342016660
18186145 218 17604419804067187563
18681886 176 18341327890244690042
19591789 44 17979920728238283943
200 152 18131064935679833467
20028762 73 18130500941670435239
20612939 158 18334577996593102637
20645477 70 18262511636669101267
21033648 29 17274240773939799946
21267235 1 18412271626831297746
21634736 98 18411139172856777815
221490 88 18263931093090137939
22182313 1 18264744667360308156
2255824 54 18335986488194455020
23366157 5 18114179804115490716
23402539 116 18410568457940329230
23557571 272 18129669586857638054
23559900 14 18411692214489647265
25147074 1 18272100426367949537
2748010 2 18268706104675281380
335352 9 18411699864390819525
34934 24 18264483979724045138
350125 39 18411141333631912209
394222 165 17391904143298345800
4214541 1 18340205189587212435
4409770 3 17466495712258741972
5104073 3 18270960116481910690
67856867 119 18337389469289820524
7364860 26 18340767156157082048
8809292 202 18334860541169715771
9709674 26 18335985384498824731
9981440 41 17543349814162033720

>  <PUBCHEM_SHAPE_MULTIPOLES>  (1) 
427.19
9.54
3.01
0.68
0.14
1.56
0.05
-4.65
0.05
-0.85
0.41
-0.09
0.19
-0.39

>  <PUBCHEM_SHAPE_SELFOVERLAP>  (1) 
970.562

>  <PUBCHEM_SHAPE_VOLUME>  (1) 
223

>  <PUBCHEM_COORDINATE_TYPE>  (1) 
2
5
10

$$$$
