44346
     RDKit          3D

 17 18  0  0  0  0  0  0  0  0999 V2000
    4.0240    1.8939    0.0023 O   0  0  0  0  0  0  0  0  0  0  0  0
    3.3128   -0.3535    0.0000 N   0  0  0  0  0  0  0  0  0  0  0  0
   -0.8609   -0.0288   -0.0010 C   0  0  0  0  0  0  0  0  0  0  0  0
    1.1242   -1.4053   -0.0001 C   0  0  0  0  0  0  0  0  0  0  0  0
    1.9190   -0.2590    0.0006 C   0  0  0  0  0  0  0  0  0  0  0  0
   -0.2658   -1.2902   -0.0010 C   0  0  0  0  0  0  0  0  0  0  0  0
   -2.3029    0.0908   -0.0004 C   0  0  0  0  0  0  0  0  0  0  0  0
   -0.0666    1.1176   -0.0002 C   0  0  0  0  0  0  0  0  0  0  0  0
    1.3236    1.0024    0.0005 C   0  0  0  0  0  0  0  0  0  0  0  0
    1.7350   -2.7690    0.0002 C   0  0  0  0  0  0  0  0  0  0  0  0
   -2.9976    0.1476    1.2078 C   0  0  0  0  0  0  0  0  0  0  0  0
   -2.9982    0.1495   -1.2081 C   0  0  0  0  0  0  0  0  0  0  0  0
   -4.3877    0.2630    1.2084 C   0  0  0  0  0  0  0  0  0  0  0  0
   -4.3883    0.2652   -1.2077 C   0  0  0  0  0  0  0  0  0  0  0  0
   -5.0830    0.3217    0.0006 C   0  0  0  0  0  0  0  0  0  0  0  0
    4.2487    0.6879   -0.0007 C   0  0  0  0  0  0  0  0  0  0  0  0
    5.6637    0.1662   -0.0012 C   0  0  0  0  0  0  0  0  0  0  0  0
  1 16  2  0
  2  5  1  0
  2 16  1  0
  3  6  2  0
  3  7  1  0
  3  8  1  0
  4  5  2  0
  4  6  1  0
  4 10  1  0
  5  9  1  0
  7 11  2  0
  7 12  1  0
  8  9  2  0
 11 13  1  0
 12 14  2  0
 13 15  2  0
 14 15  1  0
 16 17  1  0
M  END
>  <PUBCHEM_COMPOUND_CID>  (1) 
44346

>  <PUBCHEM_CONFORMER_RMSD>  (1) 
0.6

>  <PUBCHEM_CONFORMER_DIVERSEORDER>  (1) 
1
3
4
2

>  <PUBCHEM_MMFF94_PARTIAL_CHARGES>  (1) 
24
1 -0.57
10 0.14
11 -0.15
12 -0.15
13 -0.15
14 -0.15
15 -0.15
16 0.57
17 0.06
18 0.15
19 0.15
2 -0.55
20 0.15
24 0.37
25 0.15
26 0.15
27 0.15
28 0.15
29 0.15
4 -0.14
5 0.12
6 -0.15
8 -0.15
9 -0.15

>  <PUBCHEM_EFFECTIVE_ROTOR_COUNT>  (1) 
3

>  <PUBCHEM_PHARMACOPHORE_FEATURES>  (1) 
4
1 1 acceptor
1 2 donor
6 3 4 5 6 8 9 rings
6 7 11 12 13 14 15 rings

>  <PUBCHEM_HEAVY_ATOM_COUNT>  (1) 
17

>  <PUBCHEM_ATOM_DEF_STEREO_COUNT>  (1) 
0

>  <PUBCHEM_ATOM_UDEF_STEREO_COUNT>  (1) 
0

>  <PUBCHEM_BOND_DEF_STEREO_COUNT>  (1) 
0

>  <PUBCHEM_BOND_UDEF_STEREO_COUNT>  (1) 
0

>  <PUBCHEM_ISOTOPIC_ATOM_COUNT>  (1) 
0

>  <PUBCHEM_COMPONENT_COUNT>  (1) 
1

>  <PUBCHEM_CACTVS_TAUTO_COUNT>  (1) 
2

>  <PUBCHEM_CONFORMER_ID>  (1) 
0000AD3A00000001

>  <PUBCHEM_MMFF94_ENERGY>  (1) 
57.0058

>  <PUBCHEM_FEATURE_SELFOVERLAP>  (1) 
20.297

>  <PUBCHEM_SHAPE_FINGERPRINT>  (1) 
11401426 45 18342172280218939036
11471102 20 18410854347953204246
11543360 7 15841269354339293528
12236239 1 17775286045722459889
12644460 14 18335137549327756250
13140716 1 18265618869203244704
13214271 11 17967532389537465103
13583140 156 16443887479640604756
13631057 29 18128245886988723791
13760787 19 15698001812302802639
13760787 5 18341610386795837070
15219456 202 18040435447840163703
15375358 24 18040435482025724963
16945 1 18410856546770789895
17834072 33 17346595300536383365
1813 80 17556309358360595486
18186145 218 18341333370459435820
19489759 90 16225763021590858813
200 152 18272365378568217773
20279233 1 17676493826344544803
20325693 3 15554449596256649293
204376 136 18409169947579053014
20645477 70 18265044748177413311
21033648 29 18041825294604103268
21054139 6 18200300134629754935
22854114 59 18335140894774586737
23402539 116 16988843873596773784
23402655 69 18271801281742672469
23536379 177 15985109596089220660
23557571 272 16877942685654437439
23559900 14 16878510007911530586
296302 2 18259702281407292203
34797466 226 15051452777265745816
350125 39 18049449441559041771
366044 4 18410574011438479506
4072396 5 18261376833395307162
42630746 31 18342176635811935294
474 4 18341895237733088384
4990 188 17203615891076883804
5104073 3 18265047115136430016
542803 24 17704075092543631561
633830 44 18202013139501687580
77492 1 17703786986448606659
81539 233 18259704488947025586

>  <PUBCHEM_SHAPE_MULTIPOLES>  (1) 
339
10.8
1.64
0.96
2.26
1
0
-3.2
0
1.87
0
-1.31
-0.06
0

>  <PUBCHEM_SHAPE_SELFOVERLAP>  (1) 
726.923

>  <PUBCHEM_SHAPE_VOLUME>  (1) 
188.4

>  <PUBCHEM_COORDINATE_TYPE>  (1) 
2
5
10

$$$$
