44340
     RDKit          3D

 21 24  0  0  0  0  0  0  0  0999 V2000
   -1.6285    1.4862   -0.0001 N   0  0  0  0  0  0  0  0  0  0  0  0
    0.2754   -0.0143   -0.0001 C   0  0  0  0  0  0  0  0  0  0  0  0
   -0.6443   -1.0847   -0.0001 C   0  0  0  0  0  0  0  0  0  0  0  0
    1.7081   -0.1702    0.0000 C   0  0  0  0  0  0  0  0  0  0  0  0
   -2.0297   -0.8738    0.0000 C   0  0  0  0  0  0  0  0  0  0  0  0
   -0.2992    1.2721   -0.0002 C   0  0  0  0  0  0  0  0  0  0  0  0
   -2.4841    0.4502    0.0000 C   0  0  0  0  0  0  0  0  0  0  0  0
    2.5223    0.9881   -0.0001 C   0  0  0  0  0  0  0  0  0  0  0  0
    0.5367    2.3766   -0.0003 C   0  0  0  0  0  0  0  0  0  0  0  0
   -3.8586    0.6748    0.0002 C   0  0  0  0  0  0  0  0  0  0  0  0
    1.9235    2.2480   -0.0002 C   0  0  0  0  0  0  0  0  0  0  0  0
    2.3772   -1.4199    0.0003 C   0  0  0  0  0  0  0  0  0  0  0  0
   -0.2396   -2.5295   -0.0013 C   0  0  0  0  0  0  0  0  0  0  0  0
    3.9238    0.8798    0.0001 C   0  0  0  0  0  0  0  0  0  0  0  0
   -2.9468   -1.9403    0.0000 C   0  0  0  0  0  0  0  0  0  0  0  0
    4.5450   -0.3652    0.0004 C   0  0  0  0  0  0  0  0  0  0  0  0
    3.7714   -1.5159    0.0005 C   0  0  0  0  0  0  0  0  0  0  0  0
   -4.7731   -0.3809    0.0003 C   0  0  0  0  0  0  0  0  0  0  0  0
   -4.3163   -1.6924    0.0003 C   0  0  0  0  0  0  0  0  0  0  0  0
   -4.3959    2.0725    0.0000 C   0  0  0  0  0  0  0  0  0  0  0  0
    6.0325   -0.4611    0.0000 C   0  0  0  0  0  0  0  0  0  0  0  0
  1  6  2  0
  1  7  1  0
  2  3  2  0
  2  4  1  0
  2  6  1  0
  3  5  1  0
  3 13  1  0
  4  8  2  0
  4 12  1  0
  5  7  2  0
  5 15  1  0
  6  9  1  0
  7 10  1  0
  8 11  1  0
  8 14  1  0
  9 11  2  0
 10 18  2  0
 10 20  1  0
 12 17  2  0
 14 16  2  0
 15 19  2  0
 16 17  1  0
 16 21  1  0
 18 19  1  0
M  END
>  <PUBCHEM_COMPOUND_CID>  (1) 
44340

>  <PUBCHEM_CONFORMER_RMSD>  (1) 
0.6

>  <PUBCHEM_CONFORMER_DIVERSEORDER>  (1) 
1

>  <PUBCHEM_MMFF94_PARTIAL_CHARGES>  (1) 
25
1 -0.62
10 -0.14
11 -0.15
12 -0.15
13 0.14
14 -0.15
15 -0.15
16 -0.14
17 -0.15
18 -0.15
19 -0.15
20 0.14
21 0.14
22 0.15
23 0.15
24 0.15
28 0.15
29 0.15
3 -0.14
30 0.15
31 0.15
32 0.15
6 0.31
7 0.31
9 -0.15

>  <PUBCHEM_EFFECTIVE_ROTOR_COUNT>  (1) 
0

>  <PUBCHEM_PHARMACOPHORE_FEATURES>  (1) 
5
1 1 acceptor
6 1 2 3 5 6 7 rings
6 2 4 6 8 9 11 rings
6 4 8 12 14 16 17 rings
6 5 7 10 15 18 19 rings

>  <PUBCHEM_HEAVY_ATOM_COUNT>  (1) 
21

>  <PUBCHEM_ATOM_DEF_STEREO_COUNT>  (1) 
0

>  <PUBCHEM_ATOM_UDEF_STEREO_COUNT>  (1) 
0

>  <PUBCHEM_BOND_DEF_STEREO_COUNT>  (1) 
0

>  <PUBCHEM_BOND_UDEF_STEREO_COUNT>  (1) 
0

>  <PUBCHEM_ISOTOPIC_ATOM_COUNT>  (1) 
0

>  <PUBCHEM_COMPONENT_COUNT>  (1) 
1

>  <PUBCHEM_CACTVS_TAUTO_COUNT>  (1) 
1

>  <PUBCHEM_CONFORMER_ID>  (1) 
0000AD3400000001

>  <PUBCHEM_MMFF94_ENERGY>  (1) 
97.3945

>  <PUBCHEM_FEATURE_SELFOVERLAP>  (1) 
25.454

>  <PUBCHEM_SHAPE_FINGERPRINT>  (1) 
10062212 137 18342171185382164719
10411042 1 18050287269794901739
10616163 171 18411983572228485767
10906281 52 18338537286794050014
10967382 1 18410573950865799654
11578080 2 16770692138067482427
12011746 2 18411982451310210254
12107183 9 17832421995012568458
12236239 1 17894914010362587662
12403259 226 18268424819030994857
12838862 33 18338215099311027408
13140716 1 18411133610895228689
13288520 33 18411983563406046374
13583140 156 14692563308335335470
13862211 1 18410569596043443506
14790565 3 18409173229287715996
14866123 147 17263575309455616874
15099037 51 18410293601117565310
15196674 1 18410856585699873604
15442244 35 18411138047733647153
15536298 74 18342174517944418536
1601671 61 18411419475549957658
16945 1 18050568739837477669
17492 89 18121499321762509083
17804303 29 18411702101335505437
1813 80 17385721409210799028
19141452 34 18412546500759421861
19591789 44 18410009978863214171
200 152 18059855073258856130
20028762 73 18130222791357185791
21033648 29 17560503054416267370
21267235 1 18410301332048466787
21279426 13 18266459793555702047
21421861 104 17752479867906842938
221490 88 18263650734620145515
23366157 5 17897724494921779444
23402539 116 18341888584992056414
23559900 14 18342170090081387688
23622692 118 17986661774410651783
3004659 81 18260269642756239902
335352 9 18410573964225436149
34934 24 18337387132553077507
350125 39 18410578409706432745
3545911 37 18412827971198468123
3680242 22 18262236591195402682
3886686 26 17038633905716603706
4214541 1 18410855456202660993
5104073 3 18411699910902081432
559249 180 18336541633928587858
59755656 215 18340210674883500726
6138700 20 18337674114210923342
7364860 26 18269554021530291808
77779 3 18410293626876799959
9709674 26 18192151714101322139
9981440 41 17255117273151729904

>  <PUBCHEM_SHAPE_MULTIPOLES>  (1) 
427.19
10.38
2.56
0.61
3.53
0.26
0
-1.34
0
-0.92
0
0.01
-0.01
0

>  <PUBCHEM_SHAPE_SELFOVERLAP>  (1) 
974.405

>  <PUBCHEM_SHAPE_VOLUME>  (1) 
222.2

>  <PUBCHEM_COORDINATE_TYPE>  (1) 
2
5
10

$$$$
