44357
     RDKit          3D

 24 27  0  0  0  0  0  0  0  0999 V2000
   -2.0403   -1.5950    2.1293 Cl  0  0  0  0  0  0  0  0  0  0  0  0
   -4.3479   -2.0475    0.4618 Cl  0  0  0  0  0  0  0  0  0  0  0  0
   -2.1119   -3.8875    0.2965 Cl  0  0  0  0  0  0  0  0  0  0  0  0
   -2.1846   -1.6568   -1.7865 O   0  0  0  0  0  0  0  0  0  0  0  0
    1.2025    0.6429   -0.0390 C   0  0  0  0  0  0  0  0  0  0  0  0
    0.3190   -0.4387   -0.2758 C   0  0  0  0  0  0  0  0  0  0  0  0
   -1.0684   -0.2266   -0.3555 C   0  0  0  0  0  0  0  0  0  0  0  0
    2.6190    0.3894    0.0368 C   0  0  0  0  0  0  0  0  0  0  0  0
   -1.6283    1.0492   -0.2055 C   0  0  0  0  0  0  0  0  0  0  0  0
   -0.7755    2.1424    0.0306 C   0  0  0  0  0  0  0  0  0  0  0  0
    0.6134    1.9247    0.1094 C   0  0  0  0  0  0  0  0  0  0  0  0
    3.0952   -0.9375   -0.1275 C   0  0  0  0  0  0  0  0  0  0  0  0
    0.8256   -1.7317   -0.4323 C   0  0  0  0  0  0  0  0  0  0  0  0
    2.1925   -1.9776   -0.3594 C   0  0  0  0  0  0  0  0  0  0  0  0
   -3.0157    1.2595   -0.2854 C   0  0  0  0  0  0  0  0  0  0  0  0
    3.5964    1.3899    0.2688 C   0  0  0  0  0  0  0  0  0  0  0  0
   -1.3311    3.4248    0.1819 C   0  0  0  0  0  0  0  0  0  0  0  0
   -1.9651   -1.3645   -0.6023 C   0  0  0  0  0  0  0  0  0  0  0  0
    4.4705   -1.2188   -0.0593 C   0  0  0  0  0  0  0  0  0  0  0  0
   -3.5520    2.5380   -0.1331 C   0  0  0  0  0  0  0  0  0  0  0  0
   -2.7100    3.6202    0.1004 C   0  0  0  0  0  0  0  0  0  0  0  0
    4.9614    1.0970    0.3344 C   0  0  0  0  0  0  0  0  0  0  0  0
    5.3985   -0.2081    0.1703 C   0  0  0  0  0  0  0  0  0  0  0  0
   -2.5633   -2.1877    0.5412 C   0  0  0  0  0  0  0  0  0  0  0  0
  1 24  1  0
  2 24  1  0
  3 24  1  0
  4 18  2  0
  5  6  1  0
  5  8  1  0
  5 11  2  0
  6  7  2  0
  6 13  1  0
  7  9  1  0
  7 18  1  0
  8 12  2  0
  8 16  1  0
  9 10  2  0
  9 15  1  0
 10 11  1  0
 10 17  1  0
 12 14  1  0
 12 19  1  0
 13 14  2  0
 15 20  2  0
 16 22  2  0
 17 21  2  0
 18 24  1  0
 19 23  2  0
 20 21  1  0
 22 23  1  0
M  END
>  <PUBCHEM_COMPOUND_CID>  (1) 
44357

>  <PUBCHEM_CONFORMER_RMSD>  (1) 
0.6

>  <PUBCHEM_CONFORMER_DIVERSEORDER>  (1) 
1
2

>  <PUBCHEM_MMFF94_PARTIAL_CHARGES>  (1) 
29
1 -0.29
11 -0.15
13 -0.15
14 -0.15
15 -0.15
16 -0.15
17 -0.15
18 0.42
19 -0.15
2 -0.29
20 -0.15
21 -0.15
22 -0.15
23 -0.15
24 0.93
25 0.15
26 0.15
27 0.15
28 0.15
29 0.15
3 -0.29
30 0.15
31 0.15
32 0.15
33 0.15
34 0.15
35 0.15
4 -0.57
7 0.09

>  <PUBCHEM_EFFECTIVE_ROTOR_COUNT>  (1) 
2

>  <PUBCHEM_PHARMACOPHORE_FEATURES>  (1) 
5
1 4 acceptor
6 5 6 7 9 10 11 rings
6 5 6 8 12 13 14 rings
6 8 12 16 19 22 23 rings
6 9 10 15 17 20 21 rings

>  <PUBCHEM_HEAVY_ATOM_COUNT>  (1) 
24

>  <PUBCHEM_ATOM_DEF_STEREO_COUNT>  (1) 
0

>  <PUBCHEM_ATOM_UDEF_STEREO_COUNT>  (1) 
0

>  <PUBCHEM_BOND_DEF_STEREO_COUNT>  (1) 
0

>  <PUBCHEM_BOND_UDEF_STEREO_COUNT>  (1) 
0

>  <PUBCHEM_ISOTOPIC_ATOM_COUNT>  (1) 
0

>  <PUBCHEM_COMPONENT_COUNT>  (1) 
1

>  <PUBCHEM_CACTVS_TAUTO_COUNT>  (1) 
1

>  <PUBCHEM_CONFORMER_ID>  (1) 
0000AD4500000001

>  <PUBCHEM_MMFF94_ENERGY>  (1) 
90.2603

>  <PUBCHEM_FEATURE_SELFOVERLAP>  (1) 
25.446

>  <PUBCHEM_SHAPE_FINGERPRINT>  (1) 
10319926 262 18340469090518026378
10411042 1 18050848011464940711
10616163 171 18412261718705294676
10670039 82 18263093266132392484
10906281 52 18340783606124042295
10967382 1 18053099528037137572
1100329 8 17760644768019080634
12293681 4 18188499106615022419
12403259 415 18060414755718306496
12553582 1 18195812005321226687
12788726 201 18333724745484046315
13140716 1 18268995447848131209
13224815 77 18411141359533136534
138480 1 16537357688898730719
13911987 19 17036415622794312348
13965767 371 17698205852224934955
14178342 30 18335693923881003608
14223421 5 18412830179175661638
14787075 74 17609213807929649042
14790565 3 17112141188250390669
14844126 61 18336258007278939442
15042514 8 18410295809047630209
15196674 1 18412260628200384764
15927050 60 18051412868874380479
16087824 20 18411979136592886157
16945 1 18196365918668582437
17492 89 18410291381216403586
19591789 44 17978229353100708829
19930381 70 17545598319555726809
20101258 96 18337680822628118976
20510252 161 18413389834483004739
20602899 9 15697420162025079133
21041028 32 18265338489601268037
21049683 118 18046040710610689121
21236236 1 18412824690170618464
21267235 1 18411143567062255606
22182313 1 18059308573394429366
23227448 37 18340484469988940756
23557571 272 18342747325264314500
23558518 356 18261117339607666490
23559900 14 18127125265643796598
23845131 108 17905338321308443233
2748010 2 18125423452897129973
3091708 16 9129909696193137369
335352 9 18124874552424773358
3380486 145 18119822549740269251
350125 39 18340208600071294480
352729 6 18270400460367380597
4340502 62 17241902977758384153
5104073 3 18411972556301640304
5309563 4 18050568748438501010
57527295 17 17972004129393625831
6004065 56 17979346788086661427
633830 44 17624972729780344261
81228 2 18187376427954315033
9709674 26 18270401573138268414
9981440 41 18339913810495428682

>  <PUBCHEM_SHAPE_MULTIPOLES>  (1) 
493.65
8.52
4.29
1
9.86
0.97
0.22
-0.74
0.87
-5.33
0.33
-0.67
-0.54
0.67

>  <PUBCHEM_SHAPE_SELFOVERLAP>  (1) 
1089.14

>  <PUBCHEM_SHAPE_VOLUME>  (1) 
267.3

>  <PUBCHEM_COORDINATE_TYPE>  (1) 
2
5
10

$$$$
