44353
     RDKit          3D

 21 23  0  0  0  0  0  0  0  0999 V2000
    5.5575   -0.3550   -0.1629 N   0  0  0  0  0  0  0  0  0  0  0  0
   -0.4902    0.6140   -0.5176 N   0  0  0  0  0  0  0  0  0  0  0  0
    0.0902    0.5829    0.5911 N   0  0  0  0  0  0  0  0  0  0  0  0
   -4.6376   -2.2879    0.1753 N   0  0  0  0  0  0  0  0  0  0  0  0
   -2.7712   -0.2073   -0.1633 C   0  0  0  0  0  0  0  0  0  0  0  0
    4.1806   -0.1191    0.0287 C   0  0  0  0  0  0  0  0  0  0  0  0
   -4.1379    0.0872    0.0219 C   0  0  0  0  0  0  0  0  0  0  0  0
   -1.8609    0.8491   -0.3296 C   0  0  0  0  0  0  0  0  0  0  0  0
    3.6941    1.1880    0.0545 C   0  0  0  0  0  0  0  0  0  0  0  0
    3.3046   -1.1924    0.1907 C   0  0  0  0  0  0  0  0  0  0  0  0
    1.4629    0.3472    0.4033 C   0  0  0  0  0  0  0  0  0  0  0  0
   -4.5684    1.4243    0.0378 C   0  0  0  0  0  0  0  0  0  0  0  0
   -2.2998    2.1741   -0.3123 C   0  0  0  0  0  0  0  0  0  0  0  0
    2.3319    1.4217    0.2422 C   0  0  0  0  0  0  0  0  0  0  0  0
    1.9424   -0.9588    0.3784 C   0  0  0  0  0  0  0  0  0  0  0  0
   -2.3624   -1.5460   -0.1757 C   0  0  0  0  0  0  0  0  0  0  0  0
   -3.6504    2.4611   -0.1290 C   0  0  0  0  0  0  0  0  0  0  0  0
    6.5382    0.6098    0.2936 C   0  0  0  0  0  0  0  0  0  0  0  0
    6.0112   -1.5721   -0.8066 C   0  0  0  0  0  0  0  0  0  0  0  0
   -5.0127   -0.9888    0.1840 C   0  0  0  0  0  0  0  0  0  0  0  0
   -3.3221   -2.5319   -0.0044 C   0  0  0  0  0  0  0  0  0  0  0  0
  1  6  1  0
  1 18  1  0
  1 19  1  0
  2  3  2  0
  2  8  1  0
  3 11  1  0
  4 20  2  0
  4 21  1  0
  5  7  2  0
  5  8  1  0
  5 16  1  0
  6  9  2  0
  6 10  1  0
  7 12  1  0
  7 20  1  0
  8 13  2  0
  9 14  1  0
 10 15  2  0
 11 14  2  0
 11 15  1  0
 12 17  2  0
 13 17  1  0
 16 21  2  0
M  END
>  <PUBCHEM_COMPOUND_CID>  (1) 
44353

>  <PUBCHEM_CONFORMER_RMSD>  (1) 
0.6

>  <PUBCHEM_CONFORMER_DIVERSEORDER>  (1) 
2
6
7
4
5
1
3

>  <PUBCHEM_MMFF94_PARTIAL_CHARGES>  (1) 
29
1 -0.84
10 -0.15
11 0.18
12 -0.15
13 -0.15
14 -0.15
15 -0.15
16 -0.15
17 -0.15
18 0.37
19 0.37
2 -0.18
20 0.16
21 0.16
22 0.15
23 0.15
24 0.15
25 0.15
26 0.15
27 0.15
28 0.15
29 0.15
3 -0.18
36 0.15
37 0.15
4 -0.62
6 0.1
8 0.18
9 -0.15

>  <PUBCHEM_EFFECTIVE_ROTOR_COUNT>  (1) 
3

>  <PUBCHEM_PHARMACOPHORE_FEATURES>  (1) 
5
1 1 cation
1 4 acceptor
6 4 5 7 16 20 21 rings
6 5 7 8 12 13 17 rings
6 6 9 10 11 14 15 rings

>  <PUBCHEM_HEAVY_ATOM_COUNT>  (1) 
21

>  <PUBCHEM_ATOM_DEF_STEREO_COUNT>  (1) 
0

>  <PUBCHEM_ATOM_UDEF_STEREO_COUNT>  (1) 
0

>  <PUBCHEM_BOND_DEF_STEREO_COUNT>  (1) 
0

>  <PUBCHEM_BOND_UDEF_STEREO_COUNT>  (1) 
0

>  <PUBCHEM_ISOTOPIC_ATOM_COUNT>  (1) 
0

>  <PUBCHEM_COMPONENT_COUNT>  (1) 
1

>  <PUBCHEM_CACTVS_TAUTO_COUNT>  (1) 
1

>  <PUBCHEM_CONFORMER_ID>  (1) 
0000AD4100000002

>  <PUBCHEM_MMFF94_ENERGY>  (1) 
78.3256

>  <PUBCHEM_FEATURE_SELFOVERLAP>  (1) 
25.399

>  <PUBCHEM_SHAPE_FINGERPRINT>  (1) 
10411042 1 18121500417865295395
10595046 47 18333733541914593588
10616163 171 18410572890288712239
10835480 77 18272644637215885496
11128504 68 17095530621159326718
11315181 36 18259703419130812893
11524674 6 16988844981883180823
12107183 9 17759234098789382664
12236239 1 17894348873991198948
12821665 9 18116162245387504140
13167823 11 18408602569682985698
13288520 33 18411138056645198727
13631057 29 18410289259169691571
14341114 176 18412267229000954024
14420673 8 18267590113279693878
14461889 52 18341324592168658690
15042514 8 18336551620740206027
15183329 4 18336264553225816402
15196674 1 18410855473366556530
15250474 111 18260814982643095986
15537594 2 17894631418077117673
17804303 29 18413388757026559353
17844677 252 18411987978912495176
18681886 176 18411696617479848768
18927931 339 18408609179975459407
200 152 18202563981957969776
20681677 155 18336264548450574049
21033648 29 17346018014082245104
21065198 57 18412823581694756632
21236236 1 18410856564024629163
21267235 1 18335426802759109011
21279426 13 18341335475157285750
21623969 137 17346604062860582998
21709351 56 18114177540810021124
221357 26 18412824715534389923
221490 88 18339081600657735264
22393880 68 18408882902472780258
2297311 6 18412269440935309925
23081809 10 17531248336384182768
23402539 116 16950561065140732420
23557571 272 18341898480443946364
23559900 14 18340477950133821657
3004659 81 18335704880828320526
335352 9 18409726275710905493
350125 39 18411419552891361808
3545911 37 18410854326304697169
4073 2 18260833726370303938
4214541 1 18410855447454555329
4325135 7 18334860554412982604
5104073 3 18342170060158697744
542803 24 17022906731251433404
559249 180 18337950091133369658
67856867 119 18188492501061049828
7062679 117 18408041822784017142
7495541 125 18131349756557523736
77779 3 18410573985230838776
7970288 3 17979914144629413279
9709674 26 18341896260172746767

>  <PUBCHEM_SHAPE_MULTIPOLES>  (1) 
412.25
14.66
2.43
0.7
15.47
0.29
0.02
2.8
0.59
-3.01
0.12
0.22
0.02
0.68

>  <PUBCHEM_SHAPE_SELFOVERLAP>  (1) 
901.77

>  <PUBCHEM_SHAPE_VOLUME>  (1) 
223.2

>  <PUBCHEM_COORDINATE_TYPE>  (1) 
2
5
10

$$$$
