44355
     RDKit          3D

 21 22  0  0  1  0  0  0  0  0999 V2000
   -3.3371    0.2314   -0.0122 O   0  0  0  0  0  0  0  0  0  0  0  0
    2.6268   -0.5274   -0.1961 O   0  0  0  0  0  0  0  0  0  0  0  0
   -6.2584   -1.2784    0.7522 O   0  0  0  0  0  0  0  0  0  0  0  0
    5.2582   -2.7248    0.3631 O   0  0  0  0  0  0  0  0  0  0  0  0
    0.2628    1.0993    0.2078 N   0  0  0  0  0  0  0  0  0  0  0  0
    0.9379    2.3698    0.4925 C   0  0  0  0  0  0  0  0  0  0  0  0
   -1.1870    1.2769    0.2413 C   0  0  0  0  0  0  0  0  0  0  0  0
    0.6876    0.5791   -1.0897 C   0  0  0  0  0  0  0  0  0  0  0  0
   -1.9341   -0.0296   -0.0377 C   0  0  0  0  0  0  0  0  0  0  0  0
    2.2075    0.4205   -1.1773 C   0  0  0  0  0  0  0  0  0  0  0  0
    1.2247    3.0787   -0.8355 C   0  0  0  0  0  0  0  0  0  0  0  0
    0.0126    3.2308    1.3589 C   0  0  0  0  0  0  0  0  0  0  0  0
    2.2498    2.0933    1.2361 C   0  0  0  0  0  0  0  0  0  0  0  0
   -5.5396   -0.6159   -0.2908 C   0  0  0  0  0  0  0  0  0  0  0  0
    4.4318   -1.6648    0.8502 C   0  0  0  0  0  0  0  0  0  0  0  0
   -4.0841   -0.9328   -0.3289 C   0  0  0  0  0  0  0  0  0  0  0  0
    4.0387   -0.6687   -0.1858 C   0  0  0  0  0  0  0  0  0  0  0  0
   -6.5624   -1.6652   -0.5942 C   0  0  0  0  0  0  0  0  0  0  0  0
    3.9347   -3.0748    0.7880 C   0  0  0  0  0  0  0  0  0  0  0  0
   -1.6484   -1.1138    0.9938 C   0  0  0  0  0  0  0  0  0  0  0  0
    2.6782   -0.0836   -2.5356 C   0  0  0  0  0  0  0  0  0  0  0  0
  1  9  1  0
  1 16  1  0
  2 10  1  0
  2 17  1  0
  3 14  1  0
  3 18  1  0
  4 15  1  0
  4 19  1  0
  5  6  1  0
  5  7  1  0
  5  8  1  0
  6 11  1  0
  6 12  1  0
  6 13  1  0
  7  9  1  0
  8 10  1  0
  9 20  1  0
 10 21  1  0
 14 16  1  0
 14 18  1  0
 15 17  1  0
 15 19  1  0
M  END
>  <PUBCHEM_COMPOUND_CID>  (1) 
44355

>  <PUBCHEM_CONFORMER_RMSD>  (1) 
1

>  <PUBCHEM_CONFORMER_DIVERSEORDER>  (1) 
2
33
22
43
46
5
32
29
15
30
44
13
19
12
27
10
20
1
40
26
36
42
24
9
34
25
45
23
14
31
47
17
38
4
11
37
21
18
6
8
41
35
39
16
28
3
7

>  <PUBCHEM_MMFF94_PARTIAL_CHARGES>  (1) 
22
1 -0.56
10 0.28
14 -0.05
15 -0.05
16 0.38
17 0.38
18 -0.05
19 -0.05
2 -0.56
28 0.1
29 0.1
3 -0.3
4 -0.3
43 0.1
44 0.1
45 0.1
46 0.1
5 -0.81
6 0.27
7 0.27
8 0.27
9 0.28

>  <PUBCHEM_EFFECTIVE_ROTOR_COUNT>  (1) 
12.2

>  <PUBCHEM_PHARMACOPHORE_FEATURES>  (1) 
6
1 1 acceptor
1 2 acceptor
1 3 acceptor
1 4 acceptor
1 5 cation
4 6 11 12 13 hydrophobe

>  <PUBCHEM_HEAVY_ATOM_COUNT>  (1) 
21

>  <PUBCHEM_ATOM_DEF_STEREO_COUNT>  (1) 
0

>  <PUBCHEM_ATOM_UDEF_STEREO_COUNT>  (1) 
4

>  <PUBCHEM_BOND_DEF_STEREO_COUNT>  (1) 
0

>  <PUBCHEM_BOND_UDEF_STEREO_COUNT>  (1) 
0

>  <PUBCHEM_ISOTOPIC_ATOM_COUNT>  (1) 
0

>  <PUBCHEM_COMPONENT_COUNT>  (1) 
1

>  <PUBCHEM_CACTVS_TAUTO_COUNT>  (1) 
1

>  <PUBCHEM_CONFORMER_ID>  (1) 
0000AD4300000002

>  <PUBCHEM_MMFF94_ENERGY>  (1) 
88.9955

>  <PUBCHEM_FEATURE_SELFOVERLAP>  (1) 
30.448

>  <PUBCHEM_SHAPE_FINGERPRINT>  (1) 
11265709 11 18341332210480473826
12166972 35 18113621153361029502
12633257 1 16128074711845110658
12824470 246 18117274762223387144
13004483 165 18339912728379713666
13083527 12 18272930518760307488
13533116 47 18341047514489275139
13631057 29 18264208011898117666
13911852 28 18339636729180817987
13955234 65 18195810901842134089
14178342 30 17702114559989420777
14251751 18 18335979792524914165
14341114 328 12823004305473349839
14429115 67 18270121197536684990
15342816 4 18340780260265534012
17492 89 18123185702538895242
17980427 23 16199285733263465621
18222031 100 18059867159412949918
20369508 70 18412546547803589141
20626108 58 18260829254924226724
20645477 70 18058740237841902629
20832881 197 18409729552296016731
21315764 119 17603580816914189183
21344244 78 16845292769888752281
23419403 2 18126255633260908764
23559900 14 18043253633354344813
3004659 81 17894912902024077226
3286 77 18410291424049311341
3411729 13 17845369028472874944
3421961 26 18412820317572158128
3472631 163 9078816507537070602
46194498 28 16805606996679308446
463206 1 18409447007414591531
465052 167 18202844344707215630
5104073 3 17916877945213364507
59682541 52 16732988613083083918
76465 3 18410854330567632685
77188 2 18410852140599295512
9841814 1 18202010966026773877

>  <PUBCHEM_SHAPE_MULTIPOLES>  (1) 
403.71
12.34
3.53
1.45
19.71
1.13
0.67
-13.97
-0.26
-3.99
-1.37
-1.26
0.28
-0.92

>  <PUBCHEM_SHAPE_SELFOVERLAP>  (1) 
791.133

>  <PUBCHEM_SHAPE_VOLUME>  (1) 
246.8

>  <PUBCHEM_COORDINATE_TYPE>  (1) 
2
5
10

$$$$
