44360
     RDKit          3D

 26 30  0  0  0  0  0  0  0  0999 V2000
   -3.5155   -2.1175    1.2575 O   0  0  0  0  0  0  0  0  0  0  0  0
   -3.5929   -2.3252   -1.0046 O   0  0  0  0  0  0  0  0  0  0  0  0
   -5.5116    1.7033    0.5629 O   0  0  0  0  0  0  0  0  0  0  0  0
   -5.5554   -0.2828   -0.5415 O   0  0  0  0  0  0  0  0  0  0  0  0
    1.5875   -0.0492   -0.0062 C   0  0  0  0  0  0  0  0  0  0  0  0
    0.8078    1.1380   -0.0273 C   0  0  0  0  0  0  0  0  0  0  0  0
    3.0099    0.0080   -0.0001 C   0  0  0  0  0  0  0  0  0  0  0  0
    0.9569   -1.3120    0.0093 C   0  0  0  0  0  0  0  0  0  0  0  0
   -0.6273    1.0428   -0.0328 C   0  0  0  0  0  0  0  0  0  0  0  0
   -1.2339   -0.2377   -0.0171 C   0  0  0  0  0  0  0  0  0  0  0  0
    3.6707    1.2552   -0.0151 C   0  0  0  0  0  0  0  0  0  0  0  0
    3.7772   -1.1822    0.0211 C   0  0  0  0  0  0  0  0  0  0  0  0
   -0.4386   -1.3881    0.0035 C   0  0  0  0  0  0  0  0  0  0  0  0
    1.5130    2.3632   -0.0416 C   0  0  0  0  0  0  0  0  0  0  0  0
    1.7309   -2.4802    0.0303 C   0  0  0  0  0  0  0  0  0  0  0  0
    2.9090    2.4230   -0.0358 C   0  0  0  0  0  0  0  0  0  0  0  0
   -2.6340   -0.3660   -0.0219 C   0  0  0  0  0  0  0  0  0  0  0  0
    3.1229   -2.4171    0.0361 C   0  0  0  0  0  0  0  0  0  0  0  0
   -1.5011    2.1599   -0.0530 C   0  0  0  0  0  0  0  0  0  0  0  0
    5.0729    1.3025   -0.0090 C   0  0  0  0  0  0  0  0  0  0  0  0
    5.1778   -1.1070    0.0268 C   0  0  0  0  0  0  0  0  0  0  0  0
   -3.4583    0.7546   -0.0419 C   0  0  0  0  0  0  0  0  0  0  0  0
   -2.8914    2.0189   -0.0575 C   0  0  0  0  0  0  0  0  0  0  0  0
    5.8206    0.1282    0.0118 C   0  0  0  0  0  0  0  0  0  0  0  0
   -3.2847   -1.6792   -0.0057 C   0  0  0  0  0  0  0  0  0  0  0  0
   -4.9123    0.6467   -0.0483 C   0  0  0  0  0  0  0  0  0  0  0  0
  1 25  1  0
  2 25  2  0
  3 26  1  0
  4 26  2  0
  5  6  2  0
  5  7  1  0
  5  8  1  0
  6  9  1  0
  6 14  1  0
  7 11  2  0
  7 12  1  0
  8 13  2  0
  8 15  1  0
  9 10  2  0
  9 19  1  0
 10 13  1  0
 10 17  1  0
 11 16  1  0
 11 20  1  0
 12 18  1  0
 12 21  2  0
 14 16  2  0
 15 18  2  0
 17 22  2  0
 17 25  1  0
 19 23  2  0
 20 24  2  0
 21 24  1  0
 22 23  1  0
 22 26  1  0
M  END
>  <PUBCHEM_COMPOUND_CID>  (1) 
44360

>  <PUBCHEM_CONFORMER_RMSD>  (1) 
0.6

>  <PUBCHEM_CONFORMER_DIVERSEORDER>  (1) 
1

>  <PUBCHEM_MMFF94_PARTIAL_CHARGES>  (1) 
30
1 -0.65
13 -0.15
14 -0.15
15 -0.15
16 -0.15
17 0.09
18 -0.15
19 -0.15
2 -0.57
20 -0.15
21 -0.15
22 0.09
23 -0.15
24 -0.15
25 0.63
26 0.63
27 0.15
28 0.15
29 0.15
3 -0.65
30 0.15
31 0.15
32 0.15
33 0.15
34 0.15
35 0.15
36 0.15
37 0.5
38 0.5
4 -0.57

>  <PUBCHEM_EFFECTIVE_ROTOR_COUNT>  (1) 
2

>  <PUBCHEM_PHARMACOPHORE_FEATURES>  (1) 
11
1 1 acceptor
1 2 acceptor
1 3 acceptor
1 4 acceptor
3 1 2 25 anion
3 3 4 26 anion
6 5 6 7 11 14 16 rings
6 5 6 8 9 10 13 rings
6 5 7 8 12 15 18 rings
6 7 11 12 20 21 24 rings
6 9 10 17 19 22 23 rings

>  <PUBCHEM_HEAVY_ATOM_COUNT>  (1) 
26

>  <PUBCHEM_ATOM_DEF_STEREO_COUNT>  (1) 
0

>  <PUBCHEM_ATOM_UDEF_STEREO_COUNT>  (1) 
0

>  <PUBCHEM_BOND_DEF_STEREO_COUNT>  (1) 
0

>  <PUBCHEM_BOND_UDEF_STEREO_COUNT>  (1) 
0

>  <PUBCHEM_ISOTOPIC_ATOM_COUNT>  (1) 
0

>  <PUBCHEM_COMPONENT_COUNT>  (1) 
1

>  <PUBCHEM_CACTVS_TAUTO_COUNT>  (1) 
1

>  <PUBCHEM_CONFORMER_ID>  (1) 
0000AD4800000001

>  <PUBCHEM_MMFF94_ENERGY>  (1) 
105.0494

>  <PUBCHEM_FEATURE_SELFOVERLAP>  (1) 
56.091

>  <PUBCHEM_SHAPE_FINGERPRINT>  (1) 
10616163 171 18411982485438080207
10906281 52 18337127690784709218
10967382 1 18410573942882325140
11135609 12 17750813206105748627
11488393 25 17559415569130184110
11578080 2 16951952952029293182
12107183 9 17620195338629454576
12236239 1 17917991654932128781
12788726 201 17417536783299175617
13140716 1 18410296938534261073
13224815 77 18408886252019737370
13402501 40 18408041814183481096
14341114 176 18410580560830972296
14790565 3 17976267051674847068
15196674 1 18410574015226771716
15219462 58 15482674537293536895
1601671 61 18410573972825757420
17349148 13 17967813872972130928
17492 89 18410856572567870379
1813 80 17095529465364978308
18681886 176 18271800259577294906
19591789 44 18339360889448482862
200 152 18131347510009929313
20028762 73 18201712968438009406
20691752 17 17603860117982910674
21033648 29 17917414467868763474
21133410 171 17332182979340580950
21267235 1 18339368461581450686
21421861 104 17969214530537656362
21709351 56 18409162246808004980
221490 88 18336552698022668834
23227448 37 18411979144174894895
23402539 116 18341045302496838446
23559900 14 18410849988456371648
3004659 81 18261112950995011228
335352 9 18410575058940793820
338550 245 18335424612051345340
34797466 226 16917352575603001076
34934 24 18410290281424564347
350125 39 18410575084842888236
3545911 37 18409449176229806629
3633792 109 18338508626889474829
3680242 22 18261952921537850602
4073 2 18114186375652701018
4214541 1 18411418397407970133
4280585 95 17623298169830545590
5104073 3 18410009961735918008
59755656 215 18408604730030501844
9709674 26 18339365162624827639

>  <PUBCHEM_SHAPE_MULTIPOLES>  (1) 
511.59
11.79
2.91
0.69
2.13
0.25
0.03
-0.39
0.06
-0.1
0.03
0.31
0.14
-0.16

>  <PUBCHEM_SHAPE_SELFOVERLAP>  (1) 
1198.617

>  <PUBCHEM_SHAPE_VOLUME>  (1) 
259.7

>  <PUBCHEM_COORDINATE_TYPE>  (1) 
2
5
10

$$$$
