44366
     RDKit          3D

 24 28  0  0  0  0  0  0  0  0999 V2000
   -0.9482    2.2919   -0.2219 O   0  0  0  0  0  0  0  0  0  0  0  0
   -1.3471   -0.0989   -0.0538 C   0  0  0  0  0  0  0  0  0  0  0  0
    1.5404   -0.3802   -0.0179 C   0  0  0  0  0  0  0  0  0  0  0  0
    0.9319    0.8891   -0.1114 C   0  0  0  0  0  0  0  0  0  0  0  0
   -0.7385   -1.3684    0.0391 C   0  0  0  0  0  0  0  0  0  0  0  0
   -0.4721    1.0103   -0.1277 C   0  0  0  0  0  0  0  0  0  0  0  0
   -2.7854   -0.0036   -0.0682 C   0  0  0  0  0  0  0  0  0  0  0  0
    2.9786   -0.4757   -0.0027 C   0  0  0  0  0  0  0  0  0  0  0  0
    0.6654   -1.4895    0.0555 C   0  0  0  0  0  0  0  0  0  0  0  0
   -3.5582   -1.1910    0.0113 C   0  0  0  0  0  0  0  0  0  0  0  0
    3.7515    0.7115   -0.0826 C   0  0  0  0  0  0  0  0  0  0  0  0
    1.7264    2.0373   -0.1884 C   0  0  0  0  0  0  0  0  0  0  0  0
   -1.5330   -2.5167    0.1158 C   0  0  0  0  0  0  0  0  0  0  0  0
    3.1145    1.9506   -0.1742 C   0  0  0  0  0  0  0  0  0  0  0  0
   -2.9210   -2.4301    0.1020 C   0  0  0  0  0  0  0  0  0  0  0  0
   -3.5030    1.2158   -0.1577 C   0  0  0  0  0  0  0  0  0  0  0  0
    3.6959   -1.6951    0.0885 C   0  0  0  0  0  0  0  0  0  0  0  0
   -4.9625   -1.1343   -0.0002 C   0  0  0  0  0  0  0  0  0  0  0  0
    5.1557    0.6547   -0.0701 C   0  0  0  0  0  0  0  0  0  0  0  0
   -4.9000    1.2589   -0.1679 C   0  0  0  0  0  0  0  0  0  0  0  0
    5.0929   -1.7381    0.0998 C   0  0  0  0  0  0  0  0  0  0  0  0
   -5.6299    0.0832   -0.0891 C   0  0  0  0  0  0  0  0  0  0  0  0
    5.8229   -0.5626    0.0204 C   0  0  0  0  0  0  0  0  0  0  0  0
   -1.1774    2.9809    1.0014 C   0  0  0  0  0  0  0  0  0  0  0  0
  1  6  1  0
  1 24  1  0
  2  5  1  0
  2  6  2  0
  2  7  1  0
  3  4  2  0
  3  8  1  0
  3  9  1  0
  4  6  1  0
  4 12  1  0
  5  9  2  0
  5 13  1  0
  7 10  2  0
  7 16  1  0
  8 11  2  0
  8 17  1  0
 10 15  1  0
 10 18  1  0
 11 14  1  0
 11 19  1  0
 12 14  2  0
 13 15  2  0
 16 20  2  0
 17 21  2  0
 18 22  2  0
 19 23  2  0
 20 22  1  0
 21 23  1  0
M  END
>  <PUBCHEM_COMPOUND_CID>  (1) 
44366

>  <PUBCHEM_CONFORMER_RMSD>  (1) 
0.6

>  <PUBCHEM_CONFORMER_DIVERSEORDER>  (1) 
1

>  <PUBCHEM_MMFF94_PARTIAL_CHARGES>  (1) 
29
1 -0.36
12 -0.15
13 -0.15
14 -0.15
15 -0.15
16 -0.15
17 -0.15
18 -0.15
19 -0.15
20 -0.15
21 -0.15
22 -0.15
23 -0.15
24 0.28
25 0.15
26 0.15
27 0.15
28 0.15
29 0.15
30 0.15
31 0.15
32 0.15
33 0.15
34 0.15
35 0.15
36 0.15
37 0.15
6 0.08
9 -0.15

>  <PUBCHEM_EFFECTIVE_ROTOR_COUNT>  (1) 
1

>  <PUBCHEM_PHARMACOPHORE_FEATURES>  (1) 
6
1 1 acceptor
6 2 3 4 5 6 9 rings
6 2 5 7 10 13 15 rings
6 3 4 8 11 12 14 rings
6 7 10 16 18 20 22 rings
6 8 11 17 19 21 23 rings

>  <PUBCHEM_HEAVY_ATOM_COUNT>  (1) 
24

>  <PUBCHEM_ATOM_DEF_STEREO_COUNT>  (1) 
0

>  <PUBCHEM_ATOM_UDEF_STEREO_COUNT>  (1) 
0

>  <PUBCHEM_BOND_DEF_STEREO_COUNT>  (1) 
0

>  <PUBCHEM_BOND_UDEF_STEREO_COUNT>  (1) 
0

>  <PUBCHEM_ISOTOPIC_ATOM_COUNT>  (1) 
0

>  <PUBCHEM_COMPONENT_COUNT>  (1) 
1

>  <PUBCHEM_CACTVS_TAUTO_COUNT>  (1) 
1

>  <PUBCHEM_CONFORMER_ID>  (1) 
0000AD4E00000001

>  <PUBCHEM_MMFF94_ENERGY>  (1) 
109.6957

>  <PUBCHEM_FEATURE_SELFOVERLAP>  (1) 
30.543

>  <PUBCHEM_SHAPE_FINGERPRINT>  (1) 
10906281 52 18269857374642711615
10967382 1 18410575114754223781
1100329 8 18409730681255269425
11578080 2 17129845360917771946
12107183 9 17689152310146254978
12166972 35 18114466738037846053
12236239 1 17894349977602738558
12403259 226 18123747814972907795
12788726 201 18131081406616118128
12838862 33 18337653249481228549
13140716 1 18411140280916265667
13402501 40 18411418401597325575
138480 1 15167982936751455504
13862211 1 18411133632412503239
14341114 176 18410298003796608228
14790565 3 18337677421024439961
14866123 147 17765721217651717048
15099037 51 18409729551768762103
15183329 4 18409166601715081494
15196674 1 18409729585996410751
15420108 30 17547576972419198176
15788980 27 18187367644366405939
16087824 20 18337110043361105045
17349148 13 18202566180775464325
17492 89 18120094141480767027
17980427 23 16988578917438817753
1813 80 17095238142344639076
19141452 34 18410855485903584831
19591789 44 18409447007614187507
200 152 18272649047613937617
20028762 73 18272646844317613407
20775438 99 16619221282365176503
21033648 29 17822556270740401381
21065198 57 18337672043519234794
21236236 1 18270400481995321233
21267235 1 18409174328466923875
21279426 13 18337952264381280783
21421861 104 17823122463795038490
21859007 373 17824516643843154876
221490 88 18190748728769206482
23402539 116 18272082803647440935
23559900 14 18340763832084419176
3004659 81 18260268543176124750
3178227 256 18336280007129759307
335352 9 18409729538788733151
34934 24 18339356474232879406
350125 39 18410012104877495304
3545911 37 18410575093759441726
3680242 22 18261671463688371978
4073 2 17968381264180628458
4214541 1 18409448093839824375
484989 97 18264201599728449927
5104073 3 18410293644104149290
5283173 99 18334570201238230725
59755656 215 18339928121690507742
59755656 520 16950281814704276890
6138700 20 18336265631146744906
7226269 152 18202284663245187721
9709674 26 18190745430023553882

>  <PUBCHEM_SHAPE_MULTIPOLES>  (1) 
488.04
11.91
2.81
0.67
2.76
0.47
0.04
-2.11
-0.35
-0.56
0.33
-0.05
0.13
-0.16

>  <PUBCHEM_SHAPE_SELFOVERLAP>  (1) 
1127.955

>  <PUBCHEM_SHAPE_VOLUME>  (1) 
251

>  <PUBCHEM_COORDINATE_TYPE>  (1) 
2
5
10

$$$$
