4436
     RDKit          3D

 16 18  0  0  0  0  0  0  0  0999 V2000
    3.1417    0.7586    0.0490 N   0  0  0  0  0  0  0  0  0  0  0  0
    2.3540   -1.3744   -0.0438 N   0  0  0  0  0  0  0  0  0  0  0  0
    1.1844    0.2896   -1.4124 C   0  0  0  0  0  0  0  0  0  0  0  0
   -0.0360    0.7744   -0.6928 C   0  0  0  0  0  0  0  0  0  0  0  0
    2.2480   -0.1365   -0.4557 C   0  0  0  0  0  0  0  0  0  0  0  0
   -1.0843   -0.0904   -0.3381 C   0  0  0  0  0  0  0  0  0  0  0  0
    4.0245    0.1065    0.9681 C   0  0  0  0  0  0  0  0  0  0  0  0
    3.5276   -1.3445    0.8828 C   0  0  0  0  0  0  0  0  0  0  0  0
   -2.2118    0.4305    0.3406 C   0  0  0  0  0  0  0  0  0  0  0  0
   -0.0985    2.1332   -0.3827 C   0  0  0  0  0  0  0  0  0  0  0  0
   -1.0383   -1.4606   -0.6421 C   0  0  0  0  0  0  0  0  0  0  0  0
   -2.2577    1.8008    0.6444 C   0  0  0  0  0  0  0  0  0  0  0  0
   -1.2072    2.6454    0.2846 C   0  0  0  0  0  0  0  0  0  0  0  0
   -3.2601   -0.4343    0.6951 C   0  0  0  0  0  0  0  0  0  0  0  0
   -2.0888   -2.3052   -0.2822 C   0  0  0  0  0  0  0  0  0  0  0  0
   -3.1976   -1.7931    0.3852 C   0  0  0  0  0  0  0  0  0  0  0  0
  1  5  1  0
  1  7  1  0
  2  5  2  0
  2  8  1  0
  3  4  1  0
  3  5  1  0
  4  6  1  0
  4 10  2  0
  6  9  2  0
  6 11  1  0
  7  8  1  0
  9 12  1  0
  9 14  1  0
 10 13  1  0
 11 15  2  0
 12 13  2  0
 14 16  2  0
 15 16  1  0
M  END
>  <PUBCHEM_COMPOUND_CID>  (1) 
4436

>  <PUBCHEM_CONFORMER_RMSD>  (1) 
0.6

>  <PUBCHEM_CONFORMER_DIVERSEORDER>  (1) 
1
6
7
9
8
5
10
2
4
3

>  <PUBCHEM_MMFF94_PARTIAL_CHARGES>  (1) 
22
1 -0.82
10 -0.15
11 -0.15
12 -0.15
13 -0.15
14 -0.15
15 -0.15
16 -0.15
2 -0.7
23 0.4
24 0.15
25 0.15
26 0.15
27 0.15
28 0.15
29 0.15
3 0.2
30 0.15
4 -0.14
5 0.44
7 0.37
8 0.25

>  <PUBCHEM_EFFECTIVE_ROTOR_COUNT>  (1) 
2.6

>  <PUBCHEM_PHARMACOPHORE_FEATURES>  (1) 
5
1 1 donor
3 1 2 5 cation
5 1 2 5 7 8 rings
6 4 6 9 10 12 13 rings
6 6 9 11 14 15 16 rings

>  <PUBCHEM_HEAVY_ATOM_COUNT>  (1) 
16

>  <PUBCHEM_ATOM_DEF_STEREO_COUNT>  (1) 
0

>  <PUBCHEM_ATOM_UDEF_STEREO_COUNT>  (1) 
0

>  <PUBCHEM_BOND_DEF_STEREO_COUNT>  (1) 
0

>  <PUBCHEM_BOND_UDEF_STEREO_COUNT>  (1) 
0

>  <PUBCHEM_ISOTOPIC_ATOM_COUNT>  (1) 
0

>  <PUBCHEM_COMPONENT_COUNT>  (1) 
1

>  <PUBCHEM_CACTVS_TAUTO_COUNT>  (1) 
1

>  <PUBCHEM_CONFORMER_ID>  (1) 
0000115400000001

>  <PUBCHEM_MMFF94_ENERGY>  (1) 
51.595

>  <PUBCHEM_FEATURE_SELFOVERLAP>  (1) 
25.398

>  <PUBCHEM_SHAPE_FINGERPRINT>  (1) 
10618630 7 18333450962709379042
11132069 177 18272094885406242547
11221954 11 13539696715075668947
11578080 2 17823117064430739188
12202030 40 16517947387648199707
12251169 10 18413106156541524800
12382932 28 18413392029242999726
12553582 1 18267316502303563279
12633257 1 17988925556823896746
12824470 246 17676198113097736491
13083527 12 17554873739781912247
13140716 1 18269284637086518443
13296909 8 18411131416161697916
13764800 53 17489306343686530632
14022347 108 17977708386769201695
14223421 5 18342457032614334152
14420673 8 17834674895140572314
14787075 74 17902228146315104060
15375462 189 18189908693073987819
16945 1 18341349828716014021
17780758 139 18048290290611831146
17804303 29 18124606275518969014
19049666 15 17628649556861195206
20361792 2 16515691000777650724
20388701 513 18343026583637025575
20442098 301 18409728435351630186
20510252 161 18201724994366978225
20871998 184 18272934907841909191
21650355 55 18411131437583981825
21731228 192 17981050704317088561
22445834 79 18188208706632648322
232386 152 18336554918251807230
23388829 49 18267024044852467917
23402539 116 18272640230721260621
23419403 2 18052225644127016613
23463225 33 18336271214218685759
23500284 5 18333449854449574339
23559900 14 18200329718701554356
23598294 1 18411706456616882032
257057 1 18196928001455282935
2748010 2 17907606648007882085
4072396 5 18337964385617798969
5706482 22 18196367018565267041
58807428 26 18050299067910795505
5902787 121 18194410124012100607
6338986 31 18267862963988058191
7097593 13 18190453853826906810
81228 2 18340503174613517645
90316 7 18410018714890166777

>  <PUBCHEM_SHAPE_MULTIPOLES>  (1) 
319.31
6.12
2.55
1.02
4.69
0.58
-0.08
-2.33
2.38
-1.75
0.13
0.35
0
-0.45

>  <PUBCHEM_SHAPE_SELFOVERLAP>  (1) 
701.195

>  <PUBCHEM_SHAPE_VOLUME>  (1) 
169

>  <PUBCHEM_COORDINATE_TYPE>  (1) 
2
5
10

$$$$
