44365
     RDKit          3D

 30 34  0  0  1  0  0  0  0  0999 V2000
   -1.0167    1.2446    2.0972 O   0  0  0  0  0  0  0  0  0  0  0  0
    0.9949   -1.2786   -2.0634 O   0  0  0  0  0  0  0  0  0  0  0  0
   -0.6261    1.1499    0.7210 C   0  0  0  0  0  0  0  0  0  0  0  0
    0.6450   -1.1793   -0.6782 C   0  0  0  0  0  0  0  0  0  0  0  0
   -1.4941    0.0641    0.0767 C   0  0  0  0  0  0  0  0  0  0  0  0
    1.5120   -0.0750   -0.0703 C   0  0  0  0  0  0  0  0  0  0  0  0
    0.8910    0.9555    0.6585 C   0  0  0  0  0  0  0  0  0  0  0  0
   -0.8663   -0.9592   -0.6576 C   0  0  0  0  0  0  0  0  0  0  0  0
   -0.9236    2.4972    0.0102 C   0  0  0  0  0  0  0  0  0  0  0  0
    0.9203   -2.5046    0.0792 C   0  0  0  0  0  0  0  0  0  0  0  0
   -2.9465    0.0891    0.1683 C   0  0  0  0  0  0  0  0  0  0  0  0
    2.9619   -0.0970   -0.1834 C   0  0  0  0  0  0  0  0  0  0  0  0
    1.6987    1.8981    1.3269 C   0  0  0  0  0  0  0  0  0  0  0  0
   -1.6672   -1.8799   -1.3635 C   0  0  0  0  0  0  0  0  0  0  0  0
   -0.4859    2.4369   -1.4400 C   0  0  0  0  0  0  0  0  0  0  0  0
    0.3889   -2.4254    1.4979 C   0  0  0  0  0  0  0  0  0  0  0  0
   -3.7015   -0.8749   -0.5511 C   0  0  0  0  0  0  0  0  0  0  0  0
    3.7240    0.8908    0.4949 C   0  0  0  0  0  0  0  0  0  0  0  0
    3.0833    1.8645    1.2524 C   0  0  0  0  0  0  0  0  0  0  0  0
   -3.0528   -1.8339   -1.3201 C   0  0  0  0  0  0  0  0  0  0  0  0
   -3.7157    1.0087    0.9350 C   0  0  0  0  0  0  0  0  0  0  0  0
    3.7212   -1.0385   -0.9319 C   0  0  0  0  0  0  0  0  0  0  0  0
   -0.7594    3.7632   -2.1309 C   0  0  0  0  0  0  0  0  0  0  0  0
    0.6770   -3.7168    2.2465 C   0  0  0  0  0  0  0  0  0  0  0  0
   -5.1071   -0.8883   -0.5072 C   0  0  0  0  0  0  0  0  0  0  0  0
    5.1283    0.9104    0.4240 C   0  0  0  0  0  0  0  0  0  0  0  0
   -5.1141    0.9871    0.9765 C   0  0  0  0  0  0  0  0  0  0  0  0
    5.1183   -1.0110   -0.9998 C   0  0  0  0  0  0  0  0  0  0  0  0
   -5.8113    0.0378    0.2515 C   0  0  0  0  0  0  0  0  0  0  0  0
    5.8235   -0.0351   -0.3192 C   0  0  0  0  0  0  0  0  0  0  0  0
  1  3  1  0
  2  4  1  0
  3  5  1  0
  3  7  1  0
  3  9  1  0
  4  6  1  0
  4  8  1  0
  4 10  1  0
  5  8  2  0
  5 11  1  0
  6  7  2  0
  6 12  1  0
  7 13  1  0
  8 14  1  0
  9 15  1  0
 10 16  1  0
 11 17  2  0
 11 21  1  0
 12 18  2  0
 12 22  1  0
 13 19  2  0
 14 20  2  0
 15 23  1  0
 16 24  1  0
 17 20  1  0
 17 25  1  0
 18 19  1  0
 18 26  1  0
 21 27  2  0
 22 28  2  0
 25 29  2  0
 26 30  2  0
 27 29  1  0
 28 30  1  0
M  END
>  <PUBCHEM_COMPOUND_CID>  (1) 
44365

>  <PUBCHEM_CONFORMER_RMSD>  (1) 
0.8

>  <PUBCHEM_CONFORMER_DIVERSEORDER>  (1) 
1
3
2

>  <PUBCHEM_MMFF94_PARTIAL_CHARGES>  (1) 
34
1 -0.68
13 -0.15
14 -0.15
19 -0.15
2 -0.68
20 -0.15
21 -0.15
22 -0.15
25 -0.15
26 -0.15
27 -0.15
28 -0.15
29 -0.15
3 0.57
30 -0.15
35 0.15
36 0.15
4 0.57
41 0.4
42 0.4
43 0.15
44 0.15
45 0.15
46 0.15
5 -0.14
53 0.15
54 0.15
55 0.15
56 0.15
57 0.15
58 0.15
6 -0.14
7 -0.14
8 -0.14

>  <PUBCHEM_EFFECTIVE_ROTOR_COUNT>  (1) 
4.4

>  <PUBCHEM_PHARMACOPHORE_FEATURES>  (1) 
11
1 1 acceptor
1 1 donor
1 2 acceptor
1 2 donor
1 23 hydrophobe
1 24 hydrophobe
6 11 17 21 25 27 29 rings
6 12 18 22 26 28 30 rings
6 3 4 5 6 7 8 rings
6 5 8 11 14 17 20 rings
6 6 7 12 13 18 19 rings

>  <PUBCHEM_HEAVY_ATOM_COUNT>  (1) 
30

>  <PUBCHEM_ATOM_DEF_STEREO_COUNT>  (1) 
0

>  <PUBCHEM_ATOM_UDEF_STEREO_COUNT>  (1) 
2

>  <PUBCHEM_BOND_DEF_STEREO_COUNT>  (1) 
0

>  <PUBCHEM_BOND_UDEF_STEREO_COUNT>  (1) 
0

>  <PUBCHEM_ISOTOPIC_ATOM_COUNT>  (1) 
0

>  <PUBCHEM_COMPONENT_COUNT>  (1) 
1

>  <PUBCHEM_CACTVS_TAUTO_COUNT>  (1) 
1

>  <PUBCHEM_CONFORMER_ID>  (1) 
0000AD4D00000001

>  <PUBCHEM_MMFF94_ENERGY>  (1) 
112.2501

>  <PUBCHEM_FEATURE_SELFOVERLAP>  (1) 
55.901

>  <PUBCHEM_SHAPE_FINGERPRINT>  (1) 
10006869 2 18120082880661527341
10190108 129 18115887212708535889
10863032 1 17346033497265143249
10906281 52 18196655310082656432
11421498 54 17822009766237393745
11513181 2 17486775452819243076
11578080 2 17679294166311699141
11607047 403 14470435777747253879
12236239 1 18342740719203926639
12422481 6 18341337708160406397
12467345 10 17775006795085173585
12788726 201 17749663004752387152
13140716 1 18201716309742470090
133893 2 16517640340536500722
13402501 40 18131072632334873270
13911987 19 17604733142884223326
13965767 371 17836953117418339697
14787075 74 18410297978048325858
14790565 3 18202007628874173281
14840074 17 18408892836299749365
14955137 171 18335993076985809353
15196674 1 17988924508693600621
15209289 33 18341331171114348938
15420108 30 17411642202261754384
15439362 3 17973727166882524525
15840311 113 18201164325690375273
15849732 13 18412546518525081157
1601671 61 18060139825469764919
16945 1 18271792497917172070
1813 80 18187078494362843549
18681886 176 17489579082989801035
19591789 44 18201438051701486688
20600515 1 18263097633068997245
20691752 17 18262785371887884754
21267235 1 18060144275346222415
21279426 13 17988650631514257820
21421861 104 18117837698912475675
22393880 68 18341602712179701093
23558518 356 17759515969077618395
23559900 14 17631726192375545064
3004659 81 18272374174856535772
335352 9 17989209234966030860
34934 24 18343019961224924211
3493558 16 17131570344074230776
350125 39 18202284710621676888
3633792 109 17917710142387655785
404807 14 15763347824425697942
4340502 62 18041290893778093259
469060 322 17968105183181889317
474 4 18335982081599992879
5104073 3 17988641934253151514
59755656 215 18130512942245961534
59755656 520 18186519929914059026
6138700 20 18201444645157040990
633830 44 18339070605119581110

>  <PUBCHEM_SHAPE_MULTIPOLES>  (1) 
605.65
10.16
3.34
1.76
0.19
0.07
0.05
0.06
-0.21
-0.01
0.05
-0.03
-0.09
0.01

>  <PUBCHEM_SHAPE_SELFOVERLAP>  (1) 
1352.833

>  <PUBCHEM_SHAPE_VOLUME>  (1) 
320.5

>  <PUBCHEM_COORDINATE_TYPE>  (1) 
2
5
10

$$$$
