44370
     RDKit          3D

 23 27  0  0  1  0  0  0  0  0999 V2000
   -1.6641   -2.8722   -0.8424 O   0  0  0  0  0  0  0  0  0  0  0  0
   -4.0693   -1.8920   -0.5936 O   0  0  0  0  0  0  0  0  0  0  0  0
   -0.8298   -0.8520    0.1919 C   0  0  0  0  0  0  0  0  0  0  0  0
   -1.7731   -2.0302    0.2969 C   0  0  0  0  0  0  0  0  0  0  0  0
   -1.5402    0.3165    0.0995 C   0  0  0  0  0  0  0  0  0  0  0  0
   -3.1830   -1.3720    0.3825 C   0  0  0  0  0  0  0  0  0  0  0  0
   -2.8906    0.0861    0.1725 C   0  0  0  0  0  0  0  0  0  0  0  0
    0.5718   -0.8186    0.1582 C   0  0  0  0  0  0  0  0  0  0  0  0
   -0.9677    1.5736   -0.0472 C   0  0  0  0  0  0  0  0  0  0  0  0
    1.2443    0.4362    0.0128 C   0  0  0  0  0  0  0  0  0  0  0  0
   -3.7682    1.1554    0.0941 C   0  0  0  0  0  0  0  0  0  0  0  0
    0.4395    1.6140   -0.0908 C   0  0  0  0  0  0  0  0  0  0  0  0
   -1.8565    2.6622   -0.1336 C   0  0  0  0  0  0  0  0  0  0  0  0
    2.6842    0.4559   -0.0232 C   0  0  0  0  0  0  0  0  0  0  0  0
   -3.2452    2.4471   -0.0641 C   0  0  0  0  0  0  0  0  0  0  0  0
    1.3204   -1.9969    0.2668 C   0  0  0  0  0  0  0  0  0  0  0  0
    3.4005   -0.7647    0.0882 C   0  0  0  0  0  0  0  0  0  0  0  0
   -5.2420    0.9590    0.1871 C   0  0  0  0  0  0  0  0  0  0  0  0
    2.7101   -1.9693    0.2319 C   0  0  0  0  0  0  0  0  0  0  0  0
    3.4621    1.6334   -0.1651 C   0  0  0  0  0  0  0  0  0  0  0  0
    4.8057   -0.7780    0.0567 C   0  0  0  0  0  0  0  0  0  0  0  0
    4.8594    1.6067   -0.1951 C   0  0  0  0  0  0  0  0  0  0  0  0
    5.5315    0.4002   -0.0842 C   0  0  0  0  0  0  0  0  0  0  0  0
  1  4  1  0
  2  6  1  0
  3  4  1  0
  3  5  2  0
  3  8  1  0
  4  6  1  0
  5  7  1  0
  5  9  1  0
  6  7  1  0
  7 11  2  0
  8 10  2  0
  8 16  1  0
  9 12  2  0
  9 13  1  0
 10 12  1  0
 10 14  1  0
 11 15  1  0
 11 18  1  0
 13 15  2  0
 14 17  2  0
 14 20  1  0
 16 19  2  0
 17 19  1  0
 17 21  1  0
 20 22  2  0
 21 23  2  0
 22 23  1  0
M  END
>  <PUBCHEM_COMPOUND_CID>  (1) 
44370

>  <PUBCHEM_CONFORMER_RMSD>  (1) 
0.6

>  <PUBCHEM_CONFORMER_DIVERSEORDER>  (1) 
1

>  <PUBCHEM_MMFF94_PARTIAL_CHARGES>  (1) 
28
1 -0.68
11 -0.14
12 -0.15
13 -0.15
15 -0.15
16 -0.15
18 0.14
19 -0.15
2 -0.68
20 -0.15
21 -0.15
22 -0.15
23 -0.15
26 0.15
27 0.15
28 0.15
29 0.15
3 -0.14
30 0.4
31 0.4
35 0.15
36 0.15
37 0.15
38 0.15
39 0.15
4 0.42
6 0.42
7 -0.14

>  <PUBCHEM_EFFECTIVE_ROTOR_COUNT>  (1) 
0.4

>  <PUBCHEM_PHARMACOPHORE_FEATURES>  (1) 
9
1 1 acceptor
1 1 donor
1 2 acceptor
1 2 donor
5 3 4 5 6 7 rings
6 14 17 20 21 22 23 rings
6 3 5 8 9 10 12 rings
6 5 7 9 11 13 15 rings
6 8 10 14 16 17 19 rings

>  <PUBCHEM_HEAVY_ATOM_COUNT>  (1) 
23

>  <PUBCHEM_ATOM_DEF_STEREO_COUNT>  (1) 
0

>  <PUBCHEM_ATOM_UDEF_STEREO_COUNT>  (1) 
2

>  <PUBCHEM_BOND_DEF_STEREO_COUNT>  (1) 
0

>  <PUBCHEM_BOND_UDEF_STEREO_COUNT>  (1) 
0

>  <PUBCHEM_ISOTOPIC_ATOM_COUNT>  (1) 
0

>  <PUBCHEM_COMPONENT_COUNT>  (1) 
1

>  <PUBCHEM_CACTVS_TAUTO_COUNT>  (1) 
1

>  <PUBCHEM_CONFORMER_ID>  (1) 
0000AD5200000001

>  <PUBCHEM_MMFF94_ENERGY>  (1) 
87.5641

>  <PUBCHEM_FEATURE_SELFOVERLAP>  (1) 
45.941

>  <PUBCHEM_SHAPE_FINGERPRINT>  (1) 
10319926 262 18340750591232762442
10411042 1 17689718979325933650
10498660 4 18409449185083543852
10616163 171 18410857676558419222
10967382 1 18337673001312792097
1100329 8 18338521940575955249
11578080 2 13972311676958543665
12107183 9 17759236293792087976
12173636 292 18338794520521915133
12236239 1 17749391451023088056
12390115 104 18056212284168593273
12403259 415 18129943494376533304
12403814 3 17603865581239600117
12553582 1 18195235844296588851
12838862 33 18336809932025112853
13140716 1 18049452727203859153
13224815 77 18409444799984978290
138480 1 17401204469659909474
14790565 3 18124601877588989585
15042514 8 18337115674089051675
15131766 46 16082800216379942284
15196674 1 18409730672976596994
15536298 74 18339925922561269484
16087824 20 18410854366435963335
16945 1 18339073899691611657
17349148 13 17894630379001175032
17492 89 18408886209408545266
1813 80 16733272270124148932
18681886 176 18411980291675091152
19591789 44 18411418457532107672
200 152 18201998849876299227
20510252 161 18342179955346667825
21236236 1 18412263964625128141
21267235 1 18337400421203211226
21421861 104 17896311420816792866
23227448 37 18411418405844644942
23366157 5 17896324619372755026
23402539 116 18412258458461152743
23557571 272 18272378606693099142
23559900 14 18198622125810147494
238 59 16671301385306450213
335352 9 18410012096229149068
34934 24 18335417954593566931
350125 39 18410014338133752376
3545911 37 18409732833413958944
4214541 1 18410293597155199576
474 4 17603877710448685908
5104073 3 18408885135723724354
59755656 215 18339931416151599598
69090 78 18410291367898160073
7097593 13 17608636224790925634
9709674 26 18410581669222964302

>  <PUBCHEM_SHAPE_MULTIPOLES>  (1) 
461.59
10.16
2.89
0.67
5.09
0.34
0.01
-2.36
0.14
-1.49
0.26
-0.1
0.11
-0.39

>  <PUBCHEM_SHAPE_SELFOVERLAP>  (1) 
1071.918

>  <PUBCHEM_SHAPE_VOLUME>  (1) 
238.4

>  <PUBCHEM_COORDINATE_TYPE>  (1) 
2
5
10

$$$$
