44373
     RDKit          3D

 23 27  0  0  0  0  0  0  0  0999 V2000
   -1.3832    0.3636   -0.0003 C   0  0  0  0  0  0  0  0  0  0  0  0
   -0.8327   -0.9353   -0.0004 C   0  0  0  0  0  0  0  0  0  0  0  0
    1.4886   -0.0496   -0.0001 C   0  0  0  0  0  0  0  0  0  0  0  0
    0.9382    1.2495   -0.0004 C   0  0  0  0  0  0  0  0  0  0  0  0
   -2.8157    0.5248    0.0000 C   0  0  0  0  0  0  0  0  0  0  0  0
    0.5643   -1.1206   -0.0004 C   0  0  0  0  0  0  0  0  0  0  0  0
   -1.6785   -2.0490   -0.0004 C   0  0  0  0  0  0  0  0  0  0  0  0
   -0.4589    1.4347   -0.0004 C   0  0  0  0  0  0  0  0  0  0  0  0
    2.9211   -0.2107    0.0000 C   0  0  0  0  0  0  0  0  0  0  0  0
   -3.6417   -0.6291    0.0001 C   0  0  0  0  0  0  0  0  0  0  0  0
   -3.0613   -1.8989   -0.0002 C   0  0  0  0  0  0  0  0  0  0  0  0
    3.7470    0.9432   -0.0002 C   0  0  0  0  0  0  0  0  0  0  0  0
    1.7839    2.3633   -0.0007 C   0  0  0  0  0  0  0  0  0  0  0  0
    3.1666    2.2131   -0.0007 C   0  0  0  0  0  0  0  0  0  0  0  0
   -3.4772    1.7788    0.0002 C   0  0  0  0  0  0  0  0  0  0  0  0
   -1.1587   -3.4556   -0.0011 C   0  0  0  0  0  0  0  0  0  0  0  0
    3.5825   -1.4646    0.0010 C   0  0  0  0  0  0  0  0  0  0  0  0
   -5.0419   -0.5081    0.0005 C   0  0  0  0  0  0  0  0  0  0  0  0
    5.1472    0.8222    0.0001 C   0  0  0  0  0  0  0  0  0  0  0  0
   -4.8708    1.8855    0.0007 C   0  0  0  0  0  0  0  0  0  0  0  0
   -5.6534    0.7415    0.0009 C   0  0  0  0  0  0  0  0  0  0  0  0
    4.9761   -1.5715    0.0012 C   0  0  0  0  0  0  0  0  0  0  0  0
    5.7587   -0.4274    0.0007 C   0  0  0  0  0  0  0  0  0  0  0  0
  1  2  1  0
  1  5  1  0
  1  8  2  0
  2  6  2  0
  2  7  1  0
  3  4  2  0
  3  6  1  0
  3  9  1  0
  4  8  1  0
  4 13  1  0
  5 10  2  0
  5 15  1  0
  7 11  2  0
  7 16  1  0
  9 12  2  0
  9 17  1  0
 10 11  1  0
 10 18  1  0
 12 14  1  0
 12 19  1  0
 13 14  2  0
 15 20  2  0
 17 22  2  0
 18 21  2  0
 19 23  2  0
 20 21  1  0
 22 23  1  0
M  END
>  <PUBCHEM_COMPOUND_CID>  (1) 
44373

>  <PUBCHEM_CONFORMER_RMSD>  (1) 
0.6

>  <PUBCHEM_CONFORMER_DIVERSEORDER>  (1) 
1

>  <PUBCHEM_MMFF94_PARTIAL_CHARGES>  (1) 
28
11 -0.15
13 -0.15
14 -0.15
15 -0.15
16 0.14
17 -0.15
18 -0.15
19 -0.15
20 -0.15
21 -0.15
22 -0.15
23 -0.15
24 0.15
25 0.15
26 0.15
27 0.15
28 0.15
29 0.15
33 0.15
34 0.15
35 0.15
36 0.15
37 0.15
38 0.15
39 0.15
6 -0.15
7 -0.14
8 -0.15

>  <PUBCHEM_EFFECTIVE_ROTOR_COUNT>  (1) 
0

>  <PUBCHEM_PHARMACOPHORE_FEATURES>  (1) 
5
6 1 2 3 4 6 8 rings
6 1 2 5 7 10 11 rings
6 3 4 9 12 13 14 rings
6 5 10 15 18 20 21 rings
6 9 12 17 19 22 23 rings

>  <PUBCHEM_HEAVY_ATOM_COUNT>  (1) 
23

>  <PUBCHEM_ATOM_DEF_STEREO_COUNT>  (1) 
0

>  <PUBCHEM_ATOM_UDEF_STEREO_COUNT>  (1) 
0

>  <PUBCHEM_BOND_DEF_STEREO_COUNT>  (1) 
0

>  <PUBCHEM_BOND_UDEF_STEREO_COUNT>  (1) 
0

>  <PUBCHEM_ISOTOPIC_ATOM_COUNT>  (1) 
0

>  <PUBCHEM_COMPONENT_COUNT>  (1) 
1

>  <PUBCHEM_CACTVS_TAUTO_COUNT>  (1) 
1

>  <PUBCHEM_CONFORMER_ID>  (1) 
0000AD5500000001

>  <PUBCHEM_MMFF94_ENERGY>  (1) 
88.0087

>  <PUBCHEM_FEATURE_SELFOVERLAP>  (1) 
25.469

>  <PUBCHEM_SHAPE_FINGERPRINT>  (1) 
10616163 171 18267869578216874278
10906281 52 18199769006172879516
1100329 8 18411136943710638080
11405975 8 18337107959910712480
11578080 2 17130127939642964506
12107183 9 17762055441315496824
12236239 1 18408322176758413328
12788726 201 17846510196687755152
13140716 1 18410575127633857634
13402501 40 18411419479560108046
13533116 47 17703509896554591842
13583140 156 17558544966025618552
138480 1 17762055437422169987
14341114 176 18410579491315641264
14790565 3 18337677420850353657
14866123 147 17479465534545586226
15042514 8 18192435393071917643
15099037 51 18411138017468357607
15183329 4 18410573967982150972
15196674 1 18410574010921274405
15256400 18 18411138026069062477
15420108 30 16258721677007177352
15442244 35 18410855486203979160
15788980 27 18261114079680015984
16087824 20 18265335010541641157
17349148 13 17989209239271547312
17492 89 18192714676765968259
1813 80 17022900164299361332
19141452 34 18410009957351220734
19591789 44 18337107843740918869
200 152 17988923375001712513
20028762 73 18201431472186883303
20775438 99 16547726633980258911
21033648 144 18338785827460986292
21033648 29 18188192252618816373
21033650 10 16700645361923716560
21065198 57 18339079422866664424
21133410 127 17826219985377523189
21133410 171 17117417615787932670
21236236 1 18412825811584630039
21267235 1 18410019848508071899
21279426 13 18267022756388549108
21421861 104 17895743007907557634
21478907 32 17907577283338546047
21703447 108 17553746752842395746
21859007 373 17897701232994107772
221490 88 18191874633250441866
23402539 116 18272364274376592093
23558518 356 17827077608566678354
23559900 14 18343297111196110768
3004659 81 18333734590224074542
3178227 256 18336278864241190689
335352 9 18410573968203703966
338550 245 18334017224182552870
34934 24 18410570708735125498
350125 39 18410013230491047865
3545911 37 18412546522318738760
3680242 22 18262234400936265482
38695281 34 18130786712194255295
4017518 198 17489872610067557142
404807 14 16836308385010781534
4073 2 18041846224601702962
4214541 1 18410855468807942565
460360 51 18266766643204296530
495365 180 17346024667292495888
5104073 3 18410855498814581856
5309563 4 16967741243357494010
532947 4 18198630938571648199
5385378 56 18195817271652660763
559249 180 18409163290543326602
59755656 215 18338518538613080327
6138700 20 18266462001522741902
6328613 192 18335709368647242924
633830 44 17241044426406417736
7226269 152 17988926643588181737
9709674 26 18266179615738346034
9996256 80 18412828019118679387

>  <PUBCHEM_SHAPE_MULTIPOLES>  (1) 
473.33
12.23
2.82
0.62
1.76
1.01
0
-1.59
0
-0.57
0
0
0
0

>  <PUBCHEM_SHAPE_SELFOVERLAP>  (1) 
1095.319

>  <PUBCHEM_SHAPE_VOLUME>  (1) 
221.1

>  <PUBCHEM_COORDINATE_TYPE>  (1) 
2
5
10

$$$$
