44389
     RDKit          3D

 27 30  0  0  0  0  0  0  0  0999 V2000
   -0.0088    1.0990    1.1284 P   0  0  0  0  0  0  0  0  0  0  0  0
   -0.9811    0.9427   -0.1522 O   0  0  0  0  0  0  0  0  0  0  0  0
    1.3758    1.6344    0.4916 O   0  0  0  0  0  0  0  0  0  0  0  0
   -0.5769    2.4197    1.8746 O   0  0  0  0  0  0  0  0  0  0  0  0
    0.1171   -0.1098    2.0112 O   0  0  0  0  0  0  0  0  0  0  0  0
   -2.7931    3.0396    0.0049 N   0  0  0  0  0  0  0  0  0  0  0  0
    0.9540    1.7559   -2.2494 N   0  0  0  0  0  0  0  0  0  0  0  0
   -2.7536   -0.6855   -0.1169 C   0  0  0  0  0  0  0  0  0  0  0  0
    3.2228    0.1163    0.2117 C   0  0  0  0  0  0  0  0  0  0  0  0
   -2.3160    0.6488   -0.0951 C   0  0  0  0  0  0  0  0  0  0  0  0
    2.1944    0.9051   -0.3282 C   0  0  0  0  0  0  0  0  0  0  0  0
   -4.1408   -0.9600   -0.0569 C   0  0  0  0  0  0  0  0  0  0  0  0
    4.0541   -0.6270   -0.6596 C   0  0  0  0  0  0  0  0  0  0  0  0
   -3.2328    1.6974   -0.0153 C   0  0  0  0  0  0  0  0  0  0  0  0
    1.9876    0.9610   -1.7064 C   0  0  0  0  0  0  0  0  0  0  0  0
   -5.0494    0.1080    0.0231 C   0  0  0  0  0  0  0  0  0  0  0  0
    3.8321   -0.5592   -2.0447 C   0  0  0  0  0  0  0  0  0  0  0  0
   -1.8452   -1.7535   -0.1968 C   0  0  0  0  0  0  0  0  0  0  0  0
    3.4448    0.0485    1.5968 C   0  0  0  0  0  0  0  0  0  0  0  0
   -4.5969    1.4275    0.0436 C   0  0  0  0  0  0  0  0  0  0  0  0
    2.8052    0.2299   -2.5633 C   0  0  0  0  0  0  0  0  0  0  0  0
   -4.5784   -2.2943   -0.0788 C   0  0  0  0  0  0  0  0  0  0  0  0
    5.0830   -1.4161   -0.1203 C   0  0  0  0  0  0  0  0  0  0  0  0
   -2.2977   -3.0730   -0.2174 C   0  0  0  0  0  0  0  0  0  0  0  0
    4.4718   -0.7407    2.1154 C   0  0  0  0  0  0  0  0  0  0  0  0
   -3.6617   -3.3429   -0.1584 C   0  0  0  0  0  0  0  0  0  0  0  0
    5.2893   -1.4717    1.2585 C   0  0  0  0  0  0  0  0  0  0  0  0
  1  2  1  0
  1  3  1  0
  1  4  1  0
  1  5  2  0
  2 10  1  0
  3 11  1  0
  6 14  1  0
  7 15  1  0
  8 10  1  0
  8 12  2  0
  8 18  1  0
  9 11  1  0
  9 13  2  0
  9 19  1  0
 10 14  2  0
 11 15  2  0
 12 16  1  0
 12 22  1  0
 13 17  1  0
 13 23  1  0
 14 20  1  0
 15 21  1  0
 16 20  2  0
 17 21  2  0
 18 24  2  0
 19 25  2  0
 22 26  2  0
 23 27  2  0
 24 26  1  0
 25 27  1  0
M  END
>  <PUBCHEM_COMPOUND_CID>  (1) 
44389

>  <PUBCHEM_CONFORMER_RMSD>  (1) 
0.8

>  <PUBCHEM_CONFORMER_DIVERSEORDER>  (1) 
1
14
10
16
13
9
12
7
3
11
4
17
8
15
6
5
2

>  <PUBCHEM_MMFF94_PARTIAL_CHARGES>  (1) 
40
1 1.51
10 0.08
11 0.08
14 0.1
15 0.1
16 -0.15
17 -0.15
18 -0.15
19 -0.15
2 -0.35
20 -0.15
21 -0.15
22 -0.15
23 -0.15
24 -0.15
25 -0.15
26 -0.15
27 -0.15
28 0.15
29 0.15
3 -0.35
30 0.15
31 0.15
32 0.15
33 0.15
34 0.15
35 0.15
36 0.15
37 0.15
38 0.15
39 0.15
4 -0.77
40 0.4
41 0.4
42 0.4
43 0.4
44 0.5
5 -0.7
6 -0.9
7 -0.9

>  <PUBCHEM_EFFECTIVE_ROTOR_COUNT>  (1) 
4

>  <PUBCHEM_PHARMACOPHORE_FEATURES>  (1) 
10
1 4 acceptor
1 5 acceptor
1 6 cation
1 6 donor
1 7 cation
1 7 donor
6 8 10 12 14 16 20 rings
6 8 12 18 22 24 26 rings
6 9 11 13 15 17 21 rings
6 9 13 19 23 25 27 rings

>  <PUBCHEM_HEAVY_ATOM_COUNT>  (1) 
27

>  <PUBCHEM_ATOM_DEF_STEREO_COUNT>  (1) 
0

>  <PUBCHEM_ATOM_UDEF_STEREO_COUNT>  (1) 
0

>  <PUBCHEM_BOND_DEF_STEREO_COUNT>  (1) 
0

>  <PUBCHEM_BOND_UDEF_STEREO_COUNT>  (1) 
0

>  <PUBCHEM_ISOTOPIC_ATOM_COUNT>  (1) 
0

>  <PUBCHEM_COMPONENT_COUNT>  (1) 
1

>  <PUBCHEM_CACTVS_TAUTO_COUNT>  (1) 
1

>  <PUBCHEM_CONFORMER_ID>  (1) 
0000AD6500000001

>  <PUBCHEM_MMFF94_ENERGY>  (1) 
91.4393

>  <PUBCHEM_FEATURE_SELFOVERLAP>  (1) 
50.809

>  <PUBCHEM_SHAPE_FINGERPRINT>  (1) 
11112241 14 16056013844873454611
11796584 16 18411983546379326950
11828532 37 18196926881044409767
12236239 1 17894633621400920077
12363563 72 17917441959237019082
12633257 1 18129958857178742481
12712778 12 18341039748951312962
12788726 201 18337405931629946977
13583140 156 17703776029775947202
13726171 33 17982765078983941212
14251751 18 18411134753398993626
15484559 13 13851749990838933198
17349148 13 18260553307338330370
17809404 112 17418098723434173942
17818456 19 18335422331080962493
20511986 3 18113332029532653588
20600515 1 18202566150695681473
20626108 58 18261671566809485854
21033648 29 17346881126399159700
21781051 124 18261120703617060011
23557571 272 18060423482216190944
23559900 14 18202293502256104428
23572383 38 17847058869985008135
238 59 14852150875766773234
3004659 81 18408610274949332054
338550 245 18260831458079425770
44062 13 18411700997824614747
463206 1 18187081741595477034
5081480 168 14851899006369510054
508706 21 18342741797626061207
5104073 3 18272091651475204545
574716 61 17385726945143997015
602551 16 18412544271729476028
633830 44 15502370132389614613
6823239 73 18059026067873305340
9981440 41 17031642612853741292

>  <PUBCHEM_SHAPE_MULTIPOLES>  (1) 
526.06
11.67
2.96
1.93
1.82
0.97
0.4
5.34
-0.87
-4.01
-0.07
3.17
-0.48
-1.02

>  <PUBCHEM_SHAPE_SELFOVERLAP>  (1) 
1160.557

>  <PUBCHEM_SHAPE_VOLUME>  (1) 
282.6

>  <PUBCHEM_COORDINATE_TYPE>  (1) 
2
5
10

$$$$
