44381
     RDKit          3D

 23 27  0  0  0  0  0  0  0  0999 V2000
   -2.9618   -2.0102    0.0024 S   0  0  0  0  0  0  0  0  0  0  0  0
    1.1597   -0.0902   -0.0001 C   0  0  0  0  0  0  0  0  0  0  0  0
   -1.3383   -0.0133    0.0004 C   0  0  0  0  0  0  0  0  0  0  0  0
   -0.0669    0.6236   -0.0001 C   0  0  0  0  0  0  0  0  0  0  0  0
    1.0746   -1.4994   -0.0002 C   0  0  0  0  0  0  0  0  0  0  0  0
   -1.3587   -1.4025    0.0010 C   0  0  0  0  0  0  0  0  0  0  0  0
   -0.1695   -2.1527    0.0005 C   0  0  0  0  0  0  0  0  0  0  0  0
   -2.6760    0.5500    0.0000 C   0  0  0  0  0  0  0  0  0  0  0  0
    2.4570    0.5373    0.0000 C   0  0  0  0  0  0  0  0  0  0  0  0
   -3.6577   -0.4423    0.0012 C   0  0  0  0  0  0  0  0  0  0  0  0
    3.6202   -0.2754   -0.0008 C   0  0  0  0  0  0  0  0  0  0  0  0
    2.2421   -2.2673   -0.0009 C   0  0  0  0  0  0  0  0  0  0  0  0
   -0.1199    2.1159   -0.0016 C   0  0  0  0  0  0  0  0  0  0  0  0
   -0.2470   -3.6540   -0.0014 C   0  0  0  0  0  0  0  0  0  0  0  0
    3.4960   -1.6658   -0.0015 C   0  0  0  0  0  0  0  0  0  0  0  0
   -3.1056    1.9030   -0.0016 C   0  0  0  0  0  0  0  0  0  0  0  0
    2.6639    1.9400    0.0011 C   0  0  0  0  0  0  0  0  0  0  0  0
   -5.0313   -0.1269    0.0011 C   0  0  0  0  0  0  0  0  0  0  0  0
    4.9004    0.3045   -0.0005 C   0  0  0  0  0  0  0  0  0  0  0  0
   -4.4663    2.2209   -0.0019 C   0  0  0  0  0  0  0  0  0  0  0  0
    3.9425    2.5046    0.0020 C   0  0  0  0  0  0  0  0  0  0  0  0
   -5.4185    1.2135   -0.0003 C   0  0  0  0  0  0  0  0  0  0  0  0
    5.0612    1.6864    0.0011 C   0  0  0  0  0  0  0  0  0  0  0  0
  1  6  1  0
  1 10  1  0
  2  4  2  0
  2  5  1  0
  2  9  1  0
  3  4  1  0
  3  6  2  0
  3  8  1  0
  4 13  1  0
  5  7  2  0
  5 12  1  0
  6  7  1  0
  7 14  1  0
  8 10  2  0
  8 16  1  0
  9 11  2  0
  9 17  1  0
 10 18  1  0
 11 15  1  0
 11 19  1  0
 12 15  2  0
 16 20  2  0
 17 21  2  0
 18 22  2  0
 19 23  2  0
 20 22  1  0
 21 23  1  0
M  END
>  <PUBCHEM_COMPOUND_CID>  (1) 
44381

>  <PUBCHEM_CONFORMER_RMSD>  (1) 
0.6

>  <PUBCHEM_CONFORMER_DIVERSEORDER>  (1) 
1

>  <PUBCHEM_MMFF94_PARTIAL_CHARGES>  (1) 
27
1 -0.08
10 0.04
12 -0.15
13 0.14
14 0.14
15 -0.15
16 -0.15
17 -0.15
18 -0.15
19 -0.15
20 -0.15
21 -0.15
22 -0.15
23 -0.15
24 0.15
31 0.15
32 0.15
33 0.15
34 0.15
35 0.15
36 0.15
37 0.15
38 0.15
39 0.15
4 -0.14
6 0.04
7 -0.14

>  <PUBCHEM_EFFECTIVE_ROTOR_COUNT>  (1) 
0

>  <PUBCHEM_PHARMACOPHORE_FEATURES>  (1) 
5
5 1 3 6 8 10 rings
6 2 3 4 5 6 7 rings
6 2 5 9 11 12 15 rings
6 8 10 16 18 20 22 rings
6 9 11 17 19 21 23 rings

>  <PUBCHEM_HEAVY_ATOM_COUNT>  (1) 
23

>  <PUBCHEM_ATOM_DEF_STEREO_COUNT>  (1) 
0

>  <PUBCHEM_ATOM_UDEF_STEREO_COUNT>  (1) 
0

>  <PUBCHEM_BOND_DEF_STEREO_COUNT>  (1) 
0

>  <PUBCHEM_BOND_UDEF_STEREO_COUNT>  (1) 
0

>  <PUBCHEM_ISOTOPIC_ATOM_COUNT>  (1) 
0

>  <PUBCHEM_COMPONENT_COUNT>  (1) 
1

>  <PUBCHEM_CACTVS_TAUTO_COUNT>  (1) 
1

>  <PUBCHEM_CONFORMER_ID>  (1) 
0000AD5D00000001

>  <PUBCHEM_MMFF94_ENERGY>  (1) 
118.2432

>  <PUBCHEM_FEATURE_SELFOVERLAP>  (1) 
25.536

>  <PUBCHEM_SHAPE_FINGERPRINT>  (1) 
10411042 1 17402049994286642727
10493431 412 18410292553193115181
10616163 171 18339081604551944671
10948715 1 18410855468718427687
10967382 1 18410573950828675014
1100329 8 18336823079315749082
11370993 70 18410854369211743369
11595378 159 16805592629976922325
12107183 9 17764029060587871553
12173636 292 18338795718764958791
12236239 1 17846216635925721797
12390115 104 18269855218664373401
12403259 415 18115025195640033613
12788726 201 17560807563218677681
12838862 33 18339060667166956608
13140716 1 18335701602787124523
133893 2 16413541937740145926
138480 1 17834113039627993890
14528608 73 18413107259999986533
14787075 74 18272085024340588017
14790565 3 18410860957797635633
15196674 1 18410573980867059335
15536298 74 18341613685346473166
1601671 61 18408885135534202612
1813 80 16877665647205175629
18681886 176 18270674277976818690
19591789 44 18410573972282393015
20715895 44 18265607680855987185
21033648 144 18260540113515178687
21033648 29 18342731970271480664
21236236 1 18340205301752494087
21267235 1 18410864243384079695
21279426 13 18341056237836943630
21304253 335 18334300859237871221
21421861 104 17968363547493065858
21452121 103 18411412891528655938
22182313 1 18267328545144149087
23227448 37 18341049700459103055
23402539 116 18343014531874384084
23558518 356 17755580787112918770
23559900 14 18271243820810410662
245318 6 17751377272244999052
335352 9 18410856543330501750
338550 245 18334581290754007964
34934 24 18411133649534246158
350125 39 18337110051971345980
3545911 37 18410576192786078101
3680242 22 18335699378326030706
4214541 1 18410573993863075297
474 4 18410855425963686899
495365 180 17346306146690741912
5104073 3 18334862684463599811
543358 83 18340208492596359208
59755656 215 18412269407129336444
6138700 20 18194969539582445046
633830 44 18343017748931762447
7808743 9 18193836170595333048
8272917 22 18270121205909718102
9709674 26 18411987948525938318
9981440 41 18335701667543995827

>  <PUBCHEM_SHAPE_MULTIPOLES>  (1) 
477.18
10.54
3.37
0.62
1.91
1.34
0
-6.15
0
-0.39
0
0.01
0.01
0

>  <PUBCHEM_SHAPE_SELFOVERLAP>  (1) 
1089.858

>  <PUBCHEM_SHAPE_VOLUME>  (1) 
246.7

>  <PUBCHEM_COORDINATE_TYPE>  (1) 
2
5
10

$$$$
