44392
     RDKit          3D

 21 25  0  0  0  0  0  0  0  0999 V2000
    0.4664   -0.3184   -0.0002 C   0  0  0  0  0  0  0  0  0  0  0  0
   -0.5571    0.6666   -0.0002 C   0  0  0  0  0  0  0  0  0  0  0  0
    1.8408    0.0524   -0.0001 C   0  0  0  0  0  0  0  0  0  0  0  0
   -1.9355    0.2558   -0.0002 C   0  0  0  0  0  0  0  0  0  0  0  0
    0.1313   -1.6897    0.0000 C   0  0  0  0  0  0  0  0  0  0  0  0
   -2.2431   -1.1274   -0.0002 C   0  0  0  0  0  0  0  0  0  0  0  0
    2.2087    1.4152   -0.0001 C   0  0  0  0  0  0  0  0  0  0  0  0
    2.8528   -0.9383    0.0001 C   0  0  0  0  0  0  0  0  0  0  0  0
   -1.2126   -2.0731   -0.0002 C   0  0  0  0  0  0  0  0  0  0  0  0
   -0.1410    2.0177   -0.0002 C   0  0  0  0  0  0  0  0  0  0  0  0
   -3.0351    1.1516    0.0000 C   0  0  0  0  0  0  0  0  0  0  0  0
    1.1450   -2.6575    0.0003 C   0  0  0  0  0  0  0  0  0  0  0  0
    1.2071    2.3853   -0.0002 C   0  0  0  0  0  0  0  0  0  0  0  0
    2.4885   -2.2876    0.0003 C   0  0  0  0  0  0  0  0  0  0  0  0
    3.5656    1.7720   -0.0001 C   0  0  0  0  0  0  0  0  0  0  0  0
   -3.5801   -1.5627   -0.0001 C   0  0  0  0  0  0  0  0  0  0  0  0
    4.2019   -0.5545    0.0002 C   0  0  0  0  0  0  0  0  0  0  0  0
   -4.3596    0.7061    0.0002 C   0  0  0  0  0  0  0  0  0  0  0  0
    4.5550    0.7925    0.0001 C   0  0  0  0  0  0  0  0  0  0  0  0
   -4.6322   -0.6525    0.0001 C   0  0  0  0  0  0  0  0  0  0  0  0
   -2.9670    2.6466    0.0007 C   0  0  0  0  0  0  0  0  0  0  0  0
  1  2  2  0
  1  3  1  0
  1  5  1  0
  2  4  1  0
  2 10  1  0
  3  7  2  0
  3  8  1  0
  4  6  2  0
  4 11  1  0
  5  9  2  0
  5 12  1  0
  6  9  1  0
  6 16  1  0
  7 13  1  0
  7 15  1  0
  8 14  1  0
  8 17  2  0
 10 13  2  0
 11 18  2  0
 11 21  1  0
 12 14  2  0
 15 19  2  0
 16 20  2  0
 17 19  1  0
 18 20  1  0
M  END
>  <PUBCHEM_COMPOUND_CID>  (1) 
44392

>  <PUBCHEM_CONFORMER_RMSD>  (1) 
0.6

>  <PUBCHEM_CONFORMER_DIVERSEORDER>  (1) 
1

>  <PUBCHEM_MMFF94_PARTIAL_CHARGES>  (1) 
24
10 -0.15
11 -0.14
12 -0.15
13 -0.15
14 -0.15
15 -0.15
16 -0.15
17 -0.15
18 -0.15
19 -0.15
20 -0.15
21 0.14
22 0.15
23 0.15
24 0.15
25 0.15
26 0.15
27 0.15
28 0.15
29 0.15
30 0.15
31 0.15
32 0.15
9 -0.15

>  <PUBCHEM_EFFECTIVE_ROTOR_COUNT>  (1) 
0

>  <PUBCHEM_PHARMACOPHORE_FEATURES>  (1) 
5
6 1 2 3 7 10 13 rings
6 1 2 4 5 6 9 rings
6 1 3 5 8 12 14 rings
6 3 7 8 15 17 19 rings
6 4 6 11 16 18 20 rings

>  <PUBCHEM_HEAVY_ATOM_COUNT>  (1) 
21

>  <PUBCHEM_ATOM_DEF_STEREO_COUNT>  (1) 
0

>  <PUBCHEM_ATOM_UDEF_STEREO_COUNT>  (1) 
0

>  <PUBCHEM_BOND_DEF_STEREO_COUNT>  (1) 
0

>  <PUBCHEM_BOND_UDEF_STEREO_COUNT>  (1) 
0

>  <PUBCHEM_ISOTOPIC_ATOM_COUNT>  (1) 
0

>  <PUBCHEM_COMPONENT_COUNT>  (1) 
1

>  <PUBCHEM_CACTVS_TAUTO_COUNT>  (1) 
1

>  <PUBCHEM_CONFORMER_ID>  (1) 
0000AD6800000001

>  <PUBCHEM_MMFF94_ENERGY>  (1) 
90.8316

>  <PUBCHEM_FEATURE_SELFOVERLAP>  (1) 
25.526

>  <PUBCHEM_SHAPE_FINGERPRINT>  (1) 
10411042 1 16465301186500329927
10608611 8 18410009905885407597
10616163 171 18411420630790879663
10863032 1 18411699846408869354
10967382 1 18410856546913136740
11471102 20 18410852178810175006
11578080 2 16952237716961612518
12011746 2 18410012147636816342
12236239 1 17775005696037821227
12403259 226 18340200912021682529
12592029 89 18409169917419304426
12838862 33 18339341050710167204
13132413 78 18412545396647014757
13140716 1 17977672231497179171
138480 1 18050285860702367010
13862211 1 18410569583232414130
14223421 5 18338235951334739821
14790565 3 18337117885928994628
15196674 1 18410855455843756998
15442244 35 18267021656935047187
15536298 74 18342458131883407830
1601671 61 18410575085016597736
16945 1 18266740375142180966
17492 89 18411137996337308875
19591789 44 18410855451781002278
200 152 18131064965976498823
20510252 161 18343304781638410417
20691752 17 17676494890942416195
20905425 154 18341334375096570460
21267235 1 18411146826546807214
21279426 13 18268151959763584870
21421861 104 17897441684098970442
221490 88 18409175384934082659
23227448 37 18341893047321055087
2334 1 18410855464449515842
23366157 5 18041564629017988226
23402539 116 18343012332872286014
23463225 33 18409166597388277230
23559900 14 18125999369757614574
23566358 2 18340486660195077197
238 59 16816540291646274461
2748010 2 18410857633444969222
335352 9 18122343471592460862
34934 24 18411131420398623366
350125 39 18410296947018830289
3680242 22 18263079920734735930
4214541 1 18410855434527539841
4280585 95 17623300368711317918
474 4 17822296828924365054
5104073 3 18410011005164947203
59755656 215 18408603660900026343
6138700 20 18338520742854852246
7364860 26 18413109433385488790
9709674 26 18411143527975228079
9981440 41 17183340063232155464

>  <PUBCHEM_SHAPE_MULTIPOLES>  (1) 
432.17
8.17
2.99
0.62
1.41
0.02
0
0.96
0
-0.19
0
0
0
0

>  <PUBCHEM_SHAPE_SELFOVERLAP>  (1) 
1015.406

>  <PUBCHEM_SHAPE_VOLUME>  (1) 
197.9

>  <PUBCHEM_COORDINATE_TYPE>  (1) 
2
5
10

$$$$
