44395
     RDKit          3D

 20 22  0  0  0  0  0  0  0  0999 V2000
   -1.1382   -1.3657    0.2410 O   0  0  0  0  0  0  0  0  0  0  0  0
    4.2951   -1.1288   -0.2607 O   0  0  0  0  0  0  0  0  0  0  0  0
    3.9535    1.5149    0.0543 N   0  0  0  0  0  0  0  0  0  0  0  0
    2.1374   -0.0839   -0.3656 C   0  0  0  0  0  0  0  0  0  0  0  0
    0.7443   -0.2052   -0.2210 C   0  0  0  0  0  0  0  0  0  0  0  0
    2.7807    1.2073   -0.7628 C   0  0  0  0  0  0  0  0  0  0  0  0
    0.2198   -1.4387    0.1511 C   0  0  0  0  0  0  0  0  0  0  0  0
   -0.3713    0.6617   -0.3628 C   0  0  0  0  0  0  0  0  0  0  0  0
   -1.4860   -0.0903   -0.0720 C   0  0  0  0  0  0  0  0  0  0  0  0
    2.9386   -1.2094   -0.1292 C   0  0  0  0  0  0  0  0  0  0  0  0
    0.9900   -2.5748    0.3927 C   0  0  0  0  0  0  0  0  0  0  0  0
    2.3727   -2.4314    0.2431 C   0  0  0  0  0  0  0  0  0  0  0  0
   -2.8936    0.1896   -0.0333 C   0  0  0  0  0  0  0  0  0  0  0  0
    3.5804    1.6235    1.4643 C   0  0  0  0  0  0  0  0  0  0  0  0
    4.5860    2.7516   -0.4034 C   0  0  0  0  0  0  0  0  0  0  0  0
   -3.3492    1.4722    0.2874 C   0  0  0  0  0  0  0  0  0  0  0  0
   -3.8196   -0.8195   -0.3154 C   0  0  0  0  0  0  0  0  0  0  0  0
   -4.7170    1.7430    0.3258 C   0  0  0  0  0  0  0  0  0  0  0  0
   -5.1875   -0.5488   -0.2771 C   0  0  0  0  0  0  0  0  0  0  0  0
   -5.6361    0.7325    0.0436 C   0  0  0  0  0  0  0  0  0  0  0  0
  1  7  1  0
  1  9  1  0
  2 10  1  0
  3  6  1  0
  3 14  1  0
  3 15  1  0
  4  5  1  0
  4  6  1  0
  4 10  2  0
  5  7  2  0
  5  8  1  0
  7 11  1  0
  8  9  2  0
  9 13  1  0
 10 12  1  0
 11 12  2  0
 13 16  2  0
 13 17  1  0
 16 18  1  0
 17 19  2  0
 18 20  2  0
 19 20  1  0
M  END
>  <PUBCHEM_COMPOUND_CID>  (1) 
44395

>  <PUBCHEM_CONFORMER_RMSD>  (1) 
0.6

>  <PUBCHEM_CONFORMER_DIVERSEORDER>  (1) 
4
6
5
3
7
1
2

>  <PUBCHEM_MMFF94_PARTIAL_CHARGES>  (1) 
28
1 -0.28
10 0.08
11 -0.15
12 -0.15
13 0.05
14 0.27
15 0.27
16 -0.15
17 -0.15
18 -0.15
19 -0.15
2 -0.53
20 -0.15
23 0.15
24 0.15
25 0.15
3 -0.81
32 0.15
33 0.15
34 0.45
35 0.15
36 0.15
37 0.15
4 -0.14
6 0.41
7 0.14
8 -0.15
9 0.09

>  <PUBCHEM_EFFECTIVE_ROTOR_COUNT>  (1) 
3

>  <PUBCHEM_PHARMACOPHORE_FEATURES>  (1) 
6
1 1 acceptor
1 2 donor
1 3 cation
5 1 5 7 8 9 rings
6 13 16 17 18 19 20 rings
6 4 5 7 10 11 12 rings

>  <PUBCHEM_HEAVY_ATOM_COUNT>  (1) 
20

>  <PUBCHEM_ATOM_DEF_STEREO_COUNT>  (1) 
0

>  <PUBCHEM_ATOM_UDEF_STEREO_COUNT>  (1) 
0

>  <PUBCHEM_BOND_DEF_STEREO_COUNT>  (1) 
0

>  <PUBCHEM_BOND_UDEF_STEREO_COUNT>  (1) 
0

>  <PUBCHEM_ISOTOPIC_ATOM_COUNT>  (1) 
0

>  <PUBCHEM_COMPONENT_COUNT>  (1) 
1

>  <PUBCHEM_CACTVS_TAUTO_COUNT>  (1) 
3

>  <PUBCHEM_CONFORMER_ID>  (1) 
0000AD6B00000004

>  <PUBCHEM_MMFF94_ENERGY>  (1) 
53.6547

>  <PUBCHEM_FEATURE_SELFOVERLAP>  (1) 
30.548

>  <PUBCHEM_SHAPE_FINGERPRINT>  (1) 
10411042 1 17832705669546115482
10595046 47 18413669119722674591
10692045 39 18199729428809006994
11595378 159 16081646647993649805
12107183 9 17547857348231816993
12236239 1 18201436939927527335
12390115 104 18194140718009633692
12403259 327 15864352501469004608
12403259 415 18113615651655473661
12670546 56 18341609292185753693
12769317 202 18342448279255428344
13140716 1 18333449850460861106
13167823 11 18341611478324406175
13675066 3 17967822600598974965
13955234 65 18335702689466767186
14528608 73 18411982472690010261
146900 427 18202009836972342257
14739800 52 17988626511241798152
14848178 96 18411981390285028608
14849402 71 18410012148460197232
15196674 1 18410857655352367757
15239154 128 18413109433691489313
15342168 16 18189056550304202180
15536298 74 18411982442467080879
17834072 33 18342174454005186407
17844677 252 18340776936082146249
17959699 21 18342458127715164705
18186145 218 18335981978204338431
18681886 176 18201994383490795210
200 152 18342173324602932103
20645477 70 18271528606563289759
21033648 29 16950276278907533527
21267235 1 18338527339560621943
21452121 103 18412536609629016032
21709351 56 18338792308471248623
22149856 69 18190766253116781923
22854114 59 18261111863814436405
23559900 14 17844809179121714279
239999 70 18271812276532253646
245318 6 17317059248539831172
29717793 49 17988358162112086775
335352 9 18409169922779687206
34797466 226 16988567948103016069
350125 39 18336547119166301340
3545911 37 18335144159540503935
4214541 1 18338798889025744861
42630746 31 18410290311288836470
474 4 18334015029206591340
495365 180 18272083903322676786
5104073 3 18335425626032749867
5895379 119 16628851569119393360
633830 44 18412542102459891975
67856867 119 18411130312302349003
6913067 236 17895738695459510429
7364860 26 18341049614897470846
77779 3 18411702041801951815
7808743 9 18120654897233225816
84936 182 18343582932415851144
960060 61 11527948993036965200
9709674 26 18338243648407465599
9971528 1 18040156201450482724
9981440 41 18263924508926366290
9999458 23 18333733494722960942

>  <PUBCHEM_SHAPE_MULTIPOLES>  (1) 
394.87
11.3
2.63
0.81
8.94
0.12
0.13
-5.81
0.03
-3.01
0.26
-0.47
-0.22
-0.3

>  <PUBCHEM_SHAPE_SELFOVERLAP>  (1) 
868.755

>  <PUBCHEM_SHAPE_VOLUME>  (1) 
216

>  <PUBCHEM_COORDINATE_TYPE>  (1) 
2
5
10

$$$$
