44393
     RDKit          3D

 22 26  0  0  0  0  0  0  0  0999 V2000
    0.6253   -0.2434   -0.0002 C   0  0  0  0  0  0  0  0  0  0  0  0
   -0.2974    0.8366   -0.0003 C   0  0  0  0  0  0  0  0  0  0  0  0
   -1.7092    0.5621   -0.0003 C   0  0  0  0  0  0  0  0  0  0  0  0
    2.0292   -0.0082   -0.0001 C   0  0  0  0  0  0  0  0  0  0  0  0
    0.1582   -1.5756    0.0000 C   0  0  0  0  0  0  0  0  0  0  0  0
   -2.1502   -0.7846   -0.0003 C   0  0  0  0  0  0  0  0  0  0  0  0
    2.5282    1.3122   -0.0002 C   0  0  0  0  0  0  0  0  0  0  0  0
   -1.2167   -1.8262   -0.0002 C   0  0  0  0  0  0  0  0  0  0  0  0
    2.9400   -1.0928    0.0002 C   0  0  0  0  0  0  0  0  0  0  0  0
   -2.7163    1.5607   -0.0001 C   0  0  0  0  0  0  0  0  0  0  0  0
    0.2484    2.1407   -0.0003 C   0  0  0  0  0  0  0  0  0  0  0  0
   -3.5232   -1.0876   -0.0001 C   0  0  0  0  0  0  0  0  0  0  0  0
    1.0728   -2.6375    0.0004 C   0  0  0  0  0  0  0  0  0  0  0  0
    1.6258    2.3753   -0.0003 C   0  0  0  0  0  0  0  0  0  0  0  0
    2.4459   -2.4002    0.0004 C   0  0  0  0  0  0  0  0  0  0  0  0
   -4.0780    1.2463    0.0001 C   0  0  0  0  0  0  0  0  0  0  0  0
    3.9134    1.5352   -0.0001 C   0  0  0  0  0  0  0  0  0  0  0  0
   -4.4816   -0.0792    0.0000 C   0  0  0  0  0  0  0  0  0  0  0  0
    4.3201   -0.8423    0.0002 C   0  0  0  0  0  0  0  0  0  0  0  0
   -2.5032    3.0419    0.0012 C   0  0  0  0  0  0  0  0  0  0  0  0
    4.8027    0.4639    0.0000 C   0  0  0  0  0  0  0  0  0  0  0  0
   -4.0341   -2.4972   -0.0001 C   0  0  0  0  0  0  0  0  0  0  0  0
  1  2  2  0
  1  4  1  0
  1  5  1  0
  2  3  1  0
  2 11  1  0
  3  6  2  0
  3 10  1  0
  4  7  2  0
  4  9  1  0
  5  8  2  0
  5 13  1  0
  6  8  1  0
  6 12  1  0
  7 14  1  0
  7 17  1  0
  9 15  1  0
  9 19  2  0
 10 16  2  0
 10 20  1  0
 11 14  2  0
 12 18  2  0
 12 22  1  0
 13 15  2  0
 16 18  1  0
 17 21  2  0
 19 21  1  0
M  END
>  <PUBCHEM_COMPOUND_CID>  (1) 
44393

>  <PUBCHEM_CONFORMER_RMSD>  (1) 
0.6

>  <PUBCHEM_CONFORMER_DIVERSEORDER>  (1) 
1

>  <PUBCHEM_MMFF94_PARTIAL_CHARGES>  (1) 
24
10 -0.14
11 -0.15
12 -0.14
13 -0.15
14 -0.15
15 -0.15
16 -0.15
17 -0.15
18 -0.15
19 -0.15
20 0.14
21 -0.15
22 0.14
23 0.15
24 0.15
25 0.15
26 0.15
27 0.15
28 0.15
29 0.15
30 0.15
31 0.15
35 0.15
8 -0.15

>  <PUBCHEM_EFFECTIVE_ROTOR_COUNT>  (1) 
0

>  <PUBCHEM_PHARMACOPHORE_FEATURES>  (1) 
5
6 1 2 3 5 6 8 rings
6 1 2 4 7 11 14 rings
6 1 4 5 9 13 15 rings
6 3 6 10 12 16 18 rings
6 4 7 9 17 19 21 rings

>  <PUBCHEM_HEAVY_ATOM_COUNT>  (1) 
22

>  <PUBCHEM_ATOM_DEF_STEREO_COUNT>  (1) 
0

>  <PUBCHEM_ATOM_UDEF_STEREO_COUNT>  (1) 
0

>  <PUBCHEM_BOND_DEF_STEREO_COUNT>  (1) 
0

>  <PUBCHEM_BOND_UDEF_STEREO_COUNT>  (1) 
0

>  <PUBCHEM_ISOTOPIC_ATOM_COUNT>  (1) 
0

>  <PUBCHEM_COMPONENT_COUNT>  (1) 
1

>  <PUBCHEM_CACTVS_TAUTO_COUNT>  (1) 
1

>  <PUBCHEM_CONFORMER_ID>  (1) 
0000AD6900000001

>  <PUBCHEM_MMFF94_ENERGY>  (1) 
96.7064

>  <PUBCHEM_FEATURE_SELFOVERLAP>  (1) 
25.526

>  <PUBCHEM_SHAPE_FINGERPRINT>  (1) 
10411042 1 17978510059616643571
10608611 8 18410291367887591037
10616163 171 18411702084313846375
10863032 1 18339923718762985728
10967382 1 18338517439122492676
11578080 2 16952519196175248719
12403259 226 18340763857500821009
12403260 363 18337666524665633486
13132413 78 18412544280024122052
13140716 1 18049726522536399411
13224815 77 18411136917946147795
138480 1 17834114139308452710
14178342 30 18338503158715150936
14223421 5 18410857646598993799
14790565 3 18337116786475363140
15196674 1 18410575102180603686
15442244 35 18266740173289222195
15536298 74 18342458123398903310
1601671 61 18410856551492966632
16945 1 18338799038626887655
17349148 13 18113334249392311802
17492 89 18410855447502775139
1813 80 17240206516714827484
19591789 44 18195246843660101231
200 152 18131064961565506479
20028762 73 18057603376583532727
20510252 161 18343022219924165089
20691752 17 17603305929551815586
20739085 24 17330303578976405008
20905425 154 18341616996734538644
21267235 1 18411146818009613646
21279426 13 18267870476292015062
21421861 104 17825384081486990642
221490 88 18409455786174224570
22393880 68 18339929220980147702
23227448 37 18411697647907860111
2334 1 18410854343468345834
23366157 5 18041847199285186370
23402539 116 18341324578218172006
23559900 14 18340763754605988280
23566358 2 18340486642988860237
238 59 16671863240191027597
2748010 2 18338798914109739998
335352 9 18050285873243721862
34934 24 18337947892109938675
350125 39 18410577331026316561
3680242 22 18262799532426955674
4214541 1 18410573959487434725
4280585 95 17622736319288499278
474 4 17822299006509707382
5104073 3 18411136943731770242
59755656 215 18409165494056533621
6138700 20 18338239259319881470
7364860 26 18341050726950959702
9709674 26 18411705348410201399

>  <PUBCHEM_SHAPE_MULTIPOLES>  (1) 
452.75
8.55
3.22
0.62
0.09
0.11
0
-0.13
0
-0.82
0
0
0
0

>  <PUBCHEM_SHAPE_SELFOVERLAP>  (1) 
1058.694

>  <PUBCHEM_SHAPE_VOLUME>  (1) 
210.2

>  <PUBCHEM_COORDINATE_TYPE>  (1) 
2
5
10

$$$$
