4440
     RDKit          3D

 23 25  0  0  0  0  0  0  0  0999 V2000
    5.0090    1.2438   -0.3829 S   0  0  0  0  0  0  0  0  0  0  0  0
    5.9782    0.3050   -0.9239 O   0  0  0  0  0  0  0  0  0  0  0  0
    4.5261    2.3481   -1.1964 O   0  0  0  0  0  0  0  0  0  0  0  0
   -5.1210    1.9501   -0.0605 N   0  0  0  0  0  0  0  0  0  0  0  0
   -1.6781   -3.2273    0.6814 N   0  0  0  0  0  0  0  0  0  0  0  0
    5.5946    1.8827    1.0906 N   0  0  0  0  0  0  0  0  0  0  0  0
   -2.7547    0.2164   -0.0448 C   0  0  0  0  0  0  0  0  0  0  0  0
   -3.3691    0.7864    1.2441 C   0  0  0  0  0  0  0  0  0  0  0  0
   -3.8266    0.1401   -1.1441 C   0  0  0  0  0  0  0  0  0  0  0  0
   -4.0925    2.1087    0.9764 C   0  0  0  0  0  0  0  0  0  0  0  0
   -4.5336    1.4858   -1.3246 C   0  0  0  0  0  0  0  0  0  0  0  0
   -2.0512   -1.1034    0.1780 C   0  0  0  0  0  0  0  0  0  0  0  0
   -0.6691   -1.3637   -0.0159 C   0  0  0  0  0  0  0  0  0  0  0  0
   -2.6474   -2.2633    0.6061 C   0  0  0  0  0  0  0  0  0  0  0  0
   -0.4600   -2.7062    0.3075 C   0  0  0  0  0  0  0  0  0  0  0  0
   -5.8410    3.2074   -0.2629 C   0  0  0  0  0  0  0  0  0  0  0  0
    0.4297   -0.5882   -0.4360 C   0  0  0  0  0  0  0  0  0  0  0  0
    1.6942   -1.1830   -0.5167 C   0  0  0  0  0  0  0  0  0  0  0  0
    0.7981   -3.3141    0.2314 C   0  0  0  0  0  0  0  0  0  0  0  0
    2.8631   -0.3672   -0.9606 C   0  0  0  0  0  0  0  0  0  0  0  0
    1.8731   -2.5252   -0.1877 C   0  0  0  0  0  0  0  0  0  0  0  0
    3.6053    0.3325    0.1802 C   0  0  0  0  0  0  0  0  0  0  0  0
    4.6728    2.6344    1.9611 C   0  0  0  0  0  0  0  0  0  0  0  0
  1  2  2  0
  1  3  2  0
  1  6  1  0
  1 22  1  0
  4 10  1  0
  4 11  1  0
  4 16  1  0
  5 14  1  0
  5 15  1  0
  6 23  1  0
  7  8  1  0
  7  9  1  0
  7 12  1  0
  8 10  1  0
  9 11  1  0
 12 13  1  0
 12 14  2  0
 13 15  2  0
 13 17  1  0
 15 19  1  0
 17 18  2  0
 18 20  1  0
 18 21  1  0
 19 21  2  0
 20 22  1  0
M  END
>  <PUBCHEM_COMPOUND_CID>  (1) 
4440

>  <PUBCHEM_CONFORMER_RMSD>  (1) 
0.8

>  <PUBCHEM_CONFORMER_DIVERSEORDER>  (1) 
1
124
87
14
90
63
41
52
86
53
106
120
57
82
110
130
136
4
139
99
13
89
109
22
65
138
36
127
62
59
133
116
15
66
73
64
123
85
93
119
115
61
84
58
26
23
55
71
42
40
21
134
37
114
24
125
19
74
113
81
129
27
38
112
46
35
117
33
108
10
18
121
29
68
96
94
95
101
97
48
83
12
51
25
72
70
8
3
126
107
67
132
9
50
30
43
44
135
20
137
16
6
34
7
79
45
78
31
91
77
103
49
102
122
131
118
28
92
80
56
75
54
5
128
39
47
98
60
105
76
69
11
32
104
17
111
88
2
100

>  <PUBCHEM_MMFF94_PARTIAL_CHARGES>  (1) 
26
1 1.33
10 0.27
11 0.27
12 -0.18
14 -0.3
15 -0.15
16 0.27
17 -0.15
18 -0.14
19 -0.15
2 -0.65
20 0.14
21 -0.15
22 0.11
23 0.36
3 -0.65
33 0.15
37 0.27
38 0.15
39 0.15
4 -0.81
42 0.15
45 0.42
5 0.03
6 -0.91
7 0.18

>  <PUBCHEM_EFFECTIVE_ROTOR_COUNT>  (1) 
6.2

>  <PUBCHEM_PHARMACOPHORE_FEATURES>  (1) 
9
1 2 acceptor
1 3 acceptor
1 4 cation
1 5 cation
1 5 donor
1 6 donor
5 5 12 13 14 15 rings
6 13 15 17 18 19 21 rings
6 4 7 8 9 10 11 rings

>  <PUBCHEM_HEAVY_ATOM_COUNT>  (1) 
23

>  <PUBCHEM_ATOM_DEF_STEREO_COUNT>  (1) 
0

>  <PUBCHEM_ATOM_UDEF_STEREO_COUNT>  (1) 
0

>  <PUBCHEM_BOND_DEF_STEREO_COUNT>  (1) 
0

>  <PUBCHEM_BOND_UDEF_STEREO_COUNT>  (1) 
0

>  <PUBCHEM_ISOTOPIC_ATOM_COUNT>  (1) 
0

>  <PUBCHEM_COMPONENT_COUNT>  (1) 
1

>  <PUBCHEM_CACTVS_TAUTO_COUNT>  (1) 
1

>  <PUBCHEM_CONFORMER_ID>  (1) 
0000115800000001

>  <PUBCHEM_MMFF94_ENERGY>  (1) 
29.1295

>  <PUBCHEM_FEATURE_SELFOVERLAP>  (1) 
45.78

>  <PUBCHEM_SHAPE_FINGERPRINT>  (1) 
10928967 22 9295292754765402036
12107183 9 18188480290885427586
12390115 104 18336844055466147462
12403259 415 18342183323102174450
12422481 6 17385437700803479036
12769317 202 18341607071171002176
13140716 1 18188495661867037115
13540713 4 18265354874617691982
13590594 115 17402621744442859298
13911852 28 9439106642785657913
13955234 65 17828206498214260787
13965767 371 17895188866356949558
14142880 1 18261107521750596399
14168556 18 18336834178243698515
14251764 30 8646498448480617240
14251764 38 18198056096011929056
14251764 75 18199194984279696249
14429114 114 18195524788570184513
14848178 96 18412546483447839752
14950920 106 15719391780377343508
1768 210 18270664463792021981
17780758 139 12396288262233570559
17834072 32 18335142003050209612
193927 3 10015578419678929447
19784866 34 18337391539685258959
20715895 44 18410009897417247080
21033648 29 18339359777321225536
21033650 10 14907622221468580371
21279426 13 18271821107628170046
21401589 2 18334582347595161067
22122407 14 17765167077310178017
22950370 63 9295287270044088038
23559900 14 18271526378098287530
2748736 6 18409440393133053924
283562 15 18190180273027278427
2838139 119 18202277000785875148
312425 83 16987729995372010509
3246875 12 18408608067942582417
341906 21 18337950220594103976
3459 39 18261664935206199788
350125 39 18192441968365465747
376196 1 18411698777221222646
4371632 12 15407776016126265648
474 4 18266458703135252867
5104073 3 18113620053823203731
59124914 9 18410296874462913058
6327066 14 18334295353390653413
633830 44 18197782090283721567
7064713 232 18261956348969316340
7288768 16 18113904836341041179
7808743 9 18335422395489426744
9981440 41 18335983146604852499

>  <PUBCHEM_SHAPE_MULTIPOLES>  (1) 
450.5
13.52
4.2
1.26
5.56
1.02
-0.18
-17.26
0.79
-0.87
-1.07
0.51
-0.78
1.4

>  <PUBCHEM_SHAPE_SELFOVERLAP>  (1) 
934.778

>  <PUBCHEM_SHAPE_VOLUME>  (1) 
260.2

>  <PUBCHEM_COORDINATE_TYPE>  (1) 
2
5
10

$$$$
