44413
     RDKit          3D

 33 36  0  0  1  0  0  0  0  0999 V2000
    8.3743    0.8962   -0.3150 Cl  0  0  0  0  0  0  0  0  0  0  0  0
   -3.8393   -1.5502    1.3194 O   0  0  0  0  0  0  0  0  0  0  0  0
   -0.1232    4.1765    0.5875 O   0  0  0  0  0  0  0  0  0  0  0  0
    2.8480   -2.7264   -0.9052 O   0  0  0  0  0  0  0  0  0  0  0  0
   -2.5296   -1.2868   -0.5608 O   0  0  0  0  0  0  0  0  0  0  0  0
    1.7667   -0.9961    0.0747 N   0  0  0  0  0  0  0  0  0  0  0  0
   -0.2594   -0.7697    1.0235 C   0  0  0  0  0  0  0  0  0  0  0  0
    0.2145    0.5236    0.7017 C   0  0  0  0  0  0  0  0  0  0  0  0
    0.7014   -1.6713    0.6401 C   0  0  0  0  0  0  0  0  0  0  0  0
    1.4787    0.3726    0.1149 C   0  0  0  0  0  0  0  0  0  0  0  0
   -1.5533   -1.0919    1.6622 C   0  0  0  0  0  0  0  0  0  0  0  0
   -0.3274    1.8159    0.8629 C   0  0  0  0  0  0  0  0  0  0  0  0
    2.2056    1.4963   -0.3232 C   0  0  0  0  0  0  0  0  0  0  0  0
    0.6442   -3.1454    0.7858 C   0  0  0  0  0  0  0  0  0  0  0  0
    2.9425   -1.6063   -0.4141 C   0  0  0  0  0  0  0  0  0  0  0  0
    0.3989    2.9281    0.4326 C   0  0  0  0  0  0  0  0  0  0  0  0
    1.6479    2.7677   -0.1533 C   0  0  0  0  0  0  0  0  0  0  0  0
   -2.6682   -1.3147    0.6546 C   0  0  0  0  0  0  0  0  0  0  0  0
    4.2822   -0.9882   -0.3904 C   0  0  0  0  0  0  0  0  0  0  0  0
   -4.9831   -1.7801    0.4903 C   0  0  0  0  0  0  0  0  0  0  0  0
   -5.2193   -0.5681   -0.3789 C   0  0  0  0  0  0  0  0  0  0  0  0
    4.6105   -0.0853    0.6175 C   0  0  0  0  0  0  0  0  0  0  0  0
    5.2123   -1.3121   -1.3750 C   0  0  0  0  0  0  0  0  0  0  0  0
   -6.1905   -2.1016    1.3641 C   0  0  0  0  0  0  0  0  0  0  0  0
   -5.7673   -0.7342   -1.6408 C   0  0  0  0  0  0  0  0  0  0  0  0
   -4.8841    0.6877    0.1016 C   0  0  0  0  0  0  0  0  0  0  0  0
    5.8773    0.4980    0.6409 C   0  0  0  0  0  0  0  0  0  0  0  0
    6.4793   -0.7290   -1.3515 C   0  0  0  0  0  0  0  0  0  0  0  0
   -1.4096    4.2704    1.1964 C   0  0  0  0  0  0  0  0  0  0  0  0
    6.8119    0.1760   -0.3435 C   0  0  0  0  0  0  0  0  0  0  0  0
   -5.9857    0.3853   -2.4437 C   0  0  0  0  0  0  0  0  0  0  0  0
   -5.1027    1.8071   -0.7014 C   0  0  0  0  0  0  0  0  0  0  0  0
   -5.6534    1.6558   -1.9741 C   0  0  0  0  0  0  0  0  0  0  0  0
  1 30  1  0
  2 18  1  0
  2 20  1  0
  3 16  1  0
  3 29  1  0
  4 15  2  0
  5 18  2  0
  6  9  1  0
  6 10  1  0
  6 15  1  0
  7  8  1  0
  7  9  2  0
  7 11  1  0
  8 10  2  0
  8 12  1  0
  9 14  1  0
 10 13  1  0
 11 18  1  0
 12 16  2  0
 13 17  2  0
 15 19  1  0
 16 17  1  0
 19 22  2  0
 19 23  1  0
 20 21  1  0
 20 24  1  0
 21 25  2  0
 21 26  1  0
 22 27  1  0
 23 28  2  0
 25 31  1  0
 26 32  2  0
 27 30  2  0
 28 30  1  0
 31 33  2  0
 32 33  1  0
M  END
>  <PUBCHEM_COMPOUND_CID>  (1) 
44413

>  <PUBCHEM_CONFORMER_RMSD>  (1) 
1

>  <PUBCHEM_CONFORMER_DIVERSEORDER>  (1) 
1
236
333
154
198
167
53
391
242
235
204
244
44
47
201
386
226
295
168
243
208
213
217
365
297
351
256
84
415
374
87
144
273
113
304
327
341
300
364
164
214
207
322
117
85
413
202
108
252
141
196
397
251
258
403
356
237
82
271
412
169
270
92
31
190
177
79
194
394
238
126
229
60
414
331
93
307
101
55
283
405
186
111
239
173
396
191
192
344
265
306
140
171
72
255
129
407
3
259
105
338
210
399
240
336
115
153
245
209
189
401
75
274
339
180
378
309
182
263
319
342
67
332
328
348
58
299
372
330
14
66
50
371
411
241
294
86
9
143
318
206
43
324
30
305
346
361
91
25
13
310
83
142
312
269
215
290
227
24
298
390
410
296
402
279
139
118
219
27
358
65
163
37
316
225
363
89
385
272
373
136
63
110
29
337
147
151
369
42
15
107
94
160
59
157
34
52
384
329
96
289
128
249
323
10
366
388
234
80
288
4
248
62
354
185
383
100
313
150
278
39
16
216
302
178
195
51
387
102
77
172
292
353
253
109
352
152
232
393
176
69
17
367
187
131
321
124
159
382
46
61
281
406
103
276
261
221
122
114
379
149
264
343
36
345
233
76
56
357
282
317
381
181
146
68
285
127
246
220
359
40
112
222
156
200
133
400
28
223
212
161
398
71
38
45
137
211
347
314
158
41
138
355
380
20
162
184
48
260
18
95
32
392
231
230
280
349
325
6
408
303
97
375
81
116
35
197
135
293
368
5
291
12
23
409
301
70
104
275
54
340
98
389
88
175
21
268
224
266
49
377
320
335
199
166
74
73
193
179
78
404
170
165
132
145
33
8
262
257
64
130
286
287
284
350
308
326
134
247
370
123
121
90
148
218
22
334
203
2
205
11
360
174
119
376
57
26
188
125
267
254
19
228
395
311
250
362
120
99
155
7
106
277
315
183

>  <PUBCHEM_MMFF94_PARTIAL_CHARGES>  (1) 
43
1 -0.18
10 -0.15
11 0.24
12 -0.15
13 -0.15
14 0.18
15 0.49
16 0.08
17 -0.15
18 0.66
19 0.09
2 -0.43
20 0.42
21 -0.14
22 -0.15
23 -0.15
25 -0.15
26 -0.15
27 -0.15
28 -0.15
29 0.28
3 -0.36
30 0.18
31 -0.15
32 -0.15
33 -0.15
36 0.15
37 0.15
4 -0.57
41 0.15
43 0.15
44 0.15
48 0.15
49 0.15
5 -0.57
50 0.15
51 0.15
55 0.15
56 0.15
57 0.15
6 0.29
7 -0.18
9 -0.33

>  <PUBCHEM_EFFECTIVE_ROTOR_COUNT>  (1) 
8

>  <PUBCHEM_PHARMACOPHORE_FEATURES>  (1) 
7
1 3 acceptor
1 4 acceptor
1 5 acceptor
5 6 7 8 9 10 rings
6 19 22 23 27 28 30 rings
6 21 25 26 31 32 33 rings
6 8 10 12 13 16 17 rings

>  <PUBCHEM_HEAVY_ATOM_COUNT>  (1) 
33

>  <PUBCHEM_ATOM_DEF_STEREO_COUNT>  (1) 
0

>  <PUBCHEM_ATOM_UDEF_STEREO_COUNT>  (1) 
1

>  <PUBCHEM_BOND_DEF_STEREO_COUNT>  (1) 
0

>  <PUBCHEM_BOND_UDEF_STEREO_COUNT>  (1) 
0

>  <PUBCHEM_ISOTOPIC_ATOM_COUNT>  (1) 
0

>  <PUBCHEM_COMPONENT_COUNT>  (1) 
1

>  <PUBCHEM_CACTVS_TAUTO_COUNT>  (1) 
1

>  <PUBCHEM_CONFORMER_ID>  (1) 
0000AD7D00000001

>  <PUBCHEM_MMFF94_ENERGY>  (1) 
101.6127

>  <PUBCHEM_FEATURE_SELFOVERLAP>  (1) 
35.612

>  <PUBCHEM_SHAPE_FINGERPRINT>  (1) 
10670039 82 16950275235436423119
10675989 125 17756420462020796171
10906281 52 18265074525464725170
10930396 42 18265593547078459640
11115154 58 17917422104648228033
11578080 2 12469797264051340166
11621639 179 18045483241916778389
11646440 116 18339374044722528914
12124843 1 18119226400037752061
12664476 115 17967811670302813423
12788726 201 18337952290504564584
13690498 29 18263927808021281959
13782708 43 17895761840996759435
13811026 1 18410855465356857694
13911987 19 18335709355530284334
140371 6 18337692878991267282
14840074 17 17704072897873392182
14931854 50 18263911160822423757
15082195 135 18261970561517012148
15183329 4 18040149621634249309
15276724 80 18127134073941141213
15775530 1 17397002608648972803
15849732 13 17917716832954913374
16087824 20 18267874883224723945
16992727 255 17969499321097744429
16994733 274 16153707643877531636
18608769 82 17822016432881563059
18681886 176 18270960270826783723
20642791 13 18340216189505152064
20775438 99 17051001633454808047
21279426 13 18334855043210786388
21703447 108 18267585698676156618
21792961 116 18260551099635898227
21814621 53 15719397230912252184
22122407 14 15358848706779332734
221357 26 18408882967292779115
22393880 68 18261103111014264499
23536364 44 18409452462386391797
23559900 14 18411415146049318121
23569914 152 17261871049100195758
24771293 8 18130784624945345712
24771750 20 17902528304009494116
283562 15 18338807723620473010
2838139 119 15502381127173408126
3009799 131 18334294288560218034
46194498 28 18336551637524774007
508706 21 18041264523026918877
5104073 3 8213275358552845190
5283173 99 18188208706353170821
57527295 17 18113887274341561555
5969126 39 18272935986121605036
59755656 215 18410852149225432254
6004065 56 18199460133383418882
7226269 152 18260269637654424224

>  <PUBCHEM_SHAPE_MULTIPOLES>  (1) 
652.54
18.33
3.76
1.58
10.22
3.39
-0.56
-2.5
-8.18
-1.7
1.27
-2.16
-0.04
2.1

>  <PUBCHEM_SHAPE_SELFOVERLAP>  (1) 
1422.464

>  <PUBCHEM_SHAPE_VOLUME>  (1) 
356.3

>  <PUBCHEM_COORDINATE_TYPE>  (1) 
2
5
10

$$$$
