44418
     RDKit          3D

 21 23  0  0  1  0  0  0  0  0999 V2000
    2.0572    1.7268    0.4992 O   0  0  0  0  0  0  0  0  0  0  0  0
   -3.3121    1.4769    0.8650 N   0  0  0  0  0  0  0  0  0  0  0  0
    1.1939   -0.3901    0.1051 N   0  0  0  0  0  0  0  0  0  0  0  0
    6.1743   -0.9956   -0.0510 N   0  0  0  0  0  0  0  0  0  0  0  0
   -2.2058    0.7892   -1.1497 C   0  0  0  0  0  0  0  0  0  0  0  0
   -0.7449    0.3795   -1.2009 C   0  0  0  0  0  0  0  0  0  0  0  0
   -3.1061   -0.2916   -0.6390 C   0  0  0  0  0  0  0  0  0  0  0  0
   -2.4732    1.8401   -0.0658 C   0  0  0  0  0  0  0  0  0  0  0  0
   -3.7178    0.1730    0.5305 C   0  0  0  0  0  0  0  0  0  0  0  0
   -0.1939   -0.0233    0.1634 C   0  0  0  0  0  0  0  0  0  0  0  0
   -3.3741   -1.5496   -1.1461 C   0  0  0  0  0  0  0  0  0  0  0  0
   -1.8129    3.1781   -0.0932 C   0  0  0  0  0  0  0  0  0  0  0  0
   -4.6136   -0.6212    1.2263 C   0  0  0  0  0  0  0  0  0  0  0  0
   -4.2763   -2.3565   -0.4501 C   0  0  0  0  0  0  0  0  0  0  0  0
   -4.8907   -1.8964    0.7270 C   0  0  0  0  0  0  0  0  0  0  0  0
    2.2221    0.5294    0.2806 C   0  0  0  0  0  0  0  0  0  0  0  0
    3.6039   -0.0037    0.1646 C   0  0  0  0  0  0  0  0  0  0  0  0
    4.6133    0.8417   -0.2312 C   0  0  0  0  0  0  0  0  0  0  0  0
    3.8339   -1.3273    0.4562 C   0  0  0  0  0  0  0  0  0  0  0  0
    5.8836    0.2963   -0.3238 C   0  0  0  0  0  0  0  0  0  0  0  0
    5.1391   -1.7758    0.3329 C   0  0  0  0  0  0  0  0  0  0  0  0
  1 16  2  0
  2  8  2  0
  2  9  1  0
  3 10  1  0
  3 16  1  0
  4 20  2  0
  4 21  1  0
  5  6  1  0
  5  7  1  0
  5  8  1  0
  6 10  1  0
  7  9  2  0
  7 11  1  0
  8 12  1  0
  9 13  1  0
 11 14  2  0
 13 15  2  0
 14 15  1  0
 16 17  1  0
 17 18  2  0
 17 19  1  0
 18 20  1  0
 19 21  2  0
M  END
>  <PUBCHEM_COMPOUND_CID>  (1) 
44418

>  <PUBCHEM_CONFORMER_RMSD>  (1) 
0.8

>  <PUBCHEM_CONFORMER_DIVERSEORDER>  (1) 
2
19
20
7
16
5
21
14
11
6
8
18
1
15
9
17
3
13
10
12
4

>  <PUBCHEM_MMFF94_PARTIAL_CHARGES>  (1) 
29
1 -0.57
10 0.3
11 -0.15
12 0.06
13 -0.15
14 -0.15
15 -0.15
16 0.54
17 0.09
18 -0.15
19 -0.15
2 -0.63
20 0.16
21 0.16
27 0.15
3 -0.73
31 0.15
32 0.37
33 0.15
34 0.15
35 0.15
36 0.15
37 0.15
38 0.15
4 -0.62
5 0.2
7 -0.14
8 0.33
9 0.18

>  <PUBCHEM_EFFECTIVE_ROTOR_COUNT>  (1) 
5.2

>  <PUBCHEM_PHARMACOPHORE_FEATURES>  (1) 
7
1 1 acceptor
1 2 acceptor
1 3 donor
1 4 acceptor
5 2 5 7 8 9 rings
6 4 17 18 19 20 21 rings
6 7 9 11 13 14 15 rings

>  <PUBCHEM_HEAVY_ATOM_COUNT>  (1) 
21

>  <PUBCHEM_ATOM_DEF_STEREO_COUNT>  (1) 
0

>  <PUBCHEM_ATOM_UDEF_STEREO_COUNT>  (1) 
1

>  <PUBCHEM_BOND_DEF_STEREO_COUNT>  (1) 
0

>  <PUBCHEM_BOND_UDEF_STEREO_COUNT>  (1) 
0

>  <PUBCHEM_ISOTOPIC_ATOM_COUNT>  (1) 
0

>  <PUBCHEM_COMPONENT_COUNT>  (1) 
1

>  <PUBCHEM_CACTVS_TAUTO_COUNT>  (1) 
6

>  <PUBCHEM_CONFORMER_ID>  (1) 
0000AD8200000002

>  <PUBCHEM_MMFF94_ENERGY>  (1) 
57.1923

>  <PUBCHEM_FEATURE_SELFOVERLAP>  (1) 
35.619

>  <PUBCHEM_SHAPE_FINGERPRINT>  (1) 
10291535 26 8142086481178876815
10595046 47 18335140895502613036
11045515 52 18040712580310202213
11089746 13 8646773274974125278
117890 112 10087644793062832202
12107183 9 17615966613120501922
12633257 1 17059784433062519659
12916754 54 18410570725487895645
13073987 5 18411134715435001248
13103583 49 18059869375874485625
13167823 11 18409445860947720210
13288520 33 18407761447735678687
13675066 3 16845570915980951726
14251764 30 18264494064882776251
14341114 176 18411704296090076472
14528608 73 11097858497425595098
14950920 106 17560246963050106707
15209289 33 18334858320328602451
15250474 111 18262504906377065586
15375358 24 8286207166575409968
17349148 13 17313107445072286986
17780758 139 18060137613503592137
17834072 33 18407761447962454028
17844677 252 18411985750098599668
17857418 61 18411976975037328350
1813 80 18041292023000531877
18927931 339 18411986853678198943
19377110 9 18337099160076740968
19489759 90 11819272269485232622
200 152 15791728615992637741
20645477 56 9295288357092657831
22950370 63 18411421709086068796
2297311 6 18412834598243374301
23402539 116 18186801378724553949
23522609 53 18123502528732127256
23559900 14 18335973264095846969
312423 11 18334864938926128468
4214541 1 18411698751524706668
497634 4 18114181917033503773
5104073 3 18343294839226769104
5283173 99 8646776572971250478
542803 24 16487255487047643688
7495541 125 18272086128305620848
7970288 3 18265050421977345939

>  <PUBCHEM_SHAPE_MULTIPOLES>  (1) 
411.36
14.08
2.45
1.02
16.19
0.82
-0.1
-6.9
1.41
-2.19
0.05
-1.02
-0.09
-0.34

>  <PUBCHEM_SHAPE_SELFOVERLAP>  (1) 
893.018

>  <PUBCHEM_SHAPE_VOLUME>  (1) 
224.2

>  <PUBCHEM_COORDINATE_TYPE>  (1) 
2
5
10

$$$$
