44422
     RDKit          3D

 24 27  0  0  0  0  0  0  0  0999 V2000
   -6.2473    1.2264    0.6243 Cl  0  0  0  0  0  0  0  0  0  0  0  0
    1.2593   -2.6464   -0.6598 O   0  0  0  0  0  0  0  0  0  0  0  0
    1.7152   -0.3666   -0.5175 N   0  0  0  0  0  0  0  0  0  0  0  0
   -1.5380   -2.1071   -0.2600 N   0  0  0  0  0  0  0  0  0  0  0  0
    5.2735   -0.9767    0.4273 N   0  0  0  0  0  0  0  0  0  0  0  0
   -1.0828    0.0677   -0.1267 C   0  0  0  0  0  0  0  0  0  0  0  0
   -0.5297   -1.1846   -0.3063 C   0  0  0  0  0  0  0  0  0  0  0  0
   -0.1738    1.2070   -0.1407 C   0  0  0  0  0  0  0  0  0  0  0  0
    1.2125    0.9762   -0.3357 C   0  0  0  0  0  0  0  0  0  0  0  0
   -2.4990   -0.1102    0.0357 C   0  0  0  0  0  0  0  0  0  0  0  0
    3.1491   -0.5650   -0.7166 C   0  0  0  0  0  0  0  0  0  0  0  0
    0.8650   -1.4908   -0.5089 C   0  0  0  0  0  0  0  0  0  0  0  0
   -2.7451   -1.4859   -0.0535 C   0  0  0  0  0  0  0  0  0  0  0  0
    3.8446   -0.7610    0.6273 C   0  0  0  0  0  0  0  0  0  0  0  0
   -0.6333    2.5198    0.0334 C   0  0  0  0  0  0  0  0  0  0  0  0
    2.0859    2.0799   -0.3483 C   0  0  0  0  0  0  0  0  0  0  0  0
   -3.6144    0.7322    0.2497 C   0  0  0  0  0  0  0  0  0  0  0  0
   -4.0229   -2.0487    0.0583 C   0  0  0  0  0  0  0  0  0  0  0  0
    0.2520    3.5974    0.0171 C   0  0  0  0  0  0  0  0  0  0  0  0
    1.6088    3.3785   -0.1732 C   0  0  0  0  0  0  0  0  0  0  0  0
   -4.8992    0.1842    0.3637 C   0  0  0  0  0  0  0  0  0  0  0  0
   -5.0989   -1.1875    0.2690 C   0  0  0  0  0  0  0  0  0  0  0  0
    5.8741    0.1634   -0.2668 C   0  0  0  0  0  0  0  0  0  0  0  0
    5.9442   -1.2024    1.7085 C   0  0  0  0  0  0  0  0  0  0  0  0
  1 21  1  0
  2 12  2  0
  3  9  1  0
  3 11  1  0
  3 12  1  0
  4  7  1  0
  4 13  1  0
  5 14  1  0
  5 23  1  0
  5 24  1  0
  6  7  2  0
  6  8  1  0
  6 10  1  0
  7 12  1  0
  8  9  2  0
  8 15  1  0
  9 16  1  0
 10 13  2  0
 10 17  1  0
 11 14  1  0
 13 18  1  0
 15 19  2  0
 16 20  2  0
 17 21  2  0
 18 22  2  0
 19 20  1  0
 21 22  1  0
M  END
>  <PUBCHEM_COMPOUND_CID>  (1) 
44422

>  <PUBCHEM_CONFORMER_RMSD>  (1) 
0.6

>  <PUBCHEM_CONFORMER_DIVERSEORDER>  (1) 
1
4
2
3
5

>  <PUBCHEM_MMFF94_PARTIAL_CHARGES>  (1) 
31
1 -0.18
11 0.3
12 0.71
13 -0.15
14 0.27
15 -0.15
16 -0.15
17 -0.15
18 -0.15
19 -0.15
2 -0.57
20 -0.15
21 0.18
22 -0.15
23 0.27
24 0.27
27 0.27
3 -0.48
30 0.15
31 0.15
32 0.15
33 0.15
34 0.15
35 0.15
36 0.15
4 0.03
5 -0.81
6 -0.05
7 -0.24
8 0.05
9 0.12

>  <PUBCHEM_EFFECTIVE_ROTOR_COUNT>  (1) 
3

>  <PUBCHEM_PHARMACOPHORE_FEATURES>  (1) 
8
1 2 acceptor
1 4 cation
1 4 donor
1 5 cation
5 4 6 7 10 13 rings
6 10 13 17 18 21 22 rings
6 3 6 7 8 9 12 rings
6 8 9 15 16 19 20 rings

>  <PUBCHEM_HEAVY_ATOM_COUNT>  (1) 
24

>  <PUBCHEM_ATOM_DEF_STEREO_COUNT>  (1) 
0

>  <PUBCHEM_ATOM_UDEF_STEREO_COUNT>  (1) 
0

>  <PUBCHEM_BOND_DEF_STEREO_COUNT>  (1) 
0

>  <PUBCHEM_BOND_UDEF_STEREO_COUNT>  (1) 
0

>  <PUBCHEM_ISOTOPIC_ATOM_COUNT>  (1) 
0

>  <PUBCHEM_COMPONENT_COUNT>  (1) 
1

>  <PUBCHEM_CACTVS_TAUTO_COUNT>  (1) 
2

>  <PUBCHEM_CONFORMER_ID>  (1) 
0000AD8600000001

>  <PUBCHEM_MMFF94_ENERGY>  (1) 
62.7262

>  <PUBCHEM_FEATURE_SELFOVERLAP>  (1) 
40.794

>  <PUBCHEM_SHAPE_FINGERPRINT>  (1) 
10162869 55 18343581838306758161
10906281 52 18337692852783483510
10967382 1 18412271622952802205
1100329 8 18338236067251663331
11265709 11 18408886230972363664
11646440 116 18201166485726089993
12035758 1 18411138005016200049
12107183 9 18410860936918710249
12236239 1 17967251992407842898
12293681 4 18187941564098740633
12403259 226 18263639731478611037
12403260 363 18269551814186075135
12507557 5 18412830187966036931
12553582 1 18411131424967994966
12633257 1 18409172112659061255
12788726 201 18334583395783569288
12838862 33 18267851814754474809
13004483 165 18335974295140965376
13140716 1 18339643450682680329
138480 1 18411706503724684101
13862211 1 18410570691012203782
14466204 15 18410012100687529603
14787075 74 17967813855971954506
14790565 3 18339653333740636324
14955137 171 18412831300067329702
15042514 8 18192990418604488104
15081414 286 18270413672166519149
15131766 46 15050291680850460506
15196674 1 18339647853567562117
15238133 3 18261684704792652087
15442244 35 18339929315580444429
15685185 35 17244724587406382524
15927050 60 17763747989955225860
1601671 61 18341616992502998071
16087824 20 18265901246746437021
16728300 4 17606941915995651482
17492 89 18048878795214773291
17980427 23 17560226046036823532
1813 80 17676493813517847542
20028762 73 18058729246583821039
20642791 178 18336559307887919965
20642791 35 18268154339608600380
20739085 24 18336552710686524908
20832881 197 18187082857969897537
21033648 29 17632282489066039282
21267235 1 18339090379608097199
21298829 104 18128824041310963337
21304253 13 18343581841594754880
21421861 104 17970347005654645035
21521721 280 8502075392521434926
21709351 56 18341326782116799743
22182313 1 18128539249991129278
2297311 6 18340776953562741630
23366157 5 17899979623150301620
23402539 116 18343295963980932783
23557571 272 18129672881287471364
23558518 356 17902514018932657135
23559900 14 18341893026093930337
23622692 118 18057594568243307863
24771293 8 18129934698125196848
3004659 81 18259995868471418006
3178227 256 18262252062068172217
335352 9 18410858759343748445
3411729 13 18127124398171478232
345986 75 17678435503723262658
34934 24 18340204098913939383
350125 39 18410015446293583925
3680242 22 18335989696466297658
4340502 62 14405190585718522868
4409770 3 17970612001137246501
5104073 3 18267877245128662979
58260988 647 14779824885449823400
653340 110 17982737372244893129
67856867 119 18270398433475191129
69474 34 18413103965818300520
7364860 26 18269281329761474149
8863177 126 17752220628081637139
9709674 26 18120660399043815683
9777508 108 17837210368610936200

>  <PUBCHEM_SHAPE_MULTIPOLES>  (1) 
474.97
12.18
3.31
0.86
1.62
2.65
0.21
-4
4.26
0.44
-0.2
0.81
-0.21
-0.91

>  <PUBCHEM_SHAPE_SELFOVERLAP>  (1) 
1042.654

>  <PUBCHEM_SHAPE_VOLUME>  (1) 
259.8

>  <PUBCHEM_COORDINATE_TYPE>  (1) 
2
5
10

$$$$
