44432
     RDKit          3D

 17 17  0  0  1  0  0  0  0  0999 V2000
   -0.2471   -1.3436   -1.5349 O   0  0  0  0  0  0  0  0  0  0  0  0
   -1.3671   -1.5813    0.4852 N   0  0  0  0  0  0  0  0  0  0  0  0
   -4.1822    0.7075   -0.3210 N   0  0  0  0  0  0  0  0  0  0  0  0
    2.3016   -1.5034   -0.1214 C   0  0  0  0  0  0  0  0  0  0  0  0
    0.9841   -2.0961    0.4137 C   0  0  0  0  0  0  0  0  0  0  0  0
    2.3533    0.0130   -0.0207 C   0  0  0  0  0  0  0  0  0  0  0  0
    3.4994   -2.1266    0.6048 C   0  0  0  0  0  0  0  0  0  0  0  0
   -0.2522   -1.6238   -0.3394 C   0  0  0  0  0  0  0  0  0  0  0  0
   -2.6778   -1.1933    0.0172 C   0  0  0  0  0  0  0  0  0  0  0  0
   -2.8656    0.3133    0.1680 C   0  0  0  0  0  0  0  0  0  0  0  0
    1.7333    0.6334    1.0455 C   0  0  0  0  0  0  0  0  0  0  0  0
    3.0192    0.7255   -0.9979 C   0  0  0  0  0  0  0  0  0  0  0  0
    1.7809    2.0244    1.1381 C   0  0  0  0  0  0  0  0  0  0  0  0
    3.0668    2.1165   -0.9051 C   0  0  0  0  0  0  0  0  0  0  0  0
   -4.3582    2.1567   -0.2145 C   0  0  0  0  0  0  0  0  0  0  0  0
   -5.2360    0.0119    0.4194 C   0  0  0  0  0  0  0  0  0  0  0  0
    2.4476    2.7658    0.1630 C   0  0  0  0  0  0  0  0  0  0  0  0
  1  8  2  0
  2  8  1  0
  2  9  1  0
  3 10  1  0
  3 15  1  0
  3 16  1  0
  4  5  1  0
  4  6  1  0
  4  7  1  0
  5  8  1  0
  6 11  2  0
  6 12  1  0
  9 10  1  0
 11 13  1  0
 12 14  2  0
 13 17  2  0
 14 17  1  0
M  END
>  <PUBCHEM_COMPOUND_CID>  (1) 
44432

>  <PUBCHEM_CONFORMER_RMSD>  (1) 
0.8

>  <PUBCHEM_CONFORMER_DIVERSEORDER>  (1) 
1
12
5
60
70
27
14
73
39
95
36
11
33
51
98
84
110
90
24
86
89
104
91
30
9
48
65
63
46
41
42
32
55
34
81
21
10
68
109
56
66
97
47
71
82
52
62
31
35
87
74
83
58
92
20
105
17
38
106
67
76
100
96
7
64
3
72
113
88
61
77
85
25
59
19
54
45
28
69
75
43
99
107
29
112
23
13
103
80
53
8
16
57
79
102
37
111
108
78
26
93
94
18
22
44
49
50
2
40
101
15
6
4

>  <PUBCHEM_MMFF94_PARTIAL_CHARGES>  (1) 
22
1 -0.57
10 0.27
11 -0.15
12 -0.15
13 -0.15
14 -0.15
15 0.27
16 0.27
17 -0.15
2 -0.73
28 0.37
29 0.15
3 -0.81
30 0.15
31 0.15
32 0.15
39 0.15
4 0.14
5 0.06
6 -0.14
8 0.57
9 0.3

>  <PUBCHEM_EFFECTIVE_ROTOR_COUNT>  (1) 
7

>  <PUBCHEM_PHARMACOPHORE_FEATURES>  (1) 
5
1 1 acceptor
1 2 donor
1 3 cation
1 7 hydrophobe
6 6 11 12 13 14 17 rings

>  <PUBCHEM_HEAVY_ATOM_COUNT>  (1) 
17

>  <PUBCHEM_ATOM_DEF_STEREO_COUNT>  (1) 
0

>  <PUBCHEM_ATOM_UDEF_STEREO_COUNT>  (1) 
1

>  <PUBCHEM_BOND_DEF_STEREO_COUNT>  (1) 
0

>  <PUBCHEM_BOND_UDEF_STEREO_COUNT>  (1) 
0

>  <PUBCHEM_ISOTOPIC_ATOM_COUNT>  (1) 
0

>  <PUBCHEM_COMPONENT_COUNT>  (1) 
1

>  <PUBCHEM_CACTVS_TAUTO_COUNT>  (1) 
2

>  <PUBCHEM_CONFORMER_ID>  (1) 
0000AD9000000001

>  <PUBCHEM_MMFF94_ENERGY>  (1) 
37.4194

>  <PUBCHEM_FEATURE_SELFOVERLAP>  (1) 
25.371

>  <PUBCHEM_SHAPE_FINGERPRINT>  (1) 
10382601 240 17749660896382029960
10498660 4 18338796852932009477
11615756 256 18410296895916975273
12173636 292 17760368095010290694
12507557 5 18340481154469068235
12617007 42 18058181539853701366
13294875 104 18130216185933841320
13464514 151 18338805636419282478
14123255 52 18266178529132823076
14251764 38 18264764360291853869
14251764 75 18269009741895295145
15238133 3 18190464865864545182
15848702 68 18337946801240999780
17134986 127 18269839868603952452
17868525 174 17971461902049992475
18186145 218 17846784035317503993
192875 21 18059009471729303017
19784866 9 18335419097682452890
20233049 118 18343587352121801556
20671657 1 18412539920537182538
212847 35 18410013200172763907
21304253 335 18272640247827185944
23557571 272 16056020497793626311
23558518 356 18266163105869099986
25 1 18337957921375539534
2637199 183 18341343269879024740
44154327 71 18409172133991875901
54672768 99 18117833309524918901
7808743 9 17903361751040348140
9971528 1 18129656384023149042

>  <PUBCHEM_SHAPE_MULTIPOLES>  (1) 
334.02
8.68
3.11
1.04
12.83
0.8
0.08
3.28
0.04
-2.15
-0.14
-0.55
0.13
-0.2

>  <PUBCHEM_SHAPE_SELFOVERLAP>  (1) 
666.836

>  <PUBCHEM_SHAPE_VOLUME>  (1) 
198.5

>  <PUBCHEM_COORDINATE_TYPE>  (1) 
2
5
10

$$$$
