44434
     RDKit          3D

 19 19  0  0  1  0  0  0  0  0999 V2000
    0.3505   -0.3773    1.2856 O   0  0  0  0  0  0  0  0  0  0  0  0
   -4.0705    0.3903    0.2638 N   0  0  0  0  0  0  0  0  0  0  0  0
   -0.4906    0.3274   -0.7606 N   0  0  0  0  0  0  0  0  0  0  0  0
    1.6876   -0.7419   -0.7074 C   0  0  0  0  0  0  0  0  0  0  0  0
   -2.8341   -0.1754   -0.2603 C   0  0  0  0  0  0  0  0  0  0  0  0
   -1.7341    0.8759   -0.2704 C   0  0  0  0  0  0  0  0  0  0  0  0
    1.8299   -2.2741   -0.6006 C   0  0  0  0  0  0  0  0  0  0  0  0
    0.4570   -0.2591    0.0666 C   0  0  0  0  0  0  0  0  0  0  0  0
    2.9284   -0.0017   -0.2377 C   0  0  0  0  0  0  0  0  0  0  0  0
   -4.5025    1.5293   -0.5486 C   0  0  0  0  0  0  0  0  0  0  0  0
   -5.1236   -0.6261    0.3121 C   0  0  0  0  0  0  0  0  0  0  0  0
    0.5904   -3.0221   -1.0756 C   0  0  0  0  0  0  0  0  0  0  0  0
   -5.7545    2.1701    0.0259 C   0  0  0  0  0  0  0  0  0  0  0  0
   -4.6971   -1.8190    1.1508 C   0  0  0  0  0  0  0  0  0  0  0  0
    3.2835    1.1760   -0.8659 C   0  0  0  0  0  0  0  0  0  0  0  0
    3.6671   -0.5265    0.8048 C   0  0  0  0  0  0  0  0  0  0  0  0
    4.4226    1.8559   -0.4347 C   0  0  0  0  0  0  0  0  0  0  0  0
    4.8061    0.1534    1.2361 C   0  0  0  0  0  0  0  0  0  0  0  0
    5.1838    1.3447    0.6162 C   0  0  0  0  0  0  0  0  0  0  0  0
  1  8  2  0
  2  5  1  0
  2 10  1  0
  2 11  1  0
  3  6  1  0
  3  8  1  0
  4  7  1  0
  4  8  1  0
  4  9  1  0
  5  6  1  0
  7 12  1  0
  9 15  2  0
  9 16  1  0
 10 13  1  0
 11 14  1  0
 15 17  1  0
 16 18  2  0
 17 19  2  0
 18 19  1  0
M  END
>  <PUBCHEM_COMPOUND_CID>  (1) 
44434

>  <PUBCHEM_CONFORMER_RMSD>  (1) 
0.8

>  <PUBCHEM_CONFORMER_DIVERSEORDER>  (1) 
2
380
201
278
349
224
188
371
304
312
290
25
139
76
241
299
261
382
263
60
40
165
265
373
321
108
357
79
259
320
379
63
275
133
17
157
142
383
289
384
267
93
45
167
143
74
354
68
343
376
166
260
325
365
177
276
352
270
361
344
326
381
230
244
116
363
359
281
279
298
364
96
313
130
284
189
246
331
65
258
346
148
339
208
250
378
106
135
305
104
10
23
247
303
102
335
272
73
119
162
243
6
184
30
193
226
314
151
283
237
307
22
286
100
29
310
33
327
368
232
295
309
53
175
129
196
223
176
147
252
273
277
235
377
213
52
221
173
128
300
318
86
296
262
3
219
158
146
186
355
12
269
254
340
145
251
347
248
9
234
311
294
282
308
215
370
194
190
39
356
43
322
98
240
161
330
280
336
137
178
124
46
323
374
302
97
291
256
375
192
205
214
225
127
212
35
89
332
92
179
200
164
222
227
293
5
292
334
245
72
156
26
91
271
351
199
348
94
197
249
210
342
105
66
366
268
112
59
138
169
123
90
37
42
182
183
202
195
122
38
231
101
217
132
324
238
4
367
253
84
28
134
319
154
83
229
287
32
114
328
358
150
14
216
120
285
77
153
203
187
11
62
1
87
111
8
360
71
115
209
18
306
20
61
239
338
257
329
301
117
110
266
264
228
69
341
54
233
113
95
288
297
207
78
49
19
317
57
85
345
372
220
58
362
7
206
34
198
31
242
16
168
140
131
333
13
48
107
44
316
56
337
274
80
174
170
353
24
50
15
191
55
350
204
67
180
21
82
172
163
141
152
236
369
41
185
103
126
155
121
70
255
218
47
144
149
125
81
118
159
51
315
211
27
64
88
99
171
75
109
136
160
36
181

>  <PUBCHEM_MMFF94_PARTIAL_CHARGES>  (1) 
21
1 -0.57
10 0.27
11 0.27
15 -0.15
16 -0.15
17 -0.15
18 -0.15
19 -0.15
2 -0.81
3 -0.73
31 0.37
4 0.2
41 0.15
42 0.15
43 0.15
44 0.15
45 0.15
5 0.27
6 0.3
8 0.57
9 -0.14

>  <PUBCHEM_EFFECTIVE_ROTOR_COUNT>  (1) 
9

>  <PUBCHEM_PHARMACOPHORE_FEATURES>  (1) 
5
1 1 acceptor
1 12 hydrophobe
1 2 cation
1 3 donor
6 9 15 16 17 18 19 rings

>  <PUBCHEM_HEAVY_ATOM_COUNT>  (1) 
19

>  <PUBCHEM_ATOM_DEF_STEREO_COUNT>  (1) 
0

>  <PUBCHEM_ATOM_UDEF_STEREO_COUNT>  (1) 
1

>  <PUBCHEM_BOND_DEF_STEREO_COUNT>  (1) 
0

>  <PUBCHEM_BOND_UDEF_STEREO_COUNT>  (1) 
0

>  <PUBCHEM_ISOTOPIC_ATOM_COUNT>  (1) 
0

>  <PUBCHEM_COMPONENT_COUNT>  (1) 
1

>  <PUBCHEM_CACTVS_TAUTO_COUNT>  (1) 
2

>  <PUBCHEM_CONFORMER_ID>  (1) 
0000AD9200000002

>  <PUBCHEM_MMFF94_ENERGY>  (1) 
34.4207

>  <PUBCHEM_FEATURE_SELFOVERLAP>  (1) 
25.371

>  <PUBCHEM_SHAPE_FINGERPRINT>  (1) 
11796584 16 9655306937800673976
12403259 118 18334288807596691284
14251752 14 11527683963642959392
14366163 111 15410899569683585322
15375358 24 18335986389689814479
15848700 24 11963381951787821102
17349148 13 14129064690327789985
17834072 8 9079125440386858083
17980427 23 17749677388628848245
18222031 100 12612750229017305034
204376 136 18271805748123733326
20645477 70 17773876390074454439
21150785 3 13973670750718987177
21452121 103 18337105657734375590
21859007 373 16880743047793234485
221357 26 9727627298543932407
23402539 116 17895187818395329205
23559900 14 18266744567141512567
239999 70 18200319814233163206
300161 21 18335979779956692101
32948 21 10735886061962209818
34797466 226 18060148669071555101
4325135 7 18187928429935871967
4340502 62 18273215300381684335
474229 33 18339643446488355543
5104073 3 18335708187504453883
59755656 215 18200597995528756742
7495541 125 18336263560597741432
960060 61 12031786980988246568

>  <PUBCHEM_SHAPE_MULTIPOLES>  (1) 
375.18
13.47
2.45
1.1
9.77
1.16
0.16
-6.84
3.17
0.71
-0.64
-0.47
0.28
0.89

>  <PUBCHEM_SHAPE_SELFOVERLAP>  (1) 
744.947

>  <PUBCHEM_SHAPE_VOLUME>  (1) 
223.7

>  <PUBCHEM_COORDINATE_TYPE>  (1) 
2
5
10

$$$$
