4445
     RDKit          3D

 23 25  0  0  1  0  0  0  0  0999 V2000
    0.8451    0.7867   -0.8481 S   0  0  0  0  0  0  0  0  0  0  0  0
    0.9673    2.2976   -0.8241 O   0  0  0  0  0  0  0  0  0  0  0  0
   -6.6165    0.0231    0.2031 O   0  0  0  0  0  0  0  0  0  0  0  0
   -1.9381    1.0374   -0.8274 N   0  0  0  0  0  0  0  0  0  0  0  0
    3.5472   -1.7378   -0.5884 N   0  0  0  0  0  0  0  0  0  0  0  0
   -1.1520   -0.7011    0.3127 N   0  0  0  0  0  0  0  0  0  0  0  0
    3.2018    0.4089    0.5196 C   0  0  0  0  0  0  0  0  0  0  0  0
    1.7245    0.1585    0.6116 C   0  0  0  0  0  0  0  0  0  0  0  0
    4.0498   -0.5262   -0.0652 C   0  0  0  0  0  0  0  0  0  0  0  0
   -0.8339    0.3388   -0.4252 C   0  0  0  0  0  0  0  0  0  0  0  0
   -3.0423    0.4065   -0.3147 C   0  0  0  0  0  0  0  0  0  0  0  0
   -2.5253   -0.6753    0.3930 C   0  0  0  0  0  0  0  0  0  0  0  0
    3.7091    1.5988    1.0325 C   0  0  0  0  0  0  0  0  0  0  0  0
    5.4187   -0.2692   -0.1379 C   0  0  0  0  0  0  0  0  0  0  0  0
   -4.4074    0.6806   -0.4064 C   0  0  0  0  0  0  0  0  0  0  0  0
   -3.4079   -1.5454    1.0552 C   0  0  0  0  0  0  0  0  0  0  0  0
    5.0781    1.8559    0.9597 C   0  0  0  0  0  0  0  0  0  0  0  0
    5.9329    0.9219    0.3746 C   0  0  0  0  0  0  0  0  0  0  0  0
   -5.2715   -0.1959    0.2584 C   0  0  0  0  0  0  0  0  0  0  0  0
    3.4485   -2.9133    0.2522 C   0  0  0  0  0  0  0  0  0  0  0  0
    3.1118   -1.8148   -1.9678 C   0  0  0  0  0  0  0  0  0  0  0  0
   -4.7827   -1.2897    0.9769 C   0  0  0  0  0  0  0  0  0  0  0  0
   -7.0572    1.1540   -0.5444 C   0  0  0  0  0  0  0  0  0  0  0  0
  1  2  2  0
  1  8  1  0
  1 10  1  0
  3 19  1  0
  3 23  1  0
  4 10  1  0
  4 11  1  0
  5  9  1  0
  5 20  1  0
  5 21  1  0
  6 10  2  0
  6 12  1  0
  7  8  1  0
  7  9  2  0
  7 13  1  0
  9 14  1  0
 11 12  2  0
 11 15  1  0
 12 16  1  0
 13 17  2  0
 14 18  2  0
 15 19  2  0
 16 22  2  0
 17 18  1  0
 19 22  1  0
M  END
>  <PUBCHEM_COMPOUND_CID>  (1) 
4445

>  <PUBCHEM_CONFORMER_RMSD>  (1) 
0.8

>  <PUBCHEM_CONFORMER_DIVERSEORDER>  (1) 
1
11
33
12
5
18
36
32
35
22
21
24
16
28
20
29
30
26
2
8
31
19
10
4
6
40
3
27
9
38
23
25
17
15
37
14
34
39
7
13

>  <PUBCHEM_MMFF94_PARTIAL_CHARGES>  (1) 
31
1 0.3
10 0.2
11 -0.15
12 0.23
13 -0.15
14 -0.15
15 -0.15
16 -0.15
17 -0.15
18 -0.15
19 0.08
2 -0.5
20 0.37
21 0.37
22 -0.15
23 0.28
26 0.27
27 0.15
28 0.15
29 0.15
3 -0.36
30 0.15
31 0.15
32 0.15
39 0.15
4 0.03
5 -0.84
6 -0.57
7 -0.14
8 0.34
9 0.1

>  <PUBCHEM_EFFECTIVE_ROTOR_COUNT>  (1) 
5

>  <PUBCHEM_PHARMACOPHORE_FEATURES>  (1) 
8
1 2 acceptor
1 3 acceptor
1 4 donor
1 5 cation
3 4 6 10 cation
5 4 6 10 11 12 rings
6 11 12 15 16 19 22 rings
6 7 9 13 14 17 18 rings

>  <PUBCHEM_HEAVY_ATOM_COUNT>  (1) 
23

>  <PUBCHEM_ATOM_DEF_STEREO_COUNT>  (1) 
0

>  <PUBCHEM_ATOM_UDEF_STEREO_COUNT>  (1) 
1

>  <PUBCHEM_BOND_DEF_STEREO_COUNT>  (1) 
0

>  <PUBCHEM_BOND_UDEF_STEREO_COUNT>  (1) 
0

>  <PUBCHEM_ISOTOPIC_ATOM_COUNT>  (1) 
0

>  <PUBCHEM_COMPONENT_COUNT>  (1) 
1

>  <PUBCHEM_CACTVS_TAUTO_COUNT>  (1) 
2

>  <PUBCHEM_CONFORMER_ID>  (1) 
0000115D00000001

>  <PUBCHEM_MMFF94_ENERGY>  (1) 
83.9063

>  <PUBCHEM_FEATURE_SELFOVERLAP>  (1) 
40.703

>  <PUBCHEM_SHAPE_FINGERPRINT>  (1) 
12107183 9 17482847666229375858
12166972 35 11383831584268319243
12236239 1 15769779052255557654
12516196 113 18410011052742240193
12596602 18 17203328969781130330
12616971 3 13840264814413524123
12730499 353 18412266151423079450
13402501 40 18335421283588964226
13533116 47 18131350774000516579
13583140 156 17702662310364817979
14341114 176 18341899605588149993
14386348 63 18334016090237495754
14617045 38 18409452479481734974
15183329 4 17560801001183408057
17844677 252 18342182133000815553
1813 80 16950285100300971532
19141452 34 18337390538863121879
20157964 124 17988925561303544671
20645477 70 18131351873981616886
21033648 29 18201140122874468401
21033650 10 16299517046254002212
21279426 13 18118116979556335381
21315763 191 14707211037259747337
21623969 137 18272656765770720134
21859007 373 17604131654938646957
22122407 14 17274553121489561817
2215653 11 18409729535031998287
22224240 67 18270673286171234376
23557571 272 17603863365173456724
23559900 14 18334853965632885737
239999 70 18413394233342113398
300161 21 17846774135027652271
3004659 81 17313111860256352940
335352 9 18040433309489776205
3383291 50 17677339437197945683
345986 75 17559952126224163018
3545911 37 18409166618863250241
394071 54 18271816725838420520
4073 2 18261395589011437547
4325135 7 17530687632619744316
4340502 62 18342454859651201622
5104073 3 18337671901764287248
542803 24 15985108530394077377
59755656 215 18410576180333537002
621550 34 18409158918751955044
7495541 125 13551483582593404821
8272917 22 17704076183713108470
8988823 20 18131068212365171766
9995097 60 18409447003171546725

>  <PUBCHEM_SHAPE_MULTIPOLES>  (1) 
450.5
16.55
2.14
1.15
14.04
0.82
-0.23
-2.26
1.7
-2.46
-0.05
-0.43
0.2
2.13

>  <PUBCHEM_SHAPE_SELFOVERLAP>  (1) 
955.228

>  <PUBCHEM_SHAPE_VOLUME>  (1) 
254.5

>  <PUBCHEM_COORDINATE_TYPE>  (1) 
2
5
10

$$$$
