44456
     RDKit          3D

 19 20  0  0  1  0  0  0  0  0999 V2000
    0.1183    1.2609    0.7255 O   0  0  0  0  0  0  0  0  0  0  0  0
    3.2686    2.6487   -0.4560 O   0  0  0  0  0  0  0  0  0  0  0  0
    3.1209   -0.2134   -0.4657 N   0  0  0  0  0  0  0  0  0  0  0  0
    3.7574   -2.2205   -1.4290 N   0  0  0  0  0  0  0  0  0  0  0  0
    3.9895   -2.0392    0.8311 N   0  0  0  0  0  0  0  0  0  0  0  0
    2.3973    1.9562    0.4384 C   0  0  0  0  0  0  0  0  0  0  0  0
    1.0109    1.8844   -0.1933 C   0  0  0  0  0  0  0  0  0  0  0  0
   -1.7528   -0.1834    0.2276 C   0  0  0  0  0  0  0  0  0  0  0  0
   -1.1735    1.0930    0.3147 C   0  0  0  0  0  0  0  0  0  0  0  0
   -3.0952   -0.3062   -0.2035 C   0  0  0  0  0  0  0  0  0  0  0  0
    2.9810    0.5820    0.7583 C   0  0  0  0  0  0  0  0  0  0  0  0
   -1.9071    2.2319   -0.0185 C   0  0  0  0  0  0  0  0  0  0  0  0
   -1.0292   -1.3406    0.5588 C   0  0  0  0  0  0  0  0  0  0  0  0
   -3.8187    0.8509   -0.5349 C   0  0  0  0  0  0  0  0  0  0  0  0
   -3.6744   -1.5826   -0.2907 C   0  0  0  0  0  0  0  0  0  0  0  0
   -3.2272    2.1112   -0.4425 C   0  0  0  0  0  0  0  0  0  0  0  0
   -1.6207   -2.6008    0.4664 C   0  0  0  0  0  0  0  0  0  0  0  0
   -2.9408   -2.7216    0.0424 C   0  0  0  0  0  0  0  0  0  0  0  0
    3.5955   -1.4111   -0.3293 C   0  0  0  0  0  0  0  0  0  0  0  0
  1  7  1  0
  1  9  1  0
  2  6  1  0
  3 11  1  0
  3 19  2  3
  4 19  1  0
  5 19  1  0
  6  7  1  0
  6 11  1  0
  8  9  2  0
  8 10  1  0
  8 13  1  0
  9 12  1  0
 10 14  2  0
 10 15  1  0
 12 16  2  0
 13 17  2  0
 14 16  1  0
 15 18  2  0
 17 18  1  0
M  END
>  <PUBCHEM_COMPOUND_CID>  (1) 
44456

>  <PUBCHEM_CONFORMER_RMSD>  (1) 
0.8

>  <PUBCHEM_CONFORMER_DIVERSEORDER>  (1) 
2
89
144
88
24
139
83
127
110
121
61
82
66
73
143
87
35
133
74
113
85
70
141
107
9
69
131
21
49
52
136
75
80
90
11
108
120
91
39
54
48
76
68
114
98
14
122
129
84
125
22
132
94
8
32
10
65
99
20
38
77
17
93
100
29
86
126
30
146
67
119
7
111
64
23
78
58
145
142
1
45
16
97
109
62
13
37
135
123
4
43
55
3
60
40
112
130
92
44
128
6
72
101
95
42
36
25
138
81
124
96
115
137
116
5
33
59
18
28
56
41
57
105
102
27
63
140
53
12
71
103
19
134
51
31
106
104
26
15
34
46
47
50
79
117
118

>  <PUBCHEM_MMFF94_PARTIAL_CHARGES>  (1) 
29
1 -0.36
11 0.25
12 -0.15
13 -0.15
14 -0.15
15 -0.15
16 -0.15
17 -0.15
18 -0.15
19 0.55
2 -0.68
25 0.15
26 0.15
27 0.15
28 0.15
29 0.15
3 -0.7
30 0.15
31 0.15
32 0.4
33 0.4
34 0.4
35 0.4
36 0.4
4 -0.85
5 -0.85
6 0.28
7 0.28
9 0.08

>  <PUBCHEM_EFFECTIVE_ROTOR_COUNT>  (1) 
5

>  <PUBCHEM_PHARMACOPHORE_FEATURES>  (1) 
8
1 1 acceptor
1 2 acceptor
1 2 donor
1 4 donor
1 5 donor
4 3 4 5 19 cation
6 8 10 13 15 17 18 rings
6 8 9 10 12 14 16 rings

>  <PUBCHEM_HEAVY_ATOM_COUNT>  (1) 
19

>  <PUBCHEM_ATOM_DEF_STEREO_COUNT>  (1) 
0

>  <PUBCHEM_ATOM_UDEF_STEREO_COUNT>  (1) 
1

>  <PUBCHEM_BOND_DEF_STEREO_COUNT>  (1) 
0

>  <PUBCHEM_BOND_UDEF_STEREO_COUNT>  (1) 
0

>  <PUBCHEM_ISOTOPIC_ATOM_COUNT>  (1) 
0

>  <PUBCHEM_COMPONENT_COUNT>  (1) 
1

>  <PUBCHEM_CACTVS_TAUTO_COUNT>  (1) 
2

>  <PUBCHEM_CONFORMER_ID>  (1) 
0000ADA800000002

>  <PUBCHEM_MMFF94_ENERGY>  (1) 
63.7522

>  <PUBCHEM_FEATURE_SELFOVERLAP>  (1) 
40.678

>  <PUBCHEM_SHAPE_FINGERPRINT>  (1) 
10616163 171 18266460004167211780
10693767 8 17984958622784559399
10764073 3 17612921082060198923
11322862 65 18335698334701620877
11458722 379 18265335006087606123
12555020 224 18265885870335184421
12633257 1 18341621351868299826
14790565 3 17691693285829499017
14866123 147 17336475142106001184
17492 89 18337388339571308738
21279426 13 18408877452644728111
21285901 2 18044920510457334999
21521239 73 18127948907421992557
221490 88 18410862096348499850
23184049 29 18410574006853108544
23559900 14 18341607114542655376
4280585 95 18265623083431325598
5309563 4 17328025876473446315
81228 2 18116994592896103401
9709674 26 18411135878701192698

>  <PUBCHEM_SHAPE_MULTIPOLES>  (1) 
364.33
8.17
3.57
0.87
4.85
0.56
0.08
2.41
1.34
0.16
0.17
0.5
0.22
0.7

>  <PUBCHEM_SHAPE_SELFOVERLAP>  (1) 
771.612

>  <PUBCHEM_SHAPE_VOLUME>  (1) 
202.9

>  <PUBCHEM_COORDINATE_TYPE>  (1) 
2
5
10

$$$$
