44468
     RDKit          3D

 23 28  0  0  1  0  0  0  0  0999 V2000
   -3.5150   -1.5954   -1.0619 O   0  0  0  0  0  0  0  0  0  0  0  0
   -4.2485    0.3811    1.9286 O   0  0  0  0  0  0  0  0  0  0  0  0
   -3.7075    1.2862   -1.5377 O   0  0  0  0  0  0  0  0  0  0  0  0
   -3.9416   -1.2615    0.2616 C   0  0  0  0  0  0  0  0  0  0  0  0
   -2.5141   -1.6424   -0.0242 C   0  0  0  0  0  0  0  0  0  0  0  0
   -4.2829    0.1703    0.5166 C   0  0  0  0  0  0  0  0  0  0  0  0
   -1.4522   -0.5563   -0.0372 C   0  0  0  0  0  0  0  0  0  0  0  0
   -3.3332    1.1670   -0.1634 C   0  0  0  0  0  0  0  0  0  0  0  0
   -1.8617    0.8004   -0.0616 C   0  0  0  0  0  0  0  0  0  0  0  0
   -0.0529   -0.8446   -0.0217 C   0  0  0  0  0  0  0  0  0  0  0  0
    0.8907    0.2183   -0.0047 C   0  0  0  0  0  0  0  0  0  0  0  0
   -0.9160    1.8341   -0.0536 C   0  0  0  0  0  0  0  0  0  0  0  0
    0.4514    1.5598   -0.0165 C   0  0  0  0  0  0  0  0  0  0  0  0
    2.2883   -0.0468    0.0205 C   0  0  0  0  0  0  0  0  0  0  0  0
    0.4600   -2.1583   -0.0274 C   0  0  0  0  0  0  0  0  0  0  0  0
    2.7577   -1.3780    0.0235 C   0  0  0  0  0  0  0  0  0  0  0  0
    3.2212    1.0186    0.0404 C   0  0  0  0  0  0  0  0  0  0  0  0
    1.3871    2.6031    0.0012 C   0  0  0  0  0  0  0  0  0  0  0  0
    1.8322   -2.4217   -0.0031 C   0  0  0  0  0  0  0  0  0  0  0  0
    2.7546    2.3365    0.0312 C   0  0  0  0  0  0  0  0  0  0  0  0
    4.1376   -1.6304    0.0499 C   0  0  0  0  0  0  0  0  0  0  0  0
    4.5952    0.7382    0.0671 C   0  0  0  0  0  0  0  0  0  0  0  0
    5.0495   -0.5782    0.0723 C   0  0  0  0  0  0  0  0  0  0  0  0
  1  4  1  0
  1  5  1  0
  2  6  1  0
  3  8  1  0
  4  5  1  0
  4  6  1  0
  5  7  1  0
  6  8  1  0
  7  9  2  0
  7 10  1  0
  8  9  1  0
  9 12  1  0
 10 11  2  0
 10 15  1  0
 11 13  1  0
 11 14  1  0
 12 13  2  0
 13 18  1  0
 14 16  2  0
 14 17  1  0
 15 19  2  0
 16 19  1  0
 16 21  1  0
 17 20  1  0
 17 22  2  0
 18 20  2  0
 21 23  2  0
 22 23  1  0
M  END
>  <PUBCHEM_COMPOUND_CID>  (1) 
44468

>  <PUBCHEM_CONFORMER_RMSD>  (1) 
0.6

>  <PUBCHEM_CONFORMER_DIVERSEORDER>  (1) 
1
2

>  <PUBCHEM_MMFF94_PARTIAL_CHARGES>  (1) 
29
1 -0.3
12 -0.15
15 -0.15
18 -0.15
19 -0.15
2 -0.68
20 -0.15
21 -0.15
22 -0.15
23 -0.15
24 0.1
25 0.1
28 0.15
29 0.4
3 -0.68
30 0.15
31 0.4
32 0.15
33 0.15
34 0.15
35 0.15
36 0.15
37 0.15
4 -0.05
5 0.08
6 0.38
7 -0.03
8 0.42
9 -0.14

>  <PUBCHEM_EFFECTIVE_ROTOR_COUNT>  (1) 
0.6

>  <PUBCHEM_PHARMACOPHORE_FEATURES>  (1) 
10
1 1 acceptor
1 2 acceptor
1 2 donor
1 3 acceptor
1 3 donor
6 10 11 14 15 16 19 rings
6 11 13 14 17 18 20 rings
6 14 16 17 21 22 23 rings
6 7 9 10 11 12 13 rings
7 1 4 5 6 7 8 9 rings

>  <PUBCHEM_HEAVY_ATOM_COUNT>  (1) 
23

>  <PUBCHEM_ATOM_DEF_STEREO_COUNT>  (1) 
4

>  <PUBCHEM_ATOM_UDEF_STEREO_COUNT>  (1) 
0

>  <PUBCHEM_BOND_DEF_STEREO_COUNT>  (1) 
0

>  <PUBCHEM_BOND_UDEF_STEREO_COUNT>  (1) 
0

>  <PUBCHEM_ISOTOPIC_ATOM_COUNT>  (1) 
0

>  <PUBCHEM_COMPONENT_COUNT>  (1) 
1

>  <PUBCHEM_CACTVS_TAUTO_COUNT>  (1) 
1

>  <PUBCHEM_CONFORMER_ID>  (1) 
0000ADB400000001

>  <PUBCHEM_MMFF94_ENERGY>  (1) 
75.4996

>  <PUBCHEM_FEATURE_SELFOVERLAP>  (1) 
50.886

>  <PUBCHEM_SHAPE_FINGERPRINT>  (1) 
10062212 137 18272083933076269943
10616163 171 18412826910410416703
10675989 125 16461622232951816452
10906281 52 18338252556501154352
10967382 1 18338515365101649140
11132069 177 18410284805219728392
11578080 2 16879899739079767614
12236239 1 17775566429656223081
12403259 226 18336820991497185501
12553582 1 18338796710934052274
13140716 1 18340210785834679857
13224815 77 18412261744195672851
13583140 156 17458338611712096081
138480 1 18410574019997220236
13862211 1 18410006624905303618
13944108 23 16170000971741124869
14223421 5 18335420222420682083
14790565 3 18193565686535190164
15081414 286 18341339924843331948
15196674 1 18410572894672843662
15209289 33 18409731789341260843
15230672 131 13362862960784058139
15442244 35 18412265012634130192
15536298 74 18343020016901094112
15788980 27 18113617876195136504
1601671 61 18413110546156317930
16945 1 18339924792510168981
17492 89 18412262869446294031
1813 80 17458067066552282380
18186145 218 18342461456140537788
19591789 44 18338797947837329654
200 152 18130780179374287719
20028762 73 18201996676650202798
20691752 17 18040428927668267346
20739085 24 18262254294744952848
21267235 1 18411145744125416831
21421861 104 17898005733659101490
221490 88 18335987566115143306
2334 1 18338514260815058172
23402539 116 18341603816092103198
23559900 14 18339636738350630970
2748010 2 18337386140515813516
335352 9 18338796706459672373
34934 24 18337665300637000823
350125 39 18410858785055367089
3680242 22 18262799549844221170
4214541 1 18410573976825345117
5104073 3 18412262865245454554
9709674 26 18409733984170074498
9981440 41 17331952236780418968

>  <PUBCHEM_SHAPE_MULTIPOLES>  (1) 
455.72
9.18
2.66
0.85
0.58
0.18
-0.08
-0.89
-0.69
-1.04
0.17
0.97
0.09
0.02

>  <PUBCHEM_SHAPE_SELFOVERLAP>  (1) 
1064.218

>  <PUBCHEM_SHAPE_VOLUME>  (1) 
231.9

>  <PUBCHEM_COORDINATE_TYPE>  (1) 
2
5
10

$$$$
