44476
     RDKit          3D

 32 35  0  0  1  0  0  0  0  0999 V2000
   -7.9660    2.6316   -0.5853 F   0  0  0  0  0  0  0  0  0  0  0  0
    8.1590   -1.9150   -1.2563 F   0  0  0  0  0  0  0  0  0  0  0  0
   -2.6626   -0.4324    0.4978 O   0  0  0  0  0  0  0  0  0  0  0  0
   -3.8105   -2.0048   -0.8727 O   0  0  0  0  0  0  0  0  0  0  0  0
    4.7128    3.2128   -0.1654 O   0  0  0  0  0  0  0  0  0  0  0  0
    0.4713    0.8252    1.4174 N   0  0  0  0  0  0  0  0  0  0  0  0
   -1.4912   -1.2596    0.6562 C   0  0  0  0  0  0  0  0  0  0  0  0
   -1.9063   -2.7432    0.4344 C   0  0  0  0  0  0  0  0  0  0  0  0
   -0.3596   -0.7731   -0.2766 C   0  0  0  0  0  0  0  0  0  0  0  0
   -1.0221   -1.0275    2.1104 C   0  0  0  0  0  0  0  0  0  0  0  0
    0.0398    0.6772    0.0219 C   0  0  0  0  0  0  0  0  0  0  0  0
   -0.5883    0.4253    2.3510 C   0  0  0  0  0  0  0  0  0  0  0  0
   -2.6994   -2.8965   -0.8698 C   0  0  0  0  0  0  0  0  0  0  0  0
   -0.7595   -3.7531    0.4671 C   0  0  0  0  0  0  0  0  0  0  0  0
   -3.3811   -0.6531   -0.7159 C   0  0  0  0  0  0  0  0  0  0  0  0
    0.8957    2.1998    1.6806 C   0  0  0  0  0  0  0  0  0  0  0  0
   -1.2730   -5.1749    0.3546 C   0  0  0  0  0  0  0  0  0  0  0  0
    2.0768    2.5703    0.7812 C   0  0  0  0  0  0  0  0  0  0  0  0
   -4.6080    0.2267   -0.6804 C   0  0  0  0  0  0  0  0  0  0  0  0
    3.2860    1.6579    1.0055 C   0  0  0  0  0  0  0  0  0  0  0  0
   -4.5422    1.5389   -1.1519 C   0  0  0  0  0  0  0  0  0  0  0  0
   -5.8109   -0.2711   -0.1765 C   0  0  0  0  0  0  0  0  0  0  0  0
    4.5021    2.0524    0.1795 C   0  0  0  0  0  0  0  0  0  0  0  0
   -5.6759    2.3509   -1.1196 C   0  0  0  0  0  0  0  0  0  0  0  0
   -6.9447    0.5409   -0.1443 C   0  0  0  0  0  0  0  0  0  0  0  0
   -6.8772    1.8519   -0.6158 C   0  0  0  0  0  0  0  0  0  0  0  0
    5.4792    0.9936   -0.2034 C   0  0  0  0  0  0  0  0  0  0  0  0
    5.6453   -0.0865    0.6344 C   0  0  0  0  0  0  0  0  0  0  0  0
    6.1786    1.1341   -1.3814 C   0  0  0  0  0  0  0  0  0  0  0  0
    6.5585   -1.0779    0.2755 C   0  0  0  0  0  0  0  0  0  0  0  0
    7.0916    0.1425   -1.7402 C   0  0  0  0  0  0  0  0  0  0  0  0
    7.2817   -0.9635   -0.9118 C   0  0  0  0  0  0  0  0  0  0  0  0
  1 26  1  0
  2 32  1  0
  3  7  1  0
  3 15  1  0
  4 13  1  0
  4 15  1  0
  5 23  2  0
  6 11  1  0
  6 12  1  0
  6 16  1  0
  7  8  1  0
  7  9  1  0
  7 10  1  0
  8 13  1  0
  8 14  1  0
  9 11  1  0
 10 12  1  0
 14 17  1  0
 15 19  1  0
 16 18  1  0
 18 20  1  0
 19 21  2  0
 19 22  1  0
 20 23  1  0
 21 24  1  0
 22 25  2  0
 23 27  1  0
 24 26  2  0
 25 26  1  0
 27 28  2  0
 27 29  1  0
 28 30  1  0
 29 31  2  0
 30 32  2  0
 31 32  1  0
M  END
>  <PUBCHEM_COMPOUND_CID>  (1) 
44476

>  <PUBCHEM_CONFORMER_RMSD>  (1) 
1

>  <PUBCHEM_CONFORMER_DIVERSEORDER>  (1) 
1
336
299
77
91
279
298
233
215
41
159
39
115
145
149
195
73
284
37
63
324
103
338
309
214
19
164
120
169
74
224
126
133
21
156
242
272
285
58
24
332
318
217
53
259
239
15
294
146
110
113
255
343
307
348
327
249
36
170
18
89
108
33
100
95
295
143
109
165
326
151
344
3
311
287
46
16
98
158
310
175
88
150
280
289
262
123
104
187
246
225
317
128
202
106
209
206
160
180
286
248
171
10
137
306
308
50
62
268
330
218
207
28
131
278
163
67
346
144
107
154
179
276
94
155
253
140
258
210
124
167
254
43
27
80
22
216
222
301
121
314
61
11
66
132
339
166
71
201
52
153
184
329
282
313
40
152
269
316
211
97
172
290
334
189
273
234
14
101
125
31
274
333
96
141
191
296
231
13
85
30
70
188
335
35
78
340
302
205
199
72
240
26
127
60
331
111
47
243
292
8
271
252
256
32
288
122
38
281
212
86
168
236
277
139
341
192
92
44
75
54
342
200
25
7
328
250
261
147
264
266
232
265
173
230
105
161
130
81
55
87
79
263
257
183
315
69
208
17
226
176
204
267
90
190
59
174
221
5
12
138
213
178
112
84
51
181
247
203
245
64
42
185
186
251
223
65
260
136
117
182
99
148
135
238
345
325
322
227
297
116
197
198
291
283
275
119
82
6
323
241
45
56
49
229
68
319
305
83
300
312
57
118
23
93
270
303
235
34
320
194
142
129
134
244
293
157
114
162
228
196
177
20
337
48
102
193
237
2
9
4
220
304
347
321
29
76
219

>  <PUBCHEM_MMFF94_PARTIAL_CHARGES>  (1) 
34
1 -0.19
11 0.27
12 0.27
13 0.28
15 0.7
16 0.27
19 -0.14
2 -0.19
20 0.06
21 -0.15
22 -0.15
23 0.42
24 -0.15
25 -0.15
26 0.19
27 0.09
28 -0.15
29 -0.15
3 -0.56
30 -0.15
31 -0.15
32 0.19
4 -0.56
5 -0.57
56 0.15
57 0.15
58 0.15
59 0.15
6 -0.81
60 0.15
61 0.15
62 0.15
63 0.15
7 0.28

>  <PUBCHEM_EFFECTIVE_ROTOR_COUNT>  (1) 
9

>  <PUBCHEM_PHARMACOPHORE_FEATURES>  (1) 
9
1 17 hydrophobe
1 3 acceptor
1 4 acceptor
1 5 acceptor
1 6 cation
6 19 21 22 24 25 26 rings
6 27 28 29 30 31 32 rings
6 3 4 7 8 13 15 rings
6 6 7 9 10 11 12 rings

>  <PUBCHEM_HEAVY_ATOM_COUNT>  (1) 
32

>  <PUBCHEM_ATOM_DEF_STEREO_COUNT>  (1) 
0

>  <PUBCHEM_ATOM_UDEF_STEREO_COUNT>  (1) 
2

>  <PUBCHEM_BOND_DEF_STEREO_COUNT>  (1) 
0

>  <PUBCHEM_BOND_UDEF_STEREO_COUNT>  (1) 
0

>  <PUBCHEM_ISOTOPIC_ATOM_COUNT>  (1) 
0

>  <PUBCHEM_COMPONENT_COUNT>  (1) 
1

>  <PUBCHEM_CACTVS_TAUTO_COUNT>  (1) 
2

>  <PUBCHEM_CONFORMER_ID>  (1) 
0000ADBC00000001

>  <PUBCHEM_MMFF94_ENERGY>  (1) 
76.214

>  <PUBCHEM_FEATURE_SELFOVERLAP>  (1) 
45.709

>  <PUBCHEM_SHAPE_FINGERPRINT>  (1) 
10 15 8358254839666216900
10165383 225 18410573951878532789
10369192 42 14201399391592920978
10483366 6 18341894047979778681
10674148 151 17894910720613272648
11135609 201 11242259588985160804
11200772 48 18408044030618890082
11273773 46 18342743983832927942
11796584 16 18338794637161025048
11991303 11 18260548965448394251
12977781 61 15695434594233671251
13782708 43 17557982016367869335
13914758 101 16486980570053698577
14068700 675 12535628280195426195
14117953 113 18130508544521411918
14664723 55 18408603631205650733
14840074 17 15574708101576244437
14856354 85 16732987557121878953
14950920 106 11022735426462499604
15052358 14 18413386540296056936
15160629 57 18193263110115012139
15183329 4 18342459231390118328
15188451 53 16200435741665687872
15230672 131 18335416855441356410
15274700 21 17604724411353712251
15392192 104 14634874132930271049
15475509 8 17967533471685192228
15684389 69 11242262861048847673
16628084 112 17971184838231593650
18393751 57 8358253727154032760
19301676 85 18270972237191628990
19309040 13 15794017876933508350
19958102 18 18338222873048651228
20567600 70 10087630538325099525
21223535 225 17131561540230518537
21279426 13 18271803557674445136
21307412 95 18200887235679770230
21315764 119 18408326601292133772
21365058 27 15719395014397768313
21458453 9 8358248259238236972
22440779 20 17027149926611137859
23559900 14 17987792046409325656
23572383 38 18059576944974513002
249057 3 18409165511299842468
3004659 81 18410291437409025104
3610482 184 17822578333712931892
3729539 64 18340768148225955714
38570 142 17894345571151130633
4058900 60 18262800666435725139
4149490 64 13182154363692676925
4394409 98 18410859845881141318
44062 13 18268147737505108602
444735 79 8862939481071161140
50009960 94 10446768419606099165
5265222 85 18335984263089983879
563151 40 17676486172533865907
6004065 56 10231458749418398333
6126387 218 18341040875208625728
6376802 90 18051682536885319968
6523845 18 12179838361263742536
6697151 62 17060052688019598328
6698420 124 18202009841515346529
9689198 14 16298389032806894909

>  <PUBCHEM_SHAPE_MULTIPOLES>  (1) 
621.41
21.46
4.35
1.59
15.63
4.65
-0.52
-9.29
11.95
-2.79
-0.18
0.86
-0.28
1.85

>  <PUBCHEM_SHAPE_SELFOVERLAP>  (1) 
1320.823

>  <PUBCHEM_SHAPE_VOLUME>  (1) 
346

>  <PUBCHEM_COORDINATE_TYPE>  (1) 
2
5
10

$$$$
