4447
     RDKit          3D

 29 31  0  0  0  0  0  0  0  0999 V2000
   -1.7601   -5.7263   -1.2740 O   0  0  0  0  0  0  0  0  0  0  0  0
   -2.9762   -3.8498   -1.6958 O   0  0  0  0  0  0  0  0  0  0  0  0
   -0.3376   -0.0739   -0.0111 N   0  0  0  0  0  0  0  0  0  0  0  0
    1.0171   -1.9197    0.4297 N   0  0  0  0  0  0  0  0  0  0  0  0
   -1.0678   -2.2618   -0.6218 N   0  0  0  0  0  0  0  0  0  0  0  0
    7.1148    1.0677    0.5290 N   0  0  0  0  0  0  0  0  0  0  0  0
   -1.4786    0.7135   -0.4218 C   0  0  0  0  0  0  0  0  0  0  0  0
   -1.0571    2.0823   -0.9265 C   0  0  0  0  0  0  0  0  0  0  0  0
   -2.5231    0.7961    0.6773 C   0  0  0  0  0  0  0  0  0  0  0  0
   -0.7735    2.2439   -2.2689 C   0  0  0  0  0  0  0  0  0  0  0  0
   -2.1149    0.7404    1.9960 C   0  0  0  0  0  0  0  0  0  0  0  0
   -0.9682    3.1293   -0.0294 C   0  0  0  0  0  0  0  0  0  0  0  0
   -3.8540    0.9243    0.3290 C   0  0  0  0  0  0  0  0  0  0  0  0
   -0.1814   -1.4571   -0.1064 C   0  0  0  0  0  0  0  0  0  0  0  0
   -0.3861    3.5013   -2.7322 C   0  0  0  0  0  0  0  0  0  0  0  0
   -3.0746    0.8160    3.0054 C   0  0  0  0  0  0  0  0  0  0  0  0
   -0.5809    4.3866   -0.4927 C   0  0  0  0  0  0  0  0  0  0  0  0
   -4.8136    1.0000    1.3385 C   0  0  0  0  0  0  0  0  0  0  0  0
   -0.2898    4.5726   -1.8440 C   0  0  0  0  0  0  0  0  0  0  0  0
   -4.4240    0.9458    2.6765 C   0  0  0  0  0  0  0  0  0  0  0  0
    2.2856   -1.2981    0.4504 C   0  0  0  0  0  0  0  0  0  0  0  0
    3.1909   -1.5998    1.4662 C   0  0  0  0  0  0  0  0  0  0  0  0
    2.6284   -0.3851   -0.5452 C   0  0  0  0  0  0  0  0  0  0  0  0
   -0.7912   -3.6906   -0.6352 C   0  0  0  0  0  0  0  0  0  0  0  0
    4.4434   -0.9861    1.4866 C   0  0  0  0  0  0  0  0  0  0  0  0
    3.8810    0.2285   -0.5247 C   0  0  0  0  0  0  0  0  0  0  0  0
    4.7884   -0.0721    0.4911 C   0  0  0  0  0  0  0  0  0  0  0  0
   -1.9684   -4.3845   -1.2581 C   0  0  0  0  0  0  0  0  0  0  0  0
    6.0715    0.5565    0.5120 C   0  0  0  0  0  0  0  0  0  0  0  0
  1 28  1  0
  2 28  2  0
  3  7  1  0
  3 14  1  0
  4 14  1  0
  4 21  1  0
  5 14  2  0
  5 24  1  0
  6 29  3  0
  7  8  1  0
  7  9  1  0
  8 10  2  0
  8 12  1  0
  9 11  2  0
  9 13  1  0
 10 15  1  0
 11 16  1  0
 12 17  2  0
 13 18  2  0
 15 19  2  0
 16 20  2  0
 17 19  1  0
 18 20  1  0
 21 22  2  0
 21 23  1  0
 22 25  1  0
 23 26  2  0
 24 28  1  0
 25 27  2  0
 26 27  1  0
 27 29  1  0
M  END
>  <PUBCHEM_COMPOUND_CID>  (1) 
4447

>  <PUBCHEM_CONFORMER_RMSD>  (1) 
1

>  <PUBCHEM_CONFORMER_DIVERSEORDER>  (1) 
1
50
62
59
72
39
54
37
64
52
89
79
17
56
11
24
88
32
87
10
57
34
7
81
9
73
31
5
65
61
48
25
68
47
82
83
30
44
70
55
40
20
2
42
22
60
19
41
15
76
45
58
86
33
16
67
85
6
78
23
38
80
43
71
53
27
51
66
77
35
46
18
14
4
69
29
84
36
49
75
13
8
12
63
21
28
3
74
26

>  <PUBCHEM_MMFF94_PARTIAL_CHARGES>  (1) 
46
1 -0.65
10 -0.15
11 -0.15
12 -0.15
13 -0.15
14 0.55
15 -0.15
16 -0.15
17 -0.15
18 -0.15
19 -0.15
2 -0.57
20 -0.15
21 0.1
22 -0.15
23 -0.15
24 0.31
25 -0.15
26 -0.15
27 0.07
28 0.66
29 0.48
3 -0.82
31 0.4
32 0.15
33 0.15
34 0.15
35 0.15
36 0.15
37 0.15
38 0.15
39 0.15
4 -0.55
40 0.4
41 0.15
42 0.15
43 0.15
44 0.15
47 0.15
48 0.15
49 0.5
5 -0.7
6 -0.56
7 0.66
8 -0.14
9 -0.14

>  <PUBCHEM_EFFECTIVE_ROTOR_COUNT>  (1) 
8

>  <PUBCHEM_PHARMACOPHORE_FEATURES>  (1) 
10
1 1 acceptor
1 2 acceptor
1 3 donor
1 4 donor
1 6 acceptor
3 1 2 28 anion
4 3 4 5 14 cation
6 21 22 23 25 26 27 rings
6 8 10 12 15 17 19 rings
6 9 11 13 16 18 20 rings

>  <PUBCHEM_HEAVY_ATOM_COUNT>  (1) 
29

>  <PUBCHEM_ATOM_DEF_STEREO_COUNT>  (1) 
0

>  <PUBCHEM_ATOM_UDEF_STEREO_COUNT>  (1) 
0

>  <PUBCHEM_BOND_DEF_STEREO_COUNT>  (1) 
0

>  <PUBCHEM_BOND_UDEF_STEREO_COUNT>  (1) 
0

>  <PUBCHEM_ISOTOPIC_ATOM_COUNT>  (1) 
0

>  <PUBCHEM_COMPONENT_COUNT>  (1) 
1

>  <PUBCHEM_CACTVS_TAUTO_COUNT>  (1) 
3

>  <PUBCHEM_CONFORMER_ID>  (1) 
0000115F00000001

>  <PUBCHEM_MMFF94_ENERGY>  (1) 
91.0303

>  <PUBCHEM_FEATURE_SELFOVERLAP>  (1) 
50.846

>  <PUBCHEM_SHAPE_FINGERPRINT>  (1) 
10670039 82 17824284622195381308
107951 10 14836118832134729765
13140716 1 18116441517130374592
133893 2 17246112204210836317
140371 6 17616532196021081842
14840074 17 18335435550990474800
14856354 85 16589727634690414386
15775530 1 17398685501721386125
15840311 113 17261897455614751193
17980427 23 18336847350491891547
18365409 1 18060702823633554719
18393751 57 18340214007054870971
1979834 28 18050879661785099625
20642791 239 17972288953980428295
21304303 172 17986671687079574215
21927370 108 18116995700939870946
229495 10 17552346684478778509
25019877 29 17846789502753317895
255183 313 18412833481668344258
3380486 145 18042678579946376060
376196 1 17032442597925644820
4015057 19 16609409789979721927
469060 322 18260820531555576051
5080951 261 17843370022102604350
59755656 520 17988365871357310882
6004065 56 18187093845519854609
621550 34 18051706442820767667
7399639 24 18121506756418872659
9925002 15 18266749167151167861
9981440 41 17617625814457816752

>  <PUBCHEM_SHAPE_MULTIPOLES>  (1) 
565.14
9.85
6.35
2.46
16.64
4.53
-0.49
-2.36
-7.47
-4.69
6.8
-2.76
-0.63
-1.31

>  <PUBCHEM_SHAPE_SELFOVERLAP>  (1) 
1215.073

>  <PUBCHEM_SHAPE_VOLUME>  (1) 
306.8

>  <PUBCHEM_COORDINATE_TYPE>  (1) 
2
5
10

$$$$
