44477
     RDKit          3D

 15 16  0  0  0  0  0  0  0  0999 V2000
   -3.5975   -2.2258    0.3711 Cl  0  0  0  0  0  0  0  0  0  0  0  0
   -4.6491    0.5928   -0.0899 N   0  0  0  0  0  0  0  0  0  0  0  0
    5.1638   -0.2451    0.0305 N   0  0  0  0  0  0  0  0  0  0  0  0
   -0.4639    0.2150   -0.0340 C   0  0  0  0  0  0  0  0  0  0  0  0
    0.9778    0.0969   -0.0166 C   0  0  0  0  0  0  0  0  0  0  0  0
   -1.2595   -0.9156    0.1527 C   0  0  0  0  0  0  0  0  0  0  0  0
   -1.0588    1.4602   -0.2377 C   0  0  0  0  0  0  0  0  0  0  0  0
    1.7599    1.1666    0.4187 C   0  0  0  0  0  0  0  0  0  0  0  0
    1.5857   -1.0864   -0.4363 C   0  0  0  0  0  0  0  0  0  0  0  0
   -3.2441    0.4444   -0.0678 C   0  0  0  0  0  0  0  0  0  0  0  0
   -2.6495   -0.8010    0.1357 C   0  0  0  0  0  0  0  0  0  0  0  0
   -2.4487    1.5749   -0.2547 C   0  0  0  0  0  0  0  0  0  0  0  0
    3.7581   -0.1301    0.0147 C   0  0  0  0  0  0  0  0  0  0  0  0
    3.1500    1.0531    0.4343 C   0  0  0  0  0  0  0  0  0  0  0  0
    2.9759   -1.1999   -0.4206 C   0  0  0  0  0  0  0  0  0  0  0  0
  1 11  1  0
  2 10  1  0
  3 13  1  0
  4  5  1  0
  4  6  2  0
  4  7  1  0
  5  8  2  0
  5  9  1  0
  6 11  1  0
  7 12  2  0
  8 14  1  0
  9 15  2  0
 10 11  2  0
 10 12  1  0
 13 14  2  0
 13 15  1  0
M  END
>  <PUBCHEM_COMPOUND_CID>  (1) 
44477

>  <PUBCHEM_CONFORMER_RMSD>  (1) 
0.4

>  <PUBCHEM_CONFORMER_DIVERSEORDER>  (1) 
1
2

>  <PUBCHEM_MMFF94_PARTIAL_CHARGES>  (1) 
24
1 -0.18
10 0.1
11 0.18
12 -0.15
13 0.1
14 -0.15
15 -0.15
16 0.15
17 0.15
18 0.15
19 0.15
2 -0.9
20 0.15
21 0.15
22 0.15
23 0.4
24 0.4
25 0.4
26 0.4
3 -0.9
6 -0.15
7 -0.15
8 -0.15
9 -0.15

>  <PUBCHEM_EFFECTIVE_ROTOR_COUNT>  (1) 
1

>  <PUBCHEM_PHARMACOPHORE_FEATURES>  (1) 
6
1 2 cation
1 2 donor
1 3 cation
1 3 donor
6 4 6 7 10 11 12 rings
6 5 8 9 13 14 15 rings

>  <PUBCHEM_HEAVY_ATOM_COUNT>  (1) 
15

>  <PUBCHEM_ATOM_DEF_STEREO_COUNT>  (1) 
0

>  <PUBCHEM_ATOM_UDEF_STEREO_COUNT>  (1) 
0

>  <PUBCHEM_BOND_DEF_STEREO_COUNT>  (1) 
0

>  <PUBCHEM_BOND_UDEF_STEREO_COUNT>  (1) 
0

>  <PUBCHEM_ISOTOPIC_ATOM_COUNT>  (1) 
0

>  <PUBCHEM_COMPONENT_COUNT>  (1) 
1

>  <PUBCHEM_CACTVS_TAUTO_COUNT>  (1) 
1

>  <PUBCHEM_CONFORMER_ID>  (1) 
0000ADBD00000001

>  <PUBCHEM_MMFF94_ENERGY>  (1) 
67.8093

>  <PUBCHEM_FEATURE_SELFOVERLAP>  (1) 
30.446

>  <PUBCHEM_SHAPE_FINGERPRINT>  (1) 
10608611 8 18412539903489617328
10616163 171 18410294730747393631
11132069 177 18408318908515349329
11471102 20 18273493460023158092
11615757 297 17275105050208448664
12032990 46 18411140276594736042
12236239 1 16660646241222165716
12500047 106 18262512598625822157
13214271 11 18413386561992251287
13296908 3 18410576218756186059
13760787 19 18113618971749608586
14144814 61 18411981321533325192
14252887 29 17275112713020980926
15196674 1 18410855511826128856
15219456 202 18343018917009664776
15309172 13 17132119056232099711
15375358 24 18341612598862295583
15653759 3 18408323293539574680
16945 1 18263075540084228225
17804303 29 18411703209368392044
17834074 16 18412829079247477846
18175812 5 18413388760735964405
18186145 218 15647334194701977205
18522853 276 18272931600917772016
19141452 34 18271250525481368939
1986462 14 18335139799505185287
200 152 17561077003912665357
20201158 50 18343021064572518430
20279233 1 18341617001056035423
20510252 161 18270117886396286313
20528008 55 18413103957407506005
20645477 56 18334294219809463229
20645477 70 17703228395512776494
21267235 1 18410864260526902206
221490 88 18338803415615332762
22485316 2 18334574633438478866
23175994 123 17418096507505037480
23402539 116 18187358848373714542
23402655 69 18200868466261405437
23557571 272 18412552028361271847
23559900 14 18339641140549691086
26918003 58 18343581836919381706
2748010 2 18412823594595151637
2871803 45 18335695091822509783
3312278 4 18412546491879330547
3545911 37 18411138017473638813
4214541 1 18410293592543597761
474 4 16227469567085869164
5104073 3 18411980295110001784
6333449 129 18410571782197205759
69090 78 18343014485046631007
7364860 26 18194680371934139842
77779 3 18410294713820101892
8809292 202 18335423486448231691
9709674 26 18342461396016660407

>  <PUBCHEM_SHAPE_MULTIPOLES>  (1) 
300.6
8.6
1.78
0.68
2.54
0.32
-0.01
1.24
-0.27
-1.32
-0.04
0.05
0.02
0.66

>  <PUBCHEM_SHAPE_SELFOVERLAP>  (1) 
645.44

>  <PUBCHEM_SHAPE_VOLUME>  (1) 
166.8

>  <PUBCHEM_COORDINATE_TYPE>  (1) 
2
5
10

$$$$
