44484
     RDKit          3D

 19 20  0  0  0  0  0  0  0  0999 V2000
   -7.1382    0.0866    0.0575 F   0  0  0  0  0  0  0  0  0  0  0  0
    5.3763    1.8064    0.3831 O   0  0  0  0  0  0  0  0  0  0  0  0
    4.9029   -0.4414   -0.1475 N   0  0  0  0  0  0  0  0  0  0  0  0
    0.7244   -0.6353   -0.0079 C   0  0  0  0  0  0  0  0  0  0  0  0
    3.5096   -0.5058   -0.1021 C   0  0  0  0  0  0  0  0  0  0  0  0
    1.3758    0.5695    0.2557 C   0  0  0  0  0  0  0  0  0  0  0  0
    1.4655   -1.7755   -0.3186 C   0  0  0  0  0  0  0  0  0  0  0  0
    2.7683    0.6343    0.2086 C   0  0  0  0  0  0  0  0  0  0  0  0
    2.8582   -1.7108   -0.3657 C   0  0  0  0  0  0  0  0  0  0  0  0
   -0.7275   -0.7029    0.0408 C   0  0  0  0  0  0  0  0  0  0  0  0
   -3.0338    0.2881   -0.0234 C   0  0  0  0  0  0  0  0  0  0  0  0
   -1.5622    0.3592   -0.0534 C   0  0  0  0  0  0  0  0  0  0  0  0
   -3.6474   -0.8314    0.5143 C   0  0  0  0  0  0  0  0  0  0  0  0
   -3.7747    1.3415   -0.5342 C   0  0  0  0  0  0  0  0  0  0  0  0
   -5.0402   -0.8996    0.5420 C   0  0  0  0  0  0  0  0  0  0  0  0
   -5.1678    1.2733   -0.5064 C   0  0  0  0  0  0  0  0  0  0  0  0
   -5.8006    0.1528    0.0319 C   0  0  0  0  0  0  0  0  0  0  0  0
    5.7255    0.6683    0.0869 C   0  0  0  0  0  0  0  0  0  0  0  0
    7.1860    0.3228   -0.0615 C   0  0  0  0  0  0  0  0  0  0  0  0
  1 17  1  0
  2 18  2  0
  3  5  1  0
  3 18  1  0
  4  6  2  0
  4  7  1  0
  4 10  1  0
  5  8  2  0
  5  9  1  0
  6  8  1  0
  7  9  2  0
 10 12  2  0
 11 12  1  0
 11 13  2  0
 11 14  1  0
 13 15  1  0
 14 16  2  0
 15 17  2  0
 16 17  1  0
 18 19  1  0
M  END
>  <PUBCHEM_COMPOUND_CID>  (1) 
44484

>  <PUBCHEM_CONFORMER_RMSD>  (1) 
0.6

>  <PUBCHEM_CONFORMER_DIVERSEORDER>  (1) 
1
3
2
4

>  <PUBCHEM_MMFF94_PARTIAL_CHARGES>  (1) 
30
1 -0.19
10 -0.18
11 0.03
12 -0.18
13 -0.15
14 -0.15
15 -0.15
16 -0.15
17 0.19
18 0.57
19 0.06
2 -0.57
20 0.15
21 0.15
22 0.15
23 0.15
24 0.15
25 0.15
26 0.37
27 0.15
28 0.15
29 0.15
3 -0.55
30 0.15
4 0.03
5 0.12
6 -0.15
7 -0.15
8 -0.15
9 -0.15

>  <PUBCHEM_EFFECTIVE_ROTOR_COUNT>  (1) 
4

>  <PUBCHEM_PHARMACOPHORE_FEATURES>  (1) 
4
1 2 acceptor
1 3 donor
6 11 13 14 15 16 17 rings
6 4 5 6 7 8 9 rings

>  <PUBCHEM_HEAVY_ATOM_COUNT>  (1) 
19

>  <PUBCHEM_ATOM_DEF_STEREO_COUNT>  (1) 
0

>  <PUBCHEM_ATOM_UDEF_STEREO_COUNT>  (1) 
0

>  <PUBCHEM_BOND_DEF_STEREO_COUNT>  (1) 
0

>  <PUBCHEM_BOND_UDEF_STEREO_COUNT>  (1) 
1

>  <PUBCHEM_ISOTOPIC_ATOM_COUNT>  (1) 
0

>  <PUBCHEM_COMPONENT_COUNT>  (1) 
1

>  <PUBCHEM_CACTVS_TAUTO_COUNT>  (1) 
2

>  <PUBCHEM_CONFORMER_ID>  (1) 
0000ADC400000001

>  <PUBCHEM_MMFF94_ENERGY>  (1) 
57.5359

>  <PUBCHEM_FEATURE_SELFOVERLAP>  (1) 
20.297

>  <PUBCHEM_SHAPE_FINGERPRINT>  (1) 
10 15 18261107517655848648
10638233 991 16343702166166443336
10835480 77 18336823083700133821
10968037 39 18410855461019672975
11287383 113 18408324393167246970
11315181 36 18334580148915036761
11719270 70 18342452604841402674
12091667 2 18334858329314065275
12236239 1 16988566779570932307
12730499 353 18342179960021728678
13073987 5 17895755089360124627
13533116 47 15338846314174842382
14123256 10 17703790319068941456
14251718 22 18408604755910984179
14251732 16 18408886269400112195
14341114 176 18410299086133693527
14933364 13 18409168818271660028
16079462 125 18187917366168890909
17844677 252 18270408178486772005
18335252 98 18410578405712555115
19489759 90 17240202132001428713
200 152 17989485191648101299
20281389 69 18260544533258383508
20645477 70 18200877244932160343
21150785 3 16487252188032842485
21641784 216 17987817245157290968
21709351 56 18337665412153072813
220451 1 16415477134593097791
22224240 67 18333728048408854898
23198884 109 15410898465571197335
23402539 116 17894628171013419119
23402655 69 18202280277624291455
23559900 14 18410006680771468809
2916195 48 18333166171880707432
300161 21 17676201351914436467
335352 9 18342178878427987542
34797466 226 17988931067156277748
3545911 37 18412826888924757755
4073 2 18040441022386337906
4214541 1 18335984173681719141
42630746 31 18273217478621063518
42788 4 18410012130419965064
4325135 7 18413386557976878495
4340502 62 17530682109117955818
5104073 3 18188214182752783707
542803 24 16630807694899682787
59682541 35 18334862766236724787
59755656 215 18411985741566473246
59755656 520 17894624885606680698
67856867 119 17895202172281891829

>  <PUBCHEM_SHAPE_MULTIPOLES>  (1) 
372.89
17.96
1.49
0.69
1.67
0.12
0
-4.81
-0.38
0.56
0.1
-0.17
0
0.93

>  <PUBCHEM_SHAPE_SELFOVERLAP>  (1) 
796.639

>  <PUBCHEM_SHAPE_VOLUME>  (1) 
206.9

>  <PUBCHEM_COORDINATE_TYPE>  (1) 
2
5
10

$$$$
