44498
     RDKit          3D

 25 27  0  0  0  0  0  0  0  0999 V2000
    0.4254    0.1453   -0.1400 O   0  0  0  0  0  0  0  0  0  0  0  0
    2.4894    2.8451   -0.8711 O   0  0  0  0  0  0  0  0  0  0  0  0
   -1.1229   -2.3162   -0.0071 O   0  0  0  0  0  0  0  0  0  0  0  0
   -3.8628   -2.0170    0.3650 O   0  0  0  0  0  0  0  0  0  0  0  0
   -4.9747    0.4953    0.5869 O   0  0  0  0  0  0  0  0  0  0  0  0
    3.1141    0.8671    0.1566 N   0  0  0  0  0  0  0  0  0  0  0  0
    4.7278   -1.4881    0.4168 N   0  0  0  0  0  0  0  0  0  0  0  0
    2.9286   -0.0352    1.2998 C   0  0  0  0  0  0  0  0  0  0  0  0
    4.4369    0.7953   -0.4637 C   0  0  0  0  0  0  0  0  0  0  0  0
    3.3597   -1.4624    0.9530 C   0  0  0  0  0  0  0  0  0  0  0  0
    4.8232   -0.6473   -0.7853 C   0  0  0  0  0  0  0  0  0  0  0  0
    2.1660    1.7909   -0.3209 C   0  0  0  0  0  0  0  0  0  0  0  0
    0.7563    1.4584   -0.1454 C   0  0  0  0  0  0  0  0  0  0  0  0
    5.1365   -2.8599    0.1175 C   0  0  0  0  0  0  0  0  0  0  0  0
   -0.3462    2.2525    0.0237 C   0  0  0  0  0  0  0  0  0  0  0  0
   -1.4517    1.3699    0.1444 C   0  0  0  0  0  0  0  0  0  0  0  0
   -0.9246    0.0870    0.0372 C   0  0  0  0  0  0  0  0  0  0  0  0
   -1.6855   -1.0787    0.1039 C   0  0  0  0  0  0  0  0  0  0  0  0
   -2.8375    1.5130    0.3321 C   0  0  0  0  0  0  0  0  0  0  0  0
   -0.3829    3.7273    0.0738 C   0  0  0  0  0  0  0  0  0  0  0  0
   -3.0611   -0.9130    0.2912 C   0  0  0  0  0  0  0  0  0  0  0  0
   -3.6292    0.3585    0.4034 C   0  0  0  0  0  0  0  0  0  0  0  0
   -0.4284   -2.6042   -1.2182 C   0  0  0  0  0  0  0  0  0  0  0  0
   -3.8772   -2.8795   -0.7684 C   0  0  0  0  0  0  0  0  0  0  0  0
   -5.7791    0.5959   -0.5852 C   0  0  0  0  0  0  0  0  0  0  0  0
  1 13  1  0
  1 17  1  0
  2 12  2  0
  3 18  1  0
  3 23  1  0
  4 21  1  0
  4 24  1  0
  5 22  1  0
  5 25  1  0
  6  8  1  0
  6  9  1  0
  6 12  1  0
  7 10  1  0
  7 11  1  0
  7 14  1  0
  8 10  1  0
  9 11  1  0
 12 13  1  0
 13 15  2  0
 15 16  1  0
 15 20  1  0
 16 17  2  0
 16 19  1  0
 17 18  1  0
 18 21  2  0
 19 22  2  0
 21 22  1  0
M  END
>  <PUBCHEM_COMPOUND_CID>  (1) 
44498

>  <PUBCHEM_CONFORMER_RMSD>  (1) 
0.8

>  <PUBCHEM_CONFORMER_DIVERSEORDER>  (1) 
1
5
14
11
12
8
17
9
7
6
10
2
3
4
13
16
15

>  <PUBCHEM_MMFF94_PARTIAL_CHARGES>  (1) 
25
1 -0.28
10 0.27
11 0.27
12 0.71
13 0.05
14 0.27
15 -0.18
17 0.14
18 0.08
19 -0.15
2 -0.57
20 0.18
21 0.08
22 0.08
23 0.28
24 0.28
25 0.28
3 -0.36
37 0.15
4 -0.36
5 -0.36
6 -0.66
7 -0.81
8 0.3
9 0.3

>  <PUBCHEM_EFFECTIVE_ROTOR_COUNT>  (1) 
6.2

>  <PUBCHEM_PHARMACOPHORE_FEATURES>  (1) 
9
1 1 acceptor
1 2 acceptor
1 3 acceptor
1 4 acceptor
1 5 acceptor
1 7 cation
5 1 13 15 16 17 rings
6 16 17 18 19 21 22 rings
6 6 7 8 9 10 11 rings

>  <PUBCHEM_HEAVY_ATOM_COUNT>  (1) 
25

>  <PUBCHEM_ATOM_DEF_STEREO_COUNT>  (1) 
0

>  <PUBCHEM_ATOM_UDEF_STEREO_COUNT>  (1) 
0

>  <PUBCHEM_BOND_DEF_STEREO_COUNT>  (1) 
0

>  <PUBCHEM_BOND_UDEF_STEREO_COUNT>  (1) 
0

>  <PUBCHEM_ISOTOPIC_ATOM_COUNT>  (1) 
0

>  <PUBCHEM_COMPONENT_COUNT>  (1) 
1

>  <PUBCHEM_CACTVS_TAUTO_COUNT>  (1) 
1

>  <PUBCHEM_CONFORMER_ID>  (1) 
0000ADD200000001

>  <PUBCHEM_MMFF94_ENERGY>  (1) 
85.2236

>  <PUBCHEM_FEATURE_SELFOVERLAP>  (1) 
45.787

>  <PUBCHEM_SHAPE_FINGERPRINT>  (1) 
10062212 137 18342174522766990919
10369192 42 17127582601044159568
10616163 171 18267308805795937230
10622 236 17914316116927166199
10906281 52 18267318542924562729
1100329 8 18409730660202744467
12107183 9 18195253217291491769
12553582 1 18408595964276492088
12788726 201 18336270024739916760
13140716 1 18412830174701534929
13862211 1 18412823556394035501
14117953 113 18269553832472441119
14866123 147 18051416162697273073
15099037 51 18408602552687771877
15196674 1 18410575123323254291
15403338 16 17605545540333458427
15420108 30 17621887487600264417
16752209 62 18264476300486400968
17349148 13 18131350800065797373
17492 89 18194401315113739619
17818456 19 18343309149704754265
1813 80 17458345243178745404
19591789 44 18411138069092607971
20291156 8 18408322202976727000
21267235 1 18335992977578595195
21857420 4 16119033625346430406
23402539 116 18273209773328590501
23559900 14 18341891934993051488
3004659 81 18113900434168263458
335352 9 18410293593208294821
34934 24 18338796852911020860
465052 167 18336274474088281427
5104073 3 18341618178151323457
56633871 153 18341336587142410603
59755656 215 18267866090808470487
6138700 20 18338235947092857675
633830 44 17168140195730777361
9709674 26 18261959668662388458
9981440 41 17111565052420252177

>  <PUBCHEM_SHAPE_MULTIPOLES>  (1) 
475.18
10.89
3.72
0.91
1.59
0.21
0
-5.29
-0.07
0.26
-0.66
0.32
-0.19
-0.91

>  <PUBCHEM_SHAPE_SELFOVERLAP>  (1) 
1013.792

>  <PUBCHEM_SHAPE_VOLUME>  (1) 
267.8

>  <PUBCHEM_COORDINATE_TYPE>  (1) 
2
5
10

$$$$
