445
     RDKit          3D

 16 16  0  0  1  0  0  0  0  0999 V2000
   -3.3537   -1.8321    1.8400 Cl  0  0  0  0  0  0  0  0  0  0  0  0
   -0.3058    2.5904    0.9778 O   0  0  0  0  0  0  0  0  0  0  0  0
    1.5874   -0.1641   -0.6174 N   0  0  0  0  0  0  0  0  0  0  0  0
    2.7285   -0.9859   -0.2011 C   0  0  0  0  0  0  0  0  0  0  0  0
    1.2861    0.8390    0.3897 C   0  0  0  0  0  0  0  0  0  0  0  0
    0.0337    1.6389   -0.0347 C   0  0  0  0  0  0  0  0  0  0  0  0
    2.5721   -2.3833   -0.8101 C   0  0  0  0  0  0  0  0  0  0  0  0
    4.0152   -0.3300   -0.7136 C   0  0  0  0  0  0  0  0  0  0  0  0
    2.7576   -1.0784    1.3290 C   0  0  0  0  0  0  0  0  0  0  0  0
    2.5213    1.7258    0.5574 C   0  0  0  0  0  0  0  0  0  0  0  0
   -1.1921    0.7784   -0.2540 C   0  0  0  0  0  0  0  0  0  0  0  0
   -1.6431   -0.0286    0.7757 C   0  0  0  0  0  0  0  0  0  0  0  0
   -1.8349    0.8184   -1.4788 C   0  0  0  0  0  0  0  0  0  0  0  0
   -2.7732   -0.8210    0.5742 C   0  0  0  0  0  0  0  0  0  0  0  0
   -2.9651    0.0262   -1.6804 C   0  0  0  0  0  0  0  0  0  0  0  0
   -3.4341   -0.7936   -0.6539 C   0  0  0  0  0  0  0  0  0  0  0  0
  1 14  1  0
  2  6  1  0
  3  4  1  0
  3  5  1  0
  4  7  1  0
  4  8  1  0
  4  9  1  0
  5  6  1  0
  5 10  1  0
  6 11  1  0
 11 12  2  0
 11 13  1  0
 12 14  1  0
 13 15  2  0
 14 16  2  0
 15 16  1  0
M  END
>  <PUBCHEM_COMPOUND_CID>  (1) 
445

>  <PUBCHEM_CONFORMER_RMSD>  (1) 
0.6

>  <PUBCHEM_CONFORMER_DIVERSEORDER>  (1) 
1
7
29
3
14
16
27
20
25
18
28
11
4
26
8
17
19
13
6
12
21
9
24
23
10
5
15
2
22

>  <PUBCHEM_MMFF94_PARTIAL_CHARGES>  (1) 
18
1 -0.18
11 -0.14
12 -0.15
13 -0.15
14 0.18
15 -0.15
16 -0.15
18 0.36
2 -0.68
3 -0.9
32 0.4
33 0.15
34 0.15
35 0.15
36 0.15
4 0.27
5 0.27
6 0.42

>  <PUBCHEM_EFFECTIVE_ROTOR_COUNT>  (1) 
4

>  <PUBCHEM_PHARMACOPHORE_FEATURES>  (1) 
6
1 2 acceptor
1 2 donor
1 3 cation
1 3 donor
4 4 7 8 9 hydrophobe
6 11 12 13 14 15 16 rings

>  <PUBCHEM_HEAVY_ATOM_COUNT>  (1) 
16

>  <PUBCHEM_ATOM_DEF_STEREO_COUNT>  (1) 
0

>  <PUBCHEM_ATOM_UDEF_STEREO_COUNT>  (1) 
2

>  <PUBCHEM_BOND_DEF_STEREO_COUNT>  (1) 
0

>  <PUBCHEM_BOND_UDEF_STEREO_COUNT>  (1) 
0

>  <PUBCHEM_ISOTOPIC_ATOM_COUNT>  (1) 
0

>  <PUBCHEM_COMPONENT_COUNT>  (1) 
1

>  <PUBCHEM_CACTVS_TAUTO_COUNT>  (1) 
1

>  <PUBCHEM_CONFORMER_ID>  (1) 
000001BD00000001

>  <PUBCHEM_MMFF94_ENERGY>  (1) 
55.1566

>  <PUBCHEM_FEATURE_SELFOVERLAP>  (1) 
30.446

>  <PUBCHEM_SHAPE_FINGERPRINT>  (1) 
10618630 7 18343023250811099046
11127187 94 17822010887329593399
11137873 295 18412821361581526863
11543360 7 16805611390673139486
11582403 64 16101547993293229669
12202030 40 18114462374493075563
12363563 72 18341885251923530238
12506688 2 18336556017900643427
12553582 1 18272655627699150486
12596599 1 17346599702804275702
12707595 3 18410289224677863378
13296908 3 18335697277817919009
14957384 54 14979684238758509347
15375462 189 17989213633386964562
15635459 17 18408884053018022619
15775835 57 12324238360513789191
15906896 17 17911528592714758889
16945 1 18201430364190042364
19766037 51 18337403685399130486
20201158 50 18408879624906415646
20279233 1 18114168774549472521
20361792 2 18131625694857153101
20645477 70 18341038713995862007
20871999 31 17022622009443061735
21061003 4 18271812349530353369
21296965 12 10087634892946865697
21713013 43 17822302283243180815
21731516 1 18059296461501985246
22112679 90 16702024222492861513
22721475 48 18408323271969870503
22802520 49 18040426711771273181
23526113 38 18262498395243015657
23557571 272 17386282224454827581
23559900 14 17895178984080202560
27216 239 10807633589605745687
2748010 2 18334848454756977329
3082319 5 15719389516644306642
31174 14 18194691586246022577
4463277 69 17973453388803433355
4921388 177 17095531673226068203
7097593 13 14836130896924230142
77492 1 16845013536515918589
81228 2 18053373314869804064
90316 7 16271937003877787585

>  <PUBCHEM_SHAPE_MULTIPOLES>  (1) 
320.29
6.76
2.24
1.54
0.73
0.03
-0.02
-3.4
-0.56
0.5
0.6
-0.9
-0.27
1.4

>  <PUBCHEM_SHAPE_SELFOVERLAP>  (1) 
642.399

>  <PUBCHEM_SHAPE_VOLUME>  (1) 
191.6

>  <PUBCHEM_COORDINATE_TYPE>  (1) 
2
5
10

$$$$
