44502
     RDKit          3D

 24 25  0  0  1  0  0  0  0  0999 V2000
   -0.9240   -1.9347   -0.4915 O   0  0  0  0  0  0  0  0  0  0  0  0
   -3.1917   -3.5423   -0.3839 O   0  0  0  0  0  0  0  0  0  0  0  0
    3.5350   -1.0951    0.9643 O   0  0  0  0  0  0  0  0  0  0  0  0
   -0.9724    0.5008   -1.8247 O   0  0  0  0  0  0  0  0  0  0  0  0
    5.6749   -0.7119    1.6737 O   0  0  0  0  0  0  0  0  0  0  0  0
   -3.5867   -0.0974    0.9153 N   0  0  0  0  0  0  0  0  0  0  0  0
   -4.0381    2.3305    1.2338 C   0  0  0  0  0  0  0  0  0  0  0  0
   -4.2435    1.0793    0.3627 C   0  0  0  0  0  0  0  0  0  0  0  0
   -3.7453   -1.2451    0.0325 C   0  0  0  0  0  0  0  0  0  0  0  0
   -3.0143   -2.4821    0.5600 C   0  0  0  0  0  0  0  0  0  0  0  0
   -1.5175   -2.2586    0.7646 C   0  0  0  0  0  0  0  0  0  0  0  0
   -2.5409    2.6076    1.3949 C   0  0  0  0  0  0  0  0  0  0  0  0
   -4.7311    3.5679    0.6575 C   0  0  0  0  0  0  0  0  0  0  0  0
    0.1611   -1.1126   -0.4701 C   0  0  0  0  0  0  0  0  0  0  0  0
    2.4159    0.5806   -0.4166 C   0  0  0  0  0  0  0  0  0  0  0  0
    2.4094   -0.6494    0.2429 C   0  0  0  0  0  0  0  0  0  0  0  0
    0.1389    0.1104   -1.1385 C   0  0  0  0  0  0  0  0  0  0  0  0
    1.3016   -1.4987    0.2260 C   0  0  0  0  0  0  0  0  0  0  0  0
    1.2573    0.9513   -1.1123 C   0  0  0  0  0  0  0  0  0  0  0  0
    3.6261    1.4107   -0.3457 C   0  0  0  0  0  0  0  0  0  0  0  0
    4.6816    0.9615    0.3478 C   0  0  0  0  0  0  0  0  0  0  0  0
    3.6650    2.7386   -1.0440 C   0  0  0  0  0  0  0  0  0  0  0  0
    4.6903   -0.3338    1.0485 C   0  0  0  0  0  0  0  0  0  0  0  0
   -1.0517    0.1225   -3.1971 C   0  0  0  0  0  0  0  0  0  0  0  0
  1 11  1  0
  1 14  1  0
  2 10  1  0
  3 16  1  0
  3 23  1  0
  4 17  1  0
  4 24  1  0
  5 23  2  0
  6  8  1  0
  6  9  1  0
  7  8  1  0
  7 12  1  0
  7 13  1  0
  9 10  1  0
 10 11  1  0
 14 17  1  0
 14 18  2  0
 15 16  2  0
 15 19  1  0
 15 20  1  0
 16 18  1  0
 17 19  2  0
 20 21  2  0
 20 22  1  0
 21 23  1  0
M  END
>  <PUBCHEM_COMPOUND_CID>  (1) 
44502

>  <PUBCHEM_CONFORMER_RMSD>  (1) 
0.8

>  <PUBCHEM_CONFORMER_DIVERSEORDER>  (1) 
1
289
260
293
226
26
98
59
327
269
213
272
337
335
103
311
113
144
129
336
215
295
125
198
94
312
230
206
147
23
164
207
298
176
340
323
108
57
317
175
308
172
97
297
51
316
184
133
329
324
232
183
278
287
134
332
281
300
249
177
158
283
331
266
273
314
195
124
137
261
101
250
258
47
211
257
212
276
268
193
61
270
282
217
165
168
100
309
46
140
96
284
92
66
77
151
95
328
173
139
179
244
235
188
208
304
334
170
42
320
17
149
321
305
141
148
318
296
84
303
110
299
81
142
118
210
241
138
189
88
181
155
29
10
246
252
87
229
127
200
58
242
240
322
330
89
319
222
130
301
275
91
69
22
163
245
285
182
326
339
227
290
325
185
190
338
44
204
219
75
236
5
121
302
16
11
18
106
56
237
30
157
248
288
70
313
111
15
154
39
160
117
122
199
21
256
194
225
166
128
24
333
253
223
247
234
9
310
120
291
307
192
271
171
191
2
239
99
73
43
145
233
54
153
68
286
45
50
38
161
143
196
72
228
36
78
216
67
19
274
112
40
102
167
6
4
156
178
14
115
259
243
255
85
76
152
294
254
49
20
180
218
231
90
132
262
306
8
209
53
64
31
32
205
251
135
265
221
116
7
150
174
220
62
186
203
33
107
187
162
25
71
202
60
126
159
74
35
201
315
280
214
55
65
263
114
52
224
79
123
80
238
41
82
12
131
146
86
27
277
34
105
63
119
197
13
37
3
83
93
264
48
169
104
136
267
279
292
28
109

>  <PUBCHEM_MMFF94_PARTIAL_CHARGES>  (1) 
26
1 -0.36
10 0.28
11 0.28
14 0.08
15 0.03
16 0.08
17 0.08
18 -0.15
19 -0.15
2 -0.68
20 -0.17
21 -0.14
22 0.14
23 0.71
24 0.28
3 -0.23
31 0.36
4 -0.36
40 0.15
41 0.15
42 0.4
43 0.15
5 -0.57
6 -0.9
8 0.27
9 0.27

>  <PUBCHEM_EFFECTIVE_ROTOR_COUNT>  (1) 
8

>  <PUBCHEM_PHARMACOPHORE_FEATURES>  (1) 
10
1 1 acceptor
1 2 acceptor
1 2 donor
1 4 acceptor
1 5 acceptor
1 6 cation
1 6 donor
3 7 12 13 hydrophobe
6 14 15 16 17 18 19 rings
6 3 15 16 20 21 23 rings

>  <PUBCHEM_HEAVY_ATOM_COUNT>  (1) 
24

>  <PUBCHEM_ATOM_DEF_STEREO_COUNT>  (1) 
0

>  <PUBCHEM_ATOM_UDEF_STEREO_COUNT>  (1) 
1

>  <PUBCHEM_BOND_DEF_STEREO_COUNT>  (1) 
0

>  <PUBCHEM_BOND_UDEF_STEREO_COUNT>  (1) 
0

>  <PUBCHEM_ISOTOPIC_ATOM_COUNT>  (1) 
0

>  <PUBCHEM_COMPONENT_COUNT>  (1) 
1

>  <PUBCHEM_CACTVS_TAUTO_COUNT>  (1) 
1

>  <PUBCHEM_CONFORMER_ID>  (1) 
0000ADD600000001

>  <PUBCHEM_MMFF94_ENERGY>  (1) 
74.6761

>  <PUBCHEM_FEATURE_SELFOVERLAP>  (1) 
50.781

>  <PUBCHEM_SHAPE_FINGERPRINT>  (1) 
11370993 70 18194125118931072969
11552529 35 18265327494232347783
11725454 13 17203038600048397371
12107183 9 18263640658991035378
12166972 35 17897722313579403991
12596602 18 17677054658847291939
12633257 1 18260267417166939776
12788726 201 18195254535951991571
12892183 10 18045226182889446186
12969540 114 15841555171279832272
13009979 54 18044104676950801803
13103583 49 17023478455759789513
13583140 156 17346592015029288074
13965767 371 17752495261343723249
13994607 96 18131067147709576797
14739800 52 18126281085405845408
14790565 3 16811529155723135588
15209294 21 18409449167655521003
15238133 3 18343023259760139192
17818456 19 18411984637427445426
20715895 44 18048881793260403057
20739085 24 17676493869283480156
21756936 100 18201155542234283180
23522609 53 17968396597551530820
23559900 14 17986692397485105238
25147074 1 18186806924308152524
3117164 225 18336826386366226882
350125 39 17822845498734039100
445580 182 18339062827592990504
5104073 3 18189877834736325728
7064713 232 18409166584503654857
9981440 41 18340492175614106731

>  <PUBCHEM_SHAPE_MULTIPOLES>  (1) 
459.58
10.69
3.62
1.78
3.94
0.53
-1.33
4.9
5.35
-5.16
0.76
0.04
0.34
-2.14

>  <PUBCHEM_SHAPE_SELFOVERLAP>  (1) 
947.577

>  <PUBCHEM_SHAPE_VOLUME>  (1) 
265

>  <PUBCHEM_COORDINATE_TYPE>  (1) 
2
5
10

$$$$
