44512
     RDKit          3D

 13 13  0  0  0  0  0  0  0  0999 V2000
    2.9519   -0.9731    0.3371 O   0  0  0  0  0  0  0  0  0  0  0  0
   -3.6547   -0.0854   -0.0869 N   0  0  0  0  0  0  0  0  0  0  0  0
   -2.3026   -0.5205   -0.5090 C   0  0  0  0  0  0  0  0  0  0  0  0
   -1.2284    0.2868    0.2094 C   0  0  0  0  0  0  0  0  0  0  0  0
    0.1974   -0.1056   -0.1890 C   0  0  0  0  0  0  0  0  0  0  0  0
   -4.7395   -0.9394   -0.7597 C   0  0  0  0  0  0  0  0  0  0  0  0
   -3.8218   -0.2167    1.4341 C   0  0  0  0  0  0  0  0  0  0  0  0
   -3.9014    1.3819   -0.4672 C   0  0  0  0  0  0  0  0  0  0  0  0
    1.2337    0.6829    0.6187 C   0  0  0  0  0  0  0  0  0  0  0  0
    2.6408    0.3262    0.2105 C   0  0  0  0  0  0  0  0  0  0  0  0
    3.6594    1.0738   -0.2633 C   0  0  0  0  0  0  0  0  0  0  0  0
    4.7228    0.1603   -0.4571 C   0  0  0  0  0  0  0  0  0  0  0  0
    4.2423   -1.0713   -0.0777 C   0  0  0  0  0  0  0  0  0  0  0  0
  1 10  1  0
  1 13  1  0
  2  3  1  0
  2  6  1  0
  2  7  1  0
  2  8  1  0
  3  4  1  0
  4  5  1  0
  5  9  1  0
  9 10  1  0
 10 11  2  0
 11 12  1  0
 12 13  2  0
M  CHG  1   2   1
M  END
>  <PUBCHEM_COMPOUND_CID>  (1) 
44512

>  <PUBCHEM_CONFORMER_RMSD>  (1) 
0.6

>  <PUBCHEM_CONFORMER_DIVERSEORDER>  (1) 
1
18
15
8
19
14
5
4
12
16
9
13
10
2
17
7
11
6
3

>  <PUBCHEM_MMFF94_PARTIAL_CHARGES>  (1) 
14
1 -0.28
10 -0.04
11 -0.15
12 -0.15
13 -0.01
2 -1.01
3 0.5
31 0.15
32 0.15
33 0.15
6 0.5
7 0.5
8 0.5
9 0.18

>  <PUBCHEM_EFFECTIVE_ROTOR_COUNT>  (1) 
5

>  <PUBCHEM_PHARMACOPHORE_FEATURES>  (1) 
3
1 1 acceptor
1 2 cation
5 1 10 11 12 13 rings

>  <PUBCHEM_HEAVY_ATOM_COUNT>  (1) 
13

>  <PUBCHEM_ATOM_DEF_STEREO_COUNT>  (1) 
0

>  <PUBCHEM_ATOM_UDEF_STEREO_COUNT>  (1) 
0

>  <PUBCHEM_BOND_DEF_STEREO_COUNT>  (1) 
0

>  <PUBCHEM_BOND_UDEF_STEREO_COUNT>  (1) 
0

>  <PUBCHEM_ISOTOPIC_ATOM_COUNT>  (1) 
0

>  <PUBCHEM_COMPONENT_COUNT>  (1) 
1

>  <PUBCHEM_CACTVS_TAUTO_COUNT>  (1) 
1

>  <PUBCHEM_CONFORMER_ID>  (1) 
0000ADE000000001

>  <PUBCHEM_MMFF94_ENERGY>  (1) 
24.6591

>  <PUBCHEM_FEATURE_SELFOVERLAP>  (1) 
15.223

>  <PUBCHEM_SHAPE_FINGERPRINT>  (1) 
10680689 15 18335141999008410713
10912923 1 17989490740002088306
11287383 113 17313110791004771944
12916754 54 18129939109114385057
13167823 11 18342453759580573839
14123238 8 18410575106148484486
14251718 22 18272086149268604836
14252887 29 14908189650898467052
15242439 84 17530681009062579735
17834072 33 18343017839004509140
17834076 25 12468633928571130807
18186145 218 17775563160658635937
190213 19 17240483619493691661
1986462 14 18059855073781160605
200 152 18343580737376163745
20279233 1 17458067070994715186
20281475 54 17988925556750140314
20645477 70 18337106774742916342
22485316 2 18342735221793285878
22646028 1 17989487424313670347
2306618 200 17917996040932651505
23402539 116 15051730876788252889
23402655 69 18408886222403378796
42 15 11600009851313224332
4214541 1 18411417297970104525
4990 188 18407761417623584222
522135 26 18411136935685140694
573450 72 17275103903658175179
633830 44 17967248684924127438
77779 3 18335139790973311900
90127 26 18261116265797478528

>  <PUBCHEM_SHAPE_MULTIPOLES>  (1) 
256.68
11.64
1.15
0.92
0.38
0.08
-0.19
-1.14
1.27
0.04
0.12
0.8
-0.02
-0.13

>  <PUBCHEM_SHAPE_SELFOVERLAP>  (1) 
501.291

>  <PUBCHEM_SHAPE_VOLUME>  (1) 
158.8

>  <PUBCHEM_COORDINATE_TYPE>  (1) 
2
5
10

$$$$
