44522
     RDKit          3D

 21 22  0  0  1  0  0  0  0  0999 V2000
   -5.1800   -1.1850    0.8448 O   0  0  0  0  0  0  0  0  0  0  0  0
    2.0080    1.2076   -0.4657 N   0  0  0  0  0  0  0  0  0  0  0  0
    0.7237    1.9020   -0.1742 C   0  0  0  0  0  0  0  0  0  0  0  0
   -0.4398    0.9121   -0.3114 C   0  0  0  0  0  0  0  0  0  0  0  0
    2.2950    0.1355    0.5920 C   0  0  0  0  0  0  0  0  0  0  0  0
    1.9546    0.5267   -1.8384 C   0  0  0  0  0  0  0  0  0  0  0  0
    3.1726    2.2048   -0.4684 C   0  0  0  0  0  0  0  0  0  0  0  0
    0.8305    2.5582    1.1946 C   0  0  0  0  0  0  0  0  0  0  0  0
   -1.8320    1.4846   -0.0214 C   0  0  0  0  0  0  0  0  0  0  0  0
    3.5964   -0.5769    0.3688 C   0  0  0  0  0  0  0  0  0  0  0  0
   -2.9061    0.3977   -0.1231 C   0  0  0  0  0  0  0  0  0  0  0  0
   -4.2942    0.9551    0.2050 C   0  0  0  0  0  0  0  0  0  0  0  0
    3.6269   -1.7260   -0.4137 C   0  0  0  0  0  0  0  0  0  0  0  0
    4.7606   -0.0817    0.9460 C   0  0  0  0  0  0  0  0  0  0  0  0
   -5.3604   -0.1027    0.0718 C   0  0  0  0  0  0  0  0  0  0  0  0
    4.8368   -2.3884   -0.6215 C   0  0  0  0  0  0  0  0  0  0  0  0
    5.9704   -0.7441    0.7380 C   0  0  0  0  0  0  0  0  0  0  0  0
    6.0085   -1.8975   -0.0457 C   0  0  0  0  0  0  0  0  0  0  0  0
   -6.4749   -0.1695   -0.6860 C   0  0  0  0  0  0  0  0  0  0  0  0
   -7.0611   -1.4167   -0.3635 C   0  0  0  0  0  0  0  0  0  0  0  0
   -6.2357   -1.9960    0.5720 C   0  0  0  0  0  0  0  0  0  0  0  0
  1 15  1  0
  1 21  1  0
  2  3  1  0
  2  5  1  0
  2  6  1  0
  2  7  1  0
  3  4  1  0
  3  8  1  0
  4  9  1  0
  5 10  1  0
  9 11  1  0
 10 13  2  0
 10 14  1  0
 11 12  1  0
 12 15  1  0
 13 16  1  0
 14 17  2  0
 15 19  2  0
 16 18  2  0
 17 18  1  0
 19 20  1  0
 20 21  2  0
M  CHG  1   2   1
M  END
>  <PUBCHEM_COMPOUND_CID>  (1) 
44522

>  <PUBCHEM_CONFORMER_RMSD>  (1) 
0.8

>  <PUBCHEM_CONFORMER_DIVERSEORDER>  (1) 
74
59
19
33
43
70
54
10
49
23
1
64
62
122
3
12
69
57
123
51
91
26
35
2
75
119
114
65
98
118
99
47
27
100
15
29
116
5
52
124
93
107
113
39
102
46
73
66
117
34
112
50
28
40
6
37
92
42
48
81
67
115
21
76
56
44
45
111
90
18
14
82
53
36
94
22
80
79
88
55
96
84
25
58
4
104
63
32
24
85
109
20
106
71
61
16
101
78
7
38
11
105
17
13
31
60
83
95
8
87
86
120
110
9
103
97
121
68
30
89
77
72
41
108

>  <PUBCHEM_MMFF94_PARTIAL_CHARGES>  (1) 
25
1 -0.28
10 -0.14
12 0.18
13 -0.15
14 -0.15
15 -0.04
16 -0.15
17 -0.15
18 -0.15
19 -0.15
2 -1.01
20 -0.15
21 -0.01
3 0.5
42 0.15
43 0.15
44 0.15
45 0.15
46 0.15
47 0.15
48 0.15
49 0.15
5 0.65
6 0.5
7 0.5

>  <PUBCHEM_EFFECTIVE_ROTOR_COUNT>  (1) 
8

>  <PUBCHEM_PHARMACOPHORE_FEATURES>  (1) 
5
1 1 acceptor
1 2 cation
4 4 9 11 12 hydrophobe
5 1 15 19 20 21 rings
6 10 13 14 16 17 18 rings

>  <PUBCHEM_HEAVY_ATOM_COUNT>  (1) 
21

>  <PUBCHEM_ATOM_DEF_STEREO_COUNT>  (1) 
0

>  <PUBCHEM_ATOM_UDEF_STEREO_COUNT>  (1) 
1

>  <PUBCHEM_BOND_DEF_STEREO_COUNT>  (1) 
0

>  <PUBCHEM_BOND_UDEF_STEREO_COUNT>  (1) 
0

>  <PUBCHEM_ISOTOPIC_ATOM_COUNT>  (1) 
0

>  <PUBCHEM_COMPONENT_COUNT>  (1) 
1

>  <PUBCHEM_CACTVS_TAUTO_COUNT>  (1) 
1

>  <PUBCHEM_CONFORMER_ID>  (1) 
0000ADEA0000004A

>  <PUBCHEM_MMFF94_ENERGY>  (1) 
59.9095

>  <PUBCHEM_FEATURE_SELFOVERLAP>  (1) 
25.372

>  <PUBCHEM_SHAPE_FINGERPRINT>  (1) 
10316853 100 18409450293259524362
10670039 82 12613023968832042143
11135609 99 18410292540783311478
11796584 16 18261667056920030841
11858739 19 18335135402165575477
12516196 113 18343580729086981128
12596602 18 17561365054284106659
12633257 1 15267046043636715384
12760667 363 18411981352347227905
12895836 83 10809353251735334313
13073987 5 18343304790629622369
13402501 40 18410012121999550251
13533116 47 18342457079548011225
13668630 136 18187363238405407835
13685833 64 18411418401555036587
13955234 65 18128250284476143832
14123256 34 18408892819262291755
14211702 104 18342184345198967375
14251740 57 18201446835374039038
14251751 18 18335421244717759941
14528608 73 10881403149307730529
15183329 4 16515400751341035583
15188451 53 18131911559960119233
15728490 51 18272083946483326814
1768 124 17989203750520147735
17857418 61 18411699907229501463
18222031 100 17676489419592093532
19377110 9 14908176443921667149
193927 3 18334304136303153408
19784866 240 18408608041471541745
1979834 28 16917360224696864183
20028762 73 18412544301499640430
20281389 69 10664105549734868167
20398071 356 18334866056356337779
20645477 70 18261110794019621372
21033650 10 16515958169662098949
21049683 271 18410576219490299044
21197605 99 18343021137645790518
21267235 1 18342740685477048150
21623969 137 18060700563346594366
21637258 2 17967808315263474384
21682296 61 18342461405070811927
22061861 79 18113894979575576767
23522609 53 18120126972190010149
23559900 14 18187644773590924881
25122255 55 18408328787298982155
270888 7 9223223040213076987
2916195 48 10879996861441234773
29717793 49 17894348895545436325
3004659 81 17967248710984042689
3014063 24 18343297081215703287
338550 245 18336266842142938935
3472631 163 7853564716906849289
3627633 1 18266458711288344412
46194498 28 17894627080471788148
465052 167 18131070407678957612
5104073 3 18060426811343697969
559249 180 18410291377337433621
5718773 13 18190456070162426610
59682541 35 18271513261699754106
59682541 52 15502091942962534978
636775 8 18199477554937414798
7808743 9 9511451209157949437
7970288 3 18265614290779254090

>  <PUBCHEM_SHAPE_MULTIPOLES>  (1) 
421.32
18.99
2.6
1.06
23.09
0.15
0.17
-15.16
-1.28
-1.56
-0.1
-0.52
0.14
0.46

>  <PUBCHEM_SHAPE_SELFOVERLAP>  (1) 
863.506

>  <PUBCHEM_SHAPE_VOLUME>  (1) 
246.2

>  <PUBCHEM_COORDINATE_TYPE>  (1) 
2
5
10

$$$$
