44533
     RDKit          3D

 10 10  0  0  0  0  0  0  0  0999 V2000
    2.2265   -0.9693    0.0000 O   0  0  0  0  0  0  0  0  0  0  0  0
   -2.5179   -1.7997   -0.0015 N   0  0  0  0  0  0  0  0  0  0  0  0
   -0.5912    1.3649    0.0004 C   0  0  0  0  0  0  0  0  0  0  0  0
    0.9502   -0.4957    0.0008 C   0  0  0  0  0  0  0  0  0  0  0  0
    0.7165    0.8795    0.0006 C   0  0  0  0  0  0  0  0  0  0  0  0
   -1.4318   -0.9002    0.0005 C   0  0  0  0  0  0  0  0  0  0  0  0
   -1.6652    0.4751    0.0003 C   0  0  0  0  0  0  0  0  0  0  0  0
   -0.1240   -1.3856    0.0008 C   0  0  0  0  0  0  0  0  0  0  0  0
   -0.8401    2.8352   -0.0007 C   0  0  0  0  0  0  0  0  0  0  0  0
    3.2770   -0.0041   -0.0012 C   0  0  0  0  0  0  0  0  0  0  0  0
  1  4  1  0
  1 10  1  0
  2  6  1  0
  3  5  2  0
  3  7  1  0
  3  9  1  0
  4  5  1  0
  4  8  2  0
  6  7  2  0
  6  8  1  0
M  END
>  <PUBCHEM_COMPOUND_CID>  (1) 
44533

>  <PUBCHEM_CONFORMER_RMSD>  (1) 
0.4

>  <PUBCHEM_CONFORMER_DIVERSEORDER>  (1) 
1
2

>  <PUBCHEM_MMFF94_PARTIAL_CHARGES>  (1) 
15
1 -0.36
10 0.28
11 0.15
12 0.15
13 0.15
17 0.4
18 0.4
2 -0.9
3 -0.14
4 0.08
5 -0.15
6 0.1
7 -0.15
8 -0.15
9 0.14

>  <PUBCHEM_EFFECTIVE_ROTOR_COUNT>  (1) 
1

>  <PUBCHEM_PHARMACOPHORE_FEATURES>  (1) 
4
1 1 acceptor
1 2 cation
1 2 donor
6 3 4 5 6 7 8 rings

>  <PUBCHEM_HEAVY_ATOM_COUNT>  (1) 
10

>  <PUBCHEM_ATOM_DEF_STEREO_COUNT>  (1) 
0

>  <PUBCHEM_ATOM_UDEF_STEREO_COUNT>  (1) 
0

>  <PUBCHEM_BOND_DEF_STEREO_COUNT>  (1) 
0

>  <PUBCHEM_BOND_UDEF_STEREO_COUNT>  (1) 
0

>  <PUBCHEM_ISOTOPIC_ATOM_COUNT>  (1) 
0

>  <PUBCHEM_COMPONENT_COUNT>  (1) 
1

>  <PUBCHEM_CACTVS_TAUTO_COUNT>  (1) 
1

>  <PUBCHEM_CONFORMER_ID>  (1) 
0000ADF500000001

>  <PUBCHEM_MMFF94_ENERGY>  (1) 
43.1836

>  <PUBCHEM_FEATURE_SELFOVERLAP>  (1) 
20.297

>  <PUBCHEM_SHAPE_FINGERPRINT>  (1) 
1 1 17112692588471536189
100427 49 18269268143816314305
10857977 72 18340756143823661258
12716758 59 18124878958623466050
13024252 1 17603872178077049970
16945 1 18338517413342139396
193761 8 17978228253647356583
20871998 184 18273216382671063151
21040471 1 17906452121579632288
23552423 10 18188495670699161734
23552449 1 18411416198199812436
23559900 14 17695633949290566990
241688 4 18410854399440168577
2748010 2 18339916142556895621

>  <PUBCHEM_SHAPE_MULTIPOLES>  (1) 
194.94
3.39
2.39
0.6
2.71
1.29
0
-0.97
0
-1.6
0
0
0.03
0

>  <PUBCHEM_SHAPE_SELFOVERLAP>  (1) 
400.705

>  <PUBCHEM_SHAPE_VOLUME>  (1) 
114.3

>  <PUBCHEM_COORDINATE_TYPE>  (1) 
2
5
10

$$$$
