44544
     RDKit          3D

 24 25  0  0  1  0  0  0  0  0999 V2000
   -1.2302   -0.7748    1.3734 O   0  0  0  0  0  0  0  0  0  0  0  0
   -3.7948   -0.7989    2.4507 O   0  0  0  0  0  0  0  0  0  0  0  0
    2.8867    1.5831    0.9282 O   0  0  0  0  0  0  0  0  0  0  0  0
   -0.3382   -2.7148   -0.4021 O   0  0  0  0  0  0  0  0  0  0  0  0
    4.8549    2.7302    0.7289 O   0  0  0  0  0  0  0  0  0  0  0  0
   -3.4295    0.8964   -0.8208 N   0  0  0  0  0  0  0  0  0  0  0  0
   -3.8335   -0.1083    0.1533 C   0  0  0  0  0  0  0  0  0  0  0  0
   -3.3918    0.2560    1.5727 C   0  0  0  0  0  0  0  0  0  0  0  0
   -3.7638    0.4635   -2.1792 C   0  0  0  0  0  0  0  0  0  0  0  0
   -4.0642    2.1836   -0.5291 C   0  0  0  0  0  0  0  0  0  0  0  0
   -1.8828    0.4495    1.7056 C   0  0  0  0  0  0  0  0  0  0  0  0
   -3.1057   -0.8696   -2.4794 C   0  0  0  0  0  0  0  0  0  0  0  0
   -3.5833    3.2369   -1.5087 C   0  0  0  0  0  0  0  0  0  0  0  0
    0.0083   -0.6848    0.8151 C   0  0  0  0  0  0  0  0  0  0  0  0
    2.5761   -0.4850   -0.3341 C   0  0  0  0  0  0  0  0  0  0  0  0
    2.0994    0.4733    0.5614 C   0  0  0  0  0  0  0  0  0  0  0  0
    0.4580   -1.6573   -0.0764 C   0  0  0  0  0  0  0  0  0  0  0  0
    0.8311    0.3889    1.1388 C   0  0  0  0  0  0  0  0  0  0  0  0
    1.7320   -1.5589   -0.6473 C   0  0  0  0  0  0  0  0  0  0  0  0
    3.9241   -0.3163   -0.8936 C   0  0  0  0  0  0  0  0  0  0  0  0
    4.6504    0.7490   -0.5270 C   0  0  0  0  0  0  0  0  0  0  0  0
    4.4660   -1.3293   -1.8594 C   0  0  0  0  0  0  0  0  0  0  0  0
    4.1617    1.7682    0.4170 C   0  0  0  0  0  0  0  0  0  0  0  0
   -0.2310   -3.8806    0.4119 C   0  0  0  0  0  0  0  0  0  0  0  0
  1 11  1  0
  1 14  1  0
  2  8  1  0
  3 16  1  0
  3 23  1  0
  4 17  1  0
  4 24  1  0
  5 23  2  0
  6  7  1  0
  6  9  1  0
  6 10  1  0
  7  8  1  0
  8 11  1  0
  9 12  1  0
 10 13  1  0
 14 17  1  0
 14 18  2  0
 15 16  2  0
 15 19  1  0
 15 20  1  0
 16 18  1  0
 17 19  2  0
 20 21  2  0
 20 22  1  0
 21 23  1  0
M  END
>  <PUBCHEM_COMPOUND_CID>  (1) 
44544

>  <PUBCHEM_CONFORMER_RMSD>  (1) 
0.8

>  <PUBCHEM_CONFORMER_DIVERSEORDER>  (1) 
3
144
56
98
176
23
123
107
68
206
222
199
92
212
66
152
44
183
62
243
265
117
145
163
245
204
201
254
218
232
226
121
77
241
103
256
233
72
69
95
200
90
88
83
182
185
166
173
80
236
116
210
195
81
2
234
45
219
155
160
54
75
156
15
137
46
159
111
141
253
221
264
57
227
197
59
32
207
20
93
187
178
257
165
220
112
184
205
33
51
198
214
132
143
11
158
133
14
79
140
186
104
252
223
122
37
86
216
174
43
262
87
97
261
124
169
171
208
177
168
114
246
202
131
180
235
26
105
237
106
224
170
100
247
157
209
60
78
215
125
258
4
193
127
211
181
230
229
147
47
244
153
67
109
120
167
142
38
149
101
139
242
49
21
84
53
99
231
150
91
119
192
13
73
39
259
115
102
191
136
135
249
188
82
55
71
110
213
19
27
1
48
25
70
28
36
129
76
250
64
263
190
94
203
126
189
16
9
96
22
113
108
175
58
154
260
217
8
42
10
63
148
248
41
225
85
18
161
61
239
52
7
151
164
251
162
118
5
238
89
130
31
50
29
30
128
146
138
6
35
65
240
40
179
134
12
196
255
17
34
74
24
172
194
228

>  <PUBCHEM_MMFF94_PARTIAL_CHARGES>  (1) 
26
1 -0.36
10 0.27
11 0.28
14 0.08
15 0.03
16 0.08
17 0.08
18 -0.15
19 -0.15
2 -0.68
20 -0.17
21 -0.14
22 0.14
23 0.71
24 0.28
3 -0.23
4 -0.36
40 0.4
41 0.15
42 0.15
43 0.15
5 -0.57
6 -0.81
7 0.27
8 0.28
9 0.27

>  <PUBCHEM_EFFECTIVE_ROTOR_COUNT>  (1) 
8

>  <PUBCHEM_PHARMACOPHORE_FEATURES>  (1) 
8
1 1 acceptor
1 2 acceptor
1 2 donor
1 4 acceptor
1 5 acceptor
1 6 cation
6 14 15 16 17 18 19 rings
6 3 15 16 20 21 23 rings

>  <PUBCHEM_HEAVY_ATOM_COUNT>  (1) 
24

>  <PUBCHEM_ATOM_DEF_STEREO_COUNT>  (1) 
0

>  <PUBCHEM_ATOM_UDEF_STEREO_COUNT>  (1) 
1

>  <PUBCHEM_BOND_DEF_STEREO_COUNT>  (1) 
0

>  <PUBCHEM_BOND_UDEF_STEREO_COUNT>  (1) 
0

>  <PUBCHEM_ISOTOPIC_ATOM_COUNT>  (1) 
0

>  <PUBCHEM_COMPONENT_COUNT>  (1) 
1

>  <PUBCHEM_CACTVS_TAUTO_COUNT>  (1) 
1

>  <PUBCHEM_CONFORMER_ID>  (1) 
0000AE0000000003

>  <PUBCHEM_MMFF94_ENERGY>  (1) 
80.5725

>  <PUBCHEM_FEATURE_SELFOVERLAP>  (1) 
40.632

>  <PUBCHEM_SHAPE_FINGERPRINT>  (1) 
105312 117 18260832604930230334
10646746 165 17676210151959528224
11552529 35 12613626578281788304
11578080 2 17316790684450419859
11595378 159 14923954443995627693
11725454 13 18113618988639425218
11796584 16 12247406639917705284
121448 382 18200299030944296683
12403259 415 18336279980283866768
12616971 3 17346331362132461218
12670546 177 17917987304214589428
12670546 56 14923950097504437934
12730499 353 18336836273607496697
12892183 10 12107798384142016636
12969540 114 18408604772969534158
13004483 165 16679480579402352987
13103583 49 10881955005102475669
13583140 156 17458895054595008896
14251764 38 18040998474660703756
14468879 13 18188206495135927897
15163728 17 17532389572770114887
17349148 13 17846781780739521426
17909252 39 16486115370319627454
18186145 218 18272095984765000146
20645477 56 18267315394417817650
20775530 9 11668632652831683493
21033648 144 18272093854988703100
21033648 29 18335424573402245368
21641784 216 17617107235869319150
21859007 373 18261384495997316708
22393880 68 18270955748257193759
23557571 272 17532113660372125771
23559900 14 17095800993661778322
238 59 18270113487858638295
341906 21 17095243622438279484
469060 322 17970065754696923039
574716 61 17704068495131188220
633830 44 17987813924645475675
7399639 24 18261122867890070323

>  <PUBCHEM_SHAPE_MULTIPOLES>  (1) 
459.58
10.25
3.15
2.1
2.83
0.69
0.35
-6.64
2.97
0.04
0.3
-2.31
0.14
2.19

>  <PUBCHEM_SHAPE_SELFOVERLAP>  (1) 
951.528

>  <PUBCHEM_SHAPE_VOLUME>  (1) 
264.6

>  <PUBCHEM_COORDINATE_TYPE>  (1) 
2
5
10

$$$$
