4456
     RDKit          3D

 16 16  0  0  0  0  0  0  0  0999 V2000
   -1.6246    0.2985   -0.7574 O   0  0  0  0  0  0  0  0  0  0  0  0
   -2.0438   -0.1126    1.4808 O   0  0  0  0  0  0  0  0  0  0  0  0
    3.0159   -0.8861   -0.0093 N   0  0  0  0  0  0  0  0  0  0  0  0
   -3.7412   -0.4757   -0.0673 N   0  0  0  0  0  0  0  0  0  0  0  0
    1.8965    0.1572   -0.0464 C   0  0  0  0  0  0  0  0  0  0  0  0
    3.5914   -0.9381    1.4031 C   0  0  0  0  0  0  0  0  0  0  0  0
    4.0896   -0.4902   -1.0190 C   0  0  0  0  0  0  0  0  0  0  0  0
    2.5155   -2.2830   -0.3710 C   0  0  0  0  0  0  0  0  0  0  0  0
    0.6612   -0.2809   -0.3889 C   0  0  0  0  0  0  0  0  0  0  0  0
    2.2349    1.4306    0.2678 C   0  0  0  0  0  0  0  0  0  0  0  0
   -0.3590    0.6697   -0.4214 C   0  0  0  0  0  0  0  0  0  0  0  0
    1.2146    2.3811    0.2353 C   0  0  0  0  0  0  0  0  0  0  0  0
   -0.0823    2.0006   -0.1093 C   0  0  0  0  0  0  0  0  0  0  0  0
   -2.4492   -0.1022    0.3190 C   0  0  0  0  0  0  0  0  0  0  0  0
   -4.7061   -0.9126    0.9318 C   0  0  0  0  0  0  0  0  0  0  0  0
   -4.2134   -0.4563   -1.4480 C   0  0  0  0  0  0  0  0  0  0  0  0
  1 11  1  0
  1 14  1  0
  2 14  2  0
  3  5  1  0
  3  6  1  0
  3  7  1  0
  3  8  1  0
  4 14  1  0
  4 15  1  0
  4 16  1  0
  5  9  2  0
  5 10  1  0
  9 11  1  0
 10 12  2  0
 11 13  2  0
 12 13  1  0
M  CHG  1   3   1
M  END
>  <PUBCHEM_COMPOUND_CID>  (1) 
4456

>  <PUBCHEM_CONFORMER_RMSD>  (1) 
0.6

>  <PUBCHEM_CONFORMER_DIVERSEORDER>  (1) 
1
24
36
21
35
3
32
33
4
16
20
17
37
28
22
27
25
18
31
6
10
19
11
29
8
23
5
34
26
30
9
13
15
7
2
14
12

>  <PUBCHEM_MMFF94_PARTIAL_CHARGES>  (1) 
20
1 -0.23
10 -0.15
11 0.08
12 -0.15
13 -0.15
14 0.78
15 0.3
16 0.3
2 -0.57
26 0.15
27 0.15
28 0.15
29 0.15
3 -0.87
4 -0.66
5 0.36
6 0.5
7 0.5
8 0.5
9 -0.15

>  <PUBCHEM_EFFECTIVE_ROTOR_COUNT>  (1) 
4

>  <PUBCHEM_PHARMACOPHORE_FEATURES>  (1) 
3
1 2 acceptor
1 3 cation
6 5 9 10 11 12 13 rings

>  <PUBCHEM_HEAVY_ATOM_COUNT>  (1) 
16

>  <PUBCHEM_ATOM_DEF_STEREO_COUNT>  (1) 
0

>  <PUBCHEM_ATOM_UDEF_STEREO_COUNT>  (1) 
0

>  <PUBCHEM_BOND_DEF_STEREO_COUNT>  (1) 
0

>  <PUBCHEM_BOND_UDEF_STEREO_COUNT>  (1) 
0

>  <PUBCHEM_ISOTOPIC_ATOM_COUNT>  (1) 
0

>  <PUBCHEM_COMPONENT_COUNT>  (1) 
1

>  <PUBCHEM_CACTVS_TAUTO_COUNT>  (1) 
1

>  <PUBCHEM_CONFORMER_ID>  (1) 
0000116800000001

>  <PUBCHEM_MMFF94_ENERGY>  (1) 
66.6137

>  <PUBCHEM_FEATURE_SELFOVERLAP>  (1) 
15.223

>  <PUBCHEM_SHAPE_FINGERPRINT>  (1) 
10751810 167 14923941258825674561
11543360 7 15936418852696893991
11578080 2 17273100610911206641
11796584 16 17095792227111346378
12032990 46 18410577262248421428
12251169 10 18060700602006210679
12363563 72 18335422314054080522
12553582 1 18412825772222984398
12707595 3 18334574650554849610
12824470 246 17387680614519706770
13296908 3 17895190043457413761
13296909 8 17131556037954951081
13583140 156 14404898034031626805
14251717 144 18413102883470711167
14252887 29 18202283580929038558
15375462 189 18410855451791746678
15422964 175 18268144262908136830
15848700 24 18412821374286983164
16945 1 18342730794009168396
1813 80 18058469654622926788
18186145 218 17749381586163678085
18222031 100 18202841045855639470
200 152 18131342017126423213
20281407 28 18340487764175771116
20281475 54 18261680272328341042
20559304 39 17917999398895391672
20645477 70 18337100263487651535
20671657 53 18113336396971145665
20871998 22 18270966735005050294
20871999 31 17313103021176942381
21501925 9 18341885290615029136
2255824 54 18268995447990153228
23526113 38 17530974582830294960
23559900 14 17313377925016979500
23598291 2 17988641955986216789
2748010 2 18269538469622712996
42 15 15985110690905110694
4990 188 13045944573108189304
59682541 52 18193248902943011351
7364860 26 18270401723525855656
77492 1 17489027175392074949
81228 2 17977099064022717464
81539 233 18044655536687355620
83771 10 18410297990685015476
94968 8 18408046208341382166

>  <PUBCHEM_SHAPE_MULTIPOLES>  (1) 
307.57
8.27
1.96
1.17
6.6
0.63
-0.11
-4.35
-0.09
-1.59
-0.04
0.37
-0.28
0.19

>  <PUBCHEM_SHAPE_SELFOVERLAP>  (1) 
622.875

>  <PUBCHEM_SHAPE_VOLUME>  (1) 
182

>  <PUBCHEM_COORDINATE_TYPE>  (1) 
2
5
10

$$$$
