44562
     RDKit          3D

 22 24  0  0  1  0  0  0  0  0999 V2000
    1.8293    1.9460   -0.8544 O   0  0  0  0  0  0  0  0  0  0  0  0
   -6.2034    0.5918    0.9977 O   0  0  0  0  0  0  0  0  0  0  0  0
   -4.2058    1.4746    1.6010 O   0  0  0  0  0  0  0  0  0  0  0  0
    1.4512   -0.2057    0.0704 N   0  0  0  0  0  0  0  0  0  0  0  0
    2.3099   -1.2880    0.5573 C   0  0  0  0  0  0  0  0  0  0  0  0
    3.6809   -0.7448    0.3514 C   0  0  0  0  0  0  0  0  0  0  0  0
   -4.2217   -0.4030    0.0335 C   0  0  0  0  0  0  0  0  0  0  0  0
    0.0623   -0.2539    0.0613 C   0  0  0  0  0  0  0  0  0  0  0  0
    3.6175    0.5294   -0.2011 C   0  0  0  0  0  0  0  0  0  0  0  0
   -2.7311   -0.3513    0.0433 C   0  0  0  0  0  0  0  0  0  0  0  0
    2.2067    0.8866   -0.3862 C   0  0  0  0  0  0  0  0  0  0  0  0
   -4.8738   -0.2774   -1.3720 C   0  0  0  0  0  0  0  0  0  0  0  0
   -0.6047   -1.3862    0.5371 C   0  0  0  0  0  0  0  0  0  0  0  0
   -0.6755    0.8294   -0.4235 C   0  0  0  0  0  0  0  0  0  0  0  0
   -1.9987   -1.4348    0.5280 C   0  0  0  0  0  0  0  0  0  0  0  0
   -2.0696    0.7809   -0.4325 C   0  0  0  0  0  0  0  0  0  0  0  0
    4.9034   -1.3270    0.6302 C   0  0  0  0  0  0  0  0  0  0  0  0
    4.7468    1.2697   -0.4966 C   0  0  0  0  0  0  0  0  0  0  0  0
   -4.8457    0.6543    0.9562 C   0  0  0  0  0  0  0  0  0  0  0  0
   -4.4249   -1.3787   -2.3245 C   0  0  0  0  0  0  0  0  0  0  0  0
    6.0625   -0.6000    0.3412 C   0  0  0  0  0  0  0  0  0  0  0  0
    5.9845    0.6881   -0.2178 C   0  0  0  0  0  0  0  0  0  0  0  0
  1 11  2  0
  2 19  1  0
  3 19  2  0
  4  5  1  0
  4  8  1  0
  4 11  1  0
  5  6  1  0
  6  9  2  0
  6 17  1  0
  7 10  1  0
  7 12  1  0
  7 19  1  0
  8 13  2  0
  8 14  1  0
  9 11  1  0
  9 18  1  0
 10 15  2  0
 10 16  1  0
 12 20  1  0
 13 15  1  0
 14 16  2  0
 17 21  2  0
 18 22  2  0
 21 22  1  0
M  END
>  <PUBCHEM_COMPOUND_CID>  (1) 
44562

>  <PUBCHEM_CONFORMER_RMSD>  (1) 
0.8

>  <PUBCHEM_CONFORMER_DIVERSEORDER>  (1) 
1
5
3
7
6
2
4

>  <PUBCHEM_MMFF94_PARTIAL_CHARGES>  (1) 
29
1 -0.57
10 -0.14
11 0.54
13 -0.15
14 -0.15
15 -0.15
16 -0.15
17 -0.15
18 -0.15
19 0.66
2 -0.65
21 -0.15
22 -0.15
28 0.15
29 0.15
3 -0.57
30 0.15
31 0.15
32 0.15
33 0.15
37 0.15
38 0.15
39 0.5
4 -0.48
5 0.44
6 -0.14
7 0.2
8 0.12
9 0.09

>  <PUBCHEM_EFFECTIVE_ROTOR_COUNT>  (1) 
4.4

>  <PUBCHEM_PHARMACOPHORE_FEATURES>  (1) 
8
1 1 acceptor
1 2 acceptor
1 20 hydrophobe
1 3 acceptor
3 2 3 19 anion
5 4 5 6 9 11 rings
6 6 9 17 18 21 22 rings
6 8 10 13 14 15 16 rings

>  <PUBCHEM_HEAVY_ATOM_COUNT>  (1) 
22

>  <PUBCHEM_ATOM_DEF_STEREO_COUNT>  (1) 
1

>  <PUBCHEM_ATOM_UDEF_STEREO_COUNT>  (1) 
0

>  <PUBCHEM_BOND_DEF_STEREO_COUNT>  (1) 
0

>  <PUBCHEM_BOND_UDEF_STEREO_COUNT>  (1) 
0

>  <PUBCHEM_ISOTOPIC_ATOM_COUNT>  (1) 
0

>  <PUBCHEM_COMPONENT_COUNT>  (1) 
1

>  <PUBCHEM_CACTVS_TAUTO_COUNT>  (1) 
1

>  <PUBCHEM_CONFORMER_ID>  (1) 
0000AE1200000001

>  <PUBCHEM_MMFF94_ENERGY>  (1) 
66.7661

>  <PUBCHEM_FEATURE_SELFOVERLAP>  (1) 
40.742

>  <PUBCHEM_SHAPE_FINGERPRINT>  (1) 
10 15 16733264651295634276
10688039 33 17385444293504918988
10906281 52 18336001812827593174
10912923 1 18272647956760783818
11089746 13 18202280338371031656
11315181 36 18272929457370096160
11545043 162 15913322524624418039
11796584 16 16559037073454893806
12107183 9 17621043057820666706
12236239 1 18272369780197604638
12403259 415 16877659075904939533
12596602 18 16988555827884628898
12616971 3 18410858780523159661
12788726 201 17988374667028457553
13533116 47 18271806779591182642
13583140 156 15864343671279442291
13675066 3 16588025727322039295
13760787 5 18333448750611070902
13862211 1 18260258638623064842
1420 363 16805609157079077432
14251764 18 18411422825914612019
14341114 176 17967537865536280368
15081414 286 17967819362151754652
15183329 4 18333446543388446190
15196674 1 18187648054655587346
15788980 27 17632579361494801887
17349148 13 18413387644012714823
17844677 252 14779271916319734015
19141452 34 18334297599595277666
19489759 90 16988843878255504115
200 152 18341608235043582551
20645477 70 18259981549035076610
21033648 144 18189891087971582012
21033648 29 17095791205257211501
21033650 10 17487649401091011296
21236236 1 18188485775047221349
21267235 1 18114749240123448946
21424621 283 15625121737187990731
21623969 137 17821738220908827187
21641784 216 17459202802483041668
220451 1 17989208139902474422
23081809 10 18343580750667318902
23402539 116 18273493481371348717
23522609 53 18269017373856890520
23536379 177 17561085786899343458
23557571 272 15769786736231878921
23559900 14 18188768470015793456
29717793 49 18202569471506494310
3004659 81 17676202447674474402
335352 9 18260268560166369342
34797466 226 16343425119480401064
3545911 37 18040436603233787106
4340502 62 15430035470517661920
5104073 3 18187928443042249336
542803 24 18202565077111287546
59755656 520 18260831510273005459
7495541 125 16486965258774746066

>  <PUBCHEM_SHAPE_MULTIPOLES>  (1) 
430.16
15.01
1.56
1.25
2.3
0.03
-0.41
0.74
0.39
0.56
0
-2.4
-0.09
-1.79

>  <PUBCHEM_SHAPE_SELFOVERLAP>  (1) 
939.62

>  <PUBCHEM_SHAPE_VOLUME>  (1) 
233.1

>  <PUBCHEM_COORDINATE_TYPE>  (1) 
2
5
10

$$$$
