44567
     RDKit          3D

 31 33  0  0  1  0  0  0  0  0999 V2000
    6.0016    0.9389    0.5060 S   0  0  0  0  0  0  0  0  0  0  0  0
   -0.3062    1.9592    1.7499 O   0  0  0  0  0  0  0  0  0  0  0  0
   -2.9226    2.6865    1.4060 O   0  0  0  0  0  0  0  0  0  0  0  0
   -4.2128    2.1555   -0.9807 O   0  0  0  0  0  0  0  0  0  0  0  0
   -2.0915   -3.1650    0.8056 O   0  0  0  0  0  0  0  0  0  0  0  0
    4.2482   -1.0519    1.9505 O   0  0  0  0  0  0  0  0  0  0  0  0
   -0.8073   -4.2134   -0.7839 O   0  0  0  0  0  0  0  0  0  0  0  0
   -0.4578   -1.9989   -0.1897 N   0  0  0  0  0  0  0  0  0  0  0  0
    0.6527   -1.7198   -1.0774 C   0  0  0  0  0  0  0  0  0  0  0  0
    0.1771   -1.3665   -2.5047 C   0  0  0  0  0  0  0  0  0  0  0  0
   -0.1571    0.0983   -2.8165 C   0  0  0  0  0  0  0  0  0  0  0  0
    1.6017   -0.7382   -0.3883 C   0  0  0  0  0  0  0  0  0  0  0  0
   -0.8849    0.8062   -1.7046 C   0  0  0  0  0  0  0  0  0  0  0  0
   -0.2196    1.0837   -0.4924 C   0  0  0  0  0  0  0  0  0  0  0  0
    1.2039    0.6769   -0.3254 C   0  0  0  0  0  0  0  0  0  0  0  0
   -0.9144    1.7132    0.5517 C   0  0  0  0  0  0  0  0  0  0  0  0
   -2.2280    1.1752   -1.8542 C   0  0  0  0  0  0  0  0  0  0  0  0
    2.7016   -1.2477    0.1980 C   0  0  0  0  0  0  0  0  0  0  0  0
    2.0615    1.7115   -0.2253 C   0  0  0  0  0  0  0  0  0  0  0  0
   -2.2511    2.0759    0.3878 C   0  0  0  0  0  0  0  0  0  0  0  0
   -2.9056    1.8090   -0.8127 C   0  0  0  0  0  0  0  0  0  0  0  0
    3.7565   -0.5289    0.9534 C   0  0  0  0  0  0  0  0  0  0  0  0
    3.5017    1.6856   -0.1566 C   0  0  0  0  0  0  0  0  0  0  0  0
   -1.0892   -3.2202   -0.1217 C   0  0  0  0  0  0  0  0  0  0  0  0
    4.2777    0.7439    0.3929 C   0  0  0  0  0  0  0  0  0  0  0  0
   -0.4033    0.9422    2.7425 C   0  0  0  0  0  0  0  0  0  0  0  0
   -2.8851    4.1111    1.4423 C   0  0  0  0  0  0  0  0  0  0  0  0
   -5.1922    1.1864   -0.6133 C   0  0  0  0  0  0  0  0  0  0  0  0
   -2.8414   -4.3715    0.9870 C   0  0  0  0  0  0  0  0  0  0  0  0
    6.4890    0.2013   -1.0668 C   0  0  0  0  0  0  0  0  0  0  0  0
   -3.9030   -4.1385    2.0407 C   0  0  0  0  0  0  0  0  0  0  0  0
  1 25  1  0
  1 30  1  0
  2 16  1  0
  2 26  1  0
  3 20  1  0
  3 27  1  0
  4 21  1  0
  4 28  1  0
  5 24  1  0
  5 29  1  0
  6 22  2  0
  7 24  2  0
  8  9  1  0
  8 24  1  0
  9 10  1  0
  9 12  1  0
 10 11  1  0
 11 13  1  0
 12 15  1  0
 12 18  2  0
 13 14  2  0
 13 17  1  0
 14 15  1  0
 14 16  1  0
 15 19  2  0
 16 20  2  0
 17 21  2  0
 18 22  1  0
 19 23  1  0
 20 21  1  0
 22 25  1  0
 23 25  2  0
 29 31  1  0
M  END
>  <PUBCHEM_COMPOUND_CID>  (1) 
44567

>  <PUBCHEM_CONFORMER_RMSD>  (1) 
1

>  <PUBCHEM_CONFORMER_DIVERSEORDER>  (1) 
1
22
16
18
30
9
24
20
8
28
14
31
19
25
2
10
32
27
15
5
29
21
34
23
17
4
11
6
7
3
26
33
12
13

>  <PUBCHEM_MMFF94_PARTIAL_CHARGES>  (1) 
34
1 -0.33
11 0.14
12 -0.14
13 -0.14
14 0.03
15 -0.03
16 0.08
17 -0.15
18 -0.14
19 -0.15
2 -0.36
20 0.08
21 0.08
22 0.54
23 -0.15
24 0.78
25 0.12
26 0.28
27 0.28
28 0.28
29 0.28
3 -0.36
30 0.23
37 0.37
38 0.15
39 0.15
4 -0.36
40 0.15
41 0.15
5 -0.43
6 -0.57
7 -0.57
8 -0.73
9 0.44

>  <PUBCHEM_EFFECTIVE_ROTOR_COUNT>  (1) 
8.6

>  <PUBCHEM_PHARMACOPHORE_FEATURES>  (1) 
10
1 2 acceptor
1 3 acceptor
1 30 hydrophobe
1 4 acceptor
1 6 acceptor
1 7 acceptor
1 8 donor
6 13 14 16 17 20 21 rings
7 12 15 18 19 22 23 25 rings
7 9 10 11 12 13 14 15 rings

>  <PUBCHEM_HEAVY_ATOM_COUNT>  (1) 
31

>  <PUBCHEM_ATOM_DEF_STEREO_COUNT>  (1) 
1

>  <PUBCHEM_ATOM_UDEF_STEREO_COUNT>  (1) 
0

>  <PUBCHEM_BOND_DEF_STEREO_COUNT>  (1) 
0

>  <PUBCHEM_BOND_UDEF_STEREO_COUNT>  (1) 
0

>  <PUBCHEM_ISOTOPIC_ATOM_COUNT>  (1) 
0

>  <PUBCHEM_COMPONENT_COUNT>  (1) 
1

>  <PUBCHEM_CACTVS_TAUTO_COUNT>  (1) 
2

>  <PUBCHEM_CONFORMER_ID>  (1) 
0000AE1700000001

>  <PUBCHEM_MMFF94_ENERGY>  (1) 
128.7943

>  <PUBCHEM_FEATURE_SELFOVERLAP>  (1) 
50.774

>  <PUBCHEM_SHAPE_FINGERPRINT>  (1) 
10032420 55 17986650620365012793
10764073 3 17487084342234606499
11370993 70 18263919947934776317
11582403 64 15434211281755500878
12156800 1 18118152322267513422
12236239 1 18130777911595372740
12788726 201 18198602488523370919
13135754 10 18338249257602722654
13583140 156 17676213467848737512
14787075 74 18200295672527395317
17980427 23 16516255019951654477
20587220 17 13193944276485607239
21756936 100 18272929402327110896
22121540 332 15334674800548191800
22182313 1 17917169255322233262
23419403 2 17414431998516244993
23559900 14 16051526476191187765
244849 19 17773060621039651054
3552219 110 17825964894605047380
3759504 43 18411410700953215620
392239 28 18342453708583934387
394222 165 17698715905107592577
4058900 60 18121219783683966060
4340502 62 18339075983056997901
4409770 3 18338512053555802703
469060 322 16805872009573594942
474 4 18127123070366765204
5104073 3 18190718987028030688
58260988 114 18040710407525806978
59755656 520 18410569548946120062
9981440 41 17488721434087563982

>  <PUBCHEM_SHAPE_MULTIPOLES>  (1) 
601.62
9.53
5.02
2.27
11.91
4.81
0.15
-1.7
-1.77
-8.77
-2.44
-0.97
0.05
1.07

>  <PUBCHEM_SHAPE_SELFOVERLAP>  (1) 
1261.66

>  <PUBCHEM_SHAPE_VOLUME>  (1) 
341.7

>  <PUBCHEM_COORDINATE_TYPE>  (1) 
2
5
10

$$$$
