44565
     RDKit          3D

 19 20  0  0  0  0  0  0  0  0999 V2000
    0.2364    3.3186    0.0014 Cl  0  0  0  0  0  0  0  0  0  0  0  0
   -4.6894   -2.3905    0.0023 O   0  0  0  0  0  0  0  0  0  0  0  0
   -2.5380   -2.8482    0.0001 O   0  0  0  0  0  0  0  0  0  0  0  0
    2.0630    1.1601    0.0004 N   0  0  0  0  0  0  0  0  0  0  0  0
    0.7905    0.7234   -0.0001 N   0  0  0  0  0  0  0  0  0  0  0  0
   -3.4883   -2.0297    0.0010 N   0  0  0  0  0  0  0  0  0  0  0  0
   -1.5770    1.1556   -0.0012 C   0  0  0  0  0  0  0  0  0  0  0  0
   -1.8663   -0.2090   -0.0007 C   0  0  0  0  0  0  0  0  0  0  0  0
   -3.1927   -0.6408   -0.0004 C   0  0  0  0  0  0  0  0  0  0  0  0
   -2.6142    2.0884   -0.0012 C   0  0  0  0  0  0  0  0  0  0  0  0
    3.1351    0.2564    0.0005 C   0  0  0  0  0  0  0  0  0  0  0  0
   -4.2298    0.2921   -0.0002 C   0  0  0  0  0  0  0  0  0  0  0  0
   -3.9405    1.6567   -0.0008 C   0  0  0  0  0  0  0  0  0  0  0  0
   -0.1943    1.6061   -0.0001 C   0  0  0  0  0  0  0  0  0  0  0  0
    4.4534    0.7250    0.0019 C   0  0  0  0  0  0  0  0  0  0  0  0
    2.8959   -1.1221   -0.0015 C   0  0  0  0  0  0  0  0  0  0  0  0
    5.5198   -0.1741    0.0013 C   0  0  0  0  0  0  0  0  0  0  0  0
    3.9624   -2.0212   -0.0020 C   0  0  0  0  0  0  0  0  0  0  0  0
    5.2743   -1.5471   -0.0006 C   0  0  0  0  0  0  0  0  0  0  0  0
  1 14  1  0
  2  6  1  0
  3  6  2  0
  4  5  1  0
  4 11  1  0
  5 14  2  0
  6  9  1  0
  7  8  2  0
  7 10  1  0
  7 14  1  0
  8  9  1  0
  9 12  2  0
 10 13  2  0
 11 15  2  0
 11 16  1  0
 12 13  1  0
 15 17  1  0
 16 18  2  0
 17 19  2  0
 18 19  1  0
M  CHG  2   2  -1   6   1
M  END
>  <PUBCHEM_COMPOUND_CID>  (1) 
44565

>  <PUBCHEM_CONFORMER_RMSD>  (1) 
0.6

>  <PUBCHEM_CONFORMER_DIVERSEORDER>  (1) 
1
12
14
10
7
8
4
3
2
9
5
6
11
13

>  <PUBCHEM_MMFF94_PARTIAL_CHARGES>  (1) 
29
1 -0.21
10 -0.15
11 0.1
12 -0.15
13 -0.15
14 0.57
15 -0.15
16 -0.15
17 -0.15
18 -0.15
19 -0.15
2 -0.52
20 0.15
21 0.15
22 0.15
23 0.15
24 0.15
25 0.15
26 0.4
27 0.15
28 0.15
29 0.15
3 -0.52
4 -0.46
5 -0.49
6 0.91
7 0.09
8 -0.15
9 0.13

>  <PUBCHEM_EFFECTIVE_ROTOR_COUNT>  (1) 
4

>  <PUBCHEM_PHARMACOPHORE_FEATURES>  (1) 
7
1 2 acceptor
1 2 anion
1 3 acceptor
1 4 donor
1 5 acceptor
6 11 15 16 17 18 19 rings
6 7 8 9 10 12 13 rings

>  <PUBCHEM_HEAVY_ATOM_COUNT>  (1) 
19

>  <PUBCHEM_ATOM_DEF_STEREO_COUNT>  (1) 
0

>  <PUBCHEM_ATOM_UDEF_STEREO_COUNT>  (1) 
0

>  <PUBCHEM_BOND_DEF_STEREO_COUNT>  (1) 
0

>  <PUBCHEM_BOND_UDEF_STEREO_COUNT>  (1) 
1

>  <PUBCHEM_ISOTOPIC_ATOM_COUNT>  (1) 
0

>  <PUBCHEM_COMPONENT_COUNT>  (1) 
1

>  <PUBCHEM_CACTVS_TAUTO_COUNT>  (1) 
1

>  <PUBCHEM_CONFORMER_ID>  (1) 
0000AE1500000001

>  <PUBCHEM_MMFF94_ENERGY>  (1) 
66.071

>  <PUBCHEM_FEATURE_SELFOVERLAP>  (1) 
35.602

>  <PUBCHEM_SHAPE_FINGERPRINT>  (1) 
10616163 171 18411983546347918726
10693767 8 17768511035820629383
11045515 52 18113900425257485476
12107183 9 17473544651487199096
12555020 224 18337942421044258093
12757275 245 18410293605649922289
13167823 11 18408322168595831098
13255334 9 18340492171129176326
13911852 28 17976826712079140491
13911882 115 17917999326624876438
14790565 3 17763467210320787505
15042514 8 18408891750516905721
15196674 1 18410575080769265606
15352361 1 18410855481719192254
15537594 2 18041285365569354626
17492 89 18265895950571044027
17804303 29 18341614832461762081
1813 80 17385730170880844412
19141452 34 18337675217732571413
20261772 1 17917989516534534926
20281475 54 18409452509103608740
20374829 77 18408318869860429344
20403669 9 18341900722496217175
21065198 57 18412543193545452864
21267235 1 18409739447251858875
21673915 165 18410292519250361514
221490 88 18264212576651488920
23402539 116 18334290947075681252
23403322 49 18410292510190564745
23557571 272 18129666279759661548
23559900 14 18340758334009660017
23622692 118 18270675506363416903
239999 70 18201723925822032694
26918003 58 18200871782202757752
3004659 81 18187364299203943886
3246875 12 18197492034469099912
335352 9 18410573981827454389
3421961 26 18196371639675965977
4214541 1 18410855425895277312
4921388 177 16660658374557531691
5104073 3 18343579621291316000
5486654 36 18336275617061266001
559249 180 18189331282018324627
67856867 119 18261395585581880180
77779 3 18411138013611350540
7970288 3 18051128387473686799
9709674 26 18262522614257408954

>  <PUBCHEM_SHAPE_MULTIPOLES>  (1) 
366.2
11.94
3.17
0.6
8.71
0.2
0
5.82
0
-2.55
0
0.04
-0.04
0

>  <PUBCHEM_SHAPE_SELFOVERLAP>  (1) 
773.749

>  <PUBCHEM_SHAPE_VOLUME>  (1) 
204.3

>  <PUBCHEM_COORDINATE_TYPE>  (1) 
2
5
10

$$$$
