44585
     RDKit          3D

 28 30  0  0  0  0  0  0  0  0999 V2000
    1.5718    3.0333    1.0373 O   0  0  0  0  0  0  0  0  0  0  0  0
    3.7414    2.7765   -0.4277 O   0  0  0  0  0  0  0  0  0  0  0  0
    4.8460   -3.7300    0.3593 O   0  0  0  0  0  0  0  0  0  0  0  0
   -3.3467    0.8534   -0.4926 N   0  0  0  0  0  0  0  0  0  0  0  0
    0.0865    1.2741    0.7609 N   0  0  0  0  0  0  0  0  0  0  0  0
    5.6241   -1.6326   -0.3847 N   0  0  0  0  0  0  0  0  0  0  0  0
   -1.1186    2.0290    1.0218 C   0  0  0  0  0  0  0  0  0  0  0  0
   -2.1889    1.1515    1.6752 C   0  0  0  0  0  0  0  0  0  0  0  0
   -1.6659    2.6565   -0.2623 C   0  0  0  0  0  0  0  0  0  0  0  0
   -2.8059    0.1597    0.6840 C   0  0  0  0  0  0  0  0  0  0  0  0
   -2.3008    1.6147   -1.1888 C   0  0  0  0  0  0  0  0  0  0  0  0
   -3.9784   -0.1005   -1.4040 C   0  0  0  0  0  0  0  0  0  0  0  0
   -5.1136   -0.8382   -0.7453 C   0  0  0  0  0  0  0  0  0  0  0  0
    1.3466    1.8511    0.7919 C   0  0  0  0  0  0  0  0  0  0  0  0
    2.4818    0.9466    0.4754 C   0  0  0  0  0  0  0  0  0  0  0  0
   -4.8601   -2.0306   -0.0820 C   0  0  0  0  0  0  0  0  0  0  0  0
   -6.3977   -0.3156   -0.8109 C   0  0  0  0  0  0  0  0  0  0  0  0
    3.6196    1.4547   -0.1177 C   0  0  0  0  0  0  0  0  0  0  0  0
   -5.9118   -2.7141    0.5283 C   0  0  0  0  0  0  0  0  0  0  0  0
   -7.4493   -0.9993   -0.2006 C   0  0  0  0  0  0  0  0  0  0  0  0
    2.3540   -0.3913    0.7918 C   0  0  0  0  0  0  0  0  0  0  0  0
   -7.2064   -2.1985    0.4690 C   0  0  0  0  0  0  0  0  0  0  0  0
    4.6745    0.5892   -0.4066 C   0  0  0  0  0  0  0  0  0  0  0  0
    3.4088   -1.2570    0.5029 C   0  0  0  0  0  0  0  0  0  0  0  0
    4.5691   -0.7667   -0.0964 C   0  0  0  0  0  0  0  0  0  0  0  0
    3.3009    3.1811   -1.7220 C   0  0  0  0  0  0  0  0  0  0  0  0
    5.7010   -3.0118   -0.1485 C   0  0  0  0  0  0  0  0  0  0  0  0
    7.0181   -3.5853   -0.6078 C   0  0  0  0  0  0  0  0  0  0  0  0
  1 14  2  0
  2 18  1  0
  2 26  1  0
  3 27  2  0
  4 10  1  0
  4 11  1  0
  4 12  1  0
  5  7  1  0
  5 14  1  0
  6 25  1  0
  6 27  1  0
  7  8  1  0
  7  9  1  0
  8 10  1  0
  9 11  1  0
 12 13  1  0
 13 16  2  0
 13 17  1  0
 14 15  1  0
 15 18  2  0
 15 21  1  0
 16 19  1  0
 17 20  2  0
 18 23  1  0
 19 22  2  0
 20 22  1  0
 21 24  2  0
 23 25  2  0
 24 25  1  0
 27 28  1  0
M  END
>  <PUBCHEM_COMPOUND_CID>  (1) 
44585

>  <PUBCHEM_CONFORMER_RMSD>  (1) 
1

>  <PUBCHEM_CONFORMER_DIVERSEORDER>  (1) 
1
18
62
65
9
50
45
112
37
5
84
19
70
107
95
111
43
51
56
79
57
35
34
31
76
78
22
27
68
3
20
66
72
12
29
44
104
14
21
92
91
63
100
90
80
73
11
40
103
55
38
15
33
10
60
4
102
105
81
23
69
67
53
46
71
36
106
58
28
87
48
74
13
42
49
8
99
41
59
30
94
61
75
64
6
109
25
39
89
108
82
85
52
86
7
16
101
98
54
96
47
26
77
110
93
32
97
17
88
83
2
24

>  <PUBCHEM_MMFF94_PARTIAL_CHARGES>  (1) 
36
1 -0.57
10 0.27
11 0.27
12 0.41
13 -0.14
14 0.54
15 0.09
16 -0.15
17 -0.15
18 0.08
19 -0.15
2 -0.36
20 -0.15
21 -0.15
22 -0.15
23 -0.15
24 -0.15
25 0.12
26 0.28
27 0.57
28 0.06
3 -0.57
4 -0.81
40 0.37
41 0.15
42 0.15
43 0.15
44 0.15
45 0.15
46 0.15
47 0.15
48 0.15
49 0.37
5 -0.73
6 -0.55
7 0.3

>  <PUBCHEM_EFFECTIVE_ROTOR_COUNT>  (1) 
9.2

>  <PUBCHEM_PHARMACOPHORE_FEATURES>  (1) 
9
1 1 acceptor
1 2 acceptor
1 3 acceptor
1 4 cation
1 5 donor
1 6 donor
6 13 16 17 19 20 22 rings
6 15 18 21 23 24 25 rings
6 4 7 8 9 10 11 rings

>  <PUBCHEM_HEAVY_ATOM_COUNT>  (1) 
28

>  <PUBCHEM_ATOM_DEF_STEREO_COUNT>  (1) 
0

>  <PUBCHEM_ATOM_UDEF_STEREO_COUNT>  (1) 
0

>  <PUBCHEM_BOND_DEF_STEREO_COUNT>  (1) 
0

>  <PUBCHEM_BOND_UDEF_STEREO_COUNT>  (1) 
0

>  <PUBCHEM_ISOTOPIC_ATOM_COUNT>  (1) 
0

>  <PUBCHEM_COMPONENT_COUNT>  (1) 
1

>  <PUBCHEM_CACTVS_TAUTO_COUNT>  (1) 
5

>  <PUBCHEM_CONFORMER_ID>  (1) 
0000AE2900000001

>  <PUBCHEM_MMFF94_ENERGY>  (1) 
83.5095

>  <PUBCHEM_FEATURE_SELFOVERLAP>  (1) 
45.681

>  <PUBCHEM_SHAPE_FINGERPRINT>  (1) 
10622 236 18340763728709714114
11135609 12 18339348743402373914
11273773 46 18339638928810429967
11315621 136 18408885110001775714
11409948 35 18412261766884416887
117089 54 18128263272768736726
12166972 35 18333734598096799126
12760667 363 18201714047085976135
13402501 40 18336263544024695739
13533116 47 18341048613774328545
13540713 5 18270700679088488144
1361 4 18265897033082403963
13690498 29 18115869607273709621
13782708 43 18260263040743023171
13955234 65 17914324934009702113
14251764 30 18338795719319086727
14347332 77 18337952285882503656
14420673 8 18410293619384598435
14429380 30 18341050705856269094
15019793 15 18125154098519258031
15082195 135 17532386429176314932
15510800 12 18334296470208881066
15519825 34 14188705560073040549
15537594 2 18058165210276960165
15728490 83 18196657285045426115
16120349 21 18200881652285426649
17492 89 18410572864502967420
19303781 99 18338782443375215382
19319366 153 18055070132374463028
19438510 23 9871456613301200446
20028762 73 18200030634612988110
20775438 99 18051392248314405714
208703 8 18341047403063530358
21033650 10 16878216464493449717
21344244 181 18114746031551199867
21344244 246 18335426777485249148
21682296 61 18411699920468253443
22393880 68 18042113280829751508
22950370 63 18338796831868642593
23522609 53 18055664882535087761
23559900 14 18410000040488440713
23569943 247 18343299254781053923
270888 7 8142075468803341762
2838139 119 9366804965924863331
3004659 81 18333725840542275425
34797466 226 17241322620423876789
4107672 100 17822568293060588957
439807 62 18410294692324335519
4435113 14 18189346826080911067
46194498 28 17968089858975850492
465052 167 18201721794721772701
5104073 3 17632858611620704696
54039377 194 18272373040721887262
5718773 13 18340767044619840130
70251023 43 18408603660478682832
7970288 3 18342454807531683226

>  <PUBCHEM_SHAPE_MULTIPOLES>  (1) 
543.68
19.72
4.39
1.22
12.43
1.56
-0.07
22.55
-3.69
-6.65
-0.31
0.38
-0.67
0.24

>  <PUBCHEM_SHAPE_SELFOVERLAP>  (1) 
1151.004

>  <PUBCHEM_SHAPE_VOLUME>  (1) 
302.6

>  <PUBCHEM_COORDINATE_TYPE>  (1) 
2
5
10

$$$$
