4459
     RDKit          3D

 21 22  0  0  0  0  0  0  0  0999 V2000
    0.8526    2.7623    1.8314 S   0  0  0  0  0  0  0  0  0  0  0  0
   -0.2170   -1.7453    0.5363 O   0  0  0  0  0  0  0  0  0  0  0  0
    0.0040    1.4815   -0.8966 N   0  0  0  0  0  0  0  0  0  0  0  0
    1.6129    2.1979   -2.1346 N   0  0  0  0  0  0  0  0  0  0  0  0
    1.7389   -2.9899   -0.0632 C   0  0  0  0  0  0  0  0  0  0  0  0
    2.6392   -1.7590    0.0161 C   0  0  0  0  0  0  0  0  0  0  0  0
    4.0773   -2.1434    0.3630 C   0  0  0  0  0  0  0  0  0  0  0  0
    0.3139   -2.6199   -0.4496 C   0  0  0  0  0  0  0  0  0  0  0  0
   -1.4960   -1.2935    0.3383 C   0  0  0  0  0  0  0  0  0  0  0  0
   -1.7641    0.0666    0.2199 C   0  0  0  0  0  0  0  0  0  0  0  0
    4.9841   -0.9238    0.4098 C   0  0  0  0  0  0  0  0  0  0  0  0
   -0.6998    1.0579    0.3018 C   0  0  0  0  0  0  0  0  0  0  0  0
   -2.5256   -2.2260    0.2576 C   0  0  0  0  0  0  0  0  0  0  0  0
   -3.0750    0.4985    0.0187 C   0  0  0  0  0  0  0  0  0  0  0  0
   -3.8365   -1.7940    0.0563 C   0  0  0  0  0  0  0  0  0  0  0  0
   -4.1112   -0.4318   -0.0632 C   0  0  0  0  0  0  0  0  0  0  0  0
   -0.3821    1.5747    1.5312 C   0  0  0  0  0  0  0  0  0  0  0  0
   -0.5460    1.5085   -2.1015 C   0  0  0  0  0  0  0  0  0  0  0  0
    1.2670    1.8834   -0.9061 C   0  0  0  0  0  0  0  0  0  0  0  0
    0.4870    1.9671   -2.8848 C   0  0  0  0  0  0  0  0  0  0  0  0
    0.6762    2.9281    3.6190 C   0  0  0  0  0  0  0  0  0  0  0  0
  1 17  1  0
  1 21  1  0
  2  8  1  0
  2  9  1  0
  3 12  1  0
  3 18  1  0
  3 19  1  0
  4 19  2  0
  4 20  1  0
  5  6  1  0
  5  8  1  0
  6  7  1  0
  7 11  1  0
  9 10  2  0
  9 13  1  0
 10 12  1  0
 10 14  1  0
 12 17  2  0
 13 15  2  0
 14 16  2  0
 15 16  1  0
 18 20  2  0
M  END
>  <PUBCHEM_COMPOUND_CID>  (1) 
4459

>  <PUBCHEM_CONFORMER_RMSD>  (1) 
0.8

>  <PUBCHEM_CONFORMER_DIVERSEORDER>  (1) 
1
110
187
205
74
351
155
80
310
204
168
282
201
345
294
9
222
417
431
381
317
384
120
380
219
83
283
133
70
209
373
383
418
208
331
136
391
379
225
392
58
254
7
291
68
176
250
167
348
97
151
330
149
378
129
297
119
371
161
261
334
122
312
224
245
111
236
363
184
242
246
94
144
240
390
295
137
286
134
210
26
285
273
322
64
142
188
228
87
14
276
28
270
166
328
230
349
402
267
269
46
90
89
194
260
118
181
405
223
315
197
364
169
48
396
382
100
262
354
33
114
311
145
410
426
101
408
335
2
102
193
177
4
316
360
251
326
320
19
266
339
92
367
105
147
289
432
99
372
221
178
216
112
281
117
277
124
274
61
123
62
91
220
173
84
271
186
79
388
258
40
199
284
344
16
227
406
226
25
306
183
171
319
95
350
300
385
157
96
244
172
143
103
67
327
115
86
324
38
195
302
352
75
397
135
85
190
18
332
272
307
57
321
309
265
113
10
78
128
366
146
154
239
132
88
398
212
280
81
217
395
252
165
12
407
314
130
39
341
164
342
125
268
299
203
109
305
49
34
389
213
368
293
189
82
358
415
17
325
131
347
185
3
429
362
45
106
414
361
11
422
13
287
158
202
387
370
76
93
206
243
218
411
192
150
259
211
43
365
296
207
416
153
174
413
37
353
329
162
6
308
304
423
52
116
108
163
333
278
253
420
430
51
241
148
263
27
98
141
375
419
107
238
394
5
400
235
292
215
159
303
138
313
56
200
428
198
20
409
399
275
421
229
231
214
425
71
346
182
412
63
54
196
42
340
15
160
104
233
359
301
180
50
41
60
31
237
121
336
288
424
127
179
247
156
65
29
323
298
376
343
47
36
357
22
369
66
191
23
175
59
232
69
403
8
255
393
234
256
55
53
21
44
374
152
377
355
32
427
401
257
73
290
356
338
140
279
24
337
35
386
404
248
318
30
264
72
170
77
139
249
126

>  <PUBCHEM_MMFF94_PARTIAL_CHARGES>  (1) 
25
1 -0.33
10 0.03
12 -0.06
13 -0.15
14 -0.15
15 -0.15
16 -0.15
17 -0.05
18 -0.3
19 0.04
2 -0.36
20 0.08
21 0.23
3 0.33
33 0.15
34 0.15
35 0.15
36 0.15
37 0.15
38 0.15
39 0.15
4 -0.57
40 0.15
8 0.28
9 0.08

>  <PUBCHEM_EFFECTIVE_ROTOR_COUNT>  (1) 
8

>  <PUBCHEM_PHARMACOPHORE_FEATURES>  (1) 
6
1 11 hydrophobe
1 2 acceptor
1 21 hydrophobe
3 3 4 19 cation
5 3 4 18 19 20 rings
6 9 10 13 14 15 16 rings

>  <PUBCHEM_HEAVY_ATOM_COUNT>  (1) 
21

>  <PUBCHEM_ATOM_DEF_STEREO_COUNT>  (1) 
0

>  <PUBCHEM_ATOM_UDEF_STEREO_COUNT>  (1) 
0

>  <PUBCHEM_BOND_DEF_STEREO_COUNT>  (1) 
0

>  <PUBCHEM_BOND_UDEF_STEREO_COUNT>  (1) 
1

>  <PUBCHEM_ISOTOPIC_ATOM_COUNT>  (1) 
0

>  <PUBCHEM_COMPONENT_COUNT>  (1) 
1

>  <PUBCHEM_CACTVS_TAUTO_COUNT>  (1) 
1

>  <PUBCHEM_CONFORMER_ID>  (1) 
0000116B00000001

>  <PUBCHEM_MMFF94_ENERGY>  (1) 
70.1351

>  <PUBCHEM_FEATURE_SELFOVERLAP>  (1) 
30.446

>  <PUBCHEM_SHAPE_FINGERPRINT>  (1) 
11370993 70 17759253177108412692
11582403 64 16411800565130740905
12592029 89 17536057767099141471
13027679 85 18271236123790913233
14142880 1 17832148220938508320
14817 1 16253619483371709632
14840074 17 17606392414217706228
15463212 79 16672204603864555396
167882 2 17823990123875372806
17492 54 17749972049545859358
17980427 26 17700677726221096541
18219364 16 16101082444507361142
18336668 15 18336825381301694158
18769570 83 16951684675893089431
19930381 70 18130212827127095194
20600515 1 18338525144294458519
20642791 178 18188787122900530543
20905425 154 17834980910821538071
2306618 200 17830447289683582306
23419403 2 18196340737275423477
23557571 272 18197785388491920878
23559900 14 18123747814203482625
298252 57 17102013521820879981
3524813 1 18338784651124996698
394222 165 17185381525770423577
5265222 85 17400647516161607704
81228 2 17831603984369144339

>  <PUBCHEM_SHAPE_MULTIPOLES>  (1) 
420.19
6.02
4.2
2.46
2.39
0.33
-0.36
-5.54
0.96
1.99
1.64
0.93
3.94
0.08

>  <PUBCHEM_SHAPE_SELFOVERLAP>  (1) 
859.018

>  <PUBCHEM_SHAPE_VOLUME>  (1) 
246.3

>  <PUBCHEM_COORDINATE_TYPE>  (1) 
2
5
10

$$$$
