44597
     RDKit          3D

 15 16  0  0  0  0  0  0  0  0999 V2000
   -0.5873   -1.0928    1.2940 S   0  0  0  0  0  0  0  0  0  0  0  0
   -1.7986   -1.9012   -0.1466 S   0  0  0  0  0  0  0  0  0  0  0  0
   -4.7331   -1.5494    0.0582 S   0  0  0  0  0  0  0  0  0  0  0  0
    1.5899   -0.0211    0.1029 C   0  0  0  0  0  0  0  0  0  0  0  0
    0.1358    0.1036    0.2810 C   0  0  0  0  0  0  0  0  0  0  0  0
   -1.9414    1.4457   -0.2420 C   0  0  0  0  0  0  0  0  0  0  0  0
   -0.5308    1.0922   -0.3384 C   0  0  0  0  0  0  0  0  0  0  0  0
    2.4602    0.6382    0.9728 C   0  0  0  0  0  0  0  0  0  0  0  0
    2.1033   -0.7989   -0.9363 C   0  0  0  0  0  0  0  0  0  0  0  0
   -2.1533    2.9434   -0.3089 C   0  0  0  0  0  0  0  0  0  0  0  0
   -3.0180    0.6416   -0.1365 C   0  0  0  0  0  0  0  0  0  0  0  0
    3.8398    0.5202    0.8038 C   0  0  0  0  0  0  0  0  0  0  0  0
    3.4829   -0.9169   -1.1052 C   0  0  0  0  0  0  0  0  0  0  0  0
    4.3511   -0.2574   -0.2350 C   0  0  0  0  0  0  0  0  0  0  0  0
   -3.2006   -0.8472   -0.0639 C   0  0  0  0  0  0  0  0  0  0  0  0
  1  2  1  0
  1  5  1  0
  2 15  1  0
  3 15  2  0
  4  5  1  0
  4  8  2  0
  4  9  1  0
  5  7  2  0
  6  7  1  0
  6 10  1  0
  6 11  2  0
  8 12  1  0
  9 13  2  0
 11 15  1  0
 12 14  2  0
 13 14  1  0
M  END
>  <PUBCHEM_COMPOUND_CID>  (1) 
44597

>  <PUBCHEM_CONFORMER_RMSD>  (1) 
0.6

>  <PUBCHEM_CONFORMER_DIVERSEORDER>  (1) 
2
1
3
4

>  <PUBCHEM_MMFF94_PARTIAL_CHARGES>  (1) 
22
1 -0.1
10 0.14
11 -0.14
12 -0.15
13 -0.15
14 -0.15
15 0.51
16 0.15
17 0.15
18 0.15
2 -0.14
22 0.15
23 0.15
24 0.15
25 0.15
3 -0.38
4 0.03
5 0.07
6 -0.14
7 -0.15
8 -0.15
9 -0.15

>  <PUBCHEM_EFFECTIVE_ROTOR_COUNT>  (1) 
1.4

>  <PUBCHEM_PHARMACOPHORE_FEATURES>  (1) 
3
1 3 acceptor
6 4 8 9 12 13 14 rings
7 1 2 5 6 7 11 15 rings

>  <PUBCHEM_HEAVY_ATOM_COUNT>  (1) 
15

>  <PUBCHEM_ATOM_DEF_STEREO_COUNT>  (1) 
0

>  <PUBCHEM_ATOM_UDEF_STEREO_COUNT>  (1) 
0

>  <PUBCHEM_BOND_DEF_STEREO_COUNT>  (1) 
0

>  <PUBCHEM_BOND_UDEF_STEREO_COUNT>  (1) 
0

>  <PUBCHEM_ISOTOPIC_ATOM_COUNT>  (1) 
0

>  <PUBCHEM_COMPONENT_COUNT>  (1) 
1

>  <PUBCHEM_CACTVS_TAUTO_COUNT>  (1) 
1

>  <PUBCHEM_CONFORMER_ID>  (1) 
0000AE3500000002

>  <PUBCHEM_MMFF94_ENERGY>  (1) 
45.68

>  <PUBCHEM_FEATURE_SELFOVERLAP>  (1) 
15.223

>  <PUBCHEM_SHAPE_FINGERPRINT>  (1) 
10498660 4 18261665991921057477
10608611 8 18343577430668408528
11132069 177 18410011026903754225
11578080 2 13684865205152232274
12173636 292 18193833748043815877
12236239 1 17022897960933450786
12500047 106 18266737978750994084
13296908 3 17988925539802236860
13538477 17 16950572120317863826
13581323 91 18260544524304133794
14115302 16 17241330303555912123
14993402 34 16805042929991873046
15219456 202 18131630080229459818
15775835 57 18042687195613243985
15848700 24 18339076111715969623
16752209 62 18040708169541630531
16945 1 18333734615276453587
17834074 16 18273496766863230462
18186145 218 18129101117560121840
187816 3 17894629292458988299
19049666 15 18129101117507120846
19141452 34 17988083413144468743
19433438 38 18272653420275883918
1986462 14 18410576145646731644
200 152 16917351428730669050
20279233 1 18273216400341503422
20510252 161 18413669097815536033
20645477 56 18338801091743120141
20645477 70 16988278656369826956
20871999 31 18335707121767105613
21501502 16 18117273662247932066
22943178 12 18129938979806514828
23402539 116 18334568053559014111
23526113 38 17702374053249644448
23557571 272 18413390942558322976
23559900 14 18341329969103780806
2871803 45 18411132537333116391
3268164 11 18260540113404421781
3286 77 17346598629536782819
4028521 119 18334848399259869957
43471831 8 18115019715093296667
474 4 16444488973184656540
5104073 3 18201153257142461434
6049 1 18202561757054523840
6333449 129 18411979139663577917
68521 5 18334290972935357333
69090 78 18201716279883791031
77492 1 16950565454576086376
81228 2 18334021600696439049
9709674 26 18412550894474568742

>  <PUBCHEM_SHAPE_MULTIPOLES>  (1) 
320.24
8.19
2.16
1.03
1.59
1.28
0.11
-2.33
-0.54
-2.51
-0.24
0.62
-0.19
0.75

>  <PUBCHEM_SHAPE_SELFOVERLAP>  (1) 
639.461

>  <PUBCHEM_SHAPE_VOLUME>  (1) 
185.2

>  <PUBCHEM_COORDINATE_TYPE>  (1) 
2
5
10

$$$$
