44608
     RDKit          3D

 15 15  0  0  0  0  0  0  0  0999 V2000
    0.9588   -0.1739    0.9815 O   0  0  0  0  0  0  0  0  0  0  0  0
   -3.7699   -0.4122    0.1884 O   0  0  0  0  0  0  0  0  0  0  0  0
   -5.0701    1.1794   -0.8489 O   0  0  0  0  0  0  0  0  0  0  0  0
   -5.9807   -0.7841   -0.0730 N   0  0  0  0  0  0  0  0  0  0  0  0
   -1.4008   -0.2868    0.6019 C   0  0  0  0  0  0  0  0  0  0  0  0
   -0.1378    0.5405    0.4286 C   0  0  0  0  0  0  0  0  0  0  0  0
   -2.6214    0.4076    0.0184 C   0  0  0  0  0  0  0  0  0  0  0  0
    2.1901    0.0537    0.4235 C   0  0  0  0  0  0  0  0  0  0  0  0
    2.9066   -0.9890   -0.1535 C   0  0  0  0  0  0  0  0  0  0  0  0
    2.7100    1.3436    0.4438 C   0  0  0  0  0  0  0  0  0  0  0  0
    4.1580   -0.7394   -0.7168 C   0  0  0  0  0  0  0  0  0  0  0  0
    2.3578   -2.3773   -0.1805 C   0  0  0  0  0  0  0  0  0  0  0  0
    3.9614    1.5934   -0.1197 C   0  0  0  0  0  0  0  0  0  0  0  0
    4.6853    0.5519   -0.6999 C   0  0  0  0  0  0  0  0  0  0  0  0
   -4.9474    0.0926   -0.2939 C   0  0  0  0  0  0  0  0  0  0  0  0
  1  6  1  0
  1  8  1  0
  2  7  1  0
  2 15  1  0
  3 15  2  0
  4 15  1  0
  5  6  1  0
  5  7  1  0
  8  9  2  0
  8 10  1  0
  9 11  1  0
  9 12  1  0
 10 13  2  0
 11 14  2  0
 13 14  1  0
M  END
>  <PUBCHEM_COMPOUND_CID>  (1) 
44608

>  <PUBCHEM_CONFORMER_RMSD>  (1) 
0.8

>  <PUBCHEM_CONFORMER_DIVERSEORDER>  (1) 
1
58
17
107
94
95
49
37
102
8
39
64
72
74
77
60
7
105
43
112
114
40
52
89
70
53
18
2
47
109
73
10
11
110
54
26
25
93
88
36
46
91
115
61
16
67
98
65
83
44
99
6
13
3
104
42
51
81
111
80
27
90
20
84
22
79
66
69
14
29
30
76
21
103
45
19
92
71
50
108
23
97
85
59
12
15
48
32
113
100
34
87
33
57
106
35
38
82
78
31
63
68
5
101
55
96
75
56
62
28
24
41
86
9
4

>  <PUBCHEM_MMFF94_PARTIAL_CHARGES>  (1) 
20
1 -0.36
10 -0.15
11 -0.15
12 0.14
13 -0.15
14 -0.15
15 0.78
2 -0.43
22 0.15
23 0.15
27 0.15
28 0.15
29 0.37
3 -0.57
30 0.37
4 -0.8
6 0.28
7 0.28
8 0.08
9 -0.14

>  <PUBCHEM_EFFECTIVE_ROTOR_COUNT>  (1) 
6

>  <PUBCHEM_PHARMACOPHORE_FEATURES>  (1) 
4
1 1 acceptor
1 3 acceptor
1 4 donor
6 8 9 10 11 13 14 rings

>  <PUBCHEM_HEAVY_ATOM_COUNT>  (1) 
15

>  <PUBCHEM_ATOM_DEF_STEREO_COUNT>  (1) 
0

>  <PUBCHEM_ATOM_UDEF_STEREO_COUNT>  (1) 
0

>  <PUBCHEM_BOND_DEF_STEREO_COUNT>  (1) 
0

>  <PUBCHEM_BOND_UDEF_STEREO_COUNT>  (1) 
0

>  <PUBCHEM_ISOTOPIC_ATOM_COUNT>  (1) 
0

>  <PUBCHEM_COMPONENT_COUNT>  (1) 
1

>  <PUBCHEM_CACTVS_TAUTO_COUNT>  (1) 
2

>  <PUBCHEM_CONFORMER_ID>  (1) 
0000AE4000000001

>  <PUBCHEM_MMFF94_ENERGY>  (1) 
37.1739

>  <PUBCHEM_FEATURE_SELFOVERLAP>  (1) 
20.297

>  <PUBCHEM_SHAPE_FINGERPRINT>  (1) 
10498660 4 17458615654188118829
11287383 113 18260831531277836619
114248 4 18334576854226474385
11471102 20 18412548712926061680
12251169 10 8214140746516579016
12616999 72 18412825780986855722
12730499 353 18334866034121664114
13167823 11 18060416928518012535
13836976 161 18272937133025475654
14123238 8 17095239237693128733
14251717 144 18342461426503164426
14251718 22 18261393377662078475
14528608 73 18410012160637853581
14573314 32 18334856095920639037
15348495 7 10591751122154582543
15375358 24 18113622304301241683
15477762 27 18272093747625043918
15885798 251 12175625074685041123
17834072 33 18342174488180191439
17844677 252 18412550903438926137
18222031 100 15267335224191028089
200 152 17918277536613746777
20369508 70 17560794438067126400
20645477 70 18271811189768266990
21637258 2 15769504115036769156
22289505 5 18334852788542905852
23402539 116 17531245106078321690
23402655 69 18413108355232451512
23503953 91 10809633648411490072
23557571 272 17603302622580043973
23590187 302 18202845452740089304
23596394 208 18335979770549021566
2871803 45 18413112736505164864
29717793 49 17418099784422685244
3060560 45 18413112771170943142
33824 294 18411418406351371650
351380 3 16917348143381127815
4072396 5 18335690642953251274
42 15 10807937067736492577
465052 167 16917073282184567845
4990 188 18334575724486675275
522135 26 18343864407318493954
5281201 14 18334860472038691540
5374978 207 7853576807224073414
5924683 9 8502070960864628553
6327066 14 17904766927592229732

>  <PUBCHEM_SHAPE_MULTIPOLES>  (1) 
286.1
12.8
1.6
0.83
18.74
0.54
-0.01
-0.85
-3.49
-1.72
-0.1
-0.12
-0.06
0.43

>  <PUBCHEM_SHAPE_SELFOVERLAP>  (1) 
578.547

>  <PUBCHEM_SHAPE_VOLUME>  (1) 
167.6

>  <PUBCHEM_COORDINATE_TYPE>  (1) 
2
5
10

$$$$
