44604
     RDKit          3D

 21 21  0  0  1  0  0  0  0  0999 V2000
   -1.1964    0.0056   -0.2479 O   0  0  0  0  0  0  0  0  0  0  0  0
    1.3898    2.5799   -0.0658 O   0  0  0  0  0  0  0  0  0  0  0  0
    1.4431   -0.8417    0.0140 O   0  0  0  0  0  0  0  0  0  0  0  0
   -2.7168    1.5579   -1.0207 O   0  0  0  0  0  0  0  0  0  0  0  0
   -7.1706   -0.7348    0.1537 O   0  0  0  0  0  0  0  0  0  0  0  0
   -5.5417   -2.0993    0.9580 O   0  0  0  0  0  0  0  0  0  0  0  0
   -0.1208    0.8185   -0.7289 C   0  0  0  0  0  0  0  0  0  0  0  0
    0.2989    1.7794    0.3777 C   0  0  0  0  0  0  0  0  0  0  0  0
    1.0231   -0.1040   -1.1290 C   0  0  0  0  0  0  0  0  0  0  0  0
   -3.4636   -0.4701    0.1033 C   0  0  0  0  0  0  0  0  0  0  0  0
   -2.4513    0.5020   -0.4637 C   0  0  0  0  0  0  0  0  0  0  0  0
    1.7807    3.5195    0.9249 C   0  0  0  0  0  0  0  0  0  0  0  0
   -4.9057   -0.0540   -0.1603 C   0  0  0  0  0  0  0  0  0  0  0  0
    2.7568   -1.2270    0.0495 C   0  0  0  0  0  0  0  0  0  0  0  0
    2.9398    4.3383    0.3979 C   0  0  0  0  0  0  0  0  0  0  0  0
    3.4421   -1.4800   -1.1390 C   0  0  0  0  0  0  0  0  0  0  0  0
    3.4097   -1.3667    1.2743 C   0  0  0  0  0  0  0  0  0  0  0  0
   -5.8773   -1.0779    0.3726 C   0  0  0  0  0  0  0  0  0  0  0  0
    4.7799   -1.8730   -1.1027 C   0  0  0  0  0  0  0  0  0  0  0  0
    4.7476   -1.7596    1.3104 C   0  0  0  0  0  0  0  0  0  0  0  0
    5.4326   -2.0128    0.1220 C   0  0  0  0  0  0  0  0  0  0  0  0
  1  7  1  0
  1 11  1  0
  2  8  1  0
  2 12  1  0
  3  9  1  0
  3 14  1  0
  4 11  2  0
  5 18  1  0
  6 18  2  0
  7  8  1  0
  7  9  1  0
 10 11  1  0
 10 13  1  0
 12 15  1  0
 13 18  1  0
 14 16  2  0
 14 17  1  0
 16 19  1  0
 17 20  2  0
 19 21  2  0
 20 21  1  0
M  END
>  <PUBCHEM_COMPOUND_CID>  (1) 
44604

>  <PUBCHEM_CONFORMER_RMSD>  (1) 
1

>  <PUBCHEM_CONFORMER_DIVERSEORDER>  (1) 
6
24
105
89
46
27
70
7
35
36
5
97
118
16
15
54
44
79
90
59
110
71
95
48
96
66
32
75
67
49
121
4
31
115
104
13
50
21
39
102
22
107
117
9
94
43
63
12
28
111
116
101
1
2
120
45
20
23
100
3
30
91
68
81
83
77
80
69
53
60
61
98
10
108
103
11
37
86
82
122
113
47
78
72
33
56
8
87
38
52
41
109
51
76
42
29
106
19
58
17
93
84
25
14
92
55
74
99
112
40
34
64
88
62
119
73
26
85
18
57
65
114

>  <PUBCHEM_MMFF94_PARTIAL_CHARGES>  (1) 
26
1 -0.43
10 0.06
11 0.66
12 0.28
13 0.06
14 0.08
16 -0.15
17 -0.15
18 0.66
19 -0.15
2 -0.56
20 -0.15
21 -0.15
3 -0.36
36 0.15
37 0.15
38 0.15
39 0.15
4 -0.57
40 0.15
41 0.5
5 -0.65
6 -0.57
7 0.28
8 0.28
9 0.28

>  <PUBCHEM_EFFECTIVE_ROTOR_COUNT>  (1) 
11

>  <PUBCHEM_PHARMACOPHORE_FEATURES>  (1) 
7
1 2 acceptor
1 3 acceptor
1 4 acceptor
1 5 acceptor
1 6 acceptor
3 5 6 18 anion
6 14 16 17 19 20 21 rings

>  <PUBCHEM_HEAVY_ATOM_COUNT>  (1) 
21

>  <PUBCHEM_ATOM_DEF_STEREO_COUNT>  (1) 
0

>  <PUBCHEM_ATOM_UDEF_STEREO_COUNT>  (1) 
1

>  <PUBCHEM_BOND_DEF_STEREO_COUNT>  (1) 
0

>  <PUBCHEM_BOND_UDEF_STEREO_COUNT>  (1) 
0

>  <PUBCHEM_ISOTOPIC_ATOM_COUNT>  (1) 
0

>  <PUBCHEM_COMPONENT_COUNT>  (1) 
1

>  <PUBCHEM_CACTVS_TAUTO_COUNT>  (1) 
1

>  <PUBCHEM_CONFORMER_ID>  (1) 
0000AE3C00000006

>  <PUBCHEM_MMFF94_ENERGY>  (1) 
44.9576

>  <PUBCHEM_FEATURE_SELFOVERLAP>  (1) 
35.582

>  <PUBCHEM_SHAPE_FINGERPRINT>  (1) 
12516196 113 18412262805290134218
12661589 4 16588873519944460403
13533116 47 18339364171009472433
13540713 4 18188753025372017509
13540713 5 17701524341547139823
13740256 8 18335986393652387959
13899415 154 18343026605797962964
13955234 65 18268991062654743808
14251764 30 18270122297232870346
14955137 171 18343587308813465326
15927050 60 17909549794239073094
1813 80 18059583438442708476
18222031 100 18343303634897927470
18785283 64 18338230595753777256
20028762 73 18201717388439755751
20369508 70 18409451396690767775
21033648 29 17201899467410600331
21049683 271 18334303097507143852
21344244 78 17918268762180444281
2297311 6 18198066885365065086
23557571 272 17840867370344516204
23559900 14 17895479228069174117
249999 5 18268428117233783344
316301 35 18115029739847619859
3411729 13 18267866266870994008
3421961 26 18409729594829276305
351380 3 18186802457126011131
5104073 3 18268726047010303619
5385378 56 18198340852269989536
59755656 215 18264492969254710628
7495541 125 18407761438734326471
8863177 126 18115317803451914219
9841814 1 18413113865791549900

>  <PUBCHEM_SHAPE_MULTIPOLES>  (1) 
396.95
14.21
3.87
1.14
20.99
6.19
-0.03
-12.87
-2.49
-5.21
-1
-0.93
-0.32
1.16

>  <PUBCHEM_SHAPE_SELFOVERLAP>  (1) 
796.414

>  <PUBCHEM_SHAPE_VOLUME>  (1) 
232.3

>  <PUBCHEM_COORDINATE_TYPE>  (1) 
2
5
10

$$$$
