44609
     RDKit          3D

 16 16  0  0  0  0  0  0  0  0999 V2000
    5.6022    1.8397   -0.2065 Cl  0  0  0  0  0  0  0  0  0  0  0  0
   -1.5653    0.4855    0.0156 O   0  0  0  0  0  0  0  0  0  0  0  0
   -0.4986   -1.5302    0.1829 O   0  0  0  0  0  0  0  0  0  0  0  0
   -3.9615    0.7563    0.1011 N   0  0  0  0  0  0  0  0  0  0  0  0
    0.6690    0.4891   -0.0148 N   0  0  0  0  0  0  0  0  0  0  0  0
   -5.2366    0.0656    0.2468 C   0  0  0  0  0  0  0  0  0  0  0  0
   -5.4431   -0.9128   -0.9061 C   0  0  0  0  0  0  0  0  0  0  0  0
   -6.3652    1.0901    0.3048 C   0  0  0  0  0  0  0  0  0  0  0  0
   -2.8392   -0.1826    0.0941 C   0  0  0  0  0  0  0  0  0  0  0  0
    2.0252    0.0914    0.0026 C   0  0  0  0  0  0  0  0  0  0  0  0
   -0.4533   -0.3112    0.0720 C   0  0  0  0  0  0  0  0  0  0  0  0
    3.0177    1.0533   -0.0984 C   0  0  0  0  0  0  0  0  0  0  0  0
    2.3358   -1.2543    0.1189 C   0  0  0  0  0  0  0  0  0  0  0  0
    4.3556    0.6595   -0.0823 C   0  0  0  0  0  0  0  0  0  0  0  0
    3.6737   -1.6481    0.1349 C   0  0  0  0  0  0  0  0  0  0  0  0
    4.6837   -0.6913    0.0343 C   0  0  0  0  0  0  0  0  0  0  0  0
  1 14  1  0
  2  9  1  0
  2 11  1  0
  3 11  2  0
  4  6  1  0
  4  9  1  0
  5 10  1  0
  5 11  1  0
  6  7  1  0
  6  8  1  0
 10 12  2  0
 10 13  1  0
 12 14  1  0
 13 15  2  0
 14 16  2  0
 15 16  1  0
M  END
>  <PUBCHEM_COMPOUND_CID>  (1) 
44609

>  <PUBCHEM_CONFORMER_RMSD>  (1) 
0.8

>  <PUBCHEM_CONFORMER_DIVERSEORDER>  (1) 
1
45
34
7
41
29
42
9
38
46
37
36
49
22
39
4
27
43
3
44
14
33
12
18
47
2
26
31
5
11
17
19
25
6
30
28
32
40
48
13
15
10
21
23
50
8
35
16
20
24

>  <PUBCHEM_MMFF94_PARTIAL_CHARGES>  (1) 
20
1 -0.18
10 0.12
11 0.78
12 -0.15
13 -0.15
14 0.18
15 -0.15
16 -0.15
18 0.36
2 -0.43
27 0.37
28 0.15
29 0.15
3 -0.57
30 0.15
31 0.15
4 -0.9
5 -0.55
6 0.27
9 0.55

>  <PUBCHEM_EFFECTIVE_ROTOR_COUNT>  (1) 
6

>  <PUBCHEM_PHARMACOPHORE_FEATURES>  (1) 
6
1 3 acceptor
1 4 cation
1 4 donor
1 5 donor
3 6 7 8 hydrophobe
6 10 12 13 14 15 16 rings

>  <PUBCHEM_HEAVY_ATOM_COUNT>  (1) 
16

>  <PUBCHEM_ATOM_DEF_STEREO_COUNT>  (1) 
0

>  <PUBCHEM_ATOM_UDEF_STEREO_COUNT>  (1) 
0

>  <PUBCHEM_BOND_DEF_STEREO_COUNT>  (1) 
0

>  <PUBCHEM_BOND_UDEF_STEREO_COUNT>  (1) 
0

>  <PUBCHEM_ISOTOPIC_ATOM_COUNT>  (1) 
0

>  <PUBCHEM_COMPONENT_COUNT>  (1) 
1

>  <PUBCHEM_CACTVS_TAUTO_COUNT>  (1) 
2

>  <PUBCHEM_CONFORMER_ID>  (1) 
0000AE4100000001

>  <PUBCHEM_MMFF94_ENERGY>  (1) 
29.2875

>  <PUBCHEM_FEATURE_SELFOVERLAP>  (1) 
30.446

>  <PUBCHEM_SHAPE_FINGERPRINT>  (1) 
10595046 47 18342174466810791417
10912923 1 18202284680324453243
11287383 113 18187086169547879547
11471102 20 18409167710407260146
12107183 9 17549266934791497179
12236239 1 18201719552780291135
13167372 99 18340771421133525193
13167823 11 18343016688396781687
13533116 47 18201439138845482770
14123238 8 18059856168834225743
1420 363 17676213459595834747
14251718 22 18201719587103112679
14251732 16 18337674225731957835
14251764 18 18408317792424953338
14528608 73 18342738541581524716
15048467 5 18410856585731788464
17834072 33 18343862234017608399
17834076 25 18272089409507562916
19427546 62 18261959660626283026
19489759 90 14851599978045401061
200 152 18201719557201962963
20281389 69 18261394408718506281
20621476 66 18343025450520319337
20645477 70 18339643343762652854
21267235 1 18338522937393021894
212847 35 18343863312170561424
220451 1 17918277558595089159
23081809 10 18201997720869606119
23402539 116 18202559571422215093
23402655 69 18342174496627896166
23536379 177 18341895169456353075
29717793 49 17846503599849453654
300161 21 18412821395872517773
3545911 37 18335423482580408660
4047638 21 18259987080889137114
4073 2 18113905999976868459
42788 4 18410856547298219665
4340502 62 16732702748701927314
5104073 3 18334574676451514682
522135 26 18409449163819599954
5374978 207 18260261937210598472
542803 24 17561366175581598713
6025842 7 18413110542093875262
7062679 117 18271804683473042935
7495541 125 17489298724488257699
8272917 22 18342179929999123470

>  <PUBCHEM_SHAPE_MULTIPOLES>  (1) 
309.44
15.7
1.57
0.67
16.12
0.06
-0.05
-4.5
-0.72
-1.64
-0.01
0.29
0.04
-0.73

>  <PUBCHEM_SHAPE_SELFOVERLAP>  (1) 
614.768

>  <PUBCHEM_SHAPE_VOLUME>  (1) 
184.6

>  <PUBCHEM_COORDINATE_TYPE>  (1) 
2
5
10

$$$$
