44605
     RDKit          3D

 20 21  0  0  1  0  0  0  0  0999 V2000
    0.5204    1.0589    0.4531 O   0  0  0  0  0  0  0  0  0  0  0  0
    1.3985   -0.2369   -1.2140 O   0  0  0  0  0  0  0  0  0  0  0  0
   -3.6369    0.3076    0.0136 N   0  0  0  0  0  0  0  0  0  0  0  0
    2.7168    0.5984    0.5309 N   0  0  0  0  0  0  0  0  0  0  0  0
   -4.9698    0.1948   -0.6225 C   0  0  0  0  0  0  0  0  0  0  0  0
   -5.4143   -1.2810   -0.6752 C   0  0  0  0  0  0  0  0  0  0  0  0
   -3.6446   -0.2656    1.3711 C   0  0  0  0  0  0  0  0  0  0  0  0
   -5.4055   -1.9274    0.7040 C   0  0  0  0  0  0  0  0  0  0  0  0
   -4.0481   -1.7382    1.3628 C   0  0  0  0  0  0  0  0  0  0  0  0
   -3.1615    1.6927    0.0796 C   0  0  0  0  0  0  0  0  0  0  0  0
   -4.9922    0.7518   -2.0531 C   0  0  0  0  0  0  0  0  0  0  0  0
   -1.7628    1.7440    0.6860 C   0  0  0  0  0  0  0  0  0  0  0  0
   -0.7613    0.9615   -0.1525 C   0  0  0  0  0  0  0  0  0  0  0  0
    1.5491    0.4040   -0.1810 C   0  0  0  0  0  0  0  0  0  0  0  0
    4.0082    0.1048    0.2365 C   0  0  0  0  0  0  0  0  0  0  0  0
    5.0623    0.4132    1.0819 C   0  0  0  0  0  0  0  0  0  0  0  0
    4.1953   -0.6786   -0.8915 C   0  0  0  0  0  0  0  0  0  0  0  0
    6.3366   -0.0742    0.7916 C   0  0  0  0  0  0  0  0  0  0  0  0
    5.4697   -1.1660   -1.1815 C   0  0  0  0  0  0  0  0  0  0  0  0
    6.5403   -0.8637   -0.3399 C   0  0  0  0  0  0  0  0  0  0  0  0
  1 13  1  0
  1 14  1  0
  2 14  2  0
  3  5  1  0
  3  7  1  0
  3 10  1  0
  4 14  1  0
  4 15  1  0
  5  6  1  0
  5 11  1  0
  6  8  1  0
  7  9  1  0
  8  9  1  0
 10 12  1  0
 12 13  1  0
 15 16  2  0
 15 17  1  0
 16 18  1  0
 17 19  2  0
 18 20  2  0
 19 20  1  0
M  END
>  <PUBCHEM_COMPOUND_CID>  (1) 
44605

>  <PUBCHEM_CONFORMER_RMSD>  (1) 
0.8

>  <PUBCHEM_CONFORMER_DIVERSEORDER>  (1) 
7
215
201
147
466
435
1
437
53
179
306
418
156
460
333
157
21
362
408
166
394
232
457
305
81
323
391
60
209
417
172
375
139
328
250
275
360
405
64
255
312
346
263
325
128
318
174
348
94
402
387
465
239
193
456
446
283
338
132
351
177
356
62
455
10
432
184
44
410
120
329
133
136
317
297
101
374
137
52
398
291
234
468
98
400
66
339
148
449
74
438
319
321
426
272
205
386
252
169
358
254
389
414
388
284
189
13
143
440
315
411
332
131
41
241
146
296
298
279
288
223
458
407
450
341
97
51
364
433
301
270
6
71
203
16
227
89
47
34
353
164
15
443
326
268
261
372
264
251
248
368
292
314
108
269
151
451
77
470
293
365
390
230
118
116
425
84
266
153
95
320
142
282
76
289
202
343
412
162
26
206
367
454
281
85
393
178
399
9
199
119
176
208
467
24
45
125
395
350
419
430
224
337
463
311
79
231
262
175
69
127
228
294
141
403
149
436
256
216
126
56
381
243
160
304
181
397
106
113
434
396
290
61
259
461
376
331
111
170
379
229
57
109
221
421
183
20
242
347
135
342
384
58
222
59
295
373
67
46
112
427
92
313
366
385
416
336
200
18
86
82
422
104
258
214
354
274
190
158
237
91
22
78
138
87
280
17
171
371
226
154
287
213
406
278
352
152
72
102
8
185
445
448
378
65
12
124
73
404
134
159
357
244
180
423
322
249
276
327
424
344
383
99
471
40
233
380
340
88
165
198
129
307
439
219
55
273
123
382
345
236
144
145
302
194
428
155
161
36
349
117
363
330
39
122
285
415
377
2
100
462
115
191
361
31
48
447
83
303
93
33
265
49
27
105
240
452
14
173
247
309
441
225
196
186
29
150
335
392
32
316
334
238
195
37
42
4
218
260
253
204
63
3
245
355
246
459
235
420
80
188
442
207
19
444
121
324
90
23
277
220
409
300
30
28
299
163
267
431
25
464
11
453
50
75
401
310
413
35
38
114
70
271
370
429
182
110
369
210
257
192
5
197
308
212
107
54
187
96
469
43
167
68
168
217
140
359
103
286
211
130

>  <PUBCHEM_MMFF94_PARTIAL_CHARGES>  (1) 
21
1 -0.43
10 0.27
13 0.28
14 0.78
15 0.12
16 -0.15
17 -0.15
18 -0.15
19 -0.15
2 -0.57
20 -0.15
3 -0.81
39 0.37
4 -0.55
40 0.15
41 0.15
42 0.15
43 0.15
44 0.15
5 0.27
7 0.27

>  <PUBCHEM_EFFECTIVE_ROTOR_COUNT>  (1) 
8.2

>  <PUBCHEM_PHARMACOPHORE_FEATURES>  (1) 
5
1 2 acceptor
1 3 cation
1 4 donor
6 15 16 17 18 19 20 rings
6 3 5 6 7 8 9 rings

>  <PUBCHEM_HEAVY_ATOM_COUNT>  (1) 
20

>  <PUBCHEM_ATOM_DEF_STEREO_COUNT>  (1) 
0

>  <PUBCHEM_ATOM_UDEF_STEREO_COUNT>  (1) 
1

>  <PUBCHEM_BOND_DEF_STEREO_COUNT>  (1) 
0

>  <PUBCHEM_BOND_UDEF_STEREO_COUNT>  (1) 
0

>  <PUBCHEM_ISOTOPIC_ATOM_COUNT>  (1) 
0

>  <PUBCHEM_COMPONENT_COUNT>  (1) 
1

>  <PUBCHEM_CACTVS_TAUTO_COUNT>  (1) 
2

>  <PUBCHEM_CONFORMER_ID>  (1) 
0000AE3D00000007

>  <PUBCHEM_MMFF94_ENERGY>  (1) 
35.0298

>  <PUBCHEM_FEATURE_SELFOVERLAP>  (1) 
25.372

>  <PUBCHEM_SHAPE_FINGERPRINT>  (1) 
10803635 8 17603580829455874539
11089746 13 15719392845808411700
11315181 36 18333733519996898777
13782708 43 18129669574326476222
1420 363 18272371970884081196
14251752 14 16732696143110868674
14251764 18 16917062266479630958
14341114 328 14692577641005127499
14461889 52 18340198679329344026
14848160 23 18410572898672457418
14849402 71 14835542783237528730
15183329 4 14129053720928458218
15188451 53 18335416876799336322
15716309 27 17275103929100703876
15880784 105 17203605999619469003
17780758 139 15841551895037586463
17844677 252 17632580427100820640
17857418 61 17676202459941938274
17870717 6 18113336419157904779
18222031 100 18041000639919734900
18927931 339 18341900684194393581
19377110 9 15267344015651238806
19489759 90 18113898247639649589
20281389 69 8862941675751567548
21054139 6 17894631465796901402
21150785 3 17531253885191785678
21307412 95 17897439718049336619
21623969 137 17632863010273642814
21682296 61 17703237196064159742
21756936 100 11527943448292455077
220451 1 17603868862457386240
2303208 19 17775294820367123780
23198884 109 14996281436005328595
23402539 116 15791450413533164812
23402655 69 14418135114774740032
23559900 14 18261668276817662049
25122255 55 18411709780673954622
2916195 48 9007052452774723580
29717793 49 16008749066417344042
328310 630 13262693512395372518
3663271 9 14908179755109538502
4073 2 18343025445650209128
474229 33 17989484121668546878
5104073 3 17560241302367203730
531348 171 16878494627749083817
5718773 13 18197495337072265839
7495541 125 17918272073900915904

>  <PUBCHEM_SHAPE_MULTIPOLES>  (1) 
389.89
18.72
1.65
1.41
13.29
0.24
0.3
7.2
1.8
-2.5
-0.27
-0.78
0.09
1.72

>  <PUBCHEM_SHAPE_SELFOVERLAP>  (1) 
793.254

>  <PUBCHEM_SHAPE_VOLUME>  (1) 
225.9

>  <PUBCHEM_COORDINATE_TYPE>  (1) 
2
5
10

$$$$
