44617
     RDKit          3D

 16 18  0  0  0  0  0  0  0  0999 V2000
   -0.5651   -1.2317    0.2554 N   0  0  0  0  0  0  0  0  0  0  0  0
    4.2631    1.4424   -0.1883 N   0  0  0  0  0  0  0  0  0  0  0  0
   -1.4514   -0.2003    0.1370 C   0  0  0  0  0  0  0  0  0  0  0  0
   -0.7422    0.9720   -0.0224 C   0  0  0  0  0  0  0  0  0  0  0  0
   -2.9302   -0.3340    0.2044 C   0  0  0  0  0  0  0  0  0  0  0  0
   -1.4133    2.2916   -0.1961 C   0  0  0  0  0  0  0  0  0  0  0  0
   -3.5924    0.9576   -0.3107 C   0  0  0  0  0  0  0  0  0  0  0  0
   -2.8945    2.2225    0.2242 C   0  0  0  0  0  0  0  0  0  0  0  0
    0.6411    0.6369   -0.0079 C   0  0  0  0  0  0  0  0  0  0  0  0
    0.7236   -0.7488    0.1687 C   0  0  0  0  0  0  0  0  0  0  0  0
   -0.9179   -2.6219    0.4523 C   0  0  0  0  0  0  0  0  0  0  0  0
    1.8356    1.3755   -0.1295 C   0  0  0  0  0  0  0  0  0  0  0  0
    1.9451   -1.4290    0.2322 C   0  0  0  0  0  0  0  0  0  0  0  0
    3.0634    0.7067   -0.0679 C   0  0  0  0  0  0  0  0  0  0  0  0
   -1.0799   -3.3658   -0.8622 C   0  0  0  0  0  0  0  0  0  0  0  0
    3.1149   -0.6739    0.1107 C   0  0  0  0  0  0  0  0  0  0  0  0
  1  3  1  0
  1 10  1  0
  1 11  1  0
  2 14  1  0
  3  4  2  0
  3  5  1  0
  4  6  1  0
  4  9  1  0
  5  7  1  0
  6  8  1  0
  7  8  1  0
  9 10  2  0
  9 12  1  0
 10 13  1  0
 11 15  1  0
 12 14  2  0
 13 16  2  0
 14 16  1  0
M  END
>  <PUBCHEM_COMPOUND_CID>  (1) 
44617

>  <PUBCHEM_CONFORMER_RMSD>  (1) 
0.6

>  <PUBCHEM_CONFORMER_DIVERSEORDER>  (1) 
1

>  <PUBCHEM_MMFF94_PARTIAL_CHARGES>  (1) 
17
1 0.05
10 -0.15
11 0.26
12 -0.15
13 -0.15
14 0.1
16 -0.15
2 -0.9
27 0.15
28 0.15
3 -0.33
32 0.15
33 0.4
34 0.4
4 -0.18
5 0.18
6 0.18

>  <PUBCHEM_EFFECTIVE_ROTOR_COUNT>  (1) 
1.8

>  <PUBCHEM_PHARMACOPHORE_FEATURES>  (1) 
6
1 1 cation
1 2 cation
1 2 donor
5 1 3 4 9 10 rings
6 3 4 5 6 7 8 rings
6 9 10 12 13 14 16 rings

>  <PUBCHEM_HEAVY_ATOM_COUNT>  (1) 
16

>  <PUBCHEM_ATOM_DEF_STEREO_COUNT>  (1) 
0

>  <PUBCHEM_ATOM_UDEF_STEREO_COUNT>  (1) 
0

>  <PUBCHEM_BOND_DEF_STEREO_COUNT>  (1) 
0

>  <PUBCHEM_BOND_UDEF_STEREO_COUNT>  (1) 
0

>  <PUBCHEM_ISOTOPIC_ATOM_COUNT>  (1) 
0

>  <PUBCHEM_COMPONENT_COUNT>  (1) 
1

>  <PUBCHEM_CACTVS_TAUTO_COUNT>  (1) 
1

>  <PUBCHEM_CONFORMER_ID>  (1) 
0000AE4900000001

>  <PUBCHEM_MMFF94_ENERGY>  (1) 
33.8231

>  <PUBCHEM_FEATURE_SELFOVERLAP>  (1) 
30.621

>  <PUBCHEM_SHAPE_FINGERPRINT>  (1) 
1 1 18122062001016394159
10411042 1 17545603813109717770
10608611 8 18409165485224349856
10967382 1 18337390444046520857
11578080 2 17057518437981053747
12173636 292 18411416176830958581
12500047 106 18412258463072884280
12553582 1 17617665796350891162
13140716 1 17977390764925780361
13380535 76 18411135822972203830
14144814 61 18335985285419112792
14178342 30 18265316482436789530
14325111 11 18337110068513203977
14648413 74 17689156712651074761
14897335 6 18408882940942863008
15042514 8 18336830912956145843
15196674 1 18408604729904037417
15309172 13 18338806615207777865
15442244 35 18048594820355469664
15536298 74 18340768139883576996
15669948 3 18337668732431888922
15775835 57 18410297973378818561
16087824 20 18339079428238278903
16945 1 18339077197989111672
18186145 218 18268714904847317852
193761 8 17833833050994343073
19591789 44 18338520729078406675
20510252 161 18343025479952159289
20645476 183 17531832219349231206
20645477 70 18120366554666631853
20871998 184 18269002040696510575
21160774 45 18336537317924039231
21501502 16 18409726223137355232
21524375 3 18335699386499207379
2334 1 18409729517282449113
23402539 116 18342167925554617919
23419403 2 16391771921068881013
23463225 33 18045780091915474042
23557571 272 18126860514989642180
23559900 14 18271810151367356496
238 59 17250294373012681853
2748010 2 18264494996341487621
3071541 12 17763749793245111585
3091708 16 9053073616094445971
352729 6 18410857629303255499
5104073 3 18335985281066156536
54173680 148 18265053724305452035
633830 44 18129102208434576397
69090 78 18410007732384042467
7364860 26 17836364839710171871
81228 2 18120644988352770907
8272917 22 17980199687055366133
9709674 26 18342181089608410998

>  <PUBCHEM_SHAPE_MULTIPOLES>  (1) 
319.31
5.62
3.11
0.7
2.2
2.17
0.03
-3.16
0.17
-1.3
0.43
-0.09
0.19
-0.23

>  <PUBCHEM_SHAPE_SELFOVERLAP>  (1) 
694.478

>  <PUBCHEM_SHAPE_VOLUME>  (1) 
176.4

>  <PUBCHEM_COORDINATE_TYPE>  (1) 
2
5
10

$$$$
