44615
     RDKit          3D

 17 19  0  0  0  0  0  0  0  0999 V2000
    3.2456   -0.6950   -0.5197 O   0  0  0  0  0  0  0  0  0  0  0  0
   -1.6201    1.7225    0.2558 N   0  0  0  0  0  0  0  0  0  0  0  0
    3.2860    2.0708   -0.0793 N   0  0  0  0  0  0  0  0  0  0  0  0
   -1.7077   -0.4778   -0.0828 C   0  0  0  0  0  0  0  0  0  0  0  0
   -2.4619    0.6532    0.1501 C   0  0  0  0  0  0  0  0  0  0  0  0
   -2.3245   -1.8229   -0.2641 C   0  0  0  0  0  0  0  0  0  0  0  0
   -3.9398    0.7128    0.2976 C   0  0  0  0  0  0  0  0  0  0  0  0
   -3.7833   -1.8382    0.2332 C   0  0  0  0  0  0  0  0  0  0  0  0
   -4.5667   -0.5933   -0.2248 C   0  0  0  0  0  0  0  0  0  0  0  0
   -0.3430   -0.0765   -0.1290 C   0  0  0  0  0  0  0  0  0  0  0  0
   -0.3166    1.3058    0.0871 C   0  0  0  0  0  0  0  0  0  0  0  0
    0.8768   -0.7521   -0.3359 C   0  0  0  0  0  0  0  0  0  0  0  0
    0.8731    2.0426    0.1088 C   0  0  0  0  0  0  0  0  0  0  0  0
    2.0730   -0.0263   -0.3174 C   0  0  0  0  0  0  0  0  0  0  0  0
    2.0690    1.3493   -0.0980 C   0  0  0  0  0  0  0  0  0  0  0  0
    3.5672   -1.7291    0.4066 C   0  0  0  0  0  0  0  0  0  0  0  0
    5.0729   -1.8459    0.5119 C   0  0  0  0  0  0  0  0  0  0  0  0
  1 14  1  0
  1 16  1  0
  2  5  1  0
  2 11  1  0
  3 15  1  0
  4  5  2  0
  4  6  1  0
  4 10  1  0
  5  7  1  0
  6  8  1  0
  7  9  1  0
  8  9  1  0
 10 11  2  0
 10 12  1  0
 11 13  1  0
 12 14  2  0
 13 15  2  0
 14 15  1  0
 16 17  1  0
M  END
>  <PUBCHEM_COMPOUND_CID>  (1) 
44615

>  <PUBCHEM_CONFORMER_RMSD>  (1) 
0.6

>  <PUBCHEM_CONFORMER_DIVERSEORDER>  (1) 
1
3
2
4

>  <PUBCHEM_MMFF94_PARTIAL_CHARGES>  (1) 
18
1 -0.36
11 -0.15
12 -0.15
13 -0.15
14 0.08
15 0.1
16 0.28
2 0.03
26 0.27
27 0.15
28 0.15
29 0.4
3 -0.9
30 0.4
4 -0.18
5 -0.33
6 0.18
7 0.18

>  <PUBCHEM_EFFECTIVE_ROTOR_COUNT>  (1) 
2.8

>  <PUBCHEM_PHARMACOPHORE_FEATURES>  (1) 
8
1 1 acceptor
1 2 cation
1 2 donor
1 3 cation
1 3 donor
5 2 4 5 10 11 rings
6 10 11 12 13 14 15 rings
6 4 5 6 7 8 9 rings

>  <PUBCHEM_HEAVY_ATOM_COUNT>  (1) 
17

>  <PUBCHEM_ATOM_DEF_STEREO_COUNT>  (1) 
0

>  <PUBCHEM_ATOM_UDEF_STEREO_COUNT>  (1) 
0

>  <PUBCHEM_BOND_DEF_STEREO_COUNT>  (1) 
0

>  <PUBCHEM_BOND_UDEF_STEREO_COUNT>  (1) 
0

>  <PUBCHEM_ISOTOPIC_ATOM_COUNT>  (1) 
0

>  <PUBCHEM_COMPONENT_COUNT>  (1) 
1

>  <PUBCHEM_CACTVS_TAUTO_COUNT>  (1) 
1

>  <PUBCHEM_CONFORMER_ID>  (1) 
0000AE4700000001

>  <PUBCHEM_MMFF94_ENERGY>  (1) 
45.2621

>  <PUBCHEM_FEATURE_SELFOVERLAP>  (1) 
40.77

>  <PUBCHEM_SHAPE_FINGERPRINT>  (1) 
10062212 137 18343298167689402679
10608611 8 18340486768033937493
10616163 171 18125163989654120295
10967382 1 18268431411320146717
11471102 20 18340203089601509869
11578080 2 17749933497845785116
11769659 78 18410855477344960789
11806522 49 18334857204211975242
12032990 46 18410016563295725931
12251169 10 18341612573171547990
12555020 224 18337099108500580431
13140716 1 18413673499908919113
13288520 33 18338800005469594846
13296908 3 18337392737870286739
13690532 89 18410292489032297871
14178342 30 17843131307197501562
14576447 43 17840859991300583911
15196674 1 18411702114684384095
15375462 189 18114463345029473970
15442244 35 18411984650138436137
15536298 74 18342459274392148832
16945 1 18198073490333585061
17492 89 18337391672481813155
17804303 29 18341898458910762692
1813 80 17530678793450415924
18186145 218 17676199195687840511
19422 9 18411142454412199921
200 152 18060132159501638023
20281475 54 18410295843338472013
20645477 70 18413108385360818807
21267235 1 18411146822225544111
21501502 16 18340774818188580577
21501925 9 18413101762789883634
221490 88 18263088854161319994
2255824 54 18187652435590638710
2297311 6 18128544765362399486
23366157 5 18115026424116867348
23402539 116 18271516490855809727
23463225 33 18411984675776195813
23559900 14 18410851070946028408
23622692 118 18129647729395042319
25147074 1 18339096916495691044
2748010 2 18341331183983556613
335352 9 18338798906026396253
34934 24 18198901598751472853
5104073 3 18342745143389345083
559249 180 18116989983826430355
5902787 121 18410572864603031754
633830 44 16660365891727535221
67856867 119 18336545023301473020
7364860 26 18341612659408653496
76465 3 18411694404954740023
8809292 202 18334862731513352819
9709674 26 18190463946641499067
9981440 41 17615124825089962216

>  <PUBCHEM_SHAPE_MULTIPOLES>  (1) 
334.02
8.7
2.37
0.68
1.98
0.18
0.01
-4.75
0.84
1.19
0.19
0.08
-0.07
-0.49

>  <PUBCHEM_SHAPE_SELFOVERLAP>  (1) 
724.914

>  <PUBCHEM_SHAPE_VOLUME>  (1) 
184.7

>  <PUBCHEM_COORDINATE_TYPE>  (1) 
2
5
10

$$$$
