4461
     RDKit          3D

 31 32  0  0  0  0  0  0  0  0999 V2000
   -1.0379    1.8100   -0.0966 O   0  0  0  0  0  0  0  0  0  0  0  0
   -5.7133   -2.5813    0.2982 O   0  0  0  0  0  0  0  0  0  0  0  0
    4.7549   -0.9542    0.4884 O   0  0  0  0  0  0  0  0  0  0  0  0
   -2.9651   -2.7398   -0.6691 N   0  0  0  0  0  0  0  0  0  0  0  0
    1.6126    2.7190   -0.8608 N   0  0  0  0  0  0  0  0  0  0  0  0
   -0.3370   -0.3525   -0.6169 N   0  0  0  0  0  0  0  0  0  0  0  0
   -5.7497   -0.4044   -0.4364 N   0  0  0  0  0  0  0  0  0  0  0  0
    4.8015    1.2827   -0.2475 N   0  0  0  0  0  0  0  0  0  0  0  0
   -5.7447    1.6668    2.0149 N   0  0  0  0  0  0  0  0  0  0  0  0
    7.3954   -1.1412    0.6695 N   0  0  0  0  0  0  0  0  0  0  0  0
   -7.6021    2.6857    0.9737 N   0  0  0  0  0  0  0  0  0  0  0  0
    9.6367   -0.2971    0.4853 N   0  0  0  0  0  0  0  0  0  0  0  0
    9.2539   -2.4340    1.1791 N   0  0  0  0  0  0  0  0  0  0  0  0
   -3.6468   -1.6204   -0.3498 C   0  0  0  0  0  0  0  0  0  0  0  0
   -1.5156   -1.0599   -0.5702 C   0  0  0  0  0  0  0  0  0  0  0  0
    1.2628    1.4784   -0.4696 C   0  0  0  0  0  0  0  0  0  0  0  0
   -2.8080   -0.5597   -0.2756 C   0  0  0  0  0  0  0  0  0  0  0  0
   -1.6422   -2.4105   -0.8096 C   0  0  0  0  0  0  0  0  0  0  0  0
    3.4703    1.5893   -0.4081 C   0  0  0  0  0  0  0  0  0  0  0  0
    2.3587    0.7413   -0.1795 C   0  0  0  0  0  0  0  0  0  0  0  0
   -0.1366    1.0257   -0.3851 C   0  0  0  0  0  0  0  0  0  0  0  0
    2.9800    2.8059   -0.8286 C   0  0  0  0  0  0  0  0  0  0  0  0
   -5.0984   -1.5988   -0.1206 C   0  0  0  0  0  0  0  0  0  0  0  0
   -3.5032   -4.0708   -0.8449 C   0  0  0  0  0  0  0  0  0  0  0  0
    0.7302    3.7971   -1.2498 C   0  0  0  0  0  0  0  0  0  0  0  0
   -7.1718   -0.2419   -0.2947 C   0  0  0  0  0  0  0  0  0  0  0  0
   -7.5608    0.2728    1.0848 C   0  0  0  0  0  0  0  0  0  0  0  0
    5.3633    0.0648    0.1780 C   0  0  0  0  0  0  0  0  0  0  0  0
   -6.9480    1.6338    1.3604 C   0  0  0  0  0  0  0  0  0  0  0  0
    6.8755    0.1470    0.2189 C   0  0  0  0  0  0  0  0  0  0  0  0
    8.6854   -1.2535    0.7622 C   0  0  0  0  0  0  0  0  0  0  0  0
  1 21  2  0
  2 23  2  0
  3 28  2  0
  4 14  1  0
  4 18  1  0
  4 24  1  0
  5 16  1  0
  5 22  1  0
  5 25  1  0
  6 15  1  0
  6 21  1  0
  7 23  1  0
  7 26  1  0
  8 19  1  0
  8 28  1  0
  9 29  1  0
 10 30  1  0
 10 31  2  3
 11 29  2  0
 12 31  1  0
 13 31  1  0
 14 17  2  0
 14 23  1  0
 15 17  1  0
 15 18  2  0
 16 20  2  0
 16 21  1  0
 19 20  1  0
 19 22  2  0
 26 27  1  0
 27 29  1  0
 28 30  1  0
M  END
>  <PUBCHEM_COMPOUND_CID>  (1) 
4461

>  <PUBCHEM_CONFORMER_RMSD>  (1) 
1.2

>  <PUBCHEM_CONFORMER_DIVERSEORDER>  (1) 
1
36
46
21
39
27
42
35
38
19
7
29
26
9
30
28
23
45
10
44
5
34
31
11
22
17
32
33
16
15
14
41
37
20
13
24
18
4
2
12
40
43
3
25
6
8

>  <PUBCHEM_MMFF94_PARTIAL_CHARGES>  (1) 
45
1 -0.57
10 -0.7
11 -0.85
12 -0.85
13 -0.85
14 -0.24
15 0.06
16 -0.24
17 -0.15
18 -0.3
19 0.06
2 -0.57
20 -0.15
21 0.71
22 -0.3
23 0.71
24 0.26
25 0.26
26 0.3
27 0.06
28 0.57
29 0.44
3 -0.57
30 0.31
31 0.55
32 0.15
33 0.15
34 0.37
35 0.15
36 0.15
4 0.05
45 0.37
46 0.37
5 0.05
51 0.4
52 0.4
53 0.4
54 0.4
55 0.4
56 0.4
57 0.4
6 -0.49
7 -0.73
8 -0.49
9 -0.85

>  <PUBCHEM_EFFECTIVE_ROTOR_COUNT>  (1) 
12

>  <PUBCHEM_PHARMACOPHORE_FEATURES>  (1) 
16
1 1 acceptor
1 11 donor
1 12 donor
1 13 donor
1 2 acceptor
1 3 acceptor
1 4 cation
1 5 cation
1 6 donor
1 7 donor
1 8 donor
1 9 donor
3 9 11 29 cation
4 10 12 13 31 cation
5 4 14 15 17 18 rings
5 5 16 19 20 22 rings

>  <PUBCHEM_HEAVY_ATOM_COUNT>  (1) 
31

>  <PUBCHEM_ATOM_DEF_STEREO_COUNT>  (1) 
0

>  <PUBCHEM_ATOM_UDEF_STEREO_COUNT>  (1) 
0

>  <PUBCHEM_BOND_DEF_STEREO_COUNT>  (1) 
0

>  <PUBCHEM_BOND_UDEF_STEREO_COUNT>  (1) 
0

>  <PUBCHEM_ISOTOPIC_ATOM_COUNT>  (1) 
0

>  <PUBCHEM_COMPONENT_COUNT>  (1) 
1

>  <PUBCHEM_CACTVS_TAUTO_COUNT>  (1) 
16

>  <PUBCHEM_CONFORMER_ID>  (1) 
0000116D00000001

>  <PUBCHEM_MMFF94_ENERGY>  (1) 
63.5359

>  <PUBCHEM_FEATURE_SELFOVERLAP>  (1) 
81.296

>  <PUBCHEM_SHAPE_FINGERPRINT>  (1) 
10076449 9 13407084686289804245
10429389 143 13901912185236374083
10533779 1 17487632823688920625
10622 236 17624679546997475166
10674148 151 18334853931494330234
11103572 95 18060138700822096382
11211813 15 12175616270281775837
11973863 73 17822565002561576712
12104220 1 18201999889923900377
12107183 9 18410576206034632663
12144603 126 18335708273826032948
12592606 108 18336540620358945927
12717326 25 17603594040759707163
12758862 56 18260822739537784994
13073987 5 18051413165157792151
13383668 254 16557880417915069840
13690498 29 17821996611042704156
14347424 109 18271804670672731824
14420673 8 18261388991910262359
14428016 545 18408885114206994189
14767858 380 9511460009429706057
15021287 119 17821731671806731557
15183329 4 18334852853283406685
15392192 29 18186808002303044506
15419008 145 18409451354422284889
15776043 110 18261115158223158339
16120349 21 18410011030924343572
19246450 95 18341336613138866275
20609170 114 14044870751240536550
21130935 74 18266737077071690394
21267235 1 18333729122735923052
21585482 57 10159684807968637402
22149856 69 18343299272382130600
23522609 53 18043838547702583517
23559900 14 18192422198409696596
23569943 247 17459167664854582531
2838139 119 18131633422479206093
3504750 166 18270674385340386799
4353968 344 18130780192977043839
444769 64 18333732408011579017
44575985 391 17976536110555960461
6058803 2 17978798127061737965
6299153 45 18411706469902697721
6691757 9 17703799123894622099

>  <PUBCHEM_SHAPE_MULTIPOLES>  (1) 
570.55
27.22
4.02
1.14
34.04
0.15
-0.29
8.59
-14.11
-2.65
1.06
-0.92
-0.37
-4.6

>  <PUBCHEM_SHAPE_SELFOVERLAP>  (1) 
1197.162

>  <PUBCHEM_SHAPE_VOLUME>  (1) 
321.3

>  <PUBCHEM_COORDINATE_TYPE>  (1) 
2
5
10

$$$$
