44623
     RDKit          3D

 15 17  0  0  0  0  0  0  0  0999 V2000
   -0.2872    1.4068    0.0258 N   0  0  0  0  0  0  0  0  0  0  0  0
    4.4979    0.1977    0.0010 N   0  0  0  0  0  0  0  0  0  0  0  0
   -1.0373   -0.6909   -0.0108 C   0  0  0  0  0  0  0  0  0  0  0  0
   -1.4137    0.6359    0.0082 C   0  0  0  0  0  0  0  0  0  0  0  0
   -2.0322   -1.8007   -0.0483 C   0  0  0  0  0  0  0  0  0  0  0  0
   -2.8053    1.1575    0.0382 C   0  0  0  0  0  0  0  0  0  0  0  0
   -3.4380   -1.3015    0.3391 C   0  0  0  0  0  0  0  0  0  0  0  0
   -3.7887    0.0349   -0.3425 C   0  0  0  0  0  0  0  0  0  0  0  0
    0.3856   -0.7291   -0.0132 C   0  0  0  0  0  0  0  0  0  0  0  0
    0.8292    0.5979    0.0112 C   0  0  0  0  0  0  0  0  0  0  0  0
    1.3441   -1.7625   -0.0358 C   0  0  0  0  0  0  0  0  0  0  0  0
   -0.2630    2.8543    0.0465 C   0  0  0  0  0  0  0  0  0  0  0  0
    2.1868    0.9386    0.0168 C   0  0  0  0  0  0  0  0  0  0  0  0
    3.1172   -0.1042   -0.0051 C   0  0  0  0  0  0  0  0  0  0  0  0
    2.7046   -1.4346   -0.0311 C   0  0  0  0  0  0  0  0  0  0  0  0
  1  4  1  0
  1 10  1  0
  1 12  1  0
  2 14  1  0
  3  4  2  0
  3  5  1  0
  3  9  1  0
  4  6  1  0
  5  7  1  0
  6  8  1  0
  7  8  1  0
  9 10  2  0
  9 11  1  0
 10 13  1  0
 11 15  2  0
 13 14  2  0
 14 15  1  0
M  END
>  <PUBCHEM_COMPOUND_CID>  (1) 
44623

>  <PUBCHEM_CONFORMER_RMSD>  (1) 
0.4

>  <PUBCHEM_CONFORMER_DIVERSEORDER>  (1) 
1

>  <PUBCHEM_MMFF94_PARTIAL_CHARGES>  (1) 
17
1 0.05
10 -0.15
11 -0.15
12 0.26
13 -0.15
14 0.1
15 -0.15
2 -0.9
24 0.15
28 0.15
29 0.15
3 -0.18
30 0.4
31 0.4
4 -0.33
5 0.18
6 0.18

>  <PUBCHEM_EFFECTIVE_ROTOR_COUNT>  (1) 
0.8

>  <PUBCHEM_PHARMACOPHORE_FEATURES>  (1) 
6
1 1 cation
1 2 cation
1 2 donor
5 1 3 4 9 10 rings
6 3 4 5 6 7 8 rings
6 9 10 11 13 14 15 rings

>  <PUBCHEM_HEAVY_ATOM_COUNT>  (1) 
15

>  <PUBCHEM_ATOM_DEF_STEREO_COUNT>  (1) 
0

>  <PUBCHEM_ATOM_UDEF_STEREO_COUNT>  (1) 
0

>  <PUBCHEM_BOND_DEF_STEREO_COUNT>  (1) 
0

>  <PUBCHEM_BOND_UDEF_STEREO_COUNT>  (1) 
0

>  <PUBCHEM_ISOTOPIC_ATOM_COUNT>  (1) 
0

>  <PUBCHEM_COMPONENT_COUNT>  (1) 
1

>  <PUBCHEM_CACTVS_TAUTO_COUNT>  (1) 
1

>  <PUBCHEM_CONFORMER_ID>  (1) 
0000AE4F00000001

>  <PUBCHEM_MMFF94_ENERGY>  (1) 
36.4702

>  <PUBCHEM_FEATURE_SELFOVERLAP>  (1) 
30.621

>  <PUBCHEM_SHAPE_FINGERPRINT>  (1) 
10608611 8 18410851053539487689
10967382 1 18411136947995075087
11132069 177 18411695504407929858
11471102 20 18410569574257091543
11806522 49 18337669840549451007
12032990 46 18411143545123058903
12382932 28 18412545383825318915
13132413 78 18411984693093507477
13140716 1 18338800121064466520
13214271 11 18413384354136428958
13221675 6 18411700980375408438
13380535 76 18410292497348367566
14144814 61 18411419488271550243
14325111 11 18410855438653325316
15196674 1 18410856529591070126
15219456 202 18341615884343614847
15442244 35 18049721819732014818
15536298 74 18343021052099274598
16945 1 18266461996931771314
193761 8 17690561879763266615
19591789 44 16317824369621819565
200 152 18060131064216581111
20201158 50 18409166610405346747
20510252 161 18199749146017568105
20588541 1 18412545388041067277
20645477 70 18341608153671806551
20871998 184 18201720622010993695
21029758 11 18342168977916829897
21029758 27 18261683674185240557
21267235 1 18410583898004983823
21501502 16 18195810665512690442
221490 88 18047474705917657475
22213442 358 18339360867857660279
2334 1 18338799030026390562
23402539 116 18343010095162754255
23402655 69 18341601569913768005
23463225 33 18409167714211707990
23557571 272 18271816687605669076
23559900 14 18268425742517437726
2748010 2 18411978100160101605
3071541 158 18260828254049394165
3312278 4 18409731750675778235
335352 9 18050568439152694711
34934 24 18410566280138592063
353137 74 18263076622046806217
5104073 3 18411418371590662082
528886 8 18411694391937722538
53812653 166 18342734139387720000
5493415 88 18266459991429977115
7364860 26 18124595542137252673
81228 2 18265344905939900305
8809292 202 18115874164519113483
9709674 26 18341334379465825982

>  <PUBCHEM_SHAPE_MULTIPOLES>  (1) 
298.73
6.19
2.24
0.62
1.33
0.86
0
-1.18
-0.07
-0.43
0.05
-0.08
-0.02
0.1

>  <PUBCHEM_SHAPE_SELFOVERLAP>  (1) 
655.985

>  <PUBCHEM_SHAPE_VOLUME>  (1) 
163.8

>  <PUBCHEM_COORDINATE_TYPE>  (1) 
2
5
10

$$$$
