44635
     RDKit          3D

 29 32  0  0  1  0  0  0  0  0999 V2000
   -0.7083   -1.1604    2.4185 O   0  0  0  0  0  0  0  0  0  0  0  0
    3.6430    2.2478   -0.8313 O   0  0  0  0  0  0  0  0  0  0  0  0
   -2.3059    0.5403    0.5818 N   0  0  0  0  0  0  0  0  0  0  0  0
    3.0680   -3.1850    0.0161 N   0  0  0  0  0  0  0  0  0  0  0  0
   -1.1615   -0.4257    0.1689 C   0  0  0  0  0  0  0  0  0  0  0  0
   -3.3153   -1.7125   -0.1939 C   0  0  0  0  0  0  0  0  0  0  0  0
   -3.2049    0.7649   -0.6604 C   0  0  0  0  0  0  0  0  0  0  0  0
   -3.1713   -0.0558    1.7014 C   0  0  0  0  0  0  0  0  0  0  0  0
   -1.7821   -1.7757   -0.2334 C   0  0  0  0  0  0  0  0  0  0  0  0
   -3.8302   -0.5716   -1.0938 C   0  0  0  0  0  0  0  0  0  0  0  0
   -3.7262   -1.4055    1.2523 C   0  0  0  0  0  0  0  0  0  0  0  0
   -1.7670    1.8975    1.0234 C   0  0  0  0  0  0  0  0  0  0  0  0
   -0.1034   -0.5961    1.2583 C   0  0  0  0  0  0  0  0  0  0  0  0
   -0.8981    2.5149   -0.0676 C   0  0  0  0  0  0  0  0  0  0  0  0
   -3.5984   -0.8382   -2.5521 C   0  0  0  0  0  0  0  0  0  0  0  0
    1.0340   -1.4786    0.8066 C   0  0  0  0  0  0  0  0  0  0  0  0
   -0.3339    3.9176    0.2334 C   0  0  0  0  0  0  0  0  0  0  0  0
   -4.5764   -0.9473   -3.4577 C   0  0  0  0  0  0  0  0  0  0  0  0
    2.1776   -0.9535    0.2049 C   0  0  0  0  0  0  0  0  0  0  0  0
    0.8978   -2.8376    1.0156 C   0  0  0  0  0  0  0  0  0  0  0  0
   -1.4844    4.9214    0.3532 C   0  0  0  0  0  0  0  0  0  0  0  0
    0.5097    3.9457    1.5083 C   0  0  0  0  0  0  0  0  0  0  0  0
    3.1884   -1.8586   -0.1816 C   0  0  0  0  0  0  0  0  0  0  0  0
    2.3368    0.4250   -0.0163 C   0  0  0  0  0  0  0  0  0  0  0  0
    1.9392   -3.6442    0.6035 C   0  0  0  0  0  0  0  0  0  0  0  0
    4.3338   -1.3434   -0.7825 C   0  0  0  0  0  0  0  0  0  0  0  0
    3.4927    0.9126   -0.6191 C   0  0  0  0  0  0  0  0  0  0  0  0
    4.4922    0.0271   -1.0026 C   0  0  0  0  0  0  0  0  0  0  0  0
    4.8542    2.6749   -1.4538 C   0  0  0  0  0  0  0  0  0  0  0  0
  1 13  1  0
  2 27  1  0
  2 29  1  0
  3  5  1  0
  3  7  1  0
  3  8  1  0
  3 12  1  0
  4 23  2  0
  4 25  1  0
  5  9  1  0
  5 13  1  0
  6  9  1  0
  6 10  1  0
  6 11  1  0
  7 10  1  0
  8 11  1  0
 10 15  1  0
 12 14  1  0
 13 16  1  0
 14 17  1  0
 15 18  2  0
 16 19  2  0
 16 20  1  0
 17 21  1  0
 17 22  1  0
 19 23  1  0
 19 24  1  0
 20 25  2  0
 23 26  1  0
 24 27  2  0
 26 28  2  0
 27 28  1  0
M  CHG  1   3   1
M  END
>  <PUBCHEM_COMPOUND_CID>  (1) 
44635

>  <PUBCHEM_CONFORMER_RMSD>  (1) 
1

>  <PUBCHEM_CONFORMER_DIVERSEORDER>  (1) 
1
11
7
5
8
10
9
3
6
2
4

>  <PUBCHEM_MMFF94_PARTIAL_CHARGES>  (1) 
30
1 -0.68
10 0.14
12 0.5
13 0.42
15 -0.29
16 -0.14
18 -0.3
2 -0.36
20 -0.15
23 0.31
24 -0.15
25 0.16
26 -0.15
27 0.08
28 -0.15
29 0.28
3 -1.01
4 -0.62
46 0.15
48 0.4
49 0.15
5 0.5
50 0.15
51 0.15
58 0.15
59 0.15
60 0.15
61 0.15
7 0.5
8 0.5

>  <PUBCHEM_EFFECTIVE_ROTOR_COUNT>  (1) 
8.2

>  <PUBCHEM_PHARMACOPHORE_FEATURES>  (1) 
10
1 1 acceptor
1 1 donor
1 18 hydrophobe
1 2 acceptor
1 3 cation
1 4 acceptor
3 17 21 22 hydrophobe
6 19 23 24 26 27 28 rings
6 4 16 19 20 23 25 rings
8 3 5 6 7 8 9 10 11 rings

>  <PUBCHEM_HEAVY_ATOM_COUNT>  (1) 
29

>  <PUBCHEM_ATOM_DEF_STEREO_COUNT>  (1) 
2

>  <PUBCHEM_ATOM_UDEF_STEREO_COUNT>  (1) 
3

>  <PUBCHEM_BOND_DEF_STEREO_COUNT>  (1) 
0

>  <PUBCHEM_BOND_UDEF_STEREO_COUNT>  (1) 
0

>  <PUBCHEM_ISOTOPIC_ATOM_COUNT>  (1) 
0

>  <PUBCHEM_COMPONENT_COUNT>  (1) 
1

>  <PUBCHEM_CACTVS_TAUTO_COUNT>  (1) 
1

>  <PUBCHEM_CONFORMER_ID>  (1) 
0000AE5B00000001

>  <PUBCHEM_MMFF94_ENERGY>  (1) 
120.5057

>  <PUBCHEM_FEATURE_SELFOVERLAP>  (1) 
50.777

>  <PUBCHEM_SHAPE_FINGERPRINT>  (1) 
10006869 2 18051152310541337321
10721379 63 17697560589708413229
11513181 2 16687659850378854460
11578080 2 17558240177918751864
12156800 1 13920693909443789348
12553582 1 18412543219298971403
12788726 201 18053935157111754013
13140716 1 18189915252111937874
13224815 77 18114186328002079882
13911987 19 18117852211675410508
14251757 17 17459172037236303895
14537116 161 17835191794754847005
15664445 248 17982980579268217601
1813 80 17773571954424079719
19930381 70 18265343974042539608
21033648 144 17822860900170576150
21033648 29 16443061716470182774
2132832 1 18047166597790566402
23419403 2 16166293688781834449
23558518 356 18117287951762004816
23559900 14 18260264110554162842
23598288 3 18055073164425642677
238 59 18118664742099060021
26353 1 18127666353918113445
3388396 114 18411416241682957132
340366 18 17334779673606396407
469060 322 14925955546948067369
508180 173 15580313192811541718
5895379 119 18121209875705876954
6371009 1 18408037430051020332
6669772 16 17622150691426992165
70251023 43 18270112418433458935
7471813 234 18195227954663101790
7832392 63 17687189690665290290

>  <PUBCHEM_SHAPE_MULTIPOLES>  (1) 
575.11
8.71
5.13
2.07
3.28
5.89
-1.24
-1.82
-5.98
1.98
1.39
-2.71
-0.49
-1.82

>  <PUBCHEM_SHAPE_SELFOVERLAP>  (1) 
1226.203

>  <PUBCHEM_SHAPE_VOLUME>  (1) 
316.5

>  <PUBCHEM_COORDINATE_TYPE>  (1) 
2
5
10

$$$$
