44639
     RDKit          3D

 25 28  0  0  1  0  0  0  0  0999 V2000
   -1.1808   -0.7942    1.7993 O   0  0  0  0  0  0  0  0  0  0  0  0
    4.1298    2.4691    0.2166 O   0  0  0  0  0  0  0  0  0  0  0  0
   -2.0975    1.5167    0.2058 N   0  0  0  0  0  0  0  0  0  0  0  0
    2.7308   -2.8426   -0.4089 N   0  0  0  0  0  0  0  0  0  0  0  0
   -1.0184    0.4838   -0.2209 C   0  0  0  0  0  0  0  0  0  0  0  0
   -3.1873   -0.3141   -1.2624 C   0  0  0  0  0  0  0  0  0  0  0  0
   -3.2496    0.8493    0.9785 C   0  0  0  0  0  0  0  0  0  0  0  0
   -1.6945   -0.6108   -1.0665 C   0  0  0  0  0  0  0  0  0  0  0  0
   -3.8484   -0.2863    0.1323 C   0  0  0  0  0  0  0  0  0  0  0  0
   -2.6867    2.1481   -1.0754 C   0  0  0  0  0  0  0  0  0  0  0  0
   -3.3110    1.0555   -1.9399 C   0  0  0  0  0  0  0  0  0  0  0  0
   -0.2607   -0.1103    0.9656 C   0  0  0  0  0  0  0  0  0  0  0  0
   -1.5004    2.6381    1.0505 C   0  0  0  0  0  0  0  0  0  0  0  0
   -5.3432   -0.1802    0.0563 C   0  0  0  0  0  0  0  0  0  0  0  0
    0.8145   -1.0406    0.4803 C   0  0  0  0  0  0  0  0  0  0  0  0
   -6.1843   -1.1043    0.5326 C   0  0  0  0  0  0  0  0  0  0  0  0
    2.1096   -0.5949    0.1988 C   0  0  0  0  0  0  0  0  0  0  0  0
    0.4773   -2.3741    0.3199 C   0  0  0  0  0  0  0  0  0  0  0  0
    3.0512   -1.5445   -0.2503 C   0  0  0  0  0  0  0  0  0  0  0  0
    2.4787    0.7521    0.3535 C   0  0  0  0  0  0  0  0  0  0  0  0
    1.4658   -3.2285   -0.1246 C   0  0  0  0  0  0  0  0  0  0  0  0
    4.3419   -1.1047   -0.5312 C   0  0  0  0  0  0  0  0  0  0  0  0
    3.7766    1.1644    0.0653 C   0  0  0  0  0  0  0  0  0  0  0  0
    4.7091    0.2346   -0.3777 C   0  0  0  0  0  0  0  0  0  0  0  0
    5.4775    2.8184   -0.0974 C   0  0  0  0  0  0  0  0  0  0  0  0
  1 12  1  0
  2 23  1  0
  2 25  1  0
  3  5  1  0
  3  7  1  0
  3 10  1  0
  3 13  1  0
  4 19  2  0
  4 21  1  0
  5  8  1  0
  5 12  1  0
  6  8  1  0
  6  9  1  0
  6 11  1  0
  7  9  1  0
  9 14  1  0
 10 11  1  0
 12 15  1  0
 14 16  2  0
 15 17  2  0
 15 18  1  0
 17 19  1  0
 17 20  1  0
 18 21  2  0
 19 22  1  0
 20 23  2  0
 22 24  2  0
 23 24  1  0
M  CHG  1   3   1
M  END
>  <PUBCHEM_COMPOUND_CID>  (1) 
44639

>  <PUBCHEM_CONFORMER_RMSD>  (1) 
0.8

>  <PUBCHEM_CONFORMER_DIVERSEORDER>  (1) 
7
9
5
6
2
3
4
1
8

>  <PUBCHEM_MMFF94_PARTIAL_CHARGES>  (1) 
30
1 -0.68
10 0.5
12 0.42
13 0.5
14 -0.29
15 -0.14
16 -0.3
18 -0.15
19 0.31
2 -0.36
20 -0.15
21 0.16
22 -0.15
23 0.08
24 -0.15
25 0.28
3 -1.01
4 -0.62
41 0.15
42 0.4
43 0.15
44 0.15
45 0.15
46 0.15
47 0.15
48 0.15
49 0.15
5 0.5
7 0.5
9 0.14

>  <PUBCHEM_EFFECTIVE_ROTOR_COUNT>  (1) 
5.2

>  <PUBCHEM_PHARMACOPHORE_FEATURES>  (1) 
9
1 1 acceptor
1 1 donor
1 16 hydrophobe
1 2 acceptor
1 3 cation
1 4 acceptor
6 17 19 20 22 23 24 rings
6 4 15 17 18 19 21 rings
8 3 5 6 7 8 9 10 11 rings

>  <PUBCHEM_HEAVY_ATOM_COUNT>  (1) 
25

>  <PUBCHEM_ATOM_DEF_STEREO_COUNT>  (1) 
2

>  <PUBCHEM_ATOM_UDEF_STEREO_COUNT>  (1) 
3

>  <PUBCHEM_BOND_DEF_STEREO_COUNT>  (1) 
0

>  <PUBCHEM_BOND_UDEF_STEREO_COUNT>  (1) 
0

>  <PUBCHEM_ISOTOPIC_ATOM_COUNT>  (1) 
0

>  <PUBCHEM_COMPONENT_COUNT>  (1) 
1

>  <PUBCHEM_CACTVS_TAUTO_COUNT>  (1) 
1

>  <PUBCHEM_CONFORMER_ID>  (1) 
0000AE5F00000007

>  <PUBCHEM_MMFF94_ENERGY>  (1) 
106.2608

>  <PUBCHEM_FEATURE_SELFOVERLAP>  (1) 
45.702

>  <PUBCHEM_SHAPE_FINGERPRINT>  (1) 
10366900 7 18187661166884838994
10498660 4 17968931994308605316
11135609 187 18339642364099055673
12236239 1 17632581526226943003
12403259 415 18186518791499247292
12403260 363 18411413974050403090
12553582 1 17845638288398590691
12730499 353 18409454704111400458
12788726 201 16845586291942987569
128620 24 18408039589648982223
13009979 54 17343505492938391586
13224815 77 18335699395099626371
14787075 74 18336262440054161227
14790565 3 18343871017521563353
15537594 2 17775000228254387845
15840311 113 18264500490734346009
15961568 22 17458631146267083220
16752209 62 16700876190851313487
17349148 13 18334571309550270162
17492 89 18198062469579950495
18186145 218 18341892957405926614
19319366 153 18342729736946761982
19930381 70 18411418427425547944
21033648 29 17095518474754690156
21709351 56 18268708312526004502
22149856 69 18264510493527848419
22393880 68 17823411587660031847
22950370 63 17988640818220848487
23557571 272 17458348498790056711
23559900 14 18048023087115177027
238 59 18412546475200900546
312423 11 18129386999030749363
3380486 145 18046366359726699251
341906 21 16153704289180824180
350125 39 18410295826475412730
437815 12 9367083163287684512
46194498 28 18059305275117820702
474 4 18410571786687384304
5104073 3 18261391083965004785
5281201 14 18338519616945433102
6287921 2 18334585632997242236
6327066 14 18120373409519449476
633830 44 18201165368892076812
7399639 24 18260259754945037143
9981440 41 18337099177135070338

>  <PUBCHEM_SHAPE_MULTIPOLES>  (1) 
492.79
11.34
3.07
1.21
1.19
0.13
-0.16
-2.94
-0.82
-3.23
0.04
1.19
-0.23
0.62

>  <PUBCHEM_SHAPE_SELFOVERLAP>  (1) 
1069.62

>  <PUBCHEM_SHAPE_VOLUME>  (1) 
266.8

>  <PUBCHEM_COORDINATE_TYPE>  (1) 
2
5
10

$$$$
