44649
     RDKit          3D

 15 14  0  0  1  0  0  0  0  0999 V2000
   -2.4390   -1.9584   -0.9535 Br  0  0  0  0  0  0  0  0  0  0  0  0
   -3.4540    1.2661   -1.6167 Cl  0  0  0  0  0  0  0  0  0  0  0  0
   -3.3134    1.9450    1.2019 Cl  0  0  0  0  0  0  0  0  0  0  0  0
   -5.0904   -0.1663    0.3341 Cl  0  0  0  0  0  0  0  0  0  0  0  0
   -1.0728    0.2279    0.0906 O   0  0  0  0  0  0  0  0  0  0  0  0
    3.5733    0.6522   -0.1266 O   0  0  0  0  0  0  0  0  0  0  0  0
    0.1019   -1.7191    0.4798 O   0  0  0  0  0  0  0  0  0  0  0  0
    2.8118   -1.4700    0.3537 O   0  0  0  0  0  0  0  0  0  0  0  0
    1.2554    0.3653   -0.0137 C   0  0  0  0  0  0  0  0  0  0  0  0
   -2.3444   -0.4275    0.2752 C   0  0  0  0  0  0  0  0  0  0  0  0
    0.0598   -0.5256    0.2195 C   0  0  0  0  0  0  0  0  0  0  0  0
   -3.4838    0.5776    0.0387 C   0  0  0  0  0  0  0  0  0  0  0  0
    2.6097   -0.2908    0.1011 C   0  0  0  0  0  0  0  0  0  0  0  0
    4.9240    0.1837   -0.0552 C   0  0  0  0  0  0  0  0  0  0  0  0
    5.8621    1.3399   -0.3289 C   0  0  0  0  0  0  0  0  0  0  0  0
  1 10  1  0
  2 12  1  0
  3 12  1  0
  4 12  1  0
  5 10  1  0
  5 11  1  0
  6 13  1  0
  6 14  1  0
  7 11  2  0
  8 13  2  0
  9 11  1  0
  9 13  1  0
 10 12  1  0
 14 15  1  0
M  END
>  <PUBCHEM_COMPOUND_CID>  (1) 
44649

>  <PUBCHEM_CONFORMER_RMSD>  (1) 
0.8

>  <PUBCHEM_CONFORMER_DIVERSEORDER>  (1) 
1
134
47
138
85
102
128
124
131
91
56
49
29
108
66
36
77
35
64
39
120
18
122
9
132
130
126
44
14
113
98
112
115
24
31
111
43
88
2
70
96
22
123
103
135
62
137
136
83
75
65
104
17
107
55
93
78
110
12
37
45
129
94
4
69
84
127
33
63
7
118
60
117
42
97
54
79
38
68
116
95
140
73
32
6
99
133
106
76
40
61
53
71
86
81
30
52
5
11
74
105
59
23
89
101
121
25
15
26
28
109
41
80
100
27
21
82
13
19
3
72
8
34
48
87
10
50
46
20
114
119
90
58
67
51
57
16
125
92
139

>  <PUBCHEM_MMFF94_PARTIAL_CHARGES>  (1) 
14
1 -0.23
10 0.51
11 0.66
12 0.87
13 0.66
14 0.28
2 -0.29
3 -0.29
4 -0.29
5 -0.43
6 -0.43
7 -0.57
8 -0.57
9 0.12

>  <PUBCHEM_EFFECTIVE_ROTOR_COUNT>  (1) 
7

>  <PUBCHEM_PHARMACOPHORE_FEATURES>  (1) 
4
1 1 hydrophobe
1 7 acceptor
1 8 acceptor
1 9 anion

>  <PUBCHEM_HEAVY_ATOM_COUNT>  (1) 
15

>  <PUBCHEM_ATOM_DEF_STEREO_COUNT>  (1) 
0

>  <PUBCHEM_ATOM_UDEF_STEREO_COUNT>  (1) 
1

>  <PUBCHEM_BOND_DEF_STEREO_COUNT>  (1) 
0

>  <PUBCHEM_BOND_UDEF_STEREO_COUNT>  (1) 
0

>  <PUBCHEM_ISOTOPIC_ATOM_COUNT>  (1) 
0

>  <PUBCHEM_COMPONENT_COUNT>  (1) 
1

>  <PUBCHEM_CACTVS_TAUTO_COUNT>  (1) 
1

>  <PUBCHEM_CONFORMER_ID>  (1) 
0000AE6900000001

>  <PUBCHEM_MMFF94_ENERGY>  (1) 
19.03

>  <PUBCHEM_FEATURE_SELFOVERLAP>  (1) 
20.303

>  <PUBCHEM_SHAPE_FINGERPRINT>  (1) 
10014705 185 18260260845851100869
10680689 15 18129948982669387026
10803635 8 14979960224666749516
12390115 104 17559693762788394313
12507557 5 16660646280087991917
12916748 109 18342465828295880393
13214271 11 17530682096174589623
13675066 3 17385727954624659674
13897977 58 18342178869162975329
14123238 8 18260830405701018817
14123255 352 18186514393479135980
14123260 362 18342747311862811457
14251764 75 17411073746524912641
14252887 29 11819264543604192040
15501527 16 18334858346404341612
17834072 33 18341611542579753142
17834076 25 17847063289658952832
18186145 218 18336832987456536942
200 152 8790880770589194897
20112054 13 17313101925786052231
20279233 1 16153432731204348691
20281389 69 17967531298985452812
20300324 65 18060418023534277705
20645477 56 18413389856153000271
20645477 70 18272093734598243766
20871999 31 17988072404573427647
23402539 116 18411695521988686772
23402655 69 18342458136589649926
23557571 272 18059862817079674711
23559900 14 18202563982680779538
23596394 208 16988299594483153084
26918003 58 12468638343486424133
3545911 37 18411702097235535010
441001 317 18202565090218112568
449060 50 18261112976226653924
5104073 3 17968377823468570089
542803 24 16988848271658842985
57265010 4 14562533955571112341
58051976 100 18342454902168390703
633830 44 18199755734486642655
90127 26 17386572349400466760

>  <PUBCHEM_SHAPE_MULTIPOLES>  (1) 
296.77
11.73
1.84
1.04
13.49
0.26
0.32
-4.52
0.99
-1.18
0
-1.1
-0.27
-0.7

>  <PUBCHEM_SHAPE_SELFOVERLAP>  (1) 
531.863

>  <PUBCHEM_SHAPE_VOLUME>  (1) 
196

>  <PUBCHEM_COORDINATE_TYPE>  (1) 
2
5
10

$$$$
