44646
     RDKit          3D

 30 33  0  0  1  0  0  0  0  0999 V2000
   -1.2471    2.1922    0.1717 N   0  0  0  0  0  0  0  0  0  0  0  0
    2.5605   -2.2872    0.1071 N   0  0  0  0  0  0  0  0  0  0  0  0
   -0.2719    3.2190    0.5371 C   0  0  0  0  0  0  0  0  0  0  0  0
    3.9467   -2.6560   -0.1775 C   0  0  0  0  0  0  0  0  0  0  0  0
    1.1488    2.6873    0.3503 C   0  0  0  0  0  0  0  0  0  0  0  0
    4.9235   -1.5350    0.1851 C   0  0  0  0  0  0  0  0  0  0  0  0
   -1.3960    2.1102   -1.2864 C   0  0  0  0  0  0  0  0  0  0  0  0
    2.2701   -2.4179    1.5401 C   0  0  0  0  0  0  0  0  0  0  0  0
    2.2305    3.7103    0.7117 C   0  0  0  0  0  0  0  0  0  0  0  0
    4.6451   -0.2311   -0.5705 C   0  0  0  0  0  0  0  0  0  0  0  0
    3.6536    3.1571    0.5985 C   0  0  0  0  0  0  0  0  0  0  0  0
    5.6121    0.8995   -0.2016 C   0  0  0  0  0  0  0  0  0  0  0  0
   -2.5492    2.4740    0.8014 C   0  0  0  0  0  0  0  0  0  0  0  0
    1.6355   -3.1235   -0.6782 C   0  0  0  0  0  0  0  0  0  0  0  0
    3.9775    2.7597   -0.8443 C   0  0  0  0  0  0  0  0  0  0  0  0
    5.3849    2.1777   -1.0129 C   0  0  0  0  0  0  0  0  0  0  0  0
   -2.2566    0.8973   -1.6545 C   0  0  0  0  0  0  0  0  0  0  0  0
    0.8881   -1.8317    1.8467 C   0  0  0  0  0  0  0  0  0  0  0  0
   -3.6448    1.5318    0.3573 C   0  0  0  0  0  0  0  0  0  0  0  0
    0.1819   -2.8945   -0.3325 C   0  0  0  0  0  0  0  0  0  0  0  0
   -3.5228    0.8105   -0.8427 C   0  0  0  0  0  0  0  0  0  0  0  0
   -0.1766   -2.3161    0.8973 C   0  0  0  0  0  0  0  0  0  0  0  0
   -4.8206    1.4223    1.1121 C   0  0  0  0  0  0  0  0  0  0  0  0
   -0.8213   -3.3193   -1.2141 C   0  0  0  0  0  0  0  0  0  0  0  0
   -4.5608   -0.0371   -1.2507 C   0  0  0  0  0  0  0  0  0  0  0  0
   -1.5301   -2.1369    1.2108 C   0  0  0  0  0  0  0  0  0  0  0  0
   -5.8526    0.5832    0.6926 C   0  0  0  0  0  0  0  0  0  0  0  0
   -2.1663   -3.1454   -0.8888 C   0  0  0  0  0  0  0  0  0  0  0  0
   -5.7218   -0.1475   -0.4862 C   0  0  0  0  0  0  0  0  0  0  0  0
   -2.5202   -2.5527    0.3212 C   0  0  0  0  0  0  0  0  0  0  0  0
  1  3  1  0
  1  7  1  0
  1 13  1  0
  2  4  1  0
  2  8  1  0
  2 14  1  0
  3  5  1  0
  4  6  1  0
  5  9  1  0
  6 10  1  0
  7 17  1  0
  8 18  1  0
  9 11  1  0
 10 12  1  0
 11 15  1  0
 12 16  1  0
 13 19  1  0
 14 20  1  0
 15 16  1  0
 17 21  1  0
 18 22  1  0
 19 21  2  0
 19 23  1  0
 20 22  2  0
 20 24  1  0
 21 25  1  0
 22 26  1  0
 23 27  2  0
 24 28  2  0
 25 29  2  0
 26 30  2  0
 27 29  1  0
 28 30  1  0
M  END
>  <PUBCHEM_COMPOUND_CID>  (1) 
44646

>  <PUBCHEM_CONFORMER_RMSD>  (1) 
1.8

>  <PUBCHEM_CONFORMER_DIVERSEORDER>  (1) 
1
18
8
23
16
46
6
39
41
25
35
10
2
13
36
27
11
45
34
28
14
42
26
9
17
12
7
40
30
24
20
15
47
21
4
43
5
3
37
38
29
31
44
22
19
32
33

>  <PUBCHEM_MMFF94_PARTIAL_CHARGES>  (1) 
30
1 -0.81
13 0.41
14 0.41
17 0.14
18 0.14
19 -0.14
2 -0.81
20 -0.14
21 -0.14
22 -0.14
23 -0.15
24 -0.15
25 -0.15
26 -0.15
27 -0.15
28 -0.15
29 -0.15
3 0.27
30 -0.15
4 0.27
63 0.15
64 0.15
65 0.15
66 0.15
67 0.15
68 0.15
69 0.15
7 0.27
70 0.15
8 0.27

>  <PUBCHEM_EFFECTIVE_ROTOR_COUNT>  (1) 
12.6

>  <PUBCHEM_PHARMACOPHORE_FEATURES>  (1) 
6
1 1 cation
1 2 cation
6 1 7 13 17 19 21 rings
6 19 21 23 25 27 29 rings
6 2 8 14 18 20 22 rings
6 20 22 24 26 28 30 rings

>  <PUBCHEM_HEAVY_ATOM_COUNT>  (1) 
30

>  <PUBCHEM_ATOM_DEF_STEREO_COUNT>  (1) 
0

>  <PUBCHEM_ATOM_UDEF_STEREO_COUNT>  (1) 
0

>  <PUBCHEM_BOND_DEF_STEREO_COUNT>  (1) 
0

>  <PUBCHEM_BOND_UDEF_STEREO_COUNT>  (1) 
0

>  <PUBCHEM_ISOTOPIC_ATOM_COUNT>  (1) 
0

>  <PUBCHEM_COMPONENT_COUNT>  (1) 
1

>  <PUBCHEM_CACTVS_TAUTO_COUNT>  (1) 
1

>  <PUBCHEM_CONFORMER_ID>  (1) 
0000AE6600000001

>  <PUBCHEM_MMFF94_ENERGY>  (1) 
51.2802

>  <PUBCHEM_FEATURE_SELFOVERLAP>  (1) 
30.492

>  <PUBCHEM_SHAPE_FINGERPRINT>  (1) 
13165054 49 15381909433842895091
1361 2 18411984645875124160
14394314 77 18341900649556119937
14790565 3 18268154162755110537
14840074 17 18186522111667294181
15001296 14 18335983151073483156
15082195 135 18269815636320231111
15264996 163 17903358100861452836
15322534 239 18267020746338625044
15927050 60 18268989959522985439
15968369 153 18056752350313955403
15975801 100 17531237319793420044
16067689 134 17693103963696344725
16067689 302 18267307719802747039
19319366 153 18113896044443175218
20764821 26 18339076120390358536
21133410 90 17275100678717927128
21344244 246 18267571589855710903
21585483 110 18335976494196110093
21623110 236 18409452458006606031
21792938 131 18201427143550321171
24941158 1 16342577448188224104
25265897 201 17771662115073718366
3027735 51 17906451378645222939
3298306 158 18335129925460183549
338550 245 18190184670930767060
354706 35 16032926617482783661
392239 28 18193563263698251571
4073 2 17983575492506263544
463206 1 18411420614038733192
5265222 85 17757561028872008021
6287921 2 17984700013500821611

>  <PUBCHEM_SHAPE_MULTIPOLES>  (1) 
607.42
12.02
5.79
1.42
1.15
0.31
-0.05
-5.12
1.46
3.69
-0.35
-0.47
0.26
-0.91

>  <PUBCHEM_SHAPE_SELFOVERLAP>  (1) 
1258.063

>  <PUBCHEM_SHAPE_VOLUME>  (1) 
346.6

>  <PUBCHEM_COORDINATE_TYPE>  (1) 
2
5
10

$$$$
