44641
     RDKit          3D

 27 30  0  0  1  0  0  0  0  0999 V2000
   -0.7802    1.2015   -2.3164 O   0  0  0  0  0  0  0  0  0  0  0  0
    3.7069   -2.5313    0.3374 O   0  0  0  0  0  0  0  0  0  0  0  0
   -2.3068   -0.8412   -0.7948 N   0  0  0  0  0  0  0  0  0  0  0  0
    2.9217    2.9406    0.4043 N   0  0  0  0  0  0  0  0  0  0  0  0
   -1.1992    0.0856   -0.2224 C   0  0  0  0  0  0  0  0  0  0  0  0
   -3.3998    1.2107    0.3413 C   0  0  0  0  0  0  0  0  0  0  0  0
   -3.1933   -1.3038    0.3891 C   0  0  0  0  0  0  0  0  0  0  0  0
   -3.1972   -0.1005   -1.8030 C   0  0  0  0  0  0  0  0  0  0  0  0
   -1.8701    1.3250    0.3967 C   0  0  0  0  0  0  0  0  0  0  0  0
   -3.8684   -0.0831    1.0366 C   0  0  0  0  0  0  0  0  0  0  0  0
   -3.8023    1.1333   -1.1374 C   0  0  0  0  0  0  0  0  0  0  0  0
   -1.7173   -2.0842   -1.4542 C   0  0  0  0  0  0  0  0  0  0  0  0
   -0.1512    0.4754   -1.2640 C   0  0  0  0  0  0  0  0  0  0  0  0
   -3.6433   -0.0544    2.5198 C   0  0  0  0  0  0  0  0  0  0  0  0
   -0.8638   -2.8285   -0.4397 C   0  0  0  0  0  0  0  0  0  0  0  0
    0.9526    1.3132   -0.6672 C   0  0  0  0  0  0  0  0  0  0  0  0
   -0.2144   -4.0543   -1.0613 C   0  0  0  0  0  0  0  0  0  0  0  0
   -4.6225   -0.1351    3.4271 C   0  0  0  0  0  0  0  0  0  0  0  0
    2.1171    0.7394   -0.1570 C   0  0  0  0  0  0  0  0  0  0  0  0
    0.7639    2.6818   -0.6475 C   0  0  0  0  0  0  0  0  0  0  0  0
    3.0934    1.6054    0.3789 C   0  0  0  0  0  0  0  0  0  0  0  0
    2.3296   -0.6496   -0.1677 C   0  0  0  0  0  0  0  0  0  0  0  0
    1.7746    3.4478   -0.1027 C   0  0  0  0  0  0  0  0  0  0  0  0
    4.2592    1.0415    0.8900 C   0  0  0  0  0  0  0  0  0  0  0  0
    3.5049   -1.1863    0.3500 C   0  0  0  0  0  0  0  0  0  0  0  0
    4.4706   -0.3394    0.8795 C   0  0  0  0  0  0  0  0  0  0  0  0
    4.9351   -3.0096    0.8849 C   0  0  0  0  0  0  0  0  0  0  0  0
  1 13  1  0
  2 25  1  0
  2 27  1  0
  3  5  1  0
  3  7  1  0
  3  8  1  0
  3 12  1  0
  4 21  2  0
  4 23  1  0
  5  9  1  0
  5 13  1  0
  6  9  1  0
  6 10  1  0
  6 11  1  0
  7 10  1  0
  8 11  1  0
 10 14  1  0
 12 15  1  0
 13 16  1  0
 14 18  2  0
 15 17  1  0
 16 19  2  0
 16 20  1  0
 19 21  1  0
 19 22  1  0
 20 23  2  0
 21 24  1  0
 22 25  2  0
 24 26  2  0
 25 26  1  0
M  CHG  1   3   1
M  END
>  <PUBCHEM_COMPOUND_CID>  (1) 
44641

>  <PUBCHEM_CONFORMER_RMSD>  (1) 
0.8

>  <PUBCHEM_CONFORMER_DIVERSEORDER>  (1) 
1
14
9
15
7
4
2
13
11
3
6
12
10
5
8

>  <PUBCHEM_MMFF94_PARTIAL_CHARGES>  (1) 
30
1 -0.68
10 0.14
12 0.5
13 0.42
14 -0.29
16 -0.14
18 -0.3
2 -0.36
20 -0.15
21 0.31
22 -0.15
23 0.16
24 -0.15
25 0.08
26 -0.15
27 0.28
3 -1.01
4 -0.62
42 0.15
45 0.4
49 0.15
5 0.5
50 0.15
51 0.15
52 0.15
53 0.15
54 0.15
55 0.15
7 0.5
8 0.5

>  <PUBCHEM_EFFECTIVE_ROTOR_COUNT>  (1) 
7.2

>  <PUBCHEM_PHARMACOPHORE_FEATURES>  (1) 
10
1 1 acceptor
1 1 donor
1 17 hydrophobe
1 18 hydrophobe
1 2 acceptor
1 3 cation
1 4 acceptor
6 19 21 22 24 25 26 rings
6 4 16 19 20 21 23 rings
8 3 5 6 7 8 9 10 11 rings

>  <PUBCHEM_HEAVY_ATOM_COUNT>  (1) 
27

>  <PUBCHEM_ATOM_DEF_STEREO_COUNT>  (1) 
2

>  <PUBCHEM_ATOM_UDEF_STEREO_COUNT>  (1) 
3

>  <PUBCHEM_BOND_DEF_STEREO_COUNT>  (1) 
0

>  <PUBCHEM_BOND_UDEF_STEREO_COUNT>  (1) 
0

>  <PUBCHEM_ISOTOPIC_ATOM_COUNT>  (1) 
0

>  <PUBCHEM_COMPONENT_COUNT>  (1) 
1

>  <PUBCHEM_CACTVS_TAUTO_COUNT>  (1) 
1

>  <PUBCHEM_CONFORMER_ID>  (1) 
0000AE6100000001

>  <PUBCHEM_MMFF94_ENERGY>  (1) 
115.1689

>  <PUBCHEM_FEATURE_SELFOVERLAP>  (1) 
50.777

>  <PUBCHEM_SHAPE_FINGERPRINT>  (1) 
10369192 42 15577553792889119508
10616163 171 18051967310470753590
107951 10 16808117023249054565
11370993 70 18342726438353167599
11552529 35 17842552130805213214
11796584 16 16371551602214117664
12553582 1 18339358570493411790
12633257 1 18202566150895595406
12714826 92 17604702245274559100
12788726 201 17343226534880984327
13140716 1 18267862787878405692
13533116 47 18270386317382732575
13583140 156 18186801404821574273
13631057 29 17477759551865807612
14178342 30 18052798524218399120
14765038 42 18343590655283884066
14787075 74 16110639008475822101
15420108 30 17052735171832821641
15537594 2 18408611357550317150
16110190 28 18340760469510245714
17349148 13 17774993613888883173
17492 89 18338506572966822254
19930381 70 18195794172728023934
20681651 13 18057317490948675641
20739085 24 18268166287484521952
21796203 349 18265919989924915730
23559900 14 18197196243469352196
3380486 145 18263065726057836796
341906 21 15554446292772788320
3633792 109 18270941523710767957
3737641 26 18337676317908395698
392239 28 16832057114758828520
463206 1 16828388049005784158
469060 322 17253994667747806681
58807428 26 18201456769712541619
7097593 13 18340767156077746404

>  <PUBCHEM_SHAPE_MULTIPOLES>  (1) 
533.95
9.25
3.84
2.04
2.93
1.85
-1.23
1.72
-5.81
3.6
0.88
-3.45
0.15
-0.61

>  <PUBCHEM_SHAPE_SELFOVERLAP>  (1) 
1147.386

>  <PUBCHEM_SHAPE_VOLUME>  (1) 
291.1

>  <PUBCHEM_COORDINATE_TYPE>  (1) 
2
5
10

$$$$
