44656
     RDKit          3D

 12 12  0  0  1  0  0  0  0  0999 V2000
    3.1080    0.3023   -0.0548 N   0  0  0  0  0  0  0  0  0  0  0  0
    4.0322   -0.7486    0.2089 N   0  0  0  0  0  0  0  0  0  0  0  0
    0.6909    0.8612   -0.1588 C   0  0  0  0  0  0  0  0  0  0  0  0
    1.7541   -0.2608    0.0109 C   0  0  0  0  0  0  0  0  0  0  0  0
   -0.7354    0.3363   -0.0568 C   0  0  0  0  0  0  0  0  0  0  0  0
    0.8834    2.0057    0.8506 C   0  0  0  0  0  0  0  0  0  0  0  0
    1.6326   -1.3472   -1.0638 C   0  0  0  0  0  0  0  0  0  0  0  0
   -1.0058   -0.6904    0.8238 C   0  0  0  0  0  0  0  0  0  0  0  0
   -1.7119    0.9037   -0.8487 C   0  0  0  0  0  0  0  0  0  0  0  0
   -2.3119   -1.1711    0.9169 C   0  0  0  0  0  0  0  0  0  0  0  0
   -3.0181    0.4231   -0.7555 C   0  0  0  0  0  0  0  0  0  0  0  0
   -3.3181   -0.6143    0.1274 C   0  0  0  0  0  0  0  0  0  0  0  0
  1  2  1  0
  1  4  1  0
  3  4  1  0
  3  5  1  0
  3  6  1  0
  4  7  1  0
  5  8  2  0
  5  9  1  0
  8 10  1  0
  9 11  2  0
 10 12  2  0
 11 12  1  0
M  END
>  <PUBCHEM_COMPOUND_CID>  (1) 
44656

>  <PUBCHEM_CONFORMER_RMSD>  (1) 
0.6

>  <PUBCHEM_CONFORMER_DIVERSEORDER>  (1) 
2
13
16
18
9
20
3
15
7
12
1
4
8
17
11
5
10
14
6
19

>  <PUBCHEM_MMFF94_PARTIAL_CHARGES>  (1) 
18
1 -0.63
10 -0.15
11 -0.15
12 -0.15
2 -0.72
21 0.36
22 0.15
23 0.15
24 0.15
25 0.15
26 0.15
27 0.36
28 0.36
3 0.14
4 0.27
5 -0.14
8 -0.15
9 -0.15

>  <PUBCHEM_EFFECTIVE_ROTOR_COUNT>  (1) 
3

>  <PUBCHEM_PHARMACOPHORE_FEATURES>  (1) 
4
1 1 donor
1 2 donor
1 6 hydrophobe
6 5 8 9 10 11 12 rings

>  <PUBCHEM_HEAVY_ATOM_COUNT>  (1) 
12

>  <PUBCHEM_ATOM_DEF_STEREO_COUNT>  (1) 
0

>  <PUBCHEM_ATOM_UDEF_STEREO_COUNT>  (1) 
2

>  <PUBCHEM_BOND_DEF_STEREO_COUNT>  (1) 
0

>  <PUBCHEM_BOND_UDEF_STEREO_COUNT>  (1) 
0

>  <PUBCHEM_ISOTOPIC_ATOM_COUNT>  (1) 
0

>  <PUBCHEM_COMPONENT_COUNT>  (1) 
1

>  <PUBCHEM_CACTVS_TAUTO_COUNT>  (1) 
1

>  <PUBCHEM_CONFORMER_ID>  (1) 
0000AE7000000002

>  <PUBCHEM_MMFF94_ENERGY>  (1) 
29.1565

>  <PUBCHEM_FEATURE_SELFOVERLAP>  (1) 
21.633

>  <PUBCHEM_SHAPE_FINGERPRINT>  (1) 
10219947 1 18060699502874300036
10465860 250 18335127675340049080
12032990 46 18342181042374287598
124424 183 18334286557181293850
12716758 59 17894625980933396225
15207287 21 18410005546267281559
15219456 202 18264203776115962161
16945 1 18131359634570542293
200 152 17846771927925996367
20201158 50 18410575071799529455
20279233 1 18410858741668078335
20281407 28 18260834825290977298
20645476 183 15140673713838348475
20711985 327 17346881156596098320
21028194 46 9295283937096556390
21061003 4 18202289099619012264
21119208 17 16081087069341304190
21501502 16 18262809595593338901
23402539 116 18113887243848872845
23552423 10 17313950856379412235
23559900 14 18187356594291155914
2748010 2 17970063559772663345
29004967 10 18202006520672072105
369184 2 16056882412183495651
5084963 1 18113901597803830725
5493415 88 18410012182154777650
77492 1 16343705468895994777
81228 2 18054802680217937016

>  <PUBCHEM_SHAPE_MULTIPOLES>  (1) 
236.99
5.49
1.51
1.01
2.04
0.38
-0.03
-1.48
-0.15
0.32
0.18
-0.26
-0.05
0.76

>  <PUBCHEM_SHAPE_SELFOVERLAP>  (1) 
477.223

>  <PUBCHEM_SHAPE_VOLUME>  (1) 
139

>  <PUBCHEM_COORDINATE_TYPE>  (1) 
2
5
10

$$$$
