44652
     RDKit          3D

  8  7  0  0  1  0  0  0  0  0999 V2000
   -1.4182   -0.2869    0.0500 N   0  0  0  0  0  0  0  0  0  0  0  0
    1.8460    1.4390   -0.5593 N   0  0  0  0  0  0  0  0  0  0  0  0
    0.8583    0.6880    0.2219 C   0  0  0  0  0  0  0  0  0  0  0  0
   -0.3687    0.4300   -0.6677 C   0  0  0  0  0  0  0  0  0  0  0  0
    1.5033   -0.5823    0.8104 C   0  0  0  0  0  0  0  0  0  0  0  0
    1.9949   -1.5949   -0.2171 C   0  0  0  0  0  0  0  0  0  0  0  0
   -2.5406   -0.5825   -0.8414 C   0  0  0  0  0  0  0  0  0  0  0  0
   -1.8751    0.4896    1.2032 C   0  0  0  0  0  0  0  0  0  0  0  0
  1  4  1  0
  1  7  1  0
  1  8  1  0
  2  3  1  0
  3  4  1  0
  3  5  1  0
  5  6  1  0
M  END
>  <PUBCHEM_COMPOUND_CID>  (1) 
44652

>  <PUBCHEM_CONFORMER_RMSD>  (1) 
0.6

>  <PUBCHEM_CONFORMER_DIVERSEORDER>  (1) 
1
8
11
10
6
13
4
9
7
12
5
3
2

>  <PUBCHEM_MMFF94_PARTIAL_CHARGES>  (1) 
8
1 -0.81
17 0.36
18 0.36
2 -0.99
3 0.27
4 0.27
7 0.27
8 0.27

>  <PUBCHEM_EFFECTIVE_ROTOR_COUNT>  (1) 
3

>  <PUBCHEM_PHARMACOPHORE_FEATURES>  (1) 
4
1 1 cation
1 2 cation
1 2 donor
1 6 hydrophobe

>  <PUBCHEM_HEAVY_ATOM_COUNT>  (1) 
8

>  <PUBCHEM_ATOM_DEF_STEREO_COUNT>  (1) 
0

>  <PUBCHEM_ATOM_UDEF_STEREO_COUNT>  (1) 
1

>  <PUBCHEM_BOND_DEF_STEREO_COUNT>  (1) 
0

>  <PUBCHEM_BOND_UDEF_STEREO_COUNT>  (1) 
0

>  <PUBCHEM_ISOTOPIC_ATOM_COUNT>  (1) 
0

>  <PUBCHEM_COMPONENT_COUNT>  (1) 
1

>  <PUBCHEM_CACTVS_TAUTO_COUNT>  (1) 
1

>  <PUBCHEM_CONFORMER_ID>  (1) 
0000AE6C00000001

>  <PUBCHEM_MMFF94_ENERGY>  (1) 
5.7152

>  <PUBCHEM_FEATURE_SELFOVERLAP>  (1) 
20.297

>  <PUBCHEM_SHAPE_FINGERPRINT>  (1) 
12932741 1 17168146745302293347
20653085 51 18115015300251700341
20711978 78 18116456832487613899
20711985 344 17465088346096504428
21922407 69 18201721798826673489
23552333 60 18341038718206445947
23552423 10 18412543193487092799
23552449 11 18114726192526955426
24536 1 18409164428535294547
29004967 10 18187649055203379034
5084963 1 18272360949876849279

>  <PUBCHEM_SHAPE_MULTIPOLES>  (1) 
154.67
3.42
1.36
1.07
0.92
0.1
0.15
0.86
-0.12
-0.82
-0.19
0.31
-0.11
-0.54

>  <PUBCHEM_SHAPE_SELFOVERLAP>  (1) 
272.784

>  <PUBCHEM_SHAPE_VOLUME>  (1) 
102.6

>  <PUBCHEM_COORDINATE_TYPE>  (1) 
2
5
10

$$$$
