44667
     RDKit          3D

 11 12  0  0  0  0  0  0  0  0999 V2000
   -1.5809   -1.5749   -0.0001 S   0  0  0  0  0  0  0  0  0  0  0  0
    3.5594   -0.6897    0.0003 F   0  0  0  0  0  0  0  0  0  0  0  0
   -3.7488   -0.0439    0.0005 O   0  0  0  0  0  0  0  0  0  0  0  0
   -1.6607    1.0153   -0.0001 N   0  0  0  0  0  0  0  0  0  0  0  0
   -0.2991    0.6955   -0.0002 C   0  0  0  0  0  0  0  0  0  0  0  0
   -0.0542   -0.6754   -0.0003 C   0  0  0  0  0  0  0  0  0  0  0  0
    0.7335    1.6182   -0.0002 C   0  0  0  0  0  0  0  0  0  0  0  0
    1.2405   -1.1652   -0.0002 C   0  0  0  0  0  0  0  0  0  0  0  0
   -2.5274   -0.0664    0.0000 C   0  0  0  0  0  0  0  0  0  0  0  0
    2.0430    1.1341    0.0001 C   0  0  0  0  0  0  0  0  0  0  0  0
    2.2948   -0.2476    0.0002 C   0  0  0  0  0  0  0  0  0  0  0  0
  1  6  1  0
  1  9  1  0
  2 11  1  0
  3  9  2  0
  4  5  1  0
  4  9  1  0
  5  6  2  0
  5  7  1  0
  6  8  1  0
  7 10  2  0
  8 11  2  0
 10 11  1  0
M  END
>  <PUBCHEM_COMPOUND_CID>  (1) 
44667

>  <PUBCHEM_CONFORMER_RMSD>  (1) 
0.4

>  <PUBCHEM_CONFORMER_DIVERSEORDER>  (1) 
1

>  <PUBCHEM_MMFF94_PARTIAL_CHARGES>  (1) 
15
1 -0.24
10 -0.15
11 0.19
12 0.37
13 0.15
14 0.15
15 0.15
2 -0.19
3 -0.57
4 -0.55
5 0.12
6 0.1
7 -0.15
8 -0.15
9 0.77

>  <PUBCHEM_EFFECTIVE_ROTOR_COUNT>  (1) 
0

>  <PUBCHEM_PHARMACOPHORE_FEATURES>  (1) 
3
1 4 donor
5 1 4 5 6 9 rings
6 5 6 7 8 10 11 rings

>  <PUBCHEM_HEAVY_ATOM_COUNT>  (1) 
11

>  <PUBCHEM_ATOM_DEF_STEREO_COUNT>  (1) 
0

>  <PUBCHEM_ATOM_UDEF_STEREO_COUNT>  (1) 
0

>  <PUBCHEM_BOND_DEF_STEREO_COUNT>  (1) 
0

>  <PUBCHEM_BOND_UDEF_STEREO_COUNT>  (1) 
0

>  <PUBCHEM_ISOTOPIC_ATOM_COUNT>  (1) 
0

>  <PUBCHEM_COMPONENT_COUNT>  (1) 
1

>  <PUBCHEM_CACTVS_TAUTO_COUNT>  (1) 
2

>  <PUBCHEM_CONFORMER_ID>  (1) 
0000AE7B00000001

>  <PUBCHEM_MMFF94_ENERGY>  (1) 
20.6965

>  <PUBCHEM_FEATURE_SELFOVERLAP>  (1) 
15.289

>  <PUBCHEM_SHAPE_FINGERPRINT>  (1) 
10130415 120 18408882932141763202
10219947 1 18343303660461801375
11471102 20 18410288129719646325
12032990 46 18411144606101397766
12932764 1 17095790105513208203
14128692 85 18412546547829923836
14325111 11 18410855511968599109
16945 1 18410573976566804295
17844478 74 17967257507335547149
193761 8 17834394901261868386
20201158 50 18411138021805776191
21040471 1 18122344850461715168
21501502 16 18266458904555461175
23402655 69 18341321246077937509
23463225 33 18408885101306209574
23552423 10 18117277162519313742
2748010 2 18194402422829523958
5084963 1 18343301461443872673
528886 8 18411414037847197370
53812653 166 18128250288971122680
7364860 26 18270964682111396624
8809292 202 18260272983418448251

>  <PUBCHEM_SHAPE_MULTIPOLES>  (1) 
212.1
4.61
1.59
0.6
0.96
0.02
0
-0.46
0
-0.2
0
0
-0.01
0

>  <PUBCHEM_SHAPE_SELFOVERLAP>  (1) 
450.658

>  <PUBCHEM_SHAPE_VOLUME>  (1) 
121.3

>  <PUBCHEM_COORDINATE_TYPE>  (1) 
2
5
10

$$$$
