44672
     RDKit          3D

 12 11  0  0  1  0  0  0  0  0999 V2000
   -4.0836   -0.9866   -0.5207 F   0  0  0  0  0  0  0  0  0  0  0  0
    4.6727    1.3253    0.3685 F   0  0  0  0  0  0  0  0  0  0  0  0
    2.2547    0.1388   -0.2384 O   0  0  0  0  0  0  0  0  0  0  0  0
    1.0029   -1.6569    0.4904 O   0  0  0  0  0  0  0  0  0  0  0  0
   -2.5710    0.7440   -0.0416 C   0  0  0  0  0  0  0  0  0  0  0  0
   -1.4075   -0.2249    0.1799 C   0  0  0  0  0  0  0  0  0  0  0  0
   -3.9098    0.0924    0.2930 C   0  0  0  0  0  0  0  0  0  0  0  0
   -0.0695    0.4231   -0.1724 C   0  0  0  0  0  0  0  0  0  0  0  0
   -5.0739    1.0397    0.0674 C   0  0  0  0  0  0  0  0  0  0  0  0
    1.0940   -0.5094    0.0763 C   0  0  0  0  0  0  0  0  0  0  0  0
    3.4538   -0.6211   -0.0560 C   0  0  0  0  0  0  0  0  0  0  0  0
    4.6374    0.2354   -0.4464 C   0  0  0  0  0  0  0  0  0  0  0  0
  1  7  1  0
  2 12  1  0
  3 10  1  0
  3 11  1  0
  4 10  2  0
  5  6  1  0
  5  7  1  0
  6  8  1  0
  7  9  1  0
  8 10  1  0
 11 12  1  0
M  END
>  <PUBCHEM_COMPOUND_CID>  (1) 
44672

>  <PUBCHEM_CONFORMER_RMSD>  (1) 
0.8

>  <PUBCHEM_CONFORMER_DIVERSEORDER>  (1) 
1
142
3
135
260
125
242
61
69
202
16
6
17
57
185
149
251
60
214
126
262
31
226
216
184
177
179
48
193
261
191
94
121
95
238
4
9
136
240
15
128
194
37
255
175
105
56
234
35
81
201
19
258
244
204
143
39
82
46
235
88
252
259
58
215
165
189
180
219
221
222
257
72
146
51
20
223
74
197
64
40
207
83
239
53
156
138
43
108
232
198
27
171
75
248
96
118
196
80
11
231
25
87
18
131
157
130
169
42
34
199
241
229
236
44
162
107
29
137
85
218
139
2
249
254
22
253
30
206
50
209
68
70
247
212
111
190
38
90
36
133
41
263
112
13
147
158
237
109
110
33
98
49
66
148
104
24
211
45
164
91
113
62
5
256
245
86
55
114
12
227
172
250
174
141
8
243
153
103
217
145
7
182
132
225
183
154
213
84
205
246
186
54
71
195
150
97
23
208
159
200
100
10
144
73
59
230
32
173
228
117
122
101
79
160
119
63
155
21
89
134
77
161
176
188
203
127
152
192
92
14
140
129
76
65
151
168
163
124
28
116
233
102
220
115
67
123
178
187
224
26
181
99
47
120
106
78
52
93
210
166
167
170

>  <PUBCHEM_MMFF94_PARTIAL_CHARGES>  (1) 
9
1 -0.34
10 0.66
11 0.28
12 0.34
2 -0.34
3 -0.43
4 -0.57
7 0.34
8 0.06

>  <PUBCHEM_EFFECTIVE_ROTOR_COUNT>  (1) 
7

>  <PUBCHEM_PHARMACOPHORE_FEATURES>  (1) 
1
1 4 acceptor

>  <PUBCHEM_HEAVY_ATOM_COUNT>  (1) 
12

>  <PUBCHEM_ATOM_DEF_STEREO_COUNT>  (1) 
0

>  <PUBCHEM_ATOM_UDEF_STEREO_COUNT>  (1) 
1

>  <PUBCHEM_BOND_DEF_STEREO_COUNT>  (1) 
0

>  <PUBCHEM_BOND_UDEF_STEREO_COUNT>  (1) 
0

>  <PUBCHEM_ISOTOPIC_ATOM_COUNT>  (1) 
0

>  <PUBCHEM_COMPONENT_COUNT>  (1) 
1

>  <PUBCHEM_CACTVS_TAUTO_COUNT>  (1) 
1

>  <PUBCHEM_CONFORMER_ID>  (1) 
0000AE8000000001

>  <PUBCHEM_MMFF94_ENERGY>  (1) 
5.3336

>  <PUBCHEM_FEATURE_SELFOVERLAP>  (1) 
5.074

>  <PUBCHEM_SHAPE_FINGERPRINT>  (1) 
11062470 55 17676210156333441211
11401426 45 18259984872985881093
114248 4 17275386525385632100
14123238 8 18335421274481908925
14251718 22 18202279217468801055
17834072 33 17917988403894950549
17834076 25 18187367614633918233
20279233 1 16371017273843323363
20645477 70 18200596869477555590
22485316 2 18412261714326074167
23402539 116 18411414012130017863
23402655 69 18340204103229531429
23532345 12 8430313554363567903
23590187 198 10737289047864161193
300161 21 18334287644245765693
366044 4 18334577958207493666
42 15 10881400928466708057
42788 4 18412546500611754717
449060 50 18335141968758990917

>  <PUBCHEM_SHAPE_MULTIPOLES>  (1) 
220.67
11.17
1.16
0.66
0.46
0.12
-0.01
-3.09
-0.37
-0.2
0.09
0
0.01
-0.09

>  <PUBCHEM_SHAPE_SELFOVERLAP>  (1) 
409.958

>  <PUBCHEM_SHAPE_VOLUME>  (1) 
138.5

>  <PUBCHEM_COORDINATE_TYPE>  (1) 
2
5
10

$$$$
