44682
     RDKit          3D

 25 27  0  0  1  0  0  0  0  0999 V2000
   -1.9008   -0.1726   -2.4937 O   0  0  0  0  0  0  0  0  0  0  0  0
    5.7581   -0.7654    0.4793 O   0  0  0  0  0  0  0  0  0  0  0  0
    3.0626    0.1487    0.4704 N   0  0  0  0  0  0  0  0  0  0  0  0
   -0.7684   -0.0966   -0.2658 C   0  0  0  0  0  0  0  0  0  0  0  0
    0.6583   -0.3435    0.3759 C   0  0  0  0  0  0  0  0  0  0  0  0
   -0.7090   -0.5419   -1.7937 C   0  0  0  0  0  0  0  0  0  0  0  0
    1.8124    0.4906   -0.2051 C   0  0  0  0  0  0  0  0  0  0  0  0
   -1.8860   -0.8923    0.4809 C   0  0  0  0  0  0  0  0  0  0  0  0
   -1.0595    1.4314   -0.0763 C   0  0  0  0  0  0  0  0  0  0  0  0
   -0.3949   -2.0179   -2.1257 C   0  0  0  0  0  0  0  0  0  0  0  0
    4.1632    0.9967   -0.0086 C   0  0  0  0  0  0  0  0  0  0  0  0
    3.3943   -1.2684    0.2682 C   0  0  0  0  0  0  0  0  0  0  0  0
   -3.1713   -0.6943    0.0794 C   0  0  0  0  0  0  0  0  0  0  0  0
   -1.6890    1.8074    1.0677 C   0  0  0  0  0  0  0  0  0  0  0  0
   -1.4979   -1.7293    1.4816 C   0  0  0  0  0  0  0  0  0  0  0  0
   -0.6607    2.2686   -1.0695 C   0  0  0  0  0  0  0  0  0  0  0  0
    5.4589    0.6134    0.7006 C   0  0  0  0  0  0  0  0  0  0  0  0
    4.7077   -1.5980    0.9718 C   0  0  0  0  0  0  0  0  0  0  0  0
   -0.3496   -2.3880   -3.6003 C   0  0  0  0  0  0  0  0  0  0  0  0
   -4.1695   -1.4050    0.7460 C   0  0  0  0  0  0  0  0  0  0  0  0
   -1.9479    3.1675    1.2366 C   0  0  0  0  0  0  0  0  0  0  0  0
   -2.4962   -2.4400    2.1480 C   0  0  0  0  0  0  0  0  0  0  0  0
   -0.9197    3.6287   -0.9005 C   0  0  0  0  0  0  0  0  0  0  0  0
   -3.8319   -2.2778    1.7802 C   0  0  0  0  0  0  0  0  0  0  0  0
   -1.5633    4.0782    0.2527 C   0  0  0  0  0  0  0  0  0  0  0  0
  1  6  1  0
  2 17  1  0
  2 18  1  0
  3  7  1  0
  3 11  1  0
  3 12  1  0
  4  5  1  0
  4  6  1  0
  4  8  1  0
  4  9  1  0
  5  7  1  0
  6 10  1  0
  8 13  2  0
  8 15  1  0
  9 14  2  0
  9 16  1  0
 10 19  1  0
 11 17  1  0
 12 18  1  0
 13 20  1  0
 14 21  1  0
 15 22  2  0
 16 23  2  0
 20 24  2  0
 21 25  2  0
 22 24  1  0
 23 25  1  0
M  END
>  <PUBCHEM_COMPOUND_CID>  (1) 
44682

>  <PUBCHEM_CONFORMER_RMSD>  (1) 
0.8

>  <PUBCHEM_CONFORMER_DIVERSEORDER>  (1) 
2
21
13
16
20
30
32
15
1
11
33
19
3
26
5
12
24
25
23
9
28
18
29
17
31
7
6
10
34
27
14
22
8
4

>  <PUBCHEM_MMFF94_PARTIAL_CHARGES>  (1) 
33
1 -0.68
11 0.27
12 0.27
13 -0.15
14 -0.15
15 -0.15
16 -0.15
17 0.28
18 0.28
2 -0.56
20 -0.15
21 -0.15
22 -0.15
23 -0.15
24 -0.15
25 -0.15
3 -0.81
37 0.15
38 0.15
39 0.15
4 0.29
40 0.15
45 0.4
49 0.15
50 0.15
51 0.15
52 0.15
53 0.15
54 0.15
6 0.28
7 0.27
8 -0.14
9 -0.14

>  <PUBCHEM_EFFECTIVE_ROTOR_COUNT>  (1) 
8.2

>  <PUBCHEM_PHARMACOPHORE_FEATURES>  (1) 
8
1 1 acceptor
1 1 donor
1 19 hydrophobe
1 2 acceptor
1 3 cation
6 2 3 11 12 17 18 rings
6 8 13 15 20 22 24 rings
6 9 14 16 21 23 25 rings

>  <PUBCHEM_HEAVY_ATOM_COUNT>  (1) 
25

>  <PUBCHEM_ATOM_DEF_STEREO_COUNT>  (1) 
0

>  <PUBCHEM_ATOM_UDEF_STEREO_COUNT>  (1) 
1

>  <PUBCHEM_BOND_DEF_STEREO_COUNT>  (1) 
0

>  <PUBCHEM_BOND_UDEF_STEREO_COUNT>  (1) 
0

>  <PUBCHEM_ISOTOPIC_ATOM_COUNT>  (1) 
0

>  <PUBCHEM_COMPONENT_COUNT>  (1) 
1

>  <PUBCHEM_CACTVS_TAUTO_COUNT>  (1) 
1

>  <PUBCHEM_CONFORMER_ID>  (1) 
0000AE8A00000002

>  <PUBCHEM_MMFF94_ENERGY>  (1) 
94.4813

>  <PUBCHEM_FEATURE_SELFOVERLAP>  (1) 
40.596

>  <PUBCHEM_SHAPE_FINGERPRINT>  (1) 
107951 10 17904204732834620654
10906281 52 18269294421180832665
11297750 10 17480902673653312431
11443803 9 17408764806201874529
12082328 90 18335710408836209878
12403814 3 18131346427503986962
12422481 6 18056224430467325969
12516196 113 18263367052225813667
12788726 201 18263382385258819584
12930653 34 18265338313344676410
12969540 37 17177157474999683298
13004483 165 18335421304694451539
13134695 92 18195812001759423697
13544653 18 17896047709350135867
14020679 6 17546742451678472930
14468879 13 17986385581910989654
14840074 17 18057613255365995900
14863182 85 15373482437076504611
15131766 46 16771808104253053200
15775530 1 17769118768737610231
16945 1 17757001369179201577
17980427 23 17987818400813996113
17980427 26 17328597626993497357
20600515 1 18041293127139565935
20681651 13 17241310396925366496
21033648 29 17345738695695945474
21524375 3 17909254793862389872
22182313 1 17773327746672634414
23175994 123 18189334731256968931
23419403 2 17390772724405136447
23558518 356 18120660136681207751
23559900 14 18041838536145967256
23598288 3 18410013247354393396
266924 78 17185296090280620719
3187 122 18339376200690616205
3380486 145 17983272001041292493
376196 1 17551777137049889472
469060 322 18128520742798274102
484985 159 17604696756274816730
497634 4 17676490540942515958
5104073 3 18337380545207097296
57527452 28 16773787139578576629
59755656 520 17824818941042316288
81228 2 17979112360302374681
9925002 15 17342373326425655765
9981440 41 17557974048876032704

>  <PUBCHEM_SHAPE_MULTIPOLES>  (1) 
497.77
8.25
4.08
2.37
15.04
4.39
-2.29
-3.87
5
-3.62
0.05
-1.54
-2.23
0.6

>  <PUBCHEM_SHAPE_SELFOVERLAP>  (1) 
1050.435

>  <PUBCHEM_SHAPE_VOLUME>  (1) 
277.3

>  <PUBCHEM_COORDINATE_TYPE>  (1) 
2
5
10

$$$$
