44699
     RDKit          3D

 15 15  0  0  0  0  0  0  0  0999 V2000
   -6.3093    0.5479    1.0329 Cl  0  0  0  0  0  0  0  0  0  0  0  0
    1.4540    1.9326   -0.7578 O   0  0  0  0  0  0  0  0  0  0  0  0
    1.1406   -2.5579    0.2071 O   0  0  0  0  0  0  0  0  0  0  0  0
   -3.8442    0.1635    0.2828 O   0  0  0  0  0  0  0  0  0  0  0  0
    0.9423   -0.3243   -0.4536 N   0  0  0  0  0  0  0  0  0  0  0  0
    2.8019   -0.9673    0.5931 N   0  0  0  0  0  0  0  0  0  0  0  0
    3.0309    0.4402    0.3493 C   0  0  0  0  0  0  0  0  0  0  0  0
    1.7234    0.8072   -0.3568 C   0  0  0  0  0  0  0  0  0  0  0  0
   -0.3707   -0.3785   -1.0648 C   0  0  0  0  0  0  0  0  0  0  0  0
    1.5668   -1.4136    0.1201 C   0  0  0  0  0  0  0  0  0  0  0  0
    3.1680    1.2107    1.6558 C   0  0  0  0  0  0  0  0  0  0  0  0
    4.2184    0.6530   -0.5803 C   0  0  0  0  0  0  0  0  0  0  0  0
   -1.4879   -0.0748   -0.0753 C   0  0  0  0  0  0  0  0  0  0  0  0
   -2.8729   -0.1495   -0.7067 C   0  0  0  0  0  0  0  0  0  0  0  0
   -5.1613    0.1109   -0.2458 C   0  0  0  0  0  0  0  0  0  0  0  0
  1 15  1  0
  2  8  2  0
  3 10  2  0
  4 14  1  0
  4 15  1  0
  5  8  1  0
  5  9  1  0
  5 10  1  0
  6  7  1  0
  6 10  1  0
  7  8  1  0
  7 11  1  0
  7 12  1  0
  9 13  1  0
 13 14  1  0
M  END
>  <PUBCHEM_COMPOUND_CID>  (1) 
44699

>  <PUBCHEM_CONFORMER_RMSD>  (1) 
0.6

>  <PUBCHEM_CONFORMER_DIVERSEORDER>  (1) 
1
48
62
89
69
92
93
61
42
12
34
56
66
8
51
76
97
5
64
26
22
27
55
14
83
32
11
63
38
88
65
15
24
60
99
20
77
18
13
37
52
82
53
71
86
75
29
39
4
47
10
16
44
78
31
59
57
81
58
96
17
87
9
70
94
73
36
67
85
50
100
79
54
68
84
46
25
3
2
43
21
49
45
30
95
98
80
35
91
6
74
28
90
40
23
72
7
41
19
33

>  <PUBCHEM_MMFF94_PARTIAL_CHARGES>  (1) 
13
1 -0.29
10 0.69
14 0.28
15 0.57
16 0.37
2 -0.57
3 -0.57
4 -0.56
5 -0.42
6 -0.73
7 0.36
8 0.57
9 0.3

>  <PUBCHEM_EFFECTIVE_ROTOR_COUNT>  (1) 
5.6

>  <PUBCHEM_PHARMACOPHORE_FEATURES>  (1) 
6
1 2 acceptor
1 3 acceptor
1 4 acceptor
1 6 donor
3 7 11 12 hydrophobe
5 5 6 7 8 10 rings

>  <PUBCHEM_HEAVY_ATOM_COUNT>  (1) 
15

>  <PUBCHEM_ATOM_DEF_STEREO_COUNT>  (1) 
0

>  <PUBCHEM_ATOM_UDEF_STEREO_COUNT>  (1) 
0

>  <PUBCHEM_BOND_DEF_STEREO_COUNT>  (1) 
0

>  <PUBCHEM_BOND_UDEF_STEREO_COUNT>  (1) 
0

>  <PUBCHEM_ISOTOPIC_ATOM_COUNT>  (1) 
0

>  <PUBCHEM_COMPONENT_COUNT>  (1) 
1

>  <PUBCHEM_CACTVS_TAUTO_COUNT>  (1) 
2

>  <PUBCHEM_CONFORMER_ID>  (1) 
0000AE9B00000001

>  <PUBCHEM_MMFF94_ENERGY>  (1) 
22.9189

>  <PUBCHEM_FEATURE_SELFOVERLAP>  (1) 
30.447

>  <PUBCHEM_SHAPE_FINGERPRINT>  (1) 
10354089 29 18411986862410505969
10498660 4 15266793109303204379
12251169 10 18261109694866397679
13533116 47 18341052900853505099
14252887 29 17676210135027533307
15242439 84 12895070709190561669
16945 1 18043506487175169852
18186145 218 18201145641980776716
20369508 70 10663818555160822918
20645477 70 18263355915692210423
212847 35 17988925587041946768
21503847 285 17704072919053043624
23402539 116 15482665784255150165
23590187 302 11024108741917512487
2748010 2 17973695045053115404
276578 36 18411974784915048822
2838139 119 15767498794458594888
293599 30 18262240040455145724
4047638 21 17489867163399268480
449060 62 18413108355327377663
465052 167 17240199928487955858
54040823 5 16081090381140923652
8272917 22 18410860927917234263

>  <PUBCHEM_SHAPE_MULTIPOLES>  (1) 
282.99
10.96
1.57
1.1
20.43
0.57
0.17
-3.62
2.82
-1.41
0.26
-0.27
-0.28
-0.35

>  <PUBCHEM_SHAPE_SELFOVERLAP>  (1) 
553.678

>  <PUBCHEM_SHAPE_VOLUME>  (1) 
174.5

>  <PUBCHEM_COORDINATE_TYPE>  (1) 
2
5
10

$$$$
