44695
     RDKit          3D

 10  9  0  0  1  0  0  0  0  0999 V2000
    1.1046   -2.5582   -0.4528 N   0  0  0  0  0  0  0  0  0  0  0  0
    0.2064   -0.4261    0.4604 C   0  0  0  0  0  0  0  0  0  0  0  0
    1.3758   -1.1223   -0.3028 C   0  0  0  0  0  0  0  0  0  0  0  0
    0.4532    1.0850    0.6999 C   0  0  0  0  0  0  0  0  0  0  0  0
   -1.1485   -0.7052   -0.2464 C   0  0  0  0  0  0  0  0  0  0  0  0
    0.5730    1.9302   -0.5710 C   0  0  0  0  0  0  0  0  0  0  0  0
   -2.3674   -0.1275    0.4795 C   0  0  0  0  0  0  0  0  0  0  0  0
    2.7332   -0.9661    0.3882 C   0  0  0  0  0  0  0  0  0  0  0  0
    0.7329    3.4065   -0.2375 C   0  0  0  0  0  0  0  0  0  0  0  0
   -3.6631   -0.5165   -0.2175 C   0  0  0  0  0  0  0  0  0  0  0  0
  1  3  1  0
  2  3  1  0
  2  4  1  0
  2  5  1  0
  3  8  1  0
  4  6  1  0
  5  7  1  0
  6  9  1  0
  7 10  1  0
M  END
>  <PUBCHEM_COMPOUND_CID>  (1) 
44695

>  <PUBCHEM_CONFORMER_RMSD>  (1) 
0.6

>  <PUBCHEM_CONFORMER_DIVERSEORDER>  (1) 
4
20
17
10
14
6
1
15
11
19
7
16
18
13
9
3
12
5
8
2

>  <PUBCHEM_MMFF94_PARTIAL_CHARGES>  (1) 
4
1 -0.99
24 0.36
25 0.36
3 0.27

>  <PUBCHEM_EFFECTIVE_ROTOR_COUNT>  (1) 
5

>  <PUBCHEM_PHARMACOPHORE_FEATURES>  (1) 
5
1 1 cation
1 1 donor
1 10 hydrophobe
1 9 hydrophobe
5 2 4 5 6 7 hydrophobe

>  <PUBCHEM_HEAVY_ATOM_COUNT>  (1) 
10

>  <PUBCHEM_ATOM_DEF_STEREO_COUNT>  (1) 
0

>  <PUBCHEM_ATOM_UDEF_STEREO_COUNT>  (1) 
1

>  <PUBCHEM_BOND_DEF_STEREO_COUNT>  (1) 
0

>  <PUBCHEM_BOND_UDEF_STEREO_COUNT>  (1) 
0

>  <PUBCHEM_ISOTOPIC_ATOM_COUNT>  (1) 
0

>  <PUBCHEM_COMPONENT_COUNT>  (1) 
1

>  <PUBCHEM_CACTVS_TAUTO_COUNT>  (1) 
1

>  <PUBCHEM_CONFORMER_ID>  (1) 
0000AE9700000004

>  <PUBCHEM_MMFF94_ENERGY>  (1) 
2.8615

>  <PUBCHEM_FEATURE_SELFOVERLAP>  (1) 
25.373

>  <PUBCHEM_SHAPE_FINGERPRINT>  (1) 
1 1 18120658199461358533
10219947 1 18412541011580480914
13380536 305 18267312104056202255
14648413 74 18262802990112739011
15490181 7 17544771473931927592
19021347 4 17544476813310874152
193761 8 17762338415473501210
20711985 327 18412547587048615558
20711985 344 17758965822210567195
21040471 1 17692811909813166169
21524375 3 17613147886034713905
23526114 1 18194404613389452077
23552423 10 18269835470879532463
23595355 12 18124878116714807144
2748010 2 18125158238729502727
29004967 10 18338803320730816267
305870 269 17977101584804380333
3250762 1 17755313596786446066
528862 383 18264765648011155392
58734987 86 18408893935689765369
7364860 26 18339080518231167337
81228 2 17903082131241193425

>  <PUBCHEM_SHAPE_MULTIPOLES>  (1) 
200.81
3.87
3.12
0.79
4.24
2.26
-0.04
-1.15
-0.06
-2.59
0.63
-0.04
0.04
-0.14

>  <PUBCHEM_SHAPE_SELFOVERLAP>  (1) 
356.011

>  <PUBCHEM_SHAPE_VOLUME>  (1) 
131.7

>  <PUBCHEM_COORDINATE_TYPE>  (1) 
2
5
10

$$$$
