44706
     RDKit          3D

 20 21  0  0  1  0  0  0  0  0999 V2000
   -3.4047    2.1011   -0.6944 O   0  0  0  0  0  0  0  0  0  0  0  0
    3.9040    1.3968    0.6958 N   0  0  0  0  0  0  0  0  0  0  0  0
    0.7299   -0.5505   -0.1651 C   0  0  0  0  0  0  0  0  0  0  0  0
    1.2043   -1.9280    0.3673 C   0  0  0  0  0  0  0  0  0  0  0  0
    1.6040    0.5688    0.4418 C   0  0  0  0  0  0  0  0  0  0  0  0
   -0.7364   -0.2783    0.1937 C   0  0  0  0  0  0  0  0  0  0  0  0
    0.9484   -0.5653   -1.6954 C   0  0  0  0  0  0  0  0  0  0  0  0
    0.7555   -2.1826    1.7988 C   0  0  0  0  0  0  0  0  0  0  0  0
   -0.7643   -2.2157    1.8632 C   0  0  0  0  0  0  0  0  0  0  0  0
   -1.4137   -1.0487    1.1634 C   0  0  0  0  0  0  0  0  0  0  0  0
    3.0713    0.3800    0.1151 C   0  0  0  0  0  0  0  0  0  0  0  0
    0.0751   -1.6207   -2.3510 C   0  0  0  0  0  0  0  0  0  0  0  0
   -1.4305    0.7896   -0.4093 C   0  0  0  0  0  0  0  0  0  0  0  0
   -2.7572   -0.7661    1.4681 C   0  0  0  0  0  0  0  0  0  0  0  0
   -2.7603    1.0667   -0.0885 C   0  0  0  0  0  0  0  0  0  0  0  0
    0.3062   -1.6500   -3.8533 C   0  0  0  0  0  0  0  0  0  0  0  0
   -3.4257    0.2856    0.8472 C   0  0  0  0  0  0  0  0  0  0  0  0
    3.5302    2.7363    0.2145 C   0  0  0  0  0  0  0  0  0  0  0  0
    5.3269    1.1533    0.4100 C   0  0  0  0  0  0  0  0  0  0  0  0
   -4.7632    2.3277   -0.3215 C   0  0  0  0  0  0  0  0  0  0  0  0
  1 15  1  0
  1 20  1  0
  2 11  1  0
  2 18  1  0
  2 19  1  0
  3  4  1  0
  3  5  1  0
  3  6  1  0
  3  7  1  0
  4  8  1  0
  5 11  1  0
  6 10  2  0
  6 13  1  0
  7 12  1  0
  8  9  1  0
  9 10  1  0
 10 14  1  0
 12 16  1  0
 13 15  2  0
 14 17  2  0
 15 17  1  0
M  END
>  <PUBCHEM_COMPOUND_CID>  (1) 
44706

>  <PUBCHEM_CONFORMER_RMSD>  (1) 
0.8

>  <PUBCHEM_CONFORMER_DIVERSEORDER>  (1) 
5
9
7
6
13
2
15
10
14
1
17
4
16
12
8
11
3

>  <PUBCHEM_MMFF94_PARTIAL_CHARGES>  (1) 
17
1 -0.36
10 -0.14
11 0.27
13 -0.15
14 -0.15
15 0.08
17 -0.15
18 0.27
19 0.27
2 -0.81
20 0.28
3 0.14
35 0.15
36 0.15
40 0.15
6 -0.14
9 0.14

>  <PUBCHEM_EFFECTIVE_ROTOR_COUNT>  (1) 
6.8

>  <PUBCHEM_PHARMACOPHORE_FEATURES>  (1) 
5
1 1 acceptor
1 16 hydrophobe
1 2 cation
6 3 4 6 8 9 10 rings
6 6 10 13 14 15 17 rings

>  <PUBCHEM_HEAVY_ATOM_COUNT>  (1) 
20

>  <PUBCHEM_ATOM_DEF_STEREO_COUNT>  (1) 
0

>  <PUBCHEM_ATOM_UDEF_STEREO_COUNT>  (1) 
1

>  <PUBCHEM_BOND_DEF_STEREO_COUNT>  (1) 
0

>  <PUBCHEM_BOND_UDEF_STEREO_COUNT>  (1) 
0

>  <PUBCHEM_ISOTOPIC_ATOM_COUNT>  (1) 
0

>  <PUBCHEM_COMPONENT_COUNT>  (1) 
1

>  <PUBCHEM_CACTVS_TAUTO_COUNT>  (1) 
1

>  <PUBCHEM_CONFORMER_ID>  (1) 
0000AEA200000005

>  <PUBCHEM_MMFF94_ENERGY>  (1) 
69.2121

>  <PUBCHEM_FEATURE_SELFOVERLAP>  (1) 
25.392

>  <PUBCHEM_SHAPE_FINGERPRINT>  (1) 
10756046 70 17913744186207262166
10948715 1 18408318891124347403
1100329 8 16965471276179624360
11582403 64 18342162363118249822
11725454 13 18342172275892355676
12119455 92 17988928885724217744
12173636 292 17973439090698380136
12616999 72 17346021265820984541
12633257 1 17532632578062372632
12892183 10 17531811384615534968
12930653 34 18187086161132278515
13004483 165 17403452370197327698
13009979 54 16663477646967873050
13140716 1 17750793251450607035
133893 2 16986896543972621398
13583140 156 18269840981443730434
13965767 371 16662039232434597385
14178342 30 17022912228920349203
14817 1 11558386133236234182
16945 1 17749685093742602707
17876694 64 16734961283109020267
17980427 23 16950571012305875007
17980427 26 18117258282028223206
1813 80 15477648545214808262
18915476 22 17702683063483294695
19786989 88 17774451494621714479
20602899 9 16630248107842344678
20691752 17 15936408897174127762
21330990 113 17458342992842728842
21475661 188 18335417959131640412
21524375 3 18272651302640716136
21756936 100 18264200486951832688
23382010 3 15769765901292524922
23402539 116 18120093038095977051
23419403 2 17553252896323439646
23557571 272 18190769516685082711
23559900 14 18042985194009871566
266924 78 16699244549902814639
2748010 2 17750531589268899611
2838139 119 18342727507853460272
298252 57 17917703621835574358
5104073 3 17751084605379950641
58807428 26 17386002836615542737
5895379 119 17051324485334454377
7364860 26 17972314014950751875
9999458 23 17969782977822356170

>  <PUBCHEM_SHAPE_MULTIPOLES>  (1) 
400.74
7.34
2.78
2.44
2.76
0.59
-2.73
8.36
1.56
0.05
-0.03
-0.1
-2.6
1.28

>  <PUBCHEM_SHAPE_SELFOVERLAP>  (1) 
821.388

>  <PUBCHEM_SHAPE_VOLUME>  (1) 
232.8

>  <PUBCHEM_COORDINATE_TYPE>  (1) 
2
5
10

$$$$
