44749
     RDKit          3D

 27 28  0  0  0  0  0  0  0  0999 V2000
   -5.0479   -1.3012   -0.3212 O   0  0  0  0  0  0  0  0  0  0  0  0
    1.1930    0.2959   -0.6607 N   0  0  0  0  0  0  0  0  0  0  0  0
    0.9403   -1.4814   -2.2712 N   0  0  0  0  0  0  0  0  0  0  0  0
    2.5891    0.5701   -1.0224 C   0  0  0  0  0  0  0  0  0  0  0  0
    0.6311    1.1455    0.3613 C   0  0  0  0  0  0  0  0  0  0  0  0
    3.5428   -0.2594   -0.1666 C   0  0  0  0  0  0  0  0  0  0  0  0
    0.1144    2.4489   -0.2423 C   0  0  0  0  0  0  0  0  0  0  0  0
    5.0164    0.0278   -0.4758 C   0  0  0  0  0  0  0  0  0  0  0  0
   -0.4504    3.4062    0.8131 C   0  0  0  0  0  0  0  0  0  0  0  0
    5.9397   -0.7726    0.4463 C   0  0  0  0  0  0  0  0  0  0  0  0
   -0.8969    4.7258    0.1784 C   0  0  0  0  0  0  0  0  0  0  0  0
    0.4650   -0.6953   -1.3484 C   0  0  0  0  0  0  0  0  0  0  0  0
   -0.9734   -0.9054   -1.0261 C   0  0  0  0  0  0  0  0  0  0  0  0
    7.4256   -0.5010    0.2018 C   0  0  0  0  0  0  0  0  0  0  0  0
   -1.4422    5.7332    1.1929 C   0  0  0  0  0  0  0  0  0  0  0  0
   -1.3996   -1.8020   -0.0327 C   0  0  0  0  0  0  0  0  0  0  0  0
   -2.7844   -1.9483    0.2196 C   0  0  0  0  0  0  0  0  0  0  0  0
   -1.8993   -0.1638   -1.7603 C   0  0  0  0  0  0  0  0  0  0  0  0
    8.3447   -1.2400    1.1620 C   0  0  0  0  0  0  0  0  0  0  0  0
   -1.8214    7.0713    0.5773 C   0  0  0  0  0  0  0  0  0  0  0  0
   -3.7024   -1.1938   -0.5290 C   0  0  0  0  0  0  0  0  0  0  0  0
   -3.2612   -0.3077   -1.5122 C   0  0  0  0  0  0  0  0  0  0  0  0
   -0.4816   -2.5565    0.7159 C   0  0  0  0  0  0  0  0  0  0  0  0
   -3.2105   -2.8449    1.2130 C   0  0  0  0  0  0  0  0  0  0  0  0
   -0.9227   -3.4426    1.6992 C   0  0  0  0  0  0  0  0  0  0  0  0
   -2.2846   -3.5865    1.9472 C   0  0  0  0  0  0  0  0  0  0  0  0
   -5.6237   -0.4224    0.6411 C   0  0  0  0  0  0  0  0  0  0  0  0
  1 21  1  0
  1 27  1  0
  2  4  1  0
  2  5  1  0
  2 12  1  0
  3 12  2  0
  4  6  1  0
  5  7  1  0
  6  8  1  0
  7  9  1  0
  8 10  1  0
  9 11  1  0
 10 14  1  0
 11 15  1  0
 12 13  1  0
 13 16  2  0
 13 18  1  0
 14 19  1  0
 15 20  1  0
 16 17  1  0
 16 23  1  0
 17 21  2  0
 17 24  1  0
 18 22  2  0
 21 22  1  0
 23 25  2  0
 24 26  2  0
 25 26  1  0
M  END
>  <PUBCHEM_COMPOUND_CID>  (1) 
44749

>  <PUBCHEM_CONFORMER_RMSD>  (1) 
1.2

>  <PUBCHEM_CONFORMER_DIVERSEORDER>  (1) 
1
56
49
83
78
8
57
34
85
54
70
14
28
24
16
18
61
21
9
4
84
73
48
74
52
17
89
68
44
35
90
37
39
64
47
76
71
60
58
55
63
11
79
67
72
86
51
30
19
53
22
32
42
91
29
66
27
88
10
12
33
75
62
69
20
2
87
77
50
46
15
3
38
43
81
82
31
41
6
23
5
65
36
45
7
26
59
25
13
40
80

>  <PUBCHEM_MMFF94_PARTIAL_CHARGES>  (1) 
22
1 -0.36
12 0.41
13 0.09
18 -0.15
2 -0.79
21 0.08
22 -0.15
23 -0.15
24 -0.15
25 -0.15
26 -0.15
27 0.28
3 -0.85
4 0.37
48 0.15
5 0.37
55 0.4
56 0.15
57 0.15
58 0.15
59 0.15
60 0.15

>  <PUBCHEM_EFFECTIVE_ROTOR_COUNT>  (1) 
13

>  <PUBCHEM_PHARMACOPHORE_FEATURES>  (1) 
9
1 1 acceptor
1 19 hydrophobe
1 20 hydrophobe
1 3 donor
3 2 3 12 cation
4 6 8 10 14 hydrophobe
4 7 9 11 15 hydrophobe
6 13 16 17 18 21 22 rings
6 16 17 23 24 25 26 rings

>  <PUBCHEM_HEAVY_ATOM_COUNT>  (1) 
27

>  <PUBCHEM_ATOM_DEF_STEREO_COUNT>  (1) 
0

>  <PUBCHEM_ATOM_UDEF_STEREO_COUNT>  (1) 
0

>  <PUBCHEM_BOND_DEF_STEREO_COUNT>  (1) 
0

>  <PUBCHEM_BOND_UDEF_STEREO_COUNT>  (1) 
0

>  <PUBCHEM_ISOTOPIC_ATOM_COUNT>  (1) 
0

>  <PUBCHEM_COMPONENT_COUNT>  (1) 
1

>  <PUBCHEM_CACTVS_TAUTO_COUNT>  (1) 
1

>  <PUBCHEM_CONFORMER_ID>  (1) 
0000AECD00000001

>  <PUBCHEM_MMFF94_ENERGY>  (1) 
67.462

>  <PUBCHEM_FEATURE_SELFOVERLAP>  (1) 
45.698

>  <PUBCHEM_SHAPE_FINGERPRINT>  (1) 
10074138 170 18265889173461109912
10165383 225 17822842092782697951
11456790 92 18262252105260698435
11524674 6 18411131468272096310
12293681 4 18410020943803730199
12633257 1 18264502835152941459
12760667 363 18335133211664124454
12788726 201 18338223874203188850
14028597 1 18187085001163905203
14420673 8 17748824133748011546
15295992 7 18120945155528540723
20600515 1 18261408770613774221
21049683 118 17622697857776774624
21304303 282 18194399992041980464
23175994 123 18341056323103468694
23558518 356 18194129508165850254
23559900 14 17679297726565527550
24893992 56 18336270120341968451
283562 15 18336820879790638380
44249763 50 9078820867857257966
57527306 92 18131630059345655601
57527573 199 18268160777204953085
6086070 43 18265877199450607879
7226269 152 18409725140905739076

>  <PUBCHEM_SHAPE_MULTIPOLES>  (1) 
539.82
12.74
7.44
1.65
35.18
20.21
-0.24
-8.39
3.33
-9.79
5.13
-0.62
-0.99
-0.2

>  <PUBCHEM_SHAPE_SELFOVERLAP>  (1) 
1094.032

>  <PUBCHEM_SHAPE_VOLUME>  (1) 
315.7

>  <PUBCHEM_COORDINATE_TYPE>  (1) 
2
5
10

$$$$
