44745
     RDKit          3D

 23 24  0  0  0  0  0  0  0  0999 V2000
   -4.5332    0.4804   -0.4522 O   0  0  0  0  0  0  0  0  0  0  0  0
    1.9198    0.3221   -0.3679 N   0  0  0  0  0  0  0  0  0  0  0  0
    1.3111   -1.0809   -2.2132 N   0  0  0  0  0  0  0  0  0  0  0  0
    3.3560    0.2503   -0.6222 C   0  0  0  0  0  0  0  0  0  0  0  0
    1.5307    1.1601    0.7635 C   0  0  0  0  0  0  0  0  0  0  0  0
    3.9835   -0.9129    0.1414 C   0  0  0  0  0  0  0  0  0  0  0  0
    1.4252    2.6233    0.3422 C   0  0  0  0  0  0  0  0  0  0  0  0
    0.9711   -0.3176   -1.1986 C   0  0  0  0  0  0  0  0  0  0  0  0
   -0.4618   -0.1681   -0.9610 C   0  0  0  0  0  0  0  0  0  0  0  0
    5.4988   -1.0003   -0.0574 C   0  0  0  0  0  0  0  0  0  0  0  0
    1.0647    3.5484    1.5074 C   0  0  0  0  0  0  0  0  0  0  0  0
   -1.1803   -1.0340   -0.1206 C   0  0  0  0  0  0  0  0  0  0  0  0
   -2.5682   -0.8265    0.0631 C   0  0  0  0  0  0  0  0  0  0  0  0
   -1.1024    0.8871   -1.6110 C   0  0  0  0  0  0  0  0  0  0  0  0
    6.1027   -2.1269    0.7666 C   0  0  0  0  0  0  0  0  0  0  0  0
    1.0317    5.0048    1.0704 C   0  0  0  0  0  0  0  0  0  0  0  0
   -3.1966    0.2408   -0.5989 C   0  0  0  0  0  0  0  0  0  0  0  0
   -0.5519   -2.1012    0.5416 C   0  0  0  0  0  0  0  0  0  0  0  0
   -2.4671    1.0912   -1.4303 C   0  0  0  0  0  0  0  0  0  0  0  0
   -3.2867   -1.6923    0.9037 C   0  0  0  0  0  0  0  0  0  0  0  0
   -1.2813   -2.9517    1.3730 C   0  0  0  0  0  0  0  0  0  0  0  0
   -2.6462   -2.7476    1.5537 C   0  0  0  0  0  0  0  0  0  0  0  0
   -4.9194    1.3515    0.6067 C   0  0  0  0  0  0  0  0  0  0  0  0
  1 17  1  0
  1 23  1  0
  2  4  1  0
  2  5  1  0
  2  8  1  0
  3  8  2  0
  4  6  1  0
  5  7  1  0
  6 10  1  0
  7 11  1  0
  8  9  1  0
  9 12  2  0
  9 14  1  0
 10 15  1  0
 11 16  1  0
 12 13  1  0
 12 18  1  0
 13 17  2  0
 13 20  1  0
 14 19  2  0
 17 19  1  0
 18 21  2  0
 20 22  2  0
 21 22  1  0
M  END
>  <PUBCHEM_COMPOUND_CID>  (1) 
44745

>  <PUBCHEM_CONFORMER_RMSD>  (1) 
1

>  <PUBCHEM_CONFORMER_DIVERSEORDER>  (1) 
1
2
3
11
24
15
33
4
7
19
26
13
18
31
29
20
25
9
10
8
30
17
32
23
22
6
14
27
28
21
12
16
5

>  <PUBCHEM_MMFF94_PARTIAL_CHARGES>  (1) 
22
1 -0.36
14 -0.15
17 0.08
18 -0.15
19 -0.15
2 -0.79
20 -0.15
21 -0.15
22 -0.15
23 0.28
3 -0.85
36 0.15
4 0.37
43 0.15
44 0.15
45 0.15
46 0.4
47 0.15
48 0.15
5 0.37
8 0.41
9 0.09

>  <PUBCHEM_EFFECTIVE_ROTOR_COUNT>  (1) 
9

>  <PUBCHEM_PHARMACOPHORE_FEATURES>  (1) 
7
1 1 acceptor
1 15 hydrophobe
1 16 hydrophobe
1 3 donor
3 2 3 8 cation
6 12 13 18 20 21 22 rings
6 9 12 13 14 17 19 rings

>  <PUBCHEM_HEAVY_ATOM_COUNT>  (1) 
23

>  <PUBCHEM_ATOM_DEF_STEREO_COUNT>  (1) 
0

>  <PUBCHEM_ATOM_UDEF_STEREO_COUNT>  (1) 
0

>  <PUBCHEM_BOND_DEF_STEREO_COUNT>  (1) 
0

>  <PUBCHEM_BOND_UDEF_STEREO_COUNT>  (1) 
0

>  <PUBCHEM_ISOTOPIC_ATOM_COUNT>  (1) 
0

>  <PUBCHEM_COMPONENT_COUNT>  (1) 
1

>  <PUBCHEM_CACTVS_TAUTO_COUNT>  (1) 
1

>  <PUBCHEM_CONFORMER_ID>  (1) 
0000AEC900000001

>  <PUBCHEM_MMFF94_ENERGY>  (1) 
68.3019

>  <PUBCHEM_FEATURE_SELFOVERLAP>  (1) 
35.546

>  <PUBCHEM_SHAPE_FINGERPRINT>  (1) 
10165383 225 17969781883075454389
10906281 52 18129399149736108772
12293681 4 18342466902296485729
12403259 226 18335982089952875479
12403259 327 18409169917535296711
12507560 18 18409166571681783802
12633257 1 18339655489665908921
12788726 201 18124022439429218096
13134695 92 18271518784469111700
13140716 1 17969238874776046165
13583140 156 18195245744243373630
14223421 5 17905328785905526041
14420673 8 17823135627891438602
14466204 15 18270122305680036273
14866123 147 17402617346897683554
15042514 8 17749118815701327131
15238133 3 18340499858598494213
15295992 7 18340208587222939217
17804303 29 18187086178101293566
17980427 23 12751233731362800034
18393751 57 16755491535758114088
18769570 83 18059014956418663169
20600515 1 18335715892227688852
20681677 76 18125156288961906973
21033648 29 17896016828910123173
21120745 212 14518902508045494296
23175994 123 18343585127244248988
23559900 14 17969779863833721903
392239 28 18197522730589302385
5104073 3 18187086191370850018
57527306 92 17702372954245081897
6442390 28 16968586772468299528
7226269 152 18267298734261015456
81228 2 17841736031495660584
9981440 41 17194004157774348665

>  <PUBCHEM_SHAPE_MULTIPOLES>  (1) 
457.5
9.18
4.33
1.6
8.4
5.25
-0.31
-4.77
1.34
1.34
3.37
-0.34
0.06
1.4

>  <PUBCHEM_SHAPE_SELFOVERLAP>  (1) 
943.721

>  <PUBCHEM_SHAPE_VOLUME>  (1) 
263.9

>  <PUBCHEM_COORDINATE_TYPE>  (1) 
2
5
10

$$$$
