44755
     RDKit          3D

 26 27  0  0  0  0  0  0  0  0999 V2000
    4.4483   -0.4165   -0.6365 O   0  0  0  0  0  0  0  0  0  0  0  0
   -1.9295    0.5314   -0.4020 N   0  0  0  0  0  0  0  0  0  0  0  0
   -1.6273   -1.1032   -2.1497 N   0  0  0  0  0  0  0  0  0  0  0  0
   -3.3916    0.5577   -0.5326 C   0  0  0  0  0  0  0  0  0  0  0  0
   -1.3764    1.3731    0.6307 C   0  0  0  0  0  0  0  0  0  0  0  0
   -4.0402   -0.4502    0.4153 C   0  0  0  0  0  0  0  0  0  0  0  0
   -0.9875    2.7396    0.0679 C   0  0  0  0  0  0  0  0  0  0  0  0
   -5.5809   -0.4975    0.3670 C   0  0  0  0  0  0  0  0  0  0  0  0
   -0.3931    3.7257    1.0940 C   0  0  0  0  0  0  0  0  0  0  0  0
   -1.1627   -0.3344   -1.2072 C   0  0  0  0  0  0  0  0  0  0  0  0
    0.3108   -0.4096   -1.0066 C   0  0  0  0  0  0  0  0  0  0  0  0
   -6.1672   -1.4831    1.3787 C   0  0  0  0  0  0  0  0  0  0  0  0
   -6.0417   -0.8717   -1.0446 C   0  0  0  0  0  0  0  0  0  0  0  0
   -0.0799    5.0904    0.4791 C   0  0  0  0  0  0  0  0  0  0  0  0
    0.8787    3.1307    1.7047 C   0  0  0  0  0  0  0  0  0  0  0  0
    0.9046   -1.3216   -0.1190 C   0  0  0  0  0  0  0  0  0  0  0  0
    2.3131   -1.3365    0.0186 C   0  0  0  0  0  0  0  0  0  0  0  0
    1.0945    0.4751   -1.7481 C   0  0  0  0  0  0  0  0  0  0  0  0
    3.0863   -0.4388   -0.7356 C   0  0  0  0  0  0  0  0  0  0  0  0
    2.4796    0.4605   -1.6129 C   0  0  0  0  0  0  0  0  0  0  0  0
    0.1314   -2.2193    0.6352 C   0  0  0  0  0  0  0  0  0  0  0  0
    2.9068   -2.2485    0.9062 C   0  0  0  0  0  0  0  0  0  0  0  0
    0.7381   -3.1187    1.5123 C   0  0  0  0  0  0  0  0  0  0  0  0
    2.1232   -3.1333    1.6476 C   0  0  0  0  0  0  0  0  0  0  0  0
    5.0434    0.8049   -0.2079 C   0  0  0  0  0  0  0  0  0  0  0  0
    6.3191    0.4940    0.5455 C   0  0  0  0  0  0  0  0  0  0  0  0
  1 19  1  0
  1 25  1  0
  2  4  1  0
  2  5  1  0
  2 10  1  0
  3 10  2  0
  4  6  1  0
  5  7  1  0
  6  8  1  0
  7  9  1  0
  8 12  1  0
  8 13  1  0
  9 14  1  0
  9 15  1  0
 10 11  1  0
 11 16  2  0
 11 18  1  0
 16 17  1  0
 16 21  1  0
 17 19  2  0
 17 22  1  0
 18 20  2  0
 19 20  1  0
 21 23  2  0
 22 24  2  0
 23 24  1  0
 25 26  1  0
M  END
>  <PUBCHEM_COMPOUND_CID>  (1) 
44755

>  <PUBCHEM_CONFORMER_RMSD>  (1) 
1

>  <PUBCHEM_CONFORMER_DIVERSEORDER>  (1) 
1
17
30
9
39
22
16
35
34
8
31
53
37
13
7
38
20
15
18
44
46
29
6
10
41
12
50
19
48
45
3
47
26
4
24
51
25
43
23
36
40
42
49
52
5
33
11
21
28
2
14
27
32

>  <PUBCHEM_MMFF94_PARTIAL_CHARGES>  (1) 
22
1 -0.36
10 0.41
11 0.09
18 -0.15
19 0.08
2 -0.79
20 -0.15
21 -0.15
22 -0.15
23 -0.15
24 -0.15
25 0.28
3 -0.85
4 0.37
49 0.15
5 0.37
50 0.15
51 0.4
52 0.15
53 0.15
54 0.15
55 0.15

>  <PUBCHEM_EFFECTIVE_ROTOR_COUNT>  (1) 
10

>  <PUBCHEM_PHARMACOPHORE_FEATURES>  (1) 
7
1 1 acceptor
1 3 donor
3 2 3 10 cation
3 8 12 13 hydrophobe
3 9 14 15 hydrophobe
6 11 16 17 18 19 20 rings
6 16 17 21 22 23 24 rings

>  <PUBCHEM_HEAVY_ATOM_COUNT>  (1) 
26

>  <PUBCHEM_ATOM_DEF_STEREO_COUNT>  (1) 
0

>  <PUBCHEM_ATOM_UDEF_STEREO_COUNT>  (1) 
0

>  <PUBCHEM_BOND_DEF_STEREO_COUNT>  (1) 
0

>  <PUBCHEM_BOND_UDEF_STEREO_COUNT>  (1) 
0

>  <PUBCHEM_ISOTOPIC_ATOM_COUNT>  (1) 
0

>  <PUBCHEM_COMPONENT_COUNT>  (1) 
1

>  <PUBCHEM_CACTVS_TAUTO_COUNT>  (1) 
1

>  <PUBCHEM_CONFORMER_ID>  (1) 
0000AED300000001

>  <PUBCHEM_MMFF94_ENERGY>  (1) 
75.8965

>  <PUBCHEM_FEATURE_SELFOVERLAP>  (1) 
35.546

>  <PUBCHEM_SHAPE_FINGERPRINT>  (1) 
1100329 8 18265899244483516098
11421498 54 18338240366508489698
11578080 2 18044349687491828309
11646440 116 18411428335941006000
12156800 1 16518214585800438080
12788726 201 18339085861112357355
13009979 54 18048871905818055850
13140716 1 17823421689908227078
133893 2 17769900745160035845
13583140 156 18336818771853220415
14787075 74 18409451418144563599
14955137 171 18201732781342964183
15420108 30 14453007900151035861
17492 89 18123471583518970990
18603816 31 12901544689521670200
19319366 153 18333726944449831190
20691752 17 18194380402511436236
21792965 270 17905330976930548728
22079108 93 18335138730570258934
23419403 2 17543894063927665894
23559900 14 17822569512836322013
23598288 3 18053937356113605541
3178227 256 18264221360255027577
3797600 57 18341050701239158738
392239 28 18410018766387154552
4340502 62 18187368748194509334
469060 322 18114475461111610372
5104073 3 17968939665573421883
5171179 24 17764316432354290706
56638632 33 17968081007106327867
6669772 16 18122902307083854657
7097593 13 17253433396878795122

>  <PUBCHEM_SHAPE_MULTIPOLES>  (1) 
519.24
10.9
4.52
1.69
7.87
5.55
0.21
-4.33
-0.68
-1.03
-3.25
0.06
-0.31
-0.47

>  <PUBCHEM_SHAPE_SELFOVERLAP>  (1) 
1063.37

>  <PUBCHEM_SHAPE_VOLUME>  (1) 
301.3

>  <PUBCHEM_COORDINATE_TYPE>  (1) 
2
5
10

$$$$
