44757
     RDKit          3D

 25 26  0  0  0  0  0  0  0  0999 V2000
   -4.7324    0.2776   -0.8396 O   0  0  0  0  0  0  0  0  0  0  0  0
    1.6698    0.0845   -0.3651 N   0  0  0  0  0  0  0  0  0  0  0  0
    1.1145   -1.7889   -1.7792 N   0  0  0  0  0  0  0  0  0  0  0  0
    3.1190   -0.0835   -0.5304 C   0  0  0  0  0  0  0  0  0  0  0  0
    1.2563    1.2008    0.4496 C   0  0  0  0  0  0  0  0  0  0  0  0
    3.6772   -1.0471    0.5161 C   0  0  0  0  0  0  0  0  0  0  0  0
    1.1459    2.4738   -0.3886 C   0  0  0  0  0  0  0  0  0  0  0  0
    5.1952   -1.3043    0.4261 C   0  0  0  0  0  0  0  0  0  0  0  0
    0.6984    3.7309    0.3849 C   0  0  0  0  0  0  0  0  0  0  0  0
    0.7768   -0.7712   -1.0406 C   0  0  0  0  0  0  0  0  0  0  0  0
    5.5442   -1.8544   -0.9597 C   0  0  0  0  0  0  0  0  0  0  0  0
    6.0186   -0.0458    0.7033 C   0  0  0  0  0  0  0  0  0  0  0  0
    1.7130    4.1549    1.4477 C   0  0  0  0  0  0  0  0  0  0  0  0
   -0.6611    3.4758    1.0418 C   0  0  0  0  0  0  0  0  0  0  0  0
   -0.6894   -0.5374   -0.9283 C   0  0  0  0  0  0  0  0  0  0  0  0
   -1.4420   -1.1271    0.0797 C   0  0  0  0  0  0  0  0  0  0  0  0
   -2.8307   -0.8578    0.1243 C   0  0  0  0  0  0  0  0  0  0  0  0
   -1.2410    0.2965   -1.8828 C   0  0  0  0  0  0  0  0  0  0  0  0
   -3.3975   -0.0113   -0.8424 C   0  0  0  0  0  0  0  0  0  0  0  0
   -2.6066    0.5613   -1.8388 C   0  0  0  0  0  0  0  0  0  0  0  0
   -0.8751   -1.9734    1.0464 C   0  0  0  0  0  0  0  0  0  0  0  0
   -3.6116   -1.4428    1.1344 C   0  0  0  0  0  0  0  0  0  0  0  0
   -1.6660   -2.5461    2.0429 C   0  0  0  0  0  0  0  0  0  0  0  0
   -3.0316   -2.2813    2.0869 C   0  0  0  0  0  0  0  0  0  0  0  0
   -5.1437    1.4164   -0.0887 C   0  0  0  0  0  0  0  0  0  0  0  0
  1 19  1  0
  1 25  1  0
  2  4  1  0
  2  5  1  0
  2 10  1  0
  3 10  2  0
  4  6  1  0
  5  7  1  0
  6  8  1  0
  7  9  1  0
  8 11  1  0
  8 12  1  0
  9 13  1  0
  9 14  1  0
 10 15  1  0
 15 16  2  0
 15 18  1  0
 16 17  1  0
 16 21  1  0
 17 19  2  0
 17 22  1  0
 18 20  2  0
 19 20  1  0
 21 23  2  0
 22 24  2  0
 23 24  1  0
M  END
>  <PUBCHEM_COMPOUND_CID>  (1) 
44757

>  <PUBCHEM_CONFORMER_RMSD>  (1) 
1

>  <PUBCHEM_CONFORMER_DIVERSEORDER>  (1) 
2
17
6
3
7
11
13
5
14
12
1
15
10
9
8
16
4

>  <PUBCHEM_MMFF94_PARTIAL_CHARGES>  (1) 
22
1 -0.36
10 0.41
15 0.09
18 -0.15
19 0.08
2 -0.79
20 -0.15
21 -0.15
22 -0.15
23 -0.15
24 -0.15
25 0.28
3 -0.85
4 0.37
48 0.15
49 0.4
5 0.37
50 0.15
51 0.15
52 0.15
53 0.15
54 0.15

>  <PUBCHEM_EFFECTIVE_ROTOR_COUNT>  (1) 
9

>  <PUBCHEM_PHARMACOPHORE_FEATURES>  (1) 
7
1 1 acceptor
1 3 donor
3 2 3 10 cation
3 8 11 12 hydrophobe
3 9 13 14 hydrophobe
6 15 16 17 18 19 20 rings
6 16 17 21 22 23 24 rings

>  <PUBCHEM_HEAVY_ATOM_COUNT>  (1) 
25

>  <PUBCHEM_ATOM_DEF_STEREO_COUNT>  (1) 
0

>  <PUBCHEM_ATOM_UDEF_STEREO_COUNT>  (1) 
0

>  <PUBCHEM_BOND_DEF_STEREO_COUNT>  (1) 
0

>  <PUBCHEM_BOND_UDEF_STEREO_COUNT>  (1) 
0

>  <PUBCHEM_ISOTOPIC_ATOM_COUNT>  (1) 
0

>  <PUBCHEM_COMPONENT_COUNT>  (1) 
1

>  <PUBCHEM_CACTVS_TAUTO_COUNT>  (1) 
1

>  <PUBCHEM_CONFORMER_ID>  (1) 
0000AED500000002

>  <PUBCHEM_MMFF94_ENERGY>  (1) 
79.9172

>  <PUBCHEM_FEATURE_SELFOVERLAP>  (1) 
35.546

>  <PUBCHEM_SHAPE_FINGERPRINT>  (1) 
10006869 2 17621313538309424401
10165383 225 17749949939323212365
10906281 52 18341627974850652500
11640471 11 16629132167985928953
12166972 35 17489012864323505187
12236239 1 16415472736014096662
12293681 4 18339368474492810945
12507560 18 18260264114400152457
12549972 3 18188491414228030897
12633257 1 18265637496629395139
12788726 201 18193547866593728584
13134695 92 18342452681770629380
13583140 156 18193276514496627826
13965767 371 15838777727820627459
14028597 1 18044653092402058753
14466204 15 18338796706834452377
14840074 17 17775288287806230156
14866123 147 17399515624521978594
15238133 3 18337682910008481997
15295992 7 18409449232560182177
17804303 29 17894633677198779583
17980427 23 17631750308321376817
1813 80 17917444128897214940
20600515 1 18114474361356623701
21033648 29 17702929405664649106
23175994 123 18412825780875956108
23558518 356 17834964062202282134
23559900 14 17750229377810054871
437815 12 18409731763645173590
5104073 3 17676492791120250480
5265222 85 17531827817335144862
7226269 152 18335981948129257981
81228 2 18052835658226403252

>  <PUBCHEM_SHAPE_MULTIPOLES>  (1) 
498.66
9.94
4.01
1.82
9.29
5.11
0.04
-4.39
0.19
0.84
2.6
-1.06
-0.57
2.19

>  <PUBCHEM_SHAPE_SELFOVERLAP>  (1) 
1028.369

>  <PUBCHEM_SHAPE_VOLUME>  (1) 
287.7

>  <PUBCHEM_COORDINATE_TYPE>  (1) 
2
5
10

$$$$
