44782
     RDKit          3D

 23 24  0  0  1  0  0  0  0  0999 V2000
    1.1974   -0.4690   -2.7752 Cl  0  0  0  0  0  0  0  0  0  0  0  0
   -2.8031   -0.6983    0.5240 N   0  0  0  0  0  0  0  0  0  0  0  0
    0.3304   -0.3400   -0.0702 C   0  0  0  0  0  0  0  0  0  0  0  0
   -0.4062   -1.0998    1.1230 C   0  0  0  0  0  0  0  0  0  0  0  0
    0.5866   -1.3295   -1.2968 C   0  0  0  0  0  0  0  0  0  0  0  0
   -1.8116   -1.7097    0.8792 C   0  0  0  0  0  0  0  0  0  0  0  0
   -0.6191    0.8611   -0.3966 C   0  0  0  0  0  0  0  0  0  0  0  0
    1.7307    0.1831    0.4150 C   0  0  0  0  0  0  0  0  0  0  0  0
    1.5392   -2.5151   -1.0135 C   0  0  0  0  0  0  0  0  0  0  0  0
   -2.2891   -2.4375    2.1411 C   0  0  0  0  0  0  0  0  0  0  0  0
   -0.4364    2.0094    0.3077 C   0  0  0  0  0  0  0  0  0  0  0  0
    2.4324    0.9598   -0.4479 C   0  0  0  0  0  0  0  0  0  0  0  0
   -1.5577    0.6697   -1.3612 C   0  0  0  0  0  0  0  0  0  0  0  0
    2.1291   -0.1821    1.6594 C   0  0  0  0  0  0  0  0  0  0  0  0
    1.7863   -3.4013   -2.2325 C   0  0  0  0  0  0  0  0  0  0  0  0
   -2.9634    0.2675    1.6114 C   0  0  0  0  0  0  0  0  0  0  0  0
   -4.0862   -1.3259    0.2070 C   0  0  0  0  0  0  0  0  0  0  0  0
   -1.2822    3.0798    0.0169 C   0  0  0  0  0  0  0  0  0  0  0  0
    3.6752    1.4243   -0.0174 C   0  0  0  0  0  0  0  0  0  0  0  0
   -2.4035    1.7401   -1.6520 C   0  0  0  0  0  0  0  0  0  0  0  0
    3.3718    0.2825    2.0900 C   0  0  0  0  0  0  0  0  0  0  0  0
   -2.2656    2.9452   -0.9630 C   0  0  0  0  0  0  0  0  0  0  0  0
    4.1449    1.0858    1.2515 C   0  0  0  0  0  0  0  0  0  0  0  0
  1  5  1  0
  2  6  1  0
  2 16  1  0
  2 17  1  0
  3  4  1  0
  3  5  1  0
  3  7  1  0
  3  8  1  0
  4  6  1  0
  5  9  1  0
  6 10  1  0
  7 11  2  0
  7 13  1  0
  8 12  2  0
  8 14  1  0
  9 15  1  0
 11 18  1  0
 12 19  1  0
 13 20  2  0
 14 21  2  0
 18 22  2  0
 19 23  2  0
 20 22  1  0
 21 23  1  0
M  END
>  <PUBCHEM_COMPOUND_CID>  (1) 
44782

>  <PUBCHEM_CONFORMER_RMSD>  (1) 
0.8

>  <PUBCHEM_CONFORMER_DIVERSEORDER>  (1) 
1
10
18
7
17
11
12
9
13
8
14
5
3
6
4
16
2
15

>  <PUBCHEM_MMFF94_PARTIAL_CHARGES>  (1) 
29
1 -0.29
11 -0.15
12 -0.15
13 -0.15
14 -0.15
16 0.27
17 0.27
18 -0.15
19 -0.15
2 -0.81
20 -0.15
21 -0.15
22 -0.15
23 -0.15
3 0.29
33 0.15
34 0.15
35 0.15
36 0.15
46 0.15
47 0.15
48 0.15
49 0.15
5 0.29
50 0.15
51 0.15
6 0.27
7 -0.14
8 -0.14

>  <PUBCHEM_EFFECTIVE_ROTOR_COUNT>  (1) 
7

>  <PUBCHEM_PHARMACOPHORE_FEATURES>  (1) 
4
1 15 hydrophobe
1 2 cation
6 7 11 13 18 20 22 rings
6 8 12 14 19 21 23 rings

>  <PUBCHEM_HEAVY_ATOM_COUNT>  (1) 
23

>  <PUBCHEM_ATOM_DEF_STEREO_COUNT>  (1) 
0

>  <PUBCHEM_ATOM_UDEF_STEREO_COUNT>  (1) 
2

>  <PUBCHEM_BOND_DEF_STEREO_COUNT>  (1) 
0

>  <PUBCHEM_BOND_UDEF_STEREO_COUNT>  (1) 
0

>  <PUBCHEM_ISOTOPIC_ATOM_COUNT>  (1) 
0

>  <PUBCHEM_COMPONENT_COUNT>  (1) 
1

>  <PUBCHEM_CACTVS_TAUTO_COUNT>  (1) 
1

>  <PUBCHEM_CONFORMER_ID>  (1) 
0000AEEE00000001

>  <PUBCHEM_MMFF94_ENERGY>  (1) 
113.1898

>  <PUBCHEM_FEATURE_SELFOVERLAP>  (1) 
20.297

>  <PUBCHEM_SHAPE_FINGERPRINT>  (1) 
10863032 1 17604971685547301200
10906281 52 18335147531100653669
11370993 70 17316450961106207101
11578080 2 17984172320654507848
12035759 4 16516554198820156958
12592029 89 17701793541470459590
12633257 1 18335424603382575657
12716301 132 17825682057553887771
12788726 201 18113614616452420977
13132413 78 17461165627694725197
13134695 92 17610051639953106399
13140716 1 17971197173266969649
13149001 5 17765165972584989510
133893 2 17273693165931273926
14022347 108 17606436269727455987
14223421 5 18341337682179125092
14713325 29 18121533235335520476
14787075 74 17029387489072277236
14817 1 12328723027856916111
15309172 13 17988071305156355256
15420108 30 17621051180057665785
16945 1 17749943500502395440
17876694 64 16950281831841759469
17980427 23 17967523601633847780
17980427 26 16486707934531035794
18915476 22 17916863508826033894
18981168 100 18195257623848783084
20510252 161 18187916283678915849
20600515 1 17821730584942063311
20691752 17 18191048796770345363
21285901 2 18408888438844049535
21330990 113 18126875839148208452
229495 10 17560231428063186423
23419403 2 18055648225801879391
23493267 7 18261950756948205440
23526113 38 17693377733347797462
23557571 272 18261685813136943767
23559900 14 18265059041627568950
23598288 3 18190717895626016226
238 59 17702931535931465292
2748010 2 18191875521960590349
3250762 1 18197789794874541702
3380486 77 17458347485288843299
4340502 62 17898274019261212085
469060 322 17841969346740032199
5845 1 18190768438632558105
68419 9 16444498743554544798
81228 2 18189356609867983913
9925002 15 16833473272665930727
9981440 41 17985514846275141760

>  <PUBCHEM_SHAPE_MULTIPOLES>  (1) 
470.22
5.81
3.37
2.38
1.2
0.41
0.5
-0.84
-2.39
-1.03
1.22
0.65
1.19
2.53

>  <PUBCHEM_SHAPE_SELFOVERLAP>  (1) 
976.782

>  <PUBCHEM_SHAPE_VOLUME>  (1) 
268.4

>  <PUBCHEM_COORDINATE_TYPE>  (1) 
2
5
10

$$$$
