44790
     RDKit          3D

 12 11  0  0  1  0  0  0  0  0999 V2000
   -2.9789   -0.2787   -1.1880 O   0  0  0  0  0  0  0  0  0  0  0  0
    2.7215   -0.8511    0.5190 N   0  0  0  0  0  0  0  0  0  0  0  0
   -0.0933    0.0321   -0.1803 C   0  0  0  0  0  0  0  0  0  0  0  0
   -1.3875    0.7051    0.3514 C   0  0  0  0  0  0  0  0  0  0  0  0
    1.1028    0.9765    0.1137 C   0  0  0  0  0  0  0  0  0  0  0  0
   -2.7193   -0.0649    0.1998 C   0  0  0  0  0  0  0  0  0  0  0  0
    2.5018    0.4082   -0.1922 C   0  0  0  0  0  0  0  0  0  0  0  0
   -0.1776   -0.3104   -1.6695 C   0  0  0  0  0  0  0  0  0  0  0  0
   -3.8659    0.7986    0.7428 C   0  0  0  0  0  0  0  0  0  0  0  0
   -2.7073   -1.4170    0.9151 C   0  0  0  0  0  0  0  0  0  0  0  0
    3.5834    1.4144    0.2062 C   0  0  0  0  0  0  0  0  0  0  0  0
    4.0201   -1.4129    0.1821 C   0  0  0  0  0  0  0  0  0  0  0  0
  1  6  1  0
  2  7  1  0
  2 12  1  0
  3  4  1  0
  3  5  1  0
  3  8  1  0
  4  6  1  0
  5  7  1  0
  6  9  1  0
  6 10  1  0
  7 11  1  0
M  END
>  <PUBCHEM_COMPOUND_CID>  (1) 
44790

>  <PUBCHEM_CONFORMER_RMSD>  (1) 
0.6

>  <PUBCHEM_CONFORMER_DIVERSEORDER>  (1) 
1
34
25
32
36
12
19
31
16
26
38
18
3
27
35
24
17
15
4
23
40
13
30
2
6
14
20
37
10
33
39
8
7
9
28
11
5
22
21
29

>  <PUBCHEM_MMFF94_PARTIAL_CHARGES>  (1) 
7
1 -0.68
12 0.27
2 -0.9
31 0.36
32 0.4
6 0.28
7 0.27

>  <PUBCHEM_EFFECTIVE_ROTOR_COUNT>  (1) 
5

>  <PUBCHEM_PHARMACOPHORE_FEATURES>  (1) 
6
1 1 acceptor
1 1 donor
1 2 cation
1 2 donor
1 8 hydrophobe
3 6 9 10 hydrophobe

>  <PUBCHEM_HEAVY_ATOM_COUNT>  (1) 
12

>  <PUBCHEM_ATOM_DEF_STEREO_COUNT>  (1) 
0

>  <PUBCHEM_ATOM_UDEF_STEREO_COUNT>  (1) 
2

>  <PUBCHEM_BOND_DEF_STEREO_COUNT>  (1) 
0

>  <PUBCHEM_BOND_UDEF_STEREO_COUNT>  (1) 
0

>  <PUBCHEM_ISOTOPIC_ATOM_COUNT>  (1) 
0

>  <PUBCHEM_COMPONENT_COUNT>  (1) 
1

>  <PUBCHEM_CACTVS_TAUTO_COUNT>  (1) 
1

>  <PUBCHEM_CONFORMER_ID>  (1) 
0000AEF600000001

>  <PUBCHEM_MMFF94_ENERGY>  (1) 
22.1435

>  <PUBCHEM_FEATURE_SELFOVERLAP>  (1) 
30.446

>  <PUBCHEM_SHAPE_FINGERPRINT>  (1) 
11715629 250 11671785935835381442
124424 183 18342455911617502385
12932764 1 17775282811132330568
13296908 3 17312820485100404076
14144814 61 17489586800660909900
14325111 11 18411702105588183832
14577589 140 17385724690628992843
15309172 13 17131844191183488759
15775835 57 17632297899344964329
177051 138 18335424585907118306
18186145 218 17894629249261096656
190213 19 18261108595154426520
19026448 4 17967529081879962117
19422 9 18344144808516535254
20279233 1 17530953709368363626
20281407 28 17240479195809252058
20281475 54 18113623395396897386
20645464 45 18341624694049162371
20645477 56 17676199191546101285
20645477 70 18410849941348777574
20653085 51 10879725298442025687
21293036 1 12613045984596569130
22169311 14 18409735049268651443
22169311 21 18113892792783173002
22485316 2 17821725027159495146
23402539 116 18343295939039316917
3248919 1 18261386792928730512
449060 50 18041284378069897324
528716 315 13984664737256324255
581208 293 17822008748520035680

>  <PUBCHEM_SHAPE_MULTIPOLES>  (1) 
236.1
7.58
1.38
1.1
1.66
0.17
0.43
0.6
-1.66
0.81
-0.3
-0.56
0.18
-0.09

>  <PUBCHEM_SHAPE_SELFOVERLAP>  (1) 
431.994

>  <PUBCHEM_SHAPE_VOLUME>  (1) 
152.4

>  <PUBCHEM_COORDINATE_TYPE>  (1) 
2
5
10

$$$$
