44807
     RDKit          3D

 14 13  0  0  0  0  0  0  0  0999 V2000
   -0.7594   -0.0416   -0.2829 N   0  0  0  0  0  0  0  0  0  0  0  0
    0.7023    0.0148   -0.3402 C   0  0  0  0  0  0  0  0  0  0  0  0
    1.1695    1.4829   -0.3820 C   0  0  0  0  0  0  0  0  0  0  0  0
    1.3433   -0.7081    0.8615 C   0  0  0  0  0  0  0  0  0  0  0  0
   -1.2194   -1.4273   -0.3557 C   0  0  0  0  0  0  0  0  0  0  0  0
   -1.2465    0.5963    0.9391 C   0  0  0  0  0  0  0  0  0  0  0  0
    0.5971    2.2652   -1.5689 C   0  0  0  0  0  0  0  0  0  0  0  0
    2.8750   -0.6953    0.8398 C   0  0  0  0  0  0  0  0  0  0  0  0
   -0.7082   -2.0889   -1.6330 C   0  0  0  0  0  0  0  0  0  0  0  0
   -2.7727    0.5900    0.9678 C   0  0  0  0  0  0  0  0  0  0  0  0
    1.0640    3.7128   -1.5556 C   0  0  0  0  0  0  0  0  0  0  0  0
    3.4522   -1.4421    2.0330 C   0  0  0  0  0  0  0  0  0  0  0  0
   -1.1913   -3.5267   -1.7436 C   0  0  0  0  0  0  0  0  0  0  0  0
   -3.3059    1.2681    2.2205 C   0  0  0  0  0  0  0  0  0  0  0  0
  1  2  1  0
  1  5  1  0
  1  6  1  0
  2  3  1  0
  2  4  1  0
  3  7  1  0
  4  8  1  0
  5  9  1  0
  6 10  1  0
  7 11  1  0
  8 12  1  0
  9 13  1  0
 10 14  1  0
M  END
>  <PUBCHEM_COMPOUND_CID>  (1) 
44807

>  <PUBCHEM_CONFORMER_RMSD>  (1) 
0.8

>  <PUBCHEM_CONFORMER_DIVERSEORDER>  (1) 
1
18
13
11
6
7
10
17
15
14
9
8
19
12
2
16
4
3
5

>  <PUBCHEM_MMFF94_PARTIAL_CHARGES>  (1) 
4
1 -0.81
2 0.27
5 0.27
6 0.27

>  <PUBCHEM_EFFECTIVE_ROTOR_COUNT>  (1) 
9

>  <PUBCHEM_PHARMACOPHORE_FEATURES>  (1) 
5
1 1 cation
1 11 hydrophobe
1 12 hydrophobe
1 13 hydrophobe
1 14 hydrophobe

>  <PUBCHEM_HEAVY_ATOM_COUNT>  (1) 
14

>  <PUBCHEM_ATOM_DEF_STEREO_COUNT>  (1) 
0

>  <PUBCHEM_ATOM_UDEF_STEREO_COUNT>  (1) 
0

>  <PUBCHEM_BOND_DEF_STEREO_COUNT>  (1) 
0

>  <PUBCHEM_BOND_UDEF_STEREO_COUNT>  (1) 
0

>  <PUBCHEM_ISOTOPIC_ATOM_COUNT>  (1) 
0

>  <PUBCHEM_COMPONENT_COUNT>  (1) 
1

>  <PUBCHEM_CACTVS_TAUTO_COUNT>  (1) 
1

>  <PUBCHEM_CONFORMER_ID>  (1) 
0000AF0700000001

>  <PUBCHEM_MMFF94_ENERGY>  (1) 
13.9606

>  <PUBCHEM_FEATURE_SELFOVERLAP>  (1) 
25.374

>  <PUBCHEM_SHAPE_FINGERPRINT>  (1) 
10756046 70 18409173237555494629
12716301 132 16095748747654926752
13380536 261 17549545553345897606
13898156 1 18197500842343820965
14817 1 11556497580281068749
14943834 7 18195246852033478671
15906896 17 17175715572947422296
16945 1 18188503384264824547
17357990 137 18197522721139725153
19765921 60 17326896677988658397
20602899 9 17193702569607961910
20671657 53 17684322447797706222
20711985 344 17270339913132920335
20871998 184 17974836281977032636
21524375 3 17760687975537823213
22112679 90 18409442622600200030
228727 97 17331406874564437357
23211744 25 16465573439380117343
23382010 3 15740766616843088879
23419403 2 16758884018755437400
23526113 38 15647871830381951914
23598291 2 18336838596699545876
266924 1 17979355592162151583
266924 78 17606677195496029271
2748010 2 17474389071647492710
394222 165 17976015172848236289
5845 1 14508255851127655180
68419 9 18054798539552341623
6992083 37 18339912762343787098
76951 1 16450446001922661951
81228 2 18197751423848267830

>  <PUBCHEM_SHAPE_MULTIPOLES>  (1) 
283.13
4.2
3.91
2.31
0.36
0.65
0.33
-0.43
4.28
0.14
-3.7
-0.3
-0.11
-3.15

>  <PUBCHEM_SHAPE_SELFOVERLAP>  (1) 
512.954

>  <PUBCHEM_SHAPE_VOLUME>  (1) 
183.5

>  <PUBCHEM_COORDINATE_TYPE>  (1) 
2
5
10

$$$$
