44814
     RDKit          3D

 26 27  0  0  1  0  0  0  0  0999 V2000
   -4.3760   -1.0284   -0.4217 O   0  0  0  0  0  0  0  0  0  0  0  0
    3.7144   -0.0518   -1.5877 N   0  0  0  0  0  0  0  0  0  0  0  0
   -2.4334    0.2152   -0.3417 N   0  0  0  0  0  0  0  0  0  0  0  0
    0.0463    0.0508   -0.1649 C   0  0  0  0  0  0  0  0  0  0  0  0
    1.2425    0.0097   -1.2285 C   0  0  0  0  0  0  0  0  0  0  0  0
    2.6581    0.1720   -0.6010 C   0  0  0  0  0  0  0  0  0  0  0  0
   -1.3504   -0.2800   -0.8733 C   0  0  0  0  0  0  0  0  0  0  0  0
    0.1411   -1.0496    0.9447 C   0  0  0  0  0  0  0  0  0  0  0  0
    0.0494    1.4926    0.4558 C   0  0  0  0  0  0  0  0  0  0  0  0
    1.1020    1.0424   -2.3726 C   0  0  0  0  0  0  0  0  0  0  0  0
   -1.3927   -1.2469   -2.0674 C   0  0  0  0  0  0  0  0  0  0  0  0
   -0.3968   -0.7585    2.1587 C   0  0  0  0  0  0  0  0  0  0  0  0
    0.7223    1.6630    1.6224 C   0  0  0  0  0  0  0  0  0  0  0  0
    0.7540   -2.2171    0.6141 C   0  0  0  0  0  0  0  0  0  0  0  0
   -0.6205    2.4599   -0.2214 C   0  0  0  0  0  0  0  0  0  0  0  0
   -1.6783   -2.6807   -1.6559 C   0  0  0  0  0  0  0  0  0  0  0  0
    5.0306    0.1336   -0.9780 C   0  0  0  0  0  0  0  0  0  0  0  0
    3.6012   -1.3917   -2.1624 C   0  0  0  0  0  0  0  0  0  0  0  0
   -0.3127   -1.7389    3.1473 C   0  0  0  0  0  0  0  0  0  0  0  0
    0.7254    2.9442    2.1739 C   0  0  0  0  0  0  0  0  0  0  0  0
    0.8380   -3.1975    1.6029 C   0  0  0  0  0  0  0  0  0  0  0  0
   -0.6172    3.7411    0.3302 C   0  0  0  0  0  0  0  0  0  0  0  0
    0.3047   -2.9583    2.8695 C   0  0  0  0  0  0  0  0  0  0  0  0
    0.0557    3.9831    1.5279 C   0  0  0  0  0  0  0  0  0  0  0  0
   -3.6670   -0.1179   -0.8413 C   0  0  0  0  0  0  0  0  0  0  0  0
   -4.1404    0.8096   -1.9292 C   0  0  0  0  0  0  0  0  0  0  0  0
  1 25  2  0
  2  6  1  0
  2 17  1  0
  2 18  1  0
  3  7  2  0
  3 25  1  0
  4  5  1  0
  4  7  1  0
  4  8  1  0
  4  9  1  0
  5  6  1  0
  5 10  1  0
  7 11  1  0
  8 12  2  0
  8 14  1  0
  9 13  2  0
  9 15  1  0
 11 16  1  0
 12 19  1  0
 13 20  1  0
 14 21  2  0
 15 22  2  0
 19 23  2  0
 20 24  2  0
 21 23  1  0
 22 24  1  0
 25 26  1  0
M  END
>  <PUBCHEM_COMPOUND_CID>  (1) 
44814

>  <PUBCHEM_CONFORMER_RMSD>  (1) 
0.8

>  <PUBCHEM_CONFORMER_DIVERSEORDER>  (1) 
1
6
9
8
16
14
5
15
4
12
11
10
7
13
2
3

>  <PUBCHEM_MMFF94_PARTIAL_CHARGES>  (1) 
33
1 -0.57
11 0.06
12 -0.15
13 -0.15
14 -0.15
15 -0.15
17 0.27
18 0.27
19 -0.15
2 -0.81
20 -0.15
21 -0.15
22 -0.15
23 -0.15
24 -0.15
25 0.72
26 0.06
3 -0.66
35 0.15
36 0.15
37 0.15
38 0.15
4 0.35
48 0.15
49 0.15
50 0.15
51 0.15
52 0.15
53 0.15
6 0.27
7 0.33
8 -0.14
9 -0.14

>  <PUBCHEM_EFFECTIVE_ROTOR_COUNT>  (1) 
8

>  <PUBCHEM_PHARMACOPHORE_FEATURES>  (1) 
8
1 1 acceptor
1 10 hydrophobe
1 16 hydrophobe
1 2 cation
1 3 acceptor
1 3 donor
6 8 12 14 19 21 23 rings
6 9 13 15 20 22 24 rings

>  <PUBCHEM_HEAVY_ATOM_COUNT>  (1) 
26

>  <PUBCHEM_ATOM_DEF_STEREO_COUNT>  (1) 
0

>  <PUBCHEM_ATOM_UDEF_STEREO_COUNT>  (1) 
1

>  <PUBCHEM_BOND_DEF_STEREO_COUNT>  (1) 
0

>  <PUBCHEM_BOND_UDEF_STEREO_COUNT>  (1) 
0

>  <PUBCHEM_ISOTOPIC_ATOM_COUNT>  (1) 
0

>  <PUBCHEM_COMPONENT_COUNT>  (1) 
1

>  <PUBCHEM_CACTVS_TAUTO_COUNT>  (1) 
1

>  <PUBCHEM_CONFORMER_ID>  (1) 
0000AF0E00000001

>  <PUBCHEM_MMFF94_ENERGY>  (1) 
114.837

>  <PUBCHEM_FEATURE_SELFOVERLAP>  (1) 
40.643

>  <PUBCHEM_SHAPE_FINGERPRINT>  (1) 
11421498 54 18260830341783229857
11578080 2 17323831192215437401
11582403 64 17183944292142021324
12082328 90 17256313276642907238
12156800 1 17412164474516052401
12293681 160 18408885122733807232
12592029 89 16370719284606628682
12788726 201 18412832365578032200
13149001 5 18118688961351096200
133893 2 16953387763681066298
14817 1 13253425694208287000
14943834 7 17758677754469372696
15420108 30 16897090436245897116
15775530 1 17543360804708316128
16945 1 18262805055517299973
20600515 1 17559652028300905035
20602899 9 17604734208226081190
22907989 373 17683853991466756798
229495 10 17398152659172153535
23352939 185 17131838681146974008
23419403 2 17905632225191891032
23526113 38 18265623267022934749
23558518 356 18121806953400795420
23559900 14 17273390976628001599
266924 1 17975130946418559676
497634 4 15841011983462944564
513532 50 17771588422388759101
70251023 43 17987820526617040118
81228 2 16484761755535865420

>  <PUBCHEM_SHAPE_MULTIPOLES>  (1) 
519.24
5.26
4.23
3.15
0.82
2.39
1.27
-0.89
-5.48
-0.32
3.29
0.65
-1.45
-0.32

>  <PUBCHEM_SHAPE_SELFOVERLAP>  (1) 
1087.179

>  <PUBCHEM_SHAPE_VOLUME>  (1) 
293.2

>  <PUBCHEM_COORDINATE_TYPE>  (1) 
2
5
10

$$$$
