44812
     RDKit          3D

 28 30  0  0  1  0  0  0  0  0999 V2000
   -2.2252    1.3681   -1.0260 O   0  0  0  0  0  0  0  0  0  0  0  0
    6.1377   -0.4220   -0.1565 O   0  0  0  0  0  0  0  0  0  0  0  0
   -1.5280    3.2579   -2.1570 O   0  0  0  0  0  0  0  0  0  0  0  0
    3.3413   -0.1735   -0.6252 N   0  0  0  0  0  0  0  0  0  0  0  0
   -0.5300   -0.2115   -0.0866 C   0  0  0  0  0  0  0  0  0  0  0  0
    0.9559   -0.6906   -0.3523 C   0  0  0  0  0  0  0  0  0  0  0  0
   -0.9663    0.7407   -1.2864 C   0  0  0  0  0  0  0  0  0  0  0  0
    2.0291    0.4110   -0.3556 C   0  0  0  0  0  0  0  0  0  0  0  0
   -0.4992    0.5147    1.3015 C   0  0  0  0  0  0  0  0  0  0  0  0
   -1.5168   -1.4171    0.0263 C   0  0  0  0  0  0  0  0  0  0  0  0
   -1.0055    0.1612   -2.7183 C   0  0  0  0  0  0  0  0  0  0  0  0
    4.2898    0.8569   -1.0703 C   0  0  0  0  0  0  0  0  0  0  0  0
    3.8629   -0.8568    0.5667 C   0  0  0  0  0  0  0  0  0  0  0  0
   -0.7182   -0.2103    2.4729 C   0  0  0  0  0  0  0  0  0  0  0  0
   -2.8558   -1.1944    0.3478 C   0  0  0  0  0  0  0  0  0  0  0  0
   -0.2525    1.8861    1.3659 C   0  0  0  0  0  0  0  0  0  0  0  0
   -1.0593   -2.7162   -0.1946 C   0  0  0  0  0  0  0  0  0  0  0  0
   -1.9439   -1.0130   -2.9506 C   0  0  0  0  0  0  0  0  0  0  0  0
    5.6539    0.2254   -1.3338 C   0  0  0  0  0  0  0  0  0  0  0  0
    5.2374   -1.4472    0.2654 C   0  0  0  0  0  0  0  0  0  0  0  0
   -0.6906    0.4359    3.7086 C   0  0  0  0  0  0  0  0  0  0  0  0
   -3.7372   -2.2708    0.4485 C   0  0  0  0  0  0  0  0  0  0  0  0
   -0.2249    2.5323    2.6018 C   0  0  0  0  0  0  0  0  0  0  0  0
   -1.9409   -3.7925   -0.0939 C   0  0  0  0  0  0  0  0  0  0  0  0
   -2.3654    2.6304   -1.5229 C   0  0  0  0  0  0  0  0  0  0  0  0
   -0.4439    1.8072    3.7732 C   0  0  0  0  0  0  0  0  0  0  0  0
   -3.2798   -3.5697    0.2276 C   0  0  0  0  0  0  0  0  0  0  0  0
   -3.7246    3.1579   -1.1763 C   0  0  0  0  0  0  0  0  0  0  0  0
  1  7  1  0
  1 25  1  0
  2 19  1  0
  2 20  1  0
  3 25  2  0
  4  8  1  0
  4 12  1  0
  4 13  1  0
  5  6  1  0
  5  7  1  0
  5  9  1  0
  5 10  1  0
  6  8  1  0
  7 11  1  0
  9 14  2  0
  9 16  1  0
 10 15  2  0
 10 17  1  0
 11 18  1  0
 12 19  1  0
 13 20  1  0
 14 21  1  0
 15 22  1  0
 16 23  2  0
 17 24  2  0
 21 26  2  0
 22 27  2  0
 23 26  1  0
 24 27  1  0
 25 28  1  0
M  END
>  <PUBCHEM_COMPOUND_CID>  (1) 
44812

>  <PUBCHEM_CONFORMER_RMSD>  (1) 
1

>  <PUBCHEM_CONFORMER_DIVERSEORDER>  (1) 
3
74
98
45
33
32
73
43
93
62
58
92
66
86
87
24
17
52
70
83
29
63
68
25
78
90
22
30
44
47
55
35
5
82
49
36
91
41
75
96
23
64
34
11
27
61
85
76
89
72
67
81
65
14
16
95
6
71
39
84
94
19
46
88
8
21
50
13
59
18
56
4
48
53
80
54
37
79
15
26
60
7
12
10
51
57
2
31
77
9
40
97
28
69
38
1
20
42

>  <PUBCHEM_MMFF94_PARTIAL_CHARGES>  (1) 
35
1 -0.43
10 -0.14
12 0.27
13 0.27
14 -0.15
15 -0.15
16 -0.15
17 -0.15
19 0.28
2 -0.56
20 0.28
21 -0.15
22 -0.15
23 -0.15
24 -0.15
25 0.66
26 -0.15
27 -0.15
28 0.06
3 -0.57
4 -0.81
40 0.15
41 0.15
42 0.15
43 0.15
5 0.29
51 0.15
52 0.15
53 0.15
54 0.15
55 0.15
56 0.15
7 0.28
8 0.27
9 -0.14

>  <PUBCHEM_EFFECTIVE_ROTOR_COUNT>  (1) 
10.2

>  <PUBCHEM_PHARMACOPHORE_FEATURES>  (1) 
7
1 18 hydrophobe
1 2 acceptor
1 3 acceptor
1 4 cation
6 10 15 17 22 24 27 rings
6 2 4 12 13 19 20 rings
6 9 14 16 21 23 26 rings

>  <PUBCHEM_HEAVY_ATOM_COUNT>  (1) 
28

>  <PUBCHEM_ATOM_DEF_STEREO_COUNT>  (1) 
0

>  <PUBCHEM_ATOM_UDEF_STEREO_COUNT>  (1) 
1

>  <PUBCHEM_BOND_DEF_STEREO_COUNT>  (1) 
0

>  <PUBCHEM_BOND_UDEF_STEREO_COUNT>  (1) 
0

>  <PUBCHEM_ISOTOPIC_ATOM_COUNT>  (1) 
0

>  <PUBCHEM_COMPONENT_COUNT>  (1) 
1

>  <PUBCHEM_CACTVS_TAUTO_COUNT>  (1) 
1

>  <PUBCHEM_CONFORMER_ID>  (1) 
0000AF0C00000003

>  <PUBCHEM_MMFF94_ENERGY>  (1) 
88.4808

>  <PUBCHEM_FEATURE_SELFOVERLAP>  (1) 
35.522

>  <PUBCHEM_SHAPE_FINGERPRINT>  (1) 
10165383 225 18340208467396819929
11578080 2 18341324604305279600
11582403 64 16881036595400552813
12293681 160 17700958951704543721
12714826 92 18341607161460195974
12788726 201 17967525809173015538
13149001 5 17558517349359719533
14713325 29 18186519869646840631
17980427 23 14332859273990203411
17980427 26 15907412868705456057
19930381 70 17468200384615221700
20600515 1 17984733200860856471
21304303 282 17484515642765131792
229495 10 17771056391456677213
23419403 2 17845359111208460297
23559900 14 17690557907420593663
25222932 49 16516262709103916041
3552219 110 17909299066864721168
394222 165 17478040563075668877
469060 322 18261688068105388138
484985 159 18270130006846658522
497634 4 18270138901950405404
531348 171 18114750318250171014
57527306 92 16630247992474561009
57527573 199 17343259309944725427

>  <PUBCHEM_SHAPE_MULTIPOLES>  (1) 
553.64
8.24
3.91
3.35
17.97
0.42
-1.16
3.78
2.91
-5.27
-0.6
-2.05
-2.95
1.39

>  <PUBCHEM_SHAPE_SELFOVERLAP>  (1) 
1157.55

>  <PUBCHEM_SHAPE_VOLUME>  (1) 
310

>  <PUBCHEM_COORDINATE_TYPE>  (1) 
2
5
10

$$$$
