44827
     RDKit          3D

 20 22  0  0  0  0  0  0  0  0999 V2000
    0.2077   -0.6242    2.4813 O   0  0  0  0  0  0  0  0  0  0  0  0
   -4.1556   -1.8247   -0.3134 O   0  0  0  0  0  0  0  0  0  0  0  0
    2.7035    0.1060    0.3143 N   0  0  0  0  0  0  0  0  0  0  0  0
   -0.8834    2.5704   -0.5007 N   0  0  0  0  0  0  0  0  0  0  0  0
    2.4362   -1.3021   -0.0108 C   0  0  0  0  0  0  0  0  0  0  0  0
    4.1385    0.4093    0.2221 C   0  0  0  0  0  0  0  0  0  0  0  0
    2.9154   -1.6432   -1.4227 C   0  0  0  0  0  0  0  0  0  0  0  0
    4.6735    0.1241   -1.1820 C   0  0  0  0  0  0  0  0  0  0  0  0
    4.3933   -1.3146   -1.6008 C   0  0  0  0  0  0  0  0  0  0  0  0
    2.1972    0.4282    1.6481 C   0  0  0  0  0  0  0  0  0  0  0  0
    0.6943    0.1862    1.6913 C   0  0  0  0  0  0  0  0  0  0  0  0
   -0.1715    0.9435    0.7674 C   0  0  0  0  0  0  0  0  0  0  0  0
   -1.3887    0.5215    0.2231 C   0  0  0  0  0  0  0  0  0  0  0  0
   -1.8286    1.5730   -0.5838 C   0  0  0  0  0  0  0  0  0  0  0  0
    0.1363    2.1866    0.3285 C   0  0  0  0  0  0  0  0  0  0  0  0
   -2.1822   -0.6390    0.3170 C   0  0  0  0  0  0  0  0  0  0  0  0
   -3.0273    1.5218   -1.3042 C   0  0  0  0  0  0  0  0  0  0  0  0
   -3.3836   -0.7044   -0.3980 C   0  0  0  0  0  0  0  0  0  0  0  0
   -3.7977    0.3605   -1.1956 C   0  0  0  0  0  0  0  0  0  0  0  0
   -3.6774   -2.8791    0.5188 C   0  0  0  0  0  0  0  0  0  0  0  0
  1 11  2  0
  2 18  1  0
  2 20  1  0
  3  5  1  0
  3  6  1  0
  3 10  1  0
  4 14  1  0
  4 15  1  0
  5  7  1  0
  6  8  1  0
  7  9  1  0
  8  9  1  0
 10 11  1  0
 11 12  1  0
 12 13  1  0
 12 15  2  0
 13 14  2  0
 13 16  1  0
 14 17  1  0
 16 18  2  0
 17 19  2  0
 18 19  1  0
M  END
>  <PUBCHEM_COMPOUND_CID>  (1) 
44827

>  <PUBCHEM_CONFORMER_RMSD>  (1) 
0.8

>  <PUBCHEM_CONFORMER_DIVERSEORDER>  (1) 
1
29
14
22
47
39
15
27
7
16
40
6
20
44
2
17
41
31
24
33
8
9
37
18
11
42
4
19
23
50
46
34
12
25
26
43
5
36
35
48
3
10
49
21
30
45
13
32
28
38

>  <PUBCHEM_MMFF94_PARTIAL_CHARGES>  (1) 
21
1 -0.57
10 0.33
11 0.6
12 -0.09
14 -0.15
15 -0.3
16 -0.15
17 -0.15
18 0.08
19 -0.15
2 -0.36
20 0.28
3 -0.81
33 0.15
34 0.27
35 0.15
36 0.15
37 0.15
4 0.03
5 0.27
6 0.27

>  <PUBCHEM_EFFECTIVE_ROTOR_COUNT>  (1) 
5.2

>  <PUBCHEM_PHARMACOPHORE_FEATURES>  (1) 
8
1 1 acceptor
1 2 acceptor
1 3 cation
1 4 cation
1 4 donor
5 4 12 13 14 15 rings
6 13 14 16 17 18 19 rings
6 3 5 6 7 8 9 rings

>  <PUBCHEM_HEAVY_ATOM_COUNT>  (1) 
20

>  <PUBCHEM_ATOM_DEF_STEREO_COUNT>  (1) 
0

>  <PUBCHEM_ATOM_UDEF_STEREO_COUNT>  (1) 
0

>  <PUBCHEM_BOND_DEF_STEREO_COUNT>  (1) 
0

>  <PUBCHEM_BOND_UDEF_STEREO_COUNT>  (1) 
0

>  <PUBCHEM_ISOTOPIC_ATOM_COUNT>  (1) 
0

>  <PUBCHEM_COMPONENT_COUNT>  (1) 
1

>  <PUBCHEM_CACTVS_TAUTO_COUNT>  (1) 
5

>  <PUBCHEM_CONFORMER_ID>  (1) 
0000AF1B00000001

>  <PUBCHEM_MMFF94_ENERGY>  (1) 
42.2483

>  <PUBCHEM_FEATURE_SELFOVERLAP>  (1) 
40.689

>  <PUBCHEM_SHAPE_FINGERPRINT>  (1) 
10465860 71 18333728018133171693
10498660 4 18261106348791481508
107951 10 18053105025990837933
11543360 7 18334300855443855676
11640471 11 15864077563642949888
121448 382 17821447962845101114
12553582 1 18042670854053960819
12596602 18 14045727262098024687
12670546 177 18186801408895054292
12892183 10 10735864067840875708
13103583 49 15769509719484293391
13533116 47 16055452046656570623
13544653 18 17561365084295843622
14251764 30 16558487334799737270
14386348 63 18272647961098072663
14790565 3 17976253539818724557
15375462 189 16128653059477412088
15475509 8 18270399374595678061
17357779 13 18342451590769769359
192875 21 16081082676069685284
19862831 5 17676767570079364224
20028762 73 15594441410965894955
20645477 70 17274238613486827420
20775530 9 17271988042303393255
20871999 31 18334011696607160895
212916 134 10591774181369757519
21475661 188 7853586685707350686
21591331 117 17532960383268471795
21713013 43 18271815575235402822
21731516 1 15697709299634706824
2215653 11 18130496475631414637
23382010 3 16950564423493960624
23402539 116 18040425595327533672
235170 7 18411983555201117222
23557571 272 18411410717922081568
23559900 14 18339354146545052598
2838139 119 14779260934589687030
2871803 45 18343301436075067110
3323516 105 18201998841581848226
3737641 26 15266240046353838750
474 4 14490471937347409532
4921388 177 18338524040661339077
5262128 65 18336275561169116844
5895379 119 13412074278942297727
84936 31 17557402568986381624

>  <PUBCHEM_SHAPE_MULTIPOLES>  (1) 
389.89
8.79
2.41
1.71
3.67
0.45
-0.53
4.34
4.11
-2.05
0.28
0.8
0.12
1.67

>  <PUBCHEM_SHAPE_SELFOVERLAP>  (1) 
837.887

>  <PUBCHEM_SHAPE_VOLUME>  (1) 
216.9

>  <PUBCHEM_COORDINATE_TYPE>  (1) 
2
5
10

$$$$
