44839
     RDKit          3D

 14 13  0  0  0  0  0  0  0  0999 V2000
    3.5932    0.0587   -0.8722 Br  0  0  0  0  0  0  0  0  0  0  0  0
   -4.4394   -0.0714   -1.1012 Br  0  0  0  0  0  0  0  0  0  0  0  0
   -2.8751    1.6309    1.1372 Br  0  0  0  0  0  0  0  0  0  0  0  0
   -2.8500   -1.6016    1.2415 Br  0  0  0  0  0  0  0  0  0  0  0  0
   -0.4155   -0.0061   -0.0415 O   0  0  0  0  0  0  0  0  0  0  0  0
    0.8249   -0.0588   -1.9764 O   0  0  0  0  0  0  0  0  0  0  0  0
    1.9363    0.0209    0.2102 C   0  0  0  0  0  0  0  0  0  0  0  0
    1.9141    1.2937    1.0874 C   0  0  0  0  0  0  0  0  0  0  0  0
    1.9855   -1.2370    1.1077 C   0  0  0  0  0  0  0  0  0  0  0  0
    0.7532   -0.0200   -0.7552 C   0  0  0  0  0  0  0  0  0  0  0  0
    1.9005    2.6205    0.3310 C   0  0  0  0  0  0  0  0  0  0  0  0
    2.1454   -2.5681    0.3759 C   0  0  0  0  0  0  0  0  0  0  0  0
   -1.6168   -0.0404   -0.8185 C   0  0  0  0  0  0  0  0  0  0  0  0
   -2.8564   -0.0213    0.0741 C   0  0  0  0  0  0  0  0  0  0  0  0
  1  7  1  0
  2 14  1  0
  3 14  1  0
  4 14  1  0
  5 10  1  0
  5 13  1  0
  6 10  2  0
  7  8  1  0
  7  9  1  0
  7 10  1  0
  8 11  1  0
  9 12  1  0
 13 14  1  0
M  END
>  <PUBCHEM_COMPOUND_CID>  (1) 
44839

>  <PUBCHEM_CONFORMER_RMSD>  (1) 
0.6

>  <PUBCHEM_CONFORMER_DIVERSEORDER>  (1) 
1
165
155
100
110
172
128
136
81
109
163
115
137
75
120
143
171
160
144
150
159
122
123
151
27
127
54
90
125
116
37
119
59
60
56
106
96
169
131
157
132
103
72
142
111
135
112
47
66
69
53
92
138
168
113
141
93
46
94
108
130
55
146
95
148
162
89
149
99
22
83
133
97
139
84
129
167
33
31
147
173
44
140
58
43
67
107
154
124
45
126
86
121
23
88
105
170
82
87
161
13
38
77
118
79
117
62
76
80
102
98
73
28
7
51
68
57
101
158
70
114
91
50
2
42
39
61
21
156
20
152
166
64
78
24
104
11
14
74
18
71
41
153
35
85
19
3
134
25
63
40
65
12
10
164
49
36
48
52
30
4
34
8
32
145
15
17
5
16
29
26
9
6

>  <PUBCHEM_MMFF94_PARTIAL_CHARGES>  (1) 
10
1 -0.23
10 0.66
13 0.28
14 0.69
2 -0.23
3 -0.23
4 -0.23
5 -0.43
6 -0.57
7 0.29

>  <PUBCHEM_EFFECTIVE_ROTOR_COUNT>  (1) 
6

>  <PUBCHEM_PHARMACOPHORE_FEATURES>  (1) 
8
1 1 hydrophobe
1 11 hydrophobe
1 12 hydrophobe
1 2 hydrophobe
1 3 hydrophobe
1 4 hydrophobe
1 6 acceptor
4 2 3 4 14 hydrophobe

>  <PUBCHEM_HEAVY_ATOM_COUNT>  (1) 
14

>  <PUBCHEM_ATOM_DEF_STEREO_COUNT>  (1) 
0

>  <PUBCHEM_ATOM_UDEF_STEREO_COUNT>  (1) 
0

>  <PUBCHEM_BOND_DEF_STEREO_COUNT>  (1) 
0

>  <PUBCHEM_BOND_UDEF_STEREO_COUNT>  (1) 
0

>  <PUBCHEM_ISOTOPIC_ATOM_COUNT>  (1) 
0

>  <PUBCHEM_COMPONENT_COUNT>  (1) 
1

>  <PUBCHEM_CACTVS_TAUTO_COUNT>  (1) 
1

>  <PUBCHEM_CONFORMER_ID>  (1) 
0000AF2700000001

>  <PUBCHEM_MMFF94_ENERGY>  (1) 
21.5126

>  <PUBCHEM_FEATURE_SELFOVERLAP>  (1) 
41.532

>  <PUBCHEM_SHAPE_FINGERPRINT>  (1) 
10366900 7 18407759257133559145
12162725 195 18059853961337340041
12500047 106 18040711481045850543
12932764 1 18410570695475554047
13533116 47 18336825295813980507
14252887 29 16443356337993425045
15375358 24 16298384660666850479
15775835 57 18336558109676310601
16945 1 18411692201688848906
18186145 218 18412537713567655069
201361 129 18410020909755293288
20233049 118 17131834227239397800
20279233 1 16153431623313867027
20559304 39 18201146685467873552
20645477 70 18272928353822120343
21524375 3 17700123585150602064
21730867 7 18259981595656763458
22169311 21 18113891693767534251
2255824 54 18341045302544317516
22892500 29 18337096938782148269
23419403 2 15095041043322356894
23559900 14 18334848450778475697
312423 11 18131079242310718577
3248919 1 18260266335056597379
7364860 26 18410288112413241450
74978 22 18411983546521569843
8030462 33 18411139130176045599

>  <PUBCHEM_SHAPE_MULTIPOLES>  (1) 
300.14
7.12
2.25
1.53
4.43
0.08
0.23
-0.19
0.92
-1.12
-1.07
0.43
-0.04
-0.04

>  <PUBCHEM_SHAPE_SELFOVERLAP>  (1) 
516.401

>  <PUBCHEM_SHAPE_VOLUME>  (1) 
206.1

>  <PUBCHEM_COORDINATE_TYPE>  (1) 
2
5
10

$$$$
