44843
     RDKit          3D

 25 25  0  0  1  0  0  0  0  0999 V2000
   -3.5033    1.1375    2.7648 Br  0  0  0  0  0  0  0  0  0  0  0  0
   -2.7847    3.1955    0.1490 Br  0  0  0  0  0  0  0  0  0  0  0  0
   -4.3399   -1.2493    0.1738 P   0  0  0  0  0  0  0  0  0  0  0  0
   -3.4847    0.1214    0.1629 O   0  0  0  0  0  0  0  0  0  0  0  0
    0.3861    0.9936   -0.2943 O   0  0  0  0  0  0  0  0  0  0  0  0
   -5.4923   -0.9610   -0.9294 O   0  0  0  0  0  0  0  0  0  0  0  0
   -3.3720   -2.3022   -0.5869 O   0  0  0  0  0  0  0  0  0  0  0  0
   -1.3443    1.3978   -1.7628 O   0  0  0  0  0  0  0  0  0  0  0  0
   -4.8521   -1.7014    1.5111 O   0  0  0  0  0  0  0  0  0  0  0  0
    6.6840   -1.8495    0.8659 O   0  0  0  0  0  0  0  0  0  0  0  0
    7.2759    0.2613    0.7492 O   0  0  0  0  0  0  0  0  0  0  0  0
    6.4281   -0.6510    0.5961 N   0  0  0  0  0  0  0  0  0  0  0  0
   -2.5323    0.4805    1.1595 C   0  0  0  0  0  0  0  0  0  0  0  0
   -1.6758    1.6494    0.6401 C   0  0  0  0  0  0  0  0  0  0  0  0
   -1.6774   -0.7013    1.6282 C   0  0  0  0  0  0  0  0  0  0  0  0
   -0.8951    1.3345   -0.6254 C   0  0  0  0  0  0  0  0  0  0  0  0
    1.2479    0.6915   -1.3960 C   0  0  0  0  0  0  0  0  0  0  0  0
    2.6086    0.3391   -0.8711 C   0  0  0  0  0  0  0  0  0  0  0  0
    3.5673    1.3364   -0.6924 C   0  0  0  0  0  0  0  0  0  0  0  0
    2.9155   -0.9864   -0.5633 C   0  0  0  0  0  0  0  0  0  0  0  0
    4.8327    1.0085   -0.2058 C   0  0  0  0  0  0  0  0  0  0  0  0
    4.1808   -1.3144   -0.0768 C   0  0  0  0  0  0  0  0  0  0  0  0
    5.1395   -0.3170    0.1019 C   0  0  0  0  0  0  0  0  0  0  0  0
   -6.4629    0.0314   -0.6436 C   0  0  0  0  0  0  0  0  0  0  0  0
   -2.8496   -1.9449   -1.8545 C   0  0  0  0  0  0  0  0  0  0  0  0
  1 13  1  0
  2 14  1  0
  3  4  1  0
  3  6  1  0
  3  7  1  0
  3  9  2  0
  4 13  1  0
  5 16  1  0
  5 17  1  0
  6 24  1  0
  7 25  1  0
  8 16  2  0
 10 12  1  0
 11 12  2  0
 12 23  1  0
 13 14  1  0
 13 15  1  0
 14 16  1  0
 17 18  1  0
 18 19  2  0
 18 20  1  0
 19 21  1  0
 20 22  2  0
 21 23  2  0
 22 23  1  0
M  CHG  2  10  -1  12   1
M  END
>  <PUBCHEM_COMPOUND_CID>  (1) 
44843

>  <PUBCHEM_CONFORMER_RMSD>  (1) 
1

>  <PUBCHEM_CONFORMER_DIVERSEORDER>  (1) 
1
183
326
368
86
117
358
185
195
102
132
356
31
164
353
394
157
248
190
318
65
187
354
347
54
240
176
71
351
100
200
57
113
366
47
28
244
389
276
23
179
62
34
311
218
26
161
224
328
329
78
407
207
339
89
217
166
221
90
277
30
44
129
22
156
110
410
109
308
118
119
293
243
307
85
145
302
140
325
340
280
197
40
154
158
251
272
399
236
114
319
107
17
201
220
9
225
130
391
194
6
16
231
191
188
173
336
180
136
83
386
263
73
93
400
377
202
53
361
262
275
123
103
105
203
287
208
35
237
338
171
182
115
4
233
268
375
346
253
249
309
257
266
76
379
160
314
49
382
51
74
415
167
337
175
108
82
7
60
213
359
106
159
370
144
70
205
413
59
147
196
396
178
227
269
387
58
298
229
332
149
153
95
271
230
14
5
411
222
252
232
184
267
52
219
409
32
133
33
365
168
247
321
39
66
122
42
206
349
372
297
61
261
94
290
163
310
323
137
238
46
8
381
350
241
301
392
304
72
333
36
146
291
181
56
186
2
120
135
300
142
285
170
352
75
97
216
12
169
355
289
165
29
273
373
67
246
388
84
3
260
283
258
50
362
45
242
96
398
162
342
38
369
363
99
104
81
250
315
177
63
204
116
397
371
209
48
55
278
384
334
376
330
88
43
357
343
245
254
101
172
228
286
303
77
37
150
210
235
395
134
24
385
281
264
69
192
212
305
292
316
274
19
193
79
378
401
418
306
143
127
408
294
211
21
189
317
255
64
393
414
125
284
141
327
296
360
265
11
139
174
412
380
256
111
282
131
295
148
87
198
124
234
320
239
299
335
322
25
402
98
138
15
155
348
80
331
10
20
344
152
13
199
406
324
215
405
288
18
214
341
128
259
383
416
91
223
390
112
367
417
312
121
374
404
226
68
345
419
403
313
279
270
364
92
151
27
126
41

>  <PUBCHEM_MMFF94_PARTIAL_CHARGES>  (1) 
28
1 -0.23
10 -0.52
11 -0.52
12 0.91
13 0.51
14 0.29
16 0.66
17 0.42
18 -0.14
19 -0.15
2 -0.23
20 -0.15
21 -0.15
22 -0.15
23 0.13
24 0.28
25 0.28
3 1.51
32 0.15
33 0.15
34 0.15
35 0.15
4 -0.55
5 -0.43
6 -0.55
7 -0.55
8 -0.57
9 -0.7

>  <PUBCHEM_EFFECTIVE_ROTOR_COUNT>  (1) 
10

>  <PUBCHEM_PHARMACOPHORE_FEATURES>  (1) 
9
1 1 hydrophobe
1 10 acceptor
1 10 anion
1 11 acceptor
1 2 hydrophobe
1 8 acceptor
1 9 acceptor
3 1 13 15 hydrophobe
6 18 19 20 21 22 23 rings

>  <PUBCHEM_HEAVY_ATOM_COUNT>  (1) 
25

>  <PUBCHEM_ATOM_DEF_STEREO_COUNT>  (1) 
0

>  <PUBCHEM_ATOM_UDEF_STEREO_COUNT>  (1) 
2

>  <PUBCHEM_BOND_DEF_STEREO_COUNT>  (1) 
0

>  <PUBCHEM_BOND_UDEF_STEREO_COUNT>  (1) 
0

>  <PUBCHEM_ISOTOPIC_ATOM_COUNT>  (1) 
0

>  <PUBCHEM_COMPONENT_COUNT>  (1) 
1

>  <PUBCHEM_CACTVS_TAUTO_COUNT>  (1) 
1

>  <PUBCHEM_CONFORMER_ID>  (1) 
0000AF2B00000001

>  <PUBCHEM_MMFF94_ENERGY>  (1) 
59.6854

>  <PUBCHEM_FEATURE_SELFOVERLAP>  (1) 
46.678

>  <PUBCHEM_SHAPE_FINGERPRINT>  (1) 
10 15 16128649765575125770
10613725 11 12901541343293252446
12403259 118 17203336593348477392
12523318 42 17989207048970010819
12633257 1 17131564937063767659
13004483 165 18342176704631567437
13583140 156 17775276124005511104
13914758 101 17967808310842055957
14251752 14 16878215403329994173
14341114 328 18059306421774114576
14713325 29 12757156792439325481
14848160 23 18040716999762165434
15183329 4 12035441757601680544
15188451 53 18409161100331324224
17349148 13 18040159538998526956
17857418 61 18411981373252235198
18927931 339 17530976747704808352
19377110 9 18342740762860695724
200 152 18259987097436185605
20028762 73 18410009932231133758
20511986 3 18340477937063783499
21033648 29 10231454308759155550
21756936 100 9079118843427939085
22393880 68 13334743465976539752
23198884 109 14562528483777171463
23402539 116 18040716969565739965
23559900 14 18115588295770058485
339767 52 18412825811020160231
347723 3 17603585240640663901
392239 28 17561084751912478258
4325135 7 18343300384050471156
469060 322 15985092016714881693
504579 68 18114756996750016276
5104073 3 16701471043790310254
5283173 99 18114173117215746149
559249 180 18261671485384591653
5924683 9 18411421687305530641
59755656 215 15864065447287059032

>  <PUBCHEM_SHAPE_MULTIPOLES>  (1) 
478.29
16.31
2.46
1.79
20.66
0.52
0.65
-5.71
3.83
-2.76
-0.26
-1.76
0.19
-1.44

>  <PUBCHEM_SHAPE_SELFOVERLAP>  (1) 
929.574

>  <PUBCHEM_SHAPE_VOLUME>  (1) 
295.5

>  <PUBCHEM_COORDINATE_TYPE>  (1) 
2
5
10

$$$$
