44842
     RDKit          3D

 13 13  0  0  0  0  0  0  0  0999 V2000
    0.9024   -2.5441   -0.1134 Cl  0  0  0  0  0  0  0  0  0  0  0  0
   -0.3625    0.0569   -0.9338 O   0  0  0  0  0  0  0  0  0  0  0  0
   -1.0675    0.3720    1.2741 O   0  0  0  0  0  0  0  0  0  0  0  0
   -3.7823    0.1793    0.5237 C   0  0  0  0  0  0  0  0  0  0  0  0
   -2.6795    0.0703   -0.5262 C   0  0  0  0  0  0  0  0  0  0  0  0
   -5.1607    0.0241   -0.0976 C   0  0  0  0  0  0  0  0  0  0  0  0
   -1.3018    0.1901    0.0870 C   0  0  0  0  0  0  0  0  0  0  0  0
    0.9541    0.1522   -0.4768 C   0  0  0  0  0  0  0  0  0  0  0  0
    1.6291   -0.9802   -0.0765 C   0  0  0  0  0  0  0  0  0  0  0  0
    1.5301    1.4049   -0.4488 C   0  0  0  0  0  0  0  0  0  0  0  0
    2.9434   -0.8552    0.3738 C   0  0  0  0  0  0  0  0  0  0  0  0
    2.8443    1.5298    0.0016 C   0  0  0  0  0  0  0  0  0  0  0  0
    3.5510    0.3998    0.4128 C   0  0  0  0  0  0  0  0  0  0  0  0
  1  9  1  0
  2  7  1  0
  2  8  1  0
  3  7  2  0
  4  5  1  0
  4  6  1  0
  5  7  1  0
  8  9  2  0
  8 10  1  0
  9 11  1  0
 10 12  2  0
 11 13  2  0
 12 13  1  0
M  END
>  <PUBCHEM_COMPOUND_CID>  (1) 
44842

>  <PUBCHEM_CONFORMER_RMSD>  (1) 
0.6

>  <PUBCHEM_CONFORMER_DIVERSEORDER>  (1) 
1
37
42
60
64
65
11
53
54
52
70
7
30
48
27
38
58
21
68
19
55
14
4
40
34
41
71
5
66
17
59
43
39
49
69
50
26
47
67
2
25
9
28
23
33
36
24
61
51
18
16
3
12
31
57
44
13
35
20
8
22
6
32
46
63
29
10
15
45
56
62

>  <PUBCHEM_MMFF94_PARTIAL_CHARGES>  (1) 
15
1 -0.18
10 -0.15
11 -0.15
12 -0.15
13 -0.15
2 -0.23
21 0.15
22 0.15
23 0.15
24 0.15
3 -0.57
5 0.06
7 0.66
8 0.08
9 0.18

>  <PUBCHEM_EFFECTIVE_ROTOR_COUNT>  (1) 
4

>  <PUBCHEM_PHARMACOPHORE_FEATURES>  (1) 
3
1 3 acceptor
1 6 hydrophobe
6 8 9 10 11 12 13 rings

>  <PUBCHEM_HEAVY_ATOM_COUNT>  (1) 
13

>  <PUBCHEM_ATOM_DEF_STEREO_COUNT>  (1) 
0

>  <PUBCHEM_ATOM_UDEF_STEREO_COUNT>  (1) 
0

>  <PUBCHEM_BOND_DEF_STEREO_COUNT>  (1) 
0

>  <PUBCHEM_BOND_UDEF_STEREO_COUNT>  (1) 
0

>  <PUBCHEM_ISOTOPIC_ATOM_COUNT>  (1) 
0

>  <PUBCHEM_COMPONENT_COUNT>  (1) 
1

>  <PUBCHEM_CACTVS_TAUTO_COUNT>  (1) 
1

>  <PUBCHEM_CONFORMER_ID>  (1) 
0000AF2A00000001

>  <PUBCHEM_MMFF94_ENERGY>  (1) 
26.7507

>  <PUBCHEM_FEATURE_SELFOVERLAP>  (1) 
15.223

>  <PUBCHEM_SHAPE_FINGERPRINT>  (1) 
10219947 1 18335138691646280948
11062470 55 18344146994876441497
11471102 20 18409165506545828877
12251169 10 18261107495674336810
12346645 6 18409449184903975070
13380535 76 18335985345596231611
14251717 144 18410292497443072767
14252887 29 18040724632203997659
15207287 21 17676206853298207010
15219456 202 18114734950134226709
15775835 57 18130506426485264844
16945 1 18409443670561586262
18186145 218 18341891909064583029
20201158 50 18186523176544675451
20279233 1 17748832912597016419
20645477 70 18336261254638172599
20871998 22 18053383198085248806
21730867 7 18334859411218523423
23402539 116 17530954809381106087
26918003 58 18261109682029014081
3060560 45 18411706482566105774
33824 294 18335137579060243563
57812782 119 17821728338552919425
581208 293 18410011035219310791
69090 78 18114178670571048947
7364860 26 18129667396013165798
8272917 22 18341336587358272575

>  <PUBCHEM_SHAPE_MULTIPOLES>  (1) 
257.67
7.54
1.68
0.85
9.64
0.98
0.07
-1.19
0.81
-1.58
-0.11
0.14
-0.05
-0.11

>  <PUBCHEM_SHAPE_SELFOVERLAP>  (1) 
516.969

>  <PUBCHEM_SHAPE_VOLUME>  (1) 
152

>  <PUBCHEM_COORDINATE_TYPE>  (1) 
2
5
10

$$$$
