44844
     RDKit          3D

 11 10  0  0  0  0  0  0  0  0999 V2000
   -3.5285    0.1890   -1.3430 O   0  0  0  0  0  0  0  0  0  0  0  0
   -3.3235   -0.4357    0.8312 O   0  0  0  0  0  0  0  0  0  0  0  0
    1.5054   -0.0261   -0.0149 N   0  0  0  0  0  0  0  0  0  0  0  0
    0.7943    0.8243    0.9334 C   0  0  0  0  0  0  0  0  0  0  0  0
   -0.6693    0.3932    1.0362 C   0  0  0  0  0  0  0  0  0  0  0  0
    1.4620   -1.4245    0.4148 C   0  0  0  0  0  0  0  0  0  0  0  0
    2.8925    0.4170   -0.1640 C   0  0  0  0  0  0  0  0  0  0  0  0
   -1.4002    0.4878   -0.2996 C   0  0  0  0  0  0  0  0  0  0  0  0
    2.1426   -2.3311   -0.5966 C   0  0  0  0  0  0  0  0  0  0  0  0
    2.9606    1.8677   -0.6100 C   0  0  0  0  0  0  0  0  0  0  0  0
   -2.8359    0.0383   -0.1873 C   0  0  0  0  0  0  0  0  0  0  0  0
  1 11  1  0
  2 11  2  0
  3  4  1  0
  3  6  1  0
  3  7  1  0
  4  5  1  0
  5  8  1  0
  6  9  1  0
  7 10  1  0
  8 11  1  0
M  END
>  <PUBCHEM_COMPOUND_CID>  (1) 
44844

>  <PUBCHEM_CONFORMER_RMSD>  (1) 
0.6

>  <PUBCHEM_CONFORMER_DIVERSEORDER>  (1) 
1
90
32
82
28
52
53
91
77
38
88
22
87
41
25
60
92
47
75
49
89
7
80
86
55
93
61
12
37
13
16
71
56
43
3
48
50
57
15
2
66
24
18
74
8
42
20
30
31
26
83
29
78
35
39
54
84
45
33
73
46
44
81
51
21
79
72
14
27
85
23
63
76
36
34
6
9
58
19
59
67
40
70
10
17
65
5
68
64
11
69
62
4

>  <PUBCHEM_MMFF94_PARTIAL_CHARGES>  (1) 
9
1 -0.65
11 0.66
2 -0.57
28 0.5
3 -0.81
4 0.27
6 0.27
7 0.27
8 0.06

>  <PUBCHEM_EFFECTIVE_ROTOR_COUNT>  (1) 
6

>  <PUBCHEM_PHARMACOPHORE_FEATURES>  (1) 
4
1 1 acceptor
1 2 acceptor
1 3 cation
3 1 2 11 anion

>  <PUBCHEM_HEAVY_ATOM_COUNT>  (1) 
11

>  <PUBCHEM_ATOM_DEF_STEREO_COUNT>  (1) 
0

>  <PUBCHEM_ATOM_UDEF_STEREO_COUNT>  (1) 
0

>  <PUBCHEM_BOND_DEF_STEREO_COUNT>  (1) 
0

>  <PUBCHEM_BOND_UDEF_STEREO_COUNT>  (1) 
0

>  <PUBCHEM_ISOTOPIC_ATOM_COUNT>  (1) 
0

>  <PUBCHEM_COMPONENT_COUNT>  (1) 
1

>  <PUBCHEM_CACTVS_TAUTO_COUNT>  (1) 
1

>  <PUBCHEM_CONFORMER_ID>  (1) 
0000AF2C00000001

>  <PUBCHEM_MMFF94_ENERGY>  (1) 
9.508

>  <PUBCHEM_FEATURE_SELFOVERLAP>  (1) 
20.355

>  <PUBCHEM_SHAPE_FINGERPRINT>  (1) 
107287 299 18409736195993329450
12119455 92 18042113410137953316
12897270 3 18335139803821433344
12932764 1 17561079203020512073
14390081 3 16370717128475231421
15310529 11 18413107238736224309
170605 34 18040434429711323080
18186145 218 17749111037140565945
18342897 55 18341051942453136660
18522851 12 17560806541290448935
20201158 50 18409165485007883819
20645477 70 18339637846246569215
20671657 53 18192999205870413278
21499 59 18266180711260987788
228727 97 17774739622481746000
230 275 14056997178909610873
23532345 88 18340477864139205622
23552423 10 18268715999974080291
23557571 272 17385730209661870837
3248919 1 18336256869291680833
8030462 33 18059853956857665609
81539 233 18186802508875933310

>  <PUBCHEM_SHAPE_MULTIPOLES>  (1) 
209.66
5.81
1.8
1.06
3.95
0.82
-0.01
-0.5
-1.58
-2.33
-0.33
0.48
-0.1
-0.01

>  <PUBCHEM_SHAPE_SELFOVERLAP>  (1) 
385.72

>  <PUBCHEM_SHAPE_VOLUME>  (1) 
133.8

>  <PUBCHEM_COORDINATE_TYPE>  (1) 
2
5
10

$$$$
