44856
     RDKit          3D

 14 14  0  0  1  0  0  0  0  0999 V2000
   -3.7596   -0.4113   -0.9624 O   0  0  0  0  0  0  0  0  0  0  0  0
   -3.3721    1.0348    0.7933 O   0  0  0  0  0  0  0  0  0  0  0  0
    1.3169   -0.2575    0.2601 N   0  0  0  0  0  0  0  0  0  0  0  0
    2.6390   -0.8915    0.0509 C   0  0  0  0  0  0  0  0  0  0  0  0
    3.4621   -0.0870   -0.9755 C   0  0  0  0  0  0  0  0  0  0  0  0
    1.4612    1.1380    0.7115 C   0  0  0  0  0  0  0  0  0  0  0  0
    3.6096    1.3731   -0.5676 C   0  0  0  0  0  0  0  0  0  0  0  0
    2.2432    1.9812   -0.2928 C   0  0  0  0  0  0  0  0  0  0  0  0
    0.4881   -0.9902    1.2217 C   0  0  0  0  0  0  0  0  0  0  0  0
    2.5290   -2.3376   -0.4529 C   0  0  0  0  0  0  0  0  0  0  0  0
   -0.9058   -0.3713    1.3006 C   0  0  0  0  0  0  0  0  0  0  0  0
   -1.5970   -0.3909   -0.0624 C   0  0  0  0  0  0  0  0  0  0  0  0
   -2.9948    0.1809    0.0026 C   0  0  0  0  0  0  0  0  0  0  0  0
   -5.1198    0.0294   -1.0271 C   0  0  0  0  0  0  0  0  0  0  0  0
  1 13  1  0
  1 14  1  0
  2 13  2  0
  3  4  1  0
  3  6  1  0
  3  9  1  0
  4  5  1  0
  4 10  1  0
  5  7  1  0
  6  8  1  0
  7  8  1  0
  9 11  1  0
 11 12  1  0
 12 13  1  0
M  END
>  <PUBCHEM_COMPOUND_CID>  (1) 
44856

>  <PUBCHEM_CONFORMER_RMSD>  (1) 
0.6

>  <PUBCHEM_CONFORMER_DIVERSEORDER>  (1) 
19
102
167
136
131
180
163
161
152
126
127
149
150
176
144
18
41
164
156
98
31
155
146
171
143
172
108
97
7
134
165
101
148
6
37
11
125
59
173
99
129
147
158
43
104
179
168
26
84
121
45
40
78
52
140
21
75
85
151
79
1
33
46
124
160
177
153
71
57
105
170
20
4
66
114
157
94
13
16
88
24
139
116
110
44
30
142
47
34
89
115
80
55
56
49
111
15
82
64
123
118
175
36
109
3
91
77
96
169
113
128
87
93
162
63
9
83
103
107
135
76
67
12
23
69
32
86
60
38
130
2
120
141
54
92
81
17
73
39
62
35
178
117
50
122
48
90
106
10
42
68
174
100
8
74
51
145
5
70
29
119
137
22
138
166
65
25
58
27
159
53
112
72
154
133
95
14
28
132
61
181

>  <PUBCHEM_MMFF94_PARTIAL_CHARGES>  (1) 
9
1 -0.43
12 0.06
13 0.66
14 0.28
2 -0.57
3 -0.81
4 0.27
6 0.27
9 0.27

>  <PUBCHEM_EFFECTIVE_ROTOR_COUNT>  (1) 
6.2

>  <PUBCHEM_PHARMACOPHORE_FEATURES>  (1) 
3
1 2 acceptor
1 3 cation
6 3 4 5 6 7 8 rings

>  <PUBCHEM_HEAVY_ATOM_COUNT>  (1) 
14

>  <PUBCHEM_ATOM_DEF_STEREO_COUNT>  (1) 
0

>  <PUBCHEM_ATOM_UDEF_STEREO_COUNT>  (1) 
1

>  <PUBCHEM_BOND_DEF_STEREO_COUNT>  (1) 
0

>  <PUBCHEM_BOND_UDEF_STEREO_COUNT>  (1) 
0

>  <PUBCHEM_ISOTOPIC_ATOM_COUNT>  (1) 
0

>  <PUBCHEM_COMPONENT_COUNT>  (1) 
1

>  <PUBCHEM_CACTVS_TAUTO_COUNT>  (1) 
1

>  <PUBCHEM_CONFORMER_ID>  (1) 
0000AF3800000013

>  <PUBCHEM_MMFF94_ENERGY>  (1) 
11.51

>  <PUBCHEM_FEATURE_SELFOVERLAP>  (1) 
15.223

>  <PUBCHEM_SHAPE_FINGERPRINT>  (1) 
10498660 4 17385721417848056805
10751810 167 17132121229801867409
11471102 20 18408044017971280372
11543360 7 18412258467578770263
12616999 72 18272087214436630326
12654215 9 18261119595119591988
12730499 353 18260275174073165875
13675066 3 11312057664947288103
14250199 8 18408324401868341077
14251717 144 18412543197787380414
14576447 43 18060134353554933414
15477762 27 18343581807060689526
18186145 218 17894920598241111235
18915474 69 17703504488889904423
19422 9 18201720618043015275
20233049 118 15285358418492722262
20606313 2 18334857221122741140
20645476 183 17988924504588947303
20645477 70 18410012113414714943
20671657 53 16056885731908320970
20767249 442 16370719340288163959
21947302 44 18259705618575723970
22096605 113 18411420656513067848
22289505 5 18261664887829704141
231179 274 17385436648346716596
23402655 69 18410856568356565253
23557571 272 17459200719096529603
23590187 173 16950554468033815375
23590187 302 18272927237172768977
23598291 2 18058176033341351083
25 1 18261403255902158738
2748010 2 17906760311922843832
276578 36 15285351830070970800
3060560 45 18413390955976040326
3082319 5 18131071536880907201
4028521 119 18040148526855549421
4072396 5 18261381261991840536
42 15 10375877398376176927
522135 26 18413385423825885183
5281201 14 18335136441236366573
5374978 207 11097849667030766127
633830 44 18187369770907935121
93112 12 18413109484925037863

>  <PUBCHEM_SHAPE_MULTIPOLES>  (1) 
271.39
8.46
1.78
1.16
9.85
0.16
0.12
-1.29
-3.78
-2.2
-0.13
0.39
0.11
-0.11

>  <PUBCHEM_SHAPE_SELFOVERLAP>  (1) 
522.836

>  <PUBCHEM_SHAPE_VOLUME>  (1) 
166.2

>  <PUBCHEM_COORDINATE_TYPE>  (1) 
2
5
10

$$$$
