44861
     RDKit          3D

 21 22  0  0  1  0  0  0  0  0999 V2000
   -3.4488   -1.5357   -0.2911 N   0  0  0  0  0  0  0  0  0  0  0  0
    0.0994   -0.6523    3.1013 N   0  0  0  0  0  0  0  0  0  0  0  0
   -0.9674   -1.1781   -0.1320 C   0  0  0  0  0  0  0  0  0  0  0  0
    0.1873   -0.2388    0.4735 C   0  0  0  0  0  0  0  0  0  0  0  0
   -2.3868   -0.7830    0.3753 C   0  0  0  0  0  0  0  0  0  0  0  0
   -0.0746    1.2499    0.1053 C   0  0  0  0  0  0  0  0  0  0  0  0
    1.6166   -0.5759   -0.0416 C   0  0  0  0  0  0  0  0  0  0  0  0
   -0.7186   -2.6808    0.1424 C   0  0  0  0  0  0  0  0  0  0  0  0
    0.1395   -0.4641    1.9560 C   0  0  0  0  0  0  0  0  0  0  0  0
    0.3045    2.2011    1.0063 C   0  0  0  0  0  0  0  0  0  0  0  0
    2.6597   -0.3838    0.8157 C   0  0  0  0  0  0  0  0  0  0  0  0
   -0.6664    1.5105   -1.0956 C   0  0  0  0  0  0  0  0  0  0  0  0
    1.7358   -1.0425   -1.3173 C   0  0  0  0  0  0  0  0  0  0  0  0
   -3.4434   -1.2644   -1.7281 C   0  0  0  0  0  0  0  0  0  0  0  0
   -4.7506   -1.2038    0.2867 C   0  0  0  0  0  0  0  0  0  0  0  0
    0.0698    3.5358    0.6761 C   0  0  0  0  0  0  0  0  0  0  0  0
    3.9408   -0.6860    0.3542 C   0  0  0  0  0  0  0  0  0  0  0  0
   -0.9009    2.8453   -1.4257 C   0  0  0  0  0  0  0  0  0  0  0  0
    3.0170   -1.3449   -1.7788 C   0  0  0  0  0  0  0  0  0  0  0  0
   -0.5327    3.8580   -0.5398 C   0  0  0  0  0  0  0  0  0  0  0  0
    4.1195   -1.1666   -0.9429 C   0  0  0  0  0  0  0  0  0  0  0  0
  1  5  1  0
  1 14  1  0
  1 15  1  0
  2  9  3  0
  3  4  1  0
  3  5  1  0
  3  8  1  0
  4  6  1  0
  4  7  1  0
  4  9  1  0
  6 10  2  0
  6 12  1  0
  7 11  2  0
  7 13  1  0
 10 16  1  0
 11 17  1  0
 12 18  2  0
 13 19  2  0
 16 20  2  0
 17 21  2  0
 18 20  1  0
 19 21  1  0
M  END
>  <PUBCHEM_COMPOUND_CID>  (1) 
44861

>  <PUBCHEM_CONFORMER_RMSD>  (1) 
0.8

>  <PUBCHEM_CONFORMER_DIVERSEORDER>  (1) 
1
7
4
3
6
5
2

>  <PUBCHEM_MMFF94_PARTIAL_CHARGES>  (1) 
29
1 -0.81
10 -0.15
11 -0.15
12 -0.15
13 -0.15
14 0.27
15 0.27
16 -0.15
17 -0.15
18 -0.15
19 -0.15
2 -0.56
20 -0.15
21 -0.15
28 0.15
29 0.15
30 0.15
31 0.15
38 0.15
39 0.15
4 0.49
40 0.15
41 0.15
42 0.15
43 0.15
5 0.27
6 -0.14
7 -0.14
9 0.36

>  <PUBCHEM_EFFECTIVE_ROTOR_COUNT>  (1) 
5

>  <PUBCHEM_PHARMACOPHORE_FEATURES>  (1) 
5
1 1 cation
1 2 acceptor
1 8 hydrophobe
6 6 10 12 16 18 20 rings
6 7 11 13 17 19 21 rings

>  <PUBCHEM_HEAVY_ATOM_COUNT>  (1) 
21

>  <PUBCHEM_ATOM_DEF_STEREO_COUNT>  (1) 
0

>  <PUBCHEM_ATOM_UDEF_STEREO_COUNT>  (1) 
1

>  <PUBCHEM_BOND_DEF_STEREO_COUNT>  (1) 
0

>  <PUBCHEM_BOND_UDEF_STEREO_COUNT>  (1) 
0

>  <PUBCHEM_ISOTOPIC_ATOM_COUNT>  (1) 
0

>  <PUBCHEM_COMPONENT_COUNT>  (1) 
1

>  <PUBCHEM_CACTVS_TAUTO_COUNT>  (1) 
1

>  <PUBCHEM_CONFORMER_ID>  (1) 
0000AF3D00000001

>  <PUBCHEM_MMFF94_ENERGY>  (1) 
80.4511

>  <PUBCHEM_FEATURE_SELFOVERLAP>  (1) 
25.371

>  <PUBCHEM_SHAPE_FINGERPRINT>  (1) 
104564 63 18262796246987736413
11578080 2 17703774895535687008
11640471 11 17317884647043779164
11833330 49 18409167679962862924
12422481 6 17981011388366199432
12423570 1 15825706956911730774
12617007 42 18338518646330075863
12788726 201 18334580105601444714
13009979 54 17916320488116932619
13134695 92 18338231699454429421
13149001 5 17898299539318308299
133893 2 17833016079273575849
13583140 156 17770465718328156850
13681431 1 18194979649296591092
14181834 199 17843685714234098334
14817 1 7807826106970244792
16752209 62 18187922816429791046
16945 1 18040437672295788298
17357779 13 18270946995319605437
1813 80 18342186582650062431
18785283 64 17977398449091842387
20233049 118 17968637381417098759
20510252 161 18338517435254806326
20567600 347 9511469913840678981
20600515 1 18130518534103853262
21285901 2 18201162057266992567
21330990 113 18055653723628881297
21524375 3 17321845049356679476
21756936 100 16593139440687834574
22620623 9 18199466575987454677
22907989 373 18268724805137222068
23352939 185 18130237046368600992
23402539 116 18410855430390828390
23419403 2 17488439958440862952
23526113 38 17679312015884511915
23557571 272 18412545384357945390
23558518 356 17753616745650120322
2748010 2 18192401221905630029
350125 39 17472713424606432215
497634 4 17345778299837327134
57262259 84 18199760141260069636
576247 118 18341321254056020237
6442390 28 17478628810170822713
70251023 43 18338253586972045686
7164475 11 18189333459873107950
7364860 26 17981608483177195541
7495541 125 17969512691679011571
81228 2 18265633012556742200
84936 31 17700124697288272292

>  <PUBCHEM_SHAPE_MULTIPOLES>  (1) 
422.21
5.8
3.73
1.89
0.47
4.83
-0.78
-5.37
1.83
1.8
0.65
-0.24
-0.26
0.57

>  <PUBCHEM_SHAPE_SELFOVERLAP>  (1) 
893.09

>  <PUBCHEM_SHAPE_VOLUME>  (1) 
234.9

>  <PUBCHEM_COORDINATE_TYPE>  (1) 
2
5
10

$$$$
