4487
     RDKit          3D

 23 25  0  0  1  0  0  0  0  0999 V2000
   -0.8406    1.7798   -0.4611 O   0  0  0  0  0  0  0  0  0  0  0  0
    2.5216   -1.7966   -0.4605 O   0  0  0  0  0  0  0  0  0  0  0  0
   -1.7833   -1.5093    0.0962 N   0  0  0  0  0  0  0  0  0  0  0  0
   -2.1501   -0.1840   -0.1816 N   0  0  0  0  0  0  0  0  0  0  0  0
    1.4165    0.1487    0.1831 N   0  0  0  0  0  0  0  0  0  0  0  0
    6.1327    0.2322   -0.7059 N   0  0  0  0  0  0  0  0  0  0  0  0
   -0.4077   -1.5190    0.3149 C   0  0  0  0  0  0  0  0  0  0  0  0
    0.1513   -0.3159    0.1168 C   0  0  0  0  0  0  0  0  0  0  0  0
   -0.9845    0.5866   -0.2457 C   0  0  0  0  0  0  0  0  0  0  0  0
   -3.4780    0.2984   -0.0681 C   0  0  0  0  0  0  0  0  0  0  0  0
   -2.4306   -2.5821   -0.6526 C   0  0  0  0  0  0  0  0  0  0  0  0
    0.3086   -2.7769    0.6766 C   0  0  0  0  0  0  0  0  0  0  0  0
   -3.8255    1.5391   -0.6113 C   0  0  0  0  0  0  0  0  0  0  0  0
   -4.4502   -0.4629    0.5879 C   0  0  0  0  0  0  0  0  0  0  0  0
    2.5447   -0.6192   -0.1104 C   0  0  0  0  0  0  0  0  0  0  0  0
   -5.1323    2.0138   -0.4996 C   0  0  0  0  0  0  0  0  0  0  0  0
   -5.7570    0.0117    0.6996 C   0  0  0  0  0  0  0  0  0  0  0  0
   -6.0981    1.2501    0.1559 C   0  0  0  0  0  0  0  0  0  0  0  0
    3.8551    0.0735   -0.0026 C   0  0  0  0  0  0  0  0  0  0  0  0
    3.9967    1.1386    0.8529 C   0  0  0  0  0  0  0  0  0  0  0  0
    4.9150   -0.3529   -0.7561 C   0  0  0  0  0  0  0  0  0  0  0  0
    5.2347    1.7667    0.9323 C   0  0  0  0  0  0  0  0  0  0  0  0
    6.2612    1.2796    0.1393 C   0  0  0  0  0  0  0  0  0  0  0  0
  1  9  2  0
  2 15  2  0
  3  4  1  0
  3  7  1  0
  3 11  1  0
  4  9  1  0
  4 10  1  0
  5  8  1  0
  5 15  1  0
  6 21  2  0
  6 23  1  0
  7  8  2  0
  7 12  1  0
  8  9  1  0
 10 13  2  0
 10 14  1  0
 13 16  1  0
 14 17  2  0
 15 19  1  0
 16 18  2  0
 17 18  1  0
 19 20  2  0
 19 21  1  0
 20 22  1  0
 22 23  2  0
M  END
>  <PUBCHEM_COMPOUND_CID>  (1) 
4487

>  <PUBCHEM_CONFORMER_RMSD>  (1) 
0.6

>  <PUBCHEM_CONFORMER_DIVERSEORDER>  (1) 
10
32
22
18
37
11
23
4
25
29
14
24
7
36
12
17
21
3
13
26
27
35
34
1
5
39
38
28
9
33
2
41
19
6
31
15
40
30
8
42
20
16

>  <PUBCHEM_MMFF94_PARTIAL_CHARGES>  (1) 
33
1 -0.57
10 0.12
11 0.37
12 0.14
13 -0.15
14 -0.15
15 0.54
16 -0.15
17 -0.15
18 -0.15
19 0.09
2 -0.57
20 -0.15
21 0.16
22 -0.15
23 0.16
3 -0.49
30 0.37
31 0.15
32 0.15
33 0.15
34 0.15
35 0.15
36 0.15
37 0.15
38 0.15
39 0.15
4 -0.16
5 -0.54
6 -0.62
7 -0.04
8 0.12
9 0.62

>  <PUBCHEM_EFFECTIVE_ROTOR_COUNT>  (1) 
4

>  <PUBCHEM_PHARMACOPHORE_FEATURES>  (1) 
7
1 1 acceptor
1 2 acceptor
1 5 donor
1 6 acceptor
5 3 4 7 8 9 rings
6 10 13 14 16 17 18 rings
6 6 19 20 21 22 23 rings

>  <PUBCHEM_HEAVY_ATOM_COUNT>  (1) 
23

>  <PUBCHEM_ATOM_DEF_STEREO_COUNT>  (1) 
0

>  <PUBCHEM_ATOM_UDEF_STEREO_COUNT>  (1) 
0

>  <PUBCHEM_BOND_DEF_STEREO_COUNT>  (1) 
0

>  <PUBCHEM_BOND_UDEF_STEREO_COUNT>  (1) 
0

>  <PUBCHEM_ISOTOPIC_ATOM_COUNT>  (1) 
0

>  <PUBCHEM_COMPONENT_COUNT>  (1) 
1

>  <PUBCHEM_CACTVS_TAUTO_COUNT>  (1) 
2

>  <PUBCHEM_CONFORMER_ID>  (1) 
000011870000000A

>  <PUBCHEM_MMFF94_ENERGY>  (1) 
94.1125

>  <PUBCHEM_FEATURE_SELFOVERLAP>  (1) 
35.522

>  <PUBCHEM_SHAPE_FINGERPRINT>  (1) 
10 15 18187366566319279896
10411042 1 17688311600791134355
10493431 412 18408603669374156395
11595378 159 17313369103006986644
12236239 1 17313105254765501652
12390115 104 18270691848593197849
12403259 118 17240767263830125877
12403259 415 18189050915037811501
12596602 18 16298103185659056496
12730499 353 18342182146191646382
12788726 201 17060062475801042915
12969540 114 18341036446421941389
13402501 40 18411417315118727944
13533116 47 17458901536207100002
14790565 3 18268712714688355553
14933364 13 18412830183048928088
15183329 4 15410896249341984777
15196674 1 18335983069479693003
17980427 23 18115025345995193678
18222031 100 11455890269649543482
19784866 170 18260548900970753987
20281389 69 18334856108409979792
20645477 56 18410572890193299103
21033648 29 18057874926807810584
21150785 3 17846770820135859029
21236236 1 18342454902495652567
221357 26 17846502500681230216
22224240 67 18333453145248903195
23198884 109 16559034887268800337
23402539 116 18409162251319386254
23559900 14 18343864420889249974
2838139 119 18343292661277487828
2916195 48 18410853278369353521
293599 30 18411138026253444987
29717793 49 15769784546278650932
3009799 131 10231757756414051435
335352 9 18411700981055734894
34797466 226 17561088003339988261
34934 24 18411132532811237143
350125 39 18189332364888523594
3545911 37 18413110563172630860
4073 2 18261114136374700562
465052 167 10665230332850221352
5104073 3 18115591435596101515
53794403 172 18190746530121342068
542803 24 17530965795849524316
59682541 35 18261121798727777577
59682541 52 17202775800021935716
5969126 39 18055627567822192863
59755656 215 18341336600496297878
59755656 520 17458062677154079042

>  <PUBCHEM_SHAPE_MULTIPOLES>  (1) 
441.67
15.47
2.38
0.85
5.94
1.09
-0.04
-9.2
-0.48
-0.94
0
0.21
-0.03
0.94

>  <PUBCHEM_SHAPE_SELFOVERLAP>  (1) 
962.367

>  <PUBCHEM_SHAPE_VOLUME>  (1) 
239.3

>  <PUBCHEM_COORDINATE_TYPE>  (1) 
2
5
10

$$$$
