44886
     RDKit          3D

 16 15  0  0  0  0  0  0  0  0999 V2000
   -0.0135    2.6360   -0.2952 P   0  0  0  0  0  0  0  0  0  0  0  0
   -0.8732    1.3224    0.1246 O   0  0  0  0  0  0  0  0  0  0  0  0
    1.4938    2.1647    0.0951 O   0  0  0  0  0  0  0  0  0  0  0  0
   -0.4286    3.8518    0.4921 O   0  0  0  0  0  0  0  0  0  0  0  0
   -4.2889   -0.1875   -0.2877 C   0  0  0  0  0  0  0  0  0  0  0  0
    3.8917   -0.6974   -0.2919 C   0  0  0  0  0  0  0  0  0  0  0  0
   -4.9658   -1.4650    0.2168 C   0  0  0  0  0  0  0  0  0  0  0  0
    5.3170   -0.9772    0.1929 C   0  0  0  0  0  0  0  0  0  0  0  0
   -2.8397   -0.0445    0.1746 C   0  0  0  0  0  0  0  0  0  0  0  0
    3.3568    0.6645    0.1477 C   0  0  0  0  0  0  0  0  0  0  0  0
   -6.4084   -1.6202   -0.2663 C   0  0  0  0  0  0  0  0  0  0  0  0
    5.8613   -2.3299   -0.2680 C   0  0  0  0  0  0  0  0  0  0  0  0
   -2.2200    1.2545   -0.3236 C   0  0  0  0  0  0  0  0  0  0  0  0
    1.9271    0.8837   -0.3292 C   0  0  0  0  0  0  0  0  0  0  0  0
   -7.0582   -2.8647    0.3196 C   0  0  0  0  0  0  0  0  0  0  0  0
    7.2487   -2.5911    0.2984 C   0  0  0  0  0  0  0  0  0  0  0  0
  1  2  1  0
  1  3  1  0
  1  4  2  0
  2 13  1  0
  3 14  1  0
  5  7  1  0
  5  9  1  0
  6  8  1  0
  6 10  1  0
  7 11  1  0
  8 12  1  0
  9 13  1  0
 10 14  1  0
 11 15  1  0
 12 16  1  0
M  END
>  <PUBCHEM_COMPOUND_CID>  (1) 
44886

>  <PUBCHEM_CONFORMER_RMSD>  (1) 
1.2

>  <PUBCHEM_CONFORMER_DIVERSEORDER>  (1) 
1
116
5
65
118
133
88
2
75
48
3
57
139
110
128
10
13
4
29
81
31
35
34
46
53
122
38
18
93
147
33
70
6
12
79
21
114
142
50
15
138
58
143
72
98
85
28
107
16
145
67
20
84
44
22
101
42
59
52
78
19
91
125
89
47
40
63
11
92
119
129
25
131
82
62
66
140
100
80
144
69
104
73
141
86
103
130
24
87
41
71
26
51
83
17
136
55
96
54
77
123
56
27
45
36
8
32
126
137
95
49
148
111
134
9
7
99
76
23
14
146
90
115
120
68
60
109
106
112
132
108
102
64
39
124
43
121
94
37
135
97
105
74
127
61
30
117
113

>  <PUBCHEM_MMFF94_PARTIAL_CHARGES>  (1) 
7
1 1.28
13 0.28
14 0.28
2 -0.55
3 -0.55
4 -0.7
43 -0.04

>  <PUBCHEM_EFFECTIVE_ROTOR_COUNT>  (1) 
12

>  <PUBCHEM_PHARMACOPHORE_FEATURES>  (1) 
5
1 15 hydrophobe
1 16 hydrophobe
1 4 acceptor
4 5 7 9 11 hydrophobe
4 6 8 10 12 hydrophobe

>  <PUBCHEM_HEAVY_ATOM_COUNT>  (1) 
16

>  <PUBCHEM_ATOM_DEF_STEREO_COUNT>  (1) 
0

>  <PUBCHEM_ATOM_UDEF_STEREO_COUNT>  (1) 
0

>  <PUBCHEM_BOND_DEF_STEREO_COUNT>  (1) 
0

>  <PUBCHEM_BOND_UDEF_STEREO_COUNT>  (1) 
0

>  <PUBCHEM_ISOTOPIC_ATOM_COUNT>  (1) 
0

>  <PUBCHEM_COMPONENT_COUNT>  (1) 
1

>  <PUBCHEM_CACTVS_TAUTO_COUNT>  (1) 
2

>  <PUBCHEM_CONFORMER_ID>  (1) 
0000AF5600000001

>  <PUBCHEM_MMFF94_ENERGY>  (1) 
-1.0918

>  <PUBCHEM_FEATURE_SELFOVERLAP>  (1) 
25.374

>  <PUBCHEM_SHAPE_FINGERPRINT>  (1) 
10066227 49 18195522822218916343
10753850 27 18407757040666749010
11463208 1 17697043535950954966
12895836 83 9079107852205650399
13533116 47 18196374943239007193
13911852 28 18411981381974045213
13955234 65 17910957169060180545
14123256 34 18410014333759780679
14251740 57 18411131476481222432
14251764 30 18410853265511085163
14251764 75 10015862076657463814
14866123 147 18339085883209939849
15519825 34 15122928721537276839
20165401 70 18198623440281721695
20526848 3 9511460030656966854
20621476 38 18337673131074940683
20645477 70 18189330354801682925
20843269 155 18262511469487734706
21054139 6 17896323515988250746
21095086 4 17968951923817202347
21682296 61 18336550512507197123
270888 7 9367345929181138318
2748736 6 9367345899037635718
2916195 48 11311792678613693111
3004659 81 18040150717162042190
3014063 24 18343861138970194975
3421961 26 18341611589476889977
465052 167 18342742948170556439
5104073 3 17989209243588030153
559249 180 18412545388958861157
5718773 13 18410009935713392966
59682541 35 18271513283285379896
636775 8 18340495457322743550
7062679 13 18336544928564064778
77188 2 18411418444511095061
7808743 9 9583224033905137948
7970288 3 18410854360627811110

>  <PUBCHEM_SHAPE_MULTIPOLES>  (1) 
315.51
19.81
4.04
0.68
0.5
1.77
0.02
-29.47
-0.7
-0.01
-0.43
0.01
0.01
0.21

>  <PUBCHEM_SHAPE_SELFOVERLAP>  (1) 
556.666

>  <PUBCHEM_SHAPE_VOLUME>  (1) 
205.9

>  <PUBCHEM_COORDINATE_TYPE>  (1) 
2
5
10

$$$$
