44908
     RDKit          3D

 12 11  0  0  1  0  0  0  0  0999 V2000
   -4.6149   -1.0311   -1.0283 N   0  0  0  0  0  0  0  0  0  0  0  0
    4.5898    1.0115   -1.0378 N   0  0  0  0  0  0  0  0  0  0  0  0
   -0.6240    0.4187    0.1966 C   0  0  0  0  0  0  0  0  0  0  0  0
    0.6448   -0.4387    0.2386 C   0  0  0  0  0  0  0  0  0  0  0  0
   -1.9517   -0.3462    0.1605 C   0  0  0  0  0  0  0  0  0  0  0  0
    1.9376    0.3807    0.1856 C   0  0  0  0  0  0  0  0  0  0  0  0
   -3.1830    0.5670    0.2026 C   0  0  0  0  0  0  0  0  0  0  0  0
    3.1698   -0.5297    0.2719 C   0  0  0  0  0  0  0  0  0  0  0  0
   -4.5100   -0.2117    0.1795 C   0  0  0  0  0  0  0  0  0  0  0  0
    4.5247    0.1937    0.1730 C   0  0  0  0  0  0  0  0  0  0  0  0
   -5.6977    0.7479    0.2511 C   0  0  0  0  0  0  0  0  0  0  0  0
    5.7147   -0.7623    0.2066 C   0  0  0  0  0  0  0  0  0  0  0  0
  1  9  1  0
  2 10  1  0
  3  4  1  0
  3  5  1  0
  4  6  1  0
  5  7  1  0
  6  8  1  0
  7  9  1  0
  8 10  1  0
  9 11  1  0
 10 12  1  0
M  END
>  <PUBCHEM_COMPOUND_CID>  (1) 
44908

>  <PUBCHEM_CONFORMER_RMSD>  (1) 
0.8

>  <PUBCHEM_CONFORMER_DIVERSEORDER>  (1) 
1
51
166
122
102
11
2
106
57
67
63
145
113
95
16
96
81
45
111
79
139
30
101
94
100
18
141
39
108
9
44
120
48
15
161
160
21
61
76
144
118
4
156
29
35
163
73
20
52
164
84
91
3
115
89
124
109
110
22
42
148
71
32
147
93
50
80
62
116
127
107
58
13
104
25
64
153
129
151
40
125
98
36
158
165
8
162
53
121
131
6
69
123
31
28
38
159
19
138
41
55
119
82
143
86
68
10
14
112
134
5
150
128
72
88
92
117
130
43
85
49
114
37
126
46
17
26
7
24
149
99
12
167
90
70
65
135
66
140
142
136
137
105
77
33
133
78
97
34
47
132
59
103
152
23
75
54
87
27
155
146
56
74
154
157
60
83

>  <PUBCHEM_MMFF94_PARTIAL_CHARGES>  (1) 
8
1 -0.99
10 0.27
2 -0.99
33 0.36
34 0.36
35 0.36
36 0.36
9 0.27

>  <PUBCHEM_EFFECTIVE_ROTOR_COUNT>  (1) 
7

>  <PUBCHEM_PHARMACOPHORE_FEATURES>  (1) 
6
1 1 cation
1 1 donor
1 2 cation
1 2 donor
3 3 5 7 hydrophobe
3 4 6 8 hydrophobe

>  <PUBCHEM_HEAVY_ATOM_COUNT>  (1) 
12

>  <PUBCHEM_ATOM_DEF_STEREO_COUNT>  (1) 
0

>  <PUBCHEM_ATOM_UDEF_STEREO_COUNT>  (1) 
2

>  <PUBCHEM_BOND_DEF_STEREO_COUNT>  (1) 
0

>  <PUBCHEM_BOND_UDEF_STEREO_COUNT>  (1) 
0

>  <PUBCHEM_ISOTOPIC_ATOM_COUNT>  (1) 
0

>  <PUBCHEM_COMPONENT_COUNT>  (1) 
1

>  <PUBCHEM_CACTVS_TAUTO_COUNT>  (1) 
1

>  <PUBCHEM_CONFORMER_ID>  (1) 
0000AF6C00000001

>  <PUBCHEM_MMFF94_ENERGY>  (1) 
-5.2952

>  <PUBCHEM_FEATURE_SELFOVERLAP>  (1) 
30.446

>  <PUBCHEM_SHAPE_FINGERPRINT>  (1) 
11287383 113 17095249145644662577
12091667 2 18410012130794485667
13533116 47 15647324209494137736
14123238 8 18410573989446418443
1420 363 16950288394598831481
14251718 22 18060418044813727426
15242439 84 16773794797104324899
17834072 33 18341894120951699636
17834076 25 18334295362112053675
20645477 70 18115304476089208282
20719005 15 18409729556269217378
20767249 13 18343582941016139986
23402539 116 18272928319620565701
23402655 69 18340484478831809737
42788 4 18186522098629125369
522135 26 17967533467927560794
57483677 66 18131630067292245830
8209 1 18410855451997137226

>  <PUBCHEM_SHAPE_MULTIPOLES>  (1) 
236.99
15.07
0.95
0.78
0.05
0
0.12
0.08
1.01
-0.01
0.12
0
0
-0.85

>  <PUBCHEM_SHAPE_SELFOVERLAP>  (1) 
422.127

>  <PUBCHEM_SHAPE_VOLUME>  (1) 
152.9

>  <PUBCHEM_COORDINATE_TYPE>  (1) 
2
5
10

$$$$
