44910
     RDKit          3D

 12 11  0  0  0  0  0  0  0  0999 V2000
    3.1203    0.2043    1.0209 O   0  0  0  0  0  0  0  0  0  0  0  0
    2.8793   -0.3077   -1.2158 O   0  0  0  0  0  0  0  0  0  0  0  0
   -1.8948   -0.0388    0.0497 N   0  0  0  0  0  0  0  0  0  0  0  0
   -1.2874    0.8550   -0.9293 C   0  0  0  0  0  0  0  0  0  0  0  0
    0.1602    0.4469   -1.1938 C   0  0  0  0  0  0  0  0  0  0  0  0
   -1.8840   -1.4196   -0.4367 C   0  0  0  0  0  0  0  0  0  0  0  0
   -3.2640    0.3820    0.3523 C   0  0  0  0  0  0  0  0  0  0  0  0
    0.9986    0.5262    0.0815 C   0  0  0  0  0  0  0  0  0  0  0  0
   -2.4541   -2.3717    0.6010 C   0  0  0  0  0  0  0  0  0  0  0  0
   -3.2988    1.8137    0.8593 C   0  0  0  0  0  0  0  0  0  0  0  0
    2.4264    0.0870   -0.1503 C   0  0  0  0  0  0  0  0  0  0  0  0
    4.4984   -0.1773    0.9612 C   0  0  0  0  0  0  0  0  0  0  0  0
  1 11  1  0
  1 12  1  0
  2 11  2  0
  3  4  1  0
  3  6  1  0
  3  7  1  0
  4  5  1  0
  5  8  1  0
  6  9  1  0
  7 10  1  0
  8 11  1  0
M  END
>  <PUBCHEM_COMPOUND_CID>  (1) 
44910

>  <PUBCHEM_CONFORMER_RMSD>  (1) 
0.8

>  <PUBCHEM_CONFORMER_DIVERSEORDER>  (1) 
3
52
49
32
9
14
46
21
53
47
45
28
43
17
56
1
36
18
54
33
41
26
44
12
19
50
55
30
39
38
8
37
15
42
24
25
16
10
48
22
31
23
13
7
5
11
34
29
27
20
40
51
4
35
6
2

>  <PUBCHEM_MMFF94_PARTIAL_CHARGES>  (1) 
9
1 -0.43
11 0.66
12 0.28
2 -0.57
3 -0.81
4 0.27
6 0.27
7 0.27
8 0.06

>  <PUBCHEM_EFFECTIVE_ROTOR_COUNT>  (1) 
7

>  <PUBCHEM_PHARMACOPHORE_FEATURES>  (1) 
2
1 2 acceptor
1 3 cation

>  <PUBCHEM_HEAVY_ATOM_COUNT>  (1) 
12

>  <PUBCHEM_ATOM_DEF_STEREO_COUNT>  (1) 
0

>  <PUBCHEM_ATOM_UDEF_STEREO_COUNT>  (1) 
0

>  <PUBCHEM_BOND_DEF_STEREO_COUNT>  (1) 
0

>  <PUBCHEM_BOND_UDEF_STEREO_COUNT>  (1) 
0

>  <PUBCHEM_ISOTOPIC_ATOM_COUNT>  (1) 
0

>  <PUBCHEM_COMPONENT_COUNT>  (1) 
1

>  <PUBCHEM_CACTVS_TAUTO_COUNT>  (1) 
1

>  <PUBCHEM_CONFORMER_ID>  (1) 
0000AF6E00000003

>  <PUBCHEM_MMFF94_ENERGY>  (1) 
12.5875

>  <PUBCHEM_FEATURE_SELFOVERLAP>  (1) 
10.148

>  <PUBCHEM_SHAPE_FINGERPRINT>  (1) 
10149128 111 13038913273674114850
11357001 24 18335990860887887547
12251169 10 18409449193441356789
124424 183 17632292346142200296
12500047 106 18343019960681403896
12897270 3 8070026640740982429
12932764 1 17603868918328903956
14123260 362 13326575215204404354
14445660 50 18408041823079598168
14577589 140 17458616783837844133
18522851 12 17531258265610404650
19107657 47 16056885689090574830
19422 9 18040721410767587350
20279233 1 17703792526497482854
20281475 54 18186800292583248102
20361792 2 16732978760274456831
20645464 45 18201716241181229373
20715346 28 17417822759031814092
22169311 14 18271801324454845224
22926399 37 13542458765767599961
22959321 60 17845641673038535856
23402539 116 18201709666314371133
23500284 214 17703797981285433465
23500284 5 17898581027475339515
23532345 11 18411142458586107759
3086196 2 18269551801010996683
3248919 1 18342174492190452364
5706482 22 18410575046762682441
57265010 4 18412536622139397648

>  <PUBCHEM_SHAPE_MULTIPOLES>  (1) 
230.23
7.33
1.7
1.17
6.25
0.87
0.11
-0.14
-2.86
-2.5
-0.37
0.42
-0.14
-0.25

>  <PUBCHEM_SHAPE_SELFOVERLAP>  (1) 
423.598

>  <PUBCHEM_SHAPE_VOLUME>  (1) 
147.5

>  <PUBCHEM_COORDINATE_TYPE>  (1) 
2
5
10

$$$$
