44928
     RDKit          3D

 13 13  0  0  0  0  0  0  0  0999 V2000
    4.0962    0.1504   -0.5832 O   0  0  0  0  0  0  0  0  0  0  0  0
   -3.6627    0.0144    0.2716 N   0  0  0  0  0  0  0  0  0  0  0  0
   -4.4787   -0.3522   -0.8494 N   0  0  0  0  0  0  0  0  0  0  0  0
   -1.3155    0.3013    1.0072 C   0  0  0  0  0  0  0  0  0  0  0  0
    0.1150    0.2615    0.5872 C   0  0  0  0  0  0  0  0  0  0  0  0
   -2.2661   -0.0534   -0.1450 C   0  0  0  0  0  0  0  0  0  0  0  0
    0.8426   -0.9232    0.7009 C   0  0  0  0  0  0  0  0  0  0  0  0
    0.7255    1.4088    0.0802 C   0  0  0  0  0  0  0  0  0  0  0  0
    2.1807   -0.9605    0.3081 C   0  0  0  0  0  0  0  0  0  0  0  0
    2.0636    1.3716   -0.3124 C   0  0  0  0  0  0  0  0  0  0  0  0
    2.7911    0.1870   -0.1983 C   0  0  0  0  0  0  0  0  0  0  0  0
   -5.8719   -0.3118   -0.4252 C   0  0  0  0  0  0  0  0  0  0  0  0
    4.7802   -1.0937   -0.4415 C   0  0  0  0  0  0  0  0  0  0  0  0
  1 11  1  0
  1 13  1  0
  2  3  1  0
  2  6  1  0
  3 12  1  0
  4  5  1  0
  4  6  1  0
  5  7  2  0
  5  8  1  0
  7  9  1  0
  8 10  2  0
  9 11  2  0
 10 11  1  0
M  END
>  <PUBCHEM_COMPOUND_CID>  (1) 
44928

>  <PUBCHEM_CONFORMER_RMSD>  (1) 
0.6

>  <PUBCHEM_CONFORMER_DIVERSEORDER>  (1) 
1
8
22
18
11
13
7
15
16
3
2
23
21
4
9
5
12
10
6
24
20
17
14
19

>  <PUBCHEM_MMFF94_PARTIAL_CHARGES>  (1) 
19
1 -0.36
10 -0.15
11 0.08
12 0.27
13 0.28
18 0.15
19 0.15
2 -0.63
20 0.36
21 0.15
22 0.15
23 0.36
3 -0.63
4 0.14
5 -0.14
6 0.27
7 -0.15
8 -0.15
9 -0.15

>  <PUBCHEM_EFFECTIVE_ROTOR_COUNT>  (1) 
5

>  <PUBCHEM_PHARMACOPHORE_FEATURES>  (1) 
4
1 1 acceptor
1 2 donor
1 3 donor
6 5 7 8 9 10 11 rings

>  <PUBCHEM_HEAVY_ATOM_COUNT>  (1) 
13

>  <PUBCHEM_ATOM_DEF_STEREO_COUNT>  (1) 
0

>  <PUBCHEM_ATOM_UDEF_STEREO_COUNT>  (1) 
0

>  <PUBCHEM_BOND_DEF_STEREO_COUNT>  (1) 
0

>  <PUBCHEM_BOND_UDEF_STEREO_COUNT>  (1) 
0

>  <PUBCHEM_ISOTOPIC_ATOM_COUNT>  (1) 
0

>  <PUBCHEM_COMPONENT_COUNT>  (1) 
1

>  <PUBCHEM_CACTVS_TAUTO_COUNT>  (1) 
1

>  <PUBCHEM_CONFORMER_ID>  (1) 
0000AF8000000001

>  <PUBCHEM_MMFF94_ENERGY>  (1) 
31.7103

>  <PUBCHEM_FEATURE_SELFOVERLAP>  (1) 
21.596

>  <PUBCHEM_SHAPE_FINGERPRINT>  (1) 
11401426 45 18334294284223013912
114248 4 17967250910265728519
11471102 20 18260831514034793648
12251169 10 11024104352355447537
12670543 26 17968376745231207686
13690532 89 18272091582497322614
13760787 5 18188227428653508864
14115302 16 17846216708639479159
14252887 29 11959741477056273724
14576447 43 18413103961481167567
14911166 2 18187088355828703354
14993402 34 18411985758334872522
15048467 5 12685101397408607838
15242439 84 17822010921768271147
15477762 27 18342460326817320518
17834076 25 12612753518751153239
18186145 218 18113332037990647641
200 152 18344148081360749265
20645477 70 18411420613436989262
21119208 17 18410573998384551711
21256008 61 18342739619755556944
212847 35 14779537989575583637
21637258 2 17346311549532993830
221490 88 18120099634780394323
22713019 99 18410579474568308218
23402539 116 17917713466011691993
23402655 69 18186794756433674789
26918003 58 12391512001582920855
2748010 2 17973748040607166208
29717793 49 17988925561472518805
3060560 45 18261109681839434630
4047638 21 14490192708828284284
4072396 5 17822559569739047120
42 15 13183024038344975955
449060 50 9295289434628328113
522135 26 18335696148616027555

>  <PUBCHEM_SHAPE_MULTIPOLES>  (1) 
251.7
10.37
1.19
0.87
11.74
0.21
-0.07
-2.99
3.69
-1.01
0.01
0.18
-0.04
-0.19

>  <PUBCHEM_SHAPE_SELFOVERLAP>  (1) 
500.608

>  <PUBCHEM_SHAPE_VOLUME>  (1) 
150.8

>  <PUBCHEM_COORDINATE_TYPE>  (1) 
2
5
10

$$$$
