44925
     RDKit          3D

 23 23  0  0  0  0  0  0  0  0999 V2000
   -4.9964    1.7348   -2.6477 Cl  0  0  0  0  0  0  0  0  0  0  0  0
   -1.2269   -0.1212   -0.5095 O   0  0  0  0  0  0  0  0  0  0  0  0
   -1.4344   -0.5385    1.7570 O   0  0  0  0  0  0  0  0  0  0  0  0
    3.0191    2.0920    0.3904 N   0  0  0  0  0  0  0  0  0  0  0  0
   -3.3596   -0.2698    0.4799 N   0  0  0  0  0  0  0  0  0  0  0  0
    2.1980    0.8422    0.0640 C   0  0  0  0  0  0  0  0  0  0  0  0
    0.8567    0.9805   -0.0663 C   0  0  0  0  0  0  0  0  0  0  0  0
    2.8973   -0.3131   -0.0678 C   0  0  0  0  0  0  0  0  0  0  0  0
    2.1676   -1.4640   -0.3648 C   0  0  0  0  0  0  0  0  0  0  0  0
    2.5223    2.6751    1.7103 C   0  0  0  0  0  0  0  0  0  0  0  0
    2.8846    3.1683   -0.6849 C   0  0  0  0  0  0  0  0  0  0  0  0
    4.4906    1.7002    0.4894 C   0  0  0  0  0  0  0  0  0  0  0  0
    2.8681   -2.7711   -0.5221 C   0  0  0  0  0  0  0  0  0  0  0  0
    0.1269   -0.1706   -0.3634 C   0  0  0  0  0  0  0  0  0  0  0  0
    0.7824   -1.3929   -0.5128 C   0  0  0  0  0  0  0  0  0  0  0  0
    0.1469    2.2875    0.0923 C   0  0  0  0  0  0  0  0  0  0  0  0
    2.7107   -3.3570   -1.9382 C   0  0  0  0  0  0  0  0  0  0  0  0
    2.4211   -3.8088    0.5250 C   0  0  0  0  0  0  0  0  0  0  0  0
   -1.9747   -0.3281    0.6716 C   0  0  0  0  0  0  0  0  0  0  0  0
   -3.9905   -0.0159   -0.8113 C   0  0  0  0  0  0  0  0  0  0  0  0
   -4.2629   -0.4638    1.6052 C   0  0  0  0  0  0  0  0  0  0  0  0
   -4.2207    1.4639   -1.0675 C   0  0  0  0  0  0  0  0  0  0  0  0
   -4.6263   -1.9296    1.7710 C   0  0  0  0  0  0  0  0  0  0  0  0
  1 22  1  0
  2 14  1  0
  2 19  1  0
  3 19  2  0
  4  6  1  0
  4 10  1  0
  4 11  1  0
  4 12  1  0
  5 19  1  0
  5 20  1  0
  5 21  1  0
  6  7  2  0
  6  8  1  0
  7 14  1  0
  7 16  1  0
  8  9  2  0
  9 13  1  0
  9 15  1  0
 13 17  1  0
 13 18  1  0
 14 15  2  0
 20 22  1  0
 21 23  1  0
M  CHG  1   4   1
M  END
>  <PUBCHEM_COMPOUND_CID>  (1) 
44925

>  <PUBCHEM_CONFORMER_RMSD>  (1) 
0.8

>  <PUBCHEM_CONFORMER_DIVERSEORDER>  (1) 
2
120
62
95
166
102
164
47
136
126
170
79
54
178
68
160
109
173
134
169
152
49
159
157
61
121
104
128
143
76
116
146
105
82
72
84
149
131
117
167
151
73
107
175
15
74
127
25
29
18
96
43
153
19
111
78
139
165
172
80
70
41
118
34
130
168
92
161
150
71
129
176
97
100
83
163
124
59
40
142
112
132
135
138
81
110
156
154
106
86
114
23
46
103
177
133
16
39
27
48
69
174
28
56
57
171
85
140
155
158
87
53
1
108
17
99
137
75
60
98
31
12
125
58
38
90
94
45
123
93
66
148
35
51
63
89
13
9
30
50
20
144
4
21
101
32
147
141
122
91
67
3
113
88
55
145
22
8
26
42
44
36
64
10
5
6
37
11
115
77
119
52
14
33
7
65
24
162

>  <PUBCHEM_MMFF94_PARTIAL_CHARGES>  (1) 
22
1 -0.29
10 0.5
11 0.5
12 0.5
13 0.14
14 0.08
15 -0.15
16 0.14
19 0.78
2 -0.23
20 0.3
21 0.3
22 0.29
24 0.15
3 -0.57
35 0.15
4 -0.87
5 -0.66
6 0.36
7 -0.14
8 -0.15
9 -0.14

>  <PUBCHEM_EFFECTIVE_ROTOR_COUNT>  (1) 
8

>  <PUBCHEM_PHARMACOPHORE_FEATURES>  (1) 
4
1 3 acceptor
1 4 cation
3 13 17 18 hydrophobe
6 6 7 8 9 14 15 rings

>  <PUBCHEM_HEAVY_ATOM_COUNT>  (1) 
23

>  <PUBCHEM_ATOM_DEF_STEREO_COUNT>  (1) 
0

>  <PUBCHEM_ATOM_UDEF_STEREO_COUNT>  (1) 
0

>  <PUBCHEM_BOND_DEF_STEREO_COUNT>  (1) 
0

>  <PUBCHEM_BOND_UDEF_STEREO_COUNT>  (1) 
0

>  <PUBCHEM_ISOTOPIC_ATOM_COUNT>  (1) 
0

>  <PUBCHEM_COMPONENT_COUNT>  (1) 
1

>  <PUBCHEM_CACTVS_TAUTO_COUNT>  (1) 
1

>  <PUBCHEM_CONFORMER_ID>  (1) 
0000AF7D00000002

>  <PUBCHEM_MMFF94_ENERGY>  (1) 
97.6258

>  <PUBCHEM_FEATURE_SELFOVERLAP>  (1) 
20.297

>  <PUBCHEM_SHAPE_FINGERPRINT>  (1) 
11405975 8 18337397033143551259
11578080 2 18040723523849345149
11796584 16 17314512522091016794
12549972 3 17968664809204605137
12553582 1 18052834541245236550
12788726 201 17181929948153938955
13134695 92 18199744756571333029
13140716 1 18269835492496722522
13533116 47 18271541857423777419
13583140 156 18410293614509265839
14251757 17 18187362074305694961
14347329 18 16156519997174297693
14790565 3 18196384817190310504
15842332 3 17132117922877619999
1813 80 17414179935544629830
18222031 100 17772180921485360622
18915476 22 18413106160541008775
19049666 15 18260269612206250153
20645477 70 18342734083674763463
20681677 76 18408604743173924815
20693207 138 18189076255888722095
21065201 7 17458068140689654011
21304303 282 16908294923573006796
21524375 3 18058171820210444836
22182313 1 18187367623519187053
22943178 12 18260551117395502671
23419403 2 17971448742660575126
23557571 272 17894352198565015381
23559900 14 18187925028226782564
3091708 16 9184245400738491122
458136 41 18269007542654754460
495365 180 18340188752721185257
5104073 3 18340226128212495843
58807428 26 18270390733094409690
59682541 52 18127665198936025453
59755656 520 17772199858148661932
6049 1 18188221935427104655
613672 6 17979070488023634342
621550 34 18190753118568505475
633830 44 17201655556033679089
6913067 236 18047184435190634275
7364860 26 18272658930919319734
7399639 24 18190185783411244355
7471813 234 17702367464791112769
7615 1 17274823515503109507
81228 2 17190099324359642210
8272917 22 18341909505614159882
9709674 26 18335135354720527197
9841814 1 18265897960737337386

>  <PUBCHEM_SHAPE_MULTIPOLES>  (1) 
453.5
9.59
4.13
1.82
11.3
1.49
-0.32
-1.23
-1.07
-5.58
-0.46
2.39
0.08
3.73

>  <PUBCHEM_SHAPE_SELFOVERLAP>  (1) 
904.237

>  <PUBCHEM_SHAPE_VOLUME>  (1) 
274.3

>  <PUBCHEM_COORDINATE_TYPE>  (1) 
2
5
10

$$$$
