44932
     RDKit          3D

 10  9  0  0  0  0  0  0  0  0999 V2000
    2.3276    0.1192    0.0799 S   0  0  0  0  0  0  0  0  0  0  0  0
    3.3041   -0.8299   -0.8164 O   0  0  0  0  0  0  0  0  0  0  0  0
    2.3130    1.4477   -0.4977 O   0  0  0  0  0  0  0  0  0  0  0  0
    2.6183   -0.1055    1.4810 O   0  0  0  0  0  0  0  0  0  0  0  0
   -1.5506   -0.6928   -0.2150 N   0  0  0  0  0  0  0  0  0  0  0  0
   -0.3717    0.0180    0.1888 N   0  0  0  0  0  0  0  0  0  0  0  0
   -2.7082    0.0092    0.3232 C   0  0  0  0  0  0  0  0  0  0  0  0
    0.7894   -0.7001   -0.3285 C   0  0  0  0  0  0  0  0  0  0  0  0
   -3.9916   -0.7193   -0.0540 C   0  0  0  0  0  0  0  0  0  0  0  0
   -2.7304    1.4536   -0.1613 C   0  0  0  0  0  0  0  0  0  0  0  0
  1  2  1  0
  1  3  2  0
  1  4  2  0
  1  8  1  0
  5  6  1  0
  5  7  1  0
  6  8  1  0
  7  9  1  0
  7 10  1  0
M  END
>  <PUBCHEM_COMPOUND_CID>  (1) 
44932

>  <PUBCHEM_CONFORMER_RMSD>  (1) 
0.6

>  <PUBCHEM_CONFORMER_DIVERSEORDER>  (1) 
1
13
9
12
2
6
10
8
4
11
5
7
3

>  <PUBCHEM_MMFF94_PARTIAL_CHARGES>  (1) 
11
1 1.38
12 0.36
15 0.36
2 -0.68
22 0.5
3 -0.65
4 -0.65
5 -0.63
6 -0.63
7 0.27
8 0.38

>  <PUBCHEM_EFFECTIVE_ROTOR_COUNT>  (1) 
4

>  <PUBCHEM_PHARMACOPHORE_FEATURES>  (1) 
7
1 2 acceptor
1 3 acceptor
1 4 acceptor
1 5 donor
1 6 donor
3 7 9 10 hydrophobe
4 1 2 3 4 anion

>  <PUBCHEM_HEAVY_ATOM_COUNT>  (1) 
10

>  <PUBCHEM_ATOM_DEF_STEREO_COUNT>  (1) 
0

>  <PUBCHEM_ATOM_UDEF_STEREO_COUNT>  (1) 
0

>  <PUBCHEM_BOND_DEF_STEREO_COUNT>  (1) 
0

>  <PUBCHEM_BOND_UDEF_STEREO_COUNT>  (1) 
0

>  <PUBCHEM_ISOTOPIC_ATOM_COUNT>  (1) 
0

>  <PUBCHEM_COMPONENT_COUNT>  (1) 
1

>  <PUBCHEM_CACTVS_TAUTO_COUNT>  (1) 
1

>  <PUBCHEM_CONFORMER_ID>  (1) 
0000AF8400000001

>  <PUBCHEM_MMFF94_ENERGY>  (1) 
2.4041

>  <PUBCHEM_FEATURE_SELFOVERLAP>  (1) 
36.871

>  <PUBCHEM_SHAPE_FINGERPRINT>  (1) 
11062470 55 11963389661085156495
12162725 195 18334294270995428361
12932764 1 17385439925337996831
14144814 61 18040433278538677529
14325111 11 18412546509227946183
14390081 3 18060133224215768377
170605 34 18115874164698305364
177051 138 18413388743688035263
190213 19 18273213101648202131
21028194 46 17989208135580990359
3248919 1 18409725170986425183

>  <PUBCHEM_SHAPE_MULTIPOLES>  (1) 
182.07
6.91
1.2
0.86
1.97
0.43
-0.21
-0.38
0.07
0.27
0.2
-0.65
-0.03
0.08

>  <PUBCHEM_SHAPE_SELFOVERLAP>  (1) 
320.523

>  <PUBCHEM_SHAPE_VOLUME>  (1) 
120.4

>  <PUBCHEM_COORDINATE_TYPE>  (1) 
2
5
10

$$$$
