44946
     RDKit          3D

  6  5  0  0  0  0  0  0  0  0999 V2000
    1.3344   -1.1653    0.0002 O   0  0  0  0  0  0  0  0  0  0  0  0
    1.4193    1.0862   -0.0002 O   0  0  0  0  0  0  0  0  0  0  0  0
   -0.6517    0.0099    0.0001 N   0  0  0  0  0  0  0  0  0  0  0  0
   -1.4286    1.2406    0.0002 C   0  0  0  0  0  0  0  0  0  0  0  0
   -1.4156   -1.2334   -0.0002 C   0  0  0  0  0  0  0  0  0  0  0  0
    0.7422    0.0620   -0.0001 C   0  0  0  0  0  0  0  0  0  0  0  0
  1  6  1  0
  2  6  2  0
  3  4  1  0
  3  5  1  0
  3  6  1  0
M  END
>  <PUBCHEM_COMPOUND_CID>  (1) 
44946

>  <PUBCHEM_CONFORMER_RMSD>  (1) 
0.4

>  <PUBCHEM_CONFORMER_DIVERSEORDER>  (1) 
1

>  <PUBCHEM_MMFF94_PARTIAL_CHARGES>  (1) 
7
1 -0.65
13 0.5
2 -0.57
3 -0.66
4 0.3
5 0.3
6 0.78

>  <PUBCHEM_EFFECTIVE_ROTOR_COUNT>  (1) 
1

>  <PUBCHEM_PHARMACOPHORE_FEATURES>  (1) 
2
1 2 acceptor
3 1 2 6 anion

>  <PUBCHEM_HEAVY_ATOM_COUNT>  (1) 
6

>  <PUBCHEM_ATOM_DEF_STEREO_COUNT>  (1) 
0

>  <PUBCHEM_ATOM_UDEF_STEREO_COUNT>  (1) 
0

>  <PUBCHEM_BOND_DEF_STEREO_COUNT>  (1) 
0

>  <PUBCHEM_BOND_UDEF_STEREO_COUNT>  (1) 
0

>  <PUBCHEM_ISOTOPIC_ATOM_COUNT>  (1) 
0

>  <PUBCHEM_COMPONENT_COUNT>  (1) 
1

>  <PUBCHEM_CACTVS_TAUTO_COUNT>  (1) 
1

>  <PUBCHEM_CONFORMER_ID>  (1) 
0000AF9200000001

>  <PUBCHEM_MMFF94_ENERGY>  (1) 
7.5058

>  <PUBCHEM_FEATURE_SELFOVERLAP>  (1) 
10.148

>  <PUBCHEM_SHAPE_FINGERPRINT>  (1) 
139733 1 9222419310293214403
16714656 1 17834685172395021844
20096714 4 18337955562974400281
21015797 1 9295024460863149536
21040471 1 18266740186221772133
24536 1 18338500997971859341
29004967 10 17974011944466701411
5943 1 12430478482822168529

>  <PUBCHEM_SHAPE_MULTIPOLES>  (1) 
106.76
2.02
1.51
0.57
0.05
0.04
0
-0.03
0
-0.29
0
-0.04
0
0

>  <PUBCHEM_SHAPE_SELFOVERLAP>  (1) 
191.491

>  <PUBCHEM_SHAPE_VOLUME>  (1) 
70.2

>  <PUBCHEM_COORDINATE_TYPE>  (1) 
2
5
10

$$$$
