44951
     RDKit          3D

 17 17  0  0  0  0  0  0  0  0999 V2000
   -1.3283    0.3289   -0.7887 O   0  0  0  0  0  0  0  0  0  0  0  0
   -1.5166    0.9368    1.4371 O   0  0  0  0  0  0  0  0  0  0  0  0
    0.0035   -2.0157    0.0150 N   0  0  0  0  0  0  0  0  0  0  0  0
   -3.4319    0.6406    0.1512 N   0  0  0  0  0  0  0  0  0  0  0  0
    0.7045   -0.8135   -0.2237 C   0  0  0  0  0  0  0  0  0  0  0  0
    2.7946    0.3968   -0.2961 C   0  0  0  0  0  0  0  0  0  0  0  0
    2.0895   -0.7836   -0.0607 C   0  0  0  0  0  0  0  0  0  0  0  0
    0.0599    0.3375   -0.6181 C   0  0  0  0  0  0  0  0  0  0  0  0
    4.2751    0.4297   -0.1198 C   0  0  0  0  0  0  0  0  0  0  0  0
    2.1143    1.5474   -0.6951 C   0  0  0  0  0  0  0  0  0  0  0  0
    0.7291    1.5176   -0.8583 C   0  0  0  0  0  0  0  0  0  0  0  0
    4.6824    0.8131    1.3006 C   0  0  0  0  0  0  0  0  0  0  0  0
    0.0493   -2.6434    1.3197 C   0  0  0  0  0  0  0  0  0  0  0  0
   -0.7806   -2.6278   -1.0381 C   0  0  0  0  0  0  0  0  0  0  0  0
   -2.0487    0.6603    0.3626 C   0  0  0  0  0  0  0  0  0  0  0  0
   -4.3432    0.9604    1.2407 C   0  0  0  0  0  0  0  0  0  0  0  0
   -4.0530    0.3147   -1.1284 C   0  0  0  0  0  0  0  0  0  0  0  0
  1  8  1  0
  1 15  1  0
  2 15  2  0
  3  5  1  0
  3 13  1  0
  3 14  1  0
  4 15  1  0
  4 16  1  0
  4 17  1  0
  5  7  2  0
  5  8  1  0
  6  7  1  0
  6  9  1  0
  6 10  2  0
  8 11  2  0
  9 12  1  0
 10 11  1  0
M  END
>  <PUBCHEM_COMPOUND_CID>  (1) 
44951

>  <PUBCHEM_CONFORMER_RMSD>  (1) 
0.6

>  <PUBCHEM_CONFORMER_DIVERSEORDER>  (1) 
2
27
50
35
8
33
45
46
39
19
51
23
47
34
49
48
38
40
24
28
43
44
32
18
42
31
1
14
3
30
41
12
11
37
26
21
10
17
15
20
25
4
13
22
6
29
16
9
36
5
7

>  <PUBCHEM_MMFF94_PARTIAL_CHARGES>  (1) 
19
1 -0.23
10 -0.15
11 -0.15
13 0.37
14 0.37
15 0.78
16 0.3
17 0.3
18 0.15
2 -0.57
21 0.15
22 0.15
3 -0.84
4 -0.66
5 0.1
6 -0.14
7 -0.15
8 0.08
9 0.14

>  <PUBCHEM_EFFECTIVE_ROTOR_COUNT>  (1) 
5

>  <PUBCHEM_PHARMACOPHORE_FEATURES>  (1) 
4
1 12 hydrophobe
1 2 acceptor
1 3 cation
6 5 6 7 8 10 11 rings

>  <PUBCHEM_HEAVY_ATOM_COUNT>  (1) 
17

>  <PUBCHEM_ATOM_DEF_STEREO_COUNT>  (1) 
0

>  <PUBCHEM_ATOM_UDEF_STEREO_COUNT>  (1) 
0

>  <PUBCHEM_BOND_DEF_STEREO_COUNT>  (1) 
0

>  <PUBCHEM_BOND_UDEF_STEREO_COUNT>  (1) 
0

>  <PUBCHEM_ISOTOPIC_ATOM_COUNT>  (1) 
0

>  <PUBCHEM_COMPONENT_COUNT>  (1) 
1

>  <PUBCHEM_CACTVS_TAUTO_COUNT>  (1) 
1

>  <PUBCHEM_CONFORMER_ID>  (1) 
0000AF9700000002

>  <PUBCHEM_MMFF94_ENERGY>  (1) 
63.9831

>  <PUBCHEM_FEATURE_SELFOVERLAP>  (1) 
20.297

>  <PUBCHEM_SHAPE_FINGERPRINT>  (1) 
11132069 177 18409446998818329868
11680986 33 18338249192988562262
12119455 92 18040427789422884133
12236239 1 18060414699461679989
124424 183 16805038519224230805
12592029 89 18113900437898832715
13140716 1 18190459553359414512
13380535 76 18411702105883758510
14617773 55 17977670032568726206
14787075 74 17988915716938127393
15048467 5 13686306781197550713
15207287 21 17313107432145064033
15309172 13 18260832591791997252
15502708 68 18335424504439766215
16945 1 18040729029970927308
18186145 218 18343027657299890877
204376 136 18408326600659137268
20645477 70 18192706753289220679
21339142 149 17845642772133366998
21501502 16 18046908457587374764
21524375 3 18411139147071143263
21637258 2 14345786176194469440
22079108 93 18131070463223537993
23184049 59 18333732394857606236
23402539 116 17561079202688371468
23419403 2 17045929606983494204
23558518 356 17902791095878024816
23559900 14 16154277079210600266
25147074 1 17972036105334856620
2748010 2 18264230078569704886
4072396 5 17968361352047449577
4340502 62 18266479667360819897
465052 167 17168156644980514377
5104073 3 18118670257813579952
58807428 26 18334568041106986498
69090 78 18342735234657244926
7364860 26 17984432832196332271
7495541 125 13470108744576002085
81228 2 17758671535478118731

>  <PUBCHEM_SHAPE_MULTIPOLES>  (1) 
328.15
7.47
2.26
1.29
0.02
2.12
-0.3
-4.01
-1.95
-0.22
-0.05
-0.44
0.03
-0.45

>  <PUBCHEM_SHAPE_SELFOVERLAP>  (1) 
664.655

>  <PUBCHEM_SHAPE_VOLUME>  (1) 
193.8

>  <PUBCHEM_COORDINATE_TYPE>  (1) 
2
5
10

$$$$
