4495
     RDKit          3D

 21 22  0  0  0  0  0  0  0  0999 V2000
   -3.2618    1.9290    0.0715 S   0  0  0  0  0  0  0  0  0  0  0  0
    0.5587    1.0526    0.7099 O   0  0  0  0  0  0  0  0  0  0  0  0
   -3.7393    3.1599   -0.5302 O   0  0  0  0  0  0  0  0  0  0  0  0
   -4.1572    0.8043    0.2581 O   0  0  0  0  0  0  0  0  0  0  0  0
   -0.4502   -4.7175   -0.1835 O   0  0  0  0  0  0  0  0  0  0  0  0
    1.2473   -3.8532    0.9078 O   0  0  0  0  0  0  0  0  0  0  0  0
   -1.8271    1.4455   -0.7477 N   0  0  0  0  0  0  0  0  0  0  0  0
    0.1826   -3.7269    0.2558 N   0  0  0  0  0  0  0  0  0  0  0  0
   -1.3089    0.1391   -0.4860 C   0  0  0  0  0  0  0  0  0  0  0  0
   -0.1275   -0.0258    0.2369 C   0  0  0  0  0  0  0  0  0  0  0  0
   -1.9968   -0.9770   -0.9623 C   0  0  0  0  0  0  0  0  0  0  0  0
    0.3662   -1.3068    0.4835 C   0  0  0  0  0  0  0  0  0  0  0  0
   -0.3214   -2.4230    0.0070 C   0  0  0  0  0  0  0  0  0  0  0  0
   -1.5030   -2.2580   -0.7159 C   0  0  0  0  0  0  0  0  0  0  0  0
   -2.5873    2.3590    1.6603 C   0  0  0  0  0  0  0  0  0  0  0  0
    1.8602    1.2272    0.2732 C   0  0  0  0  0  0  0  0  0  0  0  0
    2.1469    1.0737   -1.0717 C   0  0  0  0  0  0  0  0  0  0  0  0
    2.8427    1.5498    1.1923 C   0  0  0  0  0  0  0  0  0  0  0  0
    3.4589    1.2487   -1.5118 C   0  0  0  0  0  0  0  0  0  0  0  0
    4.1546    1.7250    0.7524 C   0  0  0  0  0  0  0  0  0  0  0  0
    4.4627    1.5743   -0.5997 C   0  0  0  0  0  0  0  0  0  0  0  0
  1  3  2  0
  1  4  2  0
  1  7  1  0
  1 15  1  0
  2 10  1  0
  2 16  1  0
  5  8  1  0
  6  8  2  0
  7  9  1  0
  8 13  1  0
  9 10  2  0
  9 11  1  0
 10 12  1  0
 11 14  2  0
 12 13  2  0
 13 14  1  0
 16 17  2  0
 16 18  1  0
 17 19  1  0
 18 20  2  0
 19 21  2  0
 20 21  1  0
M  CHG  2   5  -1   8   1
M  END
>  <PUBCHEM_COMPOUND_CID>  (1) 
4495

>  <PUBCHEM_CONFORMER_RMSD>  (1) 
0.8

>  <PUBCHEM_CONFORMER_DIVERSEORDER>  (1) 
1
15
17
2
10
35
33
26
8
32
30
12
29
27
11
34
38
14
28
37
31
25
23
4
24
18
7
21
5
6
36
19
16
9
13
3
22
20

>  <PUBCHEM_MMFF94_PARTIAL_CHARGES>  (1) 
30
1 1.33
10 0.08
11 -0.15
12 -0.15
13 0.13
14 -0.15
15 0.11
16 0.08
17 -0.15
18 -0.15
19 -0.15
2 -0.17
20 -0.15
21 -0.15
22 0.42
23 0.15
24 0.15
25 0.15
29 0.15
3 -0.65
30 0.15
31 0.15
32 0.15
33 0.15
4 -0.65
5 -0.52
6 -0.52
7 -0.76
8 0.91
9 0.2

>  <PUBCHEM_EFFECTIVE_ROTOR_COUNT>  (1) 
5

>  <PUBCHEM_PHARMACOPHORE_FEATURES>  (1) 
9
1 2 acceptor
1 3 acceptor
1 4 acceptor
1 5 acceptor
1 5 anion
1 6 acceptor
1 7 donor
6 16 17 18 19 20 21 rings
6 9 10 11 12 13 14 rings

>  <PUBCHEM_HEAVY_ATOM_COUNT>  (1) 
21

>  <PUBCHEM_ATOM_DEF_STEREO_COUNT>  (1) 
0

>  <PUBCHEM_ATOM_UDEF_STEREO_COUNT>  (1) 
0

>  <PUBCHEM_BOND_DEF_STEREO_COUNT>  (1) 
0

>  <PUBCHEM_BOND_UDEF_STEREO_COUNT>  (1) 
0

>  <PUBCHEM_ISOTOPIC_ATOM_COUNT>  (1) 
0

>  <PUBCHEM_COMPONENT_COUNT>  (1) 
1

>  <PUBCHEM_CACTVS_TAUTO_COUNT>  (1) 
1

>  <PUBCHEM_CONFORMER_ID>  (1) 
0000118F00000001

>  <PUBCHEM_MMFF94_ENERGY>  (1) 
70.77

>  <PUBCHEM_FEATURE_SELFOVERLAP>  (1) 
45.772

>  <PUBCHEM_SHAPE_FINGERPRINT>  (1) 
107951 10 18339656606515902166
1100329 8 18267866078024412106
11578080 2 13640234868634365348
11582403 64 16409509032522015488
12173636 292 18410005576374030165
12363563 72 17330836232747205606
12500047 106 18412263978175019204
12532896 13 18413390955427342301
12553582 1 17326056647053299818
12707595 3 10303516313017086581
12788726 201 17830464130086650630
13140716 1 18338230462414196794
133893 2 17900794107952941039
13681431 1 17545607751282764257
14178342 30 18120639482711138672
14955137 171 18051413959574423810
15842332 3 17678451094744995396
16752209 62 18265602372028086834
16945 1 18121213448680615470
17980427 23 16836265504383916545
18785283 64 18117566123629250611
19591789 44 18411141307545441431
200 152 14117809011427871876
20510252 161 18198057186790716889
20600515 1 17183293797954737917
20671657 1 18197496216848626999
21524375 3 18343306933390580341
21665056 4 18410014368493786206
23366157 5 17971755467528465675
23419403 2 17191571771950046351
23557571 272 17764304338148494928
23559900 14 17834663904376543457
283562 15 18268702982513755407
3084891 72 18122614217783745943
3091708 16 9409705714105480795
458136 41 18266477416149519097
6442390 28 18339656610873886553
7364860 26 18050844421045646377
81228 2 17982172523983764417
9709674 26 18127695048800028084

>  <PUBCHEM_SHAPE_MULTIPOLES>  (1) 
396.71
6.79
4.85
1.22
5.2
6.26
-0.04
-7.02
0.66
-4.16
-0.92
0.45
-0.46
-0.48

>  <PUBCHEM_SHAPE_SELFOVERLAP>  (1) 
835.625

>  <PUBCHEM_SHAPE_VOLUME>  (1) 
224

>  <PUBCHEM_COORDINATE_TYPE>  (1) 
2
5
10

$$$$
