44966
     RDKit          3D

 22 22  0  0  0  0  0  0  0  0999 V2000
    0.9557   -1.2031    0.1352 S   0  0  0  0  0  0  0  0  0  0  0  0
    0.3888   -1.8362    1.3137 O   0  0  0  0  0  0  0  0  0  0  0  0
    1.2771    0.2138    0.1388 O   0  0  0  0  0  0  0  0  0  0  0  0
    5.1300    1.2782    0.5125 O   0  0  0  0  0  0  0  0  0  0  0  0
    5.6128   -0.5763   -0.7535 O   0  0  0  0  0  0  0  0  0  0  0  0
   -6.2890   -0.3401    1.0776 O   0  0  0  0  0  0  0  0  0  0  0  0
    3.9462   -0.6047    0.8615 N   0  0  0  0  0  0  0  0  0  0  0  0
   -5.0058    1.2473   -0.1022 N   0  0  0  0  0  0  0  0  0  0  0  0
   -0.1573   -1.4975   -1.2200 C   0  0  0  0  0  0  0  0  0  0  0  0
    2.4064   -2.0969   -0.3277 C   0  0  0  0  0  0  0  0  0  0  0  0
   -1.4356   -0.7749   -0.9255 C   0  0  0  0  0  0  0  0  0  0  0  0
    3.5158   -1.9665    0.6982 C   0  0  0  0  0  0  0  0  0  0  0  0
   -1.6051    0.5428   -1.3509 C   0  0  0  0  0  0  0  0  0  0  0  0
   -2.4562   -1.4186   -0.2257 C   0  0  0  0  0  0  0  0  0  0  0  0
   -3.8156    0.5729   -0.3765 C   0  0  0  0  0  0  0  0  0  0  0  0
   -2.7950    1.2166   -1.0764 C   0  0  0  0  0  0  0  0  0  0  0  0
   -3.6461   -0.7447    0.0489 C   0  0  0  0  0  0  0  0  0  0  0  0
    4.9590   -0.0205    0.1230 C   0  0  0  0  0  0  0  0  0  0  0  0
   -6.1323    0.7709    0.5815 C   0  0  0  0  0  0  0  0  0  0  0  0
    6.1537    2.0065   -0.1748 C   0  0  0  0  0  0  0  0  0  0  0  0
   -7.2169    1.8152    0.6680 C   0  0  0  0  0  0  0  0  0  0  0  0
    6.2094    3.4160    0.3746 C   0  0  0  0  0  0  0  0  0  0  0  0
  1  2  2  0
  1  3  2  0
  1  9  1  0
  1 10  1  0
  4 18  1  0
  4 20  1  0
  5 18  2  0
  6 19  2  0
  7 12  1  0
  7 18  1  0
  8 15  1  0
  8 19  1  0
  9 11  1  0
 10 12  1  0
 11 13  2  0
 11 14  1  0
 13 16  1  0
 14 17  2  0
 15 16  2  0
 15 17  1  0
 19 21  1  0
 20 22  1  0
M  END
>  <PUBCHEM_COMPOUND_CID>  (1) 
44966

>  <PUBCHEM_CONFORMER_RMSD>  (1) 
1

>  <PUBCHEM_CONFORMER_DIVERSEORDER>  (1) 
2
115
65
91
143
81
77
149
22
101
120
145
7
69
110
134
61
97
33
131
85
118
122
62
128
74
42
148
24
82
144
114
76
63
93
46
78
109
57
141
136
112
98
28
49
147
73
133
64
130
127
129
119
16
90
102
79
41
126
26
17
55
89
146
151
38
14
104
56
100
1
39
25
52
68
123
92
47
35
117
37
67
124
30
13
48
31
21
60
150
3
50
138
75
87
132
9
95
10
88
70
23
103
142
11
80
5
6
86
27
53
40
71
54
107
34
108
45
19
135
113
66
140
43
83
51
8
72
58
15
32
106
137
12
84
4
20
59
111
121
125
44
99
105
36
18
96
139
29
94
116

>  <PUBCHEM_MMFF94_PARTIAL_CHARGES>  (1) 
27
1 1.09
10 0.11
11 -0.14
12 0.3
13 -0.15
14 -0.15
15 0.12
16 -0.15
17 -0.15
18 0.78
19 0.57
2 -0.65
20 0.28
21 0.06
29 0.15
3 -0.65
30 0.15
31 0.37
32 0.15
33 0.15
34 0.37
4 -0.43
5 -0.57
6 -0.57
7 -0.73
8 -0.55
9 0.25

>  <PUBCHEM_EFFECTIVE_ROTOR_COUNT>  (1) 
10

>  <PUBCHEM_PHARMACOPHORE_FEATURES>  (1) 
7
1 2 acceptor
1 3 acceptor
1 5 acceptor
1 6 acceptor
1 7 donor
1 8 donor
6 11 13 14 15 16 17 rings

>  <PUBCHEM_HEAVY_ATOM_COUNT>  (1) 
22

>  <PUBCHEM_ATOM_DEF_STEREO_COUNT>  (1) 
0

>  <PUBCHEM_ATOM_UDEF_STEREO_COUNT>  (1) 
0

>  <PUBCHEM_BOND_DEF_STEREO_COUNT>  (1) 
0

>  <PUBCHEM_BOND_UDEF_STEREO_COUNT>  (1) 
0

>  <PUBCHEM_ISOTOPIC_ATOM_COUNT>  (1) 
0

>  <PUBCHEM_COMPONENT_COUNT>  (1) 
1

>  <PUBCHEM_CACTVS_TAUTO_COUNT>  (1) 
4

>  <PUBCHEM_CONFORMER_ID>  (1) 
0000AFA600000002

>  <PUBCHEM_MMFF94_ENERGY>  (1) 
36.7206

>  <PUBCHEM_FEATURE_SELFOVERLAP>  (1) 
35.54

>  <PUBCHEM_SHAPE_FINGERPRINT>  (1) 
10 15 17967531281035170816
10066227 49 9079113350392296537
106641 1 14779558889514239046
10693767 8 9151166524397069853
11796584 16 12751226013548908820
11858739 19 10231753392421303822
12555020 224 10952050065384529869
12596602 18 18334579001995141611
12670543 26 11095879355094536791
12895836 83 17774436209033431894
12954195 1 9943537289111146171
13533116 47 17313945199850059642
13885169 86 18339928215858170944
13955234 65 18115580445065753210
14251732 16 18335140912371408363
14251740 57 12829751983386374376
14251757 52 18342739602470537249
14251764 75 18264489667121140196
14341114 176 18187647955575868927
15183329 4 13254797915027251807
15188451 53 11458414752752504812
15475509 35 12035448367852099316
15475509 8 13973692723671232979
15840311 113 18410859849637941028
16760501 71 18335703870498156141
17834072 8 13110956513920894007
17857418 61 10953745499213140121
20028762 73 11097845290459884272
21120745 212 17767673224306371663
21307412 95 12319461034131476388
21315764 119 12391513087782521713
21344244 78 16588314873289761277
21401589 2 17968647341699134512
21521239 73 10303805467558398205
21637258 2 13551482475367249939
22079108 93 17894911819417869210
2215653 11 11671779377494101788
22224240 67 17967814951209635995
23402539 116 9151172061105754023
23569943 247 8574719005500069029
270888 7 18341046436938143880
29717793 49 11455885862844344634
3004659 81 11312055439684652630
3014063 24 8214151750492251840
3472631 163 18201156641729619244
34797466 226 18202569457788272742
4340502 62 17748828492627613882
445580 126 18341321263442637472
5104073 3 17605264086736008345
5207 123 10663826290924463018
531348 171 8502655896891995801
559249 180 8718561514227239231
5718773 13 8286201638915817065
57583515 39 9079116670047769908
59682541 35 18040444300284719553
59682541 52 13542467518684550645
6438161 24 11167943520311193364
8988823 20 11891344157728645078
960060 61 13254795789640796266

>  <PUBCHEM_SHAPE_MULTIPOLES>  (1) 
417.29
18.24
2.69
1.1
1.62
1.42
0.1
15.42
-4.66
-4.24
-0.3
0.49
-0.16
-0.21

>  <PUBCHEM_SHAPE_SELFOVERLAP>  (1) 
831.373

>  <PUBCHEM_SHAPE_VOLUME>  (1) 
246.9

>  <PUBCHEM_COORDINATE_TYPE>  (1) 
2
5
10

$$$$
