44968
     RDKit          3D

 16 16  0  0  0  0  0  0  0  0999 V2000
    0.8188    0.9850   -0.9794 O   0  0  0  0  0  0  0  0  0  0  0  0
    1.6325    0.2838    1.0827 O   0  0  0  0  0  0  0  0  0  0  0  0
   -3.2712   -1.3945   -0.0800 N   0  0  0  0  0  0  0  0  0  0  0  0
    3.0723    0.6600   -0.6972 N   0  0  0  0  0  0  0  0  0  0  0  0
   -2.4952   -0.2195   -0.0028 C   0  0  0  0  0  0  0  0  0  0  0  0
   -1.2066   -0.1981   -0.5365 C   0  0  0  0  0  0  0  0  0  0  0  0
   -0.4392    0.9641   -0.4599 C   0  0  0  0  0  0  0  0  0  0  0  0
   -3.0162    0.9215    0.6076 C   0  0  0  0  0  0  0  0  0  0  0  0
   -4.7165   -1.3161   -0.1567 C   0  0  0  0  0  0  0  0  0  0  0  0
   -2.6329   -2.6958   -0.0977 C   0  0  0  0  0  0  0  0  0  0  0  0
   -0.9602    2.1049    0.1505 C   0  0  0  0  0  0  0  0  0  0  0  0
   -2.2488    2.0836    0.6844 C   0  0  0  0  0  0  0  0  0  0  0  0
    1.8377    0.6082   -0.0833 C   0  0  0  0  0  0  0  0  0  0  0  0
    4.3101    0.3285   -0.0308 C   0  0  0  0  0  0  0  0  0  0  0  0
    4.5843   -1.1279   -0.2078 C   0  0  0  0  0  0  0  0  0  0  0  0
    4.7310   -1.9877    0.8066 C   0  0  0  0  0  0  0  0  0  0  0  0
  1  7  1  0
  1 13  1  0
  2 13  2  0
  3  5  1  0
  3  9  1  0
  3 10  1  0
  4 13  1  0
  4 14  1  0
  5  6  2  0
  5  8  1  0
  6  7  1  0
  7 11  2  0
  8 12  2  0
 11 12  1  0
 14 15  1  0
 15 16  2  0
M  END
>  <PUBCHEM_COMPOUND_CID>  (1) 
44968

>  <PUBCHEM_CONFORMER_RMSD>  (1) 
0.8

>  <PUBCHEM_CONFORMER_DIVERSEORDER>  (1) 
1
39
30
67
86
79
83
85
20
18
56
90
76
62
74
19
65
55
40
12
89
34
80
66
28
93
43
21
71
14
17
38
51
8
91
70
72
68
82
35
45
59
7
92
46
36
88
77
52
33
4
10
63
73
29
16
48
81
64
41
2
58
84
87
47
37
78
3
49
42
60
13
50
23
53
25
22
11
54
61
15
69
6
57
24
44
26
31
27
32
75
5
9

>  <PUBCHEM_MMFF94_PARTIAL_CHARGES>  (1) 
24
1 -0.23
10 0.37
11 -0.15
12 -0.15
13 0.78
14 0.44
15 -0.29
16 -0.3
17 0.15
18 0.15
2 -0.57
25 0.15
26 0.15
29 0.37
3 -0.84
30 0.15
31 0.15
32 0.15
4 -0.73
5 0.1
6 -0.15
7 0.08
8 -0.15
9 0.37

>  <PUBCHEM_EFFECTIVE_ROTOR_COUNT>  (1) 
6

>  <PUBCHEM_PHARMACOPHORE_FEATURES>  (1) 
5
1 16 hydrophobe
1 2 acceptor
1 3 cation
1 4 donor
6 5 6 7 8 11 12 rings

>  <PUBCHEM_HEAVY_ATOM_COUNT>  (1) 
16

>  <PUBCHEM_ATOM_DEF_STEREO_COUNT>  (1) 
0

>  <PUBCHEM_ATOM_UDEF_STEREO_COUNT>  (1) 
0

>  <PUBCHEM_BOND_DEF_STEREO_COUNT>  (1) 
0

>  <PUBCHEM_BOND_UDEF_STEREO_COUNT>  (1) 
0

>  <PUBCHEM_ISOTOPIC_ATOM_COUNT>  (1) 
0

>  <PUBCHEM_COMPONENT_COUNT>  (1) 
1

>  <PUBCHEM_CACTVS_TAUTO_COUNT>  (1) 
2

>  <PUBCHEM_CONFORMER_ID>  (1) 
0000AFA800000001

>  <PUBCHEM_MMFF94_ENERGY>  (1) 
51.5469

>  <PUBCHEM_FEATURE_SELFOVERLAP>  (1) 
25.371

>  <PUBCHEM_SHAPE_FINGERPRINT>  (1) 
10616163 171 18411704274921688926
11046707 91 18408885135307030964
11159736 12 18261106349266488354
11769659 78 18408604760253528236
12410352 35 18261385637999610154
12633257 1 17703241654007883729
13167823 11 18408888408721054442
13551218 46 18411986823566415955
13675066 3 17489301933250697286
1420 369 18409168826692984430
14420673 8 17910400481348431142
15239191 94 18334575699149368570
17804303 29 18344149184935307032
17834074 16 18341897338262272430
17959699 21 9295286145073996870
18186145 218 13912334481715284420
18915474 69 18260267473381309666
19422 9 18408046204088651988
19784866 135 18413669114916199515
200 152 18334292093536517829
20281475 54 18335139770089260748
20671657 53 18187648050054834237
20681677 274 18271801380136614784
21065199 12 18131063810651616224
21650355 55 18343022177169963033
21673915 165 18409728457032448330
22079108 93 13326852262175224159
22485316 2 18408040697966932732
22646028 28 18334858333376917494
23402539 116 18202560683987640909
23403322 49 18409447016140896647
23503958 8 18412544310157419538
23559900 14 18341324578540386464
23596394 208 13984939568409200162
24859131 72 18273216400067203695
5104073 3 18273213080363374512
559249 180 18189329082963628347
573450 72 18339642239786888992
633830 44 16298961853122475300

>  <PUBCHEM_SHAPE_MULTIPOLES>  (1) 
307.57
9.64
2.46
0.86
8.65
0.82
-0.05
5.99
-0.86
-1.64
-0.27
0.25
-0.09
-0.96

>  <PUBCHEM_SHAPE_SELFOVERLAP>  (1) 
623.155

>  <PUBCHEM_SHAPE_VOLUME>  (1) 
178.2

>  <PUBCHEM_COORDINATE_TYPE>  (1) 
2
5
10

$$$$
