44978
     RDKit          3D

 18 18  0  0  0  0  0  0  0  0999 V2000
    2.3288   -0.2534    1.0195 O   0  0  0  0  0  0  0  0  0  0  0  0
   -3.6289   -1.3306   -1.3704 O   0  0  0  0  0  0  0  0  0  0  0  0
   -5.2896    0.6913   -2.0479 O   0  0  0  0  0  0  0  0  0  0  0  0
   -4.7127    0.6194   -0.7731 N   0  0  0  0  0  0  0  0  0  0  0  0
    0.2252    0.8939    0.9725 C   0  0  0  0  0  0  0  0  0  0  0  0
    0.9590   -0.2872    0.9813 C   0  0  0  0  0  0  0  0  0  0  0  0
    4.3489   -0.1519   -0.2620 C   0  0  0  0  0  0  0  0  0  0  0  0
    3.0157   -0.8599   -0.0664 C   0  0  0  0  0  0  0  0  0  0  0  0
   -1.8194   -0.3917    0.9020 C   0  0  0  0  0  0  0  0  0  0  0  0
    0.9054    2.2225    1.0051 C   0  0  0  0  0  0  0  0  0  0  0  0
   -1.1682    0.8415    0.9334 C   0  0  0  0  0  0  0  0  0  0  0  0
    5.1358   -0.7443   -1.4276 C   0  0  0  0  0  0  0  0  0  0  0  0
    0.3164   -1.5201    0.9505 C   0  0  0  0  0  0  0  0  0  0  0  0
   -1.0771   -1.5725    0.9100 C   0  0  0  0  0  0  0  0  0  0  0  0
   -3.3091   -0.4476    0.8605 C   0  0  0  0  0  0  0  0  0  0  0  0
    1.2084    2.7526   -0.3933 C   0  0  0  0  0  0  0  0  0  0  0  0
    6.4470   -0.0067   -1.6467 C   0  0  0  0  0  0  0  0  0  0  0  0
   -3.8857   -0.4553   -0.5475 C   0  0  0  0  0  0  0  0  0  0  0  0
  1  6  1  0
  1  8  1  0
  2 18  2  0
  3  4  1  0
  4 18  1  0
  5  6  2  0
  5 10  1  0
  5 11  1  0
  6 13  1  0
  7  8  1  0
  7 12  1  0
  9 11  2  0
  9 14  1  0
  9 15  1  0
 10 16  1  0
 12 17  1  0
 13 14  2  0
 15 18  1  0
M  END
>  <PUBCHEM_COMPOUND_CID>  (1) 
44978

>  <PUBCHEM_CONFORMER_RMSD>  (1) 
0.8

>  <PUBCHEM_CONFORMER_DIVERSEORDER>  (1) 
1
59
199
50
165
162
204
113
167
198
205
232
186
226
45
102
96
170
181
215
151
239
118
214
128
27
163
242
84
69
132
237
31
158
235
75
185
171
173
240
22
211
127
139
169
220
81
91
2
175
230
68
137
166
207
57
89
72
143
87
243
228
114
42
78
107
209
157
15
234
201
156
119
26
110
138
194
54
200
217
219
60
178
8
168
176
36
148
155
105
108
231
53
152
208
49
216
18
126
174
37
3
136
238
196
88
98
224
147
85
184
123
99
40
86
189
80
122
48
16
179
225
116
28
146
182
90
222
62
55
161
124
4
58
233
13
111
197
172
5
140
210
83
236
131
160
159
180
112
133
164
92
14
30
20
104
223
93
141
153
191
187
192
221
227
213
52
9
183
33
149
115
202
38
64
109
73
97
65
10
21
79
66
188
103
25
203
29
154
95
35
32
43
17
101
24
74
76
23
71
7
125
195
142
44
134
130
6
77
12
41
63
206
34
129
135
106
39
241
100
61
145
190
11
229
46
121
47
144
218
150
82
70
120
212
67
56
193
244
51
117
177
94
19

>  <PUBCHEM_MMFF94_PARTIAL_CHARGES>  (1) 
19
1 -0.36
10 0.14
11 -0.15
13 -0.15
14 -0.15
15 0.2
18 0.57
2 -0.57
25 0.15
28 0.15
29 0.15
3 -0.44
38 0.37
39 0.4
4 -0.39
5 -0.14
6 0.08
8 0.28
9 -0.14

>  <PUBCHEM_EFFECTIVE_ROTOR_COUNT>  (1) 
8

>  <PUBCHEM_PHARMACOPHORE_FEATURES>  (1) 
6
1 1 acceptor
1 16 hydrophobe
1 17 hydrophobe
1 2 acceptor
1 4 donor
6 5 6 9 11 13 14 rings

>  <PUBCHEM_HEAVY_ATOM_COUNT>  (1) 
18

>  <PUBCHEM_ATOM_DEF_STEREO_COUNT>  (1) 
0

>  <PUBCHEM_ATOM_UDEF_STEREO_COUNT>  (1) 
0

>  <PUBCHEM_BOND_DEF_STEREO_COUNT>  (1) 
0

>  <PUBCHEM_BOND_UDEF_STEREO_COUNT>  (1) 
0

>  <PUBCHEM_ISOTOPIC_ATOM_COUNT>  (1) 
0

>  <PUBCHEM_COMPONENT_COUNT>  (1) 
1

>  <PUBCHEM_CACTVS_TAUTO_COUNT>  (1) 
3

>  <PUBCHEM_CONFORMER_ID>  (1) 
0000AFB200000001

>  <PUBCHEM_MMFF94_ENERGY>  (1) 
39.1504

>  <PUBCHEM_FEATURE_SELFOVERLAP>  (1) 
30.446

>  <PUBCHEM_SHAPE_FINGERPRINT>  (1) 
10756046 5 18123750017526440946
11796584 16 15339119022627150053
12293681 160 18186806859609499200
12596602 18 11887952138471270446
12670543 26 18337954493664674166
13288520 33 15985108491929386179
13914758 101 16732980904597397260
14178000 29 17561083622547088800
14178342 30 10735614530262395251
14508225 48 18341059540794076460
14911166 2 18409167718417141267
14993402 34 18410577283902801074
15048467 5 16805605858449313494
15209294 21 12251899299994263091
15295992 7 12252487582292381742
16945 1 18334851732070290995
17959699 21 17241057603819502964
18186145 218 18336254735030343603
18222031 100 17846776295939436826
18769570 83 16153425060820357476
19784866 240 17131834291806175799
20871999 31 18338804420532399368
21029758 11 18342740723699536408
21069387 34 17060621135145522835
21304304 249 13614514173651980637
21637258 2 15841547436471227598
22182313 1 18047193230571260074
22224240 67 8286195033466729053
22620623 9 17844259427671378256
23379529 103 17557132123813001295
23402539 116 18341908346458306026
23559900 14 18341058523065656072
25147074 1 18121218671571987650
2748010 2 18047472510941151219
2838139 119 16443065010831236566
3009799 131 18407759244686663140
3060560 45 18268690797480851867
392239 28 11458720386751308061
465052 167 13470399006844621508
76465 3 14548726331541112439
7808743 9 16298937668272129013

>  <PUBCHEM_SHAPE_MULTIPOLES>  (1) 
347.84
11.3
1.94
1.64
7.56
1.36
-0.65
-1.98
-9.95
0.25
0.21
-0.7
-0.02
0.51

>  <PUBCHEM_SHAPE_SELFOVERLAP>  (1) 
697.321

>  <PUBCHEM_SHAPE_VOLUME>  (1) 
205.7

>  <PUBCHEM_COORDINATE_TYPE>  (1) 
2
5
10

$$$$
