44976
     RDKit          3D

 19 19  0  0  0  0  0  0  0  0999 V2000
   -4.8430    2.7503    1.1974 Cl  0  0  0  0  0  0  0  0  0  0  0  0
   -0.9349    0.2964    0.4464 O   0  0  0  0  0  0  0  0  0  0  0  0
   -0.9928   -1.3374   -1.1927 O   0  0  0  0  0  0  0  0  0  0  0  0
    4.9996   -0.6152   -0.7815 O   0  0  0  0  0  0  0  0  0  0  0  0
   -2.9786   -0.5374   -0.2841 N   0  0  0  0  0  0  0  0  0  0  0  0
    4.5784    0.1950    0.0548 N   0  0  0  0  0  0  0  0  0  0  0  0
   -3.6730    0.3468    0.6464 C   0  0  0  0  0  0  0  0  0  0  0  0
   -3.8242   -1.3952   -1.1019 C   0  0  0  0  0  0  0  0  0  0  0  0
    0.4601    0.2707    0.3473 C   0  0  0  0  0  0  0  0  0  0  0  0
    2.5541   -0.6224    1.0533 C   0  0  0  0  0  0  0  0  0  0  0  0
    2.4646    1.0888   -0.6498 C   0  0  0  0  0  0  0  0  0  0  0  0
   -1.5864   -0.5931   -0.4132 C   0  0  0  0  0  0  0  0  0  0  0  0
    3.2049    0.2203    0.1524 C   0  0  0  0  0  0  0  0  0  0  0  0
    1.1630   -0.5971    1.1520 C   0  0  0  0  0  0  0  0  0  0  0  0
    1.0734    1.1144   -0.5510 C   0  0  0  0  0  0  0  0  0  0  0  0
   -4.0023    1.6972    0.0328 C   0  0  0  0  0  0  0  0  0  0  0  0
   -4.0906   -2.7223   -0.4118 C   0  0  0  0  0  0  0  0  0  0  0  0
    3.3075   -1.5698    1.9332 C   0  0  0  0  0  0  0  0  0  0  0  0
    3.1203    2.0101   -1.6298 C   0  0  0  0  0  0  0  0  0  0  0  0
  1 16  1  0
  2  9  1  0
  2 12  1  0
  3 12  2  0
  4  6  2  0
  5  7  1  0
  5  8  1  0
  5 12  1  0
  6 13  1  0
  7 16  1  0
  8 17  1  0
  9 14  2  0
  9 15  1  0
 10 13  2  0
 10 14  1  0
 10 18  1  0
 11 13  1  0
 11 15  2  0
 11 19  1  0
M  END
>  <PUBCHEM_COMPOUND_CID>  (1) 
44976

>  <PUBCHEM_CONFORMER_RMSD>  (1) 
0.8

>  <PUBCHEM_CONFORMER_DIVERSEORDER>  (1) 
1
64
97
76
110
77
94
90
9
96
69
115
62
103
59
79
7
95
32
119
21
40
46
47
14
61
68
55
100
121
122
102
72
16
43
56
65
60
92
116
23
37
52
25
63
31
54
83
112
67
39
57
50
42
44
26
111
91
18
101
45
118
105
51
20
87
13
34
17
70
71
99
10
78
35
4
73
30
117
22
89
28
15
27
49
104
2
113
12
114
58
11
120
36
75
3
38
74
6
41
5
106
107
8
80
93
53
98
109
48
33
85
86
29
88
81
24
108
84
19
82
66

>  <PUBCHEM_MMFF94_PARTIAL_CHARGES>  (1) 
20
1 -0.29
10 -0.14
11 -0.14
12 0.78
13 0.3
14 -0.15
15 -0.15
16 0.29
18 0.14
19 0.14
2 -0.23
24 0.15
25 0.15
3 -0.57
4 -0.16
5 -0.66
6 -0.14
7 0.3
8 0.3
9 0.08

>  <PUBCHEM_EFFECTIVE_ROTOR_COUNT>  (1) 
7

>  <PUBCHEM_PHARMACOPHORE_FEATURES>  (1) 
2
1 3 acceptor
6 9 10 11 13 14 15 rings

>  <PUBCHEM_HEAVY_ATOM_COUNT>  (1) 
19

>  <PUBCHEM_ATOM_DEF_STEREO_COUNT>  (1) 
0

>  <PUBCHEM_ATOM_UDEF_STEREO_COUNT>  (1) 
0

>  <PUBCHEM_BOND_DEF_STEREO_COUNT>  (1) 
0

>  <PUBCHEM_BOND_UDEF_STEREO_COUNT>  (1) 
0

>  <PUBCHEM_ISOTOPIC_ATOM_COUNT>  (1) 
0

>  <PUBCHEM_COMPONENT_COUNT>  (1) 
1

>  <PUBCHEM_CACTVS_TAUTO_COUNT>  (1) 
1

>  <PUBCHEM_CONFORMER_ID>  (1) 
0000AFB000000001

>  <PUBCHEM_MMFF94_ENERGY>  (1) 
48.0148

>  <PUBCHEM_FEATURE_SELFOVERLAP>  (1) 
10.148

>  <PUBCHEM_SHAPE_FINGERPRINT>  (1) 
10354089 29 17968386653789649713
11471102 20 17531239600114734636
11545043 162 17489587870086862546
11552529 35 17823431559600876411
11578080 2 18049403128621630249
11615757 297 17968651730733847671
11796584 16 17632020750028387126
12107183 9 18048310042628062595
12236239 1 18409169900260566457
12500047 106 17632572738776505503
12670546 56 18409720794293574261
13167823 11 18336546109395325527
13296908 3 16558750156596102875
13583140 156 16916776388322879879
13675066 3 17704068520953667782
13760787 19 18408319965119495819
13760787 5 17458339715539900562
14576447 43 18115296899408039338
15842332 3 18334290989830142979
16752209 62 18059565928003714239
16945 1 17676482870157207824
17818456 19 18198062473705846601
18186145 218 17603865641289864804
19026448 5 18334290989692986379
19078846 21 18341322332040167928
19422 9 18334851749181626587
20281475 54 18260817202961280931
20645477 70 16733526265531263330
21065201 7 17775563152237726927
23402539 116 18201718444621057356
23402655 69 17749377153166422855
23557571 272 17775569732459855785
23559900 14 17418379056550450404
23598288 3 18341619269516121239
23598291 2 18334860570796487780
3060560 45 17749101240921758294
312423 11 18334580191426613029
474 4 17678457691461444916
5104073 3 18409722971894585776
573450 72 18341887494112509163
633830 44 17968672587026510724
7615 1 18334847342724490025
77492 1 18408601478655797561
84936 182 18119815956765555084

>  <PUBCHEM_SHAPE_MULTIPOLES>  (1) 
365.31
10.56
2.43
1.43
2.4
0.23
-0.19
1.28
-0.38
3.31
0.06
-0.62
-0.05
-3.14

>  <PUBCHEM_SHAPE_SELFOVERLAP>  (1) 
736.117

>  <PUBCHEM_SHAPE_VOLUME>  (1) 
217.7

>  <PUBCHEM_COORDINATE_TYPE>  (1) 
2
5
10

$$$$
