44977
     RDKit          3D

 12 11  0  0  0  0  0  0  0  0999 V2000
   -4.5249   -0.9240    0.6200 Cl  0  0  0  0  0  0  0  0  0  0  0  0
    3.8155    0.5728    1.1563 F   0  0  0  0  0  0  0  0  0  0  0  0
    1.4976   -0.0408   -0.2138 O   0  0  0  0  0  0  0  0  0  0  0  0
    0.1275   -1.8574   -0.4648 O   0  0  0  0  0  0  0  0  0  0  0  0
   -1.4616    2.4514   -0.2468 O   0  0  0  0  0  0  0  0  0  0  0  0
   -0.7793    0.2766   -0.3666 N   0  0  0  0  0  0  0  0  0  0  0  0
   -0.4625    1.7244   -0.2266 N   0  0  0  0  0  0  0  0  0  0  0  0
   -2.1668   -0.1379   -0.5071 C   0  0  0  0  0  0  0  0  0  0  0  0
   -2.8316   -0.4143    0.8310 C   0  0  0  0  0  0  0  0  0  0  0  0
    2.6294   -0.9186   -0.1940 C   0  0  0  0  0  0  0  0  0  0  0  0
    0.2720   -0.6408   -0.3575 C   0  0  0  0  0  0  0  0  0  0  0  0
    3.8847   -0.0914   -0.0300 C   0  0  0  0  0  0  0  0  0  0  0  0
  1  9  1  0
  2 12  1  0
  3 10  1  0
  3 11  1  0
  4 11  2  0
  5  7  2  0
  6  7  1  0
  6  8  1  0
  6 11  1  0
  8  9  1  0
 10 12  1  0
M  END
>  <PUBCHEM_COMPOUND_CID>  (1) 
44977

>  <PUBCHEM_CONFORMER_RMSD>  (1) 
0.8

>  <PUBCHEM_CONFORMER_DIVERSEORDER>  (1) 
1
82
128
15
124
109
85
31
100
60
44
32
71
135
122
78
72
70
13
9
30
61
75
49
136
132
55
29
101
50
5
126
58
118
42
91
77
90
94
111
22
37
74
19
43
79
67
107
2
76
48
73
83
45
27
88
63
56
51
14
114
110
130
108
134
125
46
57
99
35
62
104
92
93
41
54
103
87
34
26
95
123
106
64
102
86
96
20
121
23
84
115
52
133
127
112
105
53
81
18
21
33
113
39
47
38
40
59
7
3
16
28
68
137
17
117
12
129
24
97
11
65
8
131
119
116
66
80
4
69
6
89
98
25
36
120
10

>  <PUBCHEM_MMFF94_PARTIAL_CHARGES>  (1) 
12
1 -0.29
10 0.28
11 0.78
12 0.34
2 -0.34
3 -0.43
4 -0.57
5 -0.16
6 -0.18
7 -0.02
8 0.3
9 0.29

>  <PUBCHEM_EFFECTIVE_ROTOR_COUNT>  (1) 
7

>  <PUBCHEM_PHARMACOPHORE_FEATURES>  (1) 
1
1 4 acceptor

>  <PUBCHEM_HEAVY_ATOM_COUNT>  (1) 
12

>  <PUBCHEM_ATOM_DEF_STEREO_COUNT>  (1) 
0

>  <PUBCHEM_ATOM_UDEF_STEREO_COUNT>  (1) 
0

>  <PUBCHEM_BOND_DEF_STEREO_COUNT>  (1) 
0

>  <PUBCHEM_BOND_UDEF_STEREO_COUNT>  (1) 
0

>  <PUBCHEM_ISOTOPIC_ATOM_COUNT>  (1) 
0

>  <PUBCHEM_COMPONENT_COUNT>  (1) 
1

>  <PUBCHEM_CACTVS_TAUTO_COUNT>  (1) 
1

>  <PUBCHEM_CONFORMER_ID>  (1) 
0000AFB100000001

>  <PUBCHEM_MMFF94_ENERGY>  (1) 
12.781

>  <PUBCHEM_FEATURE_SELFOVERLAP>  (1) 
5.074

>  <PUBCHEM_SHAPE_FINGERPRINT>  (1) 
10219947 1 18412272756797878863
10465860 250 17967531298536507715
10857977 72 18407760330627378835
11132069 177 18272931652156634095
12932764 1 17917139521063169430
14252887 29 18341911683389919379
14325111 11 18339640023778813126
17844478 74 18413672391896994824
18186145 218 17346875633531711286
18380122 1 18270687467388504199
20645477 70 12829484836029757048
20871998 22 18340504274304571639
21119208 17 13551469298043874955
22218785 32 9439409012435164665
23402539 116 18410569600596873751
25610 137 18335144193251447892
2748010 2 18196372511654378742
449060 50 17131840871501043743
58734985 188 18340493377856542505
58734987 124 18410008802168801681
81228 2 17972904491708229961

>  <PUBCHEM_SHAPE_MULTIPOLES>  (1) 
213.98
7.32
1.68
0.83
0.43
1.01
0.15
-1.73
2.44
-0.66
-0.22
0.04
-0.03
0.53

>  <PUBCHEM_SHAPE_SELFOVERLAP>  (1) 
390.345

>  <PUBCHEM_SHAPE_VOLUME>  (1) 
136.6

>  <PUBCHEM_COORDINATE_TYPE>  (1) 
2
5
10

$$$$
