44971
     RDKit          3D

 20 20  0  0  0  0  0  0  0  0999 V2000
   -4.1869    3.6045    0.8684 Cl  0  0  0  0  0  0  0  0  0  0  0  0
   -5.2918   -3.1710   -0.6881 Cl  0  0  0  0  0  0  0  0  0  0  0  0
   -0.5994    0.6360    0.4488 O   0  0  0  0  0  0  0  0  0  0  0  0
   -0.8976   -1.2232   -0.8980 O   0  0  0  0  0  0  0  0  0  0  0  0
    5.1481   -1.1280   -0.7376 O   0  0  0  0  0  0  0  0  0  0  0  0
   -2.7483   -0.0681   -0.0917 N   0  0  0  0  0  0  0  0  0  0  0  0
    4.8510   -0.1510   -0.0371 N   0  0  0  0  0  0  0  0  0  0  0  0
   -3.3061    1.0270    0.6953 C   0  0  0  0  0  0  0  0  0  0  0  0
   -3.7130   -0.9452   -0.7395 C   0  0  0  0  0  0  0  0  0  0  0  0
    0.7797    0.4372    0.3260 C   0  0  0  0  0  0  0  0  0  0  0  0
    2.8202    0.8514   -0.8339 C   0  0  0  0  0  0  0  0  0  0  0  0
    2.7910   -0.5616    1.1254 C   0  0  0  0  0  0  0  0  0  0  0  0
   -1.3764   -0.3008   -0.2391 C   0  0  0  0  0  0  0  0  0  0  0  0
    3.4934    0.0456    0.0844 C   0  0  0  0  0  0  0  0  0  0  0  0
    1.4450    1.0506   -0.7111 C   0  0  0  0  0  0  0  0  0  0  0  0
    1.4155   -0.3635    1.2474 C   0  0  0  0  0  0  0  0  0  0  0  0
   -3.5112    2.2896   -0.1248 C   0  0  0  0  0  0  0  0  0  0  0  0
   -4.1168   -2.1180    0.1380 C   0  0  0  0  0  0  0  0  0  0  0  0
    3.5327    1.5220   -1.9662 C   0  0  0  0  0  0  0  0  0  0  0  0
    3.4711   -1.4334    2.1335 C   0  0  0  0  0  0  0  0  0  0  0  0
  1 17  1  0
  2 18  1  0
  3 10  1  0
  3 13  1  0
  4 13  2  0
  5  7  2  0
  6  8  1  0
  6  9  1  0
  6 13  1  0
  7 14  1  0
  8 17  1  0
  9 18  1  0
 10 15  2  0
 10 16  1  0
 11 14  2  0
 11 15  1  0
 11 19  1  0
 12 14  1  0
 12 16  2  0
 12 20  1  0
M  END
>  <PUBCHEM_COMPOUND_CID>  (1) 
44971

>  <PUBCHEM_CONFORMER_RMSD>  (1) 
0.8

>  <PUBCHEM_CONFORMER_DIVERSEORDER>  (1) 
1
41
18
65
53
39
80
7
57
56
27
46
52
32
44
19
60
24
17
76
43
63
58
79
68
78
10
12
67
51
14
23
50
34
62
2
42
64
71
29
9
45
16
22
38
47
26
15
69
40
36
66
77
20
59
81
48
37
83
31
35
13
25
49
82
33
55
75
3
54
8
61
6
70
21
11
73
74
4
72
28
30
5

>  <PUBCHEM_MMFF94_PARTIAL_CHARGES>  (1) 
22
1 -0.29
10 0.08
11 -0.14
12 -0.14
13 0.78
14 0.3
15 -0.15
16 -0.15
17 0.29
18 0.29
19 0.14
2 -0.29
20 0.14
25 0.15
26 0.15
3 -0.23
4 -0.57
5 -0.16
6 -0.66
7 -0.14
8 0.3
9 0.3

>  <PUBCHEM_EFFECTIVE_ROTOR_COUNT>  (1) 
8

>  <PUBCHEM_PHARMACOPHORE_FEATURES>  (1) 
2
1 4 acceptor
6 10 11 12 14 15 16 rings

>  <PUBCHEM_HEAVY_ATOM_COUNT>  (1) 
20

>  <PUBCHEM_ATOM_DEF_STEREO_COUNT>  (1) 
0

>  <PUBCHEM_ATOM_UDEF_STEREO_COUNT>  (1) 
0

>  <PUBCHEM_BOND_DEF_STEREO_COUNT>  (1) 
0

>  <PUBCHEM_BOND_UDEF_STEREO_COUNT>  (1) 
0

>  <PUBCHEM_ISOTOPIC_ATOM_COUNT>  (1) 
0

>  <PUBCHEM_COMPONENT_COUNT>  (1) 
1

>  <PUBCHEM_CACTVS_TAUTO_COUNT>  (1) 
1

>  <PUBCHEM_CONFORMER_ID>  (1) 
0000AFAB00000001

>  <PUBCHEM_MMFF94_ENERGY>  (1) 
50.3763

>  <PUBCHEM_FEATURE_SELFOVERLAP>  (1) 
10.148

>  <PUBCHEM_SHAPE_FINGERPRINT>  (1) 
11056379 131 18413108368750635519
11545043 162 17846778490383037906
11796584 16 17987241032513157806
12107183 9 17902505983032347091
12236239 1 18334293179862524252
12670546 56 18334571356410210524
12788726 201 18337674226017113019
13167823 11 18334296486992831295
13583140 156 17346587560968217463
13675066 3 17846492634449962342
14576447 43 18041552633142571706
15806764 133 17274827982026939785
15842332 3 18187365415589687281
16752209 62 18272362084027894271
17834072 33 17967529107887194687
18186145 218 17312827086855742612
19422 9 18259981578466370763
200 152 18040990804433986403
20281475 54 18187354411614482178
20645477 70 18040713714466014838
21065201 7 18059855038962486283
21426921 1 18341894091588568025
23557571 272 17989489580809648813
23559900 14 17703230599205259220
23598288 3 18342177787005407365
23598291 2 18259992595126206564
29717793 49 18335136535488634103
3060560 45 17313100891479902358
312423 11 18261681462282357957
465052 167 18126853935227202823
474 4 17459475640101242668
5104073 3 18201995530188372690
573450 72 18410568466334844777
633830 44 17677351453777408300
7615 1 18187639202511848833

>  <PUBCHEM_SHAPE_MULTIPOLES>  (1) 
387.76
11.52
3.04
1.45
1.29
1.05
-0.16
-3.47
1.15
6.91
-0.19
-1.6
-0.03
-2.89

>  <PUBCHEM_SHAPE_SELFOVERLAP>  (1) 
771.301

>  <PUBCHEM_SHAPE_VOLUME>  (1) 
234.2

>  <PUBCHEM_COORDINATE_TYPE>  (1) 
2
5
10

$$$$
