44988
     RDKit          3D

 21 22  0  0  0  0  0  0  0  0999 V2000
    4.7965    1.3391    0.2391 N   0  0  0  0  0  0  0  0  0  0  0  0
    1.3997   -0.1913    0.2233 N   0  0  0  0  0  0  0  0  0  0  0  0
   -0.9079   -0.7905    0.1650 N   0  0  0  0  0  0  0  0  0  0  0  0
   -0.2676    1.4503    0.0280 N   0  0  0  0  0  0  0  0  0  0  0  0
    0.3214   -2.8277    0.0408 N   0  0  0  0  0  0  0  0  0  0  0  0
   -2.5472    1.3269    0.7095 N   0  0  0  0  0  0  0  0  0  0  0  0
    3.7832    0.2848    0.2599 C   0  0  0  0  0  0  0  0  0  0  0  0
    2.3871    0.8903    0.2311 C   0  0  0  0  0  0  0  0  0  0  0  0
    4.6429    2.1720   -0.9531 C   0  0  0  0  0  0  0  0  0  0  0  0
    6.1382    0.7595    0.2884 C   0  0  0  0  0  0  0  0  0  0  0  0
    0.1404    0.1291    0.1780 C   0  0  0  0  0  0  0  0  0  0  0  0
   -0.8751   -2.1962    0.0124 C   0  0  0  0  0  0  0  0  0  0  0  0
   -1.5735    1.9858    0.0367 C   0  0  0  0  0  0  0  0  0  0  0  0
   -2.0880   -2.8466   -0.1585 C   0  0  0  0  0  0  0  0  0  0  0  0
   -1.7832    3.1714   -0.6540 C   0  0  0  0  0  0  0  0  0  0  0  0
   -2.0720   -4.2288   -0.3096 C   0  0  0  0  0  0  0  0  0  0  0  0
   -3.0644    3.7115   -0.6544 C   0  0  0  0  0  0  0  0  0  0  0  0
   -0.8607   -4.9112   -0.2858 C   0  0  0  0  0  0  0  0  0  0  0  0
   -4.0875    3.0606    0.0262 C   0  0  0  0  0  0  0  0  0  0  0  0
    0.2973   -4.1710   -0.1095 C   0  0  0  0  0  0  0  0  0  0  0  0
   -3.7798    1.8820    0.6865 C   0  0  0  0  0  0  0  0  0  0  0  0
  1  7  1  0
  1  9  1  0
  1 10  1  0
  2  8  1  0
  2 11  2  3
  3 11  1  0
  3 12  1  0
  4 11  1  0
  4 13  1  0
  5 12  2  0
  5 20  1  0
  6 13  2  0
  6 21  1  0
  7  8  1  0
 12 14  1  0
 13 15  1  0
 14 16  2  0
 15 17  2  0
 16 18  1  0
 17 19  1  0
 18 20  2  0
 19 21  2  0
M  END
>  <PUBCHEM_COMPOUND_CID>  (1) 
44988

>  <PUBCHEM_CONFORMER_RMSD>  (1) 
0.8

>  <PUBCHEM_CONFORMER_DIVERSEORDER>  (1) 
1
333
79
298
259
124
332
160
344
189
289
145
132
58
396
212
234
293
373
68
306
249
181
312
133
366
329
37
340
229
323
18
232
375
362
2
350
280
113
169
288
244
168
286
226
285
217
299
115
126
353
263
44
335
182
32
81
104
252
86
198
300
142
243
284
121
237
94
148
138
103
49
250
152
151
111
246
255
381
209
218
192
15
235
140
377
358
319
385
184
351
62
5
56
199
236
176
338
71
265
175
165
22
357
278
143
136
201
120
307
205
349
63
395
274
316
161
47
42
69
211
24
277
267
262
266
292
72
150
214
313
403
347
359
61
89
116
172
227
180
393
117
394
213
144
149
314
230
371
16
27
389
193
187
141
137
106
93
67
46
13
54
60
239
194
164
64
368
188
197
57
290
247
379
360
260
328
35
282
248
256
66
397
202
356
9
302
241
345
84
376
65
330
40
291
336
53
321
245
315
382
404
76
324
257
261
210
231
369
31
275
327
388
163
309
402
92
74
253
158
118
87
283
99
378
7
25
179
26
303
207
311
34
100
238
240
348
401
390
203
11
268
130
82
361
219
159
310
272
228
343
363
276
6
23
258
354
380
225
3
364
55
204
392
367
20
242
36
271
387
177
270
215
220
134
233
196
223
19
30
166
308
342
91
295
279
59
38
155
264
123
75
341
170
183
296
43
88
374
128
14
383
346
4
17
372
400
269
186
216
301
337
208
317
28
200
365
287
108
370
21
41
174
339
251
147
185
50
294
48
355
322
110
190
98
73
139
95
384
222
10
45
8
221
90
334
281
105
173
325
195
273
52
80
125
386
304
119
162
191
178
83
29
77
156
398
131
114
326
297
135
127
224
206
39
320
51
97
102
305
33
153
12
122
352
70
107
85
331
109
78
318
391
254
399
154
112
157
101
146
167
129
96
171

>  <PUBCHEM_MMFF94_PARTIAL_CHARGES>  (1) 
31
1 -0.81
10 0.27
11 0.55
12 0.41
13 0.41
14 -0.15
15 -0.15
16 -0.15
17 -0.15
18 -0.15
19 -0.15
2 -0.7
20 0.16
21 0.16
3 -0.55
32 0.4
33 0.4
34 0.15
35 0.15
36 0.15
37 0.15
38 0.15
39 0.15
4 -0.55
40 0.15
41 0.15
5 -0.62
6 -0.62
7 0.27
8 0.25
9 0.27

>  <PUBCHEM_EFFECTIVE_ROTOR_COUNT>  (1) 
7

>  <PUBCHEM_PHARMACOPHORE_FEATURES>  (1) 
8
1 1 cation
1 3 donor
1 4 donor
1 5 acceptor
1 6 acceptor
4 2 3 4 11 cation
6 5 12 14 16 18 20 rings
6 6 13 15 17 19 21 rings

>  <PUBCHEM_HEAVY_ATOM_COUNT>  (1) 
21

>  <PUBCHEM_ATOM_DEF_STEREO_COUNT>  (1) 
0

>  <PUBCHEM_ATOM_UDEF_STEREO_COUNT>  (1) 
0

>  <PUBCHEM_BOND_DEF_STEREO_COUNT>  (1) 
0

>  <PUBCHEM_BOND_UDEF_STEREO_COUNT>  (1) 
0

>  <PUBCHEM_ISOTOPIC_ATOM_COUNT>  (1) 
0

>  <PUBCHEM_COMPONENT_COUNT>  (1) 
1

>  <PUBCHEM_CACTVS_TAUTO_COUNT>  (1) 
5

>  <PUBCHEM_CONFORMER_ID>  (1) 
0000AFBC00000001

>  <PUBCHEM_MMFF94_ENERGY>  (1) 
75.0222

>  <PUBCHEM_FEATURE_SELFOVERLAP>  (1) 
40.638

>  <PUBCHEM_SHAPE_FINGERPRINT>  (1) 
10411042 1 17762336216408437434
1100329 8 18050007985303324187
11045515 52 17756700102360084636
11056379 131 18266750262948070540
11833330 49 18049716626989602802
12788726 201 18268410490397791487
13004483 165 17979629370969223026
13052359 8 18411417336408499848
13540713 4 17538013463969440313
13590594 115 17904207275872400979
138480 1 17258215168520877158
13955234 65 17834402211618304321
14251757 5 18192139610962622975
14508225 48 17908976952443284095
14790565 3 18339361859752402160
14866123 147 18412262878151870562
15042514 8 18266182914257411827
15230672 131 18264494997618809350
15842332 3 17896300546228384232
15927050 60 18341329985857038286
16988056 13 16893413677615121084
17539 30 18197772408804736070
18785283 64 17903922158161464625
19591789 44 18339646620469148275
20101258 96 17831877006944681608
21049683 271 17398975781006585636
21120745 212 17833850625800461292
21202864 24 18339653325081753353
21426921 1 18266458883682017824
221490 88 17616542753182174395
2255824 54 17765148367745950143
23558518 356 18333731347323871202
23559900 14 17400073081169679145
23598288 3 18115885159729933736
255183 313 18270135611694207619
3057174 1 18268707208218113572
3091708 16 9485137726514008802
4409770 3 18337102475390611991
458136 41 18196940959271830065
532947 4 17836367051808486870
59755656 520 18409443653424162220
6669772 16 18199470952860043542
7164475 11 18120655996871187980
7364860 26 17690278214395556521
77188 2 17546162360325424215
9925002 15 18045797933321008917
9981440 41 18265616485407205849

>  <PUBCHEM_SHAPE_MULTIPOLES>  (1) 
402.28
8.78
7.24
0.75
15.17
9.25
0.05
-11.07
-0.33
-7.42
1.49
0
-0.28
-0.35

>  <PUBCHEM_SHAPE_SELFOVERLAP>  (1) 
831.253

>  <PUBCHEM_SHAPE_VOLUME>  (1) 
224.2

>  <PUBCHEM_COORDINATE_TYPE>  (1) 
2
5
10

$$$$
