44984
     RDKit          3D

 12 11  0  0  1  0  0  0  0  0999 V2000
   -0.0850   -0.2047    0.1141 O   0  0  0  0  0  0  0  0  0  0  0  0
    2.1305   -0.9592   -0.2070 O   0  0  0  0  0  0  0  0  0  0  0  0
   -0.1660    3.1678   -0.0962 N   0  0  0  0  0  0  0  0  0  0  0  0
    0.9034   -0.5995   -0.8463 C   0  0  0  0  0  0  0  0  0  0  0  0
   -1.0313    0.7060   -0.4300 C   0  0  0  0  0  0  0  0  0  0  0  0
   -2.3730    0.5042    0.2827 C   0  0  0  0  0  0  0  0  0  0  0  0
    0.3436   -1.8121   -1.5792 C   0  0  0  0  0  0  0  0  0  0  0  0
    2.7232    0.1195    0.5033 C   0  0  0  0  0  0  0  0  0  0  0  0
   -2.8620   -0.9120    0.1600 C   0  0  0  0  0  0  0  0  0  0  0  0
    4.0101   -0.3582    1.1416 C   0  0  0  0  0  0  0  0  0  0  0  0
   -0.5471    2.0816   -0.2423 C   0  0  0  0  0  0  0  0  0  0  0  0
   -3.0464   -1.7334    1.1994 C   0  0  0  0  0  0  0  0  0  0  0  0
  1  4  1  0
  1  5  1  0
  2  4  1  0
  2  8  1  0
  3 11  3  0
  4  7  1  0
  5  6  1  0
  5 11  1  0
  6  9  1  0
  8 10  1  0
  9 12  2  0
M  END
>  <PUBCHEM_COMPOUND_CID>  (1) 
44984

>  <PUBCHEM_CONFORMER_RMSD>  (1) 
0.6

>  <PUBCHEM_CONFORMER_DIVERSEORDER>  (1) 
1
159
111
101
49
365
57
240
389
252
206
175
382
356
300
361
383
163
340
154
343
148
86
128
344
345
308
341
371
221
295
140
277
262
149
121
238
247
373
107
239
306
68
246
360
264
56
168
14
227
97
353
208
95
203
178
122
372
219
355
285
368
388
381
94
37
70
251
253
275
169
162
386
114
189
53
193
292
112
261
323
258
290
151
80
304
391
256
395
158
230
110
374
309
335
48
141
298
379
135
156
324
224
191
183
332
45
10
359
236
370
185
318
137
378
145
342
77
270
276
259
305
393
317
207
392
241
188
123
363
302
109
233
81
180
303
316
229
357
225
250
385
245
272
311
117
108
307
337
257
165
125
213
129
30
369
182
27
322
350
160
157
384
106
320
265
380
127
201
33
228
215
283
218
249
242
325
310
90
210
268
85
226
205
314
196
354
181
134
26
99
254
58
211
179
216
362
52
195
281
351
286
42
164
296
84
197
202
29
116
377
301
289
269
313
331
47
174
338
235
336
278
124
173
83
294
38
267
75
21
326
11
71
136
347
274
312
291
288
39
297
3
390
204
198
214
61
144
32
200
131
146
24
171
67
138
76
366
153
87
115
46
375
12
22
217
72
287
51
167
31
118
187
65
9
6
133
315
394
327
119
50
102
234
17
82
100
186
126
63
166
263
13
299
334
36
190
396
23
255
161
41
266
44
40
321
54
7
212
209
28
120
19
152
192
55
279
177
20
74
282
184
349
293
367
88
105
69
62
194
339
60
59
34
2
79
346
78
329
96
220
35
66
223
4
170
376
139
172
73
271
113
93
333
387
43
284
358
64
328
199
89
319
237
142
103
231
244
155
280
273
8
15
352
91
330
260
348
147
222
232
5
98
364
150
176
18
243
143
25
16
132
248
130
104
92

>  <PUBCHEM_MMFF94_PARTIAL_CHARGES>  (1) 
13
1 -0.56
11 0.36
12 -0.3
2 -0.56
22 0.15
26 0.15
27 0.15
3 -0.56
4 0.56
5 0.48
6 0.14
8 0.28
9 -0.29

>  <PUBCHEM_EFFECTIVE_ROTOR_COUNT>  (1) 
6

>  <PUBCHEM_PHARMACOPHORE_FEATURES>  (1) 
4
1 1 acceptor
1 12 hydrophobe
1 2 acceptor
1 3 acceptor

>  <PUBCHEM_HEAVY_ATOM_COUNT>  (1) 
12

>  <PUBCHEM_ATOM_DEF_STEREO_COUNT>  (1) 
0

>  <PUBCHEM_ATOM_UDEF_STEREO_COUNT>  (1) 
2

>  <PUBCHEM_BOND_DEF_STEREO_COUNT>  (1) 
0

>  <PUBCHEM_BOND_UDEF_STEREO_COUNT>  (1) 
0

>  <PUBCHEM_ISOTOPIC_ATOM_COUNT>  (1) 
0

>  <PUBCHEM_COMPONENT_COUNT>  (1) 
1

>  <PUBCHEM_CACTVS_TAUTO_COUNT>  (1) 
1

>  <PUBCHEM_CONFORMER_ID>  (1) 
0000AFB800000001

>  <PUBCHEM_MMFF94_ENERGY>  (1) 
15.2875

>  <PUBCHEM_FEATURE_SELFOVERLAP>  (1) 
20.335

>  <PUBCHEM_SHAPE_FINGERPRINT>  (1) 
10610426 29 16950832712889430338
108231 29 18187649166608960274
10857977 72 18412268337033717279
11132069 177 17989199373932199998
12382932 28 18339371777174728161
12759256 9 18198348540471536309
13380536 167 17335896163403209431
15375462 478 18333723616118364198
17844478 74 18272369746201811272
18380122 1 18201442419757203422
20671657 53 16153707639292504190
20871998 184 18343015566977365580
21061003 4 18342744035045188849
21650355 55 18334007281101206025
22959321 45 18126837429662096264
23402539 116 18266161878024346445
23557571 272 18339933597245990540
2748010 2 18199767851037862255
3250762 1 17838623249167399958
528862 383 17978234081923206621
5493415 88 18115307916072578011
58554843 112 17540830811668475827
58734985 188 18267589185329166705
5902787 121 18187937243187801027
81228 2 18121800334761415233

>  <PUBCHEM_SHAPE_MULTIPOLES>  (1) 
230.23
5.26
2.47
1.18
2.83
2.1
-0.12
-2.43
3.05
-0.92
-0.36
0.21
-0.68
0.59

>  <PUBCHEM_SHAPE_SELFOVERLAP>  (1) 
426.558

>  <PUBCHEM_SHAPE_VOLUME>  (1) 
143.3

>  <PUBCHEM_COORDINATE_TYPE>  (1) 
2
5
10

$$$$
