45006
     RDKit          3D

 17 17  0  0  0  0  0  0  0  0999 V2000
   -0.5986    1.5882   -0.6667 O   0  0  0  0  0  0  0  0  0  0  0  0
    0.8282   -1.1032   -2.1202 O   0  0  0  0  0  0  0  0  0  0  0  0
    1.2742    2.9014    0.9493 O   0  0  0  0  0  0  0  0  0  0  0  0
    1.6514   -0.9692    0.0636 N   0  0  0  0  0  0  0  0  0  0  0  0
    3.0541   -1.1447   -0.2855 C   0  0  0  0  0  0  0  0  0  0  0  0
    1.3701   -0.7997    1.4876 C   0  0  0  0  0  0  0  0  0  0  0  0
    0.6336   -0.9633   -0.9064 C   0  0  0  0  0  0  0  0  0  0  0  0
   -0.7476   -0.7985   -0.4753 C   0  0  0  0  0  0  0  0  0  0  0  0
   -1.3185    0.4698   -0.3698 C   0  0  0  0  0  0  0  0  0  0  0  0
    3.7238    0.1919   -0.5564 C   0  0  0  0  0  0  0  0  0  0  0  0
    1.1235   -2.1387    2.1617 C   0  0  0  0  0  0  0  0  0  0  0  0
   -1.5016   -1.9306   -0.1661 C   0  0  0  0  0  0  0  0  0  0  0  0
   -2.6434    0.6059    0.0450 C   0  0  0  0  0  0  0  0  0  0  0  0
   -2.8264   -1.7944    0.2487 C   0  0  0  0  0  0  0  0  0  0  0  0
   -3.3972   -0.5262    0.3543 C   0  0  0  0  0  0  0  0  0  0  0  0
   -0.9360    2.7813    0.0375 C   0  0  0  0  0  0  0  0  0  0  0  0
    0.3104    3.6301    0.1987 C   0  0  0  0  0  0  0  0  0  0  0  0
  1  9  1  0
  1 16  1  0
  2  7  2  0
  3 17  1  0
  4  5  1  0
  4  6  1  0
  4  7  1  0
  5 10  1  0
  6 11  1  0
  7  8  1  0
  8  9  2  0
  8 12  1  0
  9 13  1  0
 12 14  2  0
 13 15  2  0
 14 15  1  0
 16 17  1  0
M  END
>  <PUBCHEM_COMPOUND_CID>  (1) 
45006

>  <PUBCHEM_CONFORMER_RMSD>  (1) 
0.8

>  <PUBCHEM_CONFORMER_DIVERSEORDER>  (1) 
2
27
39
26
40
35
38
33
23
28
34
32
20
11
12
18
31
36
43
24
14
19
29
41
13
3
1
37
25
22
17
21
6
16
30
9
42
4
8
15
7
44
10
5

>  <PUBCHEM_MMFF94_PARTIAL_CHARGES>  (1) 
20
1 -0.36
12 -0.15
13 -0.15
14 -0.15
15 -0.15
16 0.28
17 0.28
2 -0.57
28 0.15
29 0.15
3 -0.68
30 0.15
31 0.15
36 0.4
4 -0.66
5 0.3
6 0.3
7 0.54
8 0.09
9 0.08

>  <PUBCHEM_EFFECTIVE_ROTOR_COUNT>  (1) 
7

>  <PUBCHEM_PHARMACOPHORE_FEATURES>  (1) 
5
1 1 acceptor
1 2 acceptor
1 3 acceptor
1 3 donor
6 8 9 12 13 14 15 rings

>  <PUBCHEM_HEAVY_ATOM_COUNT>  (1) 
17

>  <PUBCHEM_ATOM_DEF_STEREO_COUNT>  (1) 
0

>  <PUBCHEM_ATOM_UDEF_STEREO_COUNT>  (1) 
0

>  <PUBCHEM_BOND_DEF_STEREO_COUNT>  (1) 
0

>  <PUBCHEM_BOND_UDEF_STEREO_COUNT>  (1) 
0

>  <PUBCHEM_ISOTOPIC_ATOM_COUNT>  (1) 
0

>  <PUBCHEM_COMPONENT_COUNT>  (1) 
1

>  <PUBCHEM_CACTVS_TAUTO_COUNT>  (1) 
1

>  <PUBCHEM_CONFORMER_ID>  (1) 
0000AFCE00000002

>  <PUBCHEM_MMFF94_ENERGY>  (1) 
47.0795

>  <PUBCHEM_FEATURE_SELFOVERLAP>  (1) 
25.376

>  <PUBCHEM_SHAPE_FINGERPRINT>  (1) 
108231 29 18115884059849307402
11578080 2 17388506519287017143
14022349 108 18053397770666320681
14787075 74 17970358215751025302
14817 1 15589642020702422518
15076042 46 17901936453210562083
15375462 189 18040721355107196619
15490181 8 17328292555308109143
16945 1 18341038705195118871
19868273 325 18411415103167963319
20510252 161 18195249905992745893
20905425 154 18267591375757323533
22802520 49 17413038590903170366
23402539 116 18272081648259254815
23419403 2 18118100684197116285
23557571 272 18199201611149814382
23598294 1 18192993708148231299
25610 171 18124578808938892609
2748010 2 18269257110156243765
43471831 8 17330553657873218925
568465 68 17242766244419750667
7364860 26 18053668254832107797
81228 2 17980784661389987229

>  <PUBCHEM_SHAPE_MULTIPOLES>  (1) 
327.26
4.54
3.5
1.4
0.76
4.16
0.24
-1.63
-0.17
-0.03
1.06
0.82
-0.79
-0.04

>  <PUBCHEM_SHAPE_SELFOVERLAP>  (1) 
660.383

>  <PUBCHEM_SHAPE_VOLUME>  (1) 
192.2

>  <PUBCHEM_COORDINATE_TYPE>  (1) 
2
5
10

$$$$
