45003
     RDKit          3D

 17 18  0  0  0  0  0  0  0  0999 V2000
    1.7183   -2.8246    0.1748 Cl  0  0  0  0  0  0  0  0  0  0  0  0
    2.9017    2.5050   -0.1738 Cl  0  0  0  0  0  0  0  0  0  0  0  0
   -2.3447    1.8776    0.4974 O   0  0  0  0  0  0  0  0  0  0  0  0
    4.4147    0.4936   -0.0889 O   0  0  0  0  0  0  0  0  0  0  0  0
    3.9399   -1.6451    0.0513 O   0  0  0  0  0  0  0  0  0  0  0  0
   -2.8218   -0.1895   -0.4347 N   0  0  0  0  0  0  0  0  0  0  0  0
    3.5911   -0.4451   -0.0122 N   0  0  0  0  0  0  0  0  0  0  0  0
   -4.2490   -0.0263   -0.4596 C   0  0  0  0  0  0  0  0  0  0  0  0
   -5.1533   -1.2149   -0.4599 C   0  0  0  0  0  0  0  0  0  0  0  0
   -5.0716   -0.3303    0.7496 C   0  0  0  0  0  0  0  0  0  0  0  0
   -1.9444    0.7882    0.0500 C   0  0  0  0  0  0  0  0  0  0  0  0
   -0.5249    0.4718    0.0312 C   0  0  0  0  0  0  0  0  0  0  0  0
    0.4172    1.4971   -0.0513 C   0  0  0  0  0  0  0  0  0  0  0  0
   -0.1056   -0.8568    0.1002 C   0  0  0  0  0  0  0  0  0  0  0  0
    1.2559   -1.1600    0.0867 C   0  0  0  0  0  0  0  0  0  0  0  0
    1.7786    1.1938   -0.0650 C   0  0  0  0  0  0  0  0  0  0  0  0
    2.1979   -0.1347    0.0041 C   0  0  0  0  0  0  0  0  0  0  0  0
  1 15  1  0
  2 16  1  0
  3 11  2  0
  4  7  1  0
  5  7  2  0
  6  8  1  0
  6 11  1  0
  7 17  1  0
  8  9  1  0
  8 10  1  0
  9 10  1  0
 11 12  1  0
 12 13  2  0
 12 14  1  0
 13 16  1  0
 14 15  2  0
 15 17  1  0
 16 17  2  0
M  CHG  2   4  -1   7   1
M  END
>  <PUBCHEM_COMPOUND_CID>  (1) 
45003

>  <PUBCHEM_CONFORMER_RMSD>  (1) 
0.6

>  <PUBCHEM_CONFORMER_DIVERSEORDER>  (1) 
1
3
2

>  <PUBCHEM_MMFF94_PARTIAL_CHARGES>  (1) 
25
1 -0.18
10 -0.2
11 0.54
12 0.09
13 -0.15
14 -0.15
15 0.18
16 0.18
17 0.13
18 0.1
19 0.1
2 -0.18
20 0.1
21 0.1
22 0.1
23 0.37
24 0.15
25 0.15
3 -0.57
4 -0.52
5 -0.52
6 -0.58
7 0.91
8 0.05
9 -0.2

>  <PUBCHEM_EFFECTIVE_ROTOR_COUNT>  (1) 
4.6

>  <PUBCHEM_PHARMACOPHORE_FEATURES>  (1) 
6
1 3 acceptor
1 4 acceptor
1 4 anion
1 5 acceptor
1 6 donor
6 12 13 14 15 16 17 rings

>  <PUBCHEM_HEAVY_ATOM_COUNT>  (1) 
17

>  <PUBCHEM_ATOM_DEF_STEREO_COUNT>  (1) 
0

>  <PUBCHEM_ATOM_UDEF_STEREO_COUNT>  (1) 
0

>  <PUBCHEM_BOND_DEF_STEREO_COUNT>  (1) 
0

>  <PUBCHEM_BOND_UDEF_STEREO_COUNT>  (1) 
0

>  <PUBCHEM_ISOTOPIC_ATOM_COUNT>  (1) 
0

>  <PUBCHEM_COMPONENT_COUNT>  (1) 
1

>  <PUBCHEM_CACTVS_TAUTO_COUNT>  (1) 
2

>  <PUBCHEM_CONFORMER_ID>  (1) 
0000AFCB00000001

>  <PUBCHEM_MMFF94_ENERGY>  (1) 
66.1473

>  <PUBCHEM_FEATURE_SELFOVERLAP>  (1) 
30.527

>  <PUBCHEM_SHAPE_FINGERPRINT>  (1) 
10616163 171 18342738542204614695
10967382 1 18410011057137096452
11471102 20 18408884057264971484
11806522 49 18409729551752749415
12032990 46 18410856521032556750
12107183 9 17766005991638058641
12236239 1 17846221076515795489
13140716 1 18266451199584663986
13167823 11 18342457054221111031
13690532 89 18409446968669240554
13760787 5 18341891926940855853
13836976 161 18334577983570927454
13862211 1 18336825299966620298
14178342 30 18124866868158724528
14251717 144 18409448089761193414
14252887 29 17846223228189006902
14576447 43 18412257350676445703
15196674 1 18410855417257779028
15375462 189 18130784577589675219
15477762 27 18410292484689896822
16945 1 18336835191085989600
17862501 102 18411696565053881379
18186145 218 17603298255141615777
200 152 18342174471221868289
20028762 73 18272926146019968118
20645477 70 18334573564107569199
21267235 1 18340212903633741406
221490 88 18335707156432805339
2255824 54 18409451409876557732
22959321 4 18410292501716856577
23402539 116 18413101762932334581
23402655 69 18410289186424129981
23559900 14 18409161117120816513
26918003 58 18333450954709957083
2748010 2 18191317176544270250
2871803 45 18334008376623866791
29717793 49 18060416920191744397
3286 77 18334856099962457220
33824 294 18408038528902920810
42630746 31 18340764940001157148
5104073 3 18340484461187756793
58051976 378 18412544314510616831
602551 16 15554151684076159287
6333272 397 18409447020425113080
7364860 26 18412543228089450184
9709674 26 18409173177700739603
9999458 23 18333731355607324750

>  <PUBCHEM_SHAPE_MULTIPOLES>  (1) 
326.02
9.51
2.39
0.68
9.52
0.43
0.02
1.58
-0.25
-2.34
0.08
0.37
0
-0.37

>  <PUBCHEM_SHAPE_SELFOVERLAP>  (1) 
675.149

>  <PUBCHEM_SHAPE_VOLUME>  (1) 
187.9

>  <PUBCHEM_COORDINATE_TYPE>  (1) 
2
5
10

$$$$
