45015
     RDKit          3D

 15 15  0  0  0  0  0  0  0  0999 V2000
    4.3182    1.3768   -0.5761 Br  0  0  0  0  0  0  0  0  0  0  0  0
   -1.5404    0.5602    0.6577 O   0  0  0  0  0  0  0  0  0  0  0  0
   -3.6559    0.2746   -1.1551 O   0  0  0  0  0  0  0  0  0  0  0  0
   -1.1635   -1.8829   -0.3200 O   0  0  0  0  0  0  0  0  0  0  0  0
    0.8989   -2.7642    0.2622 N   0  0  0  0  0  0  0  0  0  0  0  0
    0.5858   -0.3600    0.0348 C   0  0  0  0  0  0  0  0  0  0  0  0
   -0.2174    0.7280    0.3767 C   0  0  0  0  0  0  0  0  0  0  0  0
   -2.4095    1.6499    0.3568 C   0  0  0  0  0  0  0  0  0  0  0  0
    1.9378   -0.1669   -0.2492 C   0  0  0  0  0  0  0  0  0  0  0  0
    0.3315    2.0091    0.4346 C   0  0  0  0  0  0  0  0  0  0  0  0
    0.0323   -1.7054   -0.0313 C   0  0  0  0  0  0  0  0  0  0  0  0
    2.4865    1.1142   -0.1914 C   0  0  0  0  0  0  0  0  0  0  0  0
    1.6834    2.2022    0.1506 C   0  0  0  0  0  0  0  0  0  0  0  0
   -3.7774    1.1057   -0.0072 C   0  0  0  0  0  0  0  0  0  0  0  0
    0.4898   -4.1414    0.2571 C   0  0  0  0  0  0  0  0  0  0  0  0
  1 12  1  0
  2  7  1  0
  2  8  1  0
  3 14  1  0
  4 11  2  0
  5 11  1  0
  5 15  1  0
  6  7  2  0
  6  9  1  0
  6 11  1  0
  7 10  1  0
  8 14  1  0
  9 12  2  0
 10 13  2  0
 12 13  1  0
M  END
>  <PUBCHEM_COMPOUND_CID>  (1) 
45015

>  <PUBCHEM_CONFORMER_RMSD>  (1) 
0.6

>  <PUBCHEM_CONFORMER_DIVERSEORDER>  (1) 
8
50
55
59
47
19
56
37
38
54
39
57
27
31
48
58
12
5
43
42
21
49
10
24
33
18
20
40
52
36
29
1
4
17
35
14
2
26
16
3
53
34
32
11
45
44
13
28
7
46
25
30
9
15
51
6
22
41
23

>  <PUBCHEM_MMFF94_PARTIAL_CHARGES>  (1) 
20
1 -0.11
10 -0.15
11 0.54
12 0.11
13 -0.15
14 0.28
15 0.3
18 0.15
19 0.15
2 -0.36
20 0.15
23 0.37
27 0.4
3 -0.68
4 -0.57
5 -0.73
6 0.09
7 0.08
8 0.28
9 -0.15

>  <PUBCHEM_EFFECTIVE_ROTOR_COUNT>  (1) 
5

>  <PUBCHEM_PHARMACOPHORE_FEATURES>  (1) 
7
1 1 hydrophobe
1 2 acceptor
1 3 acceptor
1 3 donor
1 4 acceptor
1 5 donor
6 6 7 9 10 12 13 rings

>  <PUBCHEM_HEAVY_ATOM_COUNT>  (1) 
15

>  <PUBCHEM_ATOM_DEF_STEREO_COUNT>  (1) 
0

>  <PUBCHEM_ATOM_UDEF_STEREO_COUNT>  (1) 
0

>  <PUBCHEM_BOND_DEF_STEREO_COUNT>  (1) 
0

>  <PUBCHEM_BOND_UDEF_STEREO_COUNT>  (1) 
0

>  <PUBCHEM_ISOTOPIC_ATOM_COUNT>  (1) 
0

>  <PUBCHEM_COMPONENT_COUNT>  (1) 
1

>  <PUBCHEM_CACTVS_TAUTO_COUNT>  (1) 
2

>  <PUBCHEM_CONFORMER_ID>  (1) 
0000AFD700000008

>  <PUBCHEM_MMFF94_ENERGY>  (1) 
41.6067

>  <PUBCHEM_FEATURE_SELFOVERLAP>  (1) 
35.533

>  <PUBCHEM_SHAPE_FINGERPRINT>  (1) 
1 1 18410014299468399725
10967382 1 18339365154150632216
12553582 1 17474959722931430443
13052359 8 18265050413233638066
13380535 76 18343306989567923076
14911166 2 18342184388185946972
16945 1 18265343806406946104
19021347 11 18339359669498526633
193761 8 17763749088876373528
19591789 44 18338525243052092154
20602899 9 15482403035768328516
20645476 183 18042706051094556700
20645477 70 18191017907824280185
20711985 365 17977950408060241020
21499 59 18408323289276600245
21524375 3 18343303669210160532
23114952 82 17898843544218505589
2334 1 18339931510208395514
23388829 49 17980473464938771554
23402539 116 18272931622435215812
23402655 69 18342454799448371805
23419403 2 17393653178408143570
25 1 18409166593389040405
257057 1 17399794899952518314
2748010 2 18266480813373522642
298252 57 18335143119884294040
3060560 45 18408599262352842605
3071541 236 18267013050057982544
3071541 37 18335989653295240757
3084891 72 18412829084096274592
3250762 1 17694218181122720328
3759504 43 17968950802391926008
458136 41 18337405841604627241
54173680 148 17978797040650893032
58779409 54 18053098712172355204
58779409 8 18264779924762113398
6338986 31 17545595661081870299
7364860 26 18194965140844200826
81228 2 17691402340301350273
81539 233 18187928339472578853

>  <PUBCHEM_SHAPE_MULTIPOLES>  (1) 
292.05
5.54
3.81
0.77
0.3
5.63
0.09
-4.55
1.64
-0.22
-0.54
-0.18
-0.11
-0.15

>  <PUBCHEM_SHAPE_SELFOVERLAP>  (1) 
585.117

>  <PUBCHEM_SHAPE_VOLUME>  (1) 
176.5

>  <PUBCHEM_COORDINATE_TYPE>  (1) 
2
5
10

$$$$
