45021
     RDKit          3D

 24 24  0  0  0  0  0  0  0  0999 V2000
    1.3121   -1.0486   -0.5620 O   0  0  0  0  0  0  0  0  0  0  0  0
    3.6248   -1.7321    0.7901 O   0  0  0  0  0  0  0  0  0  0  0  0
    0.0398    2.7212   -0.6679 O   0  0  0  0  0  0  0  0  0  0  0  0
    0.1553    0.7899   -1.9475 N   0  0  0  0  0  0  0  0  0  0  0  0
   -2.4824    1.0832   -0.8203 N   0  0  0  0  0  0  0  0  0  0  0  0
   -0.4978   -2.6153   -0.4194 C   0  0  0  0  0  0  0  0  0  0  0  0
    0.2820   -1.5244    0.3007 C   0  0  0  0  0  0  0  0  0  0  0  0
   -1.6313   -3.1613    0.4441 C   0  0  0  0  0  0  0  0  0  0  0  0
   -3.6901    1.3319    1.2471 C   0  0  0  0  0  0  0  0  0  0  0  0
    2.1281   -0.0720   -0.0710 C   0  0  0  0  0  0  0  0  0  0  0  0
    1.8255    1.2650   -0.2329 C   0  0  0  0  0  0  0  0  0  0  0  0
   -1.0091    1.0470   -2.7511 C   0  0  0  0  0  0  0  0  0  0  0  0
   -3.0236    0.4990    2.3391 C   0  0  0  0  0  0  0  0  0  0  0  0
   -3.5097    0.7176   -0.1300 C   0  0  0  0  0  0  0  0  0  0  0  0
   -2.2689    0.4753   -2.1244 C   0  0  0  0  0  0  0  0  0  0  0  0
    0.5903    1.6619   -0.9567 C   0  0  0  0  0  0  0  0  0  0  0  0
    3.2933   -0.4231    0.6108 C   0  0  0  0  0  0  0  0  0  0  0  0
   -2.4343   -4.2199   -0.2947 C   0  0  0  0  0  0  0  0  0  0  0  0
    2.6398    2.2662    0.2585 C   0  0  0  0  0  0  0  0  0  0  0  0
    4.1317    0.5705    1.1164 C   0  0  0  0  0  0  0  0  0  0  0  0
   -3.1864    1.1067    3.7250 C   0  0  0  0  0  0  0  0  0  0  0  0
   -4.5212   -0.3120   -0.5750 C   0  0  0  0  0  0  0  0  0  0  0  0
    3.8049    1.9151    0.9402 C   0  0  0  0  0  0  0  0  0  0  0  0
    4.4271   -2.3417   -0.2193 C   0  0  0  0  0  0  0  0  0  0  0  0
  1  7  1  0
  1 10  1  0
  2 17  1  0
  2 24  1  0
  3 16  2  0
  4 12  1  0
  4 16  1  0
  5 14  2  0
  5 15  1  0
  6  7  1  0
  6  8  1  0
  8 18  1  0
  9 13  1  0
  9 14  1  0
 10 11  2  0
 10 17  1  0
 11 16  1  0
 11 19  1  0
 12 15  1  0
 13 21  1  0
 14 22  1  0
 17 20  2  0
 19 23  2  0
 20 23  1  0
M  END
>  <PUBCHEM_COMPOUND_CID>  (1) 
45021

>  <PUBCHEM_CONFORMER_RMSD>  (1) 
1

>  <PUBCHEM_CONFORMER_DIVERSEORDER>  (1) 
1
57
117
137
210
77
114
182
19
108
94
180
135
205
115
195
188
286
264
118
237
260
284
187
287
38
31
116
273
282
258
224
78
225
40
168
290
261
141
159
98
295
11
81
259
28
201
252
164
97
177
242
298
107
274
95
106
64
136
255
221
251
280
172
262
281
209
15
103
21
275
33
59
161
24
233
167
3
134
213
176
301
20
249
113
276
186
238
158
285
296
41
37
193
92
130
152
83
54
283
129
165
244
102
181
277
73
215
32
178
126
39
256
239
109
62
72
202
293
267
246
46
142
16
228
271
150
206
123
124
68
203
27
212
292
156
76
157
288
143
101
14
223
112
297
166
2
226
91
5
227
132
146
190
217
36
191
110
234
291
89
10
128
23
174
4
82
207
127
88
232
194
243
162
204
58
236
250
99
13
247
84
300
235
253
155
257
86
140
148
170
42
175
121
160
6
220
185
272
208
100
60
173
29
222
111
219
48
75
90
231
66
47
278
169
144
266
80
214
79
211
44
49
145
22
184
56
67
53
192
17
125
270
61
12
51
138
147
230
198
104
183
163
196
263
120
149
197
70
200
7
74
269
154
71
265
171
65
294
105
18
189
133
52
34
254
153
289
55
216
299
248
119
241
96
139
45
179
63
122
35
87
26
151
279
199
9
245
240
218
8
25
268
131
93
69
229
50
43
85
30

>  <PUBCHEM_MMFF94_PARTIAL_CHARGES>  (1) 
23
1 -0.36
10 0.08
11 0.09
12 0.3
14 0.33
15 0.25
16 0.54
17 0.08
19 -0.15
2 -0.36
20 -0.15
22 0.06
23 -0.15
24 0.28
3 -0.57
39 0.37
4 -0.73
43 0.15
47 0.15
5 -0.7
51 0.15
7 0.28
9 0.06

>  <PUBCHEM_EFFECTIVE_ROTOR_COUNT>  (1) 
12

>  <PUBCHEM_PHARMACOPHORE_FEATURES>  (1) 
8
1 1 acceptor
1 18 hydrophobe
1 2 acceptor
1 21 hydrophobe
1 3 acceptor
1 4 donor
1 5 acceptor
6 10 11 17 19 20 23 rings

>  <PUBCHEM_HEAVY_ATOM_COUNT>  (1) 
24

>  <PUBCHEM_ATOM_DEF_STEREO_COUNT>  (1) 
0

>  <PUBCHEM_ATOM_UDEF_STEREO_COUNT>  (1) 
0

>  <PUBCHEM_BOND_DEF_STEREO_COUNT>  (1) 
0

>  <PUBCHEM_BOND_UDEF_STEREO_COUNT>  (1) 
0

>  <PUBCHEM_ISOTOPIC_ATOM_COUNT>  (1) 
0

>  <PUBCHEM_COMPONENT_COUNT>  (1) 
1

>  <PUBCHEM_CACTVS_TAUTO_COUNT>  (1) 
2

>  <PUBCHEM_CONFORMER_ID>  (1) 
0000AFDD00000001

>  <PUBCHEM_MMFF94_ENERGY>  (1) 
63.8229

>  <PUBCHEM_FEATURE_SELFOVERLAP>  (1) 
40.602

>  <PUBCHEM_SHAPE_FINGERPRINT>  (1) 
10064457 181 18411993454979577033
10366900 7 17240762826886023219
11370993 70 18411130330041322137
11552529 35 18057318590260311190
12390115 104 17907296908116186248
12422481 6 18115892826853596139
12596599 1 18059574650834028671
12633257 1 18270971137014225842
13140716 1 18336528504815041658
13583140 156 17130984433684639338
14341114 328 17775290478171037561
14787075 74 17916290801387183599
15209289 33 18270112392879504310
19591789 44 18048588219170642326
20261772 1 18113613525345760406
3380486 145 18114742741189324000
81228 2 17896873459752083878

>  <PUBCHEM_SHAPE_MULTIPOLES>  (1) 
466.34
8.24
3.73
2.44
2.04
4.17
-0.92
-0.27
-3.59
-0.61
-0.19
-3.09
-1.7
-0.68

>  <PUBCHEM_SHAPE_SELFOVERLAP>  (1) 
929.142

>  <PUBCHEM_SHAPE_VOLUME>  (1) 
277

>  <PUBCHEM_COORDINATE_TYPE>  (1) 
2
5
10

$$$$
