45036
     RDKit          3D

 15 16  0  0  0  0  0  0  0  0999 V2000
    2.1477    3.1864   -0.1806 Br  0  0  0  0  0  0  0  0  0  0  0  0
    3.6921   -2.3580    0.2061 Br  0  0  0  0  0  0  0  0  0  0  0  0
   -1.6879   -1.9063   -0.4859 O   0  0  0  0  0  0  0  0  0  0  0  0
   -2.2840    0.1486    0.4081 N   0  0  0  0  0  0  0  0  0  0  0  0
    4.0954    0.7430    0.0352 N   0  0  0  0  0  0  0  0  0  0  0  0
   -3.7062   -0.1012    0.4685 C   0  0  0  0  0  0  0  0  0  0  0  0
   -4.6725    1.0318    0.4603 C   0  0  0  0  0  0  0  0  0  0  0  0
   -4.5620    0.1240   -0.7294 C   0  0  0  0  0  0  0  0  0  0  0  0
   -1.3548   -0.7819   -0.0713 C   0  0  0  0  0  0  0  0  0  0  0  0
    0.0456   -0.3901   -0.0450 C   0  0  0  0  0  0  0  0  0  0  0  0
    1.0404   -1.3636    0.0490 C   0  0  0  0  0  0  0  0  0  0  0  0
    0.3940    0.9589   -0.1126 C   0  0  0  0  0  0  0  0  0  0  0  0
    1.7370    1.3347   -0.0863 C   0  0  0  0  0  0  0  0  0  0  0  0
    2.3835   -0.9876    0.0758 C   0  0  0  0  0  0  0  0  0  0  0  0
    2.7318    0.3615    0.0080 C   0  0  0  0  0  0  0  0  0  0  0  0
  1 13  1  0
  2 14  1  0
  3  9  2  0
  4  6  1  0
  4  9  1  0
  5 15  1  0
  6  7  1  0
  6  8  1  0
  7  8  1  0
  9 10  1  0
 10 11  2  0
 10 12  1  0
 11 14  1  0
 12 13  2  0
 13 15  1  0
 14 15  2  0
M  END
>  <PUBCHEM_COMPOUND_CID>  (1) 
45036

>  <PUBCHEM_CONFORMER_RMSD>  (1) 
0.6

>  <PUBCHEM_CONFORMER_DIVERSEORDER>  (1) 
1
2
3

>  <PUBCHEM_MMFF94_PARTIAL_CHARGES>  (1) 
25
1 -0.11
10 0.09
11 -0.15
12 -0.15
13 0.11
14 0.11
15 0.1
16 0.1
17 0.1
18 0.1
19 0.1
2 -0.11
20 0.1
21 0.37
22 0.15
23 0.15
24 0.4
25 0.4
3 -0.57
4 -0.58
5 -0.9
6 0.05
7 -0.2
8 -0.2
9 0.54

>  <PUBCHEM_EFFECTIVE_ROTOR_COUNT>  (1) 
3.6

>  <PUBCHEM_PHARMACOPHORE_FEATURES>  (1) 
7
1 1 hydrophobe
1 2 hydrophobe
1 3 acceptor
1 4 donor
1 5 cation
1 5 donor
6 10 11 12 13 14 15 rings

>  <PUBCHEM_HEAVY_ATOM_COUNT>  (1) 
15

>  <PUBCHEM_ATOM_DEF_STEREO_COUNT>  (1) 
0

>  <PUBCHEM_ATOM_UDEF_STEREO_COUNT>  (1) 
0

>  <PUBCHEM_BOND_DEF_STEREO_COUNT>  (1) 
0

>  <PUBCHEM_BOND_UDEF_STEREO_COUNT>  (1) 
0

>  <PUBCHEM_ISOTOPIC_ATOM_COUNT>  (1) 
0

>  <PUBCHEM_COMPONENT_COUNT>  (1) 
1

>  <PUBCHEM_CACTVS_TAUTO_COUNT>  (1) 
3

>  <PUBCHEM_CONFORMER_ID>  (1) 
0000AFEC00000001

>  <PUBCHEM_MMFF94_ENERGY>  (1) 
48.7796

>  <PUBCHEM_FEATURE_SELFOVERLAP>  (1) 
35.52

>  <PUBCHEM_SHAPE_FINGERPRINT>  (1) 
10465860 228 18410296951303150680
10608611 8 18335421322164509409
10980938 120 18409449180461281995
11471102 20 18409164398470594750
12346645 6 18342177760955969958
12507560 14 18271241612680009046
13134695 92 18409445852030679764
13140716 1 18192988451440940536
13675066 3 18040719177426707051
13922767 16 18409448098229984121
14178342 30 18124574617325651218
14790565 3 18119819251242952204
14897335 6 18341891939350951847
15196674 1 18411137996447240689
15442244 35 18340207384199540641
16945 1 18337103575107740692
18186145 218 18413111637062115495
20645477 70 18410573946550129727
20671657 1 18410859892650696349
20871998 22 18125724478965892206
21478907 32 17760929546062836666
21501502 16 18267018555884211487
23402539 116 17774713169883430725
23402655 69 18271803502193304717
23557571 272 13901918786722102683
23559900 14 18342737412321903314
2748010 2 17614288088630583870
3060560 45 18059864956537975518
3071541 12 18338238288187520764
34934 24 18413103987757159142
474 4 18191584353100651032
5104073 3 18411420609553570331
58051976 100 18339643455236481095
7364860 26 18412265060369341780
7832392 63 18341330093066858678
84936 182 17984418804685924952
9709674 26 18337114565681806963
9971528 1 18342452604455553298
9981440 41 17762328519810979232

>  <PUBCHEM_SHAPE_MULTIPOLES>  (1) 
304.75
8.57
2.7
0.71
8.87
1.46
0.01
-0.27
-0.34
-3.46
0.12
0.27
0
-0.4

>  <PUBCHEM_SHAPE_SELFOVERLAP>  (1) 
610.622

>  <PUBCHEM_SHAPE_VOLUME>  (1) 
185.9

>  <PUBCHEM_COORDINATE_TYPE>  (1) 
2
5
10

$$$$
