45038
     RDKit          3D

 15 16  0  0  0  0  0  0  0  0999 V2000
   -0.4217   -2.6829    0.0230 Cl  0  0  0  0  0  0  0  0  0  0  0  0
   -2.9032    3.0488   -0.0171 Cl  0  0  0  0  0  0  0  0  0  0  0  0
    1.4427   -0.8157   -1.6235 O   0  0  0  0  0  0  0  0  0  0  0  0
    2.0024    0.5749    0.1456 N   0  0  0  0  0  0  0  0  0  0  0  0
   -3.2897   -2.0042    0.6668 N   0  0  0  0  0  0  0  0  0  0  0  0
    3.4304    0.5626   -0.0768 C   0  0  0  0  0  0  0  0  0  0  0  0
    4.2704   -0.5377    0.4722 C   0  0  0  0  0  0  0  0  0  0  0  0
    4.3696    0.8463    1.0437 C   0  0  0  0  0  0  0  0  0  0  0  0
    1.0929   -0.1242   -0.6531 C   0  0  0  0  0  0  0  0  0  0  0  0
   -0.3193    0.0088   -0.3144 C   0  0  0  0  0  0  0  0  0  0  0  0
   -1.1118   -1.0916    0.0122 C   0  0  0  0  0  0  0  0  0  0  0  0
   -0.8732    1.2892   -0.3236 C   0  0  0  0  0  0  0  0  0  0  0  0
   -2.4581   -0.9119    0.3300 C   0  0  0  0  0  0  0  0  0  0  0  0
   -2.2196    1.4691   -0.0061 C   0  0  0  0  0  0  0  0  0  0  0  0
   -3.0119    0.3685    0.3211 C   0  0  0  0  0  0  0  0  0  0  0  0
  1 11  1  0
  2 14  1  0
  3  9  2  0
  4  6  1  0
  4  9  1  0
  5 13  1  0
  6  7  1  0
  6  8  1  0
  7  8  1  0
  9 10  1  0
 10 11  2  0
 10 12  1  0
 11 13  1  0
 12 14  2  0
 13 15  2  0
 14 15  1  0
M  END
>  <PUBCHEM_COMPOUND_CID>  (1) 
45038

>  <PUBCHEM_CONFORMER_RMSD>  (1) 
0.6

>  <PUBCHEM_CONFORMER_DIVERSEORDER>  (1) 
1
2
4
3
5

>  <PUBCHEM_MMFF94_PARTIAL_CHARGES>  (1) 
25
1 -0.18
10 0.09
11 0.18
12 -0.15
13 0.1
14 0.18
15 -0.15
16 0.1
17 0.1
18 0.1
19 0.1
2 -0.18
20 0.1
21 0.37
22 0.15
23 0.15
24 0.4
25 0.4
3 -0.57
4 -0.58
5 -0.9
6 0.05
7 -0.2
8 -0.2
9 0.54

>  <PUBCHEM_EFFECTIVE_ROTOR_COUNT>  (1) 
3.6

>  <PUBCHEM_PHARMACOPHORE_FEATURES>  (1) 
5
1 3 acceptor
1 4 donor
1 5 cation
1 5 donor
6 10 11 12 13 14 15 rings

>  <PUBCHEM_HEAVY_ATOM_COUNT>  (1) 
15

>  <PUBCHEM_ATOM_DEF_STEREO_COUNT>  (1) 
0

>  <PUBCHEM_ATOM_UDEF_STEREO_COUNT>  (1) 
0

>  <PUBCHEM_BOND_DEF_STEREO_COUNT>  (1) 
0

>  <PUBCHEM_BOND_UDEF_STEREO_COUNT>  (1) 
0

>  <PUBCHEM_ISOTOPIC_ATOM_COUNT>  (1) 
0

>  <PUBCHEM_COMPONENT_COUNT>  (1) 
1

>  <PUBCHEM_CACTVS_TAUTO_COUNT>  (1) 
2

>  <PUBCHEM_CONFORMER_ID>  (1) 
0000AFEE00000001

>  <PUBCHEM_MMFF94_ENERGY>  (1) 
49.582

>  <PUBCHEM_FEATURE_SELFOVERLAP>  (1) 
25.371

>  <PUBCHEM_SHAPE_FINGERPRINT>  (1) 
10608611 8 18343864390249758284
11132069 177 18130513032065740919
11543360 7 10447635938183763520
12077114 3 18412540990184629196
122479 349 18271520901618937052
12251169 10 18338232790655541212
12507560 40 18343295981920138752
12892183 10 18336538400429968586
13214271 11 18272366481736834405
13296909 8 18335135401574835781
13380535 76 18265612091913539621
13581323 91 18335422417265066910
14178342 30 18189064122389176963
14420673 8 18047185251335290730
14614273 12 18188206499288451309
15042514 8 18264775526837525531
15219456 202 18131357366986163254
16945 1 18263381238924336829
1741750 31 18268995280528763081
1813 80 16371292104785591606
18186145 218 17987531316076966932
19049666 15 18129112121255635302
19422 9 17967252009824796664
20510252 161 18342741831489654393
20645464 45 18272938210581997815
20645477 56 18339086969293404749
20645477 70 13912314690716825200
20871998 184 18341898540599823399
21065199 12 18412257351045347248
212916 134 18197476472958126192
21524375 3 18199459970227863989
21650355 55 18265050426034182971
22079108 93 15267063717490805719
2306618 200 18273502264616535697
23402539 116 18270672190601483943
23419403 2 15192433322368340927
23557571 272 18270978872298078197
23559900 14 18196948673512960158
23598291 2 17603878814202481956
257057 1 17619624026591537455
2748010 2 18267885894765717175
305870 269 18264487273953398587
3086196 2 18334573585513756065
43471831 8 18260264127148690546
5104073 3 18410005521182839192
5706482 22 18336257955844417059
58807428 26 18263084322960117627
7097593 13 18115015321715565034
7364860 26 17836647426825098863
7615 1 17603881025752053796
77492 1 17240776094050452724
81228 2 18263666046774628609
84936 182 17549536315030279113
90316 7 17822285747935856012

>  <PUBCHEM_SHAPE_MULTIPOLES>  (1) 
296.6
7.17
2.62
0.91
7.49
0.01
0.15
-2.22
-2.18
-3.01
-0.18
0.44
0.09
0.63

>  <PUBCHEM_SHAPE_SELFOVERLAP>  (1) 
605.904

>  <PUBCHEM_SHAPE_VOLUME>  (1) 
173.3

>  <PUBCHEM_COORDINATE_TYPE>  (1) 
2
5
10

$$$$
