45050
     RDKit          3D

 19 20  0  0  0  0  0  0  0  0999 V2000
    0.5114    1.0855    0.6483 O   0  0  0  0  0  0  0  0  0  0  0  0
    3.6901    0.9607   -0.4724 O   0  0  0  0  0  0  0  0  0  0  0  0
    0.5538    1.8221   -1.5734 O   0  0  0  0  0  0  0  0  0  0  0  0
    3.6667    0.1859    1.6857 N   0  0  0  0  0  0  0  0  0  0  0  0
   -0.3321   -1.0245   -0.1083 C   0  0  0  0  0  0  0  0  0  0  0  0
    0.7395   -0.1855    0.2036 C   0  0  0  0  0  0  0  0  0  0  0  0
   -1.6991   -0.5721    0.0309 C   0  0  0  0  0  0  0  0  0  0  0  0
    2.0498   -0.6425    0.0624 C   0  0  0  0  0  0  0  0  0  0  0  0
   -0.0884   -2.3223   -0.5622 C   0  0  0  0  0  0  0  0  0  0  0  0
    2.2910   -1.9394   -0.3910 C   0  0  0  0  0  0  0  0  0  0  0  0
    1.2220   -2.7795   -0.7037 C   0  0  0  0  0  0  0  0  0  0  0  0
   -2.3751   -0.7557    1.2372 C   0  0  0  0  0  0  0  0  0  0  0  0
   -2.3414    0.0475   -1.0412 C   0  0  0  0  0  0  0  0  0  0  0  0
    3.1827    0.2154    0.3822 C   0  0  0  0  0  0  0  0  0  0  0  0
   -3.6933   -0.3194    1.3716 C   0  0  0  0  0  0  0  0  0  0  0  0
   -3.6596    0.4836   -0.9068 C   0  0  0  0  0  0  0  0  0  0  0  0
   -4.3356    0.3006    0.2996 C   0  0  0  0  0  0  0  0  0  0  0  0
    0.4344    2.0415   -0.3752 C   0  0  0  0  0  0  0  0  0  0  0  0
    0.1831    3.3983    0.2128 C   0  0  0  0  0  0  0  0  0  0  0  0
  1  6  1  0
  1 18  1  0
  2 14  2  0
  3 18  2  0
  4 14  1  0
  5  6  2  0
  5  7  1  0
  5  9  1  0
  6  8  1  0
  7 12  2  0
  7 13  1  0
  8 10  2  0
  8 14  1  0
  9 11  2  0
 10 11  1  0
 12 15  1  0
 13 16  2  0
 15 17  2  0
 16 17  1  0
 18 19  1  0
M  END
>  <PUBCHEM_COMPOUND_CID>  (1) 
45050

>  <PUBCHEM_CONFORMER_RMSD>  (1) 
0.6

>  <PUBCHEM_CONFORMER_DIVERSEORDER>  (1) 
1
23
19
25
16
15
9
7
13
14
24
8
22
21
6
10
11
12
18
5
17
20
2
4
3

>  <PUBCHEM_MMFF94_PARTIAL_CHARGES>  (1) 
27
1 -0.23
10 -0.15
11 -0.15
12 -0.15
13 -0.15
14 0.54
15 -0.15
16 -0.15
17 -0.15
18 0.66
19 0.06
2 -0.57
20 0.15
21 0.15
22 0.15
23 0.15
24 0.15
25 0.15
26 0.15
27 0.15
28 0.37
29 0.37
3 -0.57
4 -0.8
6 0.08
8 0.09
9 -0.15

>  <PUBCHEM_EFFECTIVE_ROTOR_COUNT>  (1) 
4

>  <PUBCHEM_PHARMACOPHORE_FEATURES>  (1) 
5
1 2 acceptor
1 3 acceptor
1 4 donor
6 5 6 8 9 10 11 rings
6 7 12 13 15 16 17 rings

>  <PUBCHEM_HEAVY_ATOM_COUNT>  (1) 
19

>  <PUBCHEM_ATOM_DEF_STEREO_COUNT>  (1) 
0

>  <PUBCHEM_ATOM_UDEF_STEREO_COUNT>  (1) 
0

>  <PUBCHEM_BOND_DEF_STEREO_COUNT>  (1) 
0

>  <PUBCHEM_BOND_UDEF_STEREO_COUNT>  (1) 
0

>  <PUBCHEM_ISOTOPIC_ATOM_COUNT>  (1) 
0

>  <PUBCHEM_COMPONENT_COUNT>  (1) 
1

>  <PUBCHEM_CACTVS_TAUTO_COUNT>  (1) 
2

>  <PUBCHEM_CONFORMER_ID>  (1) 
0000AFFA00000001

>  <PUBCHEM_MMFF94_ENERGY>  (1) 
67.65

>  <PUBCHEM_FEATURE_SELFOVERLAP>  (1) 
25.371

>  <PUBCHEM_SHAPE_FINGERPRINT>  (1) 
104564 63 18197226840605281341
10967382 1 18411981351471521670
10980938 120 18342737390578106335
11132069 177 18341317960011230746
11543360 7 14548731854526202890
11578080 2 16696630937791176849
11640471 11 17346609568865867643
116883 192 17979638931313041085
12236239 1 17275101709272713163
12633257 1 18115325474178485579
13132413 78 18201444649014489801
13140716 1 18195805399661382664
13172582 1 18337947986810267858
13544592 271 18263349331338137653
13583140 156 17023729212956351142
14178342 30 18272083945956293515
14790565 3 18339939211069783928
14955137 171 18194705845447826416
15219456 202 18261960656805702415
15309172 13 18413388765131340203
15375358 24 18261105236780053999
15490181 7 17472714987921981837
1601671 61 18409456894476097540
16945 1 18343299288390802938
17357779 13 18123470483985724879
1813 80 17055854546229156934
18186145 218 17989210347520906662
18785283 64 18117012172223684313
20511035 2 17899140695609152365
20739085 24 18196959693781524947
21197605 99 17623026603633634745
21501502 16 17979921510302035998
21524375 3 17541674141086905253
22182313 1 18124019149526739950
22802520 49 17978228253615461463
23184049 59 18411979161133269690
2334 1 17763459912753736500
23493267 7 17895198775004828370
23503958 8 15285365041680536865
23558518 356 17832700171597099220
23559900 14 17459196179153197342
2748010 2 18194679272173949318
3250762 1 17764585417792509310
3472631 163 15769782325674804961
350125 39 18197781003830704858
474 4 17559942385042961936
484985 159 14642977323136081674
70251023 43 17911232815771460727
77492 1 17131548337147290551
81228 2 17901393294313433809

>  <PUBCHEM_SHAPE_MULTIPOLES>  (1) 
368.42
6.29
2.79
1.22
2.7
1.03
-0.16
0.15
-1.45
-1.51
0.64
0.26
0.1
0.46

>  <PUBCHEM_SHAPE_SELFOVERLAP>  (1) 
799.205

>  <PUBCHEM_SHAPE_VOLUME>  (1) 
200.1

>  <PUBCHEM_COORDINATE_TYPE>  (1) 
2
5
10

$$$$
