45053
     RDKit          3D

 15 15  0  0  0  0  0  0  0  0999 V2000
    0.4902    1.3024    0.8403 O   0  0  0  0  0  0  0  0  0  0  0  0
    0.0101   -1.8875    1.7636 O   0  0  0  0  0  0  0  0  0  0  0  0
    0.9007   -1.9281   -0.3974 N   0  0  0  0  0  0  0  0  0  0  0  0
   -0.9929   -0.4860    0.2432 C   0  0  0  0  0  0  0  0  0  0  0  0
   -0.7184    0.8749    0.3779 C   0  0  0  0  0  0  0  0  0  0  0  0
    0.0046   -1.4879    0.5926 C   0  0  0  0  0  0  0  0  0  0  0  0
   -2.2364   -0.9031   -0.2315 C   0  0  0  0  0  0  0  0  0  0  0  0
   -1.6875    1.8187    0.0380 C   0  0  0  0  0  0  0  0  0  0  0  0
   -3.2055    0.0407   -0.5716 C   0  0  0  0  0  0  0  0  0  0  0  0
   -2.9311    1.4017   -0.4367 C   0  0  0  0  0  0  0  0  0  0  0  0
    1.9359   -2.9146   -0.1229 C   0  0  0  0  0  0  0  0  0  0  0  0
    0.8535   -1.4249   -1.7686 C   0  0  0  0  0  0  0  0  0  0  0  0
    1.2584    2.1333   -0.0273 C   0  0  0  0  0  0  0  0  0  0  0  0
    2.7055    1.9499    0.2896 C   0  0  0  0  0  0  0  0  0  0  0  0
    3.6129    1.5104   -0.5893 C   0  0  0  0  0  0  0  0  0  0  0  0
  1  5  1  0
  1 13  1  0
  2  6  2  0
  3  6  1  0
  3 11  1  0
  3 12  1  0
  4  5  2  0
  4  6  1  0
  4  7  1  0
  5  8  1  0
  7  9  2  0
  8 10  2  0
  9 10  1  0
 13 14  1  0
 14 15  2  0
M  END
>  <PUBCHEM_COMPOUND_CID>  (1) 
45053

>  <PUBCHEM_CONFORMER_RMSD>  (1) 
0.6

>  <PUBCHEM_CONFORMER_DIVERSEORDER>  (1) 
1
25
34
17
29
38
16
5
30
13
21
23
12
36
2
26
10
14
19
43
37
15
22
35
39
41
20
11
33
8
31
42
40
4
6
24
18
28
32
9
3
7
27

>  <PUBCHEM_MMFF94_PARTIAL_CHARGES>  (1) 
22
1 -0.36
10 -0.15
11 0.3
12 0.3
13 0.42
14 -0.29
15 -0.3
16 0.15
17 0.15
18 0.15
19 0.15
2 -0.57
28 0.15
29 0.15
3 -0.66
30 0.15
4 0.09
5 0.08
6 0.54
7 -0.15
8 -0.15
9 -0.15

>  <PUBCHEM_EFFECTIVE_ROTOR_COUNT>  (1) 
5

>  <PUBCHEM_PHARMACOPHORE_FEATURES>  (1) 
4
1 1 acceptor
1 15 hydrophobe
1 2 acceptor
6 4 5 7 8 9 10 rings

>  <PUBCHEM_HEAVY_ATOM_COUNT>  (1) 
15

>  <PUBCHEM_ATOM_DEF_STEREO_COUNT>  (1) 
0

>  <PUBCHEM_ATOM_UDEF_STEREO_COUNT>  (1) 
0

>  <PUBCHEM_BOND_DEF_STEREO_COUNT>  (1) 
0

>  <PUBCHEM_BOND_UDEF_STEREO_COUNT>  (1) 
0

>  <PUBCHEM_ISOTOPIC_ATOM_COUNT>  (1) 
0

>  <PUBCHEM_COMPONENT_COUNT>  (1) 
1

>  <PUBCHEM_CACTVS_TAUTO_COUNT>  (1) 
1

>  <PUBCHEM_CONFORMER_ID>  (1) 
0000AFFD00000001

>  <PUBCHEM_MMFF94_ENERGY>  (1) 
48.3743

>  <PUBCHEM_FEATURE_SELFOVERLAP>  (1) 
20.297

>  <PUBCHEM_SHAPE_FINGERPRINT>  (1) 
1 1 18341323487249181245
10062212 137 18341599421897324082
10756046 5 18268133298099223653
12423570 1 14085874752575781153
12592029 89 18411139172798677826
13380535 76 18335979860753916704
13464514 151 18339083679137336213
14817 1 13601920650787276726
15163728 17 17168408386078067933
1601671 61 16756354034296054313
16945 1 18341602776409083713
17780758 139 11595835959726471060
19868273 325 17546163004765528479
20645476 183 17824542104857119180
20871998 184 17762063541602873345
20905425 154 18269551641965357692
21501502 16 18270959047145660541
21524375 3 18335410322378750528
22713019 99 18057042630005479133
23419403 2 17755062701918477626
23552423 10 18265322929077302817
23559900 14 17264114074665381438
23728640 28 18051958514577866890
25 1 18410293614066166885
2748010 2 17689422111655140041
43471831 8 18337664325473599018
598444 67 18050302649744766758
6138700 20 18339080389993922382
7364860 26 18341325583356621989
81228 2 17045405234246827979
81539 233 18261662731935300413

>  <PUBCHEM_SHAPE_MULTIPOLES>  (1) 
291.97
4.51
3.21
1.13
0.52
1.13
0.04
-2.53
1.12
2.21
-0.11
0.18
0.56
0.21

>  <PUBCHEM_SHAPE_SELFOVERLAP>  (1) 
594.671

>  <PUBCHEM_SHAPE_VOLUME>  (1) 
170.6

>  <PUBCHEM_COORDINATE_TYPE>  (1) 
2
5
10

$$$$
