45055
     RDKit          3D

 13 13  0  0  0  0  0  0  0  0999 V2000
    1.0932   -1.2175    0.8990 O   0  0  0  0  0  0  0  0  0  0  0  0
    3.8184    0.1904    0.6718 O   0  0  0  0  0  0  0  0  0  0  0  0
    3.2218    0.0087   -1.4413 O   0  0  0  0  0  0  0  0  0  0  0  0
   -1.1232   -2.2808   -0.1871 N   0  0  0  0  0  0  0  0  0  0  0  0
    3.0134    0.3456   -0.2628 N   0  0  0  0  0  0  0  0  0  0  0  0
   -0.7180    0.0984    0.1875 C   0  0  0  0  0  0  0  0  0  0  0  0
   -1.5908   -0.9503   -0.1023 C   0  0  0  0  0  0  0  0  0  0  0  0
    0.7024   -0.1382    0.4137 C   0  0  0  0  0  0  0  0  0  0  0  0
   -1.1996    1.4052    0.2659 C   0  0  0  0  0  0  0  0  0  0  0  0
    1.7085    0.9533    0.0503 C   0  0  0  0  0  0  0  0  0  0  0  0
   -2.9451   -0.6924   -0.3137 C   0  0  0  0  0  0  0  0  0  0  0  0
   -2.5541    1.6631    0.0544 C   0  0  0  0  0  0  0  0  0  0  0  0
   -3.4268    0.6144   -0.2355 C   0  0  0  0  0  0  0  0  0  0  0  0
  1  8  2  0
  2  5  1  0
  3  5  2  0
  4  7  1  0
  5 10  1  0
  6  7  2  0
  6  8  1  0
  6  9  1  0
  7 11  1  0
  8 10  1  0
  9 12  2  0
 11 13  2  0
 12 13  1  0
M  CHG  2   2  -1   5   1
M  END
>  <PUBCHEM_COMPOUND_CID>  (1) 
45055

>  <PUBCHEM_CONFORMER_RMSD>  (1) 
0.6

>  <PUBCHEM_CONFORMER_DIVERSEORDER>  (1) 
1
20
22
17
29
2
28
19
30
11
24
4
9
15
27
12
13
14
26
25
18
23
7
3
16
21
10
5
8
6

>  <PUBCHEM_MMFF94_PARTIAL_CHARGES>  (1) 
19
1 -0.57
10 0.3
11 -0.15
12 -0.15
13 -0.15
16 0.15
17 0.15
18 0.15
19 0.15
2 -0.52
20 0.4
21 0.4
3 -0.52
4 -0.9
5 0.8
6 0.09
7 0.1
8 0.42
9 -0.15

>  <PUBCHEM_EFFECTIVE_ROTOR_COUNT>  (1) 
3

>  <PUBCHEM_PHARMACOPHORE_FEATURES>  (1) 
7
1 1 acceptor
1 2 acceptor
1 2 anion
1 3 acceptor
1 4 cation
1 4 donor
6 6 7 9 11 12 13 rings

>  <PUBCHEM_HEAVY_ATOM_COUNT>  (1) 
13

>  <PUBCHEM_ATOM_DEF_STEREO_COUNT>  (1) 
0

>  <PUBCHEM_ATOM_UDEF_STEREO_COUNT>  (1) 
0

>  <PUBCHEM_BOND_DEF_STEREO_COUNT>  (1) 
0

>  <PUBCHEM_BOND_UDEF_STEREO_COUNT>  (1) 
0

>  <PUBCHEM_ISOTOPIC_ATOM_COUNT>  (1) 
0

>  <PUBCHEM_COMPONENT_COUNT>  (1) 
1

>  <PUBCHEM_CACTVS_TAUTO_COUNT>  (1) 
14

>  <PUBCHEM_CONFORMER_ID>  (1) 
0000AFFF00000001

>  <PUBCHEM_MMFF94_ENERGY>  (1) 
43.9363

>  <PUBCHEM_FEATURE_SELFOVERLAP>  (1) 
35.6

>  <PUBCHEM_SHAPE_FINGERPRINT>  (1) 
11206711 2 18411125949095682701
12716758 59 18343587347336081002
12897270 3 18411699919428601121
13024252 1 14201394985035446661
13380535 21 18336838489351997147
13380535 76 18410852135945209787
14144814 61 18409163290300486744
14325111 11 18410854326267533625
14897335 6 18335975381102916562
14993402 34 18334853918361650957
15669948 3 18339074999055689238
15775835 57 18260549983044283549
16945 1 18409722993564489857
18186145 218 18131075883271987152
20201158 50 17775290464790185574
20279233 1 17775287175098398822
20645476 183 18040723588173828607
20645477 56 18413389847421004800
20871998 184 18129664235180954087
23402539 116 18272075102523263285
23463225 33 18190453866237080906
23552423 10 18117835723200963173
23559900 14 18272931627378496840
2748010 2 18266459798161664973
53812653 8 18410289177723211121
6333449 129 18341890809748198745
7364860 26 18196929968387248346
77492 1 17894906330359688856

>  <PUBCHEM_SHAPE_MULTIPOLES>  (1) 
239.96
5.79
1.65
0.83
3.52
0.43
0.13
-1.04
0.86
-1.08
-0.06
0.54
0.04
-0.16

>  <PUBCHEM_SHAPE_SELFOVERLAP>  (1) 
501.245

>  <PUBCHEM_SHAPE_VOLUME>  (1) 
135.9

>  <PUBCHEM_COORDINATE_TYPE>  (1) 
2
5
10

$$$$
