45051
     RDKit          3D

 19 20  0  0  0  0  0  0  0  0999 V2000
    0.6976    2.7952    0.6679 O   0  0  0  0  0  0  0  0  0  0  0  0
    0.5492   -1.1688    0.2325 O   0  0  0  0  0  0  0  0  0  0  0  0
   -0.5671    1.1025   -0.2873 N   0  0  0  0  0  0  0  0  0  0  0  0
   -1.8373    1.7917   -0.2349 C   0  0  0  0  0  0  0  0  0  0  0  0
   -2.7308    1.3899   -1.4132 C   0  0  0  0  0  0  0  0  0  0  0  0
   -2.5413    1.5485    1.1044 C   0  0  0  0  0  0  0  0  0  0  0  0
   -3.2676   -0.0353   -1.2809 C   0  0  0  0  0  0  0  0  0  0  0  0
   -3.0782    0.1229    1.2325 C   0  0  0  0  0  0  0  0  0  0  0  0
   -3.9733   -0.2495    0.0547 C   0  0  0  0  0  0  0  0  0  0  0  0
    0.6081    1.6734    0.1760 C   0  0  0  0  0  0  0  0  0  0  0  0
    1.8331    0.8464    0.0269 C   0  0  0  0  0  0  0  0  0  0  0  0
    1.7411   -0.5301    0.0626 C   0  0  0  0  0  0  0  0  0  0  0  0
    3.0389    1.4972   -0.1444 C   0  0  0  0  0  0  0  0  0  0  0  0
    2.9031   -1.2884   -0.0791 C   0  0  0  0  0  0  0  0  0  0  0  0
    4.2010    0.7387   -0.2860 C   0  0  0  0  0  0  0  0  0  0  0  0
    4.1332   -0.6540   -0.2533 C   0  0  0  0  0  0  0  0  0  0  0  0
    0.5759   -2.5945    0.2538 C   0  0  0  0  0  0  0  0  0  0  0  0
   -0.8072   -3.0964    0.5050 C   0  0  0  0  0  0  0  0  0  0  0  0
   -1.4787   -3.8894   -0.3371 C   0  0  0  0  0  0  0  0  0  0  0  0
  1 10  2  0
  2 12  1  0
  2 17  1  0
  3  4  1  0
  3 10  1  0
  4  5  1  0
  4  6  1  0
  5  7  1  0
  6  8  1  0
  7  9  1  0
  8  9  1  0
 10 11  1  0
 11 12  2  0
 11 13  1  0
 12 14  1  0
 13 15  2  0
 14 16  2  0
 15 16  1  0
 17 18  1  0
 18 19  2  0
M  END
>  <PUBCHEM_COMPOUND_CID>  (1) 
45051

>  <PUBCHEM_CONFORMER_RMSD>  (1) 
0.8

>  <PUBCHEM_CONFORMER_DIVERSEORDER>  (1) 
4
56
79
80
1
73
54
39
26
45
9
47
66
29
65
48
22
13
71
31
69
76
36
40
8
20
41
68
62
3
27
78
30
33
23
5
37
82
57
70
14
64
34
50
81
2
72
32
38
25
58
17
12
44
35
61
21
74
55
51
16
77
18
43
19
52
11
15
46
83
6
67
59
24
53
63
10
7
28
42
75
60
49

>  <PUBCHEM_MMFF94_PARTIAL_CHARGES>  (1) 
22
1 -0.57
10 0.54
11 0.09
12 0.08
13 -0.15
14 -0.15
15 -0.15
16 -0.15
17 0.42
18 -0.29
19 -0.3
2 -0.36
3 -0.73
31 0.37
32 0.15
33 0.15
34 0.15
35 0.15
38 0.15
39 0.15
4 0.3
40 0.15

>  <PUBCHEM_EFFECTIVE_ROTOR_COUNT>  (1) 
7.2

>  <PUBCHEM_PHARMACOPHORE_FEATURES>  (1) 
6
1 1 acceptor
1 19 hydrophobe
1 2 acceptor
1 3 donor
6 11 12 13 14 15 16 rings
6 4 5 6 7 8 9 rings

>  <PUBCHEM_HEAVY_ATOM_COUNT>  (1) 
19

>  <PUBCHEM_ATOM_DEF_STEREO_COUNT>  (1) 
0

>  <PUBCHEM_ATOM_UDEF_STEREO_COUNT>  (1) 
0

>  <PUBCHEM_BOND_DEF_STEREO_COUNT>  (1) 
0

>  <PUBCHEM_BOND_UDEF_STEREO_COUNT>  (1) 
0

>  <PUBCHEM_ISOTOPIC_ATOM_COUNT>  (1) 
0

>  <PUBCHEM_COMPONENT_COUNT>  (1) 
1

>  <PUBCHEM_CACTVS_TAUTO_COUNT>  (1) 
2

>  <PUBCHEM_CONFORMER_ID>  (1) 
0000AFFB00000004

>  <PUBCHEM_MMFF94_ENERGY>  (1) 
41.8835

>  <PUBCHEM_FEATURE_SELFOVERLAP>  (1) 
30.446

>  <PUBCHEM_SHAPE_FINGERPRINT>  (1) 
10759866 29 17821734927317802522
108231 29 18343301461686868672
108634 29 18411703226954943790
10967382 1 18410295800441702522
11578080 2 17058081370891885794
12596599 1 17845943926666058791
12715332 25 18411703175425599554
13032168 30 18202278100307896641
13140716 1 18051128395571965456
13583140 156 16877938356612603024
14178342 30 17619337715813558504
14251745 187 18197772400362520546
15209289 33 18343588438426605321
15309172 13 18410016502907798977
17357779 13 17763733687128899063
18186145 218 18338803308262424868
19591789 44 18338240370988495274
200 152 18272925016996807221
20261772 1 18264786517373668379
20645477 70 18117832197164630221
20775438 99 16042478010907303919
21160774 45 18335700610971107559
21236236 1 18051131699077406164
21634736 98 18057308694549679333
2334 1 18338233765127794802
23402539 116 18270961233463297332
238 59 18045189718886083567
2748010 2 18335427820217776808
2871803 45 18410003308916043445
3014063 31 17906728464461425223
6438718 38 17987805248864882911
81228 2 17901946675121729570
8809292 202 18338795744376545694

>  <PUBCHEM_SHAPE_MULTIPOLES>  (1) 
374.29
7
3.64
1.01
2.18
3.64
0.08
-1.34
0.82
-1.08
-0.22
-1
-0.25
0.04

>  <PUBCHEM_SHAPE_SELFOVERLAP>  (1) 
774.575

>  <PUBCHEM_SHAPE_VOLUME>  (1) 
211.6

>  <PUBCHEM_COORDINATE_TYPE>  (1) 
2
5
10

$$$$
