45062
     RDKit          3D

  9  8  0  0  0  0  0  0  0  0999 V2000
    3.4138    1.0787    0.5525 F   0  0  0  0  0  0  0  0  0  0  0  0
   -1.5584    0.4293   -0.1158 O   0  0  0  0  0  0  0  0  0  0  0  0
   -0.6223   -1.6413    0.2834 O   0  0  0  0  0  0  0  0  0  0  0  0
    1.9845   -0.6508   -0.1395 C   0  0  0  0  0  0  0  0  0  0  0  0
    0.7735    0.2707   -0.2749 C   0  0  0  0  0  0  0  0  0  0  0  0
    3.2846    0.0967   -0.3786 C   0  0  0  0  0  0  0  0  0  0  0  0
   -0.5235   -0.4551    0.0012 C   0  0  0  0  0  0  0  0  0  0  0  0
   -2.8618   -0.1131    0.1193 C   0  0  0  0  0  0  0  0  0  0  0  0
   -3.8903    0.9850   -0.0475 C   0  0  0  0  0  0  0  0  0  0  0  0
  1  6  1  0
  2  7  1  0
  2  8  1  0
  3  7  2  0
  4  5  1  0
  4  6  1  0
  5  7  1  0
  8  9  1  0
M  END
>  <PUBCHEM_COMPOUND_CID>  (1) 
45062

>  <PUBCHEM_CONFORMER_RMSD>  (1) 
0.6

>  <PUBCHEM_CONFORMER_DIVERSEORDER>  (1) 
1
93
90
71
89
30
36
81
11
49
39
85
54
32
42
33
69
66
10
37
86
47
23
21
96
56
82
9
43
87
38
27
40
95
2
76
77
75
80
57
83
17
94
67
65
19
97
14
72
50
20
51
91
15
58
78
25
6
61
92
84
29
16
68
79
48
55
64
52
7
88
18
26
59
70
74
4
13
63
34
31
12
53
35
24
45
73
8
28
41
3
46
22
60
62
44
5

>  <PUBCHEM_MMFF94_PARTIAL_CHARGES>  (1) 
7
1 -0.34
2 -0.43
3 -0.57
5 0.06
6 0.34
7 0.66
8 0.28

>  <PUBCHEM_EFFECTIVE_ROTOR_COUNT>  (1) 
5

>  <PUBCHEM_PHARMACOPHORE_FEATURES>  (1) 
1
1 3 acceptor

>  <PUBCHEM_HEAVY_ATOM_COUNT>  (1) 
9

>  <PUBCHEM_ATOM_DEF_STEREO_COUNT>  (1) 
0

>  <PUBCHEM_ATOM_UDEF_STEREO_COUNT>  (1) 
0

>  <PUBCHEM_BOND_DEF_STEREO_COUNT>  (1) 
0

>  <PUBCHEM_BOND_UDEF_STEREO_COUNT>  (1) 
0

>  <PUBCHEM_ISOTOPIC_ATOM_COUNT>  (1) 
0

>  <PUBCHEM_COMPONENT_COUNT>  (1) 
1

>  <PUBCHEM_CACTVS_TAUTO_COUNT>  (1) 
1

>  <PUBCHEM_CONFORMER_ID>  (1) 
0000B00600000001

>  <PUBCHEM_MMFF94_ENERGY>  (1) 
2.85

>  <PUBCHEM_FEATURE_SELFOVERLAP>  (1) 
5.074

>  <PUBCHEM_SHAPE_FINGERPRINT>  (1) 
11062470 55 17989488515235460997
12932764 1 15502367980742783550
14325111 11 18409450271625743727
14390081 3 18342458149084272080
177051 138 8502652610218809616
20211469 26 11241969291580809677
20281407 28 8718830894222538516
21293036 1 14476961181398932365
23235685 24 18410007728089055727

>  <PUBCHEM_SHAPE_MULTIPOLES>  (1) 
166.2
6.59
1.13
0.64
0.98
0.22
-0.01
-2.56
0.12
0.05
0.12
-0.13
-0.03
0.25

>  <PUBCHEM_SHAPE_SELFOVERLAP>  (1) 
302.728

>  <PUBCHEM_SHAPE_VOLUME>  (1) 
106.2

>  <PUBCHEM_COORDINATE_TYPE>  (1) 
2
5
10

$$$$
