45093
     RDKit          3D

 28 30  0  0  1  0  0  0  0  0999 V2000
   -2.8515   -2.2332    0.0256 O   0  0  0  0  0  0  0  0  0  0  0  0
   -1.9922   -1.9371   -2.0982 O   0  0  0  0  0  0  0  0  0  0  0  0
    3.3973    3.9665   -0.0592 O   0  0  0  0  0  0  0  0  0  0  0  0
    3.9171    1.0641    0.4114 O   0  0  0  0  0  0  0  0  0  0  0  0
    0.7687    1.3512   -0.0219 N   0  0  0  0  0  0  0  0  0  0  0  0
   -1.7451   -0.2066   -0.4223 C   0  0  0  0  0  0  0  0  0  0  0  0
   -0.7057   -0.5107    0.6900 C   0  0  0  0  0  0  0  0  0  0  0  0
   -0.9752    0.5211   -1.5567 C   0  0  0  0  0  0  0  0  0  0  0  0
    0.1017    0.7204    1.1225 C   0  0  0  0  0  0  0  0  0  0  0  0
   -0.2005    1.7417   -1.0514 C   0  0  0  0  0  0  0  0  0  0  0  0
   -3.0003    0.5600    0.0196 C   0  0  0  0  0  0  0  0  0  0  0  0
    1.5523    2.5071    0.4123 C   0  0  0  0  0  0  0  0  0  0  0  0
   -2.1967   -1.5497   -0.9558 C   0  0  0  0  0  0  0  0  0  0  0  0
    2.6632    2.8553   -0.5812 C   0  0  0  0  0  0  0  0  0  0  0  0
   -4.0018    0.8513   -0.9068 C   0  0  0  0  0  0  0  0  0  0  0  0
   -3.1395    0.9645    1.3474 C   0  0  0  0  0  0  0  0  0  0  0  0
    3.6351    1.7040   -0.8295 C   0  0  0  0  0  0  0  0  0  0  0  0
   -5.1420    1.5474   -0.5055 C   0  0  0  0  0  0  0  0  0  0  0  0
   -4.2799    1.6605    1.7484 C   0  0  0  0  0  0  0  0  0  0  0  0
   -5.2811    1.9519    0.8220 C   0  0  0  0  0  0  0  0  0  0  0  0
   -3.3360   -3.5278   -0.3451 C   0  0  0  0  0  0  0  0  0  0  0  0
   -4.0336   -4.1524    0.8444 C   0  0  0  0  0  0  0  0  0  0  0  0
    4.1934   -0.2761    0.3638 C   0  0  0  0  0  0  0  0  0  0  0  0
    4.7957   -0.8244   -0.7688 C   0  0  0  0  0  0  0  0  0  0  0  0
    3.8721   -1.0934    1.4476 C   0  0  0  0  0  0  0  0  0  0  0  0
    5.0764   -2.1899   -0.8174 C   0  0  0  0  0  0  0  0  0  0  0  0
    4.1529   -2.4588    1.3988 C   0  0  0  0  0  0  0  0  0  0  0  0
    4.7552   -3.0070    0.2662 C   0  0  0  0  0  0  0  0  0  0  0  0
  1 13  1  0
  1 21  1  0
  2 13  2  0
  3 14  1  0
  4 17  1  0
  4 23  1  0
  5  9  1  0
  5 10  1  0
  5 12  1  0
  6  7  1  0
  6  8  1  0
  6 11  1  0
  6 13  1  0
  7  9  1  0
  8 10  1  0
 11 15  2  0
 11 16  1  0
 12 14  1  0
 14 17  1  0
 15 18  1  0
 16 19  2  0
 18 20  2  0
 19 20  1  0
 21 22  1  0
 23 24  2  0
 23 25  1  0
 24 26  1  0
 25 27  2  0
 26 28  2  0
 27 28  1  0
M  END
>  <PUBCHEM_COMPOUND_CID>  (1) 
45093

>  <PUBCHEM_CONFORMER_RMSD>  (1) 
1

>  <PUBCHEM_CONFORMER_DIVERSEORDER>  (1) 
1
28
127
46
39
121
91
73
130
48
86
101
52
132
20
122
64
120
133
99
78
102
76
126
60
50
79
77
17
63
128
96
75
82
98
67
131
110
89
81
61
114
42
11
103
47
66
117
83
129
53
115
112
58
14
118
40
97
106
51
37
15
104
124
9
95
116
113
16
33
71
94
87
8
34
88
23
105
43
54
68
72
69
107
44
70
92
108
119
21
26
93
25
85
62
24
59
3
123
90
29
41
65
80
125
57
84
56
27
35
12
36
111
5
31
74
109
6
100
13
55
18
4
22
45
7
30
19
38
49
2
10
32

>  <PUBCHEM_MMFF94_PARTIAL_CHARGES>  (1) 
36
1 -0.43
10 0.27
11 -0.14
12 0.27
13 0.66
14 0.28
15 -0.15
16 -0.15
17 0.28
18 -0.15
19 -0.15
2 -0.57
20 -0.15
21 0.28
23 0.08
24 -0.15
25 -0.15
26 -0.15
27 -0.15
28 -0.15
3 -0.68
4 -0.36
40 0.15
41 0.15
44 0.15
45 0.15
46 0.15
47 0.4
5 -0.81
53 0.15
54 0.15
55 0.15
56 0.15
57 0.15
6 0.2
9 0.27

>  <PUBCHEM_EFFECTIVE_ROTOR_COUNT>  (1) 
10.2

>  <PUBCHEM_PHARMACOPHORE_FEATURES>  (1) 
8
1 2 acceptor
1 3 acceptor
1 3 donor
1 4 acceptor
1 5 cation
6 11 15 16 18 19 20 rings
6 23 24 25 26 27 28 rings
6 5 6 7 8 9 10 rings

>  <PUBCHEM_HEAVY_ATOM_COUNT>  (1) 
28

>  <PUBCHEM_ATOM_DEF_STEREO_COUNT>  (1) 
0

>  <PUBCHEM_ATOM_UDEF_STEREO_COUNT>  (1) 
1

>  <PUBCHEM_BOND_DEF_STEREO_COUNT>  (1) 
0

>  <PUBCHEM_BOND_UDEF_STEREO_COUNT>  (1) 
0

>  <PUBCHEM_ISOTOPIC_ATOM_COUNT>  (1) 
0

>  <PUBCHEM_COMPONENT_COUNT>  (1) 
1

>  <PUBCHEM_CACTVS_TAUTO_COUNT>  (1) 
1

>  <PUBCHEM_CONFORMER_ID>  (1) 
0000B02500000001

>  <PUBCHEM_MMFF94_ENERGY>  (1) 
77.0754

>  <PUBCHEM_FEATURE_SELFOVERLAP>  (1) 
40.598

>  <PUBCHEM_SHAPE_FINGERPRINT>  (1) 
10928967 22 17968371243811190242
11405975 8 18412263960314525048
12107183 9 18268998591795665209
12422481 6 17700698350295381708
12553582 1 18264201418848654266
12633257 1 18340487764186405430
12788726 201 18200326407435457632
13533116 47 18268986652034001669
13583140 156 18191604127298991329
14117953 113 18126001560169876142
14347332 77 18269829973464032999
15347590 135 17624414577273660112
15537594 2 18261118431136085974
17349148 13 17632578219033838901
17492 89 18339644567612119286
17818456 19 18059577944905717536
1813 80 18266741286297934792
19301679 30 18120380019463744043
20832881 197 18115871802397863984
21703447 108 17627774641921494001
23559900 14 17845952753082451684
23598288 3 18130227189545276943
3117164 225 18411143515269083145
340366 18 18410575054746053028
3886686 26 18337962203384697783
404807 14 14758752594231307831
44062 13 18410011026650813126
460360 51 18337963375699162567
463206 1 18261671472510720154
5104073 3 18340764952812343080
5486654 36 18409731780767442842
56633871 153 18267862779173030754
5912855 24 18194693776726900835
633830 44 17022901284827174825
9981440 41 17060062489445658007

>  <PUBCHEM_SHAPE_MULTIPOLES>  (1) 
547.77
12.5
4.57
1.49
4.07
2.49
-0.01
3.11
-1.63
0.04
-0.18
-0.52
0.18
-1.28

>  <PUBCHEM_SHAPE_SELFOVERLAP>  (1) 
1152.099

>  <PUBCHEM_SHAPE_VOLUME>  (1) 
307.1

>  <PUBCHEM_COORDINATE_TYPE>  (1) 
2
5
10

$$$$
