45103
     RDKit          3D

 28 30  0  0  0  0  0  0  0  0999 V2000
   -1.3222    3.8236   -0.5363 O   0  0  0  0  0  0  0  0  0  0  0  0
   -3.6899    3.3928    0.8459 O   0  0  0  0  0  0  0  0  0  0  0  0
    4.8442    1.1055   -0.4904 O   0  0  0  0  0  0  0  0  0  0  0  0
    5.0981   -0.7198    1.5905 O   0  0  0  0  0  0  0  0  0  0  0  0
   -2.2772   -4.6193   -0.8885 O   0  0  0  0  0  0  0  0  0  0  0  0
   -3.3587   -4.2161    1.0697 O   0  0  0  0  0  0  0  0  0  0  0  0
   -1.1433   -2.2405   -0.7720 N   0  0  0  0  0  0  0  0  0  0  0  0
   -1.4599    0.1591   -0.5342 C   0  0  0  0  0  0  0  0  0  0  0  0
   -0.7527   -0.9618   -0.9738 C   0  0  0  0  0  0  0  0  0  0  0  0
    0.5331   -0.8222   -1.7253 C   0  0  0  0  0  0  0  0  0  0  0  0
   -2.6625   -0.0641    0.1676 C   0  0  0  0  0  0  0  0  0  0  0  0
    1.7587   -0.7914   -0.8375 C   0  0  0  0  0  0  0  0  0  0  0  0
   -1.0194    1.4728   -0.7650 C   0  0  0  0  0  0  0  0  0  0  0  0
   -3.4015    1.0390    0.6254 C   0  0  0  0  0  0  0  0  0  0  0  0
   -3.0843   -1.3807    0.3871 C   0  0  0  0  0  0  0  0  0  0  0  0
   -1.7657    2.5567   -0.3031 C   0  0  0  0  0  0  0  0  0  0  0  0
   -2.9542    2.3402    0.3904 C   0  0  0  0  0  0  0  0  0  0  0  0
   -2.2990   -2.4159   -0.0966 C   0  0  0  0  0  0  0  0  0  0  0  0
    2.7429    0.1513   -1.0774 C   0  0  0  0  0  0  0  0  0  0  0  0
    1.8680   -1.7076    0.1940 C   0  0  0  0  0  0  0  0  0  0  0  0
    3.8725    0.1788   -0.2598 C   0  0  0  0  0  0  0  0  0  0  0  0
    2.9976   -1.6801    1.0116 C   0  0  0  0  0  0  0  0  0  0  0  0
    3.9999   -0.7368    0.7848 C   0  0  0  0  0  0  0  0  0  0  0  0
   -2.7024   -3.7964    0.1099 C   0  0  0  0  0  0  0  0  0  0  0  0
   -0.0968    3.9594   -1.2533 C   0  0  0  0  0  0  0  0  0  0  0  0
   -3.3962    3.8692    2.1577 C   0  0  0  0  0  0  0  0  0  0  0  0
    4.6369    2.0048   -1.5778 C   0  0  0  0  0  0  0  0  0  0  0  0
    5.0340    0.0993    2.7564 C   0  0  0  0  0  0  0  0  0  0  0  0
  1 16  1  0
  1 25  1  0
  2 17  1  0
  2 26  1  0
  3 21  1  0
  3 27  1  0
  4 23  1  0
  4 28  1  0
  5 24  1  0
  6 24  2  0
  7  9  2  0
  7 18  1  0
  8  9  1  0
  8 11  2  0
  8 13  1  0
  9 10  1  0
 10 12  1  0
 11 14  1  0
 11 15  1  0
 12 19  2  0
 12 20  1  0
 13 16  2  0
 14 17  2  0
 15 18  2  0
 16 17  1  0
 18 24  1  0
 19 21  1  0
 20 22  2  0
 21 23  2  0
 22 23  1  0
M  END
>  <PUBCHEM_COMPOUND_CID>  (1) 
45103

>  <PUBCHEM_CONFORMER_RMSD>  (1) 
0.8

>  <PUBCHEM_CONFORMER_DIVERSEORDER>  (1) 
14
51
33
28
46
22
38
27
52
39
3
30
50
21
13
16
32
26
34
20
49
17
1
35
36
18
40
54
12
29
37
31
25
23
47
45
53
24
48
11
5
2
6
10
4
41
7
15
19
43
9
44
42
8

>  <PUBCHEM_MMFF94_PARTIAL_CHARGES>  (1) 
33
1 -0.36
10 0.29
12 -0.14
13 -0.15
14 -0.15
15 -0.15
16 0.08
17 0.08
18 0.4
19 -0.15
2 -0.36
20 -0.15
21 0.08
22 -0.15
23 0.08
24 0.63
25 0.28
26 0.28
27 0.28
28 0.28
3 -0.36
31 0.15
32 0.15
33 0.15
34 0.15
35 0.15
36 0.15
4 -0.36
49 0.5
5 -0.65
6 -0.57
7 -0.62
9 0.17

>  <PUBCHEM_EFFECTIVE_ROTOR_COUNT>  (1) 
7

>  <PUBCHEM_PHARMACOPHORE_FEATURES>  (1) 
11
1 1 acceptor
1 2 acceptor
1 3 acceptor
1 4 acceptor
1 5 acceptor
1 6 acceptor
1 7 acceptor
3 5 6 24 anion
6 12 19 20 21 22 23 rings
6 7 8 9 11 15 18 rings
6 8 11 13 14 16 17 rings

>  <PUBCHEM_HEAVY_ATOM_COUNT>  (1) 
28

>  <PUBCHEM_ATOM_DEF_STEREO_COUNT>  (1) 
0

>  <PUBCHEM_ATOM_UDEF_STEREO_COUNT>  (1) 
0

>  <PUBCHEM_BOND_DEF_STEREO_COUNT>  (1) 
0

>  <PUBCHEM_BOND_UDEF_STEREO_COUNT>  (1) 
0

>  <PUBCHEM_ISOTOPIC_ATOM_COUNT>  (1) 
0

>  <PUBCHEM_COMPONENT_COUNT>  (1) 
1

>  <PUBCHEM_CACTVS_TAUTO_COUNT>  (1) 
1

>  <PUBCHEM_CONFORMER_ID>  (1) 
0000B02F0000000E

>  <PUBCHEM_MMFF94_ENERGY>  (1) 
125.5163

>  <PUBCHEM_FEATURE_SELFOVERLAP>  (1) 
55.929

>  <PUBCHEM_SHAPE_FINGERPRINT>  (1) 
10074138 170 18409721851245861323
10319926 262 18342449319365267506
10369192 42 15478159105995955352
10906281 52 18342471352473311863
10930396 42 17981286218864674187
1100329 8 18193004931378031191
11578080 2 17462826998760665855
12107183 9 18120369861802428282
12156800 1 15259814633060064848
12553582 1 18051413160431282711
12633257 1 18188208685326844068
12788726 201 18265058105225101411
13004483 165 18265608960983231131
13140716 1 18052835911929816173
13583140 156 17846203489221421666
13726171 33 18129118834786320584
14081887 123 18340481257168825786
14178342 30 18335126567328852402
14341114 328 18260552204022475464
14466204 15 17256808893397456150
14565420 104 17767980736023397873
14787075 74 17683530906836456254
14856354 85 18334852806466644902
14950920 106 17168435865516490152
15351339 4 17471299920926614292
15475509 35 16813221325730795427
15775530 1 18057907765258117111
16992727 255 18192121895013688847
19315092 285 16880163836998294882
21033648 29 17835777739599088640
21120745 212 18195821875520037001
21731228 192 18122063096396643319
22956985 138 17109294539228089306
23366157 5 17467355960159180599
376196 1 17558259921751574197
392239 28 17975137848868809024
394222 165 16885041184490469949
469060 322 18265905837517110450
58807428 26 18049733910402335817
7064713 232 18269837515004786768
7097593 13 18043802101010652186
7288768 16 17915449502481470345
7808743 9 18412272726923167972
9981440 41 17829596280716512313

>  <PUBCHEM_SHAPE_MULTIPOLES>  (1) 
536.03
9.36
5.67
1.75
11.47
0.8
-0.87
-2.06
-4.63
-8.73
-0.15
1.71
-0.78
-2.08

>  <PUBCHEM_SHAPE_SELFOVERLAP>  (1) 
1165.905

>  <PUBCHEM_SHAPE_VOLUME>  (1) 
294

>  <PUBCHEM_COORDINATE_TYPE>  (1) 
2
5
10

$$$$
