45105
     RDKit          3D

 16 17  0  0  0  0  0  0  0  0999 V2000
   -2.1018   -1.3427    0.3238 O   0  0  0  0  0  0  0  0  0  0  0  0
   -2.0847    1.3582   -0.3227 O   0  0  0  0  0  0  0  0  0  0  0  0
    3.9743    0.7078    0.2142 N   0  0  0  0  0  0  0  0  0  0  0  0
    1.5003   -0.7011    0.1528 C   0  0  0  0  0  0  0  0  0  0  0  0
    2.7972   -1.4414    0.3591 C   0  0  0  0  0  0  0  0  0  0  0  0
    1.5105    0.6720   -0.1510 C   0  0  0  0  0  0  0  0  0  0  0  0
    4.0008   -0.6903   -0.2133 C   0  0  0  0  0  0  0  0  0  0  0  0
    2.8155    1.3996   -0.3624 C   0  0  0  0  0  0  0  0  0  0  0  0
    0.2785   -1.3651    0.3206 C   0  0  0  0  0  0  0  0  0  0  0  0
    0.2962    1.3508   -0.3187 C   0  0  0  0  0  0  0  0  0  0  0  0
   -0.9243   -0.6770    0.1622 C   0  0  0  0  0  0  0  0  0  0  0  0
   -0.9155    0.6785   -0.1593 C   0  0  0  0  0  0  0  0  0  0  0  0
   -2.1110   -2.7315   -0.0005 C   0  0  0  0  0  0  0  0  0  0  0  0
   -2.0770    2.7478   -0.0015 C   0  0  0  0  0  0  0  0  0  0  0  0
   -3.4989   -3.1206   -0.4632 C   0  0  0  0  0  0  0  0  0  0  0  0
   -3.4601    3.1549    0.4600 C   0  0  0  0  0  0  0  0  0  0  0  0
  1 11  1  0
  1 13  1  0
  2 12  1  0
  2 14  1  0
  3  7  1  0
  3  8  1  0
  4  5  1  0
  4  6  2  0
  4  9  1  0
  5  7  1  0
  6  8  1  0
  6 10  1  0
  9 11  2  0
 10 12  2  0
 11 12  1  0
 13 15  1  0
 14 16  1  0
M  END
>  <PUBCHEM_COMPOUND_CID>  (1) 
45105

>  <PUBCHEM_CONFORMER_RMSD>  (1) 
0.6

>  <PUBCHEM_CONFORMER_DIVERSEORDER>  (1) 
2
30
8
22
28
16
29
21
10
12
24
14
18
11
23
20
9
7
17
26
27
15
25
5
13
6
1
4
3
19

>  <PUBCHEM_MMFF94_PARTIAL_CHARGES>  (1) 
17
1 -0.36
10 -0.15
11 0.08
12 0.08
13 0.28
14 0.28
2 -0.36
23 0.36
24 0.15
25 0.15
3 -0.9
4 -0.14
5 0.14
6 -0.14
7 0.27
8 0.41
9 -0.15

>  <PUBCHEM_EFFECTIVE_ROTOR_COUNT>  (1) 
4.8

>  <PUBCHEM_PHARMACOPHORE_FEATURES>  (1) 
6
1 1 acceptor
1 2 acceptor
1 3 cation
1 3 donor
6 3 4 5 6 7 8 rings
6 4 6 9 10 11 12 rings

>  <PUBCHEM_HEAVY_ATOM_COUNT>  (1) 
16

>  <PUBCHEM_ATOM_DEF_STEREO_COUNT>  (1) 
0

>  <PUBCHEM_ATOM_UDEF_STEREO_COUNT>  (1) 
0

>  <PUBCHEM_BOND_DEF_STEREO_COUNT>  (1) 
0

>  <PUBCHEM_BOND_UDEF_STEREO_COUNT>  (1) 
0

>  <PUBCHEM_ISOTOPIC_ATOM_COUNT>  (1) 
0

>  <PUBCHEM_COMPONENT_COUNT>  (1) 
1

>  <PUBCHEM_CACTVS_TAUTO_COUNT>  (1) 
1

>  <PUBCHEM_CONFORMER_ID>  (1) 
0000B03100000002

>  <PUBCHEM_MMFF94_ENERGY>  (1) 
45.0756

>  <PUBCHEM_FEATURE_SELFOVERLAP>  (1) 
30.472

>  <PUBCHEM_SHAPE_FINGERPRINT>  (1) 
10967382 1 18048597015099581960
11578080 2 17560226063569952265
116883 192 18412829105286580143
12553582 1 18048610496691051571
13134695 92 17835796770467106967
13140716 1 18335415704431507306
13380535 76 18268708299118804540
14178342 30 18336529561318649754
15309172 13 18048318842868722249
15442244 35 18263640680513344042
15906896 17 18272360937303041359
16945 1 18118112572735052004
18186145 218 18123184602478368636
19591789 44 17545324077214414726
20510252 161 18341332309470684184
20645477 70 17396976865327201869
21029758 11 18049437342726060487
21041028 32 18045519735799561659
21478907 32 18410008870978221951
21501502 16 18334295370796940142
21524375 3 18044661888711559417
221490 88 17181654507727923083
2334 1 18334858346393584162
23402539 116 18265606761685422302
23557571 272 18272940422927972742
23558518 356 18333453161843222674
23559900 14 18270679737491979902
25147074 1 18113900459895784750
2748010 2 18408886235240671526
3060560 45 17761490292549881173
3091708 16 9058133590132879617
474229 33 18337677391629575601
5104073 3 18335414652602389688
54173680 148 18410011035213854095
633830 44 17697597693382783157
68521 5 18339081609136828487
69090 78 18263925445213502729
7164475 11 18337674221146743030
7364860 26 17258215701587581675
7832392 63 18337108960938869924
81228 2 18187926239455188801
8272917 22 17474953126014884957
9709674 26 18271243829057317886

>  <PUBCHEM_SHAPE_MULTIPOLES>  (1) 
312.55
6.48
3.74
0.68
2.73
0.12
0
-0.07
0.02
-5.92
0.02
-0.03
0.01
-0.7

>  <PUBCHEM_SHAPE_SELFOVERLAP>  (1) 
646.046

>  <PUBCHEM_SHAPE_VOLUME>  (1) 
179.1

>  <PUBCHEM_COORDINATE_TYPE>  (1) 
2
5
10

$$$$
