45143
     RDKit          3D

 17 17  0  0  1  0  0  0  0  0999 V2000
   -3.0053    0.7991    0.6104 S   0  0  0  0  0  0  0  0  0  0  0  0
    0.3287   -1.2311   -1.7356 O   0  0  0  0  0  0  0  0  0  0  0  0
   -1.4442   -2.5235    1.0792 O   0  0  0  0  0  0  0  0  0  0  0  0
   -3.5468   -2.2683    0.2916 O   0  0  0  0  0  0  0  0  0  0  0  0
   -0.5630   -0.2170    0.1519 N   0  0  0  0  0  0  0  0  0  0  0  0
    4.3785    0.4817    0.5741 N   0  0  0  0  0  0  0  0  0  0  0  0
   -1.7693    3.1567    0.6616 N   0  0  0  0  0  0  0  0  0  0  0  0
   -2.3500    2.2763   -1.4595 N   0  0  0  0  0  0  0  0  0  0  0  0
   -1.9599   -0.4909   -0.1336 C   0  0  0  0  0  0  0  0  0  0  0  0
    1.8358   -0.2310   -0.2444 C   0  0  0  0  0  0  0  0  0  0  0  0
    0.4704   -0.6150   -0.6827 C   0  0  0  0  0  0  0  0  0  0  0  0
   -2.4073   -1.8327    0.4220 C   0  0  0  0  0  0  0  0  0  0  0  0
    2.9041   -1.0030   -0.6373 C   0  0  0  0  0  0  0  0  0  0  0  0
    1.9948    0.8848    0.5437 C   0  0  0  0  0  0  0  0  0  0  0  0
    4.1572   -0.6038   -0.2010 C   0  0  0  0  0  0  0  0  0  0  0  0
    3.2886    1.1997    0.9270 C   0  0  0  0  0  0  0  0  0  0  0  0
   -2.3123    2.2180   -0.1675 C   0  0  0  0  0  0  0  0  0  0  0  0
  1  9  1  0
  1 17  1  0
  2 11  2  0
  3 12  1  0
  4 12  2  0
  5  9  1  0
  5 11  1  0
  6 15  2  0
  6 16  1  0
  7 17  1  0
  8 17  2  0
  9 12  1  0
 10 11  1  0
 10 13  2  0
 10 14  1  0
 13 15  1  0
 14 16  2  0
M  END
>  <PUBCHEM_COMPOUND_CID>  (1) 
45143

>  <PUBCHEM_CONFORMER_RMSD>  (1) 
0.8

>  <PUBCHEM_CONFORMER_DIVERSEORDER>  (1) 
1
10
7
21
29
23
12
17
22
18
13
28
11
14
2
25
26
15
27
8
20
6
16
5
3
24
9
4
19

>  <PUBCHEM_MMFF94_PARTIAL_CHARGES>  (1) 
26
1 -0.37
10 0.09
11 0.54
12 0.66
13 -0.15
14 -0.15
15 0.16
16 0.16
17 0.64
19 0.37
2 -0.57
20 0.15
21 0.15
22 0.15
23 0.15
24 0.5
25 0.4
26 0.4
27 0.4
3 -0.65
4 -0.57
5 -0.73
6 -0.62
7 -0.85
8 -0.85
9 0.59

>  <PUBCHEM_EFFECTIVE_ROTOR_COUNT>  (1) 
6

>  <PUBCHEM_PHARMACOPHORE_FEATURES>  (1) 
10
1 2 acceptor
1 3 acceptor
1 4 acceptor
1 5 donor
1 6 acceptor
1 7 donor
1 8 donor
3 3 4 12 anion
3 7 8 17 cation
6 6 10 13 14 15 16 rings

>  <PUBCHEM_HEAVY_ATOM_COUNT>  (1) 
17

>  <PUBCHEM_ATOM_DEF_STEREO_COUNT>  (1) 
0

>  <PUBCHEM_ATOM_UDEF_STEREO_COUNT>  (1) 
1

>  <PUBCHEM_BOND_DEF_STEREO_COUNT>  (1) 
0

>  <PUBCHEM_BOND_UDEF_STEREO_COUNT>  (1) 
0

>  <PUBCHEM_ISOTOPIC_ATOM_COUNT>  (1) 
0

>  <PUBCHEM_COMPONENT_COUNT>  (1) 
1

>  <PUBCHEM_CACTVS_TAUTO_COUNT>  (1) 
2

>  <PUBCHEM_CONFORMER_ID>  (1) 
0000B05700000001

>  <PUBCHEM_MMFF94_ENERGY>  (1) 
38.2745

>  <PUBCHEM_FEATURE_SELFOVERLAP>  (1) 
50.844

>  <PUBCHEM_SHAPE_FINGERPRINT>  (1) 
10366900 7 18338518663594724386
10608611 8 18343300357974894136
12077114 3 18271518728496905836
12500047 106 18262234404961907998
13296909 8 18260265256914181325
14289901 80 18187088377509248778
15375462 6 18268151035965755596
15653759 3 18412267246233317562
18186145 218 17417813911815935020
19049666 15 18269844124953829798
20510252 161 18409166636269933979
20600515 1 18190474933589601559
20645477 56 18336834086936587565
20645477 70 17346321432537682790
21524375 3 18122905322435232853
22182937 141 18129389211134443409
22943178 12 18272373053442966094
2306618 200 18130795550856570691
23402539 116 18341044224919437743
23419403 2 14617370019047019015
23493267 7 18339640036658395024
23557571 272 18411992372605464759
23559900 14 18411417285296277110
23845131 108 17834131745165344521
2748010 2 18059859454600375252
305870 269 17899980422140364233
6049 1 18201453466713691198
7615 1 17604161401364634814
81228 2 18262821621775957379
84936 182 17400627230603586549
8809292 202 18340493278813572024
9709674 26 18272654493759193230

>  <PUBCHEM_SHAPE_MULTIPOLES>  (1) 
316.17
7.2
2.82
1.11
5.13
0.76
-0.28
0.39
1.04
-3.46
0.33
-0.11
0.02
1.22

>  <PUBCHEM_SHAPE_SELFOVERLAP>  (1) 
640.59

>  <PUBCHEM_SHAPE_VOLUME>  (1) 
184.3

>  <PUBCHEM_COORDINATE_TYPE>  (1) 
2
5
10

$$$$
