45146
     RDKit          3D

 13 13  0  0  0  0  0  0  0  0999 V2000
    5.4018   -0.9062    0.0366 S   0  0  0  0  0  0  0  0  0  0  0  0
    1.5150   -0.1402    0.0077 O   0  0  0  0  0  0  0  0  0  0  0  0
    3.3530    1.2479   -0.0542 O   0  0  0  0  0  0  0  0  0  0  0  0
   -0.7655    0.5337   -0.0235 C   0  0  0  0  0  0  0  0  0  0  0  0
    0.6540    0.9907   -0.0436 C   0  0  0  0  0  0  0  0  0  0  0  0
   -3.4207   -0.3225    0.0137 C   0  0  0  0  0  0  0  0  0  0  0  0
   -1.4288    0.2658   -1.2210 C   0  0  0  0  0  0  0  0  0  0  0  0
   -1.4298    0.3740    1.1926 C   0  0  0  0  0  0  0  0  0  0  0  0
   -2.7564   -0.1624   -1.2024 C   0  0  0  0  0  0  0  0  0  0  0  0
   -2.7574   -0.0539    1.2112 C   0  0  0  0  0  0  0  0  0  0  0  0
   -4.8398   -0.7806    0.0340 C   0  0  0  0  0  0  0  0  0  0  0  0
    2.8608    0.1295   -0.0041 C   0  0  0  0  0  0  0  0  0  0  0  0
    3.6136   -1.1759    0.0531 C   0  0  0  0  0  0  0  0  0  0  0  0
  1 13  1  0
  2  5  1  0
  2 12  1  0
  3 12  2  0
  4  5  1  0
  4  7  2  0
  4  8  1  0
  6  9  2  0
  6 10  1  0
  6 11  1  0
  7  9  1  0
  8 10  2  0
 12 13  1  0
M  END
>  <PUBCHEM_COMPOUND_CID>  (1) 
45146

>  <PUBCHEM_CONFORMER_RMSD>  (1) 
0.6

>  <PUBCHEM_CONFORMER_DIVERSEORDER>  (1) 
1
23
13
24
21
16
14
15
2
5
9
7
18
8
10
17
3
22
6
4
26
25
20
19
11
12

>  <PUBCHEM_MMFF94_PARTIAL_CHARGES>  (1) 
18
1 -0.41
10 -0.15
11 0.14
12 0.66
13 0.29
16 0.15
17 0.15
18 0.15
19 0.15
2 -0.43
25 0.18
3 -0.57
4 -0.14
5 0.42
6 -0.14
7 -0.15
8 -0.15
9 -0.15

>  <PUBCHEM_EFFECTIVE_ROTOR_COUNT>  (1) 
4

>  <PUBCHEM_PHARMACOPHORE_FEATURES>  (1) 
2
1 3 acceptor
6 4 6 7 8 9 10 rings

>  <PUBCHEM_HEAVY_ATOM_COUNT>  (1) 
13

>  <PUBCHEM_ATOM_DEF_STEREO_COUNT>  (1) 
0

>  <PUBCHEM_ATOM_UDEF_STEREO_COUNT>  (1) 
0

>  <PUBCHEM_BOND_DEF_STEREO_COUNT>  (1) 
0

>  <PUBCHEM_BOND_UDEF_STEREO_COUNT>  (1) 
0

>  <PUBCHEM_ISOTOPIC_ATOM_COUNT>  (1) 
0

>  <PUBCHEM_COMPONENT_COUNT>  (1) 
1

>  <PUBCHEM_CACTVS_TAUTO_COUNT>  (1) 
1

>  <PUBCHEM_CONFORMER_ID>  (1) 
0000B05A00000001

>  <PUBCHEM_MMFF94_ENERGY>  (1) 
25.8457

>  <PUBCHEM_FEATURE_SELFOVERLAP>  (1) 
10.148

>  <PUBCHEM_SHAPE_FINGERPRINT>  (1) 
114248 4 16660365874674117110
12251169 10 15985100816717190216
13214271 11 10952044563768553401
14252887 29 18059860515853111646
14911166 2 15574712517292909895
17870717 6 16660934278962042234
18186145 218 17095518491760589652
187816 3 15719110262629716685
19050596 39 16845567643173661034
1986462 14 16877941611733284326
200 152 18410007723878497482
20112054 13 11240000057327931242
20279233 1 17458346351232574976
20300324 65 15285362807870164142
20325693 3 15285646469069617915
20432913 95 18413110533150389210
20645477 70 18260546706485422538
20871999 31 16008747987436274911
21119208 17 14418136214201906762
22485316 2 18408601491577616107
23402539 116 18409727331196745540
23402655 69 12107780809273172854
23403322 49 17822289037880382250
23557571 272 16950561043417846718
23559900 14 16370730365801723700
26918003 58 18273214205402238155
42 15 16630809876969948598
5374978 207 16558747935971352178

>  <PUBCHEM_SHAPE_MULTIPOLES>  (1) 
259.64
10.2
1.07
1.06
7.9
0
-0.02
-0.2
4.1
-0.95
-0.04
0.71
0
-0.08

>  <PUBCHEM_SHAPE_SELFOVERLAP>  (1) 
517.758

>  <PUBCHEM_SHAPE_VOLUME>  (1) 
154.9

>  <PUBCHEM_COORDINATE_TYPE>  (1) 
2
5
10

$$$$
