4515
     RDKit          3D

 26 28  0  0  1  0  0  0  0  0999 V2000
   -0.1716   -1.1161   -1.5438 O   0  0  0  0  0  0  0  0  0  0  0  0
    3.3755   -1.5440    2.8223 O   0  0  0  0  0  0  0  0  0  0  0  0
    3.6939    0.7015    3.1161 O   0  0  0  0  0  0  0  0  0  0  0  0
    2.6340   -0.8687   -1.2540 N   0  0  0  0  0  0  0  0  0  0  0  0
   -1.4378   -1.4279   -1.0316 N   0  0  0  0  0  0  0  0  0  0  0  0
    3.9137   -0.4708   -1.8555 C   0  0  0  0  0  0  0  0  0  0  0  0
    2.8171   -1.2488    0.1600 C   0  0  0  0  0  0  0  0  0  0  0  0
    4.4794    0.7700   -1.1473 C   0  0  0  0  0  0  0  0  0  0  0  0
    2.0182   -1.9608   -2.0053 C   0  0  0  0  0  0  0  0  0  0  0  0
    3.6223   -0.2475    0.9379 C   0  0  0  0  0  0  0  0  0  0  0  0
    4.3745    0.6918    0.3483 C   0  0  0  0  0  0  0  0  0  0  0  0
    0.6383   -2.2809   -1.4532 C   0  0  0  0  0  0  0  0  0  0  0  0
    3.5731   -0.2771    2.4005 C   0  0  0  0  0  0  0  0  0  0  0  0
   -2.0188   -0.3929   -0.4965 C   0  0  0  0  0  0  0  0  0  0  0  0
   -1.2960    0.9179   -0.5098 C   0  0  0  0  0  0  0  0  0  0  0  0
   -3.3667   -0.4466    0.1196 C   0  0  0  0  0  0  0  0  0  0  0  0
   -0.4811    1.2267    0.5526 C   0  0  0  0  0  0  0  0  0  0  0  0
   -3.9032    0.7073    0.6556 C   0  0  0  0  0  0  0  0  0  0  0  0
   -1.4780    1.7553   -1.5838 C   0  0  0  0  0  0  0  0  0  0  0  0
   -4.0458   -1.6485    0.1387 C   0  0  0  0  0  0  0  0  0  0  0  0
    0.1927    2.4481    0.5403 C   0  0  0  0  0  0  0  0  0  0  0  0
   -5.1710    0.6571    1.2349 C   0  0  0  0  0  0  0  0  0  0  0  0
   -0.8040    2.9764   -1.5960 C   0  0  0  0  0  0  0  0  0  0  0  0
   -5.3138   -1.6986    0.7180 C   0  0  0  0  0  0  0  0  0  0  0  0
    0.0313    3.3228   -0.5340 C   0  0  0  0  0  0  0  0  0  0  0  0
   -5.8763   -0.5458    1.2660 C   0  0  0  0  0  0  0  0  0  0  0  0
  1  5  1  0
  1 12  1  0
  2 13  1  0
  3 13  2  0
  4  6  1  0
  4  7  1  0
  4  9  1  0
  5 14  2  3
  6  8  1  0
  7 10  1  0
  8 11  1  0
  9 12  1  0
 10 11  2  0
 10 13  1  0
 14 15  1  0
 14 16  1  0
 15 17  2  0
 15 19  1  0
 16 18  2  0
 16 20  1  0
 17 21  1  0
 18 22  1  0
 19 23  2  0
 20 24  2  0
 21 25  2  0
 22 26  2  0
 23 25  1  0
 24 26  1  0
M  END
>  <PUBCHEM_COMPOUND_CID>  (1) 
4515

>  <PUBCHEM_CONFORMER_RMSD>  (1) 
0.8

>  <PUBCHEM_CONFORMER_DIVERSEORDER>  (1) 
2
52
75
66
50
92
3
34
15
63
6
105
79
47
10
71
4
58
19
76
17
84
45
32
14
97
78
11
13
1
70
94
24
99
73
48
107
27
96
5
74
83
93
72
40
67
44
103
35
9
98
88
90
41
30
28
89
53
18
20
64
26
16
59
85
86
36
8
110
25
104
87
49
65
80
54
21
56
51
7
77
37
31
39
43
91
108
23
12
55
29
81
102
82
42
68
100
22
106
109
101
95
33
57
61
62
111
38
60
46
69

>  <PUBCHEM_MMFF94_PARTIAL_CHARGES>  (1) 
38
1 -0.22
10 -0.12
11 -0.29
12 0.28
13 0.71
14 0.28
15 0.09
16 0.09
17 -0.15
18 -0.15
19 -0.15
2 -0.65
20 -0.15
21 -0.15
22 -0.15
23 -0.15
24 -0.15
25 -0.15
26 -0.15
3 -0.57
35 0.15
38 0.5
39 0.15
4 -0.81
40 0.15
41 0.15
42 0.15
43 0.15
44 0.15
45 0.15
46 0.15
47 0.15
48 0.15
5 -0.51
6 0.27
7 0.41
8 0.14
9 0.27

>  <PUBCHEM_EFFECTIVE_ROTOR_COUNT>  (1) 
7.8

>  <PUBCHEM_PHARMACOPHORE_FEATURES>  (1) 
8
1 2 acceptor
1 3 acceptor
1 4 cation
1 5 acceptor
3 2 3 13 anion
6 15 17 19 21 23 25 rings
6 16 18 20 22 24 26 rings
6 4 6 7 8 10 11 rings

>  <PUBCHEM_HEAVY_ATOM_COUNT>  (1) 
26

>  <PUBCHEM_ATOM_DEF_STEREO_COUNT>  (1) 
0

>  <PUBCHEM_ATOM_UDEF_STEREO_COUNT>  (1) 
0

>  <PUBCHEM_BOND_DEF_STEREO_COUNT>  (1) 
0

>  <PUBCHEM_BOND_UDEF_STEREO_COUNT>  (1) 
0

>  <PUBCHEM_ISOTOPIC_ATOM_COUNT>  (1) 
0

>  <PUBCHEM_COMPONENT_COUNT>  (1) 
1

>  <PUBCHEM_CACTVS_TAUTO_COUNT>  (1) 
1

>  <PUBCHEM_CONFORMER_ID>  (1) 
000011A300000002

>  <PUBCHEM_MMFF94_ENERGY>  (1) 
72.4001

>  <PUBCHEM_FEATURE_SELFOVERLAP>  (1) 
40.651

>  <PUBCHEM_SHAPE_FINGERPRINT>  (1) 
10165383 225 17775014500789369838
11112241 14 16916486147539432137
11135609 12 18268710507502342370
11595378 159 18187364290028570279
12107698 1 18187093832444879572
12422481 6 18341611482466243273
12553582 1 18410005567709982596
12633257 1 18262234525295118387
12788726 201 17968670323494706933
13383661 66 14715167064464386082
13726171 33 18337403651536206172
14170010 4 18200887206036816609
14341114 328 18187366557945629370
14429115 67 16153706496604382587
14787075 74 17822017556986490627
14840074 17 18193268813979339004
14955137 171 18129679598210010189
150020 26 17839168620252857938
15163728 17 12823032927699945299
15475509 35 16879088510563400003
1601671 61 18271820033131874557
17492 89 17750504084198148586
1813 80 18187088377446348069
19315092 285 16226310565633837576
20567600 247 15792589602775807579
20691752 17 18271509975306473990
21033648 29 17632297856959904787
21304303 282 16956714898783332765
23559900 14 18048321037554923439
25222932 49 17896328101921449371
3187 122 18262227829161711061
3411729 13 18120945159143409365
345986 75 18186801374657083153
350125 39 18127988412088459118
3797600 57 18187365433122783126
469060 322 18198316606936361319
5252454 2 17775278379153381918
58260988 393 17749108885452102532
9777508 108 17693109465601685265

>  <PUBCHEM_SHAPE_MULTIPOLES>  (1) 
507.5
11.09
2.85
2.4
7.31
1.91
-1.33
-3.96
-5.39
0.5
1.11
-3.32
-0.57
0.4

>  <PUBCHEM_SHAPE_SELFOVERLAP>  (1) 
1084.144

>  <PUBCHEM_SHAPE_VOLUME>  (1) 
280.2

>  <PUBCHEM_COORDINATE_TYPE>  (1) 
2
5
10

$$$$
