45156
     RDKit          3D

 20 21  0  0  1  0  0  0  0  0999 V2000
    0.1034    1.4185   -0.4292 O   0  0  0  0  0  0  0  0  0  0  0  0
    1.5177    0.9642    1.3354 O   0  0  0  0  0  0  0  0  0  0  0  0
   -3.1373    0.1680   -0.2264 N   0  0  0  0  0  0  0  0  0  0  0  0
   -3.6836   -0.9973   -0.9597 C   0  0  0  0  0  0  0  0  0  0  0  0
   -4.1234   -2.0945    0.0307 C   0  0  0  0  0  0  0  0  0  0  0  0
   -4.1257    0.7113    0.7219 C   0  0  0  0  0  0  0  0  0  0  0  0
   -5.1222   -1.5699    1.0542 C   0  0  0  0  0  0  0  0  0  0  0  0
   -4.5656   -0.3342    1.7440 C   0  0  0  0  0  0  0  0  0  0  0  0
   -2.6935    1.2387   -1.1239 C   0  0  0  0  0  0  0  0  0  0  0  0
   -2.6689   -1.6123   -1.9342 C   0  0  0  0  0  0  0  0  0  0  0  0
   -2.0857    2.3844   -0.3212 C   0  0  0  0  0  0  0  0  0  0  0  0
   -0.8697    1.9269    0.4729 C   0  0  0  0  0  0  0  0  0  0  0  0
    1.2658    0.9635    0.1381 C   0  0  0  0  0  0  0  0  0  0  0  0
    2.1856    0.4624   -0.9498 C   0  0  0  0  0  0  0  0  0  0  0  0
    3.4800   -0.0944   -0.4153 C   0  0  0  0  0  0  0  0  0  0  0  0
    4.5695    0.7488   -0.2524 C   0  0  0  0  0  0  0  0  0  0  0  0
    3.5623   -1.4414   -0.0946 C   0  0  0  0  0  0  0  0  0  0  0  0
    5.7677    0.2335    0.2419 C   0  0  0  0  0  0  0  0  0  0  0  0
    4.7604   -1.9568    0.3997 C   0  0  0  0  0  0  0  0  0  0  0  0
    5.8631   -1.1194    0.5680 C   0  0  0  0  0  0  0  0  0  0  0  0
  1 12  1  0
  1 13  1  0
  2 13  2  0
  3  4  1  0
  3  6  1  0
  3  9  1  0
  4  5  1  0
  4 10  1  0
  5  7  1  0
  6  8  1  0
  7  8  1  0
  9 11  1  0
 11 12  1  0
 13 14  1  0
 14 15  1  0
 15 16  2  0
 15 17  1  0
 16 18  1  0
 17 19  2  0
 18 20  2  0
 19 20  1  0
M  END
>  <PUBCHEM_COMPOUND_CID>  (1) 
45156

>  <PUBCHEM_CONFORMER_RMSD>  (1) 
1

>  <PUBCHEM_CONFORMER_DIVERSEORDER>  (1) 
12
259
305
302
271
92
38
10
139
208
71
291
162
249
212
268
50
287
1
178
70
304
277
104
267
292
89
234
146
223
53
200
275
82
231
290
270
93
64
228
131
297
207
67
63
173
37
238
88
303
282
220
123
23
306
77
99
59
236
244
21
47
204
98
101
160
111
147
127
225
240
132
242
243
299
20
192
74
83
3
128
300
45
193
35
116
206
61
235
75
209
121
156
174
126
224
211
68
114
46
247
171
190
289
161
246
142
25
97
29
216
230
22
237
7
57
69
108
33
264
133
188
301
18
11
187
62
124
248
140
145
6
284
26
154
213
149
203
222
295
189
148
151
273
118
134
182
254
233
294
30
288
51
43
78
201
73
44
86
274
8
40
94
66
85
205
195
65
41
96
56
95
196
194
181
91
186
279
280
19
163
278
159
185
49
239
215
307
285
36
217
87
79
232
176
125
257
48
286
42
252
226
115
16
269
166
262
136
129
168
260
296
15
180
135
28
13
245
4
138
184
54
272
218
120
152
169
103
52
175
76
17
72
210
113
276
158
150
199
39
27
177
293
183
157
137
283
255
179
80
102
5
281
32
9
197
221
34
58
90
55
60
106
266
202
119
117
263
298
122
167
31
144
109
250
130
100
214
24
261
84
251
143
81
155
219
107
265
2
170
14
253
229
172
258
165
105
110
256
241
164
227
153
112
141
198
191

>  <PUBCHEM_MMFF94_PARTIAL_CHARGES>  (1) 
20
1 -0.43
12 0.28
13 0.66
14 0.2
15 -0.14
16 -0.15
17 -0.15
18 -0.15
19 -0.15
2 -0.57
20 -0.15
3 -0.81
4 0.27
41 0.15
42 0.15
43 0.15
44 0.15
45 0.15
6 0.27
9 0.27

>  <PUBCHEM_EFFECTIVE_ROTOR_COUNT>  (1) 
8.2

>  <PUBCHEM_PHARMACOPHORE_FEATURES>  (1) 
4
1 2 acceptor
1 3 cation
6 15 16 17 18 19 20 rings
6 3 4 5 6 7 8 rings

>  <PUBCHEM_HEAVY_ATOM_COUNT>  (1) 
20

>  <PUBCHEM_ATOM_DEF_STEREO_COUNT>  (1) 
0

>  <PUBCHEM_ATOM_UDEF_STEREO_COUNT>  (1) 
1

>  <PUBCHEM_BOND_DEF_STEREO_COUNT>  (1) 
0

>  <PUBCHEM_BOND_UDEF_STEREO_COUNT>  (1) 
0

>  <PUBCHEM_ISOTOPIC_ATOM_COUNT>  (1) 
0

>  <PUBCHEM_COMPONENT_COUNT>  (1) 
1

>  <PUBCHEM_CACTVS_TAUTO_COUNT>  (1) 
1

>  <PUBCHEM_CONFORMER_ID>  (1) 
0000B0640000000C

>  <PUBCHEM_MMFF94_ENERGY>  (1) 
28.3449

>  <PUBCHEM_FEATURE_SELFOVERLAP>  (1) 
20.297

>  <PUBCHEM_SHAPE_FINGERPRINT>  (1) 
11089746 13 10303813147070517704
11370993 144 15697725830626212860
11552529 35 16486114253654179767
11796584 16 18263638455799120136
12596602 18 17203611518594818666
12633257 1 17203613730702929111
13103583 49 17845946211831370171
13167823 11 18335980866372232940
13941219 33 18339088099090797913
14123255 352 10015865383571155216
1420 369 18335426759387306358
14251740 79 17023190443689912691
14251751 18 18409167697205899352
14251751 93 18261952929774129271
14251764 30 17678190476066229795
146900 427 17774720978487832000
14765038 42 17917441950910984834
15183329 4 8718554926232755872
15537594 2 18342182193188276254
16110190 28 18272937154046494655
17349148 13 17675927577887895216
17780758 139 17988926660862645529
17857418 61 18411978070116559478
1813 80 18262533562340303365
19377110 9 18341052999505968464
19958102 18 15936408948713527722
20281389 69 11024102149285183470
21054139 6 17675922084825275090
21403212 168 18270692966059635697
21503847 285 12391503188325912114
22393880 68 16950551182088740037
23402539 116 17385722448735465124
235170 7 16153703219549694982
23559900 14 18337377305684267624
25122255 55 18267311937133239542
2838139 119 9223237325242810923
329604 57 18261395572179305238
351380 3 18410012147737289650
5104073 3 18342171112663204896
6431902 208 18334011705034091450
7495541 125 18272366486670261224
7970288 3 18261677098812460915

>  <PUBCHEM_SHAPE_MULTIPOLES>  (1) 
394.87
14.45
2.32
1.34
10.19
0.01
0.1
7.23
-3.35
-1.31
0.11
-1.62
0.3
-0.26

>  <PUBCHEM_SHAPE_SELFOVERLAP>  (1) 
802.566

>  <PUBCHEM_SHAPE_VOLUME>  (1) 
228.9

>  <PUBCHEM_COORDINATE_TYPE>  (1) 
2
5
10

$$$$
