45166
     RDKit          3D

 22 22  0  0  0  0  0  0  0  0999 V2000
   -1.7710   -1.4871    1.0148 O   0  0  0  0  0  0  0  0  0  0  0  0
   -3.8933    0.2715    0.7971 O   0  0  0  0  0  0  0  0  0  0  0  0
    0.1628   -2.6536   -0.3939 O   0  0  0  0  0  0  0  0  0  0  0  0
    1.5159   -1.1042   -1.4660 N   0  0  0  0  0  0  0  0  0  0  0  0
    3.9368   -0.2690   -0.1502 N   0  0  0  0  0  0  0  0  0  0  0  0
    2.5609    2.6095    1.2698 C   0  0  0  0  0  0  0  0  0  0  0  0
    3.8415    1.7916    1.1246 C   0  0  0  0  0  0  0  0  0  0  0  0
    1.6928    2.5645    0.0102 C   0  0  0  0  0  0  0  0  0  0  0  0
    2.7132   -1.9006   -1.4763 C   0  0  0  0  0  0  0  0  0  0  0  0
    3.5558   -1.6750   -0.2329 C   0  0  0  0  0  0  0  0  0  0  0  0
   -0.8320   -0.6212   -1.0089 C   0  0  0  0  0  0  0  0  0  0  0  0
    3.5312    0.3342    0.9104 C   0  0  0  0  0  0  0  0  0  0  0  0
   -1.8341   -0.6226   -0.0385 C   0  0  0  0  0  0  0  0  0  0  0  0
    0.4567    3.4382    0.1563 C   0  0  0  0  0  0  0  0  0  0  0  0
    0.3209   -1.5536   -0.9170 C   0  0  0  0  0  0  0  0  0  0  0  0
   -2.9076    0.2619   -0.1432 C   0  0  0  0  0  0  0  0  0  0  0  0
   -0.9034    0.2648   -2.0839 C   0  0  0  0  0  0  0  0  0  0  0  0
   -2.9789    1.1478   -1.2183 C   0  0  0  0  0  0  0  0  0  0  0  0
   -1.9767    1.1492   -2.1886 C   0  0  0  0  0  0  0  0  0  0  0  0
   -1.0934   -1.0332    2.1839 C   0  0  0  0  0  0  0  0  0  0  0  0
   -1.1439   -2.1201    3.2364 C   0  0  0  0  0  0  0  0  0  0  0  0
   -4.9542    1.2070    0.6143 C   0  0  0  0  0  0  0  0  0  0  0  0
  1 13  1  0
  1 20  1  0
  2 16  1  0
  2 22  1  0
  3 15  2  0
  4  9  1  0
  4 15  1  0
  5 10  1  0
  5 12  2  0
  6  7  1  0
  6  8  1  0
  7 12  1  0
  8 14  1  0
  9 10  1  0
 11 13  2  0
 11 15  1  0
 11 17  1  0
 13 16  1  0
 16 18  2  0
 17 19  2  0
 18 19  1  0
 20 21  1  0
M  END
>  <PUBCHEM_COMPOUND_CID>  (1) 
45166

>  <PUBCHEM_CONFORMER_RMSD>  (1) 
1

>  <PUBCHEM_CONFORMER_DIVERSEORDER>  (1) 
1
90
13
12
161
48
77
160
76
20
30
71
42
62
137
146
80
118
130
27
150
143
59
135
103
129
18
36
74
157
133
145
148
60
158
55
7
51
154
46
152
81
68
141
134
65
151
105
106
56
112
19
37
79
5
155
39
88
94
63
119
82
109
140
138
43
110
38
17
14
114
139
95
10
91
15
66
132
131
29
28
2
73
149
67
159
127
156
111
100
44
24
97
93
144
25
108
102
8
45
47
69
117
98
4
32
58
49
70
126
64
125
86
54
11
124
31
128
153
101
116
85
147
16
122
52
57
115
83
3
120
162
84
89
136
6
123
75
26
50
22
92
78
9
113
23
21
41
33
61
96
121
107
72
87
34
104
40
53
142
35
99

>  <PUBCHEM_MMFF94_PARTIAL_CHARGES>  (1) 
23
1 -0.36
10 0.25
11 0.09
12 0.33
13 0.08
15 0.54
16 0.08
17 -0.15
18 -0.15
19 -0.15
2 -0.36
20 0.28
22 0.28
3 -0.57
33 0.06
37 0.37
38 0.15
39 0.15
4 -0.73
40 0.15
5 -0.7
7 0.06
9 0.3

>  <PUBCHEM_EFFECTIVE_ROTOR_COUNT>  (1) 
11

>  <PUBCHEM_PHARMACOPHORE_FEATURES>  (1) 
7
1 1 acceptor
1 14 hydrophobe
1 2 acceptor
1 3 acceptor
1 4 donor
1 5 acceptor
6 11 13 16 17 18 19 rings

>  <PUBCHEM_HEAVY_ATOM_COUNT>  (1) 
22

>  <PUBCHEM_ATOM_DEF_STEREO_COUNT>  (1) 
0

>  <PUBCHEM_ATOM_UDEF_STEREO_COUNT>  (1) 
0

>  <PUBCHEM_BOND_DEF_STEREO_COUNT>  (1) 
0

>  <PUBCHEM_BOND_UDEF_STEREO_COUNT>  (1) 
0

>  <PUBCHEM_ISOTOPIC_ATOM_COUNT>  (1) 
0

>  <PUBCHEM_COMPONENT_COUNT>  (1) 
1

>  <PUBCHEM_CACTVS_TAUTO_COUNT>  (1) 
2

>  <PUBCHEM_CONFORMER_ID>  (1) 
0000B06E00000001

>  <PUBCHEM_MMFF94_ENERGY>  (1) 
55.1868

>  <PUBCHEM_FEATURE_SELFOVERLAP>  (1) 
35.535

>  <PUBCHEM_SHAPE_FINGERPRINT>  (1) 
10366900 7 17968935422167137278
11244481 83 17678475270656916732
11640471 11 16773521057052627188
12403259 327 17968089850406644514
12633257 1 17895745317956559784
14251764 3 18114455687070779001
18219364 16 18270675502047226838
18981168 100 17629505226168597950
19930381 70 18342731910183798135
21475661 188 18266173942472137653
23419403 2 18120125928954945299
23559900 14 17677069965773709262
3493558 16 16338935543137822889
35225 105 17530960297985333336
4072396 5 16226333617097607663
4409770 3 14245370729350013311
474 4 17917705795041735494
539174 4 17631188522657201706

>  <PUBCHEM_SHAPE_MULTIPOLES>  (1) 
425.18
7.21
3.28
2.39
0.14
1.51
-1.02
2.32
-1.37
-2.09
-0.84
0.95
-1.18
2.22

>  <PUBCHEM_SHAPE_SELFOVERLAP>  (1) 
849.242

>  <PUBCHEM_SHAPE_VOLUME>  (1) 
250.9

>  <PUBCHEM_COORDINATE_TYPE>  (1) 
2
5
10

$$$$
