45177
     RDKit          3D

 24 26  0  0  1  0  0  0  0  0999 V2000
    0.9396    0.2517    1.8075 O   0  0  0  0  0  0  0  0  0  0  0  0
   -2.4556    1.3212   -0.5954 N   0  0  0  0  0  0  0  0  0  0  0  0
    0.6470   -0.1991   -0.4478 N   0  0  0  0  0  0  0  0  0  0  0  0
   -2.6908    2.7588   -0.7904 C   0  0  0  0  0  0  0  0  0  0  0  0
   -3.7131    0.6084   -0.3298 C   0  0  0  0  0  0  0  0  0  0  0  0
   -3.3524    3.3813    0.4400 C   0  0  0  0  0  0  0  0  0  0  0  0
   -4.4080    1.1607    0.9159 C   0  0  0  0  0  0  0  0  0  0  0  0
   -4.6478    2.6614    0.7973 C   0  0  0  0  0  0  0  0  0  0  0  0
   -1.7805    0.7507   -1.7608 C   0  0  0  0  0  0  0  0  0  0  0  0
   -1.4817   -0.7320   -1.5249 C   0  0  0  0  0  0  0  0  0  0  0  0
   -0.5693   -0.9711   -0.3069 C   0  0  0  0  0  0  0  0  0  0  0  0
   -0.2434   -2.4299   -0.0635 C   0  0  0  0  0  0  0  0  0  0  0  0
   -1.0708   -3.1786    0.7544 C   0  0  0  0  0  0  0  0  0  0  0  0
    0.8746   -2.9807   -0.6643 C   0  0  0  0  0  0  0  0  0  0  0  0
    1.3040    0.3526    0.6390 C   0  0  0  0  0  0  0  0  0  0  0  0
   -0.7704   -4.5222    0.9791 C   0  0  0  0  0  0  0  0  0  0  0  0
    1.1750   -4.3242   -0.4398 C   0  0  0  0  0  0  0  0  0  0  0  0
    2.5245    1.1394    0.3246 C   0  0  0  0  0  0  0  0  0  0  0  0
    0.3524   -5.0949    0.3819 C   0  0  0  0  0  0  0  0  0  0  0  0
    2.9073    2.1471    1.1852 C   0  0  0  0  0  0  0  0  0  0  0  0
    3.2355    0.8372   -0.8180 C   0  0  0  0  0  0  0  0  0  0  0  0
    4.0530    2.8860    0.8898 C   0  0  0  0  0  0  0  0  0  0  0  0
    4.3811    1.5758   -1.1135 C   0  0  0  0  0  0  0  0  0  0  0  0
    4.7899    2.6004   -0.2595 C   0  0  0  0  0  0  0  0  0  0  0  0
  1 15  2  0
  2  4  1  0
  2  5  1  0
  2  9  1  0
  3 11  1  0
  3 15  1  0
  4  6  1  0
  5  7  1  0
  6  8  1  0
  7  8  1  0
  9 10  1  0
 10 11  1  0
 11 12  1  0
 12 13  2  0
 12 14  1  0
 13 16  1  0
 14 17  2  0
 15 18  1  0
 16 19  2  0
 17 19  1  0
 18 20  2  0
 18 21  1  0
 20 22  1  0
 21 23  2  0
 22 24  2  0
 23 24  1  0
M  END
>  <PUBCHEM_COMPOUND_CID>  (1) 
45177

>  <PUBCHEM_CONFORMER_RMSD>  (1) 
0.8

>  <PUBCHEM_CONFORMER_DIVERSEORDER>  (1) 
4
102
107
63
100
59
56
106
97
34
24
77
104
57
86
74
93
28
95
68
49
70
39
55
84
45
71
80
65
62
89
99
9
41
96
30
51
48
82
108
60
15
101
20
47
42
40
5
53
66
38
50
43
67
12
61
103
26
98
31
91
14
3
85
2
75
11
92
64
19
23
90
33
17
25
72
58
22
78
35
105
76
32
69
83
21
36
46
1
87
18
13
94
81
10
6
52
79
88
7
29
73
16
44
8
27
54
37

>  <PUBCHEM_MMFF94_PARTIAL_CHARGES>  (1) 
31
1 -0.57
11 0.44
12 -0.14
13 -0.15
14 -0.15
15 0.54
16 -0.15
17 -0.15
18 0.09
19 -0.15
2 -0.81
20 -0.15
21 -0.15
22 -0.15
23 -0.15
24 -0.15
3 -0.73
4 0.27
40 0.37
41 0.15
42 0.15
43 0.15
44 0.15
45 0.15
46 0.15
47 0.15
48 0.15
49 0.15
5 0.27
50 0.15
9 0.27

>  <PUBCHEM_EFFECTIVE_ROTOR_COUNT>  (1) 
8.2

>  <PUBCHEM_PHARMACOPHORE_FEATURES>  (1) 
6
1 1 acceptor
1 2 cation
1 3 donor
6 12 13 14 16 17 19 rings
6 18 20 21 22 23 24 rings
6 2 4 5 6 7 8 rings

>  <PUBCHEM_HEAVY_ATOM_COUNT>  (1) 
24

>  <PUBCHEM_ATOM_DEF_STEREO_COUNT>  (1) 
0

>  <PUBCHEM_ATOM_UDEF_STEREO_COUNT>  (1) 
1

>  <PUBCHEM_BOND_DEF_STEREO_COUNT>  (1) 
0

>  <PUBCHEM_BOND_UDEF_STEREO_COUNT>  (1) 
0

>  <PUBCHEM_ISOTOPIC_ATOM_COUNT>  (1) 
0

>  <PUBCHEM_COMPONENT_COUNT>  (1) 
1

>  <PUBCHEM_CACTVS_TAUTO_COUNT>  (1) 
2

>  <PUBCHEM_CONFORMER_ID>  (1) 
0000B07900000004

>  <PUBCHEM_MMFF94_ENERGY>  (1) 
51.0096

>  <PUBCHEM_FEATURE_SELFOVERLAP>  (1) 
30.446

>  <PUBCHEM_SHAPE_FINGERPRINT>  (1) 
107951 10 18342748441634201276
12160290 23 17905577219588149870
12173636 292 18339074998934357324
12293681 160 17836326670499583863
12549972 3 17844240938332600016
12788726 201 17980176893115514607
13134695 92 17401473858898608917
133893 2 17835203824113781623
13533116 47 18122064201015881453
13955234 65 18121788231575042097
14713325 29 18193561305514722842
14955137 171 18049437042152411058
151778 21 18337107861074093656
15230672 131 18335431158520800310
15842332 3 17771881884761306117
17868525 174 17473544651334854329
1813 80 17121695424234943423
18785283 64 18190745228233755594
20101258 96 17545889690311329824
20600515 1 17406017500443380267
20739085 24 18187931603896202668
21120745 212 17470746857813419364
21304303 172 17691414422387933523
23366157 5 18121209884058219895
23419403 2 17249821625735602786
23557571 272 17762888171456122932
23559900 14 17759516674069517833
23845131 108 18408322186007854491
283562 15 18268417113901747295
458136 41 18337959978337943653
469060 322 16444736367031357253
59755656 520 18409448115795124716
6287921 2 18189346671155477165
6442390 28 18410019852998140013
6700243 42 17189018972729168244
6703917 75 18194430920149224844
6786 2 18409737256845405475
79837 15 18336827597246375666
81228 2 17905027502392005111

>  <PUBCHEM_SHAPE_MULTIPOLES>  (1) 
478.08
8.1
6.87
1.37
1.93
10.03
0.09
-13.38
-0.58
-0.91
-1.53
-0.05
-0.26
0.29

>  <PUBCHEM_SHAPE_SELFOVERLAP>  (1) 
1008.165

>  <PUBCHEM_SHAPE_VOLUME>  (1) 
267.4

>  <PUBCHEM_COORDINATE_TYPE>  (1) 
2
5
10

$$$$
