45170
     RDKit          3D

 19 20  0  0  0  0  0  0  0  0999 V2000
    0.5264    1.0918   -0.2947 O   0  0  0  0  0  0  0  0  0  0  0  0
   -0.0477    3.8242   -0.5049 O   0  0  0  0  0  0  0  0  0  0  0  0
    3.7205    0.8843    0.8397 O   0  0  0  0  0  0  0  0  0  0  0  0
    3.7303    0.5499   -1.4290 N   0  0  0  0  0  0  0  0  0  0  0  0
   -0.2177   -1.1589    0.0450 C   0  0  0  0  0  0  0  0  0  0  0  0
    0.8134   -0.2276   -0.0894 C   0  0  0  0  0  0  0  0  0  0  0  0
   -1.6044   -0.7528   -0.0285 C   0  0  0  0  0  0  0  0  0  0  0  0
    2.1434   -0.6416   -0.0156 C   0  0  0  0  0  0  0  0  0  0  0  0
    0.0854   -2.5055    0.2535 C   0  0  0  0  0  0  0  0  0  0  0  0
    2.4443   -1.9876    0.1927 C   0  0  0  0  0  0  0  0  0  0  0  0
    1.4153   -2.9196    0.3273 C   0  0  0  0  0  0  0  0  0  0  0  0
   -2.2822   -0.3744    1.1304 C   0  0  0  0  0  0  0  0  0  0  0  0
   -2.2636   -0.7399   -1.2576 C   0  0  0  0  0  0  0  0  0  0  0  0
    0.3804    1.9076    0.8642 C   0  0  0  0  0  0  0  0  0  0  0  0
    3.2352    0.3131   -0.1511 C   0  0  0  0  0  0  0  0  0  0  0  0
   -3.6192    0.0168    1.0602 C   0  0  0  0  0  0  0  0  0  0  0  0
   -3.6007   -0.3487   -1.3279 C   0  0  0  0  0  0  0  0  0  0  0  0
   -0.5807    3.0391    0.5547 C   0  0  0  0  0  0  0  0  0  0  0  0
   -4.2785    0.0298   -0.1690 C   0  0  0  0  0  0  0  0  0  0  0  0
  1  6  1  0
  1 14  1  0
  2 18  1  0
  3 15  2  0
  4 15  1  0
  5  6  2  0
  5  7  1  0
  5  9  1  0
  6  8  1  0
  7 12  2  0
  7 13  1  0
  8 10  2  0
  8 15  1  0
  9 11  2  0
 10 11  1  0
 12 16  1  0
 13 17  2  0
 14 18  1  0
 16 19  2  0
 17 19  1  0
M  END
>  <PUBCHEM_COMPOUND_CID>  (1) 
45170

>  <PUBCHEM_CONFORMER_RMSD>  (1) 
0.6

>  <PUBCHEM_CONFORMER_DIVERSEORDER>  (1) 
2
29
26
30
22
7
25
14
23
18
27
28
10
8
15
17
16
21
19
11
24
9
20
1
6
12
5
13
3
4

>  <PUBCHEM_MMFF94_PARTIAL_CHARGES>  (1) 
28
1 -0.36
10 -0.15
11 -0.15
12 -0.15
13 -0.15
14 0.28
15 0.54
16 -0.15
17 -0.15
18 0.28
19 -0.15
2 -0.68
20 0.15
21 0.15
22 0.15
23 0.15
24 0.15
27 0.15
28 0.15
3 -0.57
31 0.15
32 0.37
33 0.37
34 0.4
4 -0.8
6 0.08
8 0.09
9 -0.15

>  <PUBCHEM_EFFECTIVE_ROTOR_COUNT>  (1) 
5

>  <PUBCHEM_PHARMACOPHORE_FEATURES>  (1) 
7
1 1 acceptor
1 2 acceptor
1 2 donor
1 3 acceptor
1 4 donor
6 5 6 8 9 10 11 rings
6 7 12 13 16 17 19 rings

>  <PUBCHEM_HEAVY_ATOM_COUNT>  (1) 
19

>  <PUBCHEM_ATOM_DEF_STEREO_COUNT>  (1) 
0

>  <PUBCHEM_ATOM_UDEF_STEREO_COUNT>  (1) 
0

>  <PUBCHEM_BOND_DEF_STEREO_COUNT>  (1) 
0

>  <PUBCHEM_BOND_UDEF_STEREO_COUNT>  (1) 
0

>  <PUBCHEM_ISOTOPIC_ATOM_COUNT>  (1) 
0

>  <PUBCHEM_COMPONENT_COUNT>  (1) 
1

>  <PUBCHEM_CACTVS_TAUTO_COUNT>  (1) 
2

>  <PUBCHEM_CONFORMER_ID>  (1) 
0000B07200000002

>  <PUBCHEM_MMFF94_ENERGY>  (1) 
71.5202

>  <PUBCHEM_FEATURE_SELFOVERLAP>  (1) 
35.526

>  <PUBCHEM_SHAPE_FINGERPRINT>  (1) 
104564 63 18269281153356740877
10967382 1 18411136948016232674
10980938 120 18410292488800618027
11543360 7 16056598815276851338
11578080 2 17270561756757352681
12236239 1 17847062177663616155
12553582 1 18412545409515884289
13132413 78 18342462530077975721
13140716 1 18194118749277957520
14790565 3 18265913491065162596
15210252 30 18114179709426212109
15490181 8 17476906326225893537
16945 1 18408886265036585990
18186145 218 18341335564939921230
18219364 16 18263927811782440763
18785283 64 17972331873841623193
19784866 34 18337111284336751180
20600515 1 18269836583365973488
21041028 32 18193277390854345211
21197605 99 17765167073120920065
21501502 16 18122350064620474066
22112679 90 17845644859609090667
2334 1 17762618795064415088
23402539 116 18272366503738983662
23419403 2 16673802894360215242
23493267 7 17385726898194736346
23558518 356 17972605377015751512
25 1 18408038532923815287
2748010 2 18194116318189330622
34934 24 18343577439105056895
350125 39 18266182721627071816
394222 165 17603585266236199920
474 4 18198615729954698769
568465 68 18042140880363501099
589210 1 17905329528897750056
70251023 43 18124594176575419135
77492 1 17846211121135453419
81228 2 18118686517420194673

>  <PUBCHEM_SHAPE_MULTIPOLES>  (1) 
368.42
6.29
3.21
1.12
1.57
2.24
0.16
-0.36
0.81
-1.22
-0.31
0.46
0.08
-0.39

>  <PUBCHEM_SHAPE_SELFOVERLAP>  (1) 
790.987

>  <PUBCHEM_SHAPE_VOLUME>  (1) 
203.4

>  <PUBCHEM_COORDINATE_TYPE>  (1) 
2
5
10

$$$$
