45175
     RDKit          3D

 26 28  0  0  0  0  0  0  0  0999 V2000
   -2.4815    1.5311    1.4753 S   0  0  0  0  0  0  0  0  0  0  0  0
   -2.4189   -1.8228    1.2357 S   0  0  0  0  0  0  0  0  0  0  0  0
    0.3378    1.7825    2.5314 O   0  0  0  0  0  0  0  0  0  0  0  0
    0.4110   -2.1383    2.2418 O   0  0  0  0  0  0  0  0  0  0  0  0
   -1.0228    1.7647    0.6428 N   0  0  0  0  0  0  0  0  0  0  0  0
   -0.9585   -1.8770    0.3778 N   0  0  0  0  0  0  0  0  0  0  0  0
   -3.3757    0.6210    0.2258 C   0  0  0  0  0  0  0  0  0  0  0  0
   -3.3535   -0.7739    0.1212 C   0  0  0  0  0  0  0  0  0  0  0  0
    1.3774    2.0664    0.4536 C   0  0  0  0  0  0  0  0  0  0  0  0
    1.4504   -2.0538    0.1464 C   0  0  0  0  0  0  0  0  0  0  0  0
   -4.1308    1.3671   -0.6843 C   0  0  0  0  0  0  0  0  0  0  0  0
   -4.0789   -1.4151   -0.8831 C   0  0  0  0  0  0  0  0  0  0  0  0
   -4.8561    0.7258   -1.6887 C   0  0  0  0  0  0  0  0  0  0  0  0
   -4.8301   -0.6652   -1.7881 C   0  0  0  0  0  0  0  0  0  0  0  0
    0.2099    1.8669    1.2972 C   0  0  0  0  0  0  0  0  0  0  0  0
    0.2561   -2.0229    1.0287 C   0  0  0  0  0  0  0  0  0  0  0  0
    2.6315    1.6336    0.8845 C   0  0  0  0  0  0  0  0  0  0  0  0
    2.5765   -2.7273    0.5724 C   0  0  0  0  0  0  0  0  0  0  0  0
    1.2434    2.6910   -0.7862 C   0  0  0  0  0  0  0  0  0  0  0  0
    1.3959   -1.4078   -1.0713 C   0  0  0  0  0  0  0  0  0  0  0  0
    3.7515    1.8252    0.0755 C   0  0  0  0  0  0  0  0  0  0  0  0
    3.6983   -2.7561   -0.2562 C   0  0  0  0  0  0  0  0  0  0  0  0
    2.3633    2.8825   -1.5954 C   0  0  0  0  0  0  0  0  0  0  0  0
    2.5176   -1.4366   -1.9000 C   0  0  0  0  0  0  0  0  0  0  0  0
    3.6174    2.4497   -1.1645 C   0  0  0  0  0  0  0  0  0  0  0  0
    3.6688   -2.1107   -1.4924 C   0  0  0  0  0  0  0  0  0  0  0  0
  1  5  1  0
  1  7  1  0
  2  6  1  0
  2  8  1  0
  3 15  2  0
  4 16  2  0
  5 15  1  0
  6 16  1  0
  7  8  1  0
  7 11  2  0
  8 12  2  0
  9 15  1  0
  9 17  2  0
  9 19  1  0
 10 16  1  0
 10 18  2  0
 10 20  1  0
 11 13  1  0
 12 14  1  0
 13 14  2  0
 17 21  1  0
 18 22  1  0
 19 23  2  0
 20 24  2  0
 21 25  2  0
 22 26  2  0
 23 25  1  0
 24 26  1  0
M  END
>  <PUBCHEM_COMPOUND_CID>  (1) 
45175

>  <PUBCHEM_CONFORMER_RMSD>  (1) 
1

>  <PUBCHEM_CONFORMER_DIVERSEORDER>  (1) 
1
268
183
29
38
70
134
127
202
197
30
125
113
120
6
126
175
242
218
76
188
231
267
232
223
187
261
236
238
7
220
191
130
28
153
144
269
265
266
96
213
235
145
73
110
89
245
225
45
178
133
147
53
164
11
241
234
3
37
206
163
105
254
54
14
256
259
77
161
106
39
222
151
121
108
258
63
131
244
71
123
26
43
249
194
174
116
148
172
101
229
262
137
165
129
46
143
203
27
257
81
252
169
83
214
66
140
210
227
48
31
95
35
13
192
182
176
156
212
217
211
270
97
155
122
199
79
128
109
56
248
185
94
64
237
104
100
86
107
216
255
271
102
67
111
112
36
250
170
93
251
179
228
152
80
209
142
132
195
160
158
55
22
85
208
207
91
167
243
205
215
59
247
124
154
92
149
193
139
57
201
103
82
117
230
253
221
162
75
69
246
87
233
239
42
24
40
12
264
8
190
32
138
68
181
166
62
177
226
189
99
9
219
198
260
196
171
20
50
88
114
204
65
44
23
157
90
52
49
25
180
115
224
58
240
60
184
98
34
136
200
146
21
159
4
150
84
78
72
168
16
41
118
263
15
47
51
17
61
10
19
18
186
74
2
135
173
33
119
141
5

>  <PUBCHEM_MMFF94_PARTIAL_CHARGES>  (1) 
42
1 -0.09
10 0.09
11 -0.15
12 -0.15
13 -0.15
14 -0.15
15 0.54
16 0.54
17 -0.15
18 -0.15
19 -0.15
2 -0.09
20 -0.15
21 -0.15
22 -0.15
23 -0.15
24 -0.15
25 -0.15
26 -0.15
27 0.15
28 0.15
29 0.15
3 -0.57
30 0.15
31 0.15
32 0.15
33 0.15
34 0.15
35 0.37
36 0.37
37 0.15
38 0.15
39 0.15
4 -0.57
40 0.15
41 0.15
42 0.15
5 -0.44
6 -0.44
7 0.1
8 0.1
9 0.09

>  <PUBCHEM_EFFECTIVE_ROTOR_COUNT>  (1) 
8

>  <PUBCHEM_PHARMACOPHORE_FEATURES>  (1) 
7
1 3 acceptor
1 4 acceptor
1 5 donor
1 6 donor
6 10 18 20 22 24 26 rings
6 7 8 11 12 13 14 rings
6 9 17 19 21 23 25 rings

>  <PUBCHEM_HEAVY_ATOM_COUNT>  (1) 
26

>  <PUBCHEM_ATOM_DEF_STEREO_COUNT>  (1) 
0

>  <PUBCHEM_ATOM_UDEF_STEREO_COUNT>  (1) 
0

>  <PUBCHEM_BOND_DEF_STEREO_COUNT>  (1) 
0

>  <PUBCHEM_BOND_UDEF_STEREO_COUNT>  (1) 
0

>  <PUBCHEM_ISOTOPIC_ATOM_COUNT>  (1) 
0

>  <PUBCHEM_COMPONENT_COUNT>  (1) 
1

>  <PUBCHEM_CACTVS_TAUTO_COUNT>  (1) 
3

>  <PUBCHEM_CONFORMER_ID>  (1) 
0000B07700000001

>  <PUBCHEM_MMFF94_ENERGY>  (1) 
71.0202

>  <PUBCHEM_FEATURE_SELFOVERLAP>  (1) 
35.522

>  <PUBCHEM_SHAPE_FINGERPRINT>  (1) 
11370993 70 18189895507619653293
11513181 2 17702394961567433430
12156800 1 16594176210921659976
12422481 6 18196903679414156522
12553582 1 18049739424554794482
12596599 1 17772477793618438441
133893 2 18337684047958329649
14251757 17 18334020514011664739
17093844 170 18334289886024100364
17492 54 18117579344071435342
17909252 39 17846221076452719446
17921350 177 17170082993779493732
20600515 1 17765965347729585841
20691752 17 18114187388864029920
20775438 99 17839706543832902783
20905425 154 18201172034475559278
21860390 5 18410285917843410590
23559900 14 18340472397131049639
23566358 2 18338805614612493931
238 59 18199186380873989865
3298306 158 18267583704876745181
35225 105 17691691499032576149
4280585 95 18192702350647366898
4409770 3 17474403842541670700
463206 1 18059292187956953647
59755656 215 18124034800319377815
7471813 234 18200871782060638502

>  <PUBCHEM_SHAPE_MULTIPOLES>  (1) 
521.07
8.77
4.18
2.03
7.3
0.08
-0.19
-0.35
5.02
-4.5
-0.09
0.4
0.13
-0.06

>  <PUBCHEM_SHAPE_SELFOVERLAP>  (1) 
1097.434

>  <PUBCHEM_SHAPE_VOLUME>  (1) 
293.1

>  <PUBCHEM_COORDINATE_TYPE>  (1) 
2
5
10

$$$$
