45171
     RDKit          3D

 18 19  0  0  0  0  0  0  0  0999 V2000
    0.2620    1.4241    0.3011 O   0  0  0  0  0  0  0  0  0  0  0  0
    2.8272    1.4952    0.9629 O   0  0  0  0  0  0  0  0  0  0  0  0
    4.0998    0.0734   -0.3546 N   0  0  0  0  0  0  0  0  0  0  0  0
   -0.6220   -0.7803   -0.0074 C   0  0  0  0  0  0  0  0  0  0  0  0
    0.4652    0.0831    0.1406 C   0  0  0  0  0  0  0  0  0  0  0  0
   -1.9794   -0.2801    0.0054 C   0  0  0  0  0  0  0  0  0  0  0  0
    1.7658   -0.4209    0.1257 C   0  0  0  0  0  0  0  0  0  0  0  0
   -0.4037   -2.1498   -0.1708 C   0  0  0  0  0  0  0  0  0  0  0  0
    1.9816   -1.7893   -0.0375 C   0  0  0  0  0  0  0  0  0  0  0  0
    0.8970   -2.6539   -0.1861 C   0  0  0  0  0  0  0  0  0  0  0  0
   -2.6776   -0.1890    1.2095 C   0  0  0  0  0  0  0  0  0  0  0  0
   -2.5900    0.1109   -1.1862 C   0  0  0  0  0  0  0  0  0  0  0  0
    2.9147    0.4615    0.2787 C   0  0  0  0  0  0  0  0  0  0  0  0
   -3.9865    0.2935    1.2221 C   0  0  0  0  0  0  0  0  0  0  0  0
   -3.8988    0.5931   -1.1736 C   0  0  0  0  0  0  0  0  0  0  0  0
   -4.5971    0.6848    0.0305 C   0  0  0  0  0  0  0  0  0  0  0  0
    0.2123    2.2147   -0.8830 C   0  0  0  0  0  0  0  0  0  0  0  0
    5.3294    0.8290   -0.2774 C   0  0  0  0  0  0  0  0  0  0  0  0
  1  5  1  0
  1 17  1  0
  2 13  2  0
  3 13  1  0
  3 18  1  0
  4  5  2  0
  4  6  1  0
  4  8  1  0
  5  7  1  0
  6 11  2  0
  6 12  1  0
  7  9  2  0
  7 13  1  0
  8 10  2  0
  9 10  1  0
 11 14  1  0
 12 15  2  0
 14 16  2  0
 15 16  1  0
M  END
>  <PUBCHEM_COMPOUND_CID>  (1) 
45171

>  <PUBCHEM_CONFORMER_RMSD>  (1) 
0.6

>  <PUBCHEM_CONFORMER_DIVERSEORDER>  (1) 
2
6
3
8
9
4
7
1
5

>  <PUBCHEM_MMFF94_PARTIAL_CHARGES>  (1) 
25
1 -0.36
10 -0.15
11 -0.15
12 -0.15
13 0.54
14 -0.15
15 -0.15
16 -0.15
17 0.28
18 0.3
19 0.15
2 -0.57
20 0.15
21 0.15
22 0.15
23 0.15
24 0.15
25 0.15
26 0.15
27 0.37
3 -0.73
5 0.08
7 0.09
8 -0.15
9 -0.15

>  <PUBCHEM_EFFECTIVE_ROTOR_COUNT>  (1) 
4

>  <PUBCHEM_PHARMACOPHORE_FEATURES>  (1) 
5
1 1 acceptor
1 2 acceptor
1 3 donor
6 4 5 7 8 9 10 rings
6 6 11 12 14 15 16 rings

>  <PUBCHEM_HEAVY_ATOM_COUNT>  (1) 
18

>  <PUBCHEM_ATOM_DEF_STEREO_COUNT>  (1) 
0

>  <PUBCHEM_ATOM_UDEF_STEREO_COUNT>  (1) 
0

>  <PUBCHEM_BOND_DEF_STEREO_COUNT>  (1) 
0

>  <PUBCHEM_BOND_UDEF_STEREO_COUNT>  (1) 
0

>  <PUBCHEM_ISOTOPIC_ATOM_COUNT>  (1) 
0

>  <PUBCHEM_COMPONENT_COUNT>  (1) 
1

>  <PUBCHEM_CACTVS_TAUTO_COUNT>  (1) 
2

>  <PUBCHEM_CONFORMER_ID>  (1) 
0000B07300000002

>  <PUBCHEM_MMFF94_ENERGY>  (1) 
67.0712

>  <PUBCHEM_FEATURE_SELFOVERLAP>  (1) 
25.38

>  <PUBCHEM_SHAPE_FINGERPRINT>  (1) 
10980938 120 18411696552396040519
11471102 20 18340485577852970014
11543360 7 15482383257090254872
12236239 1 17632578223908561251
12644460 14 18262236621371125362
12969540 114 18337094748596721404
13140716 1 18266174122870553920
13214271 11 18187085078774067639
13583140 156 16443610393967366484
14790565 3 18410304622405534820
15099037 51 18413109481120421212
15219456 202 18114464453336621263
15309172 13 18410293627145987763
15375358 24 18113615651797638101
15848702 151 17417540107466290054
1601671 61 18260833687235822972
16945 1 18272082777635056858
1813 80 17197990591757826022
18186145 218 18201996650916386296
18219364 16 18408890667552034067
18785283 64 17824566255532422133
19049666 15 17752199488352195471
19784866 170 18259988154119355556
204376 136 18409731785209901606
20645477 70 18268140964420953815
21501502 16 18051128099293217664
231179 274 18260265235465900206
23402539 116 18271802445631116142
23402655 69 18129938984280836629
23493267 7 17676485034224671752
23557571 272 17023189254089362535
23558518 356 17541081087586627581
23559900 14 16879075130970866362
25 1 18413386531727247210
2748010 2 18191577545529598669
293599 30 18410859888830359140
296302 2 18187083940480919267
350125 39 18121788497709974899
474 4 18343582966648904297
4990 188 17632582655956238358
633830 44 17988924495893400100
77492 1 17489298638921383151

>  <PUBCHEM_SHAPE_MULTIPOLES>  (1) 
353.71
8.39
2.09
1.04
1.97
0.83
-0.03
-3.39
-0.14
1.18
0.3
-0.89
-0.2
0.31

>  <PUBCHEM_SHAPE_SELFOVERLAP>  (1) 
761.222

>  <PUBCHEM_SHAPE_VOLUME>  (1) 
195.6

>  <PUBCHEM_COORDINATE_TYPE>  (1) 
2
5
10

$$$$
