45188
     RDKit          3D

 11 12  0  0  1  0  0  0  0  0999 V2000
   -1.1034    1.0684   -0.7814 N   0  0  0  0  0  0  0  0  0  0  0  0
    0.5976    0.4099    0.9440 C   0  0  0  0  0  0  0  0  0  0  0  0
   -0.5394   -0.0465   -0.0212 C   0  0  0  0  0  0  0  0  0  0  0  0
    1.6444   -1.0351   -0.3914 C   0  0  0  0  0  0  0  0  0  0  0  0
    1.4121   -0.8810    1.1110 C   0  0  0  0  0  0  0  0  0  0  0  0
    0.2040   -1.0471   -0.9443 C   0  0  0  0  0  0  0  0  0  0  0  0
    1.6410    1.2892    0.2231 C   0  0  0  0  0  0  0  0  0  0  0  0
    2.3092    0.3059   -0.7477 C   0  0  0  0  0  0  0  0  0  0  0  0
   -1.6902   -0.7291    0.7342 C   0  0  0  0  0  0  0  0  0  0  0  0
   -2.6883   -1.3350   -0.2280 C   0  0  0  0  0  0  0  0  0  0  0  0
   -1.7869    2.0004    0.1018 C   0  0  0  0  0  0  0  0  0  0  0  0
  1  3  1  0
  1 11  1  0
  2  3  1  0
  2  5  1  0
  2  7  1  0
  3  6  1  0
  3  9  1  0
  4  5  1  0
  4  6  1  0
  4  8  1  0
  7  8  1  0
  9 10  1  0
M  END
>  <PUBCHEM_COMPOUND_CID>  (1) 
45188

>  <PUBCHEM_CONFORMER_RMSD>  (1) 
0.6

>  <PUBCHEM_CONFORMER_DIVERSEORDER>  (1) 
8
9
4
5
2
6
1
3
7

>  <PUBCHEM_MMFF94_PARTIAL_CHARGES>  (1) 
4
1 -0.9
11 0.27
24 0.36
3 0.27

>  <PUBCHEM_EFFECTIVE_ROTOR_COUNT>  (1) 
3

>  <PUBCHEM_PHARMACOPHORE_FEATURES>  (1) 
4
1 1 cation
1 1 donor
1 10 hydrophobe
7 2 3 4 5 6 7 8 rings

>  <PUBCHEM_HEAVY_ATOM_COUNT>  (1) 
11

>  <PUBCHEM_ATOM_DEF_STEREO_COUNT>  (1) 
0

>  <PUBCHEM_ATOM_UDEF_STEREO_COUNT>  (1) 
3

>  <PUBCHEM_BOND_DEF_STEREO_COUNT>  (1) 
0

>  <PUBCHEM_BOND_UDEF_STEREO_COUNT>  (1) 
0

>  <PUBCHEM_ISOTOPIC_ATOM_COUNT>  (1) 
0

>  <PUBCHEM_COMPONENT_COUNT>  (1) 
1

>  <PUBCHEM_CACTVS_TAUTO_COUNT>  (1) 
1

>  <PUBCHEM_CONFORMER_ID>  (1) 
0000B08400000008

>  <PUBCHEM_MMFF94_ENERGY>  (1) 
38.6063

>  <PUBCHEM_FEATURE_SELFOVERLAP>  (1) 
20.297

>  <PUBCHEM_SHAPE_FINGERPRINT>  (1) 
10219947 1 18125729126051674715
12138202 97 18265614273714663285
12423570 1 10077758731840593210
12897270 3 18337113474427239271
13024252 1 17243583284944266884
15557651 10 17843962778448175152
16945 1 18265063590087690146
20653091 64 18041268886112025538
21040471 1 18051407370867296385
21501502 16 18409451345161715947
21922407 69 17095235912924341376
21930827 45 18197776605240952793
23552423 10 18114463374825108874
241688 4 17766550631465511898
2748010 2 18272086067775151876
29004967 10 18116437131456906699
369184 2 11458420275510611797
5084963 1 17989208169882764806
528886 8 18128262181619156604
68250623 7 18261960648078423010

>  <PUBCHEM_SHAPE_MULTIPOLES>  (1) 
221.39
3.18
1.73
1.06
0.82
0.6
-0.1
-0.31
0.22
0.71
0.08
-0.22
-0.14
0.03

>  <PUBCHEM_SHAPE_SELFOVERLAP>  (1) 
458.648

>  <PUBCHEM_SHAPE_VOLUME>  (1) 
132

>  <PUBCHEM_COORDINATE_TYPE>  (1) 
2
5
10

$$$$
