45199
     RDKit          3D

 14 13  0  0  0  0  0  0  0  0999 V2000
   -3.9461    0.9808   -0.0700 S   0  0  0  0  0  0  0  0  0  0  0  0
    3.9406    1.0256   -0.1399 S   0  0  0  0  0  0  0  0  0  0  0  0
    0.0037    0.0297   -0.0070 N   0  0  0  0  0  0  0  0  0  0  0  0
   -6.4753    0.2430   -0.1389 N   0  0  0  0  0  0  0  0  0  0  0  0
    6.0713   -0.1338    0.8905 N   0  0  0  0  0  0  0  0  0  0  0  0
   -4.8933   -1.5099   -0.0967 N   0  0  0  0  0  0  0  0  0  0  0  0
    5.2787   -1.0526   -1.1356 N   0  0  0  0  0  0  0  0  0  0  0  0
   -1.2024    0.8564   -0.0376 C   0  0  0  0  0  0  0  0  0  0  0  0
    1.2002    0.8700   -0.0360 C   0  0  0  0  0  0  0  0  0  0  0  0
   -2.4395   -0.0330   -0.0316 C   0  0  0  0  0  0  0  0  0  0  0  0
    2.4456   -0.0052   -0.1040 C   0  0  0  0  0  0  0  0  0  0  0  0
    0.0077   -0.8247    1.1798 C   0  0  0  0  0  0  0  0  0  0  0  0
   -5.2025   -0.2527   -0.1037 C   0  0  0  0  0  0  0  0  0  0  0  0
    5.2111   -0.1934   -0.1694 C   0  0  0  0  0  0  0  0  0  0  0  0
  1 10  1  0
  1 13  1  0
  2 11  1  0
  2 14  1  0
  3  8  1  0
  3  9  1  0
  3 12  1  0
  4 13  1  0
  5 14  1  0
  6 13  2  0
  7 14  2  0
  8 10  1  0
  9 11  1  0
M  END
>  <PUBCHEM_COMPOUND_CID>  (1) 
45199

>  <PUBCHEM_CONFORMER_RMSD>  (1) 
0.8

>  <PUBCHEM_CONFORMER_DIVERSEORDER>  (1) 
1
38
49
42
8
87
13
47
69
5
52
95
79
33
18
73
10
102
81
58
97
82
54
11
75
105
24
68
35
88
98
7
83
74
3
94
57
32
76
4
46
96
65
91
44
100
50
17
51
26
103
27
104
59
61
37
92
23
85
29
84
77
19
15
43
6
21
101
48
16
25
2
78
63
56
39
89
28
93
22
72
20
40
62
9
71
14
70
30
66
86
36
45
34
31
99
41
67
53
80
60
90
55
64
12

>  <PUBCHEM_MMFF94_PARTIAL_CHARGES>  (1) 
20
1 -0.37
10 0.23
11 0.23
12 0.27
13 0.64
14 0.64
2 -0.37
26 0.4
27 0.4
28 0.4
29 0.4
3 -0.81
30 0.4
31 0.4
4 -0.85
5 -0.85
6 -0.85
7 -0.85
8 0.27
9 0.27

>  <PUBCHEM_EFFECTIVE_ROTOR_COUNT>  (1) 
8

>  <PUBCHEM_PHARMACOPHORE_FEATURES>  (1) 
7
1 3 cation
1 4 donor
1 5 donor
1 6 donor
1 7 donor
3 4 6 13 cation
3 5 7 14 cation

>  <PUBCHEM_HEAVY_ATOM_COUNT>  (1) 
14

>  <PUBCHEM_ATOM_DEF_STEREO_COUNT>  (1) 
0

>  <PUBCHEM_ATOM_UDEF_STEREO_COUNT>  (1) 
0

>  <PUBCHEM_BOND_DEF_STEREO_COUNT>  (1) 
0

>  <PUBCHEM_BOND_UDEF_STEREO_COUNT>  (1) 
0

>  <PUBCHEM_ISOTOPIC_ATOM_COUNT>  (1) 
0

>  <PUBCHEM_COMPONENT_COUNT>  (1) 
1

>  <PUBCHEM_CACTVS_TAUTO_COUNT>  (1) 
1

>  <PUBCHEM_CONFORMER_ID>  (1) 
0000B08F00000001

>  <PUBCHEM_MMFF94_ENERGY>  (1) 
26.3327

>  <PUBCHEM_FEATURE_SELFOVERLAP>  (1) 
35.6

>  <PUBCHEM_SHAPE_FINGERPRINT>  (1) 
10354089 29 9727632800238815526
11287383 113 18202002152906694360
117890 112 8358263639452598903
12815109 37 12679463088363525389
13533116 47 15985110670163633990
13862211 1 18113334215217157440
14123238 8 17561084708825654901
1420 363 18342178868862177997
14251718 22 18410293622576551400
14251764 18 18113334224566864120
15048467 5 8286198344807295614
17834072 33 18261109677343662896
17834072 8 17894635855189777582
17834076 25 9511461125778292025
187816 3 18040719164389032337
200 152 17917994966541733712
20621476 38 18341333306051121030
20621476 8 18339082588806324213
20645477 70 18272094868759273118
20767249 213 11818995188692562869
21150785 3 16950291736320888094
220451 1 14923942358153024305
23035841 295 18335139800243631123
23402539 116 18334572447532169037
23536379 177 17989208126969898353
23559900 14 18340762745404868017
366044 4 17894631456858573202
42788 4 18408885144176761309
5374978 207 14117799103264750410
57483677 66 18342737416337211350
59755656 215 18260547792727091663
8209 1 18333731316541279028

>  <PUBCHEM_SHAPE_MULTIPOLES>  (1) 
270.91
16.17
1.15
0.83
1
0.05
0.04
2.39
-1.62
0.33
-0.03
-0.71
0.17
0.19

>  <PUBCHEM_SHAPE_SELFOVERLAP>  (1) 
482.023

>  <PUBCHEM_SHAPE_VOLUME>  (1) 
177.4

>  <PUBCHEM_COORDINATE_TYPE>  (1) 
2
5
10

$$$$
