45207
     RDKit          3D

 25 27  0  0  0  0  0  0  0  0999 V2000
    8.4206    0.0716   -0.6454 O   0  0  0  0  0  0  0  0  0  0  0  0
   -1.4682   -0.5906   -0.0500 O   0  0  0  0  0  0  0  0  0  0  0  0
    5.7645   -0.4195    0.2520 N   0  0  0  0  0  0  0  0  0  0  0  0
    2.0835   -0.1140    0.7857 N   0  0  0  0  0  0  0  0  0  0  0  0
    4.5258   -0.0178    0.9152 C   0  0  0  0  0  0  0  0  0  0  0  0
    6.8960   -0.3747    1.1886 C   0  0  0  0  0  0  0  0  0  0  0  0
    6.0373    0.4397   -0.9085 C   0  0  0  0  0  0  0  0  0  0  0  0
    3.3199   -0.4997    0.1143 C   0  0  0  0  0  0  0  0  0  0  0  0
    8.1789   -0.7853    0.4712 C   0  0  0  0  0  0  0  0  0  0  0  0
    7.3399    0.0088   -1.5766 C   0  0  0  0  0  0  0  0  0  0  0  0
    0.9220   -0.5757    0.0393 C   0  0  0  0  0  0  0  0  0  0  0  0
   -0.3637   -0.1341    0.7199 C   0  0  0  0  0  0  0  0  0  0  0  0
   -2.7054   -0.2084    0.5354 C   0  0  0  0  0  0  0  0  0  0  0  0
   -3.8250   -1.1579    0.1552 C   0  0  0  0  0  0  0  0  0  0  0  0
   -3.0168    1.2349    0.1982 C   0  0  0  0  0  0  0  0  0  0  0  0
   -4.8885   -1.3694    1.0329 C   0  0  0  0  0  0  0  0  0  0  0  0
   -3.7599    2.0138    1.0852 C   0  0  0  0  0  0  0  0  0  0  0  0
   -3.7919   -1.8196   -1.0723 C   0  0  0  0  0  0  0  0  0  0  0  0
   -2.5601    1.7856   -0.9995 C   0  0  0  0  0  0  0  0  0  0  0  0
   -5.9184   -2.2425    0.6832 C   0  0  0  0  0  0  0  0  0  0  0  0
   -4.0465    3.3431    0.7748 C   0  0  0  0  0  0  0  0  0  0  0  0
   -4.8221   -2.6927   -1.4220 C   0  0  0  0  0  0  0  0  0  0  0  0
   -2.8467    3.1150   -1.3097 C   0  0  0  0  0  0  0  0  0  0  0  0
   -5.8853   -2.9041   -0.5442 C   0  0  0  0  0  0  0  0  0  0  0  0
   -3.5899    3.8937   -0.4226 C   0  0  0  0  0  0  0  0  0  0  0  0
  1  9  1  0
  1 10  1  0
  2 12  1  0
  2 13  1  0
  3  5  1  0
  3  6  1  0
  3  7  1  0
  4  8  1  0
  4 11  1  0
  5  8  1  0
  6  9  1  0
  7 10  1  0
 11 12  1  0
 13 14  1  0
 13 15  1  0
 14 16  2  0
 14 18  1  0
 15 17  2  0
 15 19  1  0
 16 20  1  0
 17 21  1  0
 18 22  2  0
 19 23  2  0
 20 24  2  0
 21 25  2  0
 22 24  1  0
 23 25  1  0
M  END
>  <PUBCHEM_COMPOUND_CID>  (1) 
45207

>  <PUBCHEM_CONFORMER_RMSD>  (1) 
1

>  <PUBCHEM_CONFORMER_DIVERSEORDER>  (1) 
1
45
53
3
55
31
21
28
2
40
49
37
29
57
54
42
17
61
30
62
50
41
26
9
43
20
56
11
47
51
36
13
34
59
18
24
27
25
46
44
58
60
4
16
63
6
14
64
8
38
32
52
12
33
48
15
19
7
39
22
10
35
23
5

>  <PUBCHEM_MMFF94_PARTIAL_CHARGES>  (1) 
36
1 -0.56
10 0.28
11 0.27
12 0.28
13 0.57
14 -0.14
15 -0.14
16 -0.15
17 -0.15
18 -0.15
19 -0.15
2 -0.56
20 -0.15
21 -0.15
22 -0.15
23 -0.15
24 -0.15
25 -0.15
3 -0.81
38 0.36
4 -0.9
44 0.15
45 0.15
46 0.15
47 0.15
48 0.15
49 0.15
5 0.27
50 0.15
51 0.15
52 0.15
53 0.15
6 0.27
7 0.27
8 0.27
9 0.28

>  <PUBCHEM_EFFECTIVE_ROTOR_COUNT>  (1) 
10.2

>  <PUBCHEM_PHARMACOPHORE_FEATURES>  (1) 
8
1 1 acceptor
1 2 acceptor
1 3 cation
1 4 cation
1 4 donor
6 1 3 6 7 9 10 rings
6 14 16 18 20 22 24 rings
6 15 17 19 21 23 25 rings

>  <PUBCHEM_HEAVY_ATOM_COUNT>  (1) 
25

>  <PUBCHEM_ATOM_DEF_STEREO_COUNT>  (1) 
0

>  <PUBCHEM_ATOM_UDEF_STEREO_COUNT>  (1) 
0

>  <PUBCHEM_BOND_DEF_STEREO_COUNT>  (1) 
0

>  <PUBCHEM_BOND_UDEF_STEREO_COUNT>  (1) 
0

>  <PUBCHEM_ISOTOPIC_ATOM_COUNT>  (1) 
0

>  <PUBCHEM_COMPONENT_COUNT>  (1) 
1

>  <PUBCHEM_CACTVS_TAUTO_COUNT>  (1) 
1

>  <PUBCHEM_CONFORMER_ID>  (1) 
0000B09700000001

>  <PUBCHEM_MMFF94_ENERGY>  (1) 
50.2464

>  <PUBCHEM_FEATURE_SELFOVERLAP>  (1) 
40.596

>  <PUBCHEM_SHAPE_FINGERPRINT>  (1) 
10411042 1 18266457801767088195
10595046 47 18187081741927428746
10638233 991 17968385632473552756
10670039 82 18333729122277026160
11101153 10 18261678193707257484
11135926 11 15626225689627152574
11315181 36 17240486930818797907
11315621 246 18200871889134394087
11524674 6 15625946481707995655
12082328 90 18410573973200460054
12616971 3 13973681763162301514
13631057 29 18410288129783183843
13673619 4 18059574749697586075
13690498 29 18413385453684979841
14118638 360 18334852801749749418
14347332 77 18411135874353757325
14556957 393 17894352198332810477
14856354 85 18338520849364339447
15183329 4 17385443216221819034
1577012 14 17968097491807526312
15778101 99 18340488850602498440
15876981 60 18260271841031143981
16087824 20 18337948993167803133
16989713 51 18131063878896658215
16992828 155 17459743709973833733
17686467 74 18262798600830658128
17844677 252 18341894121553268584
18643901 69 18130508613035250823
18927931 339 18413387661799563831
19427546 20 18334572422100046773
20771845 65 17843399846798515667
21236236 1 18335137579017636273
21304303 172 18343584071621167521
21927370 108 18188220896366837899
2303208 19 17632297878587585090
23081809 10 17967812722464266930
249057 25 17749398083175072340
2747138 104 18264208178378326491
283562 15 18334570236188806515
497634 4 18040147414105520623
57634706 229 17772485486533530073
58083652 198 15936407862936049596
5969126 39 18410849988993980655
6327066 14 18045495314616153205

>  <PUBCHEM_SHAPE_MULTIPOLES>  (1) 
492.79
23.05
3.69
1.32
60.59
3.09
-0.24
-8.91
-1.65
-11.56
-0.87
0.17
0.03
-1.03

>  <PUBCHEM_SHAPE_SELFOVERLAP>  (1) 
1023.018

>  <PUBCHEM_SHAPE_VOLUME>  (1) 
280

>  <PUBCHEM_COORDINATE_TYPE>  (1) 
2
5
10

$$$$
