45208
     RDKit          3D

  8  7  0  0  0  0  0  0  0  0999 V2000
   -0.0062   -1.8340    0.3059 Cl  0  0  0  0  0  0  0  0  0  0  0  0
    3.9108    0.6550    0.1928 Cl  0  0  0  0  0  0  0  0  0  0  0  0
   -3.9092    0.6657    0.1769 Cl  0  0  0  0  0  0  0  0  0  0  0  0
    0.0015   -0.1682   -0.2905 N   0  0  0  0  0  0  0  0  0  0  0  0
    1.2011    0.5486    0.1268 C   0  0  0  0  0  0  0  0  0  0  0  0
   -1.1995    0.5549    0.1183 C   0  0  0  0  0  0  0  0  0  0  0  0
    2.4417   -0.2035   -0.3295 C   0  0  0  0  0  0  0  0  0  0  0  0
   -2.4402   -0.2185   -0.3007 C   0  0  0  0  0  0  0  0  0  0  0  0
  1  4  1  0
  2  7  1  0
  3  8  1  0
  4  5  1  0
  4  6  1  0
  5  7  1  0
  6  8  1  0
M  END
>  <PUBCHEM_COMPOUND_CID>  (1) 
45208

>  <PUBCHEM_CONFORMER_RMSD>  (1) 
0.6

>  <PUBCHEM_CONFORMER_DIVERSEORDER>  (1) 
1
15
11
4
13
2
14
17
16
6
18
12
3
10
7
8
5
9

>  <PUBCHEM_MMFF94_PARTIAL_CHARGES>  (1) 
8
1 -0.05
2 -0.29
3 -0.29
4 -0.49
5 0.27
6 0.27
7 0.29
8 0.29

>  <PUBCHEM_EFFECTIVE_ROTOR_COUNT>  (1) 
4

>  <PUBCHEM_PHARMACOPHORE_FEATURES>  (1) 
0

>  <PUBCHEM_HEAVY_ATOM_COUNT>  (1) 
8

>  <PUBCHEM_ATOM_DEF_STEREO_COUNT>  (1) 
0

>  <PUBCHEM_ATOM_UDEF_STEREO_COUNT>  (1) 
0

>  <PUBCHEM_BOND_DEF_STEREO_COUNT>  (1) 
0

>  <PUBCHEM_BOND_UDEF_STEREO_COUNT>  (1) 
0

>  <PUBCHEM_ISOTOPIC_ATOM_COUNT>  (1) 
0

>  <PUBCHEM_COMPONENT_COUNT>  (1) 
1

>  <PUBCHEM_CACTVS_TAUTO_COUNT>  (1) 
1

>  <PUBCHEM_CONFORMER_ID>  (1) 
0000B09800000001

>  <PUBCHEM_MMFF94_ENERGY>  (1) 
5.5032

>  <PUBCHEM_FEATURE_SELFOVERLAP>  (1) 
0

>  <PUBCHEM_SHAPE_FINGERPRINT>  (1) 
10219947 1 17967254178377157789
11062470 55 17418094325508578892
14325111 11 18410292510180047766
14390081 3 18342174440877691209
20211469 26 11025793206341847653
20711985 327 8286197279492135707
21293036 1 18342738528659777404
23235685 24 18408599266584031747
366044 4 18409729573317536050
528862 383 17749938965175531226
5460574 1 7997972375270949956

>  <PUBCHEM_SHAPE_MULTIPOLES>  (1) 
165.26
6.62
1.29
0.68
0.02
0.73
-0.01
-2.63
-0.27
-0.01
-0.16
0.01
0.02
0.01

>  <PUBCHEM_SHAPE_SELFOVERLAP>  (1) 
268.54

>  <PUBCHEM_SHAPE_VOLUME>  (1) 
115.9

>  <PUBCHEM_COORDINATE_TYPE>  (1) 
2
5
10

$$$$
