45201
     RDKit          3D

 14 13  0  0  0  0  0  0  0  0999 V2000
   -3.1220   -3.0031   -1.6257 Cl  0  0  0  0  0  0  0  0  0  0  0  0
    2.9675   -3.1207    1.5314 Cl  0  0  0  0  0  0  0  0  0  0  0  0
   -3.3213    0.3157    1.2524 S   0  0  0  0  0  0  0  0  0  0  0  0
    3.1776    0.1789   -1.3678 S   0  0  0  0  0  0  0  0  0  0  0  0
    0.0785    2.2809    0.2092 N   0  0  0  0  0  0  0  0  0  0  0  0
   -1.3425    1.9381    0.2540 C   0  0  0  0  0  0  0  0  0  0  0  0
    0.7984    1.3622   -0.6720 C   0  0  0  0  0  0  0  0  0  0  0  0
   -1.5597    0.7534    1.1872 C   0  0  0  0  0  0  0  0  0  0  0  0
    2.2702    1.3164   -0.2807 C   0  0  0  0  0  0  0  0  0  0  0  0
    0.2572    3.6622   -0.2366 C   0  0  0  0  0  0  0  0  0  0  0  0
   -3.4149   -0.6236   -0.2888 C   0  0  0  0  0  0  0  0  0  0  0  0
    2.7100   -1.3740   -0.5705 C   0  0  0  0  0  0  0  0  0  0  0  0
   -2.9734   -2.0700   -0.1156 C   0  0  0  0  0  0  0  0  0  0  0  0
    3.4744   -1.6164    0.7234 C   0  0  0  0  0  0  0  0  0  0  0  0
  1 13  1  0
  2 14  1  0
  3  8  1  0
  3 11  1  0
  4  9  1  0
  4 12  1  0
  5  6  1  0
  5  7  1  0
  5 10  1  0
  6  8  1  0
  7  9  1  0
 11 13  1  0
 12 14  1  0
M  END
>  <PUBCHEM_COMPOUND_CID>  (1) 
45201

>  <PUBCHEM_CONFORMER_RMSD>  (1) 
1

>  <PUBCHEM_CONFORMER_DIVERSEORDER>  (1) 
24
456
608
372
164
173
10
602
552
22
229
339
52
374
632
410
146
205
98
273
331
64
114
162
79
385
109
80
335
565
506
154
194
375
102
36
208
130
646
557
315
43
160
7
14
303
26
548
362
447
142
74
322
9
408
92
536
458
185
298
313
62
426
1
39
166
120
242
436
93
555
20
104
409
286
605
31
628
68
248
364
201
566
406
5
15
155
12
501
139
187
228
621
463
368
219
128
2
6
89
135
58
103
441
3
57
634
88
143
440
78
153

>  <PUBCHEM_MMFF94_PARTIAL_CHARGES>  (1) 
14
1 -0.29
10 0.27
11 0.23
12 0.23
13 0.29
14 0.29
2 -0.29
3 -0.46
4 -0.46
5 -0.81
6 0.27
7 0.27
8 0.23
9 0.23

>  <PUBCHEM_EFFECTIVE_ROTOR_COUNT>  (1) 
10

>  <PUBCHEM_PHARMACOPHORE_FEATURES>  (1) 
1
1 5 cation

>  <PUBCHEM_HEAVY_ATOM_COUNT>  (1) 
14

>  <PUBCHEM_ATOM_DEF_STEREO_COUNT>  (1) 
0

>  <PUBCHEM_ATOM_UDEF_STEREO_COUNT>  (1) 
0

>  <PUBCHEM_BOND_DEF_STEREO_COUNT>  (1) 
0

>  <PUBCHEM_BOND_UDEF_STEREO_COUNT>  (1) 
0

>  <PUBCHEM_ISOTOPIC_ATOM_COUNT>  (1) 
0

>  <PUBCHEM_COMPONENT_COUNT>  (1) 
1

>  <PUBCHEM_CACTVS_TAUTO_COUNT>  (1) 
1

>  <PUBCHEM_CONFORMER_ID>  (1) 
0000B09100000018

>  <PUBCHEM_MMFF94_ENERGY>  (1) 
20.7784

>  <PUBCHEM_FEATURE_SELFOVERLAP>  (1) 
5.074

>  <PUBCHEM_SHAPE_FINGERPRINT>  (1) 
12553582 1 18339092513731667366
13931106 250 18121486964961893373
15537594 2 18264795244604593698
19026451 147 17767943682613073847
20291156 8 18341341071013959727
20442098 301 18193566558233475514
20621476 51 18269264682036205366
20645477 70 17978226394369297935
21315764 21 17459444733131777295
235170 7 15936703664874093719
23598291 2 18054813907499682453
23728640 28 17760362193340318568
4283 87 18268996551628027631
556388 4 17839175565320230551
603831 33 18188793655661780556
6338986 31 18408882923493968568
85463 6 18267011778689854826
9795274 37 18114465668364558498

>  <PUBCHEM_SHAPE_MULTIPOLES>  (1) 
294.57
7.29
4.47
1.51
0.44
0.19
-0.01
-6.32
0.03
-0.26
0.12
0
-1.05
-2.96

>  <PUBCHEM_SHAPE_SELFOVERLAP>  (1) 
491.451

>  <PUBCHEM_SHAPE_VOLUME>  (1) 
204.3

>  <PUBCHEM_COORDINATE_TYPE>  (1) 
2
5
10

$$$$
