45211
     RDKit          3D

 20 21  0  0  0  0  0  0  0  0999 V2000
    1.8928    4.6596   -0.4382 Cl  0  0  0  0  0  0  0  0  0  0  0  0
   -0.0043    1.1382    0.0348 N   0  0  0  0  0  0  0  0  0  0  0  0
   -1.3277    1.6373    0.4067 C   0  0  0  0  0  0  0  0  0  0  0  0
    0.3364   -0.0445    0.8246 C   0  0  0  0  0  0  0  0  0  0  0  0
    1.0047    2.1813    0.2153 C   0  0  0  0  0  0  0  0  0  0  0  0
   -2.4010    0.6071    0.1759 C   0  0  0  0  0  0  0  0  0  0  0  0
    1.6951   -0.5857    0.4668 C   0  0  0  0  0  0  0  0  0  0  0  0
    0.6590    3.3924   -0.6372 C   0  0  0  0  0  0  0  0  0  0  0  0
   -2.4122   -0.1150   -1.0093 C   0  0  0  0  0  0  0  0  0  0  0  0
    2.0516   -0.7099   -0.8687 C   0  0  0  0  0  0  0  0  0  0  0  0
   -3.3644    0.3941    1.1521 C   0  0  0  0  0  0  0  0  0  0  0  0
    2.5720   -0.9527    1.4781 C   0  0  0  0  0  0  0  0  0  0  0  0
   -4.3802   -1.2919   -0.2490 C   0  0  0  0  0  0  0  0  0  0  0  0
    4.1999   -1.5835   -0.1920 C   0  0  0  0  0  0  0  0  0  0  0  0
   -3.4069   -1.0693   -1.2228 C   0  0  0  0  0  0  0  0  0  0  0  0
    3.3103   -1.2114   -1.1998 C   0  0  0  0  0  0  0  0  0  0  0  0
   -4.3590   -0.5604    0.9385 C   0  0  0  0  0  0  0  0  0  0  0  0
    3.8308   -1.4541    1.1470 C   0  0  0  0  0  0  0  0  0  0  0  0
   -5.4430   -2.3130   -0.4769 C   0  0  0  0  0  0  0  0  0  0  0  0
    5.5461   -2.1186   -0.5461 C   0  0  0  0  0  0  0  0  0  0  0  0
  1  8  1  0
  2  3  1  0
  2  4  1  0
  2  5  1  0
  3  6  1  0
  4  7  1  0
  5  8  1  0
  6  9  2  0
  6 11  1  0
  7 10  2  0
  7 12  1  0
  9 15  1  0
 10 16  1  0
 11 17  2  0
 12 18  2  0
 13 15  2  0
 13 17  1  0
 13 19  1  0
 14 16  2  0
 14 18  1  0
 14 20  1  0
M  END
>  <PUBCHEM_COMPOUND_CID>  (1) 
45211

>  <PUBCHEM_CONFORMER_RMSD>  (1) 
0.8

>  <PUBCHEM_CONFORMER_DIVERSEORDER>  (1) 
1
6
3
7
5
4
2

>  <PUBCHEM_MMFF94_PARTIAL_CHARGES>  (1) 
28
1 -0.29
10 -0.15
11 -0.15
12 -0.15
13 -0.14
14 -0.14
15 -0.15
16 -0.15
17 -0.15
18 -0.15
19 0.14
2 -0.81
20 0.14
29 0.15
3 0.41
30 0.15
31 0.15
32 0.15
33 0.15
34 0.15
35 0.15
36 0.15
4 0.41
5 0.27
6 -0.14
7 -0.14
8 0.29
9 -0.15

>  <PUBCHEM_EFFECTIVE_ROTOR_COUNT>  (1) 
6

>  <PUBCHEM_PHARMACOPHORE_FEATURES>  (1) 
3
1 2 cation
6 6 9 11 13 15 17 rings
6 7 10 12 14 16 18 rings

>  <PUBCHEM_HEAVY_ATOM_COUNT>  (1) 
20

>  <PUBCHEM_ATOM_DEF_STEREO_COUNT>  (1) 
0

>  <PUBCHEM_ATOM_UDEF_STEREO_COUNT>  (1) 
0

>  <PUBCHEM_BOND_DEF_STEREO_COUNT>  (1) 
0

>  <PUBCHEM_BOND_UDEF_STEREO_COUNT>  (1) 
0

>  <PUBCHEM_ISOTOPIC_ATOM_COUNT>  (1) 
0

>  <PUBCHEM_COMPONENT_COUNT>  (1) 
1

>  <PUBCHEM_CACTVS_TAUTO_COUNT>  (1) 
1

>  <PUBCHEM_CONFORMER_ID>  (1) 
0000B09B00000001

>  <PUBCHEM_MMFF94_ENERGY>  (1) 
57.2411

>  <PUBCHEM_FEATURE_SELFOVERLAP>  (1) 
15.223

>  <PUBCHEM_SHAPE_FINGERPRINT>  (1) 
11045515 52 18115029602202853636
11370993 144 16343145688575885386
11578080 2 17822275873695351180
121448 382 8213556914327026545
12363563 72 18408322163989718499
12553582 1 18335136449705196171
12633257 1 14908172084255860055
12707595 3 18260828198214487835
12788726 201 17826791426105708608
13009979 54 18059584593762589545
13533116 47 18197496449552710891
13540713 5 18200890581723271825
13583140 156 17552884388794100914
13955234 65 18123190366487912929
14178000 29 18412826884624496210
14178342 30 17845386461707724947
14251757 5 18044932368593592133
14767858 380 18187944893162742110
15342816 4 18408321056141564930
15502722 9 18190739941271711797
17349148 13 17604437271836720674
1813 80 18413392016400250468
18222031 100 18411974754407257114
193927 3 18343024415095831011
19784866 240 18341611534317223495
200 152 17531817848483454874
20388580 30 18411980299410320821
20645477 70 18264479767046787127
20671657 53 18335413569595481561
20693207 138 17676767690734347443
21304303 282 16890005256204326460
21344244 246 18193000533373900396
2255824 54 18337955708997883721
22950370 63 18340493274650772166
23366157 5 18189338037939207773
23402539 116 18263929843555386894
23557571 272 18055350228661071820
23559900 14 18339352063607239857
23566358 27 18266745877332845429
23598288 3 17682116573652332473
3057174 1 17540826417696062124
312423 11 18341622572345991201
5486654 36 18335998514509098811
621550 5 17917146083984207688
6669772 16 17977955914630970852
7471813 234 18187654561736711004
7970288 3 18411418393050550407
81228 2 17979631238879557608
9841814 1 18187916309306275496

>  <PUBCHEM_SHAPE_MULTIPOLES>  (1) 
408.48
10.55
3.89
1.26
3.45
6.44
-0.1
-11.24
0.89
-3.32
0.99
-0.11
-0.35
-0.72

>  <PUBCHEM_SHAPE_SELFOVERLAP>  (1) 
843.642

>  <PUBCHEM_SHAPE_VOLUME>  (1) 
236

>  <PUBCHEM_COORDINATE_TYPE>  (1) 
2
5
10

$$$$
