45215
     RDKit          3D

 17 18  0  0  0  0  0  0  0  0999 V2000
    1.9167    2.6506   -0.0019 Cl  0  0  0  0  0  0  0  0  0  0  0  0
    5.7955   -0.8005   -1.4219 Cl  0  0  0  0  0  0  0  0  0  0  0  0
   -0.5329    0.0334    0.5612 N   0  0  0  0  0  0  0  0  0  0  0  0
    0.6150    0.2507    1.4269 C   0  0  0  0  0  0  0  0  0  0  0  0
   -1.7813    0.2656    1.2896 C   0  0  0  0  0  0  0  0  0  0  0  0
    1.9149    0.0186    0.7036 C   0  0  0  0  0  0  0  0  0  0  0  0
   -2.9856    0.0426    0.4382 C   0  0  0  0  0  0  0  0  0  0  0  0
    2.5623    1.0504    0.0363 C   0  0  0  0  0  0  0  0  0  0  0  0
    2.4507   -1.2636    0.7225 C   0  0  0  0  0  0  0  0  0  0  0  0
   -3.5279    1.0988   -0.2938 C   0  0  0  0  0  0  0  0  0  0  0  0
   -3.5695   -1.2227    0.3744 C   0  0  0  0  0  0  0  0  0  0  0  0
    3.7653    0.7970   -0.6228 C   0  0  0  0  0  0  0  0  0  0  0  0
    3.6536   -1.5173    0.0631 C   0  0  0  0  0  0  0  0  0  0  0  0
   -4.6541    0.8899   -1.0902 C   0  0  0  0  0  0  0  0  0  0  0  0
   -4.6957   -1.4314   -0.4218 C   0  0  0  0  0  0  0  0  0  0  0  0
    4.3110   -0.4868   -0.6091 C   0  0  0  0  0  0  0  0  0  0  0  0
   -5.2380   -0.3754   -1.1544 C   0  0  0  0  0  0  0  0  0  0  0  0
  1  8  1  0
  2 16  1  0
  3  4  1  0
  3  5  1  0
  4  6  1  0
  5  7  1  0
  6  8  2  0
  6  9  1  0
  7 10  2  0
  7 11  1  0
  8 12  1  0
  9 13  2  0
 10 14  1  0
 11 15  2  0
 12 16  2  0
 13 16  1  0
 14 17  2  0
 15 17  1  0
M  END
>  <PUBCHEM_COMPOUND_CID>  (1) 
45215

>  <PUBCHEM_CONFORMER_RMSD>  (1) 
0.6

>  <PUBCHEM_CONFORMER_DIVERSEORDER>  (1) 
1
32
27
24
7
29
26
9
33
28
5
13
12
2
25
15
8
3
14
4
6
34
19
22
17
16
11
10
20
23
18
21
31
30

>  <PUBCHEM_MMFF94_PARTIAL_CHARGES>  (1) 
26
1 -0.18
10 -0.15
11 -0.15
12 -0.15
13 -0.15
14 -0.15
15 -0.15
16 0.18
17 -0.15
2 -0.18
22 0.36
23 0.15
24 0.15
25 0.15
26 0.15
27 0.15
28 0.15
29 0.15
3 -0.9
30 0.15
4 0.41
5 0.41
6 -0.14
7 -0.14
8 0.18
9 -0.15

>  <PUBCHEM_EFFECTIVE_ROTOR_COUNT>  (1) 
4

>  <PUBCHEM_PHARMACOPHORE_FEATURES>  (1) 
4
1 3 cation
1 3 donor
6 6 8 9 12 13 16 rings
6 7 10 11 14 15 17 rings

>  <PUBCHEM_HEAVY_ATOM_COUNT>  (1) 
17

>  <PUBCHEM_ATOM_DEF_STEREO_COUNT>  (1) 
0

>  <PUBCHEM_ATOM_UDEF_STEREO_COUNT>  (1) 
0

>  <PUBCHEM_BOND_DEF_STEREO_COUNT>  (1) 
0

>  <PUBCHEM_BOND_UDEF_STEREO_COUNT>  (1) 
0

>  <PUBCHEM_ISOTOPIC_ATOM_COUNT>  (1) 
0

>  <PUBCHEM_COMPONENT_COUNT>  (1) 
1

>  <PUBCHEM_CACTVS_TAUTO_COUNT>  (1) 
1

>  <PUBCHEM_CONFORMER_ID>  (1) 
0000B09F00000001

>  <PUBCHEM_MMFF94_ENERGY>  (1) 
39.0354

>  <PUBCHEM_FEATURE_SELFOVERLAP>  (1) 
20.297

>  <PUBCHEM_SHAPE_FINGERPRINT>  (1) 
10354089 29 8574710209010634222
10498660 4 16370440064361277741
11543360 7 18334572477702259755
12363563 72 16272208608898293451
12596602 18 12247673864119374094
12670546 177 18334010588479309239
12892183 10 9367356950467932257
13668630 136 17775287174940553015
13675066 3 11167952367890750539
14178342 30 14476422386410156003
1420 369 16128658543828954263
14252887 29 12247690374073509360
14341114 328 9150880707070766195
14528608 73 17967252022261481238
14576447 43 18342742893016638554
15188451 53 13182724954118630597
15210252 30 16515406261563102940
15475509 84 11243061128471664046
15788980 27 16702303438305945601
15880784 105 14405176283604403895
17870717 6 18343865502999579663
1798214 20 18272649034802888834
1813 80 15338843105206479329
18186145 218 18260265261383443025
18222031 100 18202002097567907322
18915474 69 17987796440097409391
193927 3 17060348426080966646
19784866 240 17561370568916333073
200 152 18131070428710760297
20645477 70 18272375295278465094
20871999 31 18335422344171313393
21637258 2 17131554925990879550
221357 26 18334290959760526093
22289505 5 18113612366053003804
22393880 68 18334290993819434475
22646028 1 17132114645469303035
23402539 116 17917721153902749848
23402655 69 18040437655194774096
23557571 272 16950575431969842283
23559900 14 18341324582629300897
23596394 208 18335415789834954899
26918003 58 12031789141166782003
2838139 119 15504657224551023622
29717793 49 17989491805396733188
3004659 81 18273492377533163451
3060560 45 18408040728163650474
312423 11 17275111664579735697
32948 21 18114456769275963005
351380 3 16845573114793431791
4028521 119 17240474793816043845
42 15 12247681586601875515
465052 167 17060058207004548351
5281201 14 18335138721774569861
5924683 9 9511164258477997757
7471813 234 17846501435123347776
960060 61 18187368709940353686

>  <PUBCHEM_SHAPE_MULTIPOLES>  (1) 
348.61
13.13
1.8
1.27
3.41
0.75
0.01
-3.76
6.81
-0.77
0.1
-0.03
-0.06
0.33

>  <PUBCHEM_SHAPE_SELFOVERLAP>  (1) 
718.393

>  <PUBCHEM_SHAPE_VOLUME>  (1) 
200.7

>  <PUBCHEM_COORDINATE_TYPE>  (1) 
2
5
10

$$$$
