45225
     RDKit          3D

 19 21  0  0  0  0  0  0  0  0999 V2000
    2.6040   -1.6104   -0.3897 O   0  0  0  0  0  0  0  0  0  0  0  0
   -3.5167   -1.2281    1.0515 O   0  0  0  0  0  0  0  0  0  0  0  0
   -4.6376    0.9973   -0.1170 N   0  0  0  0  0  0  0  0  0  0  0  0
    0.9867   -0.1179    0.1306 C   0  0  0  0  0  0  0  0  0  0  0  0
    2.2375    0.5656    0.1053 C   0  0  0  0  0  0  0  0  0  0  0  0
    1.2686   -1.4449   -0.1791 C   0  0  0  0  0  0  0  0  0  0  0  0
   -1.3401   -0.7491    0.3087 C   0  0  0  0  0  0  0  0  0  0  0  0
   -0.3507    0.2408    0.3813 C   0  0  0  0  0  0  0  0  0  0  0  0
    3.1920   -0.3938   -0.2179 C   0  0  0  0  0  0  0  0  0  0  0  0
    0.3068   -2.4506   -0.2581 C   0  0  0  0  0  0  0  0  0  0  0  0
   -3.2219    1.0239    0.2337 C   0  0  0  0  0  0  0  0  0  0  0  0
   -2.7273   -0.3926    0.5649 C   0  0  0  0  0  0  0  0  0  0  0  0
   -1.0144   -2.0705   -0.0053 C   0  0  0  0  0  0  0  0  0  0  0  0
    2.6652    1.8887    0.3204 C   0  0  0  0  0  0  0  0  0  0  0  0
    4.5547   -0.1293   -0.3442 C   0  0  0  0  0  0  0  0  0  0  0  0
    4.0297    2.1849    0.2008 C   0  0  0  0  0  0  0  0  0  0  0  0
    4.9558    1.1919   -0.1261 C   0  0  0  0  0  0  0  0  0  0  0  0
   -4.8631    0.1429   -1.2837 C   0  0  0  0  0  0  0  0  0  0  0  0
   -5.1293    2.3514   -0.3761 C   0  0  0  0  0  0  0  0  0  0  0  0
  1  6  1  0
  1  9  1  0
  2 12  2  0
  3 11  1  0
  3 18  1  0
  3 19  1  0
  4  5  1  0
  4  6  2  0
  4  8  1  0
  5  9  2  0
  5 14  1  0
  6 10  1  0
  7  8  2  0
  7 12  1  0
  7 13  1  0
  9 15  1  0
 10 13  2  0
 11 12  1  0
 14 16  2  0
 15 17  2  0
 16 17  1  0
M  END
>  <PUBCHEM_COMPOUND_CID>  (1) 
45225

>  <PUBCHEM_CONFORMER_RMSD>  (1) 
0.6

>  <PUBCHEM_CONFORMER_DIVERSEORDER>  (1) 
1
8
15
2
24
16
23
12
5
7
11
10
27
3
26
17
20
6
22
4
9
14
13
18
19
25
21

>  <PUBCHEM_MMFF94_PARTIAL_CHARGES>  (1) 
24
1 -0.28
10 -0.15
11 0.33
12 0.42
13 -0.15
14 -0.15
15 -0.15
16 -0.15
17 -0.15
18 0.27
19 0.27
2 -0.57
20 0.15
21 0.15
24 0.15
25 0.15
26 0.15
27 0.15
28 0.15
3 -0.81
6 0.14
7 0.09
8 -0.15
9 0.14

>  <PUBCHEM_EFFECTIVE_ROTOR_COUNT>  (1) 
3

>  <PUBCHEM_PHARMACOPHORE_FEATURES>  (1) 
6
1 1 acceptor
1 2 acceptor
1 3 cation
5 1 4 5 6 9 rings
6 4 6 7 8 10 13 rings
6 5 9 14 15 16 17 rings

>  <PUBCHEM_HEAVY_ATOM_COUNT>  (1) 
19

>  <PUBCHEM_ATOM_DEF_STEREO_COUNT>  (1) 
0

>  <PUBCHEM_ATOM_UDEF_STEREO_COUNT>  (1) 
0

>  <PUBCHEM_BOND_DEF_STEREO_COUNT>  (1) 
0

>  <PUBCHEM_BOND_UDEF_STEREO_COUNT>  (1) 
0

>  <PUBCHEM_ISOTOPIC_ATOM_COUNT>  (1) 
0

>  <PUBCHEM_COMPONENT_COUNT>  (1) 
1

>  <PUBCHEM_CACTVS_TAUTO_COUNT>  (1) 
2

>  <PUBCHEM_CONFORMER_ID>  (1) 
0000B0A900000001

>  <PUBCHEM_MMFF94_ENERGY>  (1) 
49.4359

>  <PUBCHEM_FEATURE_SELFOVERLAP>  (1) 
30.647

>  <PUBCHEM_SHAPE_FINGERPRINT>  (1) 
10014705 185 18338234967681694889
10411042 1 17402614047851525847
10498660 4 18411140242404114569
10608611 8 18410859892560817698
10693767 8 17701823185546409646
11089746 13 18409440393364382812
11471102 20 18342177748144804022
11543360 7 15195569034719412282
11595378 159 16009021735925601933
12403259 118 17969222398622407724
12403259 415 18338527420600205961
12500047 106 18341049735003288530
12507560 40 18333739034861332179
12596602 18 13912615947822680589
12670546 177 17846494855127208095
12730499 353 18337398145519098635
12769317 202 18339912706768051833
12969540 114 18261939813228812055
13402501 40 18335135371795537957
13583140 156 17313659447138071619
14123255 52 18410855490303871610
14528608 73 18342451539383012821
14848178 96 18411979144096280129
15196674 1 18410858775890413154
15375358 24 18407762534019545795
1601671 61 18186524306453741220
17834072 32 18410294726488888365
18186145 218 18201736053796884970
193927 3 12031784807739913693
200 152 17775282759814041649
20281475 54 9367342656627172331
20645477 56 18187088326222907217
20645477 70 18201722803780838910
21033648 29 18339919419543453752
21709351 56 18411136982560581188
21713013 43 12031795733951897393
22182313 1 18267607821181941815
22289505 5 18342458093582318596
22950370 63 9079116686874224033
231179 274 18260829293394211914
23227448 37 18269837673696452831
23402539 116 18272646865891942204
23402655 69 18202280260871696653
23559900 14 18201444671106290214
25 1 18411696569385960206
2838139 119 18409722958930886709
335352 9 18411702067824989542
3545911 37 18408046212620473329
4028521 119 18413672426272609425
4072396 5 18339911633490101122
4280585 95 17054725317538095998
474 4 18411982421324599297
495365 180 18201707436397980992
5104073 3 18333735706071651019
633830 44 18341611461033559503

>  <PUBCHEM_SHAPE_MULTIPOLES>  (1) 
374.29
10.89
2.45
0.81
5.12
0.01
-0.05
-7.34
-1.81
0.11
-0.07
0.59
0.04
0.73

>  <PUBCHEM_SHAPE_SELFOVERLAP>  (1) 
824.943

>  <PUBCHEM_SHAPE_VOLUME>  (1) 
205.7

>  <PUBCHEM_COORDINATE_TYPE>  (1) 
2
5
10

$$$$
