45235
     RDKit          3D

 31 33  0  0  1  0  0  0  0  0999 V2000
   -1.5830   -0.1008    0.8167 O   0  0  0  0  0  0  0  0  0  0  0  0
   -2.0595    2.0681    1.4231 O   0  0  0  0  0  0  0  0  0  0  0  0
    2.7670    1.8430   -1.6040 N   0  0  0  0  0  0  0  0  0  0  0  0
    0.8357   -0.1418    0.2053 C   0  0  0  0  0  0  0  0  0  0  0  0
    0.5425    1.0109   -0.8460 C   0  0  0  0  0  0  0  0  0  0  0  0
   -0.2628    0.0286    1.3572 C   0  0  0  0  0  0  0  0  0  0  0  0
    1.5228    1.2008   -2.0329 C   0  0  0  0  0  0  0  0  0  0  0  0
    2.2741    0.1115    0.7571 C   0  0  0  0  0  0  0  0  0  0  0  0
    0.6634   -1.5776   -0.3768 C   0  0  0  0  0  0  0  0  0  0  0  0
   -0.1334   -0.9129    2.5758 C   0  0  0  0  0  0  0  0  0  0  0  0
    0.8822    2.0732   -3.1169 C   0  0  0  0  0  0  0  0  0  0  0  0
    2.4690    0.9986    1.8159 C   0  0  0  0  0  0  0  0  0  0  0  0
   -0.2363   -1.8049   -1.4184 C   0  0  0  0  0  0  0  0  0  0  0  0
    3.3647   -0.5488    0.1910 C   0  0  0  0  0  0  0  0  0  0  0  0
    1.4086   -2.6354    0.1444 C   0  0  0  0  0  0  0  0  0  0  0  0
   -1.2289   -0.6644    3.6087 C   0  0  0  0  0  0  0  0  0  0  0  0
    2.5887    3.2912   -1.5170 C   0  0  0  0  0  0  0  0  0  0  0  0
    3.8533    1.5145   -2.5252 C   0  0  0  0  0  0  0  0  0  0  0  0
    3.7542    1.2248    2.3086 C   0  0  0  0  0  0  0  0  0  0  0  0
   -0.3906   -3.0899   -1.9387 C   0  0  0  0  0  0  0  0  0  0  0  0
    4.6498   -0.3225    0.6837 C   0  0  0  0  0  0  0  0  0  0  0  0
    1.2543   -3.9203   -0.3761 C   0  0  0  0  0  0  0  0  0  0  0  0
   -2.3705    0.9995    0.9203 C   0  0  0  0  0  0  0  0  0  0  0  0
    4.8446    0.5643    1.7425 C   0  0  0  0  0  0  0  0  0  0  0  0
    0.3548   -4.1475   -1.4175 C   0  0  0  0  0  0  0  0  0  0  0  0
   -3.7060    0.7365    0.3273 C   0  0  0  0  0  0  0  0  0  0  0  0
   -4.6784    1.7367    0.3272 C   0  0  0  0  0  0  0  0  0  0  0  0
   -3.9885   -0.5107   -0.2302 C   0  0  0  0  0  0  0  0  0  0  0  0
   -5.9330    1.4898   -0.2301 C   0  0  0  0  0  0  0  0  0  0  0  0
   -5.2432   -0.7574   -0.7876 C   0  0  0  0  0  0  0  0  0  0  0  0
   -6.2154    0.2429   -0.7874 C   0  0  0  0  0  0  0  0  0  0  0  0
  1  6  1  0
  1 23  1  0
  2 23  2  0
  3  7  1  0
  3 17  1  0
  3 18  1  0
  4  5  1  0
  4  6  1  0
  4  8  1  0
  4  9  1  0
  5  7  1  0
  6 10  1  0
  7 11  1  0
  8 12  2  0
  8 14  1  0
  9 13  2  0
  9 15  1  0
 10 16  1  0
 12 19  1  0
 13 20  1  0
 14 21  2  0
 15 22  2  0
 19 24  2  0
 20 25  2  0
 21 24  1  0
 22 25  1  0
 23 26  1  0
 26 27  2  0
 26 28  1  0
 27 29  1  0
 28 30  2  0
 29 31  2  0
 30 31  1  0
M  END
>  <PUBCHEM_COMPOUND_CID>  (1) 
45235

>  <PUBCHEM_CONFORMER_RMSD>  (1) 
1

>  <PUBCHEM_CONFORMER_DIVERSEORDER>  (1) 
1
64
31
47
18
51
25
39
62
20
33
26
58
21
63
3
56
28
52
40
46
10
15
12
55
54
6
14
35
53
61
19
44
13
16
60
37
2
43
32
24
57
29
7
38
41
49
8
59
11
4
50
42
27
34
9
36
22
48
17
5
23
45
30

>  <PUBCHEM_MMFF94_PARTIAL_CHARGES>  (1) 
42
1 -0.43
12 -0.15
13 -0.15
14 -0.15
15 -0.15
17 0.27
18 0.27
19 -0.15
2 -0.57
20 -0.15
21 -0.15
22 -0.15
23 0.63
24 -0.15
25 -0.15
26 0.09
27 -0.15
28 -0.15
29 -0.15
3 -0.81
30 -0.15
31 -0.15
4 0.29
41 0.15
42 0.15
43 0.15
44 0.15
54 0.15
55 0.15
56 0.15
57 0.15
58 0.15
59 0.15
6 0.28
60 0.15
61 0.15
62 0.15
63 0.15
64 0.15
7 0.27
8 -0.14
9 -0.14

>  <PUBCHEM_EFFECTIVE_ROTOR_COUNT>  (1) 
10

>  <PUBCHEM_PHARMACOPHORE_FEATURES>  (1) 
6
1 16 hydrophobe
1 2 acceptor
1 3 cation
6 26 27 28 29 30 31 rings
6 8 12 14 19 21 24 rings
6 9 13 15 20 22 25 rings

>  <PUBCHEM_HEAVY_ATOM_COUNT>  (1) 
31

>  <PUBCHEM_ATOM_DEF_STEREO_COUNT>  (1) 
0

>  <PUBCHEM_ATOM_UDEF_STEREO_COUNT>  (1) 
2

>  <PUBCHEM_BOND_DEF_STEREO_COUNT>  (1) 
0

>  <PUBCHEM_BOND_UDEF_STEREO_COUNT>  (1) 
0

>  <PUBCHEM_ISOTOPIC_ATOM_COUNT>  (1) 
0

>  <PUBCHEM_COMPONENT_COUNT>  (1) 
1

>  <PUBCHEM_CACTVS_TAUTO_COUNT>  (1) 
1

>  <PUBCHEM_CONFORMER_ID>  (1) 
0000B0B300000001

>  <PUBCHEM_MMFF94_ENERGY>  (1) 
117.6212

>  <PUBCHEM_FEATURE_SELFOVERLAP>  (1) 
30.446

>  <PUBCHEM_SHAPE_FINGERPRINT>  (1) 
10906281 52 17823438035894599748
11370993 70 18201991127699505947
11578080 2 17904763276025385820
12058002 1 18116734935783356209
12160290 23 17627247975788953370
12422481 6 18116696457208014292
12608794 3 17316730430681252864
12633257 1 17167856474179774201
12788726 201 17689716784602530766
133893 2 17980514211193613115
14863182 85 18341616988324120831
15849732 13 18335135402239278956
16114785 44 13817971396127301747
17349148 13 18187370921780192753
17980427 23 18259981600115676681
17980427 26 16951393498506148522
18681886 176 18411694422071221536
20197701 30 18131058346794131434
20600515 1 17241909591875962324
20691752 17 17273443654201433048
20739085 24 18264762177936647486
21033648 144 17749955586783356405
21860390 5 17894638036685056855
22149856 69 18270981089735456523
22393880 68 17773884099282098925
23419403 2 17688296903237798206
23559900 14 18338240341313900047
25222932 49 17202741805561490175
25223398 141 18267864063500082379
3052486 1 17985247806762828815
3380486 77 18060706095823439856
376196 1 18041003994152283237
4340502 62 17774424041132749634
57527306 92 17895179009444402600
6669772 16 17131828781368527158
9999458 23 18130495375766274248

>  <PUBCHEM_SHAPE_MULTIPOLES>  (1) 
621.25
9.96
3.67
2.99
13.63
3.53
0.6
-5.65
0.45
-1.64
-2.73
-2.12
-0.82
-1.09

>  <PUBCHEM_SHAPE_SELFOVERLAP>  (1) 
1316.302

>  <PUBCHEM_SHAPE_VOLUME>  (1) 
345

>  <PUBCHEM_COORDINATE_TYPE>  (1) 
2
5
10

$$$$
