45237
     RDKit          3D

 31 33  0  0  1  0  0  0  0  0999 V2000
   -1.3279   -0.9851   -0.1003 O   0  0  0  0  0  0  0  0  0  0  0  0
   -1.9615   -1.5163    2.0481 O   0  0  0  0  0  0  0  0  0  0  0  0
    0.8417    3.3843    1.5462 N   0  0  0  0  0  0  0  0  0  0  0  0
    1.0609   -0.2658    0.0372 C   0  0  0  0  0  0  0  0  0  0  0  0
    0.5731    0.9448    1.0005 C   0  0  0  0  0  0  0  0  0  0  0  0
    0.0001   -1.4580    0.1663 C   0  0  0  0  0  0  0  0  0  0  0  0
    1.0479    0.1413   -1.4796 C   0  0  0  0  0  0  0  0  0  0  0  0
    2.4918   -0.6814    0.5193 C   0  0  0  0  0  0  0  0  0  0  0  0
    1.4076    2.2465    0.8200 C   0  0  0  0  0  0  0  0  0  0  0  0
    0.2495   -2.7129   -0.6971 C   0  0  0  0  0  0  0  0  0  0  0  0
    0.5021    0.5844    2.5016 C   0  0  0  0  0  0  0  0  0  0  0  0
    0.1297    1.0847   -1.9409 C   0  0  0  0  0  0  0  0  0  0  0  0
    2.6386   -1.6196    1.5411 C   0  0  0  0  0  0  0  0  0  0  0  0
    1.9543   -0.4411   -2.3658 C   0  0  0  0  0  0  0  0  0  0  0  0
    3.6197   -0.1129   -0.0729 C   0  0  0  0  0  0  0  0  0  0  0  0
   -0.8286   -3.7715   -0.4829 C   0  0  0  0  0  0  0  0  0  0  0  0
   -0.2951    3.9413    0.8149 C   0  0  0  0  0  0  0  0  0  0  0  0
    1.8619    4.4085    1.7644 C   0  0  0  0  0  0  0  0  0  0  0  0
    0.1181    1.4458   -3.2882 C   0  0  0  0  0  0  0  0  0  0  0  0
    3.9132   -1.9893    1.9705 C   0  0  0  0  0  0  0  0  0  0  0  0
    1.9427   -0.0798   -3.7130 C   0  0  0  0  0  0  0  0  0  0  0  0
    4.8942   -0.4828    0.3565 C   0  0  0  0  0  0  0  0  0  0  0  0
   -2.2001   -1.0767    0.9340 C   0  0  0  0  0  0  0  0  0  0  0  0
    1.0246    0.8636   -4.1742 C   0  0  0  0  0  0  0  0  0  0  0  0
    5.0409   -1.4208    1.3782 C   0  0  0  0  0  0  0  0  0  0  0  0
   -3.5320   -0.5588    0.5310 C   0  0  0  0  0  0  0  0  0  0  0  0
   -4.5861   -0.5592    1.4447 C   0  0  0  0  0  0  0  0  0  0  0  0
   -3.7291   -0.0712   -0.7610 C   0  0  0  0  0  0  0  0  0  0  0  0
   -5.8373   -0.0726    1.0662 C   0  0  0  0  0  0  0  0  0  0  0  0
   -4.9804    0.4155   -1.1393 C   0  0  0  0  0  0  0  0  0  0  0  0
   -6.0344    0.4149   -0.2255 C   0  0  0  0  0  0  0  0  0  0  0  0
  1  6  1  0
  1 23  1  0
  2 23  2  0
  3  9  1  0
  3 17  1  0
  3 18  1  0
  4  5  1  0
  4  6  1  0
  4  7  1  0
  4  8  1  0
  5  9  1  0
  5 11  1  0
  6 10  1  0
  7 12  2  0
  7 14  1  0
  8 13  2  0
  8 15  1  0
 10 16  1  0
 12 19  1  0
 13 20  1  0
 14 21  2  0
 15 22  2  0
 19 24  2  0
 20 25  2  0
 21 24  1  0
 22 25  1  0
 23 26  1  0
 26 27  2  0
 26 28  1  0
 27 29  1  0
 28 30  2  0
 29 31  2  0
 30 31  1  0
M  END
>  <PUBCHEM_COMPOUND_CID>  (1) 
45237

>  <PUBCHEM_CONFORMER_RMSD>  (1) 
1

>  <PUBCHEM_CONFORMER_DIVERSEORDER>  (1) 
1
9
12
11
6
15
3
20
13
18
7
16
22
5
4
10
14
8
19
21
2
23
17

>  <PUBCHEM_MMFF94_PARTIAL_CHARGES>  (1) 
42
1 -0.43
12 -0.15
13 -0.15
14 -0.15
15 -0.15
17 0.27
18 0.27
19 -0.15
2 -0.57
20 -0.15
21 -0.15
22 -0.15
23 0.63
24 -0.15
25 -0.15
26 0.09
27 -0.15
28 -0.15
29 -0.15
3 -0.81
30 -0.15
31 -0.15
4 0.29
41 0.15
42 0.15
43 0.15
44 0.15
54 0.15
55 0.15
56 0.15
57 0.15
58 0.15
59 0.15
6 0.28
60 0.15
61 0.15
62 0.15
63 0.15
64 0.15
7 -0.14
8 -0.14
9 0.27

>  <PUBCHEM_EFFECTIVE_ROTOR_COUNT>  (1) 
10

>  <PUBCHEM_PHARMACOPHORE_FEATURES>  (1) 
7
1 11 hydrophobe
1 16 hydrophobe
1 2 acceptor
1 3 cation
6 26 27 28 29 30 31 rings
6 7 12 14 19 21 24 rings
6 8 13 15 20 22 25 rings

>  <PUBCHEM_HEAVY_ATOM_COUNT>  (1) 
31

>  <PUBCHEM_ATOM_DEF_STEREO_COUNT>  (1) 
0

>  <PUBCHEM_ATOM_UDEF_STEREO_COUNT>  (1) 
2

>  <PUBCHEM_BOND_DEF_STEREO_COUNT>  (1) 
0

>  <PUBCHEM_BOND_UDEF_STEREO_COUNT>  (1) 
0

>  <PUBCHEM_ISOTOPIC_ATOM_COUNT>  (1) 
0

>  <PUBCHEM_COMPONENT_COUNT>  (1) 
1

>  <PUBCHEM_CACTVS_TAUTO_COUNT>  (1) 
1

>  <PUBCHEM_CONFORMER_ID>  (1) 
0000B0B500000001

>  <PUBCHEM_MMFF94_ENERGY>  (1) 
116.472

>  <PUBCHEM_FEATURE_SELFOVERLAP>  (1) 
35.522

>  <PUBCHEM_SHAPE_FINGERPRINT>  (1) 
10006869 2 18130496505744295336
10906281 52 17346333638201494802
11112662 9 11815890158912926080
11578080 2 18119253010795455596
12058002 1 17681586669362137010
12156800 1 18052558576790480428
12166972 35 17967817150280214641
12422481 6 17753043899922749967
12608794 3 17341484745227235682
12633257 1 18201429303032582863
12788726 201 18337390414503970522
13009979 54 17896331220283606901
13134695 92 18408315584226226929
13149001 5 17699042722312705143
133893 2 17408471499122786504
13583140 156 18118974821532037083
15238133 3 18264508216857609897
17980427 26 17981307204439157604
18681886 176 16732702770408813475
20600515 1 17988658401310387658
20691752 17 17770817599933344330
21033648 29 17896297221697161481
21860390 5 17846222197602895989
22121540 332 17607206979696387989
23419403 2 17972846299143712276
23559900 14 17458060491627239147
3052486 1 18126022480697170233
3380486 77 18272377459900005770
3552219 110 18041567932337975480
4340502 62 13326561943908855974
469060 322 17486737884661247996
513202 73 17772467885709583942
57527452 28 18335991882937798954
8509985 295 18411417314981214491
9981440 41 15508044900721139092

>  <PUBCHEM_SHAPE_MULTIPOLES>  (1) 
621.25
9.25
3.65
3.45
11.66
2.87
3.94
-3.17
-3.55
-1.9
-2.11
-2.18
1.81
-0.03

>  <PUBCHEM_SHAPE_SELFOVERLAP>  (1) 
1312.383

>  <PUBCHEM_SHAPE_VOLUME>  (1) 
345.6

>  <PUBCHEM_COORDINATE_TYPE>  (1) 
2
5
10

$$$$
