45249
     RDKit          3D

 20 21  0  0  1  0  0  0  0  0999 V2000
    0.7404    0.0275    0.3254 O   0  0  0  0  0  0  0  0  0  0  0  0
    1.5026    2.1908    0.1291 O   0  0  0  0  0  0  0  0  0  0  0  0
    6.8031   -1.3144   -0.0502 O   0  0  0  0  0  0  0  0  0  0  0  0
   -3.4526    0.1287   -0.2015 N   0  0  0  0  0  0  0  0  0  0  0  0
   -4.8447    0.6131   -0.0555 C   0  0  0  0  0  0  0  0  0  0  0  0
   -5.6662   -0.3697    0.8032 C   0  0  0  0  0  0  0  0  0  0  0  0
   -3.4175   -1.2167   -0.8018 C   0  0  0  0  0  0  0  0  0  0  0  0
   -5.6311   -1.7843    0.2395 C   0  0  0  0  0  0  0  0  0  0  0  0
   -4.1922   -2.2318    0.0352 C   0  0  0  0  0  0  0  0  0  0  0  0
   -2.6240    1.0342   -1.0029 C   0  0  0  0  0  0  0  0  0  0  0  0
   -4.9233    2.0000    0.5988 C   0  0  0  0  0  0  0  0  0  0  0  0
   -1.1750    0.5580   -1.0112 C   0  0  0  0  0  0  0  0  0  0  0  0
   -0.6014    0.4897    0.3977 C   0  0  0  0  0  0  0  0  0  0  0  0
    1.6978    0.9869    0.1914 C   0  0  0  0  0  0  0  0  0  0  0  0
    3.0498    0.3768    0.1264 C   0  0  0  0  0  0  0  0  0  0  0  0
    4.1474    1.2018   -0.0111 C   0  0  0  0  0  0  0  0  0  0  0  0
    3.1676   -0.9959    0.2062 C   0  0  0  0  0  0  0  0  0  0  0  0
    5.4179    0.6293   -0.0716 C   0  0  0  0  0  0  0  0  0  0  0  0
    4.4382   -1.5683    0.1459 C   0  0  0  0  0  0  0  0  0  0  0  0
    5.5634   -0.7558    0.0070 C   0  0  0  0  0  0  0  0  0  0  0  0
  1 13  1  0
  1 14  1  0
  2 14  2  0
  3 20  1  0
  4  5  1  0
  4  7  1  0
  4 10  1  0
  5  6  1  0
  5 11  1  0
  6  8  1  0
  7  9  1  0
  8  9  1  0
 10 12  1  0
 12 13  1  0
 14 15  1  0
 15 16  2  0
 15 17  1  0
 16 18  1  0
 17 19  2  0
 18 20  2  0
 19 20  1  0
M  END
>  <PUBCHEM_COMPOUND_CID>  (1) 
45249

>  <PUBCHEM_CONFORMER_RMSD>  (1) 
0.8

>  <PUBCHEM_CONFORMER_DIVERSEORDER>  (1) 
23
306
28
191
189
266
224
329
29
142
286
256
339
338
298
341
139
263
107
109
320
323
340
85
348
93
244
194
37
168
106
259
97
221
65
163
2
220
98
135
273
136
268
325
46
345
233
120
201
312
271
247
48
232
275
57
47
173
303
327
304
185
170
238
208
162
337
308
122
128
87
318
38
230
243
90
289
227
30
302
161
190
145
307
81
63
89
237
240
319
54
272
279
60
127
158
253
282
24
202
32
222
209
217
26
175
235
236
349
234
92
43
141
264
333
146
55
354
176
270
116
300
129
7
41
245
181
27
255
33
252
86
112
51
64
261
198
125
205
159
77
225
313
84
96
18
216
265
59
292
344
326
131
269
103
200
151
342
192
215
223
352
184
250
132
239
75
5
317
118
73
61
267
164
330
99
301
17
133
335
336
134
42
295
322
153
100
114
332
79
108
229
315
123
11
172
62
20
210
294
206
262
154
82
74
281
187
15
138
213
283
119
277
126
353
83
280
91
334
276
10
110
251
169
144
102
105
248
188
350
228
293
288
45
310
130
147
140
94
177
31
104
186
218
4
231
53
8
346
241
13
197
40
242
351
343
39
34
211
22
178
258
113
193
180
182
207
257
35
314
203
165
115
117
195
101
284
305
160
16
324
1
167
321
150
347
80
137
296
156
19
328
299
44
152
254
274
316
183
331
199
72
121
219
14
66
249
196
204
311
278
70
111
291
155
214
260
69
95
157
3
226
179
52
68
143
58
67
71
36
50
12
171
88
174
212
287
76
290
78
148
246
297
166
6
9
25
309
285
124
149
56
49
21

>  <PUBCHEM_MMFF94_PARTIAL_CHARGES>  (1) 
20
1 -0.43
10 0.27
13 0.28
14 0.63
15 0.09
16 -0.15
17 -0.15
18 -0.15
19 -0.15
2 -0.57
20 0.08
3 -0.53
39 0.15
4 -0.81
40 0.15
41 0.15
42 0.15
43 0.45
5 0.27
7 0.27

>  <PUBCHEM_EFFECTIVE_ROTOR_COUNT>  (1) 
7.2

>  <PUBCHEM_PHARMACOPHORE_FEATURES>  (1) 
5
1 2 acceptor
1 3 donor
1 4 cation
6 15 16 17 18 19 20 rings
6 4 5 6 7 8 9 rings

>  <PUBCHEM_HEAVY_ATOM_COUNT>  (1) 
20

>  <PUBCHEM_ATOM_DEF_STEREO_COUNT>  (1) 
0

>  <PUBCHEM_ATOM_UDEF_STEREO_COUNT>  (1) 
1

>  <PUBCHEM_BOND_DEF_STEREO_COUNT>  (1) 
0

>  <PUBCHEM_BOND_UDEF_STEREO_COUNT>  (1) 
0

>  <PUBCHEM_ISOTOPIC_ATOM_COUNT>  (1) 
0

>  <PUBCHEM_COMPONENT_COUNT>  (1) 
1

>  <PUBCHEM_CACTVS_TAUTO_COUNT>  (1) 
3

>  <PUBCHEM_CONFORMER_ID>  (1) 
0000B0C100000017

>  <PUBCHEM_MMFF94_ENERGY>  (1) 
35.612

>  <PUBCHEM_FEATURE_SELFOVERLAP>  (1) 
25.371

>  <PUBCHEM_SHAPE_FINGERPRINT>  (1) 
10299344 5 18408046212251234134
10595046 47 18337955704676835037
11045515 52 18186799158348756044
11089746 13 10952050044030694126
11128504 68 16588030129679303414
11315181 36 18408887347922284505
11524674 6 17346598586508554367
117890 112 10879996865087362006
12107183 9 17907298754439459729
12166972 35 17821732724157933252
12236239 1 18202846547888288336
12596602 18 17131549548006295546
12616971 3 17489577987868313580
13073987 5 18341612641717127112
13167823 11 18410571807798327843
13288520 33 18334857225644477383
13402501 40 18407761447298504443
1420 363 17530685415593511065
14251758 9 16773802476052462004
14251764 18 18131072658400179831
14341114 176 18411421734787489177
14350574 20 18259703406514670004
14420673 8 18411705344278777399
14528608 73 8502652610450794864
15183329 4 18333728005100628890
15196674 1 18410572902925408502
15348495 7 17489297646325054306
15537594 2 17749388126934640179
17093844 174 17917983962888171561
17780758 139 18343301449123551185
17834072 33 18409168835351334888
17844677 252 18412550928707686969
1813 80 17313104163717234677
19489759 90 10159696898016212701
200 152 18343020008010511904
20645477 70 18409449159767459626
21150785 3 15213024868753878894
21267235 1 18410016541351384550
21315763 191 18408889533374660860
21623969 137 18131636681600001646
220451 1 18186804643237393522
22950370 63 18408323284949919412
23035841 295 18407760326332613074
23402539 116 17022900138313129909
23522609 53 18044404701838887284
23536379 177 18411700976122606872
23559900 14 18339352093725148249
239999 70 18413109459883266942
26918003 58 18060136526787175521
3004659 81 18261110768988127042
351380 3 18411133645307967614
4073 2 18187369865107396930
4214541 1 18411699881349122801
4325135 7 18114184172386933310
465052 167 18272653433598571014
5104073 3 18341606018998824472
559249 180 18413387614575749627
7495541 125 18412261774508558688
77779 3 18410854386724207797
999808 66 17968108546753088867

>  <PUBCHEM_SHAPE_MULTIPOLES>  (1) 
389
17.15
2.05
0.82
5.69
0.21
0.09
5.53
-1.68
-1.34
-0.11
-0.62
-0.07
-0.13

>  <PUBCHEM_SHAPE_SELFOVERLAP>  (1) 
800.237

>  <PUBCHEM_SHAPE_VOLUME>  (1) 
224

>  <PUBCHEM_COORDINATE_TYPE>  (1) 
2
5
10

$$$$
