45255
     RDKit          3D

 22 23  0  0  1  0  0  0  0  0999 V2000
   -0.2390   -1.4318   -0.5964 O   0  0  0  0  0  0  0  0  0  0  0  0
    0.4110   -2.6750    1.2287 O   0  0  0  0  0  0  0  0  0  0  0  0
   -3.2733    0.2289   -0.3504 N   0  0  0  0  0  0  0  0  0  0  0  0
   -3.3316    1.6638   -0.0114 C   0  0  0  0  0  0  0  0  0  0  0  0
   -3.9813    1.8423    1.3742 C   0  0  0  0  0  0  0  0  0  0  0  0
   -4.5846   -0.4287   -0.3293 C   0  0  0  0  0  0  0  0  0  0  0  0
   -5.3494    1.1734    1.4687 C   0  0  0  0  0  0  0  0  0  0  0  0
   -5.2576   -0.2844    1.0358 C   0  0  0  0  0  0  0  0  0  0  0  0
   -2.5732   -0.0364   -1.6040 C   0  0  0  0  0  0  0  0  0  0  0  0
   -4.0151    2.5569   -1.0585 C   0  0  0  0  0  0  0  0  0  0  0  0
   -2.3266   -1.5328   -1.7664 C   0  0  0  0  0  0  0  0  0  0  0  0
   -1.4978   -2.0904   -0.6169 C   0  0  0  0  0  0  0  0  0  0  0  0
    5.5388    1.1172    0.0442 C   0  0  0  0  0  0  0  0  0  0  0  0
    0.6248   -1.8214    0.3820 C   0  0  0  0  0  0  0  0  0  0  0  0
    4.2608    0.3532    0.1316 C   0  0  0  0  0  0  0  0  0  0  0  0
    1.8968   -1.0605    0.2957 C   0  0  0  0  0  0  0  0  0  0  0  0
    4.2598   -0.9482    0.6337 C   0  0  0  0  0  0  0  0  0  0  0  0
    3.0669    0.9399   -0.2876 C   0  0  0  0  0  0  0  0  0  0  0  0
    3.0647   -1.6629    0.7166 C   0  0  0  0  0  0  0  0  0  0  0  0
    1.8718    0.2254   -0.2047 C   0  0  0  0  0  0  0  0  0  0  0  0
    5.9059    1.4870   -1.4053 C   0  0  0  0  0  0  0  0  0  0  0  0
    5.5281    2.3846    0.9198 C   0  0  0  0  0  0  0  0  0  0  0  0
  1 12  1  0
  1 14  1  0
  2 14  2  0
  3  4  1  0
  3  6  1  0
  3  9  1  0
  4  5  1  0
  4 10  1  0
  5  7  1  0
  6  8  1  0
  7  8  1  0
  9 11  1  0
 11 12  1  0
 13 15  1  0
 13 21  1  0
 13 22  1  0
 14 16  1  0
 15 17  2  0
 15 18  1  0
 16 19  2  0
 16 20  1  0
 17 19  1  0
 18 20  2  0
M  END
>  <PUBCHEM_COMPOUND_CID>  (1) 
45255

>  <PUBCHEM_CONFORMER_RMSD>  (1) 
1

>  <PUBCHEM_CONFORMER_DIVERSEORDER>  (1) 
3
137
117
110
82
146
36
47
108
8
66
116
32
132
100
145
1
31
142
123
121
34
103
20
129
46
71
73
160
24
94
15
101
19
70
150
26
115
22
138
86
4
42
65
53
60
122
87
141
61
111
81
44
131
88
50
41
161
119
156
74
16
68
98
39
134
40
90
152
114
69
14
147
18
21
96
72
118
153
33
63
38
89
76
148
125
58
92
64
7
17
10
13
23
45
49
102
91
84
151
157
55
57
133
155
12
2
56
85
124
48
67
43
112
29
59
83
93
135
126
97
5
99
109
62
35
78
75
80
149
159
79
154
25
104
37
136
28
139
27
6
113
51
127
105
9
140
128
52
30
106
77
11
54
120
158
107
144
95
130
143

>  <PUBCHEM_MMFF94_PARTIAL_CHARGES>  (1) 
19
1 -0.43
12 0.28
13 0.14
14 0.63
15 -0.14
16 0.09
17 -0.15
18 -0.15
19 -0.15
2 -0.57
20 -0.15
3 -0.81
4 0.27
42 0.15
43 0.15
44 0.15
45 0.15
6 0.27
9 0.27

>  <PUBCHEM_EFFECTIVE_ROTOR_COUNT>  (1) 
8.2

>  <PUBCHEM_PHARMACOPHORE_FEATURES>  (1) 
5
1 2 acceptor
1 3 cation
3 13 21 22 hydrophobe
6 15 16 17 18 19 20 rings
6 3 4 5 6 7 8 rings

>  <PUBCHEM_HEAVY_ATOM_COUNT>  (1) 
22

>  <PUBCHEM_ATOM_DEF_STEREO_COUNT>  (1) 
0

>  <PUBCHEM_ATOM_UDEF_STEREO_COUNT>  (1) 
1

>  <PUBCHEM_BOND_DEF_STEREO_COUNT>  (1) 
0

>  <PUBCHEM_BOND_UDEF_STEREO_COUNT>  (1) 
0

>  <PUBCHEM_ISOTOPIC_ATOM_COUNT>  (1) 
0

>  <PUBCHEM_COMPONENT_COUNT>  (1) 
1

>  <PUBCHEM_CACTVS_TAUTO_COUNT>  (1) 
1

>  <PUBCHEM_CONFORMER_ID>  (1) 
0000B0C700000003

>  <PUBCHEM_MMFF94_ENERGY>  (1) 
41.4042

>  <PUBCHEM_FEATURE_SELFOVERLAP>  (1) 
25.371

>  <PUBCHEM_SHAPE_FINGERPRINT>  (1) 
10753850 27 8214137435371204101
11135609 201 18267579281466677698
11370993 144 17314789586341425315
11393246 34 11459241555522051304
12390115 104 18335147539448105510
12523318 42 13551184498514265151
12596602 18 16950278520437824368
12788726 201 16630255696827978672
12892183 10 17822577092968399775
13583140 156 14779808495517011374
13828863 39 18342747278194013729
13885169 86 17897175821740408988
14251740 79 10015592675361498883
14251757 5 17275106158389145347
14341114 328 18411704253689030043
14713325 29 18058169599528581471
14765038 42 18272663358519581432
14848178 5 8358257038341124380
15081414 286 18260547827661726532
15163728 17 17989495108163527630
15183329 4 17417819422274741854
15188451 53 11530754946885018660
15575132 122 18341614772532926949
18222031 100 9799700303114480862
20028762 73 7925638787131207128
20739085 24 17895475813528073334
21120745 212 17842547716196271791
21756936 100 18341330075771315238
21864079 5 18336536115016789055
23198884 109 16845580837334338919
2838139 119 18341604945763362928
312425 54 12468897798698773180
3459 110 16661503963371111280
38570 142 18338252504640001558
392239 28 18189352298084920195
4098825 35 17704082802157751502
44062 13 10591754381882012657
46194498 28 13468961919804543851
5104073 3 17968369035764944208
57724786 102 17842000979654033011
59682541 52 13901631749488995221
59755656 520 18261114097308687362
633830 44 18337383855926028350
7808743 9 18131630093135623171
960060 61 12031781483445789370

>  <PUBCHEM_SHAPE_MULTIPOLES>  (1) 
436.03
14.84
2.77
1.45
5.73
0.06
-0.21
10.24
1.84
0
0.22
-1.07
0.1
-1.18

>  <PUBCHEM_SHAPE_SELFOVERLAP>  (1) 
889.291

>  <PUBCHEM_SHAPE_VOLUME>  (1) 
252.7

>  <PUBCHEM_COORDINATE_TYPE>  (1) 
2
5
10

$$$$
