45251
     RDKit          3D

 20 21  0  0  1  0  0  0  0  0999 V2000
    7.1969    2.2690   -0.4043 I   0  0  0  0  0  0  0  0  0  0  0  0
    0.9474   -0.6831   -0.0061 O   0  0  0  0  0  0  0  0  0  0  0  0
    2.1383   -2.5656    0.5748 O   0  0  0  0  0  0  0  0  0  0  0  0
   -3.8583   -0.2591   -0.4577 N   0  0  0  0  0  0  0  0  0  0  0  0
   -3.8211    0.9935    0.3212 C   0  0  0  0  0  0  0  0  0  0  0  0
   -4.9261    1.9452   -0.1761 C   0  0  0  0  0  0  0  0  0  0  0  0
   -5.1577   -0.9385   -0.4073 C   0  0  0  0  0  0  0  0  0  0  0  0
   -6.3074    1.2975   -0.1573 C   0  0  0  0  0  0  0  0  0  0  0  0
   -6.2807   -0.0291   -0.9061 C   0  0  0  0  0  0  0  0  0  0  0  0
   -2.7730   -1.1762   -0.1214 C   0  0  0  0  0  0  0  0  0  0  0  0
   -3.8911    0.8187    1.8463 C   0  0  0  0  0  0  0  0  0  0  0  0
   -1.4285   -0.4618   -0.2137 C   0  0  0  0  0  0  0  0  0  0  0  0
   -0.2738   -1.3999    0.1108 C   0  0  0  0  0  0  0  0  0  0  0  0
    2.0830   -1.3883    0.2545 C   0  0  0  0  0  0  0  0  0  0  0  0
    3.2841   -0.5294    0.0997 C   0  0  0  0  0  0  0  0  0  0  0  0
    4.4722   -1.1092   -0.2955 C   0  0  0  0  0  0  0  0  0  0  0  0
    3.1751    0.8222    0.3560 C   0  0  0  0  0  0  0  0  0  0  0  0
    5.6007   -0.3021   -0.4407 C   0  0  0  0  0  0  0  0  0  0  0  0
    4.3036    1.6291    0.2106 C   0  0  0  0  0  0  0  0  0  0  0  0
    5.5164    1.0670   -0.1877 C   0  0  0  0  0  0  0  0  0  0  0  0
  1 20  1  0
  2 13  1  0
  2 14  1  0
  3 14  2  0
  4  5  1  0
  4  7  1  0
  4 10  1  0
  5  6  1  0
  5 11  1  0
  6  8  1  0
  7  9  1  0
  8  9  1  0
 10 12  1  0
 12 13  1  0
 14 15  1  0
 15 16  2  0
 15 17  1  0
 16 18  1  0
 17 19  2  0
 18 20  2  0
 19 20  1  0
M  END
>  <PUBCHEM_COMPOUND_CID>  (1) 
45251

>  <PUBCHEM_CONFORMER_RMSD>  (1) 
0.8

>  <PUBCHEM_CONFORMER_DIVERSEORDER>  (1) 
4
192
32
335
201
313
277
354
262
193
267
376
298
290
52
252
41
191
168
328
341
218
81
34
331
88
172
304
362
16
174
39
285
242
371
181
119
269
128
210
343
154
204
327
255
265
157
205
13
217
345
10
188
232
12
84
121
178
312
125
351
141
347
296
264
275
333
337
363
365
80
315
349
142
361
14
99
293
17
308
372
95
71
197
86
27
288
43
153
358
92
42
195
182
26
355
109
173
323
272
243
120
330
228
54
196
171
208
297
287
152
348
226
87
311
356
65
316
40
374
324
58
291
215
190
160
212
134
281
31
140
77
105
150
186
93
294
59
29
260
139
352
133
161
115
284
135
36
207
97
257
49
118
113
310
129
163
251
117
38
21
60
359
339
94
180
237
256
82
239
353
221
183
236
213
244
6
342
286
19
144
318
143
101
8
222
273
338
334
167
225
314
79
321
45
2
336
138
373
206
319
346
9
111
47
76
112
63
200
55
227
35
3
132
258
104
289
126
283
211
166
322
202
367
62
292
165
159
130
302
295
103
148
340
137
268
33
96
107
224
375
184
234
364
299
233
209
246
249
263
274
231
169
240
91
303
235
176
70
15
245
67
164
369
37
326
22
306
156
223
123
106
179
261
250
266
50
220
199
83
100
75
247
214
23
151
198
24
78
116
254
90
124
136
370
366
175
64
131
344
56
230
357
350
46
98
11
368
89
300
241
108
73
329
28
149
74
278
20
276
305
158
51
309
271
127
66
317
69
229
61
53
301
216
114
85
18
279
30
147
162
238
102
194
219
110
320
146
185
248
68
280
1
332
177
122
187
5
189
48
203
25
270
282
253
155
307
7
259
145
57
360
44
170
325
72

>  <PUBCHEM_MMFF94_PARTIAL_CHARGES>  (1) 
19
1 -0.08
10 0.27
13 0.28
14 0.63
15 0.09
16 -0.15
17 -0.15
18 -0.15
19 -0.15
2 -0.43
20 0.08
3 -0.57
39 0.15
4 -0.81
40 0.15
41 0.15
42 0.15
5 0.27
7 0.27

>  <PUBCHEM_EFFECTIVE_ROTOR_COUNT>  (1) 
7.2

>  <PUBCHEM_PHARMACOPHORE_FEATURES>  (1) 
5
1 1 hydrophobe
1 3 acceptor
1 4 cation
6 15 16 17 18 19 20 rings
6 4 5 6 7 8 9 rings

>  <PUBCHEM_HEAVY_ATOM_COUNT>  (1) 
20

>  <PUBCHEM_ATOM_DEF_STEREO_COUNT>  (1) 
0

>  <PUBCHEM_ATOM_UDEF_STEREO_COUNT>  (1) 
1

>  <PUBCHEM_BOND_DEF_STEREO_COUNT>  (1) 
0

>  <PUBCHEM_BOND_UDEF_STEREO_COUNT>  (1) 
0

>  <PUBCHEM_ISOTOPIC_ATOM_COUNT>  (1) 
0

>  <PUBCHEM_COMPONENT_COUNT>  (1) 
1

>  <PUBCHEM_CACTVS_TAUTO_COUNT>  (1) 
1

>  <PUBCHEM_CONFORMER_ID>  (1) 
0000B0C300000004

>  <PUBCHEM_MMFF94_ENERGY>  (1) 
35.4895

>  <PUBCHEM_FEATURE_SELFOVERLAP>  (1) 
25.371

>  <PUBCHEM_SHAPE_FINGERPRINT>  (1) 
10 15 17894633677177401448
10411042 1 17904478507954010186
10595046 47 18412822474094263247
10670039 82 17274830120793942280
11089746 13 18411417289258850570
12107183 9 17548699582586521523
12236239 1 18343580729150369023
13167372 99 18410572847370343560
13533116 47 17023456439947457874
13631057 29 18266456689144302859
13668630 136 12535626076766563437
14123256 34 9511471034990829248
14251751 18 9223231844864398315
14528608 73 18341610421208329455
14931854 50 18131641097232674024
14933364 13 18412265038604257679
15183329 4 17632584842237036016
15348495 7 14924235961879995244
15961568 22 18409168800781094269
17834072 33 18271802415397825647
20281389 69 18187362121376177452
20526848 3 18334859450379917356
21150785 3 17275103959413524876
21298829 104 18409732850394011357
22061861 79 12535624955737667209
221357 26 17989485221148818392
22289505 5 18202003222939081020
2297311 6 16057160614832924883
23402655 69 18272934960099006174
23559900 14 18201145655330012889
29717793 49 17632300047419488854
300161 21 18113331995046470111
335352 9 18410859859493712102
34797466 226 18060706091348968223
351380 3 9655579603862452204
3545911 37 18409449180957336071
4073 2 18114466746548964666
465052 167 8646768911244966440
5104073 3 17894630344251437218
543368 44 18410572899152505309
54446538 1 18272367563989218169
5718773 13 10591780757524480916
59682541 35 18114755918976702563
59682541 52 17632029585287363588
90127 26 18262527970398293971

>  <PUBCHEM_SHAPE_MULTIPOLES>  (1) 
406.81
20.43
2.25
0.92
1.35
0.11
0.25
12.35
-3.62
1.7
0.09
-0.79
0.17
-0.66

>  <PUBCHEM_SHAPE_SELFOVERLAP>  (1) 
811.814

>  <PUBCHEM_SHAPE_VOLUME>  (1) 
244.8

>  <PUBCHEM_COORDINATE_TYPE>  (1) 
2
5
10

$$$$
