45253
     RDKit          3D

 24 25  0  0  1  0  0  0  0  0999 V2000
   -0.5416    1.0336   -0.0382 O   0  0  0  0  0  0  0  0  0  0  0  0
    0.2414    3.1902    0.1489 O   0  0  0  0  0  0  0  0  0  0  0  0
   -5.1422   -0.4643    0.2262 N   0  0  0  0  0  0  0  0  0  0  0  0
   -6.3519   -0.3143    1.0575 C   0  0  0  0  0  0  0  0  0  0  0  0
   -7.1529   -1.6305    1.0480 C   0  0  0  0  0  0  0  0  0  0  0  0
   -5.4310   -0.8590   -1.1571 C   0  0  0  0  0  0  0  0  0  0  0  0
   -7.4815   -2.1044   -0.3645 C   0  0  0  0  0  0  0  0  0  0  0  0
   -6.2154   -2.1700   -1.2093 C   0  0  0  0  0  0  0  0  0  0  0  0
   -4.2694    0.7057    0.2670 C   0  0  0  0  0  0  0  0  0  0  0  0
   -7.2505    0.8789    0.6973 C   0  0  0  0  0  0  0  0  0  0  0  0
   -2.8152    0.2884    0.0735 C   0  0  0  0  0  0  0  0  0  0  0  0
   -1.8773    1.4866    0.1332 C   0  0  0  0  0  0  0  0  0  0  0  0
    7.7229   -1.4349    0.3689 C   0  0  0  0  0  0  0  0  0  0  0  0
    6.3504   -0.7570    0.5547 C   0  0  0  0  0  0  0  0  0  0  0  0
    5.6468   -0.3350   -0.7507 C   0  0  0  0  0  0  0  0  0  0  0  0
    4.2959    0.2668   -0.5599 C   0  0  0  0  0  0  0  0  0  0  0  0
    7.5600   -2.7074   -0.4677 C   0  0  0  0  0  0  0  0  0  0  0  0
    8.3876   -1.7798    1.7024 C   0  0  0  0  0  0  0  0  0  0  0  0
    0.4246    1.9933   -0.0093 C   0  0  0  0  0  0  0  0  0  0  0  0
    1.7691    1.3933   -0.2003 C   0  0  0  0  0  0  0  0  0  0  0  0
    4.1650    1.6445   -0.3846 C   0  0  0  0  0  0  0  0  0  0  0  0
    3.1634   -0.5477   -0.5554 C   0  0  0  0  0  0  0  0  0  0  0  0
    2.9016    2.2076   -0.2049 C   0  0  0  0  0  0  0  0  0  0  0  0
    1.9001    0.0157   -0.3755 C   0  0  0  0  0  0  0  0  0  0  0  0
  1 12  1  0
  1 19  1  0
  2 19  2  0
  3  4  1  0
  3  6  1  0
  3  9  1  0
  4  5  1  0
  4 10  1  0
  5  7  1  0
  6  8  1  0
  7  8  1  0
  9 11  1  0
 11 12  1  0
 13 14  1  0
 13 17  1  0
 13 18  1  0
 14 15  1  0
 15 16  1  0
 16 21  2  0
 16 22  1  0
 19 20  1  0
 20 23  2  0
 20 24  1  0
 21 23  1  0
 22 24  2  0
M  END
>  <PUBCHEM_COMPOUND_CID>  (1) 
45253

>  <PUBCHEM_CONFORMER_RMSD>  (1) 
1.2

>  <PUBCHEM_CONFORMER_DIVERSEORDER>  (1) 
1
91
58
85
3
43
71
78
38
106
75
26
32
37
52
89
59
10
104
90
70
54
76
101
46
99
14
100
61
42
51
83
84
64
86
23
41
45
55
107
79
63
15
82
62
93
12
66
29
49
92
21
72
87
97
50
53
36
24
35
56
13
19
34
6
17
67
25
88
74
31
2
28
48
18
39
95
20
11
57
60
44
80
7
47
30
5
16
40
94
22
77
69
73
4
68
105
27
81
103
98
33
65
102
9
8
96

>  <PUBCHEM_MMFF94_PARTIAL_CHARGES>  (1) 
19
1 -0.43
12 0.28
15 0.14
16 -0.14
19 0.63
2 -0.57
20 0.09
21 -0.15
22 -0.15
23 -0.15
24 -0.15
3 -0.81
4 0.27
54 0.15
55 0.15
56 0.15
57 0.15
6 0.27
9 0.27

>  <PUBCHEM_EFFECTIVE_ROTOR_COUNT>  (1) 
10.2

>  <PUBCHEM_PHARMACOPHORE_FEATURES>  (1) 
5
1 2 acceptor
1 3 cation
3 13 17 18 hydrophobe
6 16 20 21 22 23 24 rings
6 3 4 5 6 7 8 rings

>  <PUBCHEM_HEAVY_ATOM_COUNT>  (1) 
24

>  <PUBCHEM_ATOM_DEF_STEREO_COUNT>  (1) 
0

>  <PUBCHEM_ATOM_UDEF_STEREO_COUNT>  (1) 
1

>  <PUBCHEM_BOND_DEF_STEREO_COUNT>  (1) 
0

>  <PUBCHEM_BOND_UDEF_STEREO_COUNT>  (1) 
0

>  <PUBCHEM_ISOTOPIC_ATOM_COUNT>  (1) 
0

>  <PUBCHEM_COMPONENT_COUNT>  (1) 
1

>  <PUBCHEM_CACTVS_TAUTO_COUNT>  (1) 
1

>  <PUBCHEM_CONFORMER_ID>  (1) 
0000B0C500000001

>  <PUBCHEM_MMFF94_ENERGY>  (1) 
39.7158

>  <PUBCHEM_FEATURE_SELFOVERLAP>  (1) 
25.371

>  <PUBCHEM_SHAPE_FINGERPRINT>  (1) 
10 15 12895354386699576494
10670039 82 15574988447440435845
10753850 27 18335139778610792384
10816530 90 12103557641800055466
11386260 185 15213029263006830678
11963148 33 18338511933655953974
11973863 73 18115311055783628577
12539765 74 10665221536715397768
13668630 136 18040714774853159002
13685833 64 18410015446208862912
13782708 43 18186515518565349653
13862211 1 18411139142802601708
14251757 52 10447926162082884454
14251764 18 18343585178778555788
15183329 4 17603581946252762913
15198563 99 16443333261825092309
15510800 12 18263097573261851330
15706992 2 15410607134863017250
16993427 108 18188758454415661146
17093844 174 16128657436645153171
1754908 1 17418370290396105826
1768 124 18271806788213064606
1768 4 9439404662203175191
1818759 1 18409174286092380814
190975 80 18272646862293287736
20028762 73 18342740694035964614
2026 5 18114460046874938130
21095123 293 12823289127053017594
21130935 74 18271526502313826401
21267235 1 18410862040630177540
21365058 113 17167865313718888237
21585482 111 9943542803179624755
22224240 67 15841547457872172460
23081809 10 18339370763858462485
23522609 53 18052011192358299737
23576562 1 11747523668475166563
3383291 50 18409448093956882842
3711267 37 10807641342686957690
406291 66 18335135354968901818
465052 167 18342744022418990492
5104073 3 17201929335340975537
54039377 194 18410295792331907278
5470011 282 17603592949742769214
559249 180 18201441402946966231
5718773 13 18408884027643389930
5937810 71 12396294825445330575
59682541 35 17989198253768474010
59682541 52 14056998292345371088
636775 8 18340778023289400886
6438161 24 18040712568004717272
9953998 17 16415473857174413047

>  <PUBCHEM_SHAPE_MULTIPOLES>  (1) 
477.19
28.15
2.82
1.08
0
0.3
-0.15
-25.51
-5.62
-1.41
0.12
0.06
-0.52
-1.86

>  <PUBCHEM_SHAPE_SELFOVERLAP>  (1) 
960.217

>  <PUBCHEM_SHAPE_VOLUME>  (1) 
280.3

>  <PUBCHEM_COORDINATE_TYPE>  (1) 
2
5
10

$$$$
