45262
     RDKit          3D

 10  9  0  0  0  0  0  0  0  0999 V2000
   -2.0683   -0.4502    0.0520 O   0  0  0  0  0  0  0  0  0  0  0  0
    3.4577   -1.5875    0.3320 N   0  0  0  0  0  0  0  0  0  0  0  0
    1.6221    2.4821    0.2440 N   0  0  0  0  0  0  0  0  0  0  0  0
   -3.3150    0.1821   -0.2022 C   0  0  0  0  0  0  0  0  0  0  0  0
   -1.0446    0.0559   -0.7957 C   0  0  0  0  0  0  0  0  0  0  0  0
   -4.3601   -0.3968    0.7275 C   0  0  0  0  0  0  0  0  0  0  0  0
    0.2487   -0.6396   -0.4914 C   0  0  0  0  0  0  0  0  0  0  0  0
    1.4036   -0.0726   -0.0963 C   0  0  0  0  0  0  0  0  0  0  0  0
    2.5356   -0.9095    0.1398 C   0  0  0  0  0  0  0  0  0  0  0  0
    1.5202    1.3361    0.0903 C   0  0  0  0  0  0  0  0  0  0  0  0
  1  4  1  0
  1  5  1  0
  2  9  3  0
  3 10  3  0
  4  6  1  0
  5  7  1  0
  7  8  2  3
  8  9  1  0
  8 10  1  0
M  END
>  <PUBCHEM_COMPOUND_CID>  (1) 
45262

>  <PUBCHEM_CONFORMER_RMSD>  (1) 
0.6

>  <PUBCHEM_CONFORMER_DIVERSEORDER>  (1) 
1
3
6
8
7
10
5
9
4
2
12
11

>  <PUBCHEM_MMFF94_PARTIAL_CHARGES>  (1) 
10
1 -0.56
10 0.49
18 0.15
2 -0.56
3 -0.56
4 0.28
5 0.42
7 -0.29
8 0.13
9 0.49

>  <PUBCHEM_EFFECTIVE_ROTOR_COUNT>  (1) 
3

>  <PUBCHEM_PHARMACOPHORE_FEATURES>  (1) 
3
1 1 acceptor
1 2 acceptor
1 3 acceptor

>  <PUBCHEM_HEAVY_ATOM_COUNT>  (1) 
10

>  <PUBCHEM_ATOM_DEF_STEREO_COUNT>  (1) 
0

>  <PUBCHEM_ATOM_UDEF_STEREO_COUNT>  (1) 
0

>  <PUBCHEM_BOND_DEF_STEREO_COUNT>  (1) 
0

>  <PUBCHEM_BOND_UDEF_STEREO_COUNT>  (1) 
0

>  <PUBCHEM_ISOTOPIC_ATOM_COUNT>  (1) 
0

>  <PUBCHEM_COMPONENT_COUNT>  (1) 
1

>  <PUBCHEM_CACTVS_TAUTO_COUNT>  (1) 
1

>  <PUBCHEM_CONFORMER_ID>  (1) 
0000B0CE00000001

>  <PUBCHEM_MMFF94_ENERGY>  (1) 
7.5605

>  <PUBCHEM_FEATURE_SELFOVERLAP>  (1) 
15.223

>  <PUBCHEM_SHAPE_FINGERPRINT>  (1) 
10219947 1 18201715116016082774
11062470 55 12391506477769895639
12162725 195 18130793352234286761
12251169 10 18341893004508278463
12932764 1 18335701676165208287
14252887 29 18272089332230371810
14344429 50 18412271644258671404
17041 49 18343306933411594857
18342897 14 18411702049732373440
20339313 130 18271813397481222604
20671657 1 18268995465054107740
20871998 22 18127695933331585174
22169311 14 18333739009476396907
3248919 1 17346884468242509719
88987 49 15410324589300161685

>  <PUBCHEM_SHAPE_MULTIPOLES>  (1) 
189.96
6.65
1.67
0.76
6.4
1.07
0.04
-2.01
-1.7
-2.01
-0.24
0.27
-0.04
0.07

>  <PUBCHEM_SHAPE_SELFOVERLAP>  (1) 
358.555

>  <PUBCHEM_SHAPE_VOLUME>  (1) 
114

>  <PUBCHEM_COORDINATE_TYPE>  (1) 
2
5
10

$$$$
