45263
     RDKit          3D

 11 10  0  0  0  0  0  0  0  0999 V2000
    2.0581    0.0210   -0.0008 O   0  0  0  0  0  0  0  0  0  0  0  0
   -3.1943   -1.9861    0.1155 N   0  0  0  0  0  0  0  0  0  0  0  0
   -1.7267    2.0076    1.4704 N   0  0  0  0  0  0  0  0  0  0  0  0
    1.8203    0.4385   -1.3389 C   0  0  0  0  0  0  0  0  0  0  0  0
    0.4063    0.9958   -1.4566 C   0  0  0  0  0  0  0  0  0  0  0  0
    3.3682   -0.5069    0.1555 C   0  0  0  0  0  0  0  0  0  0  0  0
   -0.6303   -0.0484   -1.1268 C   0  0  0  0  0  0  0  0  0  0  0  0
    3.5598   -0.9322    1.5956 C   0  0  0  0  0  0  0  0  0  0  0  0
   -1.5554   -0.0009   -0.1502 C   0  0  0  0  0  0  0  0  0  0  0  0
   -2.4587   -1.0965   -0.0048 C   0  0  0  0  0  0  0  0  0  0  0  0
   -1.6474    1.1082    0.7411 C   0  0  0  0  0  0  0  0  0  0  0  0
  1  4  1  0
  1  6  1  0
  2 10  3  0
  3 11  3  0
  4  5  1  0
  5  7  1  0
  6  8  1  0
  7  9  2  3
  9 10  1  0
  9 11  1  0
M  END
>  <PUBCHEM_COMPOUND_CID>  (1) 
45263

>  <PUBCHEM_CONFORMER_RMSD>  (1) 
0.6

>  <PUBCHEM_CONFORMER_DIVERSEORDER>  (1) 
1
31
33
5
35
32
11
17
27
20
29
10
23
9
28
4
24
13
16
7
12
14
34
26
30
3
25
2
6
18
8
21
15
22
19

>  <PUBCHEM_MMFF94_PARTIAL_CHARGES>  (1) 
11
1 -0.56
10 0.49
11 0.49
18 0.15
2 -0.56
3 -0.56
4 0.28
5 0.14
6 0.28
7 -0.29
9 0.13

>  <PUBCHEM_EFFECTIVE_ROTOR_COUNT>  (1) 
4

>  <PUBCHEM_PHARMACOPHORE_FEATURES>  (1) 
3
1 1 acceptor
1 2 acceptor
1 3 acceptor

>  <PUBCHEM_HEAVY_ATOM_COUNT>  (1) 
11

>  <PUBCHEM_ATOM_DEF_STEREO_COUNT>  (1) 
0

>  <PUBCHEM_ATOM_UDEF_STEREO_COUNT>  (1) 
0

>  <PUBCHEM_BOND_DEF_STEREO_COUNT>  (1) 
0

>  <PUBCHEM_BOND_UDEF_STEREO_COUNT>  (1) 
0

>  <PUBCHEM_ISOTOPIC_ATOM_COUNT>  (1) 
0

>  <PUBCHEM_COMPONENT_COUNT>  (1) 
1

>  <PUBCHEM_CACTVS_TAUTO_COUNT>  (1) 
1

>  <PUBCHEM_CONFORMER_ID>  (1) 
0000B0CF00000001

>  <PUBCHEM_MMFF94_ENERGY>  (1) 
7.4134

>  <PUBCHEM_FEATURE_SELFOVERLAP>  (1) 
15.224

>  <PUBCHEM_SHAPE_FINGERPRINT>  (1) 
10149128 111 12607405515927222850
10857977 72 17488761084882535167
11127187 94 13768213757072915600
11137873 295 16443061677493573923
18380122 1 16773530922602958581
20201158 50 15719389534198501410
20671657 53 17749381620001333359
20715346 28 16916796140998819652
22959321 28 17489009578942757416
23532345 11 18271527489987687634
23598294 1 18055385580209532249
25610 171 17703802387621257049
3086196 2 18343014501946879803
81228 2 17772782457772563369

>  <PUBCHEM_SHAPE_MULTIPOLES>  (1) 
210.54
5.68
1.68
1.53
3.71
0.35
-0.87
3.67
-0.72
-0.17
0.16
-0.72
-0.45
-1.56

>  <PUBCHEM_SHAPE_SELFOVERLAP>  (1) 
397.169

>  <PUBCHEM_SHAPE_VOLUME>  (1) 
126.7

>  <PUBCHEM_COORDINATE_TYPE>  (1) 
2
5
10

$$$$
