45260
     RDKit          3D

 11 10  0  0  0  0  0  0  0  0999 V2000
    3.8785   -0.4292   -0.6873 F   0  0  0  0  0  0  0  0  0  0  0  0
   -3.8869   -0.4282    0.6697 F   0  0  0  0  0  0  0  0  0  0  0  0
    2.3215    0.8933    0.2787 O   0  0  0  0  0  0  0  0  0  0  0  0
   -2.3189    0.8933   -0.2797 O   0  0  0  0  0  0  0  0  0  0  0  0
    1.3535   -1.1961    0.1675 O   0  0  0  0  0  0  0  0  0  0  0  0
   -1.3524   -1.1961   -0.1568 O   0  0  0  0  0  0  0  0  0  0  0  0
   -0.0004    0.8208    0.0121 C   0  0  0  0  0  0  0  0  0  0  0  0
    1.2732    0.0239    0.1578 C   0  0  0  0  0  0  0  0  0  0  0  0
   -1.2723    0.0239   -0.1469 C   0  0  0  0  0  0  0  0  0  0  0  0
    3.6128    0.2969    0.4283 C   0  0  0  0  0  0  0  0  0  0  0  0
   -3.6087    0.2974   -0.4432 C   0  0  0  0  0  0  0  0  0  0  0  0
  1 10  1  0
  2 11  1  0
  3  8  1  0
  3 10  1  0
  4  9  1  0
  4 11  1  0
  5  8  2  0
  6  9  2  0
  7  8  1  0
  7  9  1  0
M  END
>  <PUBCHEM_COMPOUND_CID>  (1) 
45260

>  <PUBCHEM_CONFORMER_RMSD>  (1) 
0.6

>  <PUBCHEM_CONFORMER_DIVERSEORDER>  (1) 
1
139
53
25
144
161
34
165
101
120
156
91
50
18
75
170
20
12
195
132
99
114
11
167
97
182
103
43
29
198
85
46
24
146
174
72
126
56
48
119
122
2
13
194
157
113
94
145
192
143
22
148
67
142
190
141
52
19
14
123
172
183
66
168
188
64
36
38
134
3
127
154
89
196
118
140
55
200
7
51
115
128
135
158
54
160
41
107
86
73
84
147
82
133
77
187
110
37
175
74
130
33
199
28
76
116
136
31
171
121
117
63
57
80
173
129
21
184
60
17
189
30
10
95
191
197
185
111
138
109
180
6
104
102
150
166
9
163
27
79
149
87
100
202
4
193
5
105
23
178
62
90
108
106
69
164
45
65
71
78
49
39
176
47
181
92
152
59
8
98
26
177
58
83
153
68
35
96
186
44
179
32
169
201
61
124
137
70
112
151
16
88
125
155
159
40
93
131
42
15
81
162

>  <PUBCHEM_MMFF94_PARTIAL_CHARGES>  (1) 
11
1 -0.34
10 0.62
11 0.62
2 -0.34
3 -0.43
4 -0.43
5 -0.57
6 -0.57
7 0.12
8 0.66
9 0.66

>  <PUBCHEM_EFFECTIVE_ROTOR_COUNT>  (1) 
6

>  <PUBCHEM_PHARMACOPHORE_FEATURES>  (1) 
3
1 5 acceptor
1 6 acceptor
1 7 anion

>  <PUBCHEM_HEAVY_ATOM_COUNT>  (1) 
11

>  <PUBCHEM_ATOM_DEF_STEREO_COUNT>  (1) 
0

>  <PUBCHEM_ATOM_UDEF_STEREO_COUNT>  (1) 
0

>  <PUBCHEM_BOND_DEF_STEREO_COUNT>  (1) 
0

>  <PUBCHEM_BOND_UDEF_STEREO_COUNT>  (1) 
0

>  <PUBCHEM_ISOTOPIC_ATOM_COUNT>  (1) 
0

>  <PUBCHEM_COMPONENT_COUNT>  (1) 
1

>  <PUBCHEM_CACTVS_TAUTO_COUNT>  (1) 
1

>  <PUBCHEM_CONFORMER_ID>  (1) 
0000B0CC00000001

>  <PUBCHEM_MMFF94_ENERGY>  (1) 
9.8147

>  <PUBCHEM_FEATURE_SELFOVERLAP>  (1) 
15.229

>  <PUBCHEM_SHAPE_FINGERPRINT>  (1) 
11062470 55 12607405498414803993
12032990 46 18410860961981267969
12932764 1 18338782477227745505
14325111 11 18409726231996315093
190213 19 18411135839888419841
20645477 70 18268137665944060391
23235685 24 18410565189058428931
23402539 116 17203602666735669509

>  <PUBCHEM_SHAPE_MULTIPOLES>  (1) 
188.35
7.02
1.02
0.68
0.01
0.12
0
-0.05
-0.03
0
0
0
0.01
0.3

>  <PUBCHEM_SHAPE_SELFOVERLAP>  (1) 
361.467

>  <PUBCHEM_SHAPE_VOLUME>  (1) 
113.7

>  <PUBCHEM_COORDINATE_TYPE>  (1) 
2
5
10

$$$$
