45264
     RDKit          3D

 25 27  0  0  1  0  0  0  0  0999 V2000
    0.7090    0.7344   -0.7250 O   0  0  0  0  0  0  0  0  0  0  0  0
   -2.4413   -0.7250   -1.6364 O   0  0  0  0  0  0  0  0  0  0  0  0
   -0.1245   -0.0132   -2.7395 O   0  0  0  0  0  0  0  0  0  0  0  0
    3.3386    0.8058    0.6360 N   0  0  0  0  0  0  0  0  0  0  0  0
   -1.0924   -1.3858    0.2115 C   0  0  0  0  0  0  0  0  0  0  0  0
   -1.4664   -0.2274   -0.7114 C   0  0  0  0  0  0  0  0  0  0  0  0
   -0.4466   -2.5271   -0.5857 C   0  0  0  0  0  0  0  0  0  0  0  0
   -2.3230   -1.8847    0.9809 C   0  0  0  0  0  0  0  0  0  0  0  0
   -0.1121   -3.7197    0.3073 C   0  0  0  0  0  0  0  0  0  0  0  0
   -1.9853   -3.0783    1.8714 C   0  0  0  0  0  0  0  0  0  0  0  0
   -1.3357   -4.2071    1.0771 C   0  0  0  0  0  0  0  0  0  0  0  0
    1.9125    1.1387   -1.3755 C   0  0  0  0  0  0  0  0  0  0  0  0
   -0.2363    0.1668   -1.5329 C   0  0  0  0  0  0  0  0  0  0  0  0
   -2.0849    0.9976   -0.0437 C   0  0  0  0  0  0  0  0  0  0  0  0
    2.5730   -0.0610   -2.0515 C   0  0  0  0  0  0  0  0  0  0  0  0
    2.8382    1.7872   -0.3409 C   0  0  0  0  0  0  0  0  0  0  0  0
    3.1501   -1.0225   -1.0163 C   0  0  0  0  0  0  0  0  0  0  0  0
    4.0566   -0.2908   -0.0262 C   0  0  0  0  0  0  0  0  0  0  0  0
    4.1981    1.4590    1.6230 C   0  0  0  0  0  0  0  0  0  0  0  0
   -3.0555    1.7028   -0.7217 C   0  0  0  0  0  0  0  0  0  0  0  0
   -1.6522    1.3565    1.2143 C   0  0  0  0  0  0  0  0  0  0  0  0
    4.6217    0.4868    2.7109 C   0  0  0  0  0  0  0  0  0  0  0  0
   -3.6211    2.8223   -0.1115 C   0  0  0  0  0  0  0  0  0  0  0  0
   -2.2180    2.4760    1.8245 C   0  0  0  0  0  0  0  0  0  0  0  0
   -3.2025    3.2088    1.1615 C   0  0  0  0  0  0  0  0  0  0  0  0
  1 12  1  0
  1 13  1  0
  2  6  1  0
  3 13  2  0
  4 16  1  0
  4 18  1  0
  4 19  1  0
  5  6  1  0
  5  7  1  0
  5  8  1  0
  6 13  1  0
  6 14  1  0
  7  9  1  0
  8 10  1  0
  9 11  1  0
 10 11  1  0
 12 15  1  0
 12 16  1  0
 14 20  2  0
 14 21  1  0
 15 17  1  0
 17 18  1  0
 19 22  1  0
 20 23  1  0
 21 24  2  0
 23 25  2  0
 24 25  1  0
M  END
>  <PUBCHEM_COMPOUND_CID>  (1) 
45264

>  <PUBCHEM_CONFORMER_RMSD>  (1) 
1

>  <PUBCHEM_CONFORMER_DIVERSEORDER>  (1) 
35
122
73
70
162
100
109
174
102
55
4
52
184
179
172
127
36
2
160
78
21
161
87
133
115
158
34
157
27
151
98
148
171
186
112
166
129
135
19
6
82
62
76
81
22
154
116
41
189
85
149
107
74
89
180
187
56
69
119
13
117
188
95
185
147
170
18
121
54
51
124
130
47
9
182
139
144
7
165
20
23
77
71
173
5
39
84
156
131
42
118
29
33
96
97
136
145
176
46
138
32
106
94
183
65
164
66
86
1
126
24
110
61
167
143
141
159
90
60
28
37
49
59
111
44
105
72
43
31
83
57
26
17
155
108
63
120
103
150
169
48
92
67
125
3
177
10
163
91
137
178
53
168
80
113
16
25
132
104
75
128
93
30
64
134
88
45
38
146
140
8
123
12
11
79
142
101
153
68
15
175
50
58
99
40
114
152
181
14

>  <PUBCHEM_MMFF94_PARTIAL_CHARGES>  (1) 
22
1 -0.43
12 0.28
13 0.66
14 -0.14
16 0.27
18 0.27
19 0.27
2 -0.68
20 -0.15
21 -0.15
23 -0.15
24 -0.15
25 -0.15
3 -0.57
4 -0.81
46 0.4
49 0.15
50 0.15
54 0.15
55 0.15
56 0.15
6 0.48

>  <PUBCHEM_EFFECTIVE_ROTOR_COUNT>  (1) 
8.4

>  <PUBCHEM_PHARMACOPHORE_FEATURES>  (1) 
7
1 2 acceptor
1 2 donor
1 3 acceptor
1 4 cation
6 14 20 21 23 24 25 rings
6 4 12 15 16 17 18 rings
6 5 7 8 9 10 11 rings

>  <PUBCHEM_HEAVY_ATOM_COUNT>  (1) 
25

>  <PUBCHEM_ATOM_DEF_STEREO_COUNT>  (1) 
0

>  <PUBCHEM_ATOM_UDEF_STEREO_COUNT>  (1) 
2

>  <PUBCHEM_BOND_DEF_STEREO_COUNT>  (1) 
0

>  <PUBCHEM_BOND_UDEF_STEREO_COUNT>  (1) 
0

>  <PUBCHEM_ISOTOPIC_ATOM_COUNT>  (1) 
0

>  <PUBCHEM_COMPONENT_COUNT>  (1) 
1

>  <PUBCHEM_CACTVS_TAUTO_COUNT>  (1) 
1

>  <PUBCHEM_CONFORMER_ID>  (1) 
0000B0D000000023

>  <PUBCHEM_MMFF94_ENERGY>  (1) 
52.4796

>  <PUBCHEM_FEATURE_SELFOVERLAP>  (1) 
35.53

>  <PUBCHEM_SHAPE_FINGERPRINT>  (1) 
10366900 7 17986385809887186452
11070050 100 17837246721203288545
11370993 70 18409727318253750048
11552529 35 18048013436935411090
11582403 64 17915447307758307133
11725454 13 17916017967151826333
12156800 1 12589786945772432032
12160290 23 18338811116475896743
12539773 59 17823953784167858458
12549972 3 18058747831280992398
12553582 1 17688328092884691670
12596599 1 17967528013002622962
12633257 1 17983019143800596522
12788726 201 17899995003280300698
13004483 165 17973728270519547747
13692114 37 18408606929755741155
14022347 108 17183682990859113887
14081887 123 18195811992784549266
14178342 30 18334575780695822378
14468879 13 17560504175502996968
14955137 171 16975074428064181887
15295992 7 17630629854480342752
17974551 9 18129381506258227266
17980427 23 16545497408235170393
20600515 1 18049171252569857863
20681651 13 17677605535605828836
21033648 29 18191586354782738636
212916 134 18337384929245650993
21524375 3 18055368946017817181
23419403 2 12964547817809689893
23558518 356 18413672409097943855
23559900 14 18265911330890785348
345986 75 17680439041279021627
35225 105 17974891424661181090
376196 1 17702096967661627108
3797600 57 17689162631390815436
4340502 62 18192730959999622945
474 4 18196382420181249845
495365 180 17538013463763250933
58807428 26 18264485087878471913
59554788 281 18336536162250827775
81228 2 18124057829711849399
84936 182 17764036765764578729
90316 7 17979092791999058715
9925002 15 10753213257404359152
9981440 41 17702927223973892152

>  <PUBCHEM_SHAPE_MULTIPOLES>  (1) 
491.9
7.14
4.46
2.31
7.1
4.1
-0.15
-5.25
-3.15
-4.75
-2.38
1.41
-0.28
0.7

>  <PUBCHEM_SHAPE_SELFOVERLAP>  (1) 
1029.343

>  <PUBCHEM_SHAPE_VOLUME>  (1) 
275.1

>  <PUBCHEM_COORDINATE_TYPE>  (1) 
2
5
10

$$$$
