45274
     RDKit          3D

 15 15  0  0  0  0  0  0  0  0999 V2000
    1.5583   -1.1543   -1.0231 O   0  0  0  0  0  0  0  0  0  0  0  0
    3.9897   -0.2503   -0.0829 N   0  0  0  0  0  0  0  0  0  0  0  0
    0.5087    0.6233    0.0953 N   0  0  0  0  0  0  0  0  0  0  0  0
   -0.8551    0.2454    0.0836 C   0  0  0  0  0  0  0  0  0  0  0  0
   -1.8468    1.2131    0.0662 C   0  0  0  0  0  0  0  0  0  0  0  0
    2.8786    0.6926   -0.2064 C   0  0  0  0  0  0  0  0  0  0  0  0
   -3.5147   -0.5353    0.0591 C   0  0  0  0  0  0  0  0  0  0  0  0
   -3.1851    0.8203    0.0538 C   0  0  0  0  0  0  0  0  0  0  0  0
    1.5888   -0.0743   -0.4417 C   0  0  0  0  0  0  0  0  0  0  0  0
   -1.1668   -1.1052    0.0885 C   0  0  0  0  0  0  0  0  0  0  0  0
   -2.5053   -1.4980    0.0763 C   0  0  0  0  0  0  0  0  0  0  0  0
   -1.5231    2.6718    0.0596 C   0  0  0  0  0  0  0  0  0  0  0  0
    3.7654   -1.1603    1.0396 C   0  0  0  0  0  0  0  0  0  0  0  0
    5.2528    0.4673    0.0852 C   0  0  0  0  0  0  0  0  0  0  0  0
   -4.9454   -0.9559    0.0469 C   0  0  0  0  0  0  0  0  0  0  0  0
  1  9  2  0
  2  6  1  0
  2 13  1  0
  2 14  1  0
  3  4  1  0
  3  9  1  0
  4  5  2  0
  4 10  1  0
  5  8  1  0
  5 12  1  0
  6  9  1  0
  7  8  2  0
  7 11  1  0
  7 15  1  0
 10 11  2  0
M  END
>  <PUBCHEM_COMPOUND_CID>  (1) 
45274

>  <PUBCHEM_CONFORMER_RMSD>  (1) 
0.6

>  <PUBCHEM_CONFORMER_DIVERSEORDER>  (1) 
1
7
5
6
2
3
8
4

>  <PUBCHEM_MMFF94_PARTIAL_CHARGES>  (1) 
19
1 -0.57
10 -0.15
11 -0.15
12 0.14
13 0.27
14 0.27
15 0.14
18 0.37
19 0.15
2 -0.81
20 0.15
21 0.15
3 -0.55
4 0.12
5 -0.14
6 0.33
7 -0.14
8 -0.15
9 0.57

>  <PUBCHEM_EFFECTIVE_ROTOR_COUNT>  (1) 
4

>  <PUBCHEM_PHARMACOPHORE_FEATURES>  (1) 
4
1 1 acceptor
1 2 cation
1 3 donor
6 4 5 7 8 10 11 rings

>  <PUBCHEM_HEAVY_ATOM_COUNT>  (1) 
15

>  <PUBCHEM_ATOM_DEF_STEREO_COUNT>  (1) 
0

>  <PUBCHEM_ATOM_UDEF_STEREO_COUNT>  (1) 
0

>  <PUBCHEM_BOND_DEF_STEREO_COUNT>  (1) 
0

>  <PUBCHEM_BOND_UDEF_STEREO_COUNT>  (1) 
0

>  <PUBCHEM_ISOTOPIC_ATOM_COUNT>  (1) 
0

>  <PUBCHEM_COMPONENT_COUNT>  (1) 
1

>  <PUBCHEM_CACTVS_TAUTO_COUNT>  (1) 
2

>  <PUBCHEM_CONFORMER_ID>  (1) 
0000B0DA00000001

>  <PUBCHEM_MMFF94_ENERGY>  (1) 
47.6242

>  <PUBCHEM_FEATURE_SELFOVERLAP>  (1) 
20.297

>  <PUBCHEM_SHAPE_FINGERPRINT>  (1) 
12107183 9 17613427845241014360
12236239 1 17749105595221758154
12251169 10 18407758153580106804
12815109 37 18410572911467824811
13167823 11 18261390014666009562
13214271 11 18272931618245217437
13288520 33 18410576192912392895
13533116 47 18187076231099565266
13581323 91 18408882923604601826
13690532 89 18259984890192104459
13862211 1 18411416254783993223
14115302 16 17531536485001911383
14144814 61 18336265652552392560
15048467 5 17131843045202687547
15196674 1 18410575041803291122
15219456 202 17988087677292165038
15342168 16 14835259117526569498
17802600 8 18413386553318167280
17834072 33 18187366554204251228
18522853 276 18410293622698046084
187816 3 18040434421395708187
200 152 18260261962753477287
20279233 1 18202292406701749175
20510252 161 18271810068771058545
20645477 56 18266465308594812285
20645477 70 14707194497409074160
21065198 48 18188205412761750704
21267235 1 18336837462638502898
21339142 126 18272083907533072839
22079108 93 14979666736798328759
22854114 59 17489587870255427162
2297311 6 18272102590725401308
2306618 200 18201162053124940977
23402539 116 18411974771987747863
23557571 272 18130518452219731005
23559900 14 18410287051625131568
26918003 58 17822009847567693291
42 15 18186801361766393298
4214541 1 18336826390756132776
474 4 17241900976535875804
5104073 3 18339642244108061880
5374978 207 18410852187642748368
573450 72 18261101920901804008
9709674 26 18411426081073152070

>  <PUBCHEM_SHAPE_MULTIPOLES>  (1) 
292.86
9.56
1.82
0.75
6.46
0.93
0.01
-1.97
0.81
-1.19
0.11
0.36
-0.14
-0.26

>  <PUBCHEM_SHAPE_SELFOVERLAP>  (1) 
594.536

>  <PUBCHEM_SHAPE_VOLUME>  (1) 
172.9

>  <PUBCHEM_COORDINATE_TYPE>  (1) 
2
5
10

$$$$
