45281
     RDKit          3D

 13 14  0  0  1  0  0  0  0  0999 V2000
    0.7512   -0.1671    0.8583 O   0  0  0  0  0  0  0  0  0  0  0  0
    0.9566   -1.1706   -1.2514 O   0  0  0  0  0  0  0  0  0  0  0  0
    2.5294    1.0263   -0.1237 O   0  0  0  0  0  0  0  0  0  0  0  0
    0.0272   -0.6583   -0.2833 C   0  0  0  0  0  0  0  0  0  0  0  0
   -0.7678    0.4850   -0.9231 C   0  0  0  0  0  0  0  0  0  0  0  0
   -1.8845    1.0022   -0.0042 C   0  0  0  0  0  0  0  0  0  0  0  0
   -0.9027   -1.7884    0.1701 C   0  0  0  0  0  0  0  0  0  0  0  0
   -2.8032   -0.1464    0.4339 C   0  0  0  0  0  0  0  0  0  0  0  0
   -2.0184   -1.2844    1.0824 C   0  0  0  0  0  0  0  0  0  0  0  0
    2.1259   -0.1965    0.4799 C   0  0  0  0  0  0  0  0  0  0  0  0
    2.1894   -1.3044   -0.5409 C   0  0  0  0  0  0  0  0  0  0  0  0
   -2.6890    2.0991   -0.6998 C   0  0  0  0  0  0  0  0  0  0  0  0
    2.4859    2.1034    0.8018 C   0  0  0  0  0  0  0  0  0  0  0  0
  1  4  1  0
  1 10  1  0
  2  4  1  0
  2 11  1  0
  3 10  1  0
  3 13  1  0
  4  5  1  0
  4  7  1  0
  5  6  1  0
  6  8  1  0
  6 12  1  0
  7  9  1  0
  8  9  1  0
 10 11  1  0
M  END
>  <PUBCHEM_COMPOUND_CID>  (1) 
45281

>  <PUBCHEM_CONFORMER_RMSD>  (1) 
0.6

>  <PUBCHEM_CONFORMER_DIVERSEORDER>  (1) 
6
4
13
25
20
12
8
17
18
19
15
24
14
10
9
23
7
11
5
21
2
1
16
26
3
22

>  <PUBCHEM_MMFF94_PARTIAL_CHARGES>  (1) 
7
1 -0.56
10 0.56
11 0.28
13 0.28
2 -0.56
3 -0.56
4 0.56

>  <PUBCHEM_EFFECTIVE_ROTOR_COUNT>  (1) 
2.8

>  <PUBCHEM_PHARMACOPHORE_FEATURES>  (1) 
5
1 1 acceptor
1 2 acceptor
1 3 acceptor
5 1 2 4 10 11 rings
6 4 5 6 7 8 9 rings

>  <PUBCHEM_HEAVY_ATOM_COUNT>  (1) 
13

>  <PUBCHEM_ATOM_DEF_STEREO_COUNT>  (1) 
0

>  <PUBCHEM_ATOM_UDEF_STEREO_COUNT>  (1) 
3

>  <PUBCHEM_BOND_DEF_STEREO_COUNT>  (1) 
0

>  <PUBCHEM_BOND_UDEF_STEREO_COUNT>  (1) 
0

>  <PUBCHEM_ISOTOPIC_ATOM_COUNT>  (1) 
0

>  <PUBCHEM_COMPONENT_COUNT>  (1) 
1

>  <PUBCHEM_CACTVS_TAUTO_COUNT>  (1) 
1

>  <PUBCHEM_CONFORMER_ID>  (1) 
0000B0E100000006

>  <PUBCHEM_MMFF94_ENERGY>  (1) 
26.1403

>  <PUBCHEM_FEATURE_SELFOVERLAP>  (1) 
25.464

>  <PUBCHEM_SHAPE_FINGERPRINT>  (1) 
10608611 8 18410854356342977576
10857977 72 17895762914495229603
124424 183 18192990426925436302
12696612 119 18115026436716815716
12932764 1 18337684052253400483
13294875 104 17683221587285883641
13839132 238 18335422339665433885
14648413 74 18411981325965500880
15219456 202 18412831274149728930
15775835 57 18057889249795833040
16945 1 18191026913563416030
17844478 74 18336278932412027907
18380122 1 18267313203573215203
19973954 147 18411985732317194440
20645464 45 18409164394133455435
20653085 51 18129941166050285477
20828058 43 18337107994297064668
21028194 46 18342452664369012496
21040471 1 17897454882691790871
21130352 189 18126846002115813636
21296965 12 18270674397744908988
21501502 16 18341891921891728686
21947302 44 18270673169368574472
23211744 41 18411419514041470859
23388829 49 17548137083536087519
25 1 17905892474672514989
2748010 2 18335987493153420909
369184 2 17967243221910401843
5084963 1 18060412482889270307
53812653 166 18046069259373803477
81228 2 18040727991079445723

>  <PUBCHEM_SHAPE_MULTIPOLES>  (1) 
249.93
4.31
2.15
1.06
0.15
0.7
-0.03
1.7
0.45
-0.1
0.06
0.01
-0.07
1.13

>  <PUBCHEM_SHAPE_SELFOVERLAP>  (1) 
506.655

>  <PUBCHEM_SHAPE_VOLUME>  (1) 
145.5

>  <PUBCHEM_COORDINATE_TYPE>  (1) 
2
5
10

$$$$
