45298
     RDKit          3D

 24 26  0  0  1  0  0  0  0  0999 V2000
   -0.4279   -1.8018   -1.8215 O   0  0  0  0  0  0  0  0  0  0  0  0
   -0.5453    0.3222   -2.7080 O   0  0  0  0  0  0  0  0  0  0  0  0
    3.1645    1.0050    0.0391 N   0  0  0  0  0  0  0  0  0  0  0  0
   -0.5531    0.0579   -0.2620 C   0  0  0  0  0  0  0  0  0  0  0  0
    0.6737    0.9105    0.0481 C   0  0  0  0  0  0  0  0  0  0  0  0
    1.9970    0.1669   -0.2137 C   0  0  0  0  0  0  0  0  0  0  0  0
   -0.5209   -1.2588    0.4360 C   0  0  0  0  0  0  0  0  0  0  0  0
   -1.8137    0.8175   -0.0027 C   0  0  0  0  0  0  0  0  0  0  0  0
   -0.5128   -0.4125   -1.7295 C   0  0  0  0  0  0  0  0  0  0  0  0
    0.6360    2.1973   -0.7838 C   0  0  0  0  0  0  0  0  0  0  0  0
   -0.4482   -2.2603   -0.5163 C   0  0  0  0  0  0  0  0  0  0  0  0
   -0.5454   -1.5671    1.7862 C   0  0  0  0  0  0  0  0  0  0  0  0
    4.3958    0.2820   -0.2821 C   0  0  0  0  0  0  0  0  0  0  0  0
    3.1856    1.4510    1.4328 C   0  0  0  0  0  0  0  0  0  0  0  0
   -1.8870    1.6926    1.0792 C   0  0  0  0  0  0  0  0  0  0  0  0
   -2.9119    0.6489   -0.8437 C   0  0  0  0  0  0  0  0  0  0  0  0
   -0.4002   -3.5983   -0.1719 C   0  0  0  0  0  0  0  0  0  0  0  0
   -0.4987   -2.9127    2.1589 C   0  0  0  0  0  0  0  0  0  0  0  0
   -0.4269   -3.9223    1.1853 C   0  0  0  0  0  0  0  0  0  0  0  0
   -3.0635    2.4019    1.3213 C   0  0  0  0  0  0  0  0  0  0  0  0
   -4.0883    1.3582   -0.6016 C   0  0  0  0  0  0  0  0  0  0  0  0
    4.3945   -0.1904   -1.7261 C   0  0  0  0  0  0  0  0  0  0  0  0
    4.3607    2.3775    1.6951 C   0  0  0  0  0  0  0  0  0  0  0  0
   -4.1640    2.2347    0.4809 C   0  0  0  0  0  0  0  0  0  0  0  0
  1  9  1  0
  1 11  1  0
  2  9  2  0
  3  6  1  0
  3 13  1  0
  3 14  1  0
  4  5  1  0
  4  7  1  0
  4  8  1  0
  4  9  1  0
  5  6  1  0
  5 10  1  0
  7 11  2  0
  7 12  1  0
  8 15  2  0
  8 16  1  0
 11 17  1  0
 12 18  2  0
 13 22  1  0
 14 23  1  0
 15 20  1  0
 16 21  2  0
 17 19  2  0
 18 19  1  0
 20 24  2  0
 21 24  1  0
M  END
>  <PUBCHEM_COMPOUND_CID>  (1) 
45298

>  <PUBCHEM_CONFORMER_RMSD>  (1) 
0.8

>  <PUBCHEM_CONFORMER_DIVERSEORDER>  (1) 
2
17
10
9
6
14
13
4
11
8
12
15
16
3
1
5
7

>  <PUBCHEM_MMFF94_PARTIAL_CHARGES>  (1) 
29
1 -0.23
11 0.08
12 -0.15
13 0.27
14 0.27
15 -0.15
16 -0.15
17 -0.15
18 -0.15
19 -0.15
2 -0.57
20 -0.15
21 -0.15
24 -0.15
3 -0.81
31 0.15
36 0.15
37 0.15
38 0.15
39 0.15
4 0.35
40 0.15
41 0.15
42 0.15
49 0.15
6 0.27
7 -0.14
8 -0.14
9 0.66

>  <PUBCHEM_EFFECTIVE_ROTOR_COUNT>  (1) 
6.4

>  <PUBCHEM_PHARMACOPHORE_FEATURES>  (1) 
6
1 10 hydrophobe
1 2 acceptor
1 3 cation
5 1 4 7 9 11 rings
6 7 11 12 17 18 19 rings
6 8 15 16 20 21 24 rings

>  <PUBCHEM_HEAVY_ATOM_COUNT>  (1) 
24

>  <PUBCHEM_ATOM_DEF_STEREO_COUNT>  (1) 
0

>  <PUBCHEM_ATOM_UDEF_STEREO_COUNT>  (1) 
2

>  <PUBCHEM_BOND_DEF_STEREO_COUNT>  (1) 
0

>  <PUBCHEM_BOND_UDEF_STEREO_COUNT>  (1) 
0

>  <PUBCHEM_ISOTOPIC_ATOM_COUNT>  (1) 
0

>  <PUBCHEM_COMPONENT_COUNT>  (1) 
1

>  <PUBCHEM_CACTVS_TAUTO_COUNT>  (1) 
1

>  <PUBCHEM_CONFORMER_ID>  (1) 
0000B0F200000002

>  <PUBCHEM_MMFF94_ENERGY>  (1) 
74.9435

>  <PUBCHEM_FEATURE_SELFOVERLAP>  (1) 
30.544

>  <PUBCHEM_SHAPE_FINGERPRINT>  (1) 
10382601 240 17979935812533004633
10863032 1 18272087158681027399
10948715 1 18130784534170698797
12156800 1 15218146368156949202
12160290 23 18116147955551294474
12549972 3 18272655697030388610
12553582 1 17330005001929986110
12633257 1 18046874239920752752
12788726 201 17975132363705149994
13135754 10 17605860207065008370
13140716 1 18263918860822942595
133893 2 17683223790693776927
14178342 30 18190450753002749088
14251757 17 15266757971532196842
14468879 13 17702368740776136816
14787075 74 17541966194584325662
15309172 13 18187646873075532605
16752209 62 18187930658765741243
16945 1 18117839026067873599
17980427 23 15430331217596805151
192875 21 13830136070638824616
20197701 30 18410281519775605073
20567600 347 18336554815679007011
20602899 9 15985110708153500164
20832881 197 17914345567569758644
21524375 3 18271246010610663901
22956985 138 17316472908357766747
23419403 2 17407734636741984343
23557571 272 18124025999915226528
23558518 356 18268706280489443740
23559900 14 14419544555374169234
25222932 49 14427779094824513825
298252 57 17561076982232172237
3759504 43 18261968396141214444
394222 165 17986384499906266049
4340502 62 18263092037723863345
474 4 18338246951005032253
59755656 520 18336533976471332680
6138700 20 17982462490628245534
633830 44 18131062693390855205
81228 2 18118680165131473522
9709674 26 18058164106565492156
9981440 41 17629739405197690392

>  <PUBCHEM_SHAPE_MULTIPOLES>  (1) 
477.19
6.7
4.03
2.04
4.77
4.18
0.25
-7.21
-0.41
-1.31
-2.05
0.52
0.38
0.71

>  <PUBCHEM_SHAPE_SELFOVERLAP>  (1) 
1031.169

>  <PUBCHEM_SHAPE_VOLUME>  (1) 
264.1

>  <PUBCHEM_COORDINATE_TYPE>  (1) 
2
5
10

$$$$
