45317
     RDKit          3D

 23 24  0  0  1  0  0  0  0  0999 V2000
    0.1479   -0.8315   -0.0138 O   0  0  0  0  0  0  0  0  0  0  0  0
   -0.8036   -2.8441   -0.6001 O   0  0  0  0  0  0  0  0  0  0  0  0
   -5.8124    0.8621    0.8047 O   0  0  0  0  0  0  0  0  0  0  0  0
    4.8655    0.2635    0.1411 N   0  0  0  0  0  0  0  0  0  0  0  0
    6.1487   -0.2585    0.6492 C   0  0  0  0  0  0  0  0  0  0  0  0
    7.0614    0.9153    1.0529 C   0  0  0  0  0  0  0  0  0  0  0  0
    5.0182    1.1848   -0.9905 C   0  0  0  0  0  0  0  0  0  0  0  0
    7.2574    1.9195   -0.0790 C   0  0  0  0  0  0  0  0  0  0  0  0
    5.9090    2.3723   -0.6248 C   0  0  0  0  0  0  0  0  0  0  0  0
    3.8993   -0.7878   -0.1646 C   0  0  0  0  0  0  0  0  0  0  0  0
    6.8815   -1.2261   -0.2934 C   0  0  0  0  0  0  0  0  0  0  0  0
    2.4775   -0.2781    0.0476 C   0  0  0  0  0  0  0  0  0  0  0  0
    1.4467   -1.3606   -0.2427 C   0  0  0  0  0  0  0  0  0  0  0  0
   -0.8925   -1.6833   -0.2311 C   0  0  0  0  0  0  0  0  0  0  0  0
   -2.1886   -1.0122    0.0408 C   0  0  0  0  0  0  0  0  0  0  0  0
   -3.3841   -1.7121   -0.1229 C   0  0  0  0  0  0  0  0  0  0  0  0
   -2.2111    0.3178    0.4606 C   0  0  0  0  0  0  0  0  0  0  0  0
   -4.6019   -1.0822    0.1330 C   0  0  0  0  0  0  0  0  0  0  0  0
   -3.4289    0.9479    0.7166 C   0  0  0  0  0  0  0  0  0  0  0  0
   -4.6243    0.2480    0.5529 C   0  0  0  0  0  0  0  0  0  0  0  0
   -6.9433    0.4210    0.0549 C   0  0  0  0  0  0  0  0  0  0  0  0
   -7.9111    1.5511   -0.0633 C   0  0  0  0  0  0  0  0  0  0  0  0
   -8.3113    2.0735   -1.2279 C   0  0  0  0  0  0  0  0  0  0  0  0
  1 13  1  0
  1 14  1  0
  2 14  2  0
  3 20  1  0
  3 21  1  0
  4  5  1  0
  4  7  1  0
  4 10  1  0
  5  6  1  0
  5 11  1  0
  6  8  1  0
  7  9  1  0
  8  9  1  0
 10 12  1  0
 12 13  1  0
 14 15  1  0
 15 16  2  0
 15 17  1  0
 16 18  1  0
 17 19  2  0
 18 20  2  0
 19 20  1  0
 21 22  1  0
 22 23  2  0
M  END
>  <PUBCHEM_COMPOUND_CID>  (1) 
45317

>  <PUBCHEM_CONFORMER_RMSD>  (1) 
1

>  <PUBCHEM_CONFORMER_DIVERSEORDER>  (1) 
1
82
44
33
9
54
16
72
41
92
31
45
42
52
98
78
73
57
20
100
58
48
88
49
76
29
35
19
91
21
13
53
97
95
55
11
69
96
18
25
43
99
94
81
62
23
22
36
64
10
93
85
63
65
37
5
4
90
61
71
86
47
75
6
38
32
66
68
40
7
83
12
79
14
60
26
59
30
34
51
89
27
17
8
15
2
84
56
77
80
70
24
74
50
67
46
87
3
39
28

>  <PUBCHEM_MMFF94_PARTIAL_CHARGES>  (1) 
25
1 -0.43
10 0.27
13 0.28
14 0.63
15 0.09
16 -0.15
17 -0.15
18 -0.15
19 -0.15
2 -0.57
20 0.08
21 0.42
22 -0.29
23 -0.3
3 -0.36
4 -0.81
42 0.15
43 0.15
44 0.15
45 0.15
48 0.15
49 0.15
5 0.27
50 0.15
7 0.27

>  <PUBCHEM_EFFECTIVE_ROTOR_COUNT>  (1) 
10.2

>  <PUBCHEM_PHARMACOPHORE_FEATURES>  (1) 
6
1 2 acceptor
1 23 hydrophobe
1 3 acceptor
1 4 cation
6 15 16 17 18 19 20 rings
6 4 5 6 7 8 9 rings

>  <PUBCHEM_HEAVY_ATOM_COUNT>  (1) 
23

>  <PUBCHEM_ATOM_DEF_STEREO_COUNT>  (1) 
0

>  <PUBCHEM_ATOM_UDEF_STEREO_COUNT>  (1) 
1

>  <PUBCHEM_BOND_DEF_STEREO_COUNT>  (1) 
0

>  <PUBCHEM_BOND_UDEF_STEREO_COUNT>  (1) 
0

>  <PUBCHEM_ISOTOPIC_ATOM_COUNT>  (1) 
0

>  <PUBCHEM_COMPONENT_COUNT>  (1) 
1

>  <PUBCHEM_CACTVS_TAUTO_COUNT>  (1) 
1

>  <PUBCHEM_CONFORMER_ID>  (1) 
0000B10500000001

>  <PUBCHEM_MMFF94_ENERGY>  (1) 
46.1138

>  <PUBCHEM_FEATURE_SELFOVERLAP>  (1) 
30.446

>  <PUBCHEM_SHAPE_FINGERPRINT>  (1) 
10 15 18113904870305055945
10411042 1 17694498552984517103
12236239 1 18335983151242418234
125118 31 18260551125632386412
12596602 18 17967817192839582602
12838862 33 18341879788809772689
13167372 99 18411139139277741712
13668630 136 11672064138152494329
13673619 4 11025797608731318847
13685833 64 8430311342444594567
14216079 64 7925913673221254049
14251757 52 18333447633988464201
14251764 18 18335702783876432159
14729087 3 18334856096263439141
15183329 4 17846224371135591656
15348495 7 15936979664273683400
15461852 350 17989202677416068407
15716309 27 12107505939813680379
1577012 14 18336828684300226582
16989713 51 17416679357914852855
17134984 74 12751239190730476276
1818759 1 8502375563401178944
18335252 114 18272367551426329500
19427546 20 18271803588488796575
20281389 69 18333449837638762244
20554085 129 17988910159488239258
21150785 3 15051729785634236649
21298829 104 18341619162227010289
21585482 111 18267865168045863656
22224240 67 16877661279402829131
22288116 15 17417800786875985647
23559900 14 17845928640840717873
23569943 247 11310685435486187788
246663 6 10591755503058225109
3004659 81 18343588435181690378
312425 54 16660364813711635770
33532 11 9799691493514486829
351380 3 8862949355575040384
4073 2 18188495787022345658
4093350 32 16877934993178126224
4107672 100 12535358861798720171
437795 83 18269548348491125333
5283384 27 18334008368561589645
5470011 282 12175614092390069656
59682541 52 16845303700770626046
6327066 14 18413388735472783815
636775 8 10807928302030488401
9995097 26 13110953258768213445

>  <PUBCHEM_SHAPE_MULTIPOLES>  (1) 
450.74
26.62
2.36
0.89
4.68
0.04
0.02
18.76
0.9
0.01
0.63
0.01
0.25
0.33

>  <PUBCHEM_SHAPE_SELFOVERLAP>  (1) 
915.739

>  <PUBCHEM_SHAPE_VOLUME>  (1) 
262.1

>  <PUBCHEM_COORDINATE_TYPE>  (1) 
2
5
10

$$$$
