45327
     RDKit          3D

 23 24  0  0  0  0  0  0  0  0999 V2000
   -2.7512    0.6843   -1.0948 O   0  0  0  0  0  0  0  0  0  0  0  0
    2.5157    0.6085   -0.6284 O   0  0  0  0  0  0  0  0  0  0  0  0
   -0.5702    2.6919    2.1652 N   0  0  0  0  0  0  0  0  0  0  0  0
   -0.1994    1.8197   -0.1590 C   0  0  0  0  0  0  0  0  0  0  0  0
   -1.3709    2.6154   -0.7784 C   0  0  0  0  0  0  0  0  0  0  0  0
    1.1226    2.5733   -0.4511 C   0  0  0  0  0  0  0  0  0  0  0  0
   -0.3958    1.5026    1.3389 C   0  0  0  0  0  0  0  0  0  0  0  0
   -2.7418    1.9938   -0.5395 C   0  0  0  0  0  0  0  0  0  0  0  0
    2.3881    1.8641    0.0218 C   0  0  0  0  0  0  0  0  0  0  0  0
   -3.5736   -0.2337   -0.4964 C   0  0  0  0  0  0  0  0  0  0  0  0
    3.6131   -0.1480   -0.3055 C   0  0  0  0  0  0  0  0  0  0  0  0
   -3.2452   -1.5855   -0.5025 C   0  0  0  0  0  0  0  0  0  0  0  0
    3.4582   -1.4145    0.2470 C   0  0  0  0  0  0  0  0  0  0  0  0
   -4.7417    0.2071    0.1174 C   0  0  0  0  0  0  0  0  0  0  0  0
    4.8813    0.3725   -0.5399 C   0  0  0  0  0  0  0  0  0  0  0  0
   -4.0940   -2.5064    0.1119 C   0  0  0  0  0  0  0  0  0  0  0  0
    4.5855   -2.1702    0.5690 C   0  0  0  0  0  0  0  0  0  0  0  0
   -1.9943   -2.0702   -1.1580 C   0  0  0  0  0  0  0  0  0  0  0  0
    2.1012   -1.9824    0.5026 C   0  0  0  0  0  0  0  0  0  0  0  0
   -5.5903   -0.7138    0.7319 C   0  0  0  0  0  0  0  0  0  0  0  0
    6.0085   -0.3835   -0.2179 C   0  0  0  0  0  0  0  0  0  0  0  0
   -5.2665   -2.0704    0.7291 C   0  0  0  0  0  0  0  0  0  0  0  0
    5.8606   -1.6546    0.3364 C   0  0  0  0  0  0  0  0  0  0  0  0
  1  8  1  0
  1 10  1  0
  2  9  1  0
  2 11  1  0
  3  7  1  0
  4  5  1  0
  4  6  1  0
  4  7  1  0
  5  8  1  0
  6  9  1  0
 10 12  2  0
 10 14  1  0
 11 13  2  0
 11 15  1  0
 12 16  1  0
 12 18  1  0
 13 17  1  0
 13 19  1  0
 14 20  2  0
 15 21  2  0
 16 22  2  0
 17 23  2  0
 20 22  1  0
 21 23  1  0
M  END
>  <PUBCHEM_COMPOUND_CID>  (1) 
45327

>  <PUBCHEM_CONFORMER_RMSD>  (1) 
1.2

>  <PUBCHEM_CONFORMER_DIVERSEORDER>  (1) 
1
108
3
87
119
11
111
79
103
106
26
2
53
144
123
10
44
114
91
9
71
89
115
96
97
13
68
121
32
72
42
46
45
19
131
31
80
90
17
35
109
43
60
130
136
27
150
156
24
138
141
48
95
105
152
126
101
153
125
86
30
110
47
77
61
22
76
50
29
63
83
81
36
18
8
147
134
20
151
51
65
67
38
5
112
132
82
64
127
75
34
21
113
124
145
140
74
37
128
93
142
94
117
118
70
99
15
98
12
137
41
16
84
154
135
4
14
149
100
143
52
85
104
122
57
92
49
102
116
120
62
73
78
133
55
69
39
28
33
40
66
88
25
155
107
146
148
56
58
139
129
59
7
54
23
6

>  <PUBCHEM_MMFF94_PARTIAL_CHARGES>  (1) 
30
1 -0.36
10 0.08
11 0.08
12 -0.14
13 -0.14
14 -0.15
15 -0.15
16 -0.15
17 -0.15
18 0.14
19 0.14
2 -0.36
20 -0.15
21 -0.15
22 -0.15
23 -0.15
3 -0.99
35 0.36
36 0.36
37 0.15
38 0.15
39 0.15
40 0.15
47 0.15
48 0.15
49 0.15
50 0.15
7 0.27
8 0.28
9 0.28

>  <PUBCHEM_EFFECTIVE_ROTOR_COUNT>  (1) 
9

>  <PUBCHEM_PHARMACOPHORE_FEATURES>  (1) 
6
1 1 acceptor
1 2 acceptor
1 3 cation
1 3 donor
6 10 12 14 16 20 22 rings
6 11 13 15 17 21 23 rings

>  <PUBCHEM_HEAVY_ATOM_COUNT>  (1) 
23

>  <PUBCHEM_ATOM_DEF_STEREO_COUNT>  (1) 
0

>  <PUBCHEM_ATOM_UDEF_STEREO_COUNT>  (1) 
0

>  <PUBCHEM_BOND_DEF_STEREO_COUNT>  (1) 
0

>  <PUBCHEM_BOND_UDEF_STEREO_COUNT>  (1) 
0

>  <PUBCHEM_ISOTOPIC_ATOM_COUNT>  (1) 
0

>  <PUBCHEM_COMPONENT_COUNT>  (1) 
1

>  <PUBCHEM_CACTVS_TAUTO_COUNT>  (1) 
1

>  <PUBCHEM_CONFORMER_ID>  (1) 
0000B10F00000001

>  <PUBCHEM_MMFF94_ENERGY>  (1) 
67.6881

>  <PUBCHEM_FEATURE_SELFOVERLAP>  (1) 
30.446

>  <PUBCHEM_SHAPE_FINGERPRINT>  (1) 
10074138 170 17416134866939566097
11370993 144 12607403282723843836
117089 54 17899429854805550707
12107183 9 18340219518405779537
12166972 35 17676211264904840270
12293681 25 17605850332719098936
12467345 10 18334012761653808750
12633257 1 17560805489107493879
12760667 363 18342453734248308173
12788726 201 18059871553238677984
13103583 49 17917162671005330361
13402501 40 18335422382657772483
13533116 47 17840864394148516063
13631057 29 18411417306791972284
14251751 18 18408885139654927684
14251764 30 18042695068969033427
14279260 333 18115580428086662258
14420673 8 18408328787430818451
14464042 87 18342182158981486162
15352361 1 18408039615218286942
15537594 2 18340210803025228638
16110190 28 18341614853535444799
19784866 135 18413108373014129833
20403669 9 18412830183148973471
20775530 9 18411127065275301003
21033648 29 14620253935447281185
21403212 168 18270410395887408801
22950370 63 18335424603461377925
23559900 14 18336535110190289621
329604 57 18333452045336471902
339767 52 18340760468776671710
3421961 26 18338234989183502756
439807 62 18113620088451700491
44880168 125 17632297843927778190
46194498 28 17095805550099768892
463206 1 18335144249154743962
5104073 3 18342732984521968432
5486654 36 18412549795084286377
6431902 208 18334853926608940886

>  <PUBCHEM_SHAPE_MULTIPOLES>  (1) 
456.61
13.99
3.5
1.13
5.57
0.82
0.36
-10.2
0.77
-1.01
0.33
-0.51
0.45
-0.3

>  <PUBCHEM_SHAPE_SELFOVERLAP>  (1) 
942.019

>  <PUBCHEM_SHAPE_VOLUME>  (1) 
261.9

>  <PUBCHEM_COORDINATE_TYPE>  (1) 
2
5
10

$$$$
