4532
     RDKit          3D

 22 22  0  0  1  0  0  0  0  0999 V2000
    5.9484   -0.5108    0.6555 O   0  0  0  0  0  0  0  0  0  0  0  0
    4.1733   -0.6840    1.9491 O   0  0  0  0  0  0  0  0  0  0  0  0
    1.4157    1.6000    2.0107 O   0  0  0  0  0  0  0  0  0  0  0  0
   -1.7161   -1.4532   -0.7888 O   0  0  0  0  0  0  0  0  0  0  0  0
    4.7448   -0.7302    0.8507 N   0  0  0  0  0  0  0  0  0  0  0  0
   -1.6278    0.8652   -0.7750 N   0  0  0  0  0  0  0  0  0  0  0  0
    0.4885    1.8528    0.9985 N   0  0  0  0  0  0  0  0  0  0  0  0
   -5.4135    0.8481    0.9832 N   0  0  0  0  0  0  0  0  0  0  0  0
    3.9114   -1.0548   -0.3316 C   0  0  0  0  0  0  0  0  0  0  0  0
    2.8819    0.0582   -0.4319 C   0  0  0  0  0  0  0  0  0  0  0  0
    3.3533    1.3047   -1.1657 C   0  0  0  0  0  0  0  0  0  0  0  0
    1.6443   -0.0660    0.0876 C   0  0  0  0  0  0  0  0  0  0  0  0
    3.4261   -2.4859   -0.1288 C   0  0  0  0  0  0  0  0  0  0  0  0
    0.6067    1.0033    0.0202 C   0  0  0  0  0  0  0  0  0  0  0  0
    3.0787    1.2400   -2.6625 C   0  0  0  0  0  0  0  0  0  0  0  0
   -0.2692    0.9895   -1.2160 C   0  0  0  0  0  0  0  0  0  0  0  0
   -2.2523   -0.3655   -0.5939 C   0  0  0  0  0  0  0  0  0  0  0  0
   -3.6720   -0.3240   -0.1580 C   0  0  0  0  0  0  0  0  0  0  0  0
   -4.5150   -1.3617   -0.4741 C   0  0  0  0  0  0  0  0  0  0  0  0
   -4.1347    0.7479    0.5566 C   0  0  0  0  0  0  0  0  0  0  0  0
   -5.8383   -1.2948   -0.0526 C   0  0  0  0  0  0  0  0  0  0  0  0
   -6.2343   -0.1786    0.6667 C   0  0  0  0  0  0  0  0  0  0  0  0
  1  5  1  0
  2  5  2  0
  3  7  1  0
  4 17  2  0
  5  9  1  0
  6 16  1  0
  6 17  1  0
  7 14  2  0
  8 20  2  0
  8 22  1  0
  9 10  1  0
  9 13  1  0
 10 11  1  0
 10 12  2  0
 11 15  1  0
 12 14  1  0
 14 16  1  0
 17 18  1  0
 18 19  2  0
 18 20  1  0
 19 21  1  0
 21 22  2  0
M  CHG  2   1  -1   5   1
M  END
>  <PUBCHEM_COMPOUND_CID>  (1) 
4532

>  <PUBCHEM_CONFORMER_RMSD>  (1) 
1

>  <PUBCHEM_CONFORMER_DIVERSEORDER>  (1) 
3
166
21
181
183
180
156
153
131
148
179
144
104
66
220
125
141
134
200
164
133
175
218
94
91
174
150
221
189
85
140
149
193
190
90
206
167
100
132
198
69
184
197
203
64
18
68
162
165
229
135
160
222
213
14
112
98
176
42
209
111
173
82
60
88
224
136
6
15
146
23
139
95
163
32
28
119
11
207
76
208
56
205
107
225
19
113
202
216
38
117
115
33
13
196
231
169
40
46
54
103
168
211
177
120
223
1
79
128
27
70
78
154
204
58
127
2
102
227
214
34
171
219
124
109
24
39
105
61
31
36
57
84
52
50
201
74
142
123
108
194
16
92
195
138
71
83
186
29
137
122
62
129
35
110
63
155
49
81
53
191
77
73
230
47
158
172
26
43
212
75
59
215
126
67
121
30
65
17
101
5
20
157
152
106
182
41
22
72
116
96
147
45
10
151
178
25
226
4
55
80
86
37
199
217
187
51
87
8
44
89
97
12
210
99
161
9
48
170
114
185
159
130
143
228
118
192
93
188
145
7

>  <PUBCHEM_MMFF94_PARTIAL_CHARGES>  (1) 
27
1 -0.52
10 -0.28
11 0.14
12 -0.14
14 0.37
16 0.36
17 0.54
18 0.09
19 -0.15
2 -0.52
20 0.16
21 -0.15
22 0.16
26 0.15
3 -0.34
35 0.37
36 0.15
37 0.15
38 0.15
39 0.15
4 -0.57
40 0.4
5 0.8
6 -0.73
7 -0.51
8 -0.62
9 0.38

>  <PUBCHEM_EFFECTIVE_ROTOR_COUNT>  (1) 
8

>  <PUBCHEM_PHARMACOPHORE_FEATURES>  (1) 
10
1 1 acceptor
1 1 anion
1 15 hydrophobe
1 2 acceptor
1 3 anion
1 4 acceptor
1 6 donor
1 7 acceptor
1 8 acceptor
6 8 18 19 20 21 22 rings

>  <PUBCHEM_HEAVY_ATOM_COUNT>  (1) 
22

>  <PUBCHEM_ATOM_DEF_STEREO_COUNT>  (1) 
0

>  <PUBCHEM_ATOM_UDEF_STEREO_COUNT>  (1) 
1

>  <PUBCHEM_BOND_DEF_STEREO_COUNT>  (1) 
0

>  <PUBCHEM_BOND_UDEF_STEREO_COUNT>  (1) 
2

>  <PUBCHEM_ISOTOPIC_ATOM_COUNT>  (1) 
0

>  <PUBCHEM_COMPONENT_COUNT>  (1) 
1

>  <PUBCHEM_CACTVS_TAUTO_COUNT>  (1) 
8

>  <PUBCHEM_CONFORMER_ID>  (1) 
000011B400000003

>  <PUBCHEM_MMFF94_ENERGY>  (1) 
53.6483

>  <PUBCHEM_FEATURE_SELFOVERLAP>  (1) 
50.826

>  <PUBCHEM_SHAPE_FINGERPRINT>  (1) 
11089746 13 10087632698440129974
12107183 9 17907587921850270921
12236239 1 18259990396698997669
12507557 5 17060622213873189969
12596602 18 17131829880506056563
12616971 3 18113620101394507975
12633257 1 17917427661665515279
12788726 201 17560537143545659552
13675066 3 16200436879446789077
13914758 101 18340480090129490565
13955234 65 17677336146630406356
14251764 18 18341614849778424143
14350574 20 16370727019726671100
14466204 15 17846222099203387073
14863182 85 18343022173434223870
15142383 8 18261106323080128685
15238133 3 18131079216140280481
15250474 111 18269832172313533927
15527383 91 18131626807174587561
17844677 252 17022904545287101733
17857418 61 18413102879729690391
1813 80 17894917295384750853
19784866 140 16298099870054735861
20281475 54 18336264638971772551
20645477 70 17821732740804759798
21033648 29 14692290578307788923
21637258 2 17749381568519474931
23622692 88 17489300910626656645
239999 70 16443348701794721932
2838139 119 10231751188892526226
3004659 81 18334020484105045534
3060560 45 11602821281424013234
3411729 13 17559105695797979032
345986 75 18198053681965736507
351380 3 18040431079426134466
5104073 3 17845377816302627083
5281201 14 16877941650446110453
542803 24 9799694792381218423
6669772 16 16081653400167314624
7164475 11 18262807250647054508
8509985 295 18202568371467293685
9841814 1 17846498162236584856

>  <PUBCHEM_SHAPE_MULTIPOLES>  (1) 
409.35
14.2
1.84
1.59
11.24
0.28
0.24
5.33
1.95
-1.7
-0.41
-1.33
-0.61
-1.48

>  <PUBCHEM_SHAPE_SELFOVERLAP>  (1) 
835.806

>  <PUBCHEM_SHAPE_VOLUME>  (1) 
235.6

>  <PUBCHEM_COORDINATE_TYPE>  (1) 
2
5
10

$$$$
