45331
     RDKit          3D

 21 22  0  0  1  0  0  0  0  0999 V2000
    6.2483   -1.1289    0.6031 Br  0  0  0  0  0  0  0  0  0  0  0  0
   -0.5387   -1.4156   -0.0764 O   0  0  0  0  0  0  0  0  0  0  0  0
   -4.0963   -2.3738   -0.1811 N   0  0  0  0  0  0  0  0  0  0  0  0
    0.2579   -0.4163   -0.6979 C   0  0  0  0  0  0  0  0  0  0  0  0
   -0.2637    0.9604   -0.3425 C   0  0  0  0  0  0  0  0  0  0  0  0
    1.7300   -0.5902   -0.3775 C   0  0  0  0  0  0  0  0  0  0  0  0
   -1.8952   -1.3357   -0.4941 C   0  0  0  0  0  0  0  0  0  0  0  0
   -2.6870   -2.4285    0.2061 C   0  0  0  0  0  0  0  0  0  0  0  0
   -0.8076    1.7535   -1.3373 C   0  0  0  0  0  0  0  0  0  0  0  0
   -0.1845    1.3932    0.9692 C   0  0  0  0  0  0  0  0  0  0  0  0
    2.6722   -0.1814   -1.3027 C   0  0  0  0  0  0  0  0  0  0  0  0
    2.0930   -1.1544    0.8314 C   0  0  0  0  0  0  0  0  0  0  0  0
   -1.2166    3.4752    0.3074 C   0  0  0  0  0  0  0  0  0  0  0  0
   -1.2877    3.0214   -1.0095 C   0  0  0  0  0  0  0  0  0  0  0  0
   -0.6650    2.6612    1.2968 C   0  0  0  0  0  0  0  0  0  0  0  0
   -4.6648   -1.0659    0.1430 C   0  0  0  0  0  0  0  0  0  0  0  0
   -4.8502   -3.4373    0.4815 C   0  0  0  0  0  0  0  0  0  0  0  0
    4.0262   -0.3426   -1.0087 C   0  0  0  0  0  0  0  0  0  0  0  0
    3.4470   -1.3154    1.1257 C   0  0  0  0  0  0  0  0  0  0  0  0
    4.4137   -0.9094    0.2056 C   0  0  0  0  0  0  0  0  0  0  0  0
   -1.7310    4.8304    0.6578 C   0  0  0  0  0  0  0  0  0  0  0  0
  1 20  1  0
  2  4  1  0
  2  7  1  0
  3  8  1  0
  3 16  1  0
  3 17  1  0
  4  5  1  0
  4  6  1  0
  5  9  2  0
  5 10  1  0
  6 11  2  0
  6 12  1  0
  7  8  1  0
  9 14  1  0
 10 15  2  0
 11 18  1  0
 12 19  2  0
 13 14  2  0
 13 15  1  0
 13 21  1  0
 18 20  2  0
 19 20  1  0
M  END
>  <PUBCHEM_COMPOUND_CID>  (1) 
45331

>  <PUBCHEM_CONFORMER_RMSD>  (1) 
0.8

>  <PUBCHEM_CONFORMER_DIVERSEORDER>  (1) 
1
15
8
4
16
9
11
7
10
2
14
12
5
6
3
13

>  <PUBCHEM_MMFF94_PARTIAL_CHARGES>  (1) 
29
1 -0.11
10 -0.15
11 -0.15
12 -0.15
13 -0.14
14 -0.15
15 -0.15
16 0.27
17 0.27
18 -0.15
19 -0.15
2 -0.56
20 0.11
21 0.14
27 0.15
28 0.15
29 0.15
3 -0.81
30 0.15
31 0.15
32 0.15
39 0.15
4 0.57
40 0.15
5 -0.14
6 -0.14
7 0.28
8 0.27
9 -0.15

>  <PUBCHEM_EFFECTIVE_ROTOR_COUNT>  (1) 
6

>  <PUBCHEM_PHARMACOPHORE_FEATURES>  (1) 
5
1 1 hydrophobe
1 2 acceptor
1 3 cation
6 5 9 10 13 14 15 rings
6 6 11 12 18 19 20 rings

>  <PUBCHEM_HEAVY_ATOM_COUNT>  (1) 
21

>  <PUBCHEM_ATOM_DEF_STEREO_COUNT>  (1) 
0

>  <PUBCHEM_ATOM_UDEF_STEREO_COUNT>  (1) 
1

>  <PUBCHEM_BOND_DEF_STEREO_COUNT>  (1) 
0

>  <PUBCHEM_BOND_UDEF_STEREO_COUNT>  (1) 
0

>  <PUBCHEM_ISOTOPIC_ATOM_COUNT>  (1) 
0

>  <PUBCHEM_COMPONENT_COUNT>  (1) 
1

>  <PUBCHEM_CACTVS_TAUTO_COUNT>  (1) 
1

>  <PUBCHEM_CONFORMER_ID>  (1) 
0000B11300000001

>  <PUBCHEM_MMFF94_ENERGY>  (1) 
59.7351

>  <PUBCHEM_FEATURE_SELFOVERLAP>  (1) 
25.371

>  <PUBCHEM_SHAPE_FINGERPRINT>  (1) 
10764073 3 15119619027695831987
11265709 11 18336831982355230755
11582403 64 15217782219180736413
12293681 160 17541696097292377028
12516196 113 18338797939179265051
12549972 3 17557971854570380906
12788726 201 18336276694908386582
13004483 165 18411135874364254766
13052359 8 18265331699384872429
13134695 92 18196089069846410063
13140716 1 18411698807369856977
13583140 156 17558520584251017082
13631057 29 18334570240225232658
13955234 65 17545611505643662371
14178342 30 18264765455460729254
15131766 46 15983108605444353170
15420108 30 17269466926443325572
15842332 3 17823435824677233838
17980427 26 17334773579454037765
1813 80 18199761391059097183
200 152 17603302657188058850
20097449 115 18340484585921142575
20510252 161 18411978036136778554
20600515 1 18058182776371797943
20671657 1 17835248118517823063
21033648 29 16845026666500539579
21041028 32 18341051929900349453
21049683 271 17900267699491317717
21120745 212 18337690675325287660
23366157 5 17689712386866930967
23419403 2 18198039555939716101
23557571 272 18271522005815500054
23558518 356 18118130173364065698
23598288 3 18196635316582963074
23845131 108 17763184644474955913
25147074 1 17968393264498211884
283562 15 18334292050682427306
3091708 16 9206742473504436165
314173 85 18272093820012182463
345986 75 18041823061284276979
4409770 3 18262508188095154157
59755656 520 17907015080307767260
60123966 16 10732278500684254763
6442390 28 17765450746429295537
68521 5 18411703170718948255
7164475 11 18336270059352726094
7226269 152 18337103480439261487
7364860 26 17836935868676262759
77188 2 18267303308153382769
81228 2 18337972094261292075
9981440 41 17545605556629115888

>  <PUBCHEM_SHAPE_MULTIPOLES>  (1) 
427.26
9.7
4.94
1.21
9.27
4.78
-0.07
-10.27
1.61
-9.09
1.22
0.47
0.47
-0.29

>  <PUBCHEM_SHAPE_SELFOVERLAP>  (1) 
878.337

>  <PUBCHEM_SHAPE_VOLUME>  (1) 
253.7

>  <PUBCHEM_COORDINATE_TYPE>  (1) 
2
5
10

$$$$
