45333
     RDKit          3D

 26 27  0  0  0  0  0  0  0  0999 V2000
   -6.0963    2.1118    0.8682 Cl  0  0  0  0  0  0  0  0  0  0  0  0
    0.4753    2.8419    0.1644 O   0  0  0  0  0  0  0  0  0  0  0  0
   -1.7298   -2.0294   -0.5761 O   0  0  0  0  0  0  0  0  0  0  0  0
    2.1983    2.1232   -1.8950 O   0  0  0  0  0  0  0  0  0  0  0  0
   -0.1596   -1.4640    1.6467 O   0  0  0  0  0  0  0  0  0  0  0  0
   -2.5057    0.6990   -0.2874 N   0  0  0  0  0  0  0  0  0  0  0  0
   -1.2603    1.3862   -0.6274 C   0  0  0  0  0  0  0  0  0  0  0  0
   -2.9499   -0.1356   -1.4031 C   0  0  0  0  0  0  0  0  0  0  0  0
   -3.5419    1.6666    0.0714 C   0  0  0  0  0  0  0  0  0  0  0  0
   -0.7514    2.2239    0.5314 C   0  0  0  0  0  0  0  0  0  0  0  0
   -1.9378   -1.2197   -1.7261 C   0  0  0  0  0  0  0  0  0  0  0  0
   -4.8237    0.9402    0.4486 C   0  0  0  0  0  0  0  0  0  0  0  0
    1.6232    2.1416    0.4288 C   0  0  0  0  0  0  0  0  0  0  0  0
   -0.4903   -2.5969   -0.4362 C   0  0  0  0  0  0  0  0  0  0  0  0
    2.4806    1.7845   -0.6063 C   0  0  0  0  0  0  0  0  0  0  0  0
    0.2906   -2.3092    0.6781 C   0  0  0  0  0  0  0  0  0  0  0  0
    1.9173    1.7939    1.7431 C   0  0  0  0  0  0  0  0  0  0  0  0
   -0.0259   -3.4616   -1.4217 C   0  0  0  0  0  0  0  0  0  0  0  0
    3.6458    1.0715   -0.3239 C   0  0  0  0  0  0  0  0  0  0  0  0
    1.5507   -2.8932    0.8085 C   0  0  0  0  0  0  0  0  0  0  0  0
    3.0825    1.0810    2.0254 C   0  0  0  0  0  0  0  0  0  0  0  0
    1.2341   -4.0457   -1.2911 C   0  0  0  0  0  0  0  0  0  0  0  0
    3.9467    0.7198    0.9920 C   0  0  0  0  0  0  0  0  0  0  0  0
    2.0223   -3.7614   -0.1761 C   0  0  0  0  0  0  0  0  0  0  0  0
    2.6971    3.3758   -2.3604 C   0  0  0  0  0  0  0  0  0  0  0  0
   -0.8918   -2.0442    2.7244 C   0  0  0  0  0  0  0  0  0  0  0  0
  1 12  1  0
  2 10  1  0
  2 13  1  0
  3 11  1  0
  3 14  1  0
  4 15  1  0
  4 25  1  0
  5 16  1  0
  5 26  1  0
  6  7  1  0
  6  8  1  0
  6  9  1  0
  7 10  1  0
  8 11  1  0
  9 12  1  0
 13 15  2  0
 13 17  1  0
 14 16  2  0
 14 18  1  0
 15 19  1  0
 16 20  1  0
 17 21  2  0
 18 22  2  0
 19 23  2  0
 20 24  2  0
 21 23  1  0
 22 24  1  0
M  END
>  <PUBCHEM_COMPOUND_CID>  (1) 
45333

>  <PUBCHEM_CONFORMER_RMSD>  (1) 
1.2

>  <PUBCHEM_CONFORMER_DIVERSEORDER>  (1) 
6
143
12
237
193
11
198
31
138
25
187
232
109
146
196
45
231
80
54
112
78
117
164
114
208
42
203
223
158
63
55
66
22
219
199
163
160
151
48
121
233
200
102
227
7
44
140
123
209
207
213
170
236
8
1
150
144
154
126
103
40
43
56
61
23
24
224
128
96
139
175
183
182
73
212
83
235
51
27
107
129
131
188
98
87
20
234
211
95
116
134
120
100
4
195
169
74
177
94
172
127
178
62
113
32
180
29
191
221
204
186
173
68
81
194
218
147
110
60
171
206
135
136
230
197
2
179
13
97
58
17
14
104
214
215
184
222
65
9
176
69
70
167
88
190
148
10
41
38
49
124
226
33
166
189
205
52
153
16
90
101
19
57
99
132
217
3
26
122
210
156
34
133
152
165
75
77
149
229
59
39
192
46
64
106
18
174
79
53
84
161
93
21
115
92
155
181
145
125
67
5
185
201
142
202
36
71
162
159
225
28
30
119
76
111
72
157
118
130
50
108
141
82
220
35
91
47
137
105
228
216
85
89
37
15
168
86

>  <PUBCHEM_MMFF94_PARTIAL_CHARGES>  (1) 
34
1 -0.29
10 0.28
11 0.28
12 0.29
13 0.08
14 0.08
15 0.08
16 0.08
17 -0.15
18 -0.15
19 -0.15
2 -0.36
20 -0.15
21 -0.15
22 -0.15
23 -0.15
24 -0.15
25 0.28
26 0.28
3 -0.36
39 0.15
4 -0.36
40 0.15
41 0.15
42 0.15
43 0.15
44 0.15
45 0.15
46 0.15
5 -0.36
6 -0.81
7 0.27
8 0.27
9 0.27

>  <PUBCHEM_EFFECTIVE_ROTOR_COUNT>  (1) 
12

>  <PUBCHEM_PHARMACOPHORE_FEATURES>  (1) 
7
1 2 acceptor
1 3 acceptor
1 4 acceptor
1 5 acceptor
1 6 cation
6 13 15 17 19 21 23 rings
6 14 16 18 20 22 24 rings

>  <PUBCHEM_HEAVY_ATOM_COUNT>  (1) 
26

>  <PUBCHEM_ATOM_DEF_STEREO_COUNT>  (1) 
0

>  <PUBCHEM_ATOM_UDEF_STEREO_COUNT>  (1) 
0

>  <PUBCHEM_BOND_DEF_STEREO_COUNT>  (1) 
0

>  <PUBCHEM_BOND_UDEF_STEREO_COUNT>  (1) 
0

>  <PUBCHEM_ISOTOPIC_ATOM_COUNT>  (1) 
0

>  <PUBCHEM_COMPONENT_COUNT>  (1) 
1

>  <PUBCHEM_CACTVS_TAUTO_COUNT>  (1) 
1

>  <PUBCHEM_CONFORMER_ID>  (1) 
0000B11500000006

>  <PUBCHEM_MMFF94_ENERGY>  (1) 
100.8897

>  <PUBCHEM_FEATURE_SELFOVERLAP>  (1) 
35.531

>  <PUBCHEM_SHAPE_FINGERPRINT>  (1) 
12156800 1 15433745273645891746
12422481 6 17905854056274429722
12788726 201 17689718983873088863
133893 2 17978257996496478313
23419403 2 17757315580196390843
3298306 158 18410297995449760493
3411729 13 18337680702996645697
35225 105 17980224172183522083
469060 322 12253860983415177985
5265222 85 18338528546668173508
57091435 65 18199463260219973607
6287921 2 17913755142251985715

>  <PUBCHEM_SHAPE_MULTIPOLES>  (1) 
508.48
7.44
5.57
2.15
11.53
3.84
0.27
-6.27
1.43
-4.16
-1.81
-0.92
-0.15
-0.89

>  <PUBCHEM_SHAPE_SELFOVERLAP>  (1) 
1037.296

>  <PUBCHEM_SHAPE_VOLUME>  (1) 
297.3

>  <PUBCHEM_COORDINATE_TYPE>  (1) 
2
5
10

$$$$
