45362
     RDKit          3D

 25 27  0  0  1  0  0  0  0  0999 V2000
    2.6400    0.7579   -0.0306 O   0  0  0  0  0  0  0  0  0  0  0  0
    2.1673    4.3983   -0.1464 N   0  0  0  0  0  0  0  0  0  0  0  0
   -3.7316   -0.3198   -0.4914 C   0  0  0  0  0  0  0  0  0  0  0  0
   -4.4628   -1.4484    0.2564 C   0  0  0  0  0  0  0  0  0  0  0  0
   -4.3708    1.0465   -0.1879 C   0  0  0  0  0  0  0  0  0  0  0  0
   -5.9598   -1.4423   -0.0494 C   0  0  0  0  0  0  0  0  0  0  0  0
   -5.8681    1.0423   -0.4918 C   0  0  0  0  0  0  0  0  0  0  0  0
   -6.5888   -0.0834    0.2440 C   0  0  0  0  0  0  0  0  0  0  0  0
   -2.2415   -0.3226   -0.2019 C   0  0  0  0  0  0  0  0  0  0  0  0
   -1.7869   -0.1088    1.0974 C   0  0  0  0  0  0  0  0  0  0  0  0
   -1.3345   -0.5399   -1.2363 C   0  0  0  0  0  0  0  0  0  0  0  0
    0.4932   -0.3294    0.3298 C   0  0  0  0  0  0  0  0  0  0  0  0
   -0.4177   -0.1121    1.3637 C   0  0  0  0  0  0  0  0  0  0  0  0
    0.0347   -0.5434   -0.9702 C   0  0  0  0  0  0  0  0  0  0  0  0
    1.9572   -0.3329    0.6148 C   0  0  0  0  0  0  0  0  0  0  0  0
    2.6511   -1.6422    0.2562 C   0  0  0  0  0  0  0  0  0  0  0  0
    2.0227    1.9923    0.2798 C   0  0  0  0  0  0  0  0  0  0  0  0
    2.7794    3.1075   -0.4239 C   0  0  0  0  0  0  0  0  0  0  0  0
    3.2850   -1.7460   -0.9637 C   0  0  0  0  0  0  0  0  0  0  0  0
    2.6217   -2.6798    1.1637 C   0  0  0  0  0  0  0  0  0  0  0  0
    3.9196   -2.9441   -1.2916 C   0  0  0  0  0  0  0  0  0  0  0  0
    3.2564   -3.8778    0.8356 C   0  0  0  0  0  0  0  0  0  0  0  0
    3.9052   -4.0100   -0.3919 C   0  0  0  0  0  0  0  0  0  0  0  0
    2.1586    4.6692    1.2933 C   0  0  0  0  0  0  0  0  0  0  0  0
    2.8704    5.4689   -0.8576 C   0  0  0  0  0  0  0  0  0  0  0  0
  1 15  1  0
  1 17  1  0
  2 18  1  0
  2 24  1  0
  2 25  1  0
  3  4  1  0
  3  5  1  0
  3  9  1  0
  4  6  1  0
  5  7  1  0
  6  8  1  0
  7  8  1  0
  9 10  2  0
  9 11  1  0
 10 13  1  0
 11 14  2  0
 12 13  2  0
 12 14  1  0
 12 15  1  0
 15 16  1  0
 16 19  2  0
 16 20  1  0
 17 18  1  0
 19 21  1  0
 20 22  2  0
 21 23  2  0
 22 23  1  0
M  END
>  <PUBCHEM_COMPOUND_CID>  (1) 
45362

>  <PUBCHEM_CONFORMER_RMSD>  (1) 
0.8

>  <PUBCHEM_CONFORMER_DIVERSEORDER>  (1) 
1
88
115
70
105
38
109
31
102
99
83
17
97
112
30
74
65
107
48
37
8
72
25
11
94
63
62
26
123
108
114
22
47
3
76
23
87
33
42
121
46
82
116
58
10
27
89
18
64
14
60
85
45
104
79
20
29
32
41
118
93
19
69
43
15
44
36
122
100
7
77
66
92
101
98
52
35
4
51
78
67
125
113
24
49
128
53
84
2
21
16
28
57
111
90
80
96
126
95
50
127
86
120
71
110
129
9
61
124
54
106
13
40
34
103
39
73
5
91
6
59
81
119
55
68
75
117
56
12

>  <PUBCHEM_MMFF94_PARTIAL_CHARGES>  (1) 
29
1 -0.56
10 -0.15
11 -0.15
12 -0.14
13 -0.15
14 -0.15
15 0.57
16 -0.14
17 0.28
18 0.27
19 -0.15
2 -0.81
20 -0.15
21 -0.15
22 -0.15
23 -0.15
24 0.27
25 0.27
3 0.14
37 0.15
38 0.15
39 0.15
40 0.15
46 0.15
47 0.15
48 0.15
49 0.15
50 0.15
9 -0.14

>  <PUBCHEM_EFFECTIVE_ROTOR_COUNT>  (1) 
8.2

>  <PUBCHEM_PHARMACOPHORE_FEATURES>  (1) 
5
1 1 acceptor
1 2 cation
6 16 19 20 21 22 23 rings
6 3 4 5 6 7 8 rings
6 9 10 11 12 13 14 rings

>  <PUBCHEM_HEAVY_ATOM_COUNT>  (1) 
25

>  <PUBCHEM_ATOM_DEF_STEREO_COUNT>  (1) 
0

>  <PUBCHEM_ATOM_UDEF_STEREO_COUNT>  (1) 
1

>  <PUBCHEM_BOND_DEF_STEREO_COUNT>  (1) 
0

>  <PUBCHEM_BOND_UDEF_STEREO_COUNT>  (1) 
0

>  <PUBCHEM_ISOTOPIC_ATOM_COUNT>  (1) 
0

>  <PUBCHEM_COMPONENT_COUNT>  (1) 
1

>  <PUBCHEM_CACTVS_TAUTO_COUNT>  (1) 
1

>  <PUBCHEM_CONFORMER_ID>  (1) 
0000B13200000001

>  <PUBCHEM_MMFF94_ENERGY>  (1) 
64.7589

>  <PUBCHEM_FEATURE_SELFOVERLAP>  (1) 
25.373

>  <PUBCHEM_SHAPE_FINGERPRINT>  (1) 
10074138 170 16894797984434211514
10411042 1 18194401091801631970
10554248 39 18201993331993240117
10721379 63 18341625836009744900
10937287 8 17907293604568514580
11386260 185 18338219480842776261
11405975 8 18411138005359097771
12107183 9 18125163724014624465
12166972 35 18130223753613417185
12293681 4 17689987938756862028
12516196 113 18265895761613900290
12788726 201 17612878097721940914
13009979 54 17773604827423041177
13533116 47 18407762547595797359
13583140 156 18337122249515176667
13590594 115 18121508955331995409
13757389 114 17109328632720832732
13955234 65 18338800116764036083
14068700 686 17903925796590108355
14114211 80 17759821620578907917
15664445 248 18270411499077085374
16992752 21 18050292467079928582
17349148 13 17274819108967345103
17844677 252 18410296883306009689
17868525 174 18338790105443617433
1813 80 18128824032161618958
18681886 176 18342174427951260426
18785283 64 18409724097038768918
20832881 197 18116152156293171411
21049683 271 18261118461284961278
21304303 282 17121956481301028004
21315764 268 18334851689854159013
21344244 78 18271228440046909544
21365058 113 18269006301213975926
22033318 11 17769688350637801273
23559900 14 18410288095534208723
4058900 60 18120665883274240016
4409770 3 17255963373313876276
465052 167 18271808956496536775
5219985 13 17905888437203465828
57307002 103 18339371846121500059
6086070 43 18119231880326336917
6695519 79 17694802004738254163
77188 2 18265895761808481508
7970288 3 18051974723137069622
960060 61 17677344800536145279
9841814 1 18261381218282882802
9981440 41 17977096091488410096

>  <PUBCHEM_SHAPE_MULTIPOLES>  (1) 
503.64
12.04
6.35
1.19
23.51
9.38
-0.07
-5.22
1.32
-14.13
0.11
-0.64
-0.08
0.21

>  <PUBCHEM_SHAPE_SELFOVERLAP>  (1) 
1054.301

>  <PUBCHEM_SHAPE_VOLUME>  (1) 
284.4

>  <PUBCHEM_COORDINATE_TYPE>  (1) 
2
5
10

$$$$
