45374
     RDKit          3D

 21 22  0  0  1  0  0  0  0  0999 V2000
   -0.6666   -1.2626   -0.1430 O   0  0  0  0  0  0  0  0  0  0  0  0
   -4.3478   -1.3916   -0.0096 N   0  0  0  0  0  0  0  0  0  0  0  0
    0.3349   -0.4040    0.3857 C   0  0  0  0  0  0  0  0  0  0  0  0
    1.7248   -0.9509    0.1233 C   0  0  0  0  0  0  0  0  0  0  0  0
    0.1463    1.0053   -0.1358 C   0  0  0  0  0  0  0  0  0  0  0  0
   -1.9706   -0.8297    0.2218 C   0  0  0  0  0  0  0  0  0  0  0  0
    2.7285   -0.7746    1.0585 C   0  0  0  0  0  0  0  0  0  0  0  0
   -2.9884   -1.7889   -0.3744 C   0  0  0  0  0  0  0  0  0  0  0  0
   -0.1989    2.0117    0.7488 C   0  0  0  0  0  0  0  0  0  0  0  0
    1.9500   -1.6218   -1.0660 C   0  0  0  0  0  0  0  0  0  0  0  0
    0.3226    1.2541   -1.4853 C   0  0  0  0  0  0  0  0  0  0  0  0
   -0.3732    3.3094    0.2678 C   0  0  0  0  0  0  0  0  0  0  0  0
    3.9996   -1.2859    0.7965 C   0  0  0  0  0  0  0  0  0  0  0  0
    2.4892   -0.0502    2.3426 C   0  0  0  0  0  0  0  0  0  0  0  0
    3.2210   -2.1331   -1.3279 C   0  0  0  0  0  0  0  0  0  0  0  0
    0.1484    2.5517   -1.9662 C   0  0  0  0  0  0  0  0  0  0  0  0
   -0.1996    3.5793   -1.0896 C   0  0  0  0  0  0  0  0  0  0  0  0
    4.2457   -1.9652   -0.3968 C   0  0  0  0  0  0  0  0  0  0  0  0
   -4.4962   -1.3542    1.4448 C   0  0  0  0  0  0  0  0  0  0  0  0
   -5.3237   -2.3071   -0.5996 C   0  0  0  0  0  0  0  0  0  0  0  0
   -0.7463    4.4084    1.2047 C   0  0  0  0  0  0  0  0  0  0  0  0
  1  3  1  0
  1  6  1  0
  2  8  1  0
  2 19  1  0
  2 20  1  0
  3  4  1  0
  3  5  1  0
  4  7  2  0
  4 10  1  0
  5  9  2  0
  5 11  1  0
  6  8  1  0
  7 13  1  0
  7 14  1  0
  9 12  1  0
 10 15  2  0
 11 16  2  0
 12 17  2  0
 12 21  1  0
 13 18  2  0
 15 18  1  0
 16 17  1  0
M  END
>  <PUBCHEM_COMPOUND_CID>  (1) 
45374

>  <PUBCHEM_CONFORMER_RMSD>  (1) 
0.8

>  <PUBCHEM_CONFORMER_DIVERSEORDER>  (1) 
2
75
93
57
49
31
7
83
3
45
53
91
82
89
5
63
79
60
71
42
47
35
48
65
72
80
58
43
66
87
32
64
70
44
8
92
78
39
86
46
62
11
69
88
90
38
33
77
36
29
16
4
61
37
51
28
76
24
27
15
30
68
25
40
67
13
6
34
59
1
23
81
21
17
20
54
22
85
18
19
14
26
74
12
55
41
9
56
10
50
73
84
52

>  <PUBCHEM_MMFF94_PARTIAL_CHARGES>  (1) 
29
1 -0.56
10 -0.15
11 -0.15
12 -0.14
13 -0.15
14 0.14
15 -0.15
16 -0.15
17 -0.15
18 -0.15
19 0.27
2 -0.81
20 0.27
21 0.14
27 0.15
28 0.15
29 0.15
3 0.57
30 0.15
34 0.15
35 0.15
36 0.15
37 0.15
4 -0.14
5 -0.14
6 0.28
7 -0.14
8 0.27
9 -0.15

>  <PUBCHEM_EFFECTIVE_ROTOR_COUNT>  (1) 
6

>  <PUBCHEM_PHARMACOPHORE_FEATURES>  (1) 
4
1 1 acceptor
1 2 cation
6 4 7 10 13 15 18 rings
6 5 9 11 12 16 17 rings

>  <PUBCHEM_HEAVY_ATOM_COUNT>  (1) 
21

>  <PUBCHEM_ATOM_DEF_STEREO_COUNT>  (1) 
0

>  <PUBCHEM_ATOM_UDEF_STEREO_COUNT>  (1) 
1

>  <PUBCHEM_BOND_DEF_STEREO_COUNT>  (1) 
0

>  <PUBCHEM_BOND_UDEF_STEREO_COUNT>  (1) 
0

>  <PUBCHEM_ISOTOPIC_ATOM_COUNT>  (1) 
0

>  <PUBCHEM_COMPONENT_COUNT>  (1) 
1

>  <PUBCHEM_CACTVS_TAUTO_COUNT>  (1) 
1

>  <PUBCHEM_CONFORMER_ID>  (1) 
0000B13E00000002

>  <PUBCHEM_MMFF94_ENERGY>  (1) 
63.9482

>  <PUBCHEM_FEATURE_SELFOVERLAP>  (1) 
20.297

>  <PUBCHEM_SHAPE_FINGERPRINT>  (1) 
10064457 181 17476933354771643752
10165383 225 17259081592838248708
10764073 3 16627172580472067003
11265709 11 18336839631628636055
12160290 23 17905019496604477573
12549972 3 17340378477558101610
12707595 3 18113903805391167107
12788726 201 18334581200818306882
13134695 92 18340482387087680901
13294875 104 17765158658351006453
13681431 1 18262808495812484321
13955234 65 17979079611108456843
14022347 108 18333455334833625674
14178000 15 18339928216010599589
14347329 18 15721327900812049343
14955137 171 18051700133371287560
15420108 30 17478025611957109432
17357779 13 18268974441262702871
17980427 23 17768788107526770383
1813 80 18409451396796730359
18222031 100 18410289237674106679
20600515 1 18260542359519622530
21041028 32 18410299116341006373
22112679 90 18192743100896014661
22849341 161 18267892569403286683
23419403 2 17828724599449153533
23557571 272 18336259068536605574
283562 15 18262798458859581386
3380486 145 17912325931764865926
59554788 281 17041995154878898528
59755656 520 17475233501178735548
621550 34 18130493202845567106
6442390 28 17476648576706990081
6443956 14 18339639040057176903
7164475 11 18189340065680651998
7364860 26 18122908895705539669
7399639 24 18201141197270192402
7471813 234 18271522109005407039
81228 2 18190465960753956754
9841814 1 18042114513606828195
9925002 15 18045526151974663756
9971528 1 18343017830873939075

>  <PUBCHEM_SHAPE_MULTIPOLES>  (1) 
421.32
7.54
4.72
1.71
5.9
6.55
-0.18
-11.14
-0.97
2.51
0.47
-0.71
0.62
0.2

>  <PUBCHEM_SHAPE_SELFOVERLAP>  (1) 
880.444

>  <PUBCHEM_SHAPE_VOLUME>  (1) 
241.2

>  <PUBCHEM_COORDINATE_TYPE>  (1) 
2
5
10

$$$$
