45388
     RDKit          3D

 23 25  0  0  0  0  0  0  0  0999 V2000
   -6.6859    0.4165   -0.8352 O   0  0  0  0  0  0  0  0  0  0  0  0
    0.5124    0.7106    0.3463 O   0  0  0  0  0  0  0  0  0  0  0  0
   -4.2056    0.4704    0.5462 N   0  0  0  0  0  0  0  0  0  0  0  0
   -3.0006   -0.1958    0.9489 N   0  0  0  0  0  0  0  0  0  0  0  0
   -5.3527   -0.2825    1.0691 C   0  0  0  0  0  0  0  0  0  0  0  0
   -4.2628    0.5274   -0.9209 C   0  0  0  0  0  0  0  0  0  0  0  0
   -6.6477    0.3708    0.5924 C   0  0  0  0  0  0  0  0  0  0  0  0
   -5.5825    1.1629   -1.3516 C   0  0  0  0  0  0  0  0  0  0  0  0
   -1.8734    0.5725    0.4463 C   0  0  0  0  0  0  0  0  0  0  0  0
    1.7743    0.1680    0.7108 C   0  0  0  0  0  0  0  0  0  0  0  0
   -0.5590   -0.0614    0.8725 C   0  0  0  0  0  0  0  0  0  0  0  0
    2.9177    1.0683    0.2847 C   0  0  0  0  0  0  0  0  0  0  0  0
    1.9065   -1.2442    0.1796 C   0  0  0  0  0  0  0  0  0  0  0  0
    4.0811    1.0771    1.0319 C   0  0  0  0  0  0  0  0  0  0  0  0
    2.6808   -2.1562    0.8744 C   0  0  0  0  0  0  0  0  0  0  0  0
    2.7689    1.8576   -0.8408 C   0  0  0  0  0  0  0  0  0  0  0  0
    1.2496   -1.5899   -0.9880 C   0  0  0  0  0  0  0  0  0  0  0  0
    5.1330    1.9050    0.6399 C   0  0  0  0  0  0  0  0  0  0  0  0
    2.8027   -3.4569    0.3854 C   0  0  0  0  0  0  0  0  0  0  0  0
    3.8211    2.6854   -1.2327 C   0  0  0  0  0  0  0  0  0  0  0  0
    1.3713   -2.8906   -1.4768 C   0  0  0  0  0  0  0  0  0  0  0  0
    5.0030    2.7090   -0.4923 C   0  0  0  0  0  0  0  0  0  0  0  0
    2.1478   -3.8241   -0.7901 C   0  0  0  0  0  0  0  0  0  0  0  0
  1  7  1  0
  1  8  1  0
  2 10  1  0
  2 11  1  0
  3  4  1  0
  3  5  1  0
  3  6  1  0
  4  9  1  0
  5  7  1  0
  6  8  1  0
  9 11  1  0
 10 12  1  0
 10 13  1  0
 12 14  2  0
 12 16  1  0
 13 15  2  0
 13 17  1  0
 14 18  1  0
 15 19  1  0
 16 20  2  0
 17 21  2  0
 18 22  2  0
 19 23  2  0
 20 22  1  0
 21 23  1  0
M  END
>  <PUBCHEM_COMPOUND_CID>  (1) 
45388

>  <PUBCHEM_CONFORMER_RMSD>  (1) 
0.8

>  <PUBCHEM_CONFORMER_DIVERSEORDER>  (1) 
1
27
12
3
30
39
41
19
28
20
17
34
46
47
8
42
15
44
21
23
24
40
4
11
16
32
25
36
48
38
7
26
18
6
43
45
9
35
37
5
29
31
13
2
33
14
10
22

>  <PUBCHEM_MMFF94_PARTIAL_CHARGES>  (1) 
34
1 -0.56
10 0.57
11 0.28
12 -0.14
13 -0.14
14 -0.15
15 -0.15
16 -0.15
17 -0.15
18 -0.15
19 -0.15
2 -0.56
20 -0.15
21 -0.15
22 -0.15
23 -0.15
3 -0.54
32 0.36
38 0.15
39 0.15
4 -0.63
40 0.15
41 0.15
42 0.15
43 0.15
44 0.15
45 0.15
46 0.15
47 0.15
5 0.27
6 0.27
7 0.28
8 0.28
9 0.27

>  <PUBCHEM_EFFECTIVE_ROTOR_COUNT>  (1) 
8.2

>  <PUBCHEM_PHARMACOPHORE_FEATURES>  (1) 
6
1 1 acceptor
1 2 acceptor
1 4 donor
6 1 3 5 6 7 8 rings
6 12 14 16 18 20 22 rings
6 13 15 17 19 21 23 rings

>  <PUBCHEM_HEAVY_ATOM_COUNT>  (1) 
23

>  <PUBCHEM_ATOM_DEF_STEREO_COUNT>  (1) 
0

>  <PUBCHEM_ATOM_UDEF_STEREO_COUNT>  (1) 
0

>  <PUBCHEM_BOND_DEF_STEREO_COUNT>  (1) 
0

>  <PUBCHEM_BOND_UDEF_STEREO_COUNT>  (1) 
0

>  <PUBCHEM_ISOTOPIC_ATOM_COUNT>  (1) 
0

>  <PUBCHEM_COMPONENT_COUNT>  (1) 
1

>  <PUBCHEM_CACTVS_TAUTO_COUNT>  (1) 
1

>  <PUBCHEM_CONFORMER_ID>  (1) 
0000B14C00000001

>  <PUBCHEM_MMFF94_ENERGY>  (1) 
63.6304

>  <PUBCHEM_FEATURE_SELFOVERLAP>  (1) 
30.447

>  <PUBCHEM_SHAPE_FINGERPRINT>  (1) 
10764073 3 17240469317965162450
11069576 57 18059572421567063103
11719270 70 18411132550338999962
11823591 26 18340763866597131648
12730499 353 18410581703408194339
12788726 201 16845302601163806033
12977781 61 17749973131719713922
13150687 139 18059868302702685868
13533116 47 18130503046947273043
13540713 5 17773049557061341713
13631057 29 17984977357294409631
13836976 161 18342738511975845342
13955234 65 18411982429687940778
13968360 50 18412823599349282034
14863182 85 17059767811328536206
15537594 2 17561361808037604847
15842332 3 17487636138284327049
15849732 13 18260828229276498644
15961568 22 17749391481294179477
17844677 252 18261958419565506689
17980427 23 17314795319711257134
18335252 98 18335704992692571331
1979834 28 18260831518050615277
20157964 124 18407757028309289609
20369508 70 17970064452672914875
20554085 129 17917700353945854672
20645477 70 18339361868706658667
21049683 118 17913463987088475162
21054139 6 17987225810726710431
21304303 94 17418105307945859430
21344244 246 17987252062337399094
220451 1 17703790324054764835
23081809 10 17846214420350390313
23559900 14 18261959544087439259
239999 70 18260265209469503451
312423 11 18057896753330338361
34797466 226 18186799163529043217
46194498 28 18335698278629741007
5281201 14 18261675853397915277
59755656 215 18261112950573096020
6025842 7 18412544297161825463
81539 233 18410015459494490138
8272917 22 18408886226545280850
9841814 1 18116435830351225114

>  <PUBCHEM_SHAPE_MULTIPOLES>  (1) 
451.63
14.57
3.81
1.32
29.06
3.6
-0.24
-9.58
-0.31
-7.8
-1.36
0.28
0.06
0.24

>  <PUBCHEM_SHAPE_SELFOVERLAP>  (1) 
950.284

>  <PUBCHEM_SHAPE_VOLUME>  (1) 
253.2

>  <PUBCHEM_COORDINATE_TYPE>  (1) 
2
5
10

$$$$
