45404
     RDKit          3D

 21 22  0  0  0  0  0  0  0  0999 V2000
    3.5074   -0.5367   -0.7811 O   0  0  0  0  0  0  0  0  0  0  0  0
   -3.5074   -0.5428    0.7821 O   0  0  0  0  0  0  0  0  0  0  0  0
   -0.0018    0.2634    0.0017 N   0  0  0  0  0  0  0  0  0  0  0  0
    1.1650   -0.5596   -0.2796 C   0  0  0  0  0  0  0  0  0  0  0  0
   -1.1686   -0.5633    0.2814 C   0  0  0  0  0  0  0  0  0  0  0  0
    2.3877    0.3093   -0.5275 C   0  0  0  0  0  0  0  0  0  0  0  0
   -2.3927    0.3030    0.5313 C   0  0  0  0  0  0  0  0  0  0  0  0
    4.7352   -0.0595   -0.4330 C   0  0  0  0  0  0  0  0  0  0  0  0
   -4.7409   -0.0595    0.4314 C   0  0  0  0  0  0  0  0  0  0  0  0
    5.5271   -0.7363    0.4947 C   0  0  0  0  0  0  0  0  0  0  0  0
   -5.5254   -0.7351   -0.4974 C   0  0  0  0  0  0  0  0  0  0  0  0
    5.1982    1.1202   -1.0161 C   0  0  0  0  0  0  0  0  0  0  0  0
   -5.1956    1.1165    1.0191 C   0  0  0  0  0  0  0  0  0  0  0  0
    6.7817   -0.2335    0.8392 C   0  0  0  0  0  0  0  0  0  0  0  0
   -6.7787   -0.2290   -0.8425 C   0  0  0  0  0  0  0  0  0  0  0  0
    5.0479   -2.0002    1.1289 C   0  0  0  0  0  0  0  0  0  0  0  0
   -5.0477   -1.9981   -1.1345 C   0  0  0  0  0  0  0  0  0  0  0  0
    6.4529    1.6229   -0.6717 C   0  0  0  0  0  0  0  0  0  0  0  0
   -6.4488    1.6225    0.6742 C   0  0  0  0  0  0  0  0  0  0  0  0
    7.2447    0.9461    0.2560 C   0  0  0  0  0  0  0  0  0  0  0  0
   -7.2403    0.9498   -0.2566 C   0  0  0  0  0  0  0  0  0  0  0  0
  1  6  1  0
  1  8  1  0
  2  7  1  0
  2  9  1  0
  3  4  1  0
  3  5  1  0
  4  6  1  0
  5  7  1  0
  8 10  2  0
  8 12  1  0
  9 11  2  0
  9 13  1  0
 10 14  1  0
 10 16  1  0
 11 15  1  0
 11 17  1  0
 12 18  2  0
 13 19  2  0
 14 20  2  0
 15 21  2  0
 18 20  1  0
 19 21  1  0
M  END
>  <PUBCHEM_COMPOUND_CID>  (1) 
45404

>  <PUBCHEM_CONFORMER_RMSD>  (1) 
1

>  <PUBCHEM_CONFORMER_DIVERSEORDER>  (1) 
1
50
55
98
170
11
173
12
167
3
154
37
134
118
128
103
91
193
135
187
192
158
199
174
21
125
119
149
189
67
99
195
74
6
82
102
53
117
14
208
211
142
157
152
124
73
4
166
137
188
88
210
75
20
172
179
58
26
202
198
186
43
56
168
76
129
8
45
19
162
39
83
97
113
176
122
79
140
115
24
101
104
25
85
123
7
205
61
81
156
145
165
9
164
27
59
190
23
121
34
120
10
150
201
15
38
209
93
2
77
131
64
47
92
182
204
207
184
132
130
147
136
116
100
28
70
126
181
71
107
41
44
206
151
177
180
114
95
175
111
200
169
112
171
30
161
143
87
13
33
5
66
60
57
63
141
153
127
183
48
35
185
138
110
36
196
194
90
89
106
191
178
160
54
146
51
17
159
212
139
133
108
94
68
203
22
197
32
42
62
155
49
65
78
144
29
31
163
105
84
80
86
69
16
72
46
148
40
18
109
52
96

>  <PUBCHEM_MMFF94_PARTIAL_CHARGES>  (1) 
30
1 -0.36
10 -0.14
11 -0.14
12 -0.15
13 -0.15
14 -0.15
15 -0.15
16 0.14
17 0.14
18 -0.15
19 -0.15
2 -0.36
20 -0.15
21 -0.15
26 0.36
3 -0.9
31 0.15
32 0.15
33 0.15
34 0.15
4 0.27
41 0.15
42 0.15
43 0.15
44 0.15
5 0.27
6 0.28
7 0.28
8 0.08
9 0.08

>  <PUBCHEM_EFFECTIVE_ROTOR_COUNT>  (1) 
8

>  <PUBCHEM_PHARMACOPHORE_FEATURES>  (1) 
6
1 1 acceptor
1 2 acceptor
1 3 cation
1 3 donor
6 8 10 12 14 18 20 rings
6 9 11 13 15 19 21 rings

>  <PUBCHEM_HEAVY_ATOM_COUNT>  (1) 
21

>  <PUBCHEM_ATOM_DEF_STEREO_COUNT>  (1) 
0

>  <PUBCHEM_ATOM_UDEF_STEREO_COUNT>  (1) 
0

>  <PUBCHEM_BOND_DEF_STEREO_COUNT>  (1) 
0

>  <PUBCHEM_BOND_UDEF_STEREO_COUNT>  (1) 
0

>  <PUBCHEM_ISOTOPIC_ATOM_COUNT>  (1) 
0

>  <PUBCHEM_COMPONENT_COUNT>  (1) 
1

>  <PUBCHEM_CACTVS_TAUTO_COUNT>  (1) 
1

>  <PUBCHEM_CONFORMER_ID>  (1) 
0000B15C00000001

>  <PUBCHEM_MMFF94_ENERGY>  (1) 
59.3476

>  <PUBCHEM_FEATURE_SELFOVERLAP>  (1) 
30.446

>  <PUBCHEM_SHAPE_FINGERPRINT>  (1) 
10087517 78 18409451345790307957
11315181 36 16343986914836348939
11719270 70 17703790288941393614
12091667 2 18342461456778854267
12236239 1 18410573985151775950
125118 31 17968099707172511572
12616971 3 14779556728449674894
12730499 353 14333134074829900996
13167372 99 18333735680418261188
13533116 47 18113898222397509890
14251764 18 18410575093311211277
15183329 4 18201723950705846953
15348495 7 15575291998058859008
16126227 98 17415294836784552753
17093844 174 17240765095340911913
20157964 124 18186803569912385386
20281389 69 17967253079108467493
21095086 128 10231755587028630093
21150785 3 16988843882492572605
23035841 295 8070026662257997345
23081809 10 18410012139062848579
23424782 7 14117508870132357285
23559900 14 17561356301889538179
397830 11 15575577892557027688
4073 2 17749961071493445226
4325135 7 18202283610587582604
44555599 121 18408612465088020229

>  <PUBCHEM_SHAPE_MULTIPOLES>  (1) 
415.45
26.5
1.6
1.08
0.07
0.24
0
-5.45
0.01
0
0
-0.01
0.1
-2.49

>  <PUBCHEM_SHAPE_SELFOVERLAP>  (1) 
859.458

>  <PUBCHEM_SHAPE_VOLUME>  (1) 
239.3

>  <PUBCHEM_COORDINATE_TYPE>  (1) 
2
5
10

$$$$
