4541
     RDKit          3D

 21 22  0  0  1  0  0  0  0  0999 V2000
   -5.5884    0.6193    0.2088 F   0  0  0  0  0  0  0  0  0  0  0  0
   -4.9635   -0.1712   -1.7117 F   0  0  0  0  0  0  0  0  0  0  0  0
   -5.2208   -1.5118   -0.0190 F   0  0  0  0  0  0  0  0  0  0  0  0
    0.6617    0.4344    1.0914 O   0  0  0  0  0  0  0  0  0  0  0  0
    3.7297    3.8134   -0.5912 N   0  0  0  0  0  0  0  0  0  0  0  0
    1.5796    0.7026    0.0293 C   0  0  0  0  0  0  0  0  0  0  0  0
    2.2018    2.0912    0.2484 C   0  0  0  0  0  0  0  0  0  0  0  0
    2.5872   -0.4225   -0.0110 C   0  0  0  0  0  0  0  0  0  0  0  0
    3.1661    2.4963   -0.8668 C   0  0  0  0  0  0  0  0  0  0  0  0
   -0.6472    0.2601    0.7376 C   0  0  0  0  0  0  0  0  0  0  0  0
    3.1481   -0.7870   -1.2241 C   0  0  0  0  0  0  0  0  0  0  0  0
    2.9311   -1.0673    1.1658 C   0  0  0  0  0  0  0  0  0  0  0  0
   -1.6214    1.1102    1.2529 C   0  0  0  0  0  0  0  0  0  0  0  0
   -0.9971   -0.7657   -0.1358 C   0  0  0  0  0  0  0  0  0  0  0  0
    4.0787   -1.8253   -1.2616 C   0  0  0  0  0  0  0  0  0  0  0  0
    3.8618   -2.1058    1.1283 C   0  0  0  0  0  0  0  0  0  0  0  0
   -3.3127   -0.0935    0.0173 C   0  0  0  0  0  0  0  0  0  0  0  0
   -2.9570    0.9330    0.8921 C   0  0  0  0  0  0  0  0  0  0  0  0
   -2.3328   -0.9428   -0.4967 C   0  0  0  0  0  0  0  0  0  0  0  0
    4.4355   -2.4847   -0.0854 C   0  0  0  0  0  0  0  0  0  0  0  0
   -4.7405   -0.2829   -0.3687 C   0  0  0  0  0  0  0  0  0  0  0  0
  1 21  1  0
  2 21  1  0
  3 21  1  0
  4  6  1  0
  4 10  1  0
  5  9  1  0
  6  7  1  0
  6  8  1  0
  7  9  1  0
  8 11  2  0
  8 12  1  0
 10 13  2  0
 10 14  1  0
 11 15  1  0
 12 16  2  0
 13 18  1  0
 14 19  2  0
 15 20  2  0
 16 20  1  0
 17 18  2  0
 17 19  1  0
 17 21  1  0
M  END
>  <PUBCHEM_COMPOUND_CID>  (1) 
4541

>  <PUBCHEM_CONFORMER_RMSD>  (1) 
0.8

>  <PUBCHEM_CONFORMER_DIVERSEORDER>  (1) 
1
28
33
24
35
40
18
36
29
32
30
11
25
3
16
27
26
20
42
5
23
39
13
41
2
22
14
15
19
9
17
31
21
34
10
4
7
38
8
12
6
37

>  <PUBCHEM_MMFF94_PARTIAL_CHARGES>  (1) 
31
1 -0.34
10 0.08
11 -0.15
12 -0.15
13 -0.15
14 -0.15
15 -0.15
16 -0.15
17 -0.14
18 -0.15
19 -0.15
2 -0.34
20 -0.15
21 1.16
27 0.15
28 0.15
29 0.15
3 -0.34
30 0.15
31 0.15
32 0.15
33 0.36
34 0.36
35 0.15
36 0.15
37 0.15
4 -0.36
5 -0.99
6 0.42
8 -0.14
9 0.27

>  <PUBCHEM_EFFECTIVE_ROTOR_COUNT>  (1) 
6

>  <PUBCHEM_PHARMACOPHORE_FEATURES>  (1) 
5
1 4 acceptor
1 5 cation
1 5 donor
6 10 13 14 17 18 19 rings
6 8 11 12 15 16 20 rings

>  <PUBCHEM_HEAVY_ATOM_COUNT>  (1) 
21

>  <PUBCHEM_ATOM_DEF_STEREO_COUNT>  (1) 
0

>  <PUBCHEM_ATOM_UDEF_STEREO_COUNT>  (1) 
1

>  <PUBCHEM_BOND_DEF_STEREO_COUNT>  (1) 
0

>  <PUBCHEM_BOND_UDEF_STEREO_COUNT>  (1) 
0

>  <PUBCHEM_ISOTOPIC_ATOM_COUNT>  (1) 
0

>  <PUBCHEM_COMPONENT_COUNT>  (1) 
1

>  <PUBCHEM_CACTVS_TAUTO_COUNT>  (1) 
1

>  <PUBCHEM_CONFORMER_ID>  (1) 
000011BD00000001

>  <PUBCHEM_MMFF94_ENERGY>  (1) 
51.4496

>  <PUBCHEM_FEATURE_SELFOVERLAP>  (1) 
25.372

>  <PUBCHEM_SHAPE_FINGERPRINT>  (1) 
10759866 29 18270119165884622726
12553582 1 18191318082861861634
12616971 3 18272653437793044833
12730499 353 18189909792696489600
12788726 201 17489322892359143769
12916754 54 18409731751213945817
13009979 54 17916882209445898376
13533116 47 18341895229517316867
14178000 29 18270689641243297078
15163728 17 17389400504209300596
15238133 3 14346061019372351629
15342816 4 18268154154582024198
15842332 3 17916047718527520648
17349148 13 17847059956732897159
17818456 19 17772483291156187232
17844677 252 18334297557099083985
1813 80 18268151964100892638
18186145 218 18114178644721818499
18222031 100 18270402677224678358
18335252 98 18118125995051664963
193927 3 18202290173366474675
20369508 70 18187361004864048114
20388580 30 18341333310377158642
20554085 129 17914608596063691784
20626108 58 18269270175863333898
20645477 70 18410295838853704578
21304303 282 17047648217163203980
2255824 54 18409172117070222634
23559900 14 18343297080677607122
23598291 2 18270696280730220696
25147074 1 18059029314341547880
29717793 49 18343012282013069485
3004659 81 18273497857689783191
312423 11 18272381866415125473
3472631 163 11603408437344402426
474 4 18117281561120303856
495365 180 17603586352599097144
5104073 3 18131354124676355963
5281201 14 18260263044990608973
59755656 215 18336549412911257900
6025842 7 18337953501643124084
633830 44 18334289873407612963
67856867 119 18342171219720986096
7164475 11 18202004287379411929
7364860 26 18342461469663951096
7471813 234 18338801109455583336
7970288 3 18194683670622517038
90127 26 17894629258405152929
960060 61 17676776383368476270
9841814 1 18187919561187024448
9971528 1 18271239435516562522
9981440 41 17905324383944148792

>  <PUBCHEM_SHAPE_MULTIPOLES>  (1) 
399.5
11.37
2.83
1.25
11.91
2.43
0.06
-3.95
2.49
-5.32
0.47
-0.3
-0.15
-1.13

>  <PUBCHEM_SHAPE_SELFOVERLAP>  (1) 
848.083

>  <PUBCHEM_SHAPE_VOLUME>  (1) 
224.2

>  <PUBCHEM_COORDINATE_TYPE>  (1) 
2
5
10

$$$$
