45414
     RDKit          3D

  8  8  0  0  0  0  0  0  0  0999 V2000
    3.0079   -0.1095   -0.1183 O   0  0  0  0  0  0  0  0  0  0  0  0
   -0.6697    0.2599   -0.0183 N   0  0  0  0  0  0  0  0  0  0  0  0
   -0.8380    1.5518    0.5972 C   0  0  0  0  0  0  0  0  0  0  0  0
   -1.4997    1.2067   -0.7190 C   0  0  0  0  0  0  0  0  0  0  0  0
    0.6618   -0.0115   -0.6163 C   0  0  0  0  0  0  0  0  0  0  0  0
   -1.3324   -0.8816    0.6146 C   0  0  0  0  0  0  0  0  0  0  0  0
    1.7267    0.1138    0.4554 C   0  0  0  0  0  0  0  0  0  0  0  0
   -1.0566   -2.1296   -0.1952 C   0  0  0  0  0  0  0  0  0  0  0  0
  1  7  1  0
  2  3  1  0
  2  4  1  0
  2  5  1  0
  2  6  1  0
  3  4  1  0
  5  7  1  0
  6  8  1  0
M  CHG  1   2   1
M  END
>  <PUBCHEM_COMPOUND_CID>  (1) 
45414

>  <PUBCHEM_CONFORMER_RMSD>  (1) 
0.6

>  <PUBCHEM_CONFORMER_DIVERSEORDER>  (1) 
4
13
3
8
12
15
1
14
9
5
6
10
2
11
7

>  <PUBCHEM_MMFF94_PARTIAL_CHARGES>  (1) 
12
1 -0.68
10 0.1
11 0.1
12 0.1
2 -0.8
22 0.4
3 0.2
4 0.2
5 0.5
6 0.5
7 0.28
9 0.1

>  <PUBCHEM_EFFECTIVE_ROTOR_COUNT>  (1) 
3.6

>  <PUBCHEM_PHARMACOPHORE_FEATURES>  (1) 
3
1 1 acceptor
1 1 donor
1 2 cation

>  <PUBCHEM_HEAVY_ATOM_COUNT>  (1) 
8

>  <PUBCHEM_ATOM_DEF_STEREO_COUNT>  (1) 
0

>  <PUBCHEM_ATOM_UDEF_STEREO_COUNT>  (1) 
0

>  <PUBCHEM_BOND_DEF_STEREO_COUNT>  (1) 
0

>  <PUBCHEM_BOND_UDEF_STEREO_COUNT>  (1) 
0

>  <PUBCHEM_ISOTOPIC_ATOM_COUNT>  (1) 
0

>  <PUBCHEM_COMPONENT_COUNT>  (1) 
1

>  <PUBCHEM_CACTVS_TAUTO_COUNT>  (1) 
1

>  <PUBCHEM_CONFORMER_ID>  (1) 
0000B16600000004

>  <PUBCHEM_MMFF94_ENERGY>  (1) 
25.1963

>  <PUBCHEM_FEATURE_SELFOVERLAP>  (1) 
15.223

>  <PUBCHEM_SHAPE_FINGERPRINT>  (1) 
137420 1 13573824619751172705
16714656 1 18408889546344017003
18185500 45 17903926895494950914
21040471 1 18264769848494530004
23552423 10 18042686285401690180
23552449 1 18340482365344033152
29004967 10 17539689518319353947
5943 1 13577323622333521725

>  <PUBCHEM_SHAPE_MULTIPOLES>  (1) 
153.79
2.74
1.83
0.85
2.8
0.56
0.01
0.15
0.03
-1.26
0
-0.14
-0.1
0.13

>  <PUBCHEM_SHAPE_SELFOVERLAP>  (1) 
287.434

>  <PUBCHEM_SHAPE_VOLUME>  (1) 
99.2

>  <PUBCHEM_COORDINATE_TYPE>  (1) 
2
5
10

$$$$
