45425
     RDKit          3D

 24 26  0  0  1  0  0  0  0  0999 V2000
   -1.1145    0.2893   -0.4290 O   0  0  0  0  0  0  0  0  0  0  0  0
    0.1344    1.1090    1.3331 O   0  0  0  0  0  0  0  0  0  0  0  0
   -4.7547    0.4591    0.1826 N   0  0  0  0  0  0  0  0  0  0  0  0
    1.2104    0.2856   -0.6526 C   0  0  0  0  0  0  0  0  0  0  0  0
    1.7594   -1.1035   -0.3773 C   0  0  0  0  0  0  0  0  0  0  0  0
    2.4172    1.1587   -0.3569 C   0  0  0  0  0  0  0  0  0  0  0  0
   -3.5280    0.1402   -0.5461 C   0  0  0  0  0  0  0  0  0  0  0  0
    3.1108   -1.0270    0.0300 C   0  0  0  0  0  0  0  0  0  0  0  0
    3.5149    0.3628    0.0424 C   0  0  0  0  0  0  0  0  0  0  0  0
   -2.3201    0.5560    0.2944 C   0  0  0  0  0  0  0  0  0  0  0  0
    0.0407    0.6179    0.2164 C   0  0  0  0  0  0  0  0  0  0  0  0
   -4.8270   -0.3106    1.4241 C   0  0  0  0  0  0  0  0  0  0  0  0
   -5.9278    0.1960   -0.6504 C   0  0  0  0  0  0  0  0  0  0  0  0
    1.1027   -2.3197   -0.4695 C   0  0  0  0  0  0  0  0  0  0  0  0
    2.5153    2.5387   -0.4255 C   0  0  0  0  0  0  0  0  0  0  0  0
   -3.4945   -1.3489   -0.8911 C   0  0  0  0  0  0  0  0  0  0  0  0
    3.8190   -2.1760    0.3412 C   0  0  0  0  0  0  0  0  0  0  0  0
    4.7276    0.9476    0.3684 C   0  0  0  0  0  0  0  0  0  0  0  0
    1.8171   -3.4775   -0.1558 C   0  0  0  0  0  0  0  0  0  0  0  0
    3.7377    3.1273   -0.0971 C   0  0  0  0  0  0  0  0  0  0  0  0
    3.1620   -3.4063    0.2447 C   0  0  0  0  0  0  0  0  0  0  0  0
    4.8331    2.3396    0.2950 C   0  0  0  0  0  0  0  0  0  0  0  0
   -6.0658    0.0539    2.2248 C   0  0  0  0  0  0  0  0  0  0  0  0
   -5.8699    0.9878   -1.9458 C   0  0  0  0  0  0  0  0  0  0  0  0
  1 10  1  0
  1 11  1  0
  2 11  2  0
  3  7  1  0
  3 12  1  0
  3 13  1  0
  4  5  1  0
  4  6  1  0
  4 11  1  0
  5  8  2  0
  5 14  1  0
  6  9  2  0
  6 15  1  0
  7 10  1  0
  7 16  1  0
  8  9  1  0
  8 17  1  0
  9 18  1  0
 12 23  1  0
 13 24  1  0
 14 19  2  0
 15 20  2  0
 17 21  2  0
 18 22  2  0
 19 21  1  0
 20 22  1  0
M  END
>  <PUBCHEM_COMPOUND_CID>  (1) 
45425

>  <PUBCHEM_CONFORMER_RMSD>  (1) 
0.8

>  <PUBCHEM_CONFORMER_DIVERSEORDER>  (1) 
1
149
173
74
174
154
73
178
193
45
57
137
80
111
99
6
91
171
33
124
131
161
68
157
115
126
166
21
87
30
122
62
17
86
3
187
88
148
82
159
179
113
94
144
13
38
90
55
181
72
109
106
135
41
184
7
42
102
50
188
180
121
143
189
35
67
16
14
51
152
44
64
95
140
119
89
142
18
58
85
127
4
192
123
117
108
26
146
52
175
160
164
130
169
182
177
5
96
23
185
70
49
65
63
53
12
19
75
79
105
112
10
190
118
59
34
11
168
77
129
116
93
43
60
186
104
83
136
2
151
61
25
101
27
81
69
31
29
66
125
141
170
71
15
8
48
165
98
167
145
47
22
97
56
54
163
107
153
155
158
100
162
32
84
132
147
36
20
40
172
156
78
114
46
28
24
139
92
176
134
39
150
9
191
183
76
128
120
37
110
133
103
138

>  <PUBCHEM_MMFF94_PARTIAL_CHARGES>  (1) 
27
1 -0.43
10 0.28
11 0.66
12 0.27
13 0.27
14 -0.15
15 -0.15
17 -0.15
18 -0.15
19 -0.15
2 -0.57
20 -0.15
21 -0.15
22 -0.15
3 -0.81
36 0.15
37 0.15
38 0.15
39 0.15
4 0.35
40 0.15
41 0.15
42 0.15
43 0.15
5 -0.14
6 -0.14
7 0.27

>  <PUBCHEM_EFFECTIVE_ROTOR_COUNT>  (1) 
7.2

>  <PUBCHEM_PHARMACOPHORE_FEATURES>  (1) 
5
1 2 acceptor
1 3 cation
5 4 5 6 8 9 rings
6 5 8 14 17 19 21 rings
6 6 9 15 18 20 22 rings

>  <PUBCHEM_HEAVY_ATOM_COUNT>  (1) 
24

>  <PUBCHEM_ATOM_DEF_STEREO_COUNT>  (1) 
0

>  <PUBCHEM_ATOM_UDEF_STEREO_COUNT>  (1) 
1

>  <PUBCHEM_BOND_DEF_STEREO_COUNT>  (1) 
0

>  <PUBCHEM_BOND_UDEF_STEREO_COUNT>  (1) 
0

>  <PUBCHEM_ISOTOPIC_ATOM_COUNT>  (1) 
0

>  <PUBCHEM_COMPONENT_COUNT>  (1) 
1

>  <PUBCHEM_CACTVS_TAUTO_COUNT>  (1) 
1

>  <PUBCHEM_CONFORMER_ID>  (1) 
0000B17100000001

>  <PUBCHEM_MMFF94_ENERGY>  (1) 
68.096

>  <PUBCHEM_FEATURE_SELFOVERLAP>  (1) 
25.534

>  <PUBCHEM_SHAPE_FINGERPRINT>  (1) 
10090160 65 18412259571090063600
10411042 1 17978506434965004182
10693767 8 18130792201452590870
10835480 77 18335130978444602637
10912923 1 17846779603248799425
1100329 8 18340762758764289458
12107183 9 17838341778971012089
12236239 1 17632300085567876429
12596602 18 17846232072238956171
12616971 3 18059299773328004283
12730499 353 18335431191814518560
12788726 201 16988015903213595225
13009979 54 17629488488944965226
13140716 1 18193828461582340632
13533116 47 18271801303185691347
13631057 29 17913482721773450959
13955234 65 18410576180323013994
146900 427 18202570604565561873
14790565 3 18049161361070823356
15238133 3 16702026327232383515
15250474 111 18201707479912773759
17138139 8 17557398166866287231
17844677 252 18339083683896410205
17913733 40 18339932626535714312
19319366 153 18272645779212624726
19377110 9 18060423508502719441
19427546 62 18335982090079131798
1979834 28 18187372068235916981
20157964 124 18410004434392556453
20511986 3 17917131863020423117
20645477 70 18335695014449483279
21033650 10 15338851862982652379
21049683 118 17909520064723728128
21054139 6 18127962207923111463
21065201 7 16660364749598264365
21197605 99 18191879031018307419
21421861 104 18129114341479414362
21623969 137 18335148621858713003
23557571 272 17167863045843870693
23559900 14 18409444765419758538
23845131 108 18263917916352331706
239999 70 17821452356644143370
3178227 256 18335991926208354584
335352 9 18411698816729801916
33824 294 18409449185289129178
341906 21 15769497517735049723
3421961 26 18336827472987729570
34797466 226 14189286119096910547
4073 2 18187366571284153555
42630746 31 18413386545039111876
4340502 62 18339647835881212754
465052 167 17749103392721265176
474 4 18411699928282442216
5104073 3 18263085431446970969
59755656 215 18407758127784215460
6025842 7 18411132537221976478
8272917 22 18412263930602902710

>  <PUBCHEM_SHAPE_MULTIPOLES>  (1) 
477.19
13.77
3.41
1.27
21.82
1.81
0.3
-4.06
1.32
-6.77
-0.19
2.82
-0.17
0.35

>  <PUBCHEM_SHAPE_SELFOVERLAP>  (1) 
1021.743

>  <PUBCHEM_SHAPE_VOLUME>  (1) 
268

>  <PUBCHEM_COORDINATE_TYPE>  (1) 
2
5
10

$$$$
