45426
     RDKit          3D

 21 22  0  0  1  0  0  0  0  0999 V2000
    6.0075   -2.4789   -0.4757 Cl  0  0  0  0  0  0  0  0  0  0  0  0
   -0.4577   -0.8577   -0.0148 N   0  0  0  0  0  0  0  0  0  0  0  0
   -4.1421   -0.7094    0.2872 N   0  0  0  0  0  0  0  0  0  0  0  0
    0.6269   -0.0354    0.5750 C   0  0  0  0  0  0  0  0  0  0  0  0
    2.0007   -0.6606    0.3075 C   0  0  0  0  0  0  0  0  0  0  0  0
    0.5589    1.4036    0.1883 C   0  0  0  0  0  0  0  0  0  0  0  0
   -1.7464   -0.3536    0.4093 C   0  0  0  0  0  0  0  0  0  0  0  0
   -2.8666   -1.2094   -0.1677 C   0  0  0  0  0  0  0  0  0  0  0  0
    3.0049   -0.4542    1.2231 C   0  0  0  0  0  0  0  0  0  0  0  0
    2.1725   -1.4010   -0.8379 C   0  0  0  0  0  0  0  0  0  0  0  0
    1.0340    2.3833    1.0601 C   0  0  0  0  0  0  0  0  0  0  0  0
    0.0197    1.7696   -1.0450 C   0  0  0  0  0  0  0  0  0  0  0  0
    4.2553   -1.0222    0.9787 C   0  0  0  0  0  0  0  0  0  0  0  0
    3.4228   -1.9689   -1.0821 C   0  0  0  0  0  0  0  0  0  0  0  0
    0.9700    3.7291    0.6986 C   0  0  0  0  0  0  0  0  0  0  0  0
   -0.0442    3.1153   -1.4065 C   0  0  0  0  0  0  0  0  0  0  0  0
    4.4643   -1.7794   -0.1738 C   0  0  0  0  0  0  0  0  0  0  0  0
    0.4310    4.0950   -0.5346 C   0  0  0  0  0  0  0  0  0  0  0  0
   -5.3339   -1.2463   -0.0776 C   0  0  0  0  0  0  0  0  0  0  0  0
   -6.5581   -0.8312    0.2705 C   0  0  0  0  0  0  0  0  0  0  0  0
   -7.8195   -1.4879   -0.1827 C   0  0  0  0  0  0  0  0  0  0  0  0
  1 17  1  0
  2  4  1  0
  2  7  1  0
  3  8  1  0
  3 19  1  0
  4  5  1  0
  4  6  1  0
  5  9  2  0
  5 10  1  0
  6 11  2  0
  6 12  1  0
  7  8  1  0
  9 13  1  0
 10 14  2  0
 11 15  1  0
 12 16  2  0
 13 17  2  0
 14 17  1  0
 15 18  2  0
 16 18  1  0
 19 20  2  0
 20 21  1  0
M  END
>  <PUBCHEM_COMPOUND_CID>  (1) 
45426

>  <PUBCHEM_CONFORMER_RMSD>  (1) 
0.8

>  <PUBCHEM_CONFORMER_DIVERSEORDER>  (1) 
1
32
27
42
5
34
30
16
11
12
26
17
41
40
43
37
39
15
14
6
36
25
33
7
44
23
10
21
19
29
13
28
24
18
38
31
3
8
2
35
22
9
4
20

>  <PUBCHEM_MMFF94_PARTIAL_CHARGES>  (1) 
34
1 -0.18
10 -0.15
11 -0.15
12 -0.15
13 -0.15
14 -0.15
15 -0.15
16 -0.15
17 0.18
18 -0.15
19 -0.05
2 -0.9
20 -0.29
21 0.14
23 0.36
28 0.15
29 0.15
3 -0.87
30 0.15
31 0.15
32 0.15
33 0.15
34 0.15
35 0.15
36 0.4
37 0.15
38 0.15
39 0.15
4 0.56
5 -0.14
6 -0.14
7 0.27
8 0.37
9 -0.15

>  <PUBCHEM_EFFECTIVE_ROTOR_COUNT>  (1) 
7

>  <PUBCHEM_PHARMACOPHORE_FEATURES>  (1) 
7
1 2 cation
1 2 donor
1 21 hydrophobe
1 3 cation
1 3 donor
6 5 9 10 13 14 17 rings
6 6 11 12 15 16 18 rings

>  <PUBCHEM_HEAVY_ATOM_COUNT>  (1) 
21

>  <PUBCHEM_ATOM_DEF_STEREO_COUNT>  (1) 
0

>  <PUBCHEM_ATOM_UDEF_STEREO_COUNT>  (1) 
0

>  <PUBCHEM_BOND_DEF_STEREO_COUNT>  (1) 
0

>  <PUBCHEM_BOND_UDEF_STEREO_COUNT>  (1) 
1

>  <PUBCHEM_ISOTOPIC_ATOM_COUNT>  (1) 
0

>  <PUBCHEM_COMPONENT_COUNT>  (1) 
1

>  <PUBCHEM_CACTVS_TAUTO_COUNT>  (1) 
2

>  <PUBCHEM_CONFORMER_ID>  (1) 
0000B17200000001

>  <PUBCHEM_MMFF94_ENERGY>  (1) 
49.0414

>  <PUBCHEM_FEATURE_SELFOVERLAP>  (1) 
35.52

>  <PUBCHEM_SHAPE_FINGERPRINT>  (1) 
10411042 1 18410856529611941794
12516196 113 18410292501601104403
12617007 42 18334577970601492761
12623949 98 17202779085282170366
12788726 201 18115305549635749818
13533116 47 18340206418754961225
13590594 115 18335994082092747777
13631057 29 18263084310814037858
14170010 4 18340203102544401601
14347329 18 15937509496140429143
14347332 77 18120093884468459970
15420108 30 17694765716712530600
17357779 13 18268692957522172596
17492 89 18195528327770734519
17844677 252 18336549408985126939
1813 80 18411707564465230271
18222031 100 18410577279407600931
20238998 120 18413388717924065080
20286276 3 18048039863664052347
20771845 65 18202286917791567641
21049683 271 18334864960538134708
21285901 2 18271534078626223902
21304303 172 18200039438936657865
23419403 2 17971723749274541780
23557571 272 18267024964634936630
23559900 14 18264207075389350019
23845131 108 17190104821238137777
283562 15 18190184477704711618
3411729 13 18118960532239243840
5219985 9 18410296882625800458
57262259 84 18267023847653302252
57307002 103 18120948458437480747
621550 34 18201990015993942762
6442390 28 17189266993578147728
70251023 43 18337393738940883378
77188 2 18412546500733710720
81228 2 18119544145443388744
8863177 126 17678473059292449387
9841814 1 18114730633655028297
9971528 1 18342173392900312027
9981440 41 13916877805331983894

>  <PUBCHEM_SHAPE_MULTIPOLES>  (1) 
424.08
13.55
4.28
1.12
26.89
6.33
0.07
-18.08
0.15
-2.6
0.87
-0.78
0.39
0.79

>  <PUBCHEM_SHAPE_SELFOVERLAP>  (1) 
873.544

>  <PUBCHEM_SHAPE_VOLUME>  (1) 
243.1

>  <PUBCHEM_COORDINATE_TYPE>  (1) 
2
5
10

$$$$
