45438
     RDKit          3D

 22 24  0  0  0  0  0  0  0  0999 V2000
    4.0320    2.2788   -2.0413 Cl  0  0  0  0  0  0  0  0  0  0  0  0
   -0.3239   -0.1150   -0.6337 N   0  0  0  0  0  0  0  0  0  0  0  0
   -1.4264    1.4046    1.7192 N   0  0  0  0  0  0  0  0  0  0  0  0
    1.5586   -2.8772    0.5391 N   0  0  0  0  0  0  0  0  0  0  0  0
    0.0330   -1.2491   -1.4979 C   0  0  0  0  0  0  0  0  0  0  0  0
   -0.4445   -2.5659   -0.8864 C   0  0  0  0  0  0  0  0  0  0  0  0
    0.7675    0.7183   -0.2730 C   0  0  0  0  0  0  0  0  0  0  0  0
   -1.7073    0.1470   -0.4149 C   0  0  0  0  0  0  0  0  0  0  0  0
    0.8803    1.2471    1.0256 C   0  0  0  0  0  0  0  0  0  0  0  0
   -0.1313    0.8784    2.0686 C   0  0  0  0  0  0  0  0  0  0  0  0
    0.1010   -2.8526    0.5159 C   0  0  0  0  0  0  0  0  0  0  0  0
   -2.1950    0.9326    0.6621 C   0  0  0  0  0  0  0  0  0  0  0  0
    1.7688    1.0535   -1.2081 C   0  0  0  0  0  0  0  0  0  0  0  0
   -2.6634   -0.3274   -1.3518 C   0  0  0  0  0  0  0  0  0  0  0  0
    1.9561    2.0858    1.3615 C   0  0  0  0  0  0  0  0  0  0  0  0
   -3.5793    1.2250    0.7287 C   0  0  0  0  0  0  0  0  0  0  0  0
    2.8359    1.8872   -0.8673 C   0  0  0  0  0  0  0  0  0  0  0  0
    2.9284    2.4052    0.4178 C   0  0  0  0  0  0  0  0  0  0  0  0
   -4.0255   -0.0370   -1.2534 C   0  0  0  0  0  0  0  0  0  0  0  0
   -4.4847    0.7484   -0.2133 C   0  0  0  0  0  0  0  0  0  0  0  0
    2.0696   -3.9573   -0.3069 C   0  0  0  0  0  0  0  0  0  0  0  0
    2.0501   -3.0304    1.9096 C   0  0  0  0  0  0  0  0  0  0  0  0
  1 17  1  0
  2  5  1  0
  2  7  1  0
  2  8  1  0
  3 10  1  0
  3 12  1  0
  4 11  1  0
  4 21  1  0
  4 22  1  0
  5  6  1  0
  6 11  1  0
  7  9  2  0
  7 13  1  0
  8 12  2  0
  8 14  1  0
  9 10  1  0
  9 15  1  0
 12 16  1  0
 13 17  2  0
 14 19  2  0
 15 18  2  0
 16 20  2  0
 17 18  1  0
 19 20  1  0
M  END
>  <PUBCHEM_COMPOUND_CID>  (1) 
45438

>  <PUBCHEM_CONFORMER_RMSD>  (1) 
0.8

>  <PUBCHEM_CONFORMER_DIVERSEORDER>  (1) 
1
3
14
9
16
7
17
5
4
8
13
2
10
11
12
15
6

>  <PUBCHEM_MMFF94_PARTIAL_CHARGES>  (1) 
29
1 -0.18
10 0.51
11 0.27
12 0.1
13 -0.15
14 -0.15
15 -0.15
16 -0.15
17 0.18
18 -0.15
19 -0.15
2 -0.57
20 -0.15
21 0.27
22 0.27
3 -0.87
31 0.4
32 0.15
33 0.15
34 0.15
35 0.15
36 0.15
37 0.15
38 0.15
4 -0.81
5 0.37
7 0.1
8 0.1
9 -0.14

>  <PUBCHEM_EFFECTIVE_ROTOR_COUNT>  (1) 
4.6

>  <PUBCHEM_PHARMACOPHORE_FEATURES>  (1) 
7
1 2 cation
1 3 cation
1 3 donor
1 4 cation
6 7 9 13 15 17 18 rings
6 8 12 14 16 19 20 rings
7 2 3 7 8 9 10 12 rings

>  <PUBCHEM_HEAVY_ATOM_COUNT>  (1) 
22

>  <PUBCHEM_ATOM_DEF_STEREO_COUNT>  (1) 
0

>  <PUBCHEM_ATOM_UDEF_STEREO_COUNT>  (1) 
0

>  <PUBCHEM_BOND_DEF_STEREO_COUNT>  (1) 
0

>  <PUBCHEM_BOND_UDEF_STEREO_COUNT>  (1) 
0

>  <PUBCHEM_ISOTOPIC_ATOM_COUNT>  (1) 
0

>  <PUBCHEM_COMPONENT_COUNT>  (1) 
1

>  <PUBCHEM_CACTVS_TAUTO_COUNT>  (1) 
1

>  <PUBCHEM_CONFORMER_ID>  (1) 
0000B17E00000001

>  <PUBCHEM_MMFF94_ENERGY>  (1) 
93.3895

>  <PUBCHEM_FEATURE_SELFOVERLAP>  (1) 
35.539

>  <PUBCHEM_SHAPE_FINGERPRINT>  (1) 
107951 10 18192164899956837558
11578080 2 16666327366295146185
121448 382 18127410279019171433
12592029 89 18260548913681530576
12644460 14 18129398020533918849
12716301 132 17766259247957090731
12788726 201 17325486000401939206
13294875 104 17987497334090090312
133893 2 18262242101384929921
13681431 1 18118965776351698094
14251740 79 18124049072294755526
14840074 17 18043221632307124410
14955137 171 17984994699660193999
15463212 79 17972870642891849420
16752209 62 17758101979817789950
17980427 23 17342070638790391445
1813 80 17977377240026552099
18186145 218 17917716850361869525
19765921 60 18272094919860971997
20600515 1 17336742319136336447
20645476 183 18119813753183042764
21421861 104 17985843536027680561
21524375 3 18271529783452816221
21756936 100 16082779368809887652
22112679 90 17552376379107261694
23419403 2 17463736092533416082
23557571 272 17404861939545333772
2748010 2 15974101594714991753
35225 105 17903653113115813362
3759504 43 18118978111545336172
394222 165 18342463620941153195
484985 159 17054197840346487870
59554788 281 18199735016039303712
81228 2 17476075099862040015
90316 7 17329986893899518907
9709674 26 17129584798016018844
9981440 41 17056103388471347288

>  <PUBCHEM_SHAPE_MULTIPOLES>  (1) 
439.68
6.17
4.12
1.94
3.49
5.64
0.28
-4.75
-2.36
-4.3
0.75
-0.76
-0.33
-1.55

>  <PUBCHEM_SHAPE_SELFOVERLAP>  (1) 
926.042

>  <PUBCHEM_SHAPE_VOLUME>  (1) 
247.1

>  <PUBCHEM_COORDINATE_TYPE>  (1) 
2
5
10

$$$$
