45441
     RDKit          3D

 12 11  0  0  1  0  0  0  0  0999 V2000
   -1.6338    2.1600   -0.0894 Cl  0  0  0  0  0  0  0  0  0  0  0  0
   -2.5102   -2.0784    0.6190 Cl  0  0  0  0  0  0  0  0  0  0  0  0
   -2.7319   -0.4929   -1.7947 Cl  0  0  0  0  0  0  0  0  0  0  0  0
   -4.2735    0.2308    0.5752 Cl  0  0  0  0  0  0  0  0  0  0  0  0
    4.7078   -1.2062    0.1323 F   0  0  0  0  0  0  0  0  0  0  0  0
   -0.2875   -0.0932   -0.0024 O   0  0  0  0  0  0  0  0  0  0  0  0
    2.0996   -0.0197   -0.1766 C   0  0  0  0  0  0  0  0  0  0  0  0
    0.8567    0.6527    0.3892 C   0  0  0  0  0  0  0  0  0  0  0  0
    3.3730    0.7237    0.2211 C   0  0  0  0  0  0  0  0  0  0  0  0
   -1.5142    0.4632    0.4844 C   0  0  0  0  0  0  0  0  0  0  0  0
    4.6108    0.0587   -0.3560 C   0  0  0  0  0  0  0  0  0  0  0  0
   -2.6969   -0.3988   -0.0022 C   0  0  0  0  0  0  0  0  0  0  0  0
  1 10  1  0
  2 12  1  0
  3 12  1  0
  4 12  1  0
  5 11  1  0
  6  8  1  0
  6 10  1  0
  7  8  1  0
  7  9  1  0
  9 11  1  0
 10 12  1  0
M  END
>  <PUBCHEM_COMPOUND_CID>  (1) 
45441

>  <PUBCHEM_CONFORMER_RMSD>  (1) 
0.6

>  <PUBCHEM_CONFORMER_DIVERSEORDER>  (1) 
1
15
16
11
5
20
22
10
6
21
23
25
18
2
17
26
8
24
28
19
3
4
27
7
14
13
12
9

>  <PUBCHEM_MMFF94_PARTIAL_CHARGES>  (1) 
10
1 -0.29
10 0.57
11 0.34
12 0.87
2 -0.29
3 -0.29
4 -0.29
5 -0.34
6 -0.56
8 0.28

>  <PUBCHEM_EFFECTIVE_ROTOR_COUNT>  (1) 
6

>  <PUBCHEM_PHARMACOPHORE_FEATURES>  (1) 
1
1 6 acceptor

>  <PUBCHEM_HEAVY_ATOM_COUNT>  (1) 
12

>  <PUBCHEM_ATOM_DEF_STEREO_COUNT>  (1) 
0

>  <PUBCHEM_ATOM_UDEF_STEREO_COUNT>  (1) 
1

>  <PUBCHEM_BOND_DEF_STEREO_COUNT>  (1) 
0

>  <PUBCHEM_BOND_UDEF_STEREO_COUNT>  (1) 
0

>  <PUBCHEM_ISOTOPIC_ATOM_COUNT>  (1) 
0

>  <PUBCHEM_COMPONENT_COUNT>  (1) 
1

>  <PUBCHEM_CACTVS_TAUTO_COUNT>  (1) 
1

>  <PUBCHEM_CONFORMER_ID>  (1) 
0000B18100000001

>  <PUBCHEM_MMFF94_ENERGY>  (1) 
15.6394

>  <PUBCHEM_FEATURE_SELFOVERLAP>  (1) 
5.074

>  <PUBCHEM_SHAPE_FINGERPRINT>  (1) 
10680689 15 17846500335574224524
12932764 1 17917701401326997880
14123260 362 13262673690925934150
14577589 140 17775007916425052703
17834074 16 18411142411658095522
18186145 218 17822566209273384432
200 152 17489583472061216517
20279233 1 16415488150656691117
20281475 54 18339644546052341064
20828058 44 16415479363432996398
21061003 4 18266184005616578233
21339142 126 18201435857384980029
22485316 2 17489585675590344936
23402539 116 18412258428960981493
23557571 272 18200887179697820596
23559900 14 18410008879889624368
58051976 100 18412548704088129404

>  <PUBCHEM_SHAPE_MULTIPOLES>  (1) 
241.29
9.06
1.66
1.03
10.47
0.06
-0.49
-1.98
-0.05
-1.07
0.22
-0.98
-0.18
0.05

>  <PUBCHEM_SHAPE_SELFOVERLAP>  (1) 
413.889

>  <PUBCHEM_SHAPE_VOLUME>  (1) 
162.1

>  <PUBCHEM_COORDINATE_TYPE>  (1) 
2
5
10

$$$$
