4545
     RDKit          3D

 44 47  0  0  1  0  0  0  0  0999 V2000
    4.5007    0.4018    0.9045 O   0  0  0  0  0  0  0  0  0  0  0  0
    7.5836    2.4388    1.0159 O   0  0  0  0  0  0  0  0  0  0  0  0
    7.2846    0.9146   -1.2884 O   0  0  0  0  0  0  0  0  0  0  0  0
    3.9919   -1.6164   -0.1695 O   0  0  0  0  0  0  0  0  0  0  0  0
    6.4637   -1.7349    1.0773 O   0  0  0  0  0  0  0  0  0  0  0  0
    8.9899   -0.4841   -1.9482 O   0  0  0  0  0  0  0  0  0  0  0  0
   -0.3880   -2.0144    1.6509 O   0  0  0  0  0  0  0  0  0  0  0  0
   -2.0300   -0.1464   -1.5445 O   0  0  0  0  0  0  0  0  0  0  0  0
   -2.4646   -2.2642    2.6296 O   0  0  0  0  0  0  0  0  0  0  0  0
   -4.0614   -2.2169   -1.4755 O   0  0  0  0  0  0  0  0  0  0  0  0
   -9.9584   -0.2484   -0.3267 O   0  0  0  0  0  0  0  0  0  0  0  0
    8.1609    1.1378   -3.3514 N   0  0  0  0  0  0  0  0  0  0  0  0
   -3.6911   -0.9781    0.4566 N   0  0  0  0  0  0  0  0  0  0  0  0
    5.2820    1.6058    0.9931 C   0  0  0  0  0  0  0  0  0  0  0  0
    6.7888    1.2585    1.0610 C   0  0  0  0  0  0  0  0  0  0  0  0
    7.2410    0.2667   -0.0205 C   0  0  0  0  0  0  0  0  0  0  0  0
    6.2879   -0.9262   -0.0870 C   0  0  0  0  0  0  0  0  0  0  0  0
    4.8310   -0.4627   -0.1819 C   0  0  0  0  0  0  0  0  0  0  0  0
    4.9091    2.5768   -0.1396 C   0  0  0  0  0  0  0  0  0  0  0  0
    4.8608    2.2703    2.3170 C   0  0  0  0  0  0  0  0  0  0  0  0
    8.8274    2.2406    1.6645 C   0  0  0  0  0  0  0  0  0  0  0  0
    2.6445   -1.3966   -0.2666 C   0  0  0  0  0  0  0  0  0  0  0  0
    8.2134    0.4387   -2.1710 C   0  0  0  0  0  0  0  0  0  0  0  0
    1.7775   -1.8138    0.7437 C   0  0  0  0  0  0  0  0  0  0  0  0
    2.1413   -0.7469   -1.3934 C   0  0  0  0  0  0  0  0  0  0  0  0
    0.4061   -1.5807    0.6265 C   0  0  0  0  0  0  0  0  0  0  0  0
   -0.0895   -0.9350   -0.4942 C   0  0  0  0  0  0  0  0  0  0  0  0
    0.7711   -0.5136   -1.5113 C   0  0  0  0  0  0  0  0  0  0  0  0
    2.3256   -2.5099    1.9489 C   0  0  0  0  0  0  0  0  0  0  0  0
   -1.5309   -0.7098   -0.5789 C   0  0  0  0  0  0  0  0  0  0  0  0
   -2.3412   -1.2039    0.5642 C   0  0  0  0  0  0  0  0  0  0  0  0
   -1.7939   -1.8332    1.6408 C   0  0  0  0  0  0  0  0  0  0  0  0
   -4.4666   -1.5025   -0.5618 C   0  0  0  0  0  0  0  0  0  0  0  0
   -5.9130   -1.1673   -0.4981 C   0  0  0  0  0  0  0  0  0  0  0  0
   -7.6880    0.3197    0.1907 C   0  0  0  0  0  0  0  0  0  0  0  0
   -6.3303    0.0061    0.1300 C   0  0  0  0  0  0  0  0  0  0  0  0
   -8.1172    1.5806    0.8653 C   0  0  0  0  0  0  0  0  0  0  0  0
   -6.8535   -2.0272   -1.0655 C   0  0  0  0  0  0  0  0  0  0  0  0
   -8.6285   -0.5401   -0.3767 C   0  0  0  0  0  0  0  0  0  0  0  0
   -8.2112   -1.7136   -1.0047 C   0  0  0  0  0  0  0  0  0  0  0  0
   -8.1825    2.7574   -0.0765 C   0  0  0  0  0  0  0  0  0  0  0  0
   -7.4750    3.9022   -0.0254 C   0  0  0  0  0  0  0  0  0  0  0  0
   -6.4766    4.1319    1.0781 C   0  0  0  0  0  0  0  0  0  0  0  0
   -7.5914    5.0385   -1.0014 C   0  0  0  0  0  0  0  0  0  0  0  0
  1 14  1  0
  1 18  1  0
  2 15  1  0
  2 21  1  0
  3 16  1  0
  3 23  1  0
  4 18  1  0
  4 22  1  0
  5 17  1  0
  6 23  2  0
  7 26  1  0
  7 32  1  0
  8 30  2  0
  9 32  1  0
 10 33  2  0
 11 39  1  0
 12 23  1  0
 13 31  1  0
 13 33  1  0
 14 15  1  0
 14 19  1  0
 14 20  1  0
 15 16  1  0
 16 17  1  0
 17 18  1  0
 22 24  1  0
 22 25  2  0
 24 26  2  0
 24 29  1  0
 25 28  1  0
 26 27  1  0
 27 28  2  0
 27 30  1  0
 30 31  1  0
 31 32  2  0
 33 34  1  0
 34 36  1  0
 34 38  2  0
 35 36  2  0
 35 37  1  0
 35 39  1  0
 37 41  1  0
 38 40  1  0
 39 40  2  0
 41 42  2  3
 42 43  1  0
 42 44  1  0
M  CHG  1   9  -1
M  END
>  <PUBCHEM_COMPOUND_CID>  (1) 
4545

>  <PUBCHEM_CONFORMER_RMSD>  (1) 
1.6

>  <PUBCHEM_CONFORMER_DIVERSEORDER>  (1) 
2
73
49
36
64
16
86
60
55
14
67
45
59
87
76
37
72
42
65
50
29
54
57
78
17
83
25
75
69
19
41
79
90
92
12
56
8
77
82
27
32
84
81
80
3
62
89
35
68
23
31
51
15
39
71
22
21
46
63
10
5
61
52
43
91
70
40
30
53
28
6
48
34
9
38
44
85
18
66
33
20
58
4
88
26
13
24
11
7
47
74
1

>  <PUBCHEM_MMFF94_PARTIAL_CHARGES>  (1) 
53
1 -0.56
10 -0.57
11 -0.53
12 -0.8
13 -0.54
14 0.28
15 0.28
16 0.28
17 0.28
18 0.56
2 -0.56
21 0.28
22 0.08
23 0.78
24 -0.14
25 -0.15
26 0.08
27 0.09
28 -0.15
29 0.14
3 -0.43
30 0.47
31 0.12
32 -0.07
33 0.54
34 0.09
35 -0.14
36 -0.15
37 0.28
38 -0.15
39 0.08
4 -0.36
40 -0.15
41 -0.29
42 -0.28
43 0.14
44 0.14
5 -0.68
55 0.4
59 0.15
6 -0.57
60 0.15
61 0.37
62 0.37
66 0.37
67 0.15
7 -0.16
70 0.15
71 0.15
72 0.15
73 0.45
8 -0.57
9 -0.85

>  <PUBCHEM_EFFECTIVE_ROTOR_COUNT>  (1) 
11.2

>  <PUBCHEM_PHARMACOPHORE_FEATURES>  (1) 
18
1 1 acceptor
1 10 acceptor
1 11 donor
1 12 donor
1 13 donor
1 2 acceptor
1 4 acceptor
1 5 acceptor
1 5 donor
1 6 acceptor
1 7 acceptor
1 8 acceptor
3 14 19 20 hydrophobe
3 42 43 44 hydrophobe
6 1 14 15 16 17 18 rings
6 22 24 25 26 27 28 rings
6 34 35 36 38 39 40 rings
6 7 26 27 30 31 32 rings

>  <PUBCHEM_HEAVY_ATOM_COUNT>  (1) 
44

>  <PUBCHEM_ATOM_DEF_STEREO_COUNT>  (1) 
0

>  <PUBCHEM_ATOM_UDEF_STEREO_COUNT>  (1) 
4

>  <PUBCHEM_BOND_DEF_STEREO_COUNT>  (1) 
0

>  <PUBCHEM_BOND_UDEF_STEREO_COUNT>  (1) 
0

>  <PUBCHEM_ISOTOPIC_ATOM_COUNT>  (1) 
0

>  <PUBCHEM_COMPONENT_COUNT>  (1) 
1

>  <PUBCHEM_CACTVS_TAUTO_COUNT>  (1) 
14

>  <PUBCHEM_CONFORMER_ID>  (1) 
000011C100000002

>  <PUBCHEM_MMFF94_ENERGY>  (1) 
167.0163

>  <PUBCHEM_FEATURE_SELFOVERLAP>  (1) 
91.431

>  <PUBCHEM_SHAPE_FINGERPRINT>  (1) 
10 15 15719389559879212550
11061554 47 18272085011419646792
11181472 205 18262243222820092590
11456790 92 18260823787515275152
12133447 93 18411990134970345108
12522641 24 18336256869877906370
12539765 74 18411984624300905430
12728209 37 16515684442373515913
13008946 267 18117278047968587043
13383665 225 18189071845020145956
13811026 1 17775288274193360104
14394314 77 18188491264653871773
150020 25 17775287187746222631
15604295 49 18343295986052193033
16994733 274 18409444770131230355
1754908 1 13262397765078534013
17686467 74 18409727401176900979
19301679 30 13263214659880448986
20105231 36 14764628647412933383
2026 5 11887135184325998188
21033648 29 18116142445983739610
21057603 40 15913335654656025804
21424621 283 18334858282475834771
21792961 116 16056887905310076151
21792965 78 13686031847857465772
22164985 6 15697994150540212295
24771293 8 18113620075724820735
3986486 107 18339654378171524548
4093350 32 18411980247992818578
44802255 64 17917991669014829127
4516262 110 18042679517551609775
4625314 4 17703791456829528615
504579 68 17346323716938206582
5265222 85 18059850719059778615
5758199 1 18113897169819643059
5937810 71 18060143107684986657
636775 72 18409727383464671881
6691757 9 17022902393735898451
6698420 124 17894633625791340627

>  <PUBCHEM_SHAPE_MULTIPOLES>  (1) 
830.97
34.96
4.13
2.03
8.74
5.71
0.33
24.03
7.94
8.52
-0.83
-4.28
-0.06
0.43

>  <PUBCHEM_SHAPE_SELFOVERLAP>  (1) 
1786.885

>  <PUBCHEM_SHAPE_VOLUME>  (1) 
454.3

>  <PUBCHEM_COORDINATE_TYPE>  (1) 
2
5
10

$$$$
