45452
     RDKit          3D

 13 12  0  0  0  0  0  0  0  0999 V2000
    1.6559   -3.1531    0.0645 Cl  0  0  0  0  0  0  0  0  0  0  0  0
   -4.4760   -1.9851   -0.7036 Cl  0  0  0  0  0  0  0  0  0  0  0  0
    2.5552   -0.1128   -1.0247 S   0  0  0  0  0  0  0  0  0  0  0  0
   -2.3062    0.5698   -0.7611 S   0  0  0  0  0  0  0  0  0  0  0  0
    0.3996    1.9336   -0.1819 O   0  0  0  0  0  0  0  0  0  0  0  0
    1.6600    2.0355    0.4667 C   0  0  0  0  0  0  0  0  0  0  0  0
   -0.6686    2.2492    0.7014 C   0  0  0  0  0  0  0  0  0  0  0  0
    2.7702    1.6097   -0.4810 C   0  0  0  0  0  0  0  0  0  0  0  0
   -1.9920    2.2128   -0.0465 C   0  0  0  0  0  0  0  0  0  0  0  0
    3.2249   -0.9322    0.4400 C   0  0  0  0  0  0  0  0  0  0  0  0
   -2.9044   -0.2522    0.7326 C   0  0  0  0  0  0  0  0  0  0  0  0
    3.2755   -2.4458    0.2872 C   0  0  0  0  0  0  0  0  0  0  0  0
   -3.1942   -1.7294    0.5067 C   0  0  0  0  0  0  0  0  0  0  0  0
  1 12  1  0
  2 13  1  0
  3  8  1  0
  3 10  1  0
  4  9  1  0
  4 11  1  0
  5  6  1  0
  5  7  1  0
  6  8  1  0
  7  9  1  0
 10 12  1  0
 11 13  1  0
M  END
>  <PUBCHEM_COMPOUND_CID>  (1) 
45452

>  <PUBCHEM_CONFORMER_RMSD>  (1) 
0.8

>  <PUBCHEM_CONFORMER_DIVERSEORDER>  (1) 
1
101
305
277
113
207
217
78
229
223
194
348
338
124
84
281
179
262
369
90
212
345
334
192
222
69
328
226
340
236
356
343
331
98
306
285
64
368
119
118
41
170
186
254
127
322
366
298
309
135
209
109
107
96
47
337
125
116
319
231
240
367
253
169
158
92
16
178
133
123
258
294
182
99
225
268
51
275
252
121
235
56
62
289
272
219
221
94
359
312
31
146
347
108
311
143
339
316
241
263
232
159
216
46
276
55
104
246
162
349
105
197
351
50
346
307
203
248
255
200
327
173
228
4
75
317
287
284
151
5
245
19
25
205
249
36
325
257
33
100
361
330
87
357
344
184
290
88
227
79
117
352
176
206
175
243
53
335
43
181
353
314
296
370
13
106
251
32
213
180
230
350
155
83
297
358
310
38
21
293
30
54
144
261
318
157
172
279
202
264
138
242
291
193
10
371
40
141
130
292
110
332
14
244
265
218
341
183
323
120
364
128
126
114
283
326
274
45
17
28
156
198
363
115
174
304
26
35
147
111
329
60
29
139
282
234
73
247
59
148
82
89
65
150
134
112
220
24
85
103
336
210
23
149
42
15
286
333
250
270
161
142
239
81
188
233
280
132
360
196
171
355
91
20
211
177
324
365
163
299
302
266
37
48
66
71
131
153
199
190
300
354
61
295
237
76
308
68
303
271
9
167
129
288
215
7
256
273
49
168
136
267
164
160
12
214
93
58
2
145
44
6
185
313
204
189
86
208
191
22
95
187
52
278
195
342
201
260
11
137
67
259
77
18
39
166
238
315
34
301
102
70
269
320
362
3
8
224
122
63
152
140
154
97
80
74
321
27
72
165
57

>  <PUBCHEM_MMFF94_PARTIAL_CHARGES>  (1) 
13
1 -0.29
10 0.23
11 0.23
12 0.29
13 0.29
2 -0.29
3 -0.46
4 -0.46
5 -0.56
6 0.28
7 0.28
8 0.23
9 0.23

>  <PUBCHEM_EFFECTIVE_ROTOR_COUNT>  (1) 
10

>  <PUBCHEM_PHARMACOPHORE_FEATURES>  (1) 
1
1 5 acceptor

>  <PUBCHEM_HEAVY_ATOM_COUNT>  (1) 
13

>  <PUBCHEM_ATOM_DEF_STEREO_COUNT>  (1) 
0

>  <PUBCHEM_ATOM_UDEF_STEREO_COUNT>  (1) 
0

>  <PUBCHEM_BOND_DEF_STEREO_COUNT>  (1) 
0

>  <PUBCHEM_BOND_UDEF_STEREO_COUNT>  (1) 
0

>  <PUBCHEM_ISOTOPIC_ATOM_COUNT>  (1) 
0

>  <PUBCHEM_COMPONENT_COUNT>  (1) 
1

>  <PUBCHEM_CACTVS_TAUTO_COUNT>  (1) 
1

>  <PUBCHEM_CONFORMER_ID>  (1) 
0000B18C00000001

>  <PUBCHEM_MMFF94_ENERGY>  (1) 
16.3944

>  <PUBCHEM_FEATURE_SELFOVERLAP>  (1) 
5.074

>  <PUBCHEM_SHAPE_FINGERPRINT>  (1) 
12038231 1 17546166762677997731
12596599 1 17845395321940705827
12824470 246 18201445817519595857
1420 336 17904206931694560450
14251705 54 18409731729333193826
14251717 144 18267302221547749399
14251731 5 18410578387683184471
14251757 5 16539910763479027070
14916288 52 18123474882021939398
20621476 51 18272645727947648767
20645477 70 17902504123828575889
2871803 45 18338802341493902204
33824 294 18124031488260840897
4283 87 17768802414474543991
556388 4 18410289254843185975
8199 65 18266180719650215270
9795274 37 18259705575241566098

>  <PUBCHEM_SHAPE_MULTIPOLES>  (1) 
273.1
7.68
4
0.97
3.84
1.09
-0.1
5.42
-0.65
-0.97
0.42
0.12
-0.01
-0.56

>  <PUBCHEM_SHAPE_SELFOVERLAP>  (1) 
450.708

>  <PUBCHEM_SHAPE_VOLUME>  (1) 
189.4

>  <PUBCHEM_COORDINATE_TYPE>  (1) 
2
5
10

$$$$
