45458
     RDKit          3D

 15 17  0  0  1  0  0  0  0  0999 V2000
   -5.3460   -0.5882    0.3398 O   0  0  0  0  0  0  0  0  0  0  0  0
    5.3342   -1.0623   -0.0262 O   0  0  0  0  0  0  0  0  0  0  0  0
    2.2684    0.5544   -0.0932 O   0  0  0  0  0  0  0  0  0  0  0  0
   -4.0244   -0.1925    0.6565 C   0  0  0  0  0  0  0  0  0  0  0  0
   -4.3602   -1.6205    0.4723 C   0  0  0  0  0  0  0  0  0  0  0  0
    4.2002   -0.6155    0.7028 C   0  0  0  0  0  0  0  0  0  0  0  0
   -3.3593    0.5604   -0.4930 C   0  0  0  0  0  0  0  0  0  0  0  0
    5.2525    0.3379    0.2694 C   0  0  0  0  0  0  0  0  0  0  0  0
    2.9188   -0.7155   -0.0971 C   0  0  0  0  0  0  0  0  0  0  0  0
   -1.8720    0.5586   -0.3873 C   0  0  0  0  0  0  0  0  0  0  0  0
   -1.2209    1.5793    0.3054 C   0  0  0  0  0  0  0  0  0  0  0  0
   -1.1319   -0.4638   -0.9812 C   0  0  0  0  0  0  0  0  0  0  0  0
    0.9108    0.5554   -0.1898 C   0  0  0  0  0  0  0  0  0  0  0  0
    0.1704    1.5777    0.4041 C   0  0  0  0  0  0  0  0  0  0  0  0
    0.2596   -0.4655   -0.8825 C   0  0  0  0  0  0  0  0  0  0  0  0
  1  4  1  0
  1  5  1  0
  2  6  1  0
  2  8  1  0
  3  9  1  0
  3 13  1  0
  4  5  1  0
  4  7  1  0
  6  8  1  0
  6  9  1  0
  7 10  1  0
 10 11  2  0
 10 12  1  0
 11 14  1  0
 12 15  2  0
 13 14  2  0
 13 15  1  0
M  END
>  <PUBCHEM_COMPOUND_CID>  (1) 
45458

>  <PUBCHEM_CONFORMER_RMSD>  (1) 
0.8

>  <PUBCHEM_CONFORMER_DIVERSEORDER>  (1) 
1
27
38
26
6
14
17
33
23
34
25
5
32
39
10
36
18
3
19
20
22
29
4
35
40
16
11
7
31
13
28
15
24
8
21
12
37
2
30
9
41

>  <PUBCHEM_MMFF94_PARTIAL_CHARGES>  (1) 
25
1 -0.3
10 -0.14
11 -0.15
12 -0.15
13 0.08
14 -0.15
15 -0.15
16 0.1
17 0.1
18 0.1
19 0.1
2 -0.3
22 0.1
23 0.1
26 0.15
27 0.15
28 0.15
29 0.15
3 -0.36
4 -0.05
5 -0.05
6 -0.05
7 0.24
8 -0.05
9 0.38

>  <PUBCHEM_EFFECTIVE_ROTOR_COUNT>  (1) 
6.2

>  <PUBCHEM_PHARMACOPHORE_FEATURES>  (1) 
4
1 1 acceptor
1 2 acceptor
1 3 acceptor
6 10 11 12 13 14 15 rings

>  <PUBCHEM_HEAVY_ATOM_COUNT>  (1) 
15

>  <PUBCHEM_ATOM_DEF_STEREO_COUNT>  (1) 
0

>  <PUBCHEM_ATOM_UDEF_STEREO_COUNT>  (1) 
2

>  <PUBCHEM_BOND_DEF_STEREO_COUNT>  (1) 
0

>  <PUBCHEM_BOND_UDEF_STEREO_COUNT>  (1) 
0

>  <PUBCHEM_ISOTOPIC_ATOM_COUNT>  (1) 
0

>  <PUBCHEM_COMPONENT_COUNT>  (1) 
1

>  <PUBCHEM_CACTVS_TAUTO_COUNT>  (1) 
1

>  <PUBCHEM_CONFORMER_ID>  (1) 
0000B19200000001

>  <PUBCHEM_MMFF94_ENERGY>  (1) 
42.4819

>  <PUBCHEM_FEATURE_SELFOVERLAP>  (1) 
20.297

>  <PUBCHEM_SHAPE_FINGERPRINT>  (1) 
10014705 185 8574415531251604294
100836 57 11023828387679424347
10465860 250 18409729560617159449
106641 1 17632010961454871939
11287383 113 17749107816147293508
11796584 16 17821727243542345027
12032990 46 18411420600573114821
12251169 10 17632294592357231541
124424 183 18410289221000022669
12596602 18 17346878983084463443
12670543 26 11891319942090736522
13214271 11 18130505245749144757
13288520 33 17894349973571398447
13675066 3 18201715137343070188
13740256 8 18336829787695280483
13760787 5 18271519892222378205
13862211 1 18272082803399741999
14123238 8 17385443219994579246
1420 363 18412829071253590222
14251718 22 17748828527361469548
14251731 8 18186235117746908423
14251764 18 18341901805581914481
14252887 29 17918000447099436134
15209294 21 15913053088456518179
17834072 33 17822015332625850828
17834076 25 13830131693618562246
18186145 218 13045947940742305637
187816 3 13045943499371652893
200 152 16153427233609364148
20281389 69 12607407676011072867
20300324 65 14634866427183259535
20645477 56 11527948963357088253
20645477 70 12396568603787801704
21029758 27 18412825789376771972
21267235 1 18342743992765402870
21637258 2 17676197009459920227
22485316 2 17603579690920171954
2297311 6 18130798824096565980
231179 274 10231758894168947480
23379529 103 14493326437617214065
23402539 116 14996278093845532822
23402655 69 11602807022090496131
23559900 14 17749671912445753425
25147074 1 17344055531992995165
26918003 58 18410573985668389881
2838139 119 11383837030561008011
293599 30 9439405726663714227
42 15 18411138034621781500
465052 167 18338525239131586719
5104073 3 18128811955077060370
542803 24 14836400346250727584
59682541 35 18268140028529118216
76465 3 18266176309283590511

>  <PUBCHEM_SHAPE_MULTIPOLES>  (1) 
291.09
11.33
1.4
0.86
5.41
0.15
-0.06
-4.65
2.67
-0.56
0.18
-0.22
-0.07
0.29

>  <PUBCHEM_SHAPE_SELFOVERLAP>  (1) 
606.111

>  <PUBCHEM_SHAPE_VOLUME>  (1) 
167.8

>  <PUBCHEM_COORDINATE_TYPE>  (1) 
2
5
10

$$$$
