45464
     RDKit          3D

 25 28  0  0  1  0  0  0  0  0999 V2000
    1.1494   -3.2135   -1.7863 O   0  0  0  0  0  0  0  0  0  0  0  0
   -0.2102    3.0056   -1.0803 O   0  0  0  0  0  0  0  0  0  0  0  0
   -0.4449   -1.0402    1.8117 N   0  0  0  0  0  0  0  0  0  0  0  0
    4.0244   -0.0852    0.6745 N   0  0  0  0  0  0  0  0  0  0  0  0
    0.6614   -2.0671   -1.0762 C   0  0  0  0  0  0  0  0  0  0  0  0
   -0.3851   -2.5476   -0.0478 C   0  0  0  0  0  0  0  0  0  0  0  0
    1.8204   -1.3405   -0.4694 C   0  0  0  0  0  0  0  0  0  0  0  0
   -1.0690   -1.4168    0.6786 C   0  0  0  0  0  0  0  0  0  0  0  0
    1.8454    0.0551   -0.3453 C   0  0  0  0  0  0  0  0  0  0  0  0
   -2.2360   -0.8512    0.1774 C   0  0  0  0  0  0  0  0  0  0  0  0
    2.9826    0.6495    0.2407 C   0  0  0  0  0  0  0  0  0  0  0  0
    2.8923   -2.1002   -0.0233 C   0  0  0  0  0  0  0  0  0  0  0  0
   -2.8086    0.2023    0.9197 C   0  0  0  0  0  0  0  0  0  0  0  0
    0.7760    0.8526   -0.7870 C   0  0  0  0  0  0  0  0  0  0  0  0
   -2.8483   -1.2818   -1.0112 C   0  0  0  0  0  0  0  0  0  0  0  0
    3.0070    2.0360    0.3637 C   0  0  0  0  0  0  0  0  0  0  0  0
    3.9608   -1.4293    0.5363 C   0  0  0  0  0  0  0  0  0  0  0  0
    0.8269    2.2370   -0.6515 C   0  0  0  0  0  0  0  0  0  0  0  0
   -2.1833    0.6164    2.1015 C   0  0  0  0  0  0  0  0  0  0  0  0
   -3.9881    0.8049    0.4527 C   0  0  0  0  0  0  0  0  0  0  0  0
    1.9439    2.8290   -0.0755 C   0  0  0  0  0  0  0  0  0  0  0  0
   -1.0213   -0.0292    2.4958 C   0  0  0  0  0  0  0  0  0  0  0  0
   -4.0196   -0.6720   -1.4602 C   0  0  0  0  0  0  0  0  0  0  0  0
   -4.5883    0.3690   -0.7299 C   0  0  0  0  0  0  0  0  0  0  0  0
   -0.0877    4.4172   -0.9087 C   0  0  0  0  0  0  0  0  0  0  0  0
  1  5  1  0
  2 18  1  0
  2 25  1  0
  3  8  2  0
  3 22  1  0
  4 11  2  0
  4 17  1  0
  5  6  1  0
  5  7  1  0
  6  8  1  0
  7  9  2  0
  7 12  1  0
  8 10  1  0
  9 11  1  0
  9 14  1  0
 10 13  2  0
 10 15  1  0
 11 16  1  0
 12 17  2  0
 13 19  1  0
 13 20  1  0
 14 18  2  0
 15 23  2  0
 16 21  2  0
 18 21  1  0
 19 22  2  0
 20 24  2  0
 23 24  1  0
M  END
>  <PUBCHEM_COMPOUND_CID>  (1) 
45464

>  <PUBCHEM_CONFORMER_RMSD>  (1) 
0.8

>  <PUBCHEM_CONFORMER_DIVERSEORDER>  (1) 
2
32
41
24
21
51
17
33
28
38
11
48
5
45
27
9
49
23
42
12
54
4
46
19
52
37
31
10
47
43
13
53
35
1
20
36
7
50
39
44
25
15
8
14
6
29
40
3
34
30
26
18
22
16

>  <PUBCHEM_MMFF94_PARTIAL_CHARGES>  (1) 
34
1 -0.68
11 0.31
12 -0.15
14 -0.15
15 -0.15
16 -0.15
17 0.16
18 0.08
19 -0.15
2 -0.36
20 -0.15
21 -0.15
22 0.16
23 -0.15
24 -0.15
25 0.28
29 0.15
3 -0.62
30 0.15
31 0.15
32 0.4
33 0.15
34 0.15
35 0.15
36 0.15
37 0.15
38 0.15
39 0.15
4 -0.62
40 0.15
5 0.42
6 0.14
7 -0.14
8 0.17

>  <PUBCHEM_EFFECTIVE_ROTOR_COUNT>  (1) 
4

>  <PUBCHEM_PHARMACOPHORE_FEATURES>  (1) 
9
1 1 acceptor
1 1 donor
1 2 acceptor
1 3 acceptor
1 4 acceptor
6 10 13 15 20 23 24 rings
6 3 8 10 13 19 22 rings
6 4 7 9 11 12 17 rings
6 9 11 14 16 18 21 rings

>  <PUBCHEM_HEAVY_ATOM_COUNT>  (1) 
25

>  <PUBCHEM_ATOM_DEF_STEREO_COUNT>  (1) 
0

>  <PUBCHEM_ATOM_UDEF_STEREO_COUNT>  (1) 
1

>  <PUBCHEM_BOND_DEF_STEREO_COUNT>  (1) 
0

>  <PUBCHEM_BOND_UDEF_STEREO_COUNT>  (1) 
0

>  <PUBCHEM_ISOTOPIC_ATOM_COUNT>  (1) 
0

>  <PUBCHEM_COMPONENT_COUNT>  (1) 
1

>  <PUBCHEM_CACTVS_TAUTO_COUNT>  (1) 
2

>  <PUBCHEM_CONFORMER_ID>  (1) 
0000B19800000002

>  <PUBCHEM_MMFF94_ENERGY>  (1) 
91.1862

>  <PUBCHEM_FEATURE_SELFOVERLAP>  (1) 
45.732

>  <PUBCHEM_SHAPE_FINGERPRINT>  (1) 
104564 63 17899984832966347168
10708813 3 18269552917459692980
10863032 1 18268423706106749515
11244481 83 16445058506668619669
11370993 70 18129090285415029633
11578080 2 15431478042072942348
11640471 11 17916041198661202113
12011746 2 18411141320931191630
12156800 1 17540211438477155656
12293681 4 18042134167550936059
12553582 1 18336283270413581100
12788726 201 18041836200079566144
13134695 92 18261109669070323956
13583140 156 17968095373539993027
14790565 3 17757274052506590292
17349148 13 18273215291855163763
17357779 13 18263085414013503988
17492 89 18268145533823642614
17980427 23 17846780698054016714
192875 21 18272367576868806593
19930381 70 18047750687931656213
20715895 44 18129096715761975221
20905425 154 17828474778338683496
23184049 59 18410011035456752538
23419403 2 14642393636653351315
23559900 14 16127540254678325038
474 4 18413109455002867059
513532 50 17762286519827035909
5171179 24 18198335149095849074
81228 2 17754473265086688884
9981440 41 17399507317918052129

>  <PUBCHEM_SHAPE_MULTIPOLES>  (1) 
492.79
6.82
3.84
1.67
2.65
3.1
-0.75
-0.57
0.16
-2.26
1.83
1.1
-0.24
-0.16

>  <PUBCHEM_SHAPE_SELFOVERLAP>  (1) 
1102.163

>  <PUBCHEM_SHAPE_VOLUME>  (1) 
259.9

>  <PUBCHEM_COORDINATE_TYPE>  (1) 
2
5
10

$$$$
