45478
     RDKit          3D

 21 23  0  0  1  0  0  0  0  0999 V2000
   -4.9342    0.9524    0.2316 O   0  0  0  0  0  0  0  0  0  0  0  0
   -3.5557    2.1554   -0.9892 O   0  0  0  0  0  0  0  0  0  0  0  0
    1.7177   -2.1706    0.4415 N   0  0  0  0  0  0  0  0  0  0  0  0
   -3.8040    1.1568   -0.2721 N   0  0  0  0  0  0  0  0  0  0  0  0
    0.9199   -0.2531   -0.9113 C   0  0  0  0  0  0  0  0  0  0  0  0
    1.8247   -1.5247   -0.8786 C   0  0  0  0  0  0  0  0  0  0  0  0
   -0.4617   -0.4929   -0.3213 C   0  0  0  0  0  0  0  0  0  0  0  0
    0.3626   -2.6496    0.7372 C   0  0  0  0  0  0  0  0  0  0  0  0
   -0.7108   -1.6171    0.4856 C   0  0  0  0  0  0  0  0  0  0  0  0
    1.6344    0.9437   -0.2857 C   0  0  0  0  0  0  0  0  0  0  0  0
    1.5089   -2.4464   -2.0720 C   0  0  0  0  0  0  0  0  0  0  0  0
   -1.4978    0.4228   -0.5662 C   0  0  0  0  0  0  0  0  0  0  0  0
    2.7082   -3.2213    0.6544 C   0  0  0  0  0  0  0  0  0  0  0  0
   -1.9925   -1.8133    1.0201 C   0  0  0  0  0  0  0  0  0  0  0  0
   -2.7651    0.2219   -0.0208 C   0  0  0  0  0  0  0  0  0  0  0  0
    1.5019    1.1869    1.0757 C   0  0  0  0  0  0  0  0  0  0  0  0
    2.4081    1.7756   -1.0852 C   0  0  0  0  0  0  0  0  0  0  0  0
   -3.0122   -0.8954    0.7717 C   0  0  0  0  0  0  0  0  0  0  0  0
    2.1540    2.2798    1.6468 C   0  0  0  0  0  0  0  0  0  0  0  0
    3.0603    2.8684   -0.5141 C   0  0  0  0  0  0  0  0  0  0  0  0
    2.9334    3.1204    0.8519 C   0  0  0  0  0  0  0  0  0  0  0  0
  1  4  1  0
  2  4  2  0
  3  6  1  0
  3  8  1  0
  3 13  1  0
  4 15  1  0
  5  6  1  0
  5  7  1  0
  5 10  1  0
  6 11  1  0
  7  9  2  0
  7 12  1  0
  8  9  1  0
  9 14  1  0
 10 16  2  0
 10 17  1  0
 12 15  2  0
 14 18  2  0
 15 18  1  0
 16 19  1  0
 17 20  2  0
 19 21  2  0
 20 21  1  0
M  CHG  2   1  -1   4   1
M  END
>  <PUBCHEM_COMPOUND_CID>  (1) 
45478

>  <PUBCHEM_CONFORMER_RMSD>  (1) 
0.6

>  <PUBCHEM_CONFORMER_DIVERSEORDER>  (1) 
2
1
4
5
3

>  <PUBCHEM_MMFF94_PARTIAL_CHARGES>  (1) 
28
1 -0.52
10 -0.14
12 -0.15
13 0.27
14 -0.15
15 0.13
16 -0.15
17 -0.15
18 -0.15
19 -0.15
2 -0.52
20 -0.15
21 -0.15
29 0.15
3 -0.81
33 0.15
34 0.15
35 0.15
36 0.15
37 0.15
38 0.15
39 0.15
4 0.91
5 0.29
6 0.27
7 -0.14
8 0.41
9 -0.14

>  <PUBCHEM_EFFECTIVE_ROTOR_COUNT>  (1) 
2.8

>  <PUBCHEM_PHARMACOPHORE_FEATURES>  (1) 
7
1 1 acceptor
1 1 anion
1 2 acceptor
1 3 cation
6 10 16 17 19 20 21 rings
6 3 5 6 7 8 9 rings
6 7 9 12 14 15 18 rings

>  <PUBCHEM_HEAVY_ATOM_COUNT>  (1) 
21

>  <PUBCHEM_ATOM_DEF_STEREO_COUNT>  (1) 
1

>  <PUBCHEM_ATOM_UDEF_STEREO_COUNT>  (1) 
1

>  <PUBCHEM_BOND_DEF_STEREO_COUNT>  (1) 
0

>  <PUBCHEM_BOND_UDEF_STEREO_COUNT>  (1) 
0

>  <PUBCHEM_ISOTOPIC_ATOM_COUNT>  (1) 
0

>  <PUBCHEM_COMPONENT_COUNT>  (1) 
1

>  <PUBCHEM_CACTVS_TAUTO_COUNT>  (1) 
1

>  <PUBCHEM_CONFORMER_ID>  (1) 
0000B1A600000002

>  <PUBCHEM_MMFF94_ENERGY>  (1) 
66.5981

>  <PUBCHEM_FEATURE_SELFOVERLAP>  (1) 
35.621

>  <PUBCHEM_SHAPE_FINGERPRINT>  (1) 
10165383 225 17838084802002493232
1100329 8 17546731452314668160
12173636 292 17904478854811645756
12293681 160 17901978278071900854
12730499 353 18342186608894333963
12788726 201 17471012480419768450
13132413 78 17833827175273230412
13134695 92 18125426528098482198
13140716 1 18335135422996872842
13294875 104 18042680607275843347
133893 2 18120901049997675542
13464514 151 18340498793636151452
13681431 1 18128826235400350158
13878862 14 18194109734717577373
13965767 371 17895180130246465101
14178342 30 18041846250023340163
15490181 7 18055633069210405950
16945 1 17900281713970052327
17138139 8 15524837217879081292
18186145 218 17558287667530787904
18785283 64 18333732407489313784
20510252 161 17907306794349348553
20600515 1 17977103457647426806
21524375 3 18055075616799214670
21650355 55 16823891055068814522
21731228 192 18124311872616538952
22149856 69 18115328726344512737
23419403 2 13708735486611300495
23559900 14 18187368701466346695
238 59 18272643588889891869
25 1 17915761948694042824
2748010 2 18261408766408899175
350125 39 18335427905990808147
495365 180 18201712959937127813
5104073 3 18335994082461396265
5265222 85 17760666046326269588
5845 1 12624389569078022758
5895379 119 16484458166105500417
7097593 13 17533191254449812424
7364860 26 18341050735503886622
7471813 234 17914031128608599645
7808743 9 17759810638247129644
81228 2 16830367165571409626
84936 182 18342177756460802585
90316 7 17039795534696712642
9981440 41 18193545886228813505

>  <PUBCHEM_SHAPE_MULTIPOLES>  (1) 
410.47
6.16
4.08
1.41
5.35
1.49
-0.18
-5.72
0.35
-2.98
0.27
-0.69
0.24
1.17

>  <PUBCHEM_SHAPE_SELFOVERLAP>  (1) 
888.518

>  <PUBCHEM_SHAPE_VOLUME>  (1) 
225.5

>  <PUBCHEM_COORDINATE_TYPE>  (1) 
2
5
10

$$$$
