45492
     RDKit          3D

 26 28  0  0  1  0  0  0  0  0999 V2000
   -3.0385   -2.7505    1.2226 O   0  0  0  0  0  0  0  0  0  0  0  0
   -4.5950   -2.2627   -1.0256 O   0  0  0  0  0  0  0  0  0  0  0  0
    7.0881   -0.2498   -0.2542 O   0  0  0  0  0  0  0  0  0  0  0  0
    6.3261   -2.2942   -0.0113 O   0  0  0  0  0  0  0  0  0  0  0  0
   -1.1424    3.0666    0.2465 N   0  0  0  0  0  0  0  0  0  0  0  0
    6.1366   -1.0614   -0.1508 N   0  0  0  0  0  0  0  0  0  0  0  0
   -1.1476    1.7987    1.0253 C   0  0  0  0  0  0  0  0  0  0  0  0
   -2.0765    0.7149    0.4716 C   0  0  0  0  0  0  0  0  0  0  0  0
    0.2964    1.2636    1.0781 C   0  0  0  0  0  0  0  0  0  0  0  0
   -2.4658    3.3927   -0.2978 C   0  0  0  0  0  0  0  0  0  0  0  0
   -2.8934    2.3162   -1.2901 C   0  0  0  0  0  0  0  0  0  0  0  0
   -2.9066    0.9659   -0.6346 C   0  0  0  0  0  0  0  0  0  0  0  0
    0.7913    0.9130   -0.3175 C   0  0  0  0  0  0  0  0  0  0  0  0
   -2.1559   -0.5420    1.0962 C   0  0  0  0  0  0  0  0  0  0  0  0
   -0.6623    4.1963    1.0516 C   0  0  0  0  0  0  0  0  0  0  0  0
   -3.7349   -0.0468   -1.1400 C   0  0  0  0  0  0  0  0  0  0  0  0
   -2.9949   -1.5404    0.5984 C   0  0  0  0  0  0  0  0  0  0  0  0
   -3.7772   -1.2958   -0.5253 C   0  0  0  0  0  0  0  0  0  0  0  0
    2.2045    0.3905   -0.2737 C   0  0  0  0  0  0  0  0  0  0  0  0
    3.2630    1.2794   -0.3872 C   0  0  0  0  0  0  0  0  0  0  0  0
    2.4238   -0.9704   -0.1203 C   0  0  0  0  0  0  0  0  0  0  0  0
    4.5709    0.7963   -0.3463 C   0  0  0  0  0  0  0  0  0  0  0  0
    3.7317   -1.4534   -0.0793 C   0  0  0  0  0  0  0  0  0  0  0  0
    4.8053   -0.5701   -0.1924 C   0  0  0  0  0  0  0  0  0  0  0  0
   -2.1193   -3.7444    0.7741 C   0  0  0  0  0  0  0  0  0  0  0  0
   -5.9273   -2.3122   -0.5182 C   0  0  0  0  0  0  0  0  0  0  0  0
  1 17  1  0
  1 25  1  0
  2 18  1  0
  2 26  1  0
  3  6  1  0
  4  6  2  0
  5  7  1  0
  5 10  1  0
  5 15  1  0
  6 24  1  0
  7  8  1  0
  7  9  1  0
  8 12  2  0
  8 14  1  0
  9 13  1  0
 10 11  1  0
 11 12  1  0
 12 16  1  0
 13 19  1  0
 14 17  2  0
 16 18  2  0
 17 18  1  0
 19 20  2  0
 19 21  1  0
 20 22  1  0
 21 23  2  0
 22 24  2  0
 23 24  1  0
M  CHG  2   3  -1   6   1
M  END
>  <PUBCHEM_COMPOUND_CID>  (1) 
45492

>  <PUBCHEM_CONFORMER_RMSD>  (1) 
0.8

>  <PUBCHEM_CONFORMER_DIVERSEORDER>  (1) 
1
22
26
17
25
9
23
27
4
8
7
20
29
6
21
28
18
13
11
3
12
14
19
10
15
5
24
16
2

>  <PUBCHEM_MMFF94_PARTIAL_CHARGES>  (1) 
31
1 -0.36
10 0.27
11 0.14
12 -0.14
13 0.14
14 -0.15
15 0.27
16 -0.15
17 0.08
18 0.08
19 -0.14
2 -0.36
20 -0.15
21 -0.15
22 -0.15
23 -0.15
24 0.13
25 0.28
26 0.28
3 -0.52
36 0.15
4 -0.52
40 0.15
41 0.15
42 0.15
43 0.15
44 0.15
5 -0.81
6 0.91
7 0.41
8 -0.14

>  <PUBCHEM_EFFECTIVE_ROTOR_COUNT>  (1) 
6.8

>  <PUBCHEM_PHARMACOPHORE_FEATURES>  (1) 
9
1 1 acceptor
1 2 acceptor
1 3 acceptor
1 3 anion
1 4 acceptor
1 5 cation
6 19 20 21 22 23 24 rings
6 5 7 8 10 11 12 rings
6 8 12 14 16 17 18 rings

>  <PUBCHEM_HEAVY_ATOM_COUNT>  (1) 
26

>  <PUBCHEM_ATOM_DEF_STEREO_COUNT>  (1) 
0

>  <PUBCHEM_ATOM_UDEF_STEREO_COUNT>  (1) 
1

>  <PUBCHEM_BOND_DEF_STEREO_COUNT>  (1) 
0

>  <PUBCHEM_BOND_UDEF_STEREO_COUNT>  (1) 
0

>  <PUBCHEM_ISOTOPIC_ATOM_COUNT>  (1) 
0

>  <PUBCHEM_COMPONENT_COUNT>  (1) 
1

>  <PUBCHEM_CACTVS_TAUTO_COUNT>  (1) 
1

>  <PUBCHEM_CONFORMER_ID>  (1) 
0000B1B400000001

>  <PUBCHEM_MMFF94_ENERGY>  (1) 
95.1693

>  <PUBCHEM_FEATURE_SELFOVERLAP>  (1) 
45.779

>  <PUBCHEM_SHAPE_FINGERPRINT>  (1) 
10483366 6 18337941330449846295
12166972 35 18113619027346573284
12760667 363 18411422838609954099
12788726 201 18337100173377760499
13402501 40 18340204189155790375
13631057 29 18411980256734844026
13782708 43 17489027030022973094
14251740 79 18260546701836839147
14251757 5 18334293171536561387
14347332 77 18410291393689212270
14461889 52 18342728630068520082
14790565 3 18051976922972344817
14866123 147 18411987940932607281
14931854 50 18187354424689924767
15064986 266 18187939386381632717
15250474 111 18190453853964479266
15463212 79 17898287212630286953
18927931 339 18130795525313730428
20775438 99 17260998526937520823
21307412 95 18264763436958463079
21703447 108 18338505443970360792
22393880 68 18260821567106632052
23559900 14 18410283727384079328
255183 313 18126306155166914713
3004659 81 18187358865511405102
329604 57 18410577327121336836
376196 1 14040155796145845145
4073 2 18269276764754420902
4169191 19 15865505890173676204
463206 1 18266740371143301519
5085150 59 18267568131700577858
5104073 3 18060135419324118768
531348 171 17460308850871205630
57527452 28 15841252810637376221
58260988 521 17969523537009231705
59755656 520 18116429241924185853
9709674 26 18269280071293741558

>  <PUBCHEM_SHAPE_MULTIPOLES>  (1) 
501.63
13.14
4.36
1.09
20.55
1.56
0.08
-10.88
-3.38
-4.7
1.02
-1.01
0.16
0.31

>  <PUBCHEM_SHAPE_SELFOVERLAP>  (1) 
1068.95

>  <PUBCHEM_SHAPE_VOLUME>  (1) 
280.7

>  <PUBCHEM_COORDINATE_TYPE>  (1) 
2
5
10

$$$$
