45499
     RDKit          3D

 26 28  0  0  1  0  0  0  0  0999 V2000
    1.3949   -2.0316    0.0322 Cl  0  0  0  0  0  0  0  0  0  0  0  0
    4.3766   -3.1182    0.1290 Cl  0  0  0  0  0  0  0  0  0  0  0  0
    6.7778   -1.0338   -0.1662 Cl  0  0  0  0  0  0  0  0  0  0  0  0
   -2.8163   -2.5794    1.2352 O   0  0  0  0  0  0  0  0  0  0  0  0
   -4.3571   -2.0760   -1.0202 O   0  0  0  0  0  0  0  0  0  0  0  0
   -0.7680    3.1751    0.1981 N   0  0  0  0  0  0  0  0  0  0  0  0
   -0.8071    1.9165    0.9907 C   0  0  0  0  0  0  0  0  0  0  0  0
   -1.7634    0.8513    0.4477 C   0  0  0  0  0  0  0  0  0  0  0  0
    0.6224    1.3445    1.0513 C   0  0  0  0  0  0  0  0  0  0  0  0
   -2.0819    3.5296   -0.3515 C   0  0  0  0  0  0  0  0  0  0  0  0
   -2.5364    2.4538   -1.3325 C   0  0  0  0  0  0  0  0  0  0  0  0
   -2.5855    1.1116   -0.6623 C   0  0  0  0  0  0  0  0  0  0  0  0
    1.1094    0.9659   -0.3397 C   0  0  0  0  0  0  0  0  0  0  0  0
   -1.8762   -0.3963    1.0859 C   0  0  0  0  0  0  0  0  0  0  0  0
   -0.2595    4.3008    0.9915 C   0  0  0  0  0  0  0  0  0  0  0  0
   -3.4394    0.1154   -1.1577 C   0  0  0  0  0  0  0  0  0  0  0  0
   -2.7405   -1.3778    0.5979 C   0  0  0  0  0  0  0  0  0  0  0  0
   -3.5149   -1.1253   -0.5294 C   0  0  0  0  0  0  0  0  0  0  0  0
    2.5084    0.4071   -0.2883 C   0  0  0  0  0  0  0  0  0  0  0  0
    2.7460   -0.9509   -0.1213 C   0  0  0  0  0  0  0  0  0  0  0  0
    3.5620    1.3042   -0.4148 C   0  0  0  0  0  0  0  0  0  0  0  0
    4.0588   -1.4205   -0.0798 C   0  0  0  0  0  0  0  0  0  0  0  0
    4.8747    0.8346   -0.3734 C   0  0  0  0  0  0  0  0  0  0  0  0
    5.1231   -0.5277   -0.2061 C   0  0  0  0  0  0  0  0  0  0  0  0
   -3.7817   -2.7002    2.2780 C   0  0  0  0  0  0  0  0  0  0  0  0
   -3.8259   -2.9728   -1.9942 C   0  0  0  0  0  0  0  0  0  0  0  0
  1 20  1  0
  2 22  1  0
  3 24  1  0
  4 17  1  0
  4 25  1  0
  5 18  1  0
  5 26  1  0
  6  7  1  0
  6 10  1  0
  6 15  1  0
  7  8  1  0
  7  9  1  0
  8 12  2  0
  8 14  1  0
  9 13  1  0
 10 11  1  0
 11 12  1  0
 12 16  1  0
 13 19  1  0
 14 17  2  0
 16 18  2  0
 17 18  1  0
 19 20  2  0
 19 21  1  0
 20 22  1  0
 21 23  2  0
 22 24  2  0
 23 24  1  0
M  END
>  <PUBCHEM_COMPOUND_CID>  (1) 
45499

>  <PUBCHEM_CONFORMER_RMSD>  (1) 
0.8

>  <PUBCHEM_CONFORMER_DIVERSEORDER>  (1) 
1
9
23
26
44
42
36
45
43
20
46
14
38
27
28
39
34
30
24
41
37
16
18
22
35
29
11
5
10
13
31
8
3
40
6
17
33
32
7
21
4
25
2
12
15
19

>  <PUBCHEM_MMFF94_PARTIAL_CHARGES>  (1) 
29
1 -0.18
10 0.27
11 0.14
12 -0.14
13 0.14
14 -0.15
15 0.27
16 -0.15
17 0.08
18 0.08
19 -0.14
2 -0.18
20 0.18
21 -0.15
22 0.18
23 -0.15
24 0.18
25 0.28
26 0.28
3 -0.18
36 0.15
4 -0.36
40 0.15
41 0.15
42 0.15
5 -0.36
6 -0.81
7 0.41
8 -0.14

>  <PUBCHEM_EFFECTIVE_ROTOR_COUNT>  (1) 
5.8

>  <PUBCHEM_PHARMACOPHORE_FEATURES>  (1) 
6
1 4 acceptor
1 5 acceptor
1 6 cation
6 19 20 21 22 23 24 rings
6 6 7 8 10 11 12 rings
6 8 12 14 16 17 18 rings

>  <PUBCHEM_HEAVY_ATOM_COUNT>  (1) 
26

>  <PUBCHEM_ATOM_DEF_STEREO_COUNT>  (1) 
0

>  <PUBCHEM_ATOM_UDEF_STEREO_COUNT>  (1) 
1

>  <PUBCHEM_BOND_DEF_STEREO_COUNT>  (1) 
0

>  <PUBCHEM_BOND_UDEF_STEREO_COUNT>  (1) 
0

>  <PUBCHEM_ISOTOPIC_ATOM_COUNT>  (1) 
0

>  <PUBCHEM_COMPONENT_COUNT>  (1) 
1

>  <PUBCHEM_CACTVS_TAUTO_COUNT>  (1) 
1

>  <PUBCHEM_CONFORMER_ID>  (1) 
0000B1BB00000001

>  <PUBCHEM_MMFF94_ENERGY>  (1) 
91.2794

>  <PUBCHEM_FEATURE_SELFOVERLAP>  (1) 
30.472

>  <PUBCHEM_SHAPE_FINGERPRINT>  (1) 
10254770 206 16892006307269667450
10616163 171 18340769230646969430
10675989 125 16970828088261910636
10764073 3 17618262458224656691
12553582 1 18267594682844958211
12788726 201 18265604399695872921
13224815 77 18060421275040558284
13544653 18 18338520849310805508
13583140 156 17916852523048744272
13631057 29 18341891888169897612
13690498 29 18196957512397360798
13782708 43 17846219887939294934
13911987 19 17613451346986540772
14251740 79 18260545576449782513
14363568 33 17832441051777192297
14790565 3 17908706133882769785
15064986 266 18261121759197624813
15250474 111 18192424170243121994
15463212 79 17825101510998466649
17349148 13 18186520995360587504
17492 89 18338238155065218194
18927931 339 18342748394648043038
21133410 171 17544135689934917111
221490 88 18409453596405262464
22393880 68 18335983052621415030
23559900 14 18409721864236770904
329604 57 18335144236686430446
46194498 28 16881322812190087071
463206 1 18267021837345389831
5104073 3 18411984633686477072
5309563 4 18266465484572394547
57527585 103 17242768383286889050
6431902 208 18408887343543310970
70251023 43 18125147488969868151
9709674 26 18338240341129023830

>  <PUBCHEM_SHAPE_MULTIPOLES>  (1) 
523.96
11.32
4.62
1.41
16.04
2.02
0.18
-8.14
-2.17
-4.05
0.6
-2.17
-0.78
0.22

>  <PUBCHEM_SHAPE_SELFOVERLAP>  (1) 
1088.457

>  <PUBCHEM_SHAPE_VOLUME>  (1) 
303.2

>  <PUBCHEM_COORDINATE_TYPE>  (1) 
2
5
10

$$$$
