45494
     RDKit          3D

 26 28  0  0  1  0  0  0  0  0999 V2000
   -2.4138   -2.8321    1.2156 O   0  0  0  0  0  0  0  0  0  0  0  0
   -4.0562   -2.5172   -1.0022 O   0  0  0  0  0  0  0  0  0  0  0  0
    5.7615   -2.3560   -0.0370 O   0  0  0  0  0  0  0  0  0  0  0  0
    3.6577   -2.9751    0.0617 O   0  0  0  0  0  0  0  0  0  0  0  0
   -1.2380    3.1754    0.2597 N   0  0  0  0  0  0  0  0  0  0  0  0
    4.5362   -2.0857   -0.0474 N   0  0  0  0  0  0  0  0  0  0  0  0
   -1.0793    1.9106    1.0273 C   0  0  0  0  0  0  0  0  0  0  0  0
   -1.8827    0.7280    0.4795 C   0  0  0  0  0  0  0  0  0  0  0  0
    0.4187    1.5503    1.0515 C   0  0  0  0  0  0  0  0  0  0  0  0
   -2.6001    3.3458   -0.2596 C   0  0  0  0  0  0  0  0  0  0  0  0
   -2.9143    2.2330   -1.2542 C   0  0  0  0  0  0  0  0  0  0  0  0
   -2.7559    0.8862   -0.6106 C   0  0  0  0  0  0  0  0  0  0  0  0
    0.9272    1.2704   -0.3552 C   0  0  0  0  0  0  0  0  0  0  0  0
   -1.8016   -0.5337    1.0942 C   0  0  0  0  0  0  0  0  0  0  0  0
   -0.8812    4.3486    1.0668 C   0  0  0  0  0  0  0  0  0  0  0  0
   -3.4670   -0.2142   -1.1112 C   0  0  0  0  0  0  0  0  0  0  0  0
   -2.5249   -1.6212    0.6014 C   0  0  0  0  0  0  0  0  0  0  0  0
   -3.3502   -1.4635   -0.5069 C   0  0  0  0  0  0  0  0  0  0  0  0
    2.3929    0.9190   -0.3394 C   0  0  0  0  0  0  0  0  0  0  0  0
    2.7750   -0.4072   -0.2017 C   0  0  0  0  0  0  0  0  0  0  0  0
    3.3367    1.9281   -0.4617 C   0  0  0  0  0  0  0  0  0  0  0  0
    4.1313   -0.7318   -0.1862 C   0  0  0  0  0  0  0  0  0  0  0  0
    4.6931    1.6036   -0.4461 C   0  0  0  0  0  0  0  0  0  0  0  0
    5.0904    0.2736   -0.3084 C   0  0  0  0  0  0  0  0  0  0  0  0
   -1.3913   -3.7069    0.7432 C   0  0  0  0  0  0  0  0  0  0  0  0
   -5.3641   -2.7279   -0.4733 C   0  0  0  0  0  0  0  0  0  0  0  0
  1 17  1  0
  1 25  1  0
  2 18  1  0
  2 26  1  0
  3  6  1  0
  4  6  2  0
  5  7  1  0
  5 10  1  0
  5 15  1  0
  6 22  1  0
  7  8  1  0
  7  9  1  0
  8 12  2  0
  8 14  1  0
  9 13  1  0
 10 11  1  0
 11 12  1  0
 12 16  1  0
 13 19  1  0
 14 17  2  0
 16 18  2  0
 17 18  1  0
 19 20  2  0
 19 21  1  0
 20 22  1  0
 21 23  2  0
 22 24  2  0
 23 24  1  0
M  CHG  2   3  -1   6   1
M  END
>  <PUBCHEM_COMPOUND_CID>  (1) 
45494

>  <PUBCHEM_CONFORMER_RMSD>  (1) 
0.8

>  <PUBCHEM_CONFORMER_DIVERSEORDER>  (1) 
1
13
84
85
78
24
47
76
64
62
82
86
61
52
59
69
54
83
79
66
80
22
26
81
44
56
87
74
49
70
31
88
58
37
5
71
17
7
75
9
65
57
77
3
28
46
21
25
60
43
6
39
51
63
72
27
16
20
23
10
32
50
73
15
41
38
11
33
19
42
30
12
14
2
8
53
18
55
34
45
36
4
35
40
29
67
48
68

>  <PUBCHEM_MMFF94_PARTIAL_CHARGES>  (1) 
31
1 -0.36
10 0.27
11 0.14
12 -0.14
13 0.14
14 -0.15
15 0.27
16 -0.15
17 0.08
18 0.08
19 -0.14
2 -0.36
20 -0.15
21 -0.15
22 0.13
23 -0.15
24 -0.15
25 0.28
26 0.28
3 -0.52
36 0.15
4 -0.52
40 0.15
41 0.15
42 0.15
43 0.15
44 0.15
5 -0.81
6 0.91
7 0.41
8 -0.14

>  <PUBCHEM_EFFECTIVE_ROTOR_COUNT>  (1) 
6.8

>  <PUBCHEM_PHARMACOPHORE_FEATURES>  (1) 
9
1 1 acceptor
1 2 acceptor
1 3 acceptor
1 3 anion
1 4 acceptor
1 5 cation
6 19 20 21 22 23 24 rings
6 5 7 8 10 11 12 rings
6 8 12 14 16 17 18 rings

>  <PUBCHEM_HEAVY_ATOM_COUNT>  (1) 
26

>  <PUBCHEM_ATOM_DEF_STEREO_COUNT>  (1) 
0

>  <PUBCHEM_ATOM_UDEF_STEREO_COUNT>  (1) 
1

>  <PUBCHEM_BOND_DEF_STEREO_COUNT>  (1) 
0

>  <PUBCHEM_BOND_UDEF_STEREO_COUNT>  (1) 
0

>  <PUBCHEM_ISOTOPIC_ATOM_COUNT>  (1) 
0

>  <PUBCHEM_COMPONENT_COUNT>  (1) 
1

>  <PUBCHEM_CACTVS_TAUTO_COUNT>  (1) 
1

>  <PUBCHEM_CONFORMER_ID>  (1) 
0000B1B600000001

>  <PUBCHEM_MMFF94_ENERGY>  (1) 
95.0542

>  <PUBCHEM_FEATURE_SELFOVERLAP>  (1) 
45.779

>  <PUBCHEM_SHAPE_FINGERPRINT>  (1) 
10254770 206 17109023531461751786
10616163 171 18341334405456708150
10693767 8 18055613257091493607
10764073 3 17538325797979595241
10940486 97 18118699716746219780
11036077 51 17981611463711095001
12553582 1 18194699269509998552
12788726 201 18335974337684443747
13583140 156 17988910155704734136
13631057 29 18341335582584078940
13911987 19 17685512235385645500
14251740 79 18334573495456605807
14347332 77 18409444773841011366
14790565 3 18124036733150042025
14866123 147 18412548683246295713
14931854 50 18333729139215004150
14950920 106 13254796828606190156
15064986 266 18188221973591388221
15250474 111 18337108939712135186
17492 89 18411981339082888334
19958102 18 18187918439773318333
20775438 99 17261839644684812695
21133410 171 17615915154823241170
21703447 108 18341317986066124904
22393880 68 18114454574906409902
23559900 14 18341040827610856168
3004659 81 18187640345052101902
3178227 256 18338532859290410849
38695281 34 17689154509323055873
44062 13 18339080384812595564
46194498 28 17460869859262078589
463206 1 18194682802585039975
5309563 4 18124321767973619687
70251023 43 18194398029800887753
9709674 26 18408326592449043228

>  <PUBCHEM_SHAPE_MULTIPOLES>  (1) 
501.63
10.79
5.08
1.09
10.56
0.55
0.08
-8.35
-3
-2.8
1.06
-0.84
0.21
-0.1

>  <PUBCHEM_SHAPE_SELFOVERLAP>  (1) 
1068.969

>  <PUBCHEM_SHAPE_VOLUME>  (1) 
280.5

>  <PUBCHEM_COORDINATE_TYPE>  (1) 
2
5
10

$$$$
