45529
     RDKit          3D

 25 27  0  0  1  0  0  0  0  0999 V2000
   -6.4416    2.1093   -1.7254 Cl  0  0  0  0  0  0  0  0  0  0  0  0
    3.3203    2.2227    1.5845 O   0  0  0  0  0  0  0  0  0  0  0  0
    3.7274    2.5517   -1.1433 O   0  0  0  0  0  0  0  0  0  0  0  0
    0.7572   -3.1262   -0.2059 N   0  0  0  0  0  0  0  0  0  0  0  0
    1.1896   -2.1609    0.8406 C   0  0  0  0  0  0  0  0  0  0  0  0
    1.8722   -0.9008    0.3019 C   0  0  0  0  0  0  0  0  0  0  0  0
   -0.0492   -1.7642    1.6668 C   0  0  0  0  0  0  0  0  0  0  0  0
    1.6934   -3.1817   -1.3349 C   0  0  0  0  0  0  0  0  0  0  0  0
    1.7365   -1.8270   -2.0344 C   0  0  0  0  0  0  0  0  0  0  0  0
    2.1296   -0.7451   -1.0711 C   0  0  0  0  0  0  0  0  0  0  0  0
   -1.0624   -1.0299    0.8019 C   0  0  0  0  0  0  0  0  0  0  0  0
    0.5830   -4.4775    0.3406 C   0  0  0  0  0  0  0  0  0  0  0  0
    2.3047    0.1064    1.1822 C   0  0  0  0  0  0  0  0  0  0  0  0
    2.7368    0.4261   -1.5473 C   0  0  0  0  0  0  0  0  0  0  0  0
   -2.3050   -0.6704    1.6195 C   0  0  0  0  0  0  0  0  0  0  0  0
    2.9237    1.2623    0.7034 C   0  0  0  0  0  0  0  0  0  0  0  0
    3.1310    1.4263   -0.6620 C   0  0  0  0  0  0  0  0  0  0  0  0
   -3.3429    0.0277    0.7784 C   0  0  0  0  0  0  0  0  0  0  0  0
   -3.3210    1.4107    0.6778 C   0  0  0  0  0  0  0  0  0  0  0  0
   -4.3043   -0.7243    0.1194 C   0  0  0  0  0  0  0  0  0  0  0  0
   -4.2825    2.0567   -0.0996 C   0  0  0  0  0  0  0  0  0  0  0  0
   -5.2655   -0.0784   -0.6580 C   0  0  0  0  0  0  0  0  0  0  0  0
    2.3753    3.2435    1.8991 C   0  0  0  0  0  0  0  0  0  0  0  0
    5.1484    2.5309   -1.2669 C   0  0  0  0  0  0  0  0  0  0  0  0
   -5.2547    1.3122   -0.7675 C   0  0  0  0  0  0  0  0  0  0  0  0
  1 25  1  0
  2 16  1  0
  2 23  1  0
  3 17  1  0
  3 24  1  0
  4  5  1  0
  4  8  1  0
  4 12  1  0
  5  6  1  0
  5  7  1  0
  6 10  2  0
  6 13  1  0
  7 11  1  0
  8  9  1  0
  9 10  1  0
 10 14  1  0
 11 15  1  0
 13 16  2  0
 14 17  2  0
 15 18  1  0
 16 17  1  0
 18 19  2  0
 18 20  1  0
 19 21  1  0
 20 22  2  0
 21 25  2  0
 22 25  1  0
M  END
>  <PUBCHEM_COMPOUND_CID>  (1) 
45529

>  <PUBCHEM_CONFORMER_RMSD>  (1) 
0.8

>  <PUBCHEM_CONFORMER_DIVERSEORDER>  (1) 
1
24
57
13
17
30
20
31
41
49
35
4
2
12
43
65
45
42
46
66
23
53
19
68
50
38
8
21
28
34
59
16
44
11
22
58
18
56
7
67
10
69
55
5
3
29
47
9
51
25
33
39
61
26
15
36
52
54
32
62
14
63
37
27
64
6
60
48
40

>  <PUBCHEM_MMFF94_PARTIAL_CHARGES>  (1) 
29
1 -0.18
10 -0.14
12 0.27
13 -0.15
14 -0.15
15 0.14
16 0.08
17 0.08
18 -0.14
19 -0.15
2 -0.36
20 -0.15
21 -0.15
22 -0.15
23 0.28
24 0.28
25 0.18
3 -0.36
38 0.15
39 0.15
4 -0.81
42 0.15
43 0.15
44 0.15
45 0.15
5 0.41
6 -0.14
8 0.27
9 0.14

>  <PUBCHEM_EFFECTIVE_ROTOR_COUNT>  (1) 
6.8

>  <PUBCHEM_PHARMACOPHORE_FEATURES>  (1) 
6
1 2 acceptor
1 3 acceptor
1 4 cation
6 18 19 20 21 22 25 rings
6 4 5 6 8 9 10 rings
6 6 10 13 14 16 17 rings

>  <PUBCHEM_HEAVY_ATOM_COUNT>  (1) 
25

>  <PUBCHEM_ATOM_DEF_STEREO_COUNT>  (1) 
0

>  <PUBCHEM_ATOM_UDEF_STEREO_COUNT>  (1) 
1

>  <PUBCHEM_BOND_DEF_STEREO_COUNT>  (1) 
0

>  <PUBCHEM_BOND_UDEF_STEREO_COUNT>  (1) 
0

>  <PUBCHEM_ISOTOPIC_ATOM_COUNT>  (1) 
0

>  <PUBCHEM_COMPONENT_COUNT>  (1) 
1

>  <PUBCHEM_CACTVS_TAUTO_COUNT>  (1) 
1

>  <PUBCHEM_CONFORMER_ID>  (1) 
0000B1D900000001

>  <PUBCHEM_MMFF94_ENERGY>  (1) 
83.7536

>  <PUBCHEM_FEATURE_SELFOVERLAP>  (1) 
30.472

>  <PUBCHEM_SHAPE_FINGERPRINT>  (1) 
10498660 4 18260557714333686385
10928967 22 13542462051771464685
11763715 3 16602399922575054574
12769317 202 18413393124470307184
12788726 201 17539125464575961306
13134695 92 17901109616024340178
14420673 8 10735617786169346037
14468879 13 18260274074867357115
14848178 96 18261115145259478577
14950920 106 8285907043636801245
14957384 54 17825110560937605884
15163728 17 18335430100687298327
15664445 248 15482085259654049403
21304303 282 17483076687097962994
21860390 5 18268143158700582687
21968339 14 18341885243227996653
22393880 68 18341617014352654087
23559900 14 18189899708488117083
238 59 18060430130878254258
24941158 1 18048572868746329423
2838139 119 18189900996851588756
341906 21 17385731322105827617
376196 1 18187362155609270203
44317340 157 18189899717694801597
495365 180 18409162178199433971
7471813 234 17841999883931359986
7808743 9 17973174103806057404
960060 61 17274812512102897477
9981440 41 18187369882239787179

>  <PUBCHEM_SHAPE_MULTIPOLES>  (1) 
499.64
11.45
4.47
1.93
18.14
2.33
-0.09
-11.5
-5.23
-4.41
0.02
-0.82
-0.41
1.51

>  <PUBCHEM_SHAPE_SELFOVERLAP>  (1) 
1046.442

>  <PUBCHEM_SHAPE_VOLUME>  (1) 
285.3

>  <PUBCHEM_COORDINATE_TYPE>  (1) 
2
5
10

$$$$
