45531
     RDKit          3D

 26 28  0  0  1  0  0  0  0  0999 V2000
   -7.1770   -1.8733    1.3325 Cl  0  0  0  0  0  0  0  0  0  0  0  0
    1.2459   -1.4026   -1.5433 O   0  0  0  0  0  0  0  0  0  0  0  0
    3.4743   -2.4426   -0.3771 O   0  0  0  0  0  0  0  0  0  0  0  0
    4.8861   -0.9715    1.4889 O   0  0  0  0  0  0  0  0  0  0  0  0
   -0.0437    2.6084   -0.6638 N   0  0  0  0  0  0  0  0  0  0  0  0
    0.1388    1.1482   -0.8209 C   0  0  0  0  0  0  0  0  0  0  0  0
    1.4161    0.5991   -0.2066 C   0  0  0  0  0  0  0  0  0  0  0  0
    0.2808    3.0571    0.6958 C   0  0  0  0  0  0  0  0  0  0  0  0
   -1.0880    0.4198   -0.2488 C   0  0  0  0  0  0  0  0  0  0  0  0
    1.7135    2.7327    1.1251 C   0  0  0  0  0  0  0  0  0  0  0  0
    2.1379    1.3380    0.7478 C   0  0  0  0  0  0  0  0  0  0  0  0
   -2.3633    0.9361   -0.8950 C   0  0  0  0  0  0  0  0  0  0  0  0
    1.8748   -0.6760   -0.5743 C   0  0  0  0  0  0  0  0  0  0  0  0
    0.6844    3.3659   -1.6823 C   0  0  0  0  0  0  0  0  0  0  0  0
    3.3050    0.7980    1.3070 C   0  0  0  0  0  0  0  0  0  0  0  0
    3.0323   -1.2071   -0.0060 C   0  0  0  0  0  0  0  0  0  0  0  0
    3.7467   -0.4706    0.9346 C   0  0  0  0  0  0  0  0  0  0  0  0
   -3.5712    0.2297   -0.3350 C   0  0  0  0  0  0  0  0  0  0  0  0
   -4.0240   -0.9322   -0.9421 C   0  0  0  0  0  0  0  0  0  0  0  0
   -4.2117    0.7536    0.7783 C   0  0  0  0  0  0  0  0  0  0  0  0
    1.7003   -1.2212   -2.8810 C   0  0  0  0  0  0  0  0  0  0  0  0
   -5.1428   -1.5850   -0.4245 C   0  0  0  0  0  0  0  0  0  0  0  0
   -5.3304    0.1007    1.2960 C   0  0  0  0  0  0  0  0  0  0  0  0
    2.9978   -3.5529    0.3793 C   0  0  0  0  0  0  0  0  0  0  0  0
   -5.7960   -1.0686    0.6946 C   0  0  0  0  0  0  0  0  0  0  0  0
    6.1132   -0.6837    0.8210 C   0  0  0  0  0  0  0  0  0  0  0  0
  1 25  1  0
  2 13  1  0
  2 21  1  0
  3 16  1  0
  3 24  1  0
  4 17  1  0
  4 26  1  0
  5  6  1  0
  5  8  1  0
  5 14  1  0
  6  7  1  0
  6  9  1  0
  7 11  2  0
  7 13  1  0
  8 10  1  0
  9 12  1  0
 10 11  1  0
 11 15  1  0
 12 18  1  0
 13 16  2  0
 15 17  2  0
 16 17  1  0
 18 19  2  0
 18 20  1  0
 19 22  1  0
 20 23  2  0
 22 25  2  0
 23 25  1  0
M  END
>  <PUBCHEM_COMPOUND_CID>  (1) 
45531

>  <PUBCHEM_CONFORMER_RMSD>  (1) 
0.8

>  <PUBCHEM_CONFORMER_DIVERSEORDER>  (1) 
1
15
13
29
25
26
27
33
7
11
18
6
32
30
20
5
23
2
10
22
28
12
8
16
21
31
19
4
14
17
3
9
24

>  <PUBCHEM_MMFF94_PARTIAL_CHARGES>  (1) 
30
1 -0.18
10 0.14
11 -0.14
12 0.14
13 0.08
14 0.27
15 -0.15
16 0.08
17 0.08
18 -0.14
19 -0.15
2 -0.36
20 -0.15
21 0.28
22 -0.15
23 -0.15
24 0.28
25 0.18
26 0.28
3 -0.36
39 0.15
4 -0.36
40 0.15
41 0.15
45 0.15
46 0.15
5 -0.81
6 0.41
7 -0.14
8 0.27

>  <PUBCHEM_EFFECTIVE_ROTOR_COUNT>  (1) 
6.8

>  <PUBCHEM_PHARMACOPHORE_FEATURES>  (1) 
7
1 2 acceptor
1 3 acceptor
1 4 acceptor
1 5 cation
6 18 19 20 22 23 25 rings
6 5 6 7 8 10 11 rings
6 7 11 13 15 16 17 rings

>  <PUBCHEM_HEAVY_ATOM_COUNT>  (1) 
26

>  <PUBCHEM_ATOM_DEF_STEREO_COUNT>  (1) 
0

>  <PUBCHEM_ATOM_UDEF_STEREO_COUNT>  (1) 
1

>  <PUBCHEM_BOND_DEF_STEREO_COUNT>  (1) 
0

>  <PUBCHEM_BOND_UDEF_STEREO_COUNT>  (1) 
0

>  <PUBCHEM_ISOTOPIC_ATOM_COUNT>  (1) 
0

>  <PUBCHEM_COMPONENT_COUNT>  (1) 
1

>  <PUBCHEM_CACTVS_TAUTO_COUNT>  (1) 
1

>  <PUBCHEM_CONFORMER_ID>  (1) 
0000B1DB00000001

>  <PUBCHEM_MMFF94_ENERGY>  (1) 
102.0633

>  <PUBCHEM_FEATURE_SELFOVERLAP>  (1) 
35.552

>  <PUBCHEM_SHAPE_FINGERPRINT>  (1) 
10076449 9 18343304765328608770
10693767 8 12902087770645306392
11763715 3 17606131576500538548
11796584 16 17677602073693032267
11963148 33 18334565829215432826
12035758 1 18129928058174102010
12107183 9 18198917911886836633
12166972 35 17022903458249029055
12363563 72 18113621175115375557
12422481 6 17703499983348131902
12596602 18 16988554753493900370
12633257 1 18342172310579291159
12661589 4 16590008254926286267
13103583 49 18059019380466872193
13140716 1 18055888104922057720
13533116 47 18339087111691587331
13544653 18 18338791221818278565
14341114 176 17918278640583930507
14787075 74 18333725806762857130
14790565 3 17979347883324674440
14849402 71 17844801693273630848
14863182 85 17846229885440959764
14955137 171 17847063302871110284
15475509 84 17775289318166625217
15927050 60 17693934499118251772
1813 80 18187370904426354221
19377110 9 16916786349222516559
1979834 28 17632587045581808367
20739085 24 18338229474709355836
21049683 271 18187931728861899300
21421861 104 18130799996375016705
21521239 73 13118275958816972720
21637258 2 16878212096279023024
21859007 373 18336824170933794037
23559900 14 15864352510522727533
25222932 49 18410849971271545934
2838139 119 10159688101622640290
3004659 81 15647048300921389123
3178227 256 18272647987474466864
3380486 145 18057296458167260981
3421961 26 18410574002621685169
3737641 26 18198622134131121690
44317340 157 9007067864156605337
465052 167 18411134749457129312
5104073 3 18129377099083634043

>  <PUBCHEM_SHAPE_MULTIPOLES>  (1) 
514.35
13.47
3.42
1.74
18.55
0.92
0.84
-10.48
-7.21
-2.55
0.24
-0.58
-0.08
0.57

>  <PUBCHEM_SHAPE_SELFOVERLAP>  (1) 
1082.286

>  <PUBCHEM_SHAPE_VOLUME>  (1) 
292.4

>  <PUBCHEM_COORDINATE_TYPE>  (1) 
2
5
10

$$$$
