45557
     RDKit          3D

 28 30  0  0  1  0  0  0  0  0999 V2000
   -6.2802    3.3884   -0.7356 Cl  0  0  0  0  0  0  0  0  0  0  0  0
   -2.0320   -1.2434    1.2304 O   0  0  0  0  0  0  0  0  0  0  0  0
    4.1302    1.6942    1.9672 O   0  0  0  0  0  0  0  0  0  0  0  0
    5.7414    1.3239   -0.2638 O   0  0  0  0  0  0  0  0  0  0  0  0
   -4.1380   -2.0002    0.6571 O   0  0  0  0  0  0  0  0  0  0  0  0
    0.3867   -2.2286   -0.9439 N   0  0  0  0  0  0  0  0  0  0  0  0
    0.6153   -1.1270    0.0174 C   0  0  0  0  0  0  0  0  0  0  0  0
    1.9929   -0.4896   -0.0643 C   0  0  0  0  0  0  0  0  0  0  0  0
   -0.4797   -0.0631   -0.1614 C   0  0  0  0  0  0  0  0  0  0  0  0
    0.8814   -1.8954   -2.2854 C   0  0  0  0  0  0  0  0  0  0  0  0
    2.3750   -1.5641   -2.3256 C   0  0  0  0  0  0  0  0  0  0  0  0
    2.8078   -0.6663   -1.1968 C   0  0  0  0  0  0  0  0  0  0  0  0
   -1.8880   -0.6461   -0.0596 C   0  0  0  0  0  0  0  0  0  0  0  0
    0.9232   -3.5009   -0.4595 C   0  0  0  0  0  0  0  0  0  0  0  0
    2.4551    0.3102    0.9931 C   0  0  0  0  0  0  0  0  0  0  0  0
    4.0680   -0.0534   -1.2483 C   0  0  0  0  0  0  0  0  0  0  0  0
   -2.9927    0.3707   -0.2297 C   0  0  0  0  0  0  0  0  0  0  0  0
    3.7067    0.9218    0.9282 C   0  0  0  0  0  0  0  0  0  0  0  0
    4.5124    0.7406   -0.1923 C   0  0  0  0  0  0  0  0  0  0  0  0
   -3.4907    0.6246   -1.4972 C   0  0  0  0  0  0  0  0  0  0  0  0
   -3.4868    1.0278    0.8849 C   0  0  0  0  0  0  0  0  0  0  0  0
   -3.2130   -1.8901    1.4505 C   0  0  0  0  0  0  0  0  0  0  0  0
   -4.5113    1.5623   -1.6544 C   0  0  0  0  0  0  0  0  0  0  0  0
   -4.5077    1.9654    0.7277 C   0  0  0  0  0  0  0  0  0  0  0  0
   -5.0199    2.2327   -0.5418 C   0  0  0  0  0  0  0  0  0  0  0  0
    4.8583    1.0407    3.0049 C   0  0  0  0  0  0  0  0  0  0  0  0
    5.8079    2.6285   -0.8371 C   0  0  0  0  0  0  0  0  0  0  0  0
   -3.2224   -2.4634    2.8351 C   0  0  0  0  0  0  0  0  0  0  0  0
  1 25  1  0
  2 13  1  0
  2 22  1  0
  3 18  1  0
  3 26  1  0
  4 19  1  0
  4 27  1  0
  5 22  2  0
  6  7  1  0
  6 10  1  0
  6 14  1  0
  7  8  1  0
  7  9  1  0
  8 12  2  0
  8 15  1  0
  9 13  1  0
 10 11  1  0
 11 12  1  0
 12 16  1  0
 13 17  1  0
 15 18  2  0
 16 19  2  0
 17 20  2  0
 17 21  1  0
 18 19  1  0
 20 23  1  0
 21 24  2  0
 22 28  1  0
 23 25  2  0
 24 25  1  0
M  END
>  <PUBCHEM_COMPOUND_CID>  (1) 
45557

>  <PUBCHEM_CONFORMER_RMSD>  (1) 
0.8

>  <PUBCHEM_CONFORMER_DIVERSEORDER>  (1) 
3
40
53
64
63
67
47
14
35
54
57
60
21
43
2
58
48
65
66
59
68
12
33
31
61
49
34
44
50
9
56
36
11
62
29
55
6
30
42
38
1
4
10
52
16
23
41
18
8
28
24
19
25
20
7
46
15
27
45
22
37
32
26
17
51
13
39
5

>  <PUBCHEM_MMFF94_PARTIAL_CHARGES>  (1) 
33
1 -0.18
10 0.27
11 0.14
12 -0.14
13 0.42
14 0.27
15 -0.15
16 -0.15
17 -0.14
18 0.08
19 0.08
2 -0.43
20 -0.15
21 -0.15
22 0.66
23 -0.15
24 -0.15
25 0.18
26 0.28
27 0.28
28 0.06
3 -0.36
4 -0.36
40 0.15
41 0.15
42 0.15
43 0.15
44 0.15
45 0.15
5 -0.57
6 -0.81
7 0.41
8 -0.14

>  <PUBCHEM_EFFECTIVE_ROTOR_COUNT>  (1) 
7.8

>  <PUBCHEM_PHARMACOPHORE_FEATURES>  (1) 
7
1 3 acceptor
1 4 acceptor
1 5 acceptor
1 6 cation
6 17 20 21 23 24 25 rings
6 6 7 8 10 11 12 rings
6 8 12 15 16 18 19 rings

>  <PUBCHEM_HEAVY_ATOM_COUNT>  (1) 
28

>  <PUBCHEM_ATOM_DEF_STEREO_COUNT>  (1) 
0

>  <PUBCHEM_ATOM_UDEF_STEREO_COUNT>  (1) 
2

>  <PUBCHEM_BOND_DEF_STEREO_COUNT>  (1) 
0

>  <PUBCHEM_BOND_UDEF_STEREO_COUNT>  (1) 
0

>  <PUBCHEM_ISOTOPIC_ATOM_COUNT>  (1) 
0

>  <PUBCHEM_COMPONENT_COUNT>  (1) 
1

>  <PUBCHEM_CACTVS_TAUTO_COUNT>  (1) 
1

>  <PUBCHEM_CONFORMER_ID>  (1) 
0000B1F500000003

>  <PUBCHEM_MMFF94_ENERGY>  (1) 
98.039

>  <PUBCHEM_FEATURE_SELFOVERLAP>  (1) 
35.547

>  <PUBCHEM_SHAPE_FINGERPRINT>  (1) 
10319926 262 18187362117097223314
105312 117 18200592609418013516
10906281 52 18410295774814856301
11578080 2 18269291109592015355
12403259 118 18261948665183119996
12403259 415 18340222842082504694
12422481 6 15213569040746012367
12549972 3 18192168022161159043
12596602 18 17168989074678703656
12633257 1 17531242855236059581
13540713 4 18264509320569850211
13583140 156 18261663878802435754
13726171 33 18043836335973968484
14347329 18 18411982468801932848
14468879 13 18342737391089549355
14528608 73 17560791117794039149
14848178 96 18271808990750260052
17980427 23 17458628959764375127
19377110 9 16298961964174329545
20642791 268 16298669486224396254
21033648 29 18343015636108552360
22182313 1 18341910592388988143
22393880 68 17203315724028117173
23557571 272 18261970595375654927
23559900 14 18263088712585882238
3388396 114 14332266653748068546
341906 21 18187083966076740692
3472631 163 18187083949039731933
4371632 12 16342273951969545234
439807 62 10519989257299153141
44317340 157 17845934027209676621
495365 180 18268706113160221167
5104073 3 17385998503473939704
633830 44 16056056734711959234
9849439 229 17751637655270334341
9981440 41 18341597223206690323

>  <PUBCHEM_SHAPE_MULTIPOLES>  (1) 
549.64
13.76
3.44
2.39
1.01
0.56
1.01
-14.44
1
2.52
0.01
-1.31
0.79
3.56

>  <PUBCHEM_SHAPE_SELFOVERLAP>  (1) 
1158.964

>  <PUBCHEM_SHAPE_VOLUME>  (1) 
310.1

>  <PUBCHEM_COORDINATE_TYPE>  (1) 
2
5
10

$$$$
