45553
     RDKit          3D

 22 24  0  0  1  0  0  0  0  0999 V2000
    4.0036   -2.1525    0.4198 O   0  0  0  0  0  0  0  0  0  0  0  0
    1.8154   -1.9770    0.4343 O   0  0  0  0  0  0  0  0  0  0  0  0
   -1.2970   -2.0651   -0.2998 N   0  0  0  0  0  0  0  0  0  0  0  0
    2.9572   -1.4641    0.3647 N   0  0  0  0  0  0  0  0  0  0  0  0
   -1.3789   -0.7876   -1.0569 C   0  0  0  0  0  0  0  0  0  0  0  0
   -2.3441    0.2432   -0.4562 C   0  0  0  0  0  0  0  0  0  0  0  0
   -3.1266   -0.0484    0.6033 C   0  0  0  0  0  0  0  0  0  0  0  0
   -2.4166    1.5961   -1.1330 C   0  0  0  0  0  0  0  0  0  0  0  0
   -3.1458   -1.4312    1.1906 C   0  0  0  0  0  0  0  0  0  0  0  0
   -4.0524    0.9507    1.2508 C   0  0  0  0  0  0  0  0  0  0  0  0
   -2.6088   -2.4748    0.2141 C   0  0  0  0  0  0  0  0  0  0  0  0
   -3.6422    2.4215   -0.7392 C   0  0  0  0  0  0  0  0  0  0  0  0
    0.0349   -0.1845   -1.1483 C   0  0  0  0  0  0  0  0  0  0  0  0
   -3.8484    2.3855    0.7677 C   0  0  0  0  0  0  0  0  0  0  0  0
    0.5597    0.1707    0.2357 C   0  0  0  0  0  0  0  0  0  0  0  0
   -0.7395   -3.1523   -1.1127 C   0  0  0  0  0  0  0  0  0  0  0  0
    1.9453    0.7586    0.1541 C   0  0  0  0  0  0  0  0  0  0  0  0
    3.0695   -0.0538    0.2190 C   0  0  0  0  0  0  0  0  0  0  0  0
    2.0674    2.1350    0.0135 C   0  0  0  0  0  0  0  0  0  0  0  0
    4.3386    0.5200    0.1417 C   0  0  0  0  0  0  0  0  0  0  0  0
    3.3366    2.7088   -0.0636 C   0  0  0  0  0  0  0  0  0  0  0  0
    4.4721    1.9013    0.0006 C   0  0  0  0  0  0  0  0  0  0  0  0
  1  4  1  0
  2  4  2  0
  3  5  1  0
  3 11  1  0
  3 16  1  0
  4 18  1  0
  5  6  1  0
  5 13  1  0
  6  7  2  0
  6  8  1  0
  7  9  1  0
  7 10  1  0
  8 12  1  0
  9 11  1  0
 10 14  1  0
 12 14  1  0
 13 15  1  0
 15 17  1  0
 17 18  2  0
 17 19  1  0
 18 20  1  0
 19 21  2  0
 20 22  2  0
 21 22  1  0
M  CHG  2   1  -1   4   1
M  END
>  <PUBCHEM_COMPOUND_CID>  (1) 
45553

>  <PUBCHEM_CONFORMER_RMSD>  (1) 
0.8

>  <PUBCHEM_CONFORMER_DIVERSEORDER>  (1) 
9
3
15
2
19
14
11
12
20
4
13
16
7
8
18
10
1
17
5
6

>  <PUBCHEM_MMFF94_PARTIAL_CHARGES>  (1) 
23
1 -0.52
10 0.14
11 0.27
15 0.14
16 0.27
17 -0.14
18 0.13
19 -0.15
2 -0.52
20 -0.15
21 -0.15
22 -0.15
3 -0.81
4 0.91
43 0.15
44 0.15
45 0.15
46 0.15
5 0.41
6 -0.28
7 -0.28
8 0.14
9 0.14

>  <PUBCHEM_EFFECTIVE_ROTOR_COUNT>  (1) 
5.6

>  <PUBCHEM_PHARMACOPHORE_FEATURES>  (1) 
7
1 1 acceptor
1 1 anion
1 2 acceptor
1 3 cation
6 17 18 19 20 21 22 rings
6 3 5 6 7 9 11 rings
6 6 7 8 10 12 14 rings

>  <PUBCHEM_HEAVY_ATOM_COUNT>  (1) 
22

>  <PUBCHEM_ATOM_DEF_STEREO_COUNT>  (1) 
0

>  <PUBCHEM_ATOM_UDEF_STEREO_COUNT>  (1) 
1

>  <PUBCHEM_BOND_DEF_STEREO_COUNT>  (1) 
0

>  <PUBCHEM_BOND_UDEF_STEREO_COUNT>  (1) 
0

>  <PUBCHEM_ISOTOPIC_ATOM_COUNT>  (1) 
0

>  <PUBCHEM_COMPONENT_COUNT>  (1) 
1

>  <PUBCHEM_CACTVS_TAUTO_COUNT>  (1) 
1

>  <PUBCHEM_CONFORMER_ID>  (1) 
0000B1F100000009

>  <PUBCHEM_MMFF94_ENERGY>  (1) 
54.8571

>  <PUBCHEM_FEATURE_SELFOVERLAP>  (1) 
35.619

>  <PUBCHEM_SHAPE_FINGERPRINT>  (1) 
10366900 7 18192148419692328345
10616163 171 18338517568140414102
11370993 144 18261960643693973401
11405975 8 18334852788779743586
11552529 35 18270401723419854083
12107183 9 18194684752531172402
12173636 292 18342452703028811287
12403260 363 18341603768878799567
12422481 6 18192967415118347640
12507560 40 18259706670742770317
12633257 1 18189609449775479922
12788726 201 17772449408538984335
12892183 10 18188220878628091659
13004483 165 18052526957721470279
13140716 1 18409450245634276931
13224815 77 18114739455618106444
13583140 156 18334574650739641437
14022347 108 17978794506858260294
14178342 30 18196070356763416194
14223421 5 18335139838212605935
14251751 93 18338232781754454928
14289901 80 18336826519235750400
14466204 15 17688862047418913088
15442244 35 18411133606927211272
1813 80 16443351982917550012
21065199 12 18334298686047618721
21731228 192 18410297969642591677
23558518 356 18261394485463343815
23559900 14 18059864913825757038
238 59 17395529993454494301
27216 239 18409452505362295633
350125 39 18411982485754422307
474 4 18055913200099638653
5048184 11 18411981403211803560
5104073 3 18336539495599280184
6287921 2 17969512678519641020
633830 44 17845098376523268437
7097593 13 18335420192340080356

>  <PUBCHEM_SHAPE_MULTIPOLES>  (1) 
431.05
8.92
3.51
1.09
4.7
0.79
0.08
-4.19
-2.08
-0.72
0.33
-0.96
0.05
-0.2

>  <PUBCHEM_SHAPE_SELFOVERLAP>  (1) 
912.747

>  <PUBCHEM_SHAPE_VOLUME>  (1) 
240

>  <PUBCHEM_COORDINATE_TYPE>  (1) 
2
5
10

$$$$
