45559
     RDKit          3D

 26 28  0  0  1  0  0  0  0  0999 V2000
   -7.2035    2.3521    0.8203 Cl  0  0  0  0  0  0  0  0  0  0  0  0
    3.3963    2.8945   -1.1982 O   0  0  0  0  0  0  0  0  0  0  0  0
    4.8882    1.9602    0.9498 O   0  0  0  0  0  0  0  0  0  0  0  0
    0.0826   -2.1983   -0.2202 N   0  0  0  0  0  0  0  0  0  0  0  0
    0.2108   -0.8126   -0.7234 C   0  0  0  0  0  0  0  0  0  0  0  0
    1.4705   -0.0895   -0.2752 C   0  0  0  0  0  0  0  0  0  0  0  0
    0.4291   -2.2976    1.2031 C   0  0  0  0  0  0  0  0  0  0  0  0
   -1.0384   -0.0104   -0.3242 C   0  0  0  0  0  0  0  0  0  0  0  0
    1.8509   -1.8309    1.5240 C   0  0  0  0  0  0  0  0  0  0  0  0
    2.2231   -0.5535    0.8186 C   0  0  0  0  0  0  0  0  0  0  0  0
    0.8340   -3.1513   -1.0377 C   0  0  0  0  0  0  0  0  0  0  0  0
   -2.3048   -0.7505   -0.7297 C   0  0  0  0  0  0  0  0  0  0  0  0
    1.8813    1.0753   -0.9432 C   0  0  0  0  0  0  0  0  0  0  0  0
    3.3726    0.1439    1.2169 C   0  0  0  0  0  0  0  0  0  0  0  0
    3.0215    1.7661   -0.5336 C   0  0  0  0  0  0  0  0  0  0  0  0
    3.7664    1.3009    0.5463 C   0  0  0  0  0  0  0  0  0  0  0  0
   -3.5341    0.0296   -0.3397 C   0  0  0  0  0  0  0  0  0  0  0  0
    0.5691   -4.5652   -0.6206 C   0  0  0  0  0  0  0  0  0  0  0  0
   -4.1065   -0.1782    0.9064 C   0  0  0  0  0  0  0  0  0  0  0  0
   -4.0742    0.9420   -1.2340 C   0  0  0  0  0  0  0  0  0  0  0  0
    1.5169   -5.4112   -0.2014 C   0  0  0  0  0  0  0  0  0  0  0  0
   -5.2450    0.5429    1.2665 C   0  0  0  0  0  0  0  0  0  0  0  0
   -5.2127    1.6631   -0.8738 C   0  0  0  0  0  0  0  0  0  0  0  0
   -5.7981    1.4635    0.3765 C   0  0  0  0  0  0  0  0  0  0  0  0
    4.2821    2.7320   -2.3041 C   0  0  0  0  0  0  0  0  0  0  0  0
    4.7220    2.9828    1.9305 C   0  0  0  0  0  0  0  0  0  0  0  0
  1 24  1  0
  2 15  1  0
  2 25  1  0
  3 16  1  0
  3 26  1  0
  4  5  1  0
  4  7  1  0
  4 11  1  0
  5  6  1  0
  5  8  1  0
  6 10  2  0
  6 13  1  0
  7  9  1  0
  8 12  1  0
  9 10  1  0
 10 14  1  0
 11 18  1  0
 12 17  1  0
 13 15  2  0
 14 16  2  0
 15 16  1  0
 17 19  2  0
 17 20  1  0
 18 21  2  0
 19 22  1  0
 20 23  2  0
 22 24  2  0
 23 24  1  0
M  END
>  <PUBCHEM_COMPOUND_CID>  (1) 
45559

>  <PUBCHEM_CONFORMER_RMSD>  (1) 
0.8

>  <PUBCHEM_CONFORMER_DIVERSEORDER>  (1) 
1
44
43
54
13
25
50
51
53
34
16
22
52
33
30
37
27
38
46
19
29
41
40
39
49
23
48
36
21
31
18
42
11
45
20
32
4
28
26
12
6
47
14
15
17
3
5
10
35
7
24
2
9
8

>  <PUBCHEM_MMFF94_PARTIAL_CHARGES>  (1) 
34
1 -0.18
10 -0.14
11 0.41
12 0.14
13 -0.15
14 -0.15
15 0.08
16 0.08
17 -0.14
18 -0.29
19 -0.15
2 -0.36
20 -0.15
21 -0.3
22 -0.15
23 -0.15
24 0.18
25 0.28
26 0.28
3 -0.36
38 0.15
39 0.15
4 -0.81
40 0.15
41 0.15
42 0.15
43 0.15
44 0.15
45 0.15
46 0.15
5 0.41
6 -0.14
7 0.27
9 0.14

>  <PUBCHEM_EFFECTIVE_ROTOR_COUNT>  (1) 
7.8

>  <PUBCHEM_PHARMACOPHORE_FEATURES>  (1) 
7
1 2 acceptor
1 21 hydrophobe
1 3 acceptor
1 4 cation
6 17 19 20 22 23 24 rings
6 4 5 6 7 9 10 rings
6 6 10 13 14 15 16 rings

>  <PUBCHEM_HEAVY_ATOM_COUNT>  (1) 
26

>  <PUBCHEM_ATOM_DEF_STEREO_COUNT>  (1) 
0

>  <PUBCHEM_ATOM_UDEF_STEREO_COUNT>  (1) 
1

>  <PUBCHEM_BOND_DEF_STEREO_COUNT>  (1) 
0

>  <PUBCHEM_BOND_UDEF_STEREO_COUNT>  (1) 
0

>  <PUBCHEM_ISOTOPIC_ATOM_COUNT>  (1) 
0

>  <PUBCHEM_COMPONENT_COUNT>  (1) 
1

>  <PUBCHEM_CACTVS_TAUTO_COUNT>  (1) 
1

>  <PUBCHEM_CONFORMER_ID>  (1) 
0000B1F700000001

>  <PUBCHEM_MMFF94_ENERGY>  (1) 
87.4126

>  <PUBCHEM_FEATURE_SELFOVERLAP>  (1) 
35.546

>  <PUBCHEM_SHAPE_FINGERPRINT>  (1) 
10554248 39 17700121107835531581
10937287 8 18341045323771454999
11135609 201 18129939117582884065
12422481 6 17895456073473693980
12633257 1 16515961557657708441
12788726 201 17541660951501165870
13583140 156 15937504070689378628
13631057 29 18057028320177067935
13782708 43 12685905114734329848
13955234 65 18268149760477156563
15238133 3 18338236093665577872
16992787 43 18268156349484814798
1813 80 17411063837940083423
18785283 64 18335703793342147798
19784866 34 18272082820953942953
1979834 28 18261397719821650877
20238998 120 17693090769587771282
20626108 58 11025793189315024407
20739085 24 18334013848354277204
21033648 29 18340772666468448920
21049683 271 18049172072793379222
21120745 212 17183073976937987431
21365058 113 17835255445495082447
21756936 100 18045508766279111836
221357 26 11743836950679731137
23559900 14 18044951077961418647
283562 15 18054773255724390719
3178227 256 18188492372348797794
474 4 18410575076474064471
5104073 3 18261099799071987171
5385378 56 18340208483953715969
57724786 102 18195815068540380249
6058803 2 17682947053804543520
77188 2 17621319035445752150
960060 61 13542469769242275097
9658208 31 18198630024122609862
9841814 1 17898568662106407691
9981440 41 18338514244131529403

>  <PUBCHEM_SHAPE_MULTIPOLES>  (1) 
520.22
13.09
5.23
1.66
22.68
7.36
-0.03
-16.43
3.13
-6.86
-0.9
-1.4
-0.99
-0.41

>  <PUBCHEM_SHAPE_SELFOVERLAP>  (1) 
1089.79

>  <PUBCHEM_SHAPE_VOLUME>  (1) 
295.8

>  <PUBCHEM_COORDINATE_TYPE>  (1) 
2
5
10

$$$$
