45551
     RDKit          3D

 14 16  0  0  1  0  0  0  0  0999 V2000
   -1.6794   -1.7256   -0.1928 O   0  0  0  0  0  0  0  0  0  0  0  0
   -3.2846    0.0342    0.1541 O   0  0  0  0  0  0  0  0  0  0  0  0
    2.6688   -1.0100   -0.1241 N   0  0  0  0  0  0  0  0  0  0  0  0
    0.2737   -0.2452   -0.1732 C   0  0  0  0  0  0  0  0  0  0  0  0
    1.2693   -1.3470   -0.4332 C   0  0  0  0  0  0  0  0  0  0  0  0
    2.1498    1.4491   -0.1256 C   0  0  0  0  0  0  0  0  0  0  0  0
    0.6841    1.0982   -0.0729 C   0  0  0  0  0  0  0  0  0  0  0  0
    3.0144    0.3071   -0.6723 C   0  0  0  0  0  0  0  0  0  0  0  0
   -1.0862   -0.5024   -0.0929 C   0  0  0  0  0  0  0  0  0  0  0  0
   -0.2688    2.1190    0.1372 C   0  0  0  0  0  0  0  0  0  0  0  0
   -2.0074    0.5019    0.1025 C   0  0  0  0  0  0  0  0  0  0  0  0
    2.9652   -1.1236    1.3025 C   0  0  0  0  0  0  0  0  0  0  0  0
   -1.6303    1.8223    0.2239 C   0  0  0  0  0  0  0  0  0  0  0  0
   -3.0687   -1.3781   -0.0332 C   0  0  0  0  0  0  0  0  0  0  0  0
  1  9  1  0
  1 14  1  0
  2 11  1  0
  2 14  1  0
  3  5  1  0
  3  8  1  0
  3 12  1  0
  4  5  1  0
  4  7  1  0
  4  9  2  0
  6  7  1  0
  6  8  1  0
  7 10  2  0
  9 11  1  0
 10 13  1  0
 11 13  2  0
M  END
>  <PUBCHEM_COMPOUND_CID>  (1) 
45551

>  <PUBCHEM_CONFORMER_RMSD>  (1) 
0.6

>  <PUBCHEM_CONFORMER_DIVERSEORDER>  (1) 
1
2

>  <PUBCHEM_MMFF94_PARTIAL_CHARGES>  (1) 
16
1 -0.36
10 -0.15
11 0.08
12 0.27
13 -0.15
14 0.56
2 -0.36
21 0.15
25 0.15
3 -0.81
4 -0.14
5 0.41
6 0.14
7 -0.14
8 0.27
9 0.08

>  <PUBCHEM_EFFECTIVE_ROTOR_COUNT>  (1) 
1.4

>  <PUBCHEM_PHARMACOPHORE_FEATURES>  (1) 
6
1 1 acceptor
1 2 acceptor
1 3 cation
5 1 2 9 11 14 rings
6 3 4 5 6 7 8 rings
6 4 7 9 10 11 13 rings

>  <PUBCHEM_HEAVY_ATOM_COUNT>  (1) 
14

>  <PUBCHEM_ATOM_DEF_STEREO_COUNT>  (1) 
0

>  <PUBCHEM_ATOM_UDEF_STEREO_COUNT>  (1) 
0

>  <PUBCHEM_BOND_DEF_STEREO_COUNT>  (1) 
0

>  <PUBCHEM_BOND_UDEF_STEREO_COUNT>  (1) 
0

>  <PUBCHEM_ISOTOPIC_ATOM_COUNT>  (1) 
0

>  <PUBCHEM_COMPONENT_COUNT>  (1) 
1

>  <PUBCHEM_CACTVS_TAUTO_COUNT>  (1) 
1

>  <PUBCHEM_CONFORMER_ID>  (1) 
0000B1EF00000001

>  <PUBCHEM_MMFF94_ENERGY>  (1) 
36.5684

>  <PUBCHEM_FEATURE_SELFOVERLAP>  (1) 
30.621

>  <PUBCHEM_SHAPE_FINGERPRINT>  (1) 
10130415 120 18409446985965076515
10967382 1 18123753324751271349
11132069 177 18343017765974234266
11769659 78 18261105279276111219
12202030 40 15719975552157720864
12382932 28 18270960133408220832
12932764 1 17822579304554661100
14144814 61 18411985753807679795
15375462 189 18261399969983353507
16945 1 18340770321246974012
17804303 29 18055068758069012218
17990270 104 18340774758312148774
193761 8 17619072729084239511
20201158 50 18411139138534079583
20510252 161 18130228142532287416
20525323 117 18272360928254157396
20559304 39 18409166589241610242
20645477 70 18053099820538239999
20871998 184 18130505249579687151
21267235 1 18339092565334929287
21501502 16 18410015416117731084
21501925 9 18339068371783904138
22445834 79 18115303350459259858
22721475 48 18412832377771603797
2334 1 18339642372756639301
23388829 49 18198052784259204436
23402539 116 18199452304148661989
23419403 2 15259672817640146399
23463225 33 18409731772171752660
23552423 10 18190184666145033341
23559900 14 18127408952639239654
2748010 2 18268991071270655573
3312278 4 18336272348031873560
34934 24 18268986656012646229
528886 8 18341332283352480026
53812654 25 18201709687061168143
7364860 26 18055918937675163056
8809292 202 18334303088347236770

>  <PUBCHEM_SHAPE_MULTIPOLES>  (1) 
271.39
4.93
2.08
0.79
0.01
0.49
-0.13
-1.53
-0.34
0.31
-0.09
-0.49
-0.13
-0.45

>  <PUBCHEM_SHAPE_SELFOVERLAP>  (1) 
594.925

>  <PUBCHEM_SHAPE_VOLUME>  (1) 
145.6

>  <PUBCHEM_COORDINATE_TYPE>  (1) 
2
5
10

$$$$
