4556
     RDKit          3D

 22 23  0  0  0  0  0  0  0  0999 V2000
   -0.5275   -0.7704   -0.5011 O   0  0  0  0  0  0  0  0  0  0  0  0
    1.4907    2.9278    1.6737 O   0  0  0  0  0  0  0  0  0  0  0  0
    2.8500    1.2711    0.8739 N   0  0  0  0  0  0  0  0  0  0  0  0
    0.4242    1.1073    0.5780 C   0  0  0  0  0  0  0  0  0  0  0  0
    0.5790   -0.0655   -0.0634 C   0  0  0  0  0  0  0  0  0  0  0  0
    1.9196   -0.6367   -0.3051 C   0  0  0  0  0  0  0  0  0  0  0  0
    3.0314    0.0581    0.1922 C   0  0  0  0  0  0  0  0  0  0  0  0
   -0.9073    1.7462    0.8530 C   0  0  0  0  0  0  0  0  0  0  0  0
    1.6208    1.8533    1.0886 C   0  0  0  0  0  0  0  0  0  0  0  0
    2.1529   -1.8228   -1.0180 C   0  0  0  0  0  0  0  0  0  0  0  0
    4.3329   -0.4231    0.0108 C   0  0  0  0  0  0  0  0  0  0  0  0
   -1.3253    2.6555   -0.2602 C   0  0  0  0  0  0  0  0  0  0  0  0
    3.4527   -2.3057   -1.2030 C   0  0  0  0  0  0  0  0  0  0  0  0
   -0.9851   -1.6538    0.5026 C   0  0  0  0  0  0  0  0  0  0  0  0
    4.5408   -1.6094   -0.6859 C   0  0  0  0  0  0  0  0  0  0  0  0
   -2.4528    2.5950   -0.9949 C   0  0  0  0  0  0  0  0  0  0  0  0
   -2.1632   -2.4220   -0.0085 C   0  0  0  0  0  0  0  0  0  0  0  0
   -2.8156    3.5419   -2.1035 C   0  0  0  0  0  0  0  0  0  0  0  0
   -3.4789    1.5253   -0.7303 C   0  0  0  0  0  0  0  0  0  0  0  0
   -3.4044   -2.4835    0.5099 C   0  0  0  0  0  0  0  0  0  0  0  0
   -4.4639   -3.3247   -0.1524 C   0  0  0  0  0  0  0  0  0  0  0  0
   -3.8710   -1.7636    1.7435 C   0  0  0  0  0  0  0  0  0  0  0  0
  1  5  1  0
  1 14  1  0
  2  9  2  0
  3  7  1  0
  3  9  1  0
  4  5  2  0
  4  8  1  0
  4  9  1  0
  5  6  1  0
  6  7  2  0
  6 10  1  0
  7 11  1  0
  8 12  1  0
 10 13  2  0
 11 15  2  0
 12 16  2  3
 13 15  1  0
 14 17  1  0
 16 18  1  0
 16 19  1  0
 17 20  2  3
 20 21  1  0
 20 22  1  0
M  END
>  <PUBCHEM_COMPOUND_CID>  (1) 
4556

>  <PUBCHEM_CONFORMER_RMSD>  (1) 
0.8

>  <PUBCHEM_CONFORMER_DIVERSEORDER>  (1) 
1
55
18
48
51
5
47
22
9
56
65
19
20
69
15
37
70
6
35
10
36
23
73
42
29
32
72
14
57
66
67
71
58
11
26
50
64
44
52
28
17
63
74
31
41
46
61
49
16
12
53
33
40
7
62
8
59
34
30
13
43
25
38
60
54
24
3
68
39
2
4
27
21
75
45

>  <PUBCHEM_MMFF94_PARTIAL_CHARGES>  (1) 
29
1 -0.36
10 -0.15
11 -0.15
12 -0.29
13 -0.15
14 0.42
15 -0.15
16 -0.28
17 -0.29
18 0.14
19 0.14
2 -0.57
20 -0.28
21 0.14
22 0.14
25 0.37
26 0.15
27 0.15
28 0.15
3 -0.55
31 0.15
32 0.15
33 0.15
4 -0.12
5 0.05
6 0.03
7 0.12
8 0.28
9 0.62

>  <PUBCHEM_EFFECTIVE_ROTOR_COUNT>  (1) 
5

>  <PUBCHEM_PHARMACOPHORE_FEATURES>  (1) 
7
1 1 acceptor
1 2 acceptor
1 3 donor
3 16 18 19 hydrophobe
3 20 21 22 hydrophobe
6 3 4 5 6 7 9 rings
6 6 7 10 11 13 15 rings

>  <PUBCHEM_HEAVY_ATOM_COUNT>  (1) 
22

>  <PUBCHEM_ATOM_DEF_STEREO_COUNT>  (1) 
0

>  <PUBCHEM_ATOM_UDEF_STEREO_COUNT>  (1) 
0

>  <PUBCHEM_BOND_DEF_STEREO_COUNT>  (1) 
0

>  <PUBCHEM_BOND_UDEF_STEREO_COUNT>  (1) 
0

>  <PUBCHEM_ISOTOPIC_ATOM_COUNT>  (1) 
0

>  <PUBCHEM_COMPONENT_COUNT>  (1) 
1

>  <PUBCHEM_CACTVS_TAUTO_COUNT>  (1) 
2

>  <PUBCHEM_CONFORMER_ID>  (1) 
000011CC00000001

>  <PUBCHEM_MMFF94_ENERGY>  (1) 
51.1329

>  <PUBCHEM_FEATURE_SELFOVERLAP>  (1) 
35.545

>  <PUBCHEM_SHAPE_FINGERPRINT>  (1) 
10688039 33 18261680375698050815
108634 29 18339917117482908087
1100329 8 17542783110238455339
11680986 33 18201429277489820968
116883 192 18336546122311655071
12293681 160 17551779335909582472
12403259 226 18340768233998649011
12730499 353 17685774619543948549
12788726 201 18113902705741973602
13140716 1 18201159841707088466
13149001 5 18269263582666768548
13402501 40 18339927018041641743
13540713 4 18343575240646297448
13899415 180 18193546986078739591
14251757 17 18340204064242678843
14790565 3 17477210899621878568
15420108 30 16466411263304750705
17357779 13 18339630257134101439
1813 80 18117007773976453323
20739085 24 17762332917651455920
21049683 271 18050866699288963374
21285901 2 18265890435838193863
21452121 99 18189878838798673905
21641784 216 18043552670452355700
221490 88 18343017804982484628
22182313 1 18130497605186857016
23419403 2 17703214204687278691
23559900 14 18126284139412136718
2748010 2 18131060546571442696
352729 6 17982177712447137470
4409770 3 18265621974612487487
5283268 108 18191025818884754515
58779409 54 18338515231499071478
58779409 8 18190174586162537069
7164475 11 18261966210166592758
7237137 82 18265354879423336446
81228 2 18261118521124508785
9709674 26 18342166748295761268
9981440 41 16909411949503150688

>  <PUBCHEM_SHAPE_MULTIPOLES>  (1) 
436.03
8.19
4.61
1.44
1.78
0.89
-0.02
-5.39
-1.25
-5.69
-0.81
-0.51
0.82
3.35

>  <PUBCHEM_SHAPE_SELFOVERLAP>  (1) 
908.291

>  <PUBCHEM_SHAPE_VOLUME>  (1) 
247.4

>  <PUBCHEM_COORDINATE_TYPE>  (1) 
2
5
10

$$$$
