45577
     RDKit          3D

 25 28  0  0  0  0  0  0  0  0999 V2000
    0.2717    3.6086    1.0020 Cl  0  0  0  0  0  0  0  0  0  0  0  0
    1.3880    1.6991    2.8577 Cl  0  0  0  0  0  0  0  0  0  0  0  0
   -1.4800    1.9973    2.6870 Cl  0  0  0  0  0  0  0  0  0  0  0  0
    0.0097    0.8055    0.6188 C   0  0  0  0  0  0  0  0  0  0  0  0
    2.0984   -0.4572   -0.0490 C   0  0  0  0  0  0  0  0  0  0  0  0
   -2.1294   -0.4028   -0.0494 C   0  0  0  0  0  0  0  0  0  0  0  0
    1.2594    0.6586   -0.1900 C   0  0  0  0  0  0  0  0  0  0  0  0
   -1.2440    0.6725   -0.2182 C   0  0  0  0  0  0  0  0  0  0  0  0
    1.7059   -1.5516    0.9121 C   0  0  0  0  0  0  0  0  0  0  0  0
   -1.8087   -1.4613    0.9762 C   0  0  0  0  0  0  0  0  0  0  0  0
    3.2536   -0.5579   -0.8462 C   0  0  0  0  0  0  0  0  0  0  0  0
   -3.2630   -0.5005   -0.8773 C   0  0  0  0  0  0  0  0  0  0  0  0
    2.8565   -2.4974    1.2510 C   0  0  0  0  0  0  0  0  0  0  0  0
   -3.0043   -2.3461    1.3240 C   0  0  0  0  0  0  0  0  0  0  0  0
    4.2007   -1.7249   -0.7182 C   0  0  0  0  0  0  0  0  0  0  0  0
   -4.2586   -1.6229   -0.7214 C   0  0  0  0  0  0  0  0  0  0  0  0
    3.5800   -2.9318   -0.0172 C   0  0  0  0  0  0  0  0  0  0  0  0
   -3.7057   -2.8159    0.0562 C   0  0  0  0  0  0  0  0  0  0  0  0
    0.0248    1.9718    1.6910 C   0  0  0  0  0  0  0  0  0  0  0  0
    1.5747    1.6753   -1.0907 C   0  0  0  0  0  0  0  0  0  0  0  0
   -1.4923    1.6533   -1.1779 C   0  0  0  0  0  0  0  0  0  0  0  0
    3.5649    0.4768   -1.7413 C   0  0  0  0  0  0  0  0  0  0  0  0
   -3.5067    0.4984   -1.8322 C   0  0  0  0  0  0  0  0  0  0  0  0
    2.7284    1.5857   -1.8641 C   0  0  0  0  0  0  0  0  0  0  0  0
   -2.6242    1.5675   -1.9828 C   0  0  0  0  0  0  0  0  0  0  0  0
  1 19  1  0
  2 19  1  0
  3 19  1  0
  4  7  1  0
  4  8  1  0
  4 19  1  0
  5  7  1  0
  5  9  1  0
  5 11  2  0
  6  8  1  0
  6 10  1  0
  6 12  2  0
  7 20  2  0
  8 21  2  0
  9 13  1  0
 10 14  1  0
 11 15  1  0
 11 22  1  0
 12 16  1  0
 12 23  1  0
 13 17  1  0
 14 18  1  0
 15 17  1  0
 16 18  1  0
 20 24  1  0
 21 25  1  0
 22 24  2  0
 23 25  2  0
M  END
>  <PUBCHEM_COMPOUND_CID>  (1) 
45577

>  <PUBCHEM_CONFORMER_RMSD>  (1) 
0.8

>  <PUBCHEM_CONFORMER_DIVERSEORDER>  (1) 
1
3
2

>  <PUBCHEM_MMFF94_PARTIAL_CHARGES>  (1) 
27
1 -0.29
10 0.14
11 -0.14
12 -0.14
15 0.14
16 0.14
19 0.87
2 -0.29
20 -0.15
21 -0.15
22 -0.15
23 -0.15
24 -0.15
25 -0.15
3 -0.29
4 0.29
43 0.15
44 0.15
45 0.15
46 0.15
47 0.15
48 0.15
5 -0.14
6 -0.14
7 -0.14
8 -0.14
9 0.14

>  <PUBCHEM_EFFECTIVE_ROTOR_COUNT>  (1) 
4.6

>  <PUBCHEM_PHARMACOPHORE_FEATURES>  (1) 
4
6 5 7 11 20 22 24 rings
6 5 9 11 13 15 17 rings
6 6 10 12 14 16 18 rings
6 6 8 12 21 23 25 rings

>  <PUBCHEM_HEAVY_ATOM_COUNT>  (1) 
25

>  <PUBCHEM_ATOM_DEF_STEREO_COUNT>  (1) 
0

>  <PUBCHEM_ATOM_UDEF_STEREO_COUNT>  (1) 
0

>  <PUBCHEM_BOND_DEF_STEREO_COUNT>  (1) 
0

>  <PUBCHEM_BOND_UDEF_STEREO_COUNT>  (1) 
0

>  <PUBCHEM_ISOTOPIC_ATOM_COUNT>  (1) 
0

>  <PUBCHEM_COMPONENT_COUNT>  (1) 
1

>  <PUBCHEM_CACTVS_TAUTO_COUNT>  (1) 
1

>  <PUBCHEM_CONFORMER_ID>  (1) 
0000B20900000001

>  <PUBCHEM_MMFF94_ENERGY>  (1) 
79.5893

>  <PUBCHEM_FEATURE_SELFOVERLAP>  (1) 
20.342

>  <PUBCHEM_SHAPE_FINGERPRINT>  (1) 
10483366 6 14151895396169457767
10756046 5 17967812730104908638
10764073 3 17396922086897363696
11578080 2 18268410362050322440
12160290 23 17271744779392043664
12363563 72 17631716189058692878
12506688 2 18411981381573456246
12553582 1 17489597782755123262
12596599 1 18121512262883879822
12707595 3 18060132167464026583
12788726 201 18057615252251956121
12824470 246 18340780298513927397
12892183 10 12103837973312982655
13009979 54 18197788700212119874
13681431 1 17845919835989234993
13911987 19 17832165066386559668
14787075 74 18055916735000193528
15664445 248 17389377427323417757
16945 1 17967534562321645836
17492 54 16234509898282207231
1813 80 16702036299935512812
20600515 1 17829009210068066368
20626108 58 17823675539397119434
20775438 99 17685448365232189087
20775530 9 18409449180477879355
21731516 1 17632303384023404577
22393880 68 18041284292460734886
229495 10 17824856436107161385
23557571 272 18189033439064206237
23559900 14 18115012112858251277
23598288 3 17700723716392960816
238 59 17241627163542969934
27425 322 15575004931498687279
3493558 16 11249592514765664702
35225 105 17127912144371478736
4280585 95 17826792530735658582
463206 1 18341608269530876727
57527585 103 17609247587500078683
5845 1 16487251041219013625
6669772 16 17697869625564686880
81228 2 17487334828932910881
9709674 26 18040715883013140167

>  <PUBCHEM_SHAPE_MULTIPOLES>  (1) 
520.1
7.25
3.69
2.41
0.38
0.08
0.81
6.17
-3.14
-0.29
1.67
0.09
-1.72
0.06

>  <PUBCHEM_SHAPE_SELFOVERLAP>  (1) 
1096.989

>  <PUBCHEM_SHAPE_VOLUME>  (1) 
276.9

>  <PUBCHEM_COORDINATE_TYPE>  (1) 
2
5
10

$$$$
