4557
     RDKit          3D

 19 18  0  0  1  0  0  0  0  0999 V2000
   -1.8210   -2.7645    0.7917 O   0  0  0  0  0  0  0  0  0  0  0  0
    7.9990   -0.4900    0.0083 O   0  0  0  0  0  0  0  0  0  0  0  0
   -4.8840    0.4215    0.1719 C   0  0  0  0  0  0  0  0  0  0  0  0
   -3.9780   -0.7905   -0.0564 C   0  0  0  0  0  0  0  0  0  0  0  0
   -6.3633    0.1306   -0.1015 C   0  0  0  0  0  0  0  0  0  0  0  0
   -2.4965   -0.5025    0.2231 C   0  0  0  0  0  0  0  0  0  0  0  0
   -7.3232    1.3022    0.1306 C   0  0  0  0  0  0  0  0  0  0  0  0
   -1.5443   -1.6686   -0.0761 C   0  0  0  0  0  0  0  0  0  0  0  0
   -8.7932    1.0287   -0.1956 C   0  0  0  0  0  0  0  0  0  0  0  0
   -9.6947    2.2362    0.0081 C   0  0  0  0  0  0  0  0  0  0  0  0
   -0.1162   -1.2591    0.1566 C   0  0  0  0  0  0  0  0  0  0  0  0
    0.8357   -1.3249   -0.7847 C   0  0  0  0  0  0  0  0  0  0  0  0
    2.1735   -0.9265   -0.5208 C   0  0  0  0  0  0  0  0  0  0  0  0
    3.3052   -0.5907   -0.3024 C   0  0  0  0  0  0  0  0  0  0  0  0
    4.5983   -0.2066   -0.0520 C   0  0  0  0  0  0  0  0  0  0  0  0
    7.1129    0.5383    0.4412 C   0  0  0  0  0  0  0  0  0  0  0  0
    5.7300    0.1301    0.1670 C   0  0  0  0  0  0  0  0  0  0  0  0
    7.4292    1.8026   -0.3008 C   0  0  0  0  0  0  0  0  0  0  0  0
    7.8304    2.9334    0.2917 C   0  0  0  0  0  0  0  0  0  0  0  0
  1  8  1  0
  2 16  1  0
  3  4  1  0
  3  5  1  0
  4  6  1  0
  5  7  1  0
  6  8  1  0
  7  9  1  0
  8 11  1  0
  9 10  1  0
 11 12  2  0
 12 13  1  0
 13 14  3  0
 14 15  1  0
 15 17  3  0
 16 17  1  0
 16 18  1  0
 18 19  2  0
M  END
>  <PUBCHEM_COMPOUND_CID>  (1) 
4557

>  <PUBCHEM_CONFORMER_RMSD>  (1) 
0.8

>  <PUBCHEM_CONFORMER_DIVERSEORDER>  (1) 
1
461
89
336
231
287
471
497
360
418
282
47
295
64
429
423
324
344
46
475
211
52
496
374
256
280
474
405
171
112
490
58
398
285
394
193
146
137
428
135
409
23
300
212
172
377
327
382
246
492
250
469
210
234
38
450
326
291
305
284
392
399
297
216
342
57
470
194
445
332
165
255
338
185
127
437
182
343
403
466
62
464
222
217
362
156
269
468
306
276
6
396
166
486
140
347
9
341
401
105
179
5
438
457
393
200
41
449
252
100
433
421
323
463
441
68
290
225
416
311
26
307
208
447
385
483
419
254
316
116
107
388
157
122
124
236
310
134
340
292
92
412
389
265
431
42
119
24
288
97
277
348
444
440
414
479
206
73
164
48
315
262
493
436
477
384
422
258
458
376
350
160
312
286
10
448
3
175
321
451
43
232
132
485
139
99
162
397
373
272
411
400
386
4
368
218
196
118
365
115
281
308
381
320
14
153
240
111
299
314
45
205
141
482
29
242
214
345
289
85
439
195
247
325
443
125
12
383
413
241
15
478
19
353
184
278
147
356
430
363
407
143
274
88
61
372
371
494
86
16
151
201
484
245
459
296
425
251
387
229
174
94
126
488
235
120
221
177
2
158
375
473
395
79
8
181
260
114
39
462
159
228
226
354
108
333
191
189
145
359
275
11
467
123
331
420
367
480
432
44
90
173
406
404
239
298
259
434
293
130
30
35
213
446
220
495
36
198
268
49
264
77
69
410
150
199
65
452
87
302
460
427
129
357
20
267
230
152
128
80
426
109
361
481
303
76
456
148
31
176
417
53
489
25
60
329
355
121
203
131
318
154
33
21
110
465
161
34
55
358
136
142
351
294
104
304
435
81
178
188
346
244
63
472
378
149
74
273
51
102
168
491
40
369
190
349
204
32
224
454
28
22
96
309
442
82
93
402
27
170
271
13
266
17
163
54
263
223
487
233
183
328
186
169
7
390
249
133
75
91
364
138
283
257
187
167
408
78
56
227
237
106
317
67
243
453
83
202
215
301
319
379
238
330
313
98
370
101
72
71
37
192
335
322
415
180
18
253
476
144
197
455
337
155
59
70
352
366
380
219
339
50
117
113
279
248
66
95
84
424
391
334
209
103
207
270
261

>  <PUBCHEM_MMFF94_PARTIAL_CHARGES>  (1) 
17
1 -0.68
11 -0.29
12 -0.09
13 -0.06
16 0.62
17 -0.2
18 -0.29
19 -0.3
2 -0.68
36 0.15
37 0.4
38 0.15
40 0.15
41 0.4
42 0.15
43 0.15
8 0.42

>  <PUBCHEM_EFFECTIVE_ROTOR_COUNT>  (1) 
8

>  <PUBCHEM_PHARMACOPHORE_FEATURES>  (1) 
8
1 1 acceptor
1 1 donor
1 10 hydrophobe
1 19 hydrophobe
1 2 acceptor
1 2 donor
3 3 4 6 hydrophobe
3 5 7 9 hydrophobe

>  <PUBCHEM_HEAVY_ATOM_COUNT>  (1) 
19

>  <PUBCHEM_ATOM_DEF_STEREO_COUNT>  (1) 
0

>  <PUBCHEM_ATOM_UDEF_STEREO_COUNT>  (1) 
2

>  <PUBCHEM_BOND_DEF_STEREO_COUNT>  (1) 
0

>  <PUBCHEM_BOND_UDEF_STEREO_COUNT>  (1) 
1

>  <PUBCHEM_ISOTOPIC_ATOM_COUNT>  (1) 
0

>  <PUBCHEM_COMPONENT_COUNT>  (1) 
1

>  <PUBCHEM_CACTVS_TAUTO_COUNT>  (1) 
1

>  <PUBCHEM_CONFORMER_ID>  (1) 
000011CD00000001

>  <PUBCHEM_MMFF94_ENERGY>  (1) 
5.9406

>  <PUBCHEM_FEATURE_SELFOVERLAP>  (1) 
40.608

>  <PUBCHEM_SHAPE_FINGERPRINT>  (1) 
125118 31 18336549404331677748
12539745 222 11891325440593608839
13668630 136 10952053346596846050
13673619 4 7997969068115139871
14026016 60 15338574734834736268
14178184 131 11242553128209274761
14251757 52 18409444808923423680
14251764 18 18041279967080416734
14251920 17 18409165482369662981
14344974 52 17489576892899182857
14428016 86 18341334405499126763
14729087 3 18409166602332097535
155225 1 18412825760145275233
15690457 1 8502368928103701449
1768 4 18341058458846914145
1818759 1 9799689312129952125
20281389 69 18260545628590737908
20554085 129 18059842953210236074
20771845 65 8358244957052750183
21095086 128 8934997071357369389
21130971 5 13335277743472657840
21130991 4 11023841543966859316
21150785 3 15339116832125308863
21521239 73 11959741473610561396
21585482 111 18267303330599728640
22224240 67 17894347787132845307
22288116 15 17417520428237565015
23524908 199 17775011138120342206
246663 6 9223227455903440583
33532 11 8502656999865439556
5470011 282 12319729280713877776
59682541 35 17894917330514849369
6327066 14 18272370896963429262
636775 72 18409731721751275961

>  <PUBCHEM_SHAPE_MULTIPOLES>  (1) 
379.27
33.11
2.45
0.71
17.73
0.87
0.01
32.09
-0.69
-0.79
-0.22
-0.1
-0.1
0.51

>  <PUBCHEM_SHAPE_SELFOVERLAP>  (1) 
715.666

>  <PUBCHEM_SHAPE_VOLUME>  (1) 
231.1

>  <PUBCHEM_COORDINATE_TYPE>  (1) 
2
5
10

$$$$
