45575
     RDKit          3D

 30 33  0  0  0  0  0  0  0  0999 V2000
    4.8710   -0.6335   -0.9968 S   0  0  0  0  0  0  0  0  0  0  0  0
    3.5750    3.3684    0.2535 S   0  0  0  0  0  0  0  0  0  0  0  0
    3.0704   -2.9519   -0.0408 O   0  0  0  0  0  0  0  0  0  0  0  0
    0.5892    4.1117    0.1977 O   0  0  0  0  0  0  0  0  0  0  0  0
   -0.5341   -2.9325   -0.7456 C   0  0  0  0  0  0  0  0  0  0  0  0
   -2.4086    2.0504   -0.3685 C   0  0  0  0  0  0  0  0  0  0  0  0
   -1.0542   -2.9322    0.5705 C   0  0  0  0  0  0  0  0  0  0  0  0
   -2.7065    1.6568    0.9578 C   0  0  0  0  0  0  0  0  0  0  0  0
    1.7242   -2.9459    0.1589 C   0  0  0  0  0  0  0  0  0  0  0  0
   -0.4913    3.3063    0.4471 C   0  0  0  0  0  0  0  0  0  0  0  0
    0.8575   -2.9398   -0.9343 C   0  0  0  0  0  0  0  0  0  0  0  0
   -1.2972    2.8751   -0.6070 C   0  0  0  0  0  0  0  0  0  0  0  0
    3.8771   -2.3218    0.9532 C   0  0  0  0  0  0  0  0  0  0  0  0
    1.2281    3.9552   -1.0625 C   0  0  0  0  0  0  0  0  0  0  0  0
    5.1780   -1.8325    0.3361 C   0  0  0  0  0  0  0  0  0  0  0  0
    2.6879    4.3688   -0.9623 C   0  0  0  0  0  0  0  0  0  0  0  0
   -0.1672   -2.9387    1.6593 C   0  0  0  0  0  0  0  0  0  0  0  0
   -1.8844    2.1000    2.0066 C   0  0  0  0  0  0  0  0  0  0  0  0
    4.5813    0.8257    0.0289 C   0  0  0  0  0  0  0  0  0  0  0  0
    3.8591    1.8970   -0.7756 C   0  0  0  0  0  0  0  0  0  0  0  0
    1.2127   -2.9455    1.4532 C   0  0  0  0  0  0  0  0  0  0  0  0
   -0.7844    2.9194    1.7513 C   0  0  0  0  0  0  0  0  0  0  0  0
   -1.4211   -2.9264   -1.8346 C   0  0  0  0  0  0  0  0  0  0  0  0
   -3.2304    1.6070   -1.4175 C   0  0  0  0  0  0  0  0  0  0  0  0
   -2.4459   -2.9250    0.7591 C   0  0  0  0  0  0  0  0  0  0  0  0
   -3.8181    0.8320    1.1961 C   0  0  0  0  0  0  0  0  0  0  0  0
   -2.8009   -2.9192   -1.6287 C   0  0  0  0  0  0  0  0  0  0  0  0
   -4.3307    0.7880   -1.1625 C   0  0  0  0  0  0  0  0  0  0  0  0
   -3.3123   -2.9183   -0.3345 C   0  0  0  0  0  0  0  0  0  0  0  0
   -4.6240    0.4015    0.1418 C   0  0  0  0  0  0  0  0  0  0  0  0
  1 15  1  0
  1 19  1  0
  2 16  1  0
  2 20  1  0
  3  9  1  0
  3 13  1  0
  4 10  1  0
  4 14  1  0
  5  7  1  0
  5 11  2  0
  5 23  1  0
  6  8  1  0
  6 12  2  0
  6 24  1  0
  7 17  2  0
  7 25  1  0
  8 18  2  0
  8 26  1  0
  9 11  1  0
  9 21  2  0
 10 12  1  0
 10 22  2  0
 13 15  1  0
 14 16  1  0
 17 21  1  0
 18 22  1  0
 19 20  1  0
 23 27  2  0
 24 28  2  0
 25 29  2  0
 26 30  2  0
 27 29  1  0
 28 30  1  0
M  END
>  <PUBCHEM_COMPOUND_CID>  (1) 
45575

>  <PUBCHEM_CONFORMER_RMSD>  (1) 
1.4

>  <PUBCHEM_CONFORMER_DIVERSEORDER>  (1) 
1
47
17
56
92
145
5
16
50
108
34
58
98
142
60
14
3
57
2
119
66
120
85
67
64
111
6
109
90
118
149
49
105
137
135
55
44
12
36
107
122
61
80
48
86
28
147
33
68
69
73
53
91
82
125
151
101
127
117
112
43
132
20
116
52
123
75
124
78
138
46
88
70
106
113
41
87
8
103
139
130
29
24
81
89
148
79
143
144
71
114
104
97
141
94
62
146
133
95
25
76
30
63
19
121
93
126
136
51
39
150
129
40
131
42
23
35
10
26
31
7
54
59
77
11
65
18
15
37
27
9
96
74
134
45
22
84
102
38
100
13
72
83
110
32
128
4
21
140
99
115

>  <PUBCHEM_MMFF94_PARTIAL_CHARGES>  (1) 
40
1 -0.46
10 0.08
11 -0.15
12 -0.15
13 0.28
14 0.28
15 0.23
16 0.23
17 -0.15
18 -0.15
19 0.23
2 -0.46
20 0.23
21 -0.15
22 -0.15
23 -0.15
24 -0.15
25 -0.15
26 -0.15
27 -0.15
28 -0.15
29 -0.15
3 -0.36
30 -0.15
31 0.15
32 0.15
4 -0.36
41 0.15
42 0.15
47 0.15
48 0.15
49 0.15
50 0.15
51 0.15
52 0.15
53 0.15
54 0.15
55 0.15
56 0.15
9 0.08

>  <PUBCHEM_EFFECTIVE_ROTOR_COUNT>  (1) 
11

>  <PUBCHEM_PHARMACOPHORE_FEATURES>  (1) 
8
1 3 acceptor
1 4 acceptor
3 1 15 19 hydrophobe
3 2 16 20 hydrophobe
6 5 7 23 25 27 29 rings
6 5 7 9 11 17 21 rings
6 6 8 10 12 18 22 rings
6 6 8 24 26 28 30 rings

>  <PUBCHEM_HEAVY_ATOM_COUNT>  (1) 
30

>  <PUBCHEM_ATOM_DEF_STEREO_COUNT>  (1) 
0

>  <PUBCHEM_ATOM_UDEF_STEREO_COUNT>  (1) 
0

>  <PUBCHEM_BOND_DEF_STEREO_COUNT>  (1) 
0

>  <PUBCHEM_BOND_UDEF_STEREO_COUNT>  (1) 
0

>  <PUBCHEM_ISOTOPIC_ATOM_COUNT>  (1) 
0

>  <PUBCHEM_COMPONENT_COUNT>  (1) 
1

>  <PUBCHEM_CACTVS_TAUTO_COUNT>  (1) 
1

>  <PUBCHEM_CONFORMER_ID>  (1) 
0000B20700000001

>  <PUBCHEM_MMFF94_ENERGY>  (1) 
93.5897

>  <PUBCHEM_FEATURE_SELFOVERLAP>  (1) 
40.65

>  <PUBCHEM_SHAPE_FINGERPRINT>  (1) 
11513181 2 17984715664630544558
12978246 48 18194682562472293314
13122387 1 18338521820427179408
14117953 113 17979632334201382053
15001296 14 18409164445852423972
15274700 232 15529679402833231886
161222 619 17761809198335713497
17627616 140 18263364844791691836
20764821 26 18267308805864405048
22113638 7 18410572851660081660
24941158 1 14852150872300253800
3027735 51 17835525194951975041
325973 47 18193277618640534220
354706 35 15963696984536626468
437795 70 18128000545703334518
4403749 210 17469863504539237810
45266715 3 16545216525968578631
463206 1 18410856542692555264
50150288 127 17268958857461174688
5047190 2 18341614884106858163
50677037 204 18341326696306974834
5309563 4 18192155901905828480
6287921 2 17553492383546695183
6433294 58 17834679679211458764
9831354 38 17553716959308086975

>  <PUBCHEM_SHAPE_MULTIPOLES>  (1) 
613.35
9.17
7.62
1.68
6.4
1.7
0.18
0.06
-1.46
2.44
-0.1
-0.92
-0.14
-1.68

>  <PUBCHEM_SHAPE_SELFOVERLAP>  (1) 
1290.748

>  <PUBCHEM_SHAPE_VOLUME>  (1) 
346.6

>  <PUBCHEM_COORDINATE_TYPE>  (1) 
2
5
10

$$$$
