45584
     RDKit          3D

 26 29  0  0  0  0  0  0  0  0999 V2000
   -1.3133   -0.2664   -0.2060 N   0  0  0  0  0  0  0  0  0  0  0  0
    4.1122   -2.1050   -1.4100 N   0  0  0  0  0  0  0  0  0  0  0  0
    0.0834   -0.3451   -0.6204 C   0  0  0  0  0  0  0  0  0  0  0  0
    0.8257   -1.5085    0.0648 C   0  0  0  0  0  0  0  0  0  0  0  0
    2.2488   -1.5809   -0.3236 C   0  0  0  0  0  0  0  0  0  0  0  0
   -2.0208   -1.5022   -0.5446 C   0  0  0  0  0  0  0  0  0  0  0  0
   -1.9711    0.8829   -0.8294 C   0  0  0  0  0  0  0  0  0  0  0  0
    3.3386   -0.9356    0.3252 C   0  0  0  0  0  0  0  0  0  0  0  0
    4.4957   -1.2808   -0.3762 C   0  0  0  0  0  0  0  0  0  0  0  0
    2.7562   -2.2921   -1.3865 C   0  0  0  0  0  0  0  0  0  0  0  0
   -3.4501   -1.4778   -0.0720 C   0  0  0  0  0  0  0  0  0  0  0  0
   -1.2704    2.1751   -0.5032 C   0  0  0  0  0  0  0  0  0  0  0  0
    3.4518   -0.0883    1.4454 C   0  0  0  0  0  0  0  0  0  0  0  0
    5.7657   -0.8192   -0.0120 C   0  0  0  0  0  0  0  0  0  0  0  0
   -3.7590   -1.9503    1.1959 C   0  0  0  0  0  0  0  0  0  0  0  0
   -1.6498    2.8931    0.6224 C   0  0  0  0  0  0  0  0  0  0  0  0
   -4.4389   -0.9833   -0.9110 C   0  0  0  0  0  0  0  0  0  0  0  0
   -0.2553    2.6303   -1.3329 C   0  0  0  0  0  0  0  0  0  0  0  0
    4.7157    0.3811    1.8214 C   0  0  0  0  0  0  0  0  0  0  0  0
    5.8535    0.0200    1.1025 C   0  0  0  0  0  0  0  0  0  0  0  0
   -5.0833   -1.9281    1.6336 C   0  0  0  0  0  0  0  0  0  0  0  0
   -1.0011    4.0904    0.9243 C   0  0  0  0  0  0  0  0  0  0  0  0
   -5.7631   -0.9610   -0.4734 C   0  0  0  0  0  0  0  0  0  0  0  0
    0.3936    3.8275   -1.0310 C   0  0  0  0  0  0  0  0  0  0  0  0
   -6.0853   -1.4334    0.7989 C   0  0  0  0  0  0  0  0  0  0  0  0
    0.0206    4.5577    0.0976 C   0  0  0  0  0  0  0  0  0  0  0  0
  1  3  1  0
  1  6  1  0
  1  7  1  0
  2  9  1  0
  2 10  1  0
  3  4  1  0
  4  5  1  0
  5  8  1  0
  5 10  2  0
  6 11  1  0
  7 12  1  0
  8  9  2  0
  8 13  1  0
  9 14  1  0
 11 15  2  0
 11 17  1  0
 12 16  2  0
 12 18  1  0
 13 19  2  0
 14 20  2  0
 15 21  1  0
 16 22  1  0
 17 23  2  0
 18 24  2  0
 19 20  1  0
 21 25  2  0
 22 26  2  0
 23 25  1  0
 24 26  1  0
M  END
>  <PUBCHEM_COMPOUND_CID>  (1) 
45584

>  <PUBCHEM_CONFORMER_RMSD>  (1) 
0.8

>  <PUBCHEM_CONFORMER_DIVERSEORDER>  (1) 
1
53
22
37
14
19
24
43
48
6
36
15
44
29
3
55
38
56
42
17
52
65
26
31
27
57
34
4
64
63
33
21
41
12
16
28
59
35
62
13
11
32
20
49
47
30
39
7
25
18
61
58
46
10
23
9
8
60
5
2
40
45
50
51
54

>  <PUBCHEM_MMFF94_PARTIAL_CHARGES>  (1) 
41
1 -0.81
10 -0.3
11 -0.14
12 -0.14
13 -0.15
14 -0.15
15 -0.15
16 -0.15
17 -0.15
18 -0.15
19 -0.15
2 0.03
20 -0.15
21 -0.15
22 -0.15
23 -0.15
24 -0.15
25 -0.15
26 -0.15
3 0.27
35 0.15
36 0.27
37 0.15
38 0.15
39 0.15
4 0.18
40 0.15
41 0.15
42 0.15
43 0.15
44 0.15
45 0.15
46 0.15
47 0.15
48 0.15
49 0.15
5 -0.18
50 0.15
6 0.41
7 0.41
9 -0.15

>  <PUBCHEM_EFFECTIVE_ROTOR_COUNT>  (1) 
7

>  <PUBCHEM_PHARMACOPHORE_FEATURES>  (1) 
7
1 1 cation
1 2 cation
1 2 donor
5 2 5 8 9 10 rings
6 11 15 17 21 23 25 rings
6 12 16 18 22 24 26 rings
6 8 9 13 14 19 20 rings

>  <PUBCHEM_HEAVY_ATOM_COUNT>  (1) 
26

>  <PUBCHEM_ATOM_DEF_STEREO_COUNT>  (1) 
0

>  <PUBCHEM_ATOM_UDEF_STEREO_COUNT>  (1) 
0

>  <PUBCHEM_BOND_DEF_STEREO_COUNT>  (1) 
0

>  <PUBCHEM_BOND_UDEF_STEREO_COUNT>  (1) 
0

>  <PUBCHEM_ISOTOPIC_ATOM_COUNT>  (1) 
0

>  <PUBCHEM_COMPONENT_COUNT>  (1) 
1

>  <PUBCHEM_CACTVS_TAUTO_COUNT>  (1) 
1

>  <PUBCHEM_CONFORMER_ID>  (1) 
0000B21000000001

>  <PUBCHEM_MMFF94_ENERGY>  (1) 
68.7949

>  <PUBCHEM_FEATURE_SELFOVERLAP>  (1) 
35.614

>  <PUBCHEM_SHAPE_FINGERPRINT>  (1) 
10006869 2 18049152273315280355
10670039 82 18337401457413605652
11578080 2 12102476770182826187
11595378 159 18261944151320217882
11646440 116 18334867134013301587
12166972 35 16950280719956796238
12236239 1 16153422853054621178
12516196 113 18410856585942934511
12596602 18 17313377938308225978
12788726 201 18260824843992995883
13383665 225 18267608843985344300
13673619 4 17988376862479373526
13782708 43 18130232528290522030
140371 6 18337966652854460031
14840074 17 18059852913006513838
14932702 115 16154570803201794867
14955137 171 18338804523770071299
15775530 1 17552939329535879095
15840311 113 17345494625916963291
15927050 60 17474958004875849772
15961568 22 18410290346419072092
17980427 23 17775015579053066233
17980427 26 17624128700335512885
1813 80 18410298033872052215
18393751 57 18199170966901464610
19315092 285 16299761232493682032
1979834 28 18200597015743352394
21033648 29 17988911263679501515
21304253 13 18413672418199814977
21344244 78 18128830797103804123
22440779 20 17112758722294246106
23557571 272 18410008797810284182
23845131 108 17547295501969848889
314173 85 18411142433096015215
3187 122 18337100198936827124
469060 322 18114472162354603065
5104073 3 18269269059240746786
6004065 56 18339356491793115583
613672 6 18409449193742420495
621550 34 18131068212745577718
6371380 46 17967246521505724755
7399639 24 18201711830672270854
9658208 31 17764603018331592564

>  <PUBCHEM_SHAPE_MULTIPOLES>  (1) 
525.11
12.99
4.75
1.47
0.56
8.29
0.27
-11.89
4.09
-1.6
-0.31
0.44
-0.15
1.63

>  <PUBCHEM_SHAPE_SELFOVERLAP>  (1) 
1147.553

>  <PUBCHEM_SHAPE_VOLUME>  (1) 
286.6

>  <PUBCHEM_COORDINATE_TYPE>  (1) 
2
5
10

$$$$
