4558
     RDKit          3D

 26 26  0  0  1  0  0  0  0  0999 V2000
   -3.4794   -0.5873    1.6944 O   0  0  0  0  0  0  0  0  0  0  0  0
   -3.8840   -1.9189   -1.7057 O   0  0  0  0  0  0  0  0  0  0  0  0
   -6.5429    1.4840    0.4581 O   0  0  0  0  0  0  0  0  0  0  0  0
   -3.4958   -0.5010    0.2618 C   0  0  0  0  0  0  0  0  0  0  0  0
   -2.0463   -0.2877   -0.1882 C   0  0  0  0  0  0  0  0  0  0  0  0
   -4.1022   -1.8016   -0.3031 C   0  0  0  0  0  0  0  0  0  0  0  0
   -1.1613   -1.4716    0.2036 C   0  0  0  0  0  0  0  0  0  0  0  0
   -4.3406    0.7208   -0.1156 C   0  0  0  0  0  0  0  0  0  0  0  0
    0.3023   -1.3016   -0.2135 C   0  0  0  0  0  0  0  0  0  0  0  0
    1.1721   -2.5171    0.1135 C   0  0  0  0  0  0  0  0  0  0  0  0
   -5.5845   -1.8859   -0.0834 C   0  0  0  0  0  0  0  0  0  0  0  0
   -5.8069    0.5280    0.2188 C   0  0  0  0  0  0  0  0  0  0  0  0
    2.6289   -2.2826   -0.2929 C   0  0  0  0  0  0  0  0  0  0  0  0
   -6.3733   -0.8406    0.1859 C   0  0  0  0  0  0  0  0  0  0  0  0
    3.5025   -3.4856    0.0660 C   0  0  0  0  0  0  0  0  0  0  0  0
    4.9674   -3.2446   -0.3042 C   0  0  0  0  0  0  0  0  0  0  0  0
    4.3237    1.5272    0.3337 C   0  0  0  0  0  0  0  0  0  0  0  0
    3.6030    2.8138   -0.0811 C   0  0  0  0  0  0  0  0  0  0  0  0
    5.8211    1.5342    0.0090 C   0  0  0  0  0  0  0  0  0  0  0  0
    2.0905    2.8411    0.1703 C   0  0  0  0  0  0  0  0  0  0  0  0
    6.5435    0.2522    0.4398 C   0  0  0  0  0  0  0  0  0  0  0  0
    5.4976   -2.0279    0.3957 C   0  0  0  0  0  0  0  0  0  0  0  0
    1.3546    4.1000   -0.2995 C   0  0  0  0  0  0  0  0  0  0  0  0
    6.0103   -0.9701   -0.2493 C   0  0  0  0  0  0  0  0  0  0  0  0
   -0.1560    4.0453   -0.0729 C   0  0  0  0  0  0  0  0  0  0  0  0
   -0.8443    5.2775   -0.6413 C   0  0  0  0  0  0  0  0  0  0  0  0
  1  4  1  0
  2  6  1  0
  3 12  2  0
  4  5  1  0
  4  6  1  0
  4  8  1  0
  5  7  1  0
  6 11  1  0
  7  9  1  0
  8 12  1  0
  9 10  1  0
 10 13  1  0
 11 14  2  0
 12 14  1  0
 13 15  1  0
 15 16  1  0
 16 22  1  0
 17 18  1  0
 17 19  1  0
 18 20  1  0
 19 21  1  0
 20 23  1  0
 21 24  1  0
 22 24  2  0
 23 25  1  0
 25 26  1  0
M  END
>  <PUBCHEM_COMPOUND_CID>  (1) 
4558

>  <PUBCHEM_CONFORMER_RMSD>  (1) 
1.8

>  <PUBCHEM_CONFORMER_DIVERSEORDER>  (1) 
1
61
17
38
40
58
62
16
54
18
42
8
33
71
69
10
72
83
34
59
51
64
5
50
66
3
30
57
55
47
11
35
46
81
2
15
32
63
74
65
19
45
44
26
53
79
28
21
75
29
82
73
36
43
60
20
12
76
6
48
56
37
23
41
70
25
78
13
80
14
68
49
77
4
9
67
39
31
22
27
7
24
52

>  <PUBCHEM_MMFF94_PARTIAL_CHARGES>  (1) 
19
1 -0.68
11 -0.29
12 0.49
14 -0.14
16 0.14
2 -0.68
21 0.14
22 -0.29
24 -0.29
3 -0.57
38 0.15
4 0.28
41 0.4
42 0.15
45 0.4
6 0.42
60 0.15
61 0.15
8 0.06

>  <PUBCHEM_EFFECTIVE_ROTOR_COUNT>  (1) 
15.6

>  <PUBCHEM_PHARMACOPHORE_FEATURES>  (1) 
7
1 1 acceptor
1 1 donor
1 2 acceptor
1 2 donor
1 26 hydrophobe
1 3 acceptor
6 4 6 8 11 12 14 rings

>  <PUBCHEM_HEAVY_ATOM_COUNT>  (1) 
26

>  <PUBCHEM_ATOM_DEF_STEREO_COUNT>  (1) 
0

>  <PUBCHEM_ATOM_UDEF_STEREO_COUNT>  (1) 
2

>  <PUBCHEM_BOND_DEF_STEREO_COUNT>  (1) 
0

>  <PUBCHEM_BOND_UDEF_STEREO_COUNT>  (1) 
1

>  <PUBCHEM_ISOTOPIC_ATOM_COUNT>  (1) 
0

>  <PUBCHEM_COMPONENT_COUNT>  (1) 
1

>  <PUBCHEM_CACTVS_TAUTO_COUNT>  (1) 
2

>  <PUBCHEM_CONFORMER_ID>  (1) 
000011CE00000001

>  <PUBCHEM_MMFF94_ENERGY>  (1) 
18.4985

>  <PUBCHEM_FEATURE_SELFOVERLAP>  (1) 
35.522

>  <PUBCHEM_SHAPE_FINGERPRINT>  (1) 
10675989 125 18335985385137335932
12516196 113 18408887295755403735
1361 2 18338514265800985880
14681490 219 18408602544129635272
14784336 7 17844524620221023601
15419008 145 18264195921712554674
15483637 11 18190174586437545244
16760501 71 18411138060735087242
20721686 56 18408326570984854082
21298829 104 18342454898469353400
23559900 14 18272360954720820083
24771293 8 18128801106216601474
373842 8 18410857616434333744
4073 2 18187651344427210242
513532 50 18130519599962397774

>  <PUBCHEM_SHAPE_MULTIPOLES>  (1) 
517.46
17.92
6.09
0.84
4.86
7.79
0.01
-6.9
-1.49
-4.94
1.07
0.55
-0.15
-0.13

>  <PUBCHEM_SHAPE_SELFOVERLAP>  (1) 
996.561

>  <PUBCHEM_SHAPE_VOLUME>  (1) 
312.5

>  <PUBCHEM_COORDINATE_TYPE>  (1) 
2
5
10

$$$$
