45592
     RDKit          3D

 19 21  0  0  0  0  0  0  0  0999 V2000
    4.0354   -1.8748    0.2121 N   0  0  0  0  0  0  0  0  0  0  0  0
   -1.5813   -0.2959   -0.2136 N   0  0  0  0  0  0  0  0  0  0  0  0
    2.1633   -0.8912   -0.4622 C   0  0  0  0  0  0  0  0  0  0  0  0
    0.7716   -0.6846   -0.9118 C   0  0  0  0  0  0  0  0  0  0  0  0
    3.1464    0.1169   -0.2569 C   0  0  0  0  0  0  0  0  0  0  0  0
   -0.2102   -0.4687    0.2544 C   0  0  0  0  0  0  0  0  0  0  0  0
    4.3114   -0.5269    0.1657 C   0  0  0  0  0  0  0  0  0  0  0  0
    2.7398   -2.1048   -0.1658 C   0  0  0  0  0  0  0  0  0  0  0  0
   -2.4914   -0.1042    0.9064 C   0  0  0  0  0  0  0  0  0  0  0  0
    3.1570    1.5195   -0.3904 C   0  0  0  0  0  0  0  0  0  0  0  0
    5.4912    0.1648    0.4627 C   0  0  0  0  0  0  0  0  0  0  0  0
   -3.9153    0.0691    0.4489 C   0  0  0  0  0  0  0  0  0  0  0  0
    4.3299    2.2245   -0.0969 C   0  0  0  0  0  0  0  0  0  0  0  0
    5.4779    1.5555    0.3229 C   0  0  0  0  0  0  0  0  0  0  0  0
   -4.3944    1.3421    0.1731 C   0  0  0  0  0  0  0  0  0  0  0  0
   -4.7289   -1.0466    0.3097 C   0  0  0  0  0  0  0  0  0  0  0  0
   -5.7137    1.5028   -0.2504 C   0  0  0  0  0  0  0  0  0  0  0  0
   -6.0482   -0.8861   -0.1139 C   0  0  0  0  0  0  0  0  0  0  0  0
   -6.5406    0.3887   -0.3939 C   0  0  0  0  0  0  0  0  0  0  0  0
  1  7  1  0
  1  8  1  0
  2  6  1  0
  2  9  1  0
  3  4  1  0
  3  5  1  0
  3  8  2  0
  4  6  1  0
  5  7  2  0
  5 10  1  0
  7 11  1  0
  9 12  1  0
 10 13  2  0
 11 14  2  0
 12 15  2  0
 12 16  1  0
 13 14  1  0
 15 17  1  0
 16 18  2  0
 17 19  2  0
 18 19  1  0
M  END
>  <PUBCHEM_COMPOUND_CID>  (1) 
45592

>  <PUBCHEM_CONFORMER_RMSD>  (1) 
0.6

>  <PUBCHEM_CONFORMER_DIVERSEORDER>  (1) 
2
66
48
6
51
73
40
14
23
3
77
75
33
8
12
18
9
80
55
31
28
26
45
56
1
69
85
21
10
7
17
58
76
81
5
11
25
41
70
47
32
46
24
34
64
4
71
72
29
49
59
82
19
83
53
61
22
37
38
39
86
16
13
27
30
54
50
15
20
84
74
52
68
43
36
44
62
60
65
35
79
57
78
42
63
67

>  <PUBCHEM_MMFF94_PARTIAL_CHARGES>  (1) 
30
1 0.03
10 -0.15
11 -0.15
12 -0.14
13 -0.15
14 -0.15
15 -0.15
16 -0.15
17 -0.15
18 -0.15
19 -0.15
2 -0.9
24 0.15
25 0.27
26 0.36
29 0.15
3 -0.18
30 0.15
31 0.15
32 0.15
33 0.15
34 0.15
35 0.15
36 0.15
37 0.15
4 0.18
6 0.27
7 -0.15
8 -0.3
9 0.41

>  <PUBCHEM_EFFECTIVE_ROTOR_COUNT>  (1) 
5

>  <PUBCHEM_PHARMACOPHORE_FEATURES>  (1) 
7
1 1 cation
1 1 donor
1 2 cation
1 2 donor
5 1 3 5 7 8 rings
6 12 15 16 17 18 19 rings
6 5 7 10 11 13 14 rings

>  <PUBCHEM_HEAVY_ATOM_COUNT>  (1) 
19

>  <PUBCHEM_ATOM_DEF_STEREO_COUNT>  (1) 
0

>  <PUBCHEM_ATOM_UDEF_STEREO_COUNT>  (1) 
0

>  <PUBCHEM_BOND_DEF_STEREO_COUNT>  (1) 
0

>  <PUBCHEM_BOND_UDEF_STEREO_COUNT>  (1) 
0

>  <PUBCHEM_ISOTOPIC_ATOM_COUNT>  (1) 
0

>  <PUBCHEM_COMPONENT_COUNT>  (1) 
1

>  <PUBCHEM_CACTVS_TAUTO_COUNT>  (1) 
1

>  <PUBCHEM_CONFORMER_ID>  (1) 
0000B21800000002

>  <PUBCHEM_MMFF94_ENERGY>  (1) 
32.2581

>  <PUBCHEM_FEATURE_SELFOVERLAP>  (1) 
35.614

>  <PUBCHEM_SHAPE_FINGERPRINT>  (1) 
10354089 29 18412262848603446822
10411042 1 18050849915343559342
10595046 47 18341892991944973971
10670039 82 16773533091841427208
10688039 33 17821725018528090660
10835480 77 18410569553542163637
10912923 1 17989211413078965371
11089746 13 18186237320701309899
11128504 68 15123791807409147593
11287383 113 18410857663905470067
11724838 91 18342452690107109542
11796584 16 12251905884194978416
12107183 9 17691973657019967019
12236239 1 17988924465875998015
13073987 5 18335987493638672171
13167372 99 18341614759283852961
13533116 47 17385997313541100050
13785724 45 17764590915499504078
1420 363 13470684854504247519
14251732 16 18411418453590646151
14461889 52 18336264660104302659
14528608 73 18343023306582272949
15183329 4 18411138017948860489
15188451 53 16371579231844182459
15475509 35 16443887394722337912
16079462 125 18040707061629998365
17834072 33 18342175579123087479
17844677 252 18341058406531638109
19427546 62 18336548321762639666
19489759 90 17603867802191132129
20157964 124 18411982442583268271
20281389 69 18187929427001631629
21315763 129 18335419054210975493
21315764 268 18260543394817828365
21344244 78 18128238018708377610
21641784 216 16773530900928130513
22950370 63 9223227447229434715
2297311 6 12103848964936276003
23035841 295 11671783767288256069
23081809 10 12396305863642785619
23536379 177 18408885114391409355
23559900 14 18408887321529995283
239999 70 18272657796858589110
2916195 48 18261109682076551617
300161 21 18409164411703870535
314173 85 16226048881644711783
329604 57 18131351895314295185
335352 9 18411985767874360374
3472631 163 17060051627431415104
34797466 226 17846508045066894909
351380 180 18334296457144240641
351380 3 11746935399441290472
3545911 37 18412829101012315238
4073 2 17968101961803365363
4325135 7 18273494598389841511
5104073 3 18261682489095988483
5283173 99 18262796260105376869
542803 24 17346602958879641251
7495541 125 17847055606083987891
9841814 1 14923952270990018550
9971528 1 17749114374198228135

>  <PUBCHEM_SHAPE_MULTIPOLES>  (1) 
381.05
17.87
1.94
0.78
15.67
0.24
0
4.61
-0.53
-1.94
0.08
0.06
-0.02
0.22

>  <PUBCHEM_SHAPE_SELFOVERLAP>  (1) 
823.702

>  <PUBCHEM_SHAPE_VOLUME>  (1) 
210

>  <PUBCHEM_COORDINATE_TYPE>  (1) 
2
5
10

$$$$
