4559
     RDKit          3D

 17 18  0  0  1  0  0  0  0  0999 V2000
   -3.7142    1.6808   -0.3035 Br  0  0  0  0  0  0  0  0  0  0  0  0
   -3.4350   -1.2976   -1.2946 O   0  0  0  0  0  0  0  0  0  0  0  0
    0.3546    0.0186    0.2649 C   0  0  0  0  0  0  0  0  0  0  0  0
   -0.8981    1.0431    0.4133 C   0  0  0  0  0  0  0  0  0  0  0  0
   -2.0871    0.5624   -0.5019 C   0  0  0  0  0  0  0  0  0  0  0  0
    1.5173    0.4118    1.2531 C   0  0  0  0  0  0  0  0  0  0  0  0
   -0.1876   -1.4147    0.5183 C   0  0  0  0  0  0  0  0  0  0  0  0
   -2.5068   -0.8971   -0.2836 C   0  0  0  0  0  0  0  0  0  0  0  0
   -1.3194   -1.8482   -0.3829 C   0  0  0  0  0  0  0  0  0  0  0  0
   -1.3373    1.1161    1.9034 C   0  0  0  0  0  0  0  0  0  0  0  0
   -0.4979    2.4835   -0.0175 C   0  0  0  0  0  0  0  0  0  0  0  0
    0.9294    0.0736   -1.1608 C   0  0  0  0  0  0  0  0  0  0  0  0
    2.8735   -0.2241    0.9137 C   0  0  0  0  0  0  0  0  0  0  0  0
    2.2312    0.1304   -1.4794 C   0  0  0  0  0  0  0  0  0  0  0  0
    3.2895    0.0964   -0.4950 C   0  0  0  0  0  0  0  0  0  0  0  0
    0.2197   -2.2648    1.4777 C   0  0  0  0  0  0  0  0  0  0  0  0
    4.5683    0.3297   -0.8252 C   0  0  0  0  0  0  0  0  0  0  0  0
  1  5  1  0
  2  8  1  0
  3  4  1  0
  3  6  1  0
  3  7  1  0
  3 12  1  0
  4  5  1  0
  4 10  1  0
  4 11  1  0
  5  8  1  0
  6 13  1  0
  7  9  1  0
  7 16  2  0
  8  9  1  0
 12 14  2  0
 13 15  1  0
 14 15  1  0
 15 17  2  0
M  END
>  <PUBCHEM_COMPOUND_CID>  (1) 
4559

>  <PUBCHEM_CONFORMER_RMSD>  (1) 
0.6

>  <PUBCHEM_CONFORMER_DIVERSEORDER>  (1) 
1
4
2
7
3
5
6
8

>  <PUBCHEM_MMFF94_PARTIAL_CHARGES>  (1) 
20
1 -0.23
12 -0.29
13 0.14
14 -0.15
15 -0.14
16 -0.3
17 -0.3
2 -0.68
3 0.28
30 0.15
33 0.15
34 0.15
35 0.15
36 0.4
37 0.15
38 0.15
5 0.23
7 -0.28
8 0.28
9 0.14

>  <PUBCHEM_EFFECTIVE_ROTOR_COUNT>  (1) 
1.2

>  <PUBCHEM_PHARMACOPHORE_FEATURES>  (1) 
6
1 1 hydrophobe
1 2 acceptor
1 2 donor
3 4 10 11 hydrophobe
6 3 4 5 7 8 9 rings
6 3 6 12 13 14 15 rings

>  <PUBCHEM_HEAVY_ATOM_COUNT>  (1) 
17

>  <PUBCHEM_ATOM_DEF_STEREO_COUNT>  (1) 
0

>  <PUBCHEM_ATOM_UDEF_STEREO_COUNT>  (1) 
3

>  <PUBCHEM_BOND_DEF_STEREO_COUNT>  (1) 
0

>  <PUBCHEM_BOND_UDEF_STEREO_COUNT>  (1) 
0

>  <PUBCHEM_ISOTOPIC_ATOM_COUNT>  (1) 
0

>  <PUBCHEM_COMPONENT_COUNT>  (1) 
1

>  <PUBCHEM_CACTVS_TAUTO_COUNT>  (1) 
1

>  <PUBCHEM_CONFORMER_ID>  (1) 
000011CF00000001

>  <PUBCHEM_MMFF94_ENERGY>  (1) 
54.5305

>  <PUBCHEM_FEATURE_SELFOVERLAP>  (1) 
30.448

>  <PUBCHEM_SHAPE_FINGERPRINT>  (1) 
10863032 1 17703510986879997967
10948715 1 17968941864380581001
11315181 36 18131080321001527436
11578080 2 12534483576653230546
12138202 97 18273498953022540438
12423570 1 17171770610946816897
12491281 212 17675925404201777228
12592029 89 17895762776987678571
13024252 1 17895205436108584235
14817 1 12989617034751656515
14993402 34 17749384892929741654
15219456 202 17418084464316376008
15309172 13 17167864162250588954
15775835 57 18335422318185406984
16752209 62 18410846685642260615
16945 1 18271800241790770563
17844478 74 16559033804710207756
18175812 5 17346312717452894188
18186145 218 18411409626937175669
187816 3 18335983163684104662
19868273 293 18409169887444158268
20645476 183 18040437706555306371
20871999 31 18410857702132888572
21501502 16 17987529117254405342
22344851 262 17968653805250595645
22802520 49 17275110479089393071
23402539 116 18410854352522640916
23419403 2 17416950902151103849
23493267 7 18059570244282056309
23557571 272 17988645228556071670
23559900 14 18343300354323316588
25 1 14273997945040374134
2748010 2 17687732162314987739
276578 36 18264492776086066793
3250762 1 17326895578361258723
353137 74 18339646616290050117
4340502 62 16806465612956930465
77492 1 17821720633217956208
81228 2 18271258182611037752

>  <PUBCHEM_SHAPE_MULTIPOLES>  (1) 
349.92
5.91
2.1
1.5
2.57
0.39
-0.3
-1.57
2.12
-1.47
-0.32
0.14
0.09
-0.7

>  <PUBCHEM_SHAPE_SELFOVERLAP>  (1) 
708.261

>  <PUBCHEM_SHAPE_VOLUME>  (1) 
209.7

>  <PUBCHEM_COORDINATE_TYPE>  (1) 
2
5
10

$$$$
