4560
     RDKit          3D

 18 19  0  0  1  0  0  0  0  0999 V2000
   -4.0219    1.7329   -0.2581 Br  0  0  0  0  0  0  0  0  0  0  0  0
    5.6543    0.1899    0.2396 Br  0  0  0  0  0  0  0  0  0  0  0  0
   -3.8146   -1.2571   -1.2316 O   0  0  0  0  0  0  0  0  0  0  0  0
    0.0274    0.0031    0.2437 C   0  0  0  0  0  0  0  0  0  0  0  0
   -1.2039    1.0507    0.4086 C   0  0  0  0  0  0  0  0  0  0  0  0
   -2.4189    0.5844   -0.4796 C   0  0  0  0  0  0  0  0  0  0  0  0
    1.2159    0.3829    1.2060 C   0  0  0  0  0  0  0  0  0  0  0  0
   -0.5349   -1.4185    0.5185 C   0  0  0  0  0  0  0  0  0  0  0  0
   -2.8599   -0.8657   -0.2420 C   0  0  0  0  0  0  0  0  0  0  0  0
   -1.6916   -1.8385   -0.3571 C   0  0  0  0  0  0  0  0  0  0  0  0
   -1.6126    1.1424    1.9064 C   0  0  0  0  0  0  0  0  0  0  0  0
   -0.7871    2.4806   -0.0410 C   0  0  0  0  0  0  0  0  0  0  0  0
    0.5750    0.0375   -1.1933 C   0  0  0  0  0  0  0  0  0  0  0  0
    2.5539   -0.2794    0.8452 C   0  0  0  0  0  0  0  0  0  0  0  0
    1.8711    0.0688   -1.5375 C   0  0  0  0  0  0  0  0  0  0  0  0
    2.9478    0.0233   -0.5738 C   0  0  0  0  0  0  0  0  0  0  0  0
   -0.1239   -2.2686    1.4763 C   0  0  0  0  0  0  0  0  0  0  0  0
    4.2237    0.2314   -0.9305 C   0  0  0  0  0  0  0  0  0  0  0  0
  1  6  1  0
  2 18  1  0
  3  9  1  0
  4  5  1  0
  4  7  1  0
  4  8  1  0
  4 13  1  0
  5  6  1  0
  5 11  1  0
  5 12  1  0
  6  9  1  0
  7 14  1  0
  8 10  1  0
  8 17  2  0
  9 10  1  0
 13 15  2  0
 14 16  1  0
 15 16  1  0
 16 18  2  0
M  END
>  <PUBCHEM_COMPOUND_CID>  (1) 
4560

>  <PUBCHEM_CONFORMER_RMSD>  (1) 
0.6

>  <PUBCHEM_CONFORMER_DIVERSEORDER>  (1) 
1
7
2
6
12
5
4
10
8
11
3
9

>  <PUBCHEM_MMFF94_PARTIAL_CHARGES>  (1) 
20
1 -0.23
10 0.14
13 -0.29
14 0.14
15 -0.15
16 -0.14
17 -0.3
18 -0.04
2 -0.11
3 -0.68
31 0.15
34 0.15
35 0.15
36 0.15
37 0.4
38 0.15
4 0.28
6 0.23
8 -0.28
9 0.28

>  <PUBCHEM_EFFECTIVE_ROTOR_COUNT>  (1) 
1.2

>  <PUBCHEM_PHARMACOPHORE_FEATURES>  (1) 
7
1 1 hydrophobe
1 2 hydrophobe
1 3 acceptor
1 3 donor
3 5 11 12 hydrophobe
6 4 5 6 8 9 10 rings
6 4 7 13 14 15 16 rings

>  <PUBCHEM_HEAVY_ATOM_COUNT>  (1) 
18

>  <PUBCHEM_ATOM_DEF_STEREO_COUNT>  (1) 
0

>  <PUBCHEM_ATOM_UDEF_STEREO_COUNT>  (1) 
3

>  <PUBCHEM_BOND_DEF_STEREO_COUNT>  (1) 
0

>  <PUBCHEM_BOND_UDEF_STEREO_COUNT>  (1) 
1

>  <PUBCHEM_ISOTOPIC_ATOM_COUNT>  (1) 
0

>  <PUBCHEM_COMPONENT_COUNT>  (1) 
1

>  <PUBCHEM_CACTVS_TAUTO_COUNT>  (1) 
1

>  <PUBCHEM_CONFORMER_ID>  (1) 
000011D000000001

>  <PUBCHEM_MMFF94_ENERGY>  (1) 
57.4453

>  <PUBCHEM_FEATURE_SELFOVERLAP>  (1) 
35.522

>  <PUBCHEM_SHAPE_FINGERPRINT>  (1) 
10863032 1 17631738153537346863
10948715 1 18042688295541531565
11315181 36 17895195554422778548
12119455 92 16877659054656943070
121448 382 18410015420375593491
12236239 1 17821726130623172740
12592029 89 17677056737194945707
12670546 56 18409161100732140672
13024252 1 17894920654144225235
14713566 1 17894916286310210754
14993402 34 17748820838995684390
15219456 202 17489580203475131312
15309172 13 17167865257377578674
15775835 57 18335422309706235721
16752209 62 18410002260749078027
16945 1 17917715669181916593
17980427 23 18410298046852381196
18186145 218 18336817658729079949
187816 3 18335416906521475815
19489759 90 18342738516623980618
200 152 18040713688621935662
20645476 183 17967250918513116179
20871999 31 18410854386586934565
21339142 149 18341908389038791978
21501502 16 17987245434490483174
23402539 116 18410852157646659556
23419403 2 17559941294221735633
23557571 272 18060137673564536134
23559900 14 18343301440897353454
25 1 14129601286187848806
2748010 2 17687452877908735139
296302 2 18059859458642005094
34934 24 18269834233855013917
4340502 62 16806747083686140121
77492 1 17749102288059958426
81228 2 18270419246580570688

>  <PUBCHEM_SHAPE_MULTIPOLES>  (1) 
376.45
7.88
2.02
1.45
8.33
0.28
-0.22
-1.84
1.51
-1.98
-0.36
0
0.08
-0.54

>  <PUBCHEM_SHAPE_SELFOVERLAP>  (1) 
749.366

>  <PUBCHEM_SHAPE_VOLUME>  (1) 
229.5

>  <PUBCHEM_COORDINATE_TYPE>  (1) 
2
5
10

$$$$
