45621
     RDKit          3D

 23 25  0  0  0  0  0  0  0  0999 V2000
   -0.2468    0.4665    1.2366 O   0  0  0  0  0  0  0  0  0  0  0  0
   -1.2672    0.9046   -0.8093 N   0  0  0  0  0  0  0  0  0  0  0  0
   -4.7405    0.1599    0.2636 N   0  0  0  0  0  0  0  0  0  0  0  0
    1.0461    0.3029   -0.7586 C   0  0  0  0  0  0  0  0  0  0  0  0
    2.2023    1.1760   -0.3026 C   0  0  0  0  0  0  0  0  0  0  0  0
    1.5951   -1.0909   -0.5097 C   0  0  0  0  0  0  0  0  0  0  0  0
    3.2774    0.3749    0.1452 C   0  0  0  0  0  0  0  0  0  0  0  0
    2.9042   -1.0177    0.0181 C   0  0  0  0  0  0  0  0  0  0  0  0
   -0.2059    0.5679    0.0132 C   0  0  0  0  0  0  0  0  0  0  0  0
   -2.5944    1.1865   -0.3119 C   0  0  0  0  0  0  0  0  0  0  0  0
   -3.4065   -0.1014   -0.2624 C   0  0  0  0  0  0  0  0  0  0  0  0
    2.2861    2.5588   -0.3039 C   0  0  0  0  0  0  0  0  0  0  0  0
    0.9819   -2.3098   -0.7487 C   0  0  0  0  0  0  0  0  0  0  0  0
    4.4467    0.9580    0.6049 C   0  0  0  0  0  0  0  0  0  0  0  0
    3.6078   -2.1721    0.3198 C   0  0  0  0  0  0  0  0  0  0  0  0
   -5.5132   -1.0809    0.3500 C   0  0  0  0  0  0  0  0  0  0  0  0
   -5.4421    1.1370   -0.5711 C   0  0  0  0  0  0  0  0  0  0  0  0
    3.4649    3.1458    0.1596 C   0  0  0  0  0  0  0  0  0  0  0  0
    1.6914   -3.4727   -0.4440 C   0  0  0  0  0  0  0  0  0  0  0  0
    4.5342    2.3534    0.6103 C   0  0  0  0  0  0  0  0  0  0  0  0
    2.9909   -3.4046    0.0857 C   0  0  0  0  0  0  0  0  0  0  0  0
   -4.8033   -2.1106    1.2125 C   0  0  0  0  0  0  0  0  0  0  0  0
   -6.8092    1.4685    0.0029 C   0  0  0  0  0  0  0  0  0  0  0  0
  1  9  2  0
  2  9  1  0
  2 10  1  0
  3 11  1  0
  3 16  1  0
  3 17  1  0
  4  5  1  0
  4  6  1  0
  4  9  1  0
  5  7  2  0
  5 12  1  0
  6  8  2  0
  6 13  1  0
  7  8  1  0
  7 14  1  0
  8 15  1  0
 10 11  1  0
 12 18  2  0
 13 19  2  0
 14 20  2  0
 15 21  2  0
 16 22  1  0
 17 23  1  0
 18 20  1  0
 19 21  1  0
M  END
>  <PUBCHEM_COMPOUND_CID>  (1) 
45621

>  <PUBCHEM_CONFORMER_RMSD>  (1) 
0.8

>  <PUBCHEM_CONFORMER_DIVERSEORDER>  (1) 
2
30
16
8
45
28
52
51
12
6
18
27
48
36
15
37
5
41
40
10
24
26
49
23
31
9
50
42
29
32
33
43
22
39
25
38
35
4
21
14
54
7
17
34
47
19
20
53
1
3
46
13
11
44

>  <PUBCHEM_MMFF94_PARTIAL_CHARGES>  (1) 
28
1 -0.57
10 0.3
11 0.27
12 -0.15
13 -0.15
14 -0.15
15 -0.15
16 0.27
17 0.27
18 -0.15
19 -0.15
2 -0.73
20 -0.15
21 -0.15
29 0.15
3 -0.81
30 0.15
31 0.37
32 0.15
33 0.15
38 0.15
39 0.15
4 0.35
40 0.15
41 0.15
5 -0.14
6 -0.14
9 0.57

>  <PUBCHEM_EFFECTIVE_ROTOR_COUNT>  (1) 
7.2

>  <PUBCHEM_PHARMACOPHORE_FEATURES>  (1) 
6
1 1 acceptor
1 2 donor
1 3 cation
5 4 5 6 7 8 rings
6 5 7 12 14 18 20 rings
6 6 8 13 15 19 21 rings

>  <PUBCHEM_HEAVY_ATOM_COUNT>  (1) 
23

>  <PUBCHEM_ATOM_DEF_STEREO_COUNT>  (1) 
0

>  <PUBCHEM_ATOM_UDEF_STEREO_COUNT>  (1) 
0

>  <PUBCHEM_BOND_DEF_STEREO_COUNT>  (1) 
0

>  <PUBCHEM_BOND_UDEF_STEREO_COUNT>  (1) 
0

>  <PUBCHEM_ISOTOPIC_ATOM_COUNT>  (1) 
0

>  <PUBCHEM_COMPONENT_COUNT>  (1) 
1

>  <PUBCHEM_CACTVS_TAUTO_COUNT>  (1) 
2

>  <PUBCHEM_CONFORMER_ID>  (1) 
0000B23500000002

>  <PUBCHEM_MMFF94_ENERGY>  (1) 
57.2938

>  <PUBCHEM_FEATURE_SELFOVERLAP>  (1) 
30.609

>  <PUBCHEM_SHAPE_FINGERPRINT>  (1) 
10090160 65 18340760545938435564
10411042 1 17907859497012598030
10595046 47 18343579651699244077
10835480 77 18409442571403932125
11405975 8 18338240362883552201
114674 6 18187646838768808482
12107183 9 17766567850554229313
12592029 89 18411417341146520496
12596602 18 17346047770143536427
12730499 353 18409737282625479352
12788726 201 17060065813523459793
13009979 54 17487340331402805842
13073987 5 18412831270762279041
13140716 1 18267007531710724896
13533116 47 18340206289594803257
13583140 156 18201717401466185225
13785724 45 17625268507066689967
13955234 65 18411979139710986120
146900 427 17988931118912137337
14790565 3 17978230787683407692
14955137 171 18269836416004771246
15250474 111 18201704181536074695
15475509 35 16878772795891218890
15927050 60 18269552918167081566
16126227 98 17907017636193986704
17349148 13 14129053716881709385
17492 89 18339923697488843243
17844677 252 18340210670514582453
17913733 40 18271809085175860818
19427546 62 18337670931186151636
20157964 124 18412540995012457069
20645477 70 18335980883008737679
21065198 57 18337110073462117269
21197605 99 18192999441967449539
21859007 373 17387678420198094501
221490 88 18336831896376841551
23557571 272 17385721349144625597
23559900 14 18410009901569412883
23572383 38 18114181977965041651
239999 70 18202009815202333998
3178227 256 18409729565407914760
33824 294 18410855473414048798
3421961 26 18338233743832442830
350125 39 18410575106913414558
4015057 19 18339910551385455541
4073 2 18259990400898798779
42630746 31 18342736321405342020
4340502 62 18271526506498134004
5104073 3 18408611349144687667
59755656 215 18409168796728408044
621550 34 18334569144391472092
7399639 24 18334846238776009756
8272917 22 18341612598920304988
9709674 26 18334581222430137267
9777508 108 17837765999855039498
9995097 60 18335979792630792453
9999458 23 18411138052582535436

>  <PUBCHEM_SHAPE_MULTIPOLES>  (1) 
457.5
13.07
3.85
0.89
25.17
1.97
0.09
-3.77
2.22
-4.73
0.02
0.22
0.11
1.3

>  <PUBCHEM_SHAPE_SELFOVERLAP>  (1) 
978.47

>  <PUBCHEM_SHAPE_VOLUME>  (1) 
257.2

>  <PUBCHEM_COORDINATE_TYPE>  (1) 
2
5
10

$$$$
