45633
     RDKit          3D

 19 19  0  0  0  0  0  0  0  0999 V2000
   -3.9595    0.8373    1.5969 Cl  0  0  0  0  0  0  0  0  0  0  0  0
    3.9809    0.8415   -1.5681 Cl  0  0  0  0  0  0  0  0  0  0  0  0
   -3.0521   -1.9193   -0.0816 S   0  0  0  0  0  0  0  0  0  0  0  0
    3.0509   -1.9240    0.0829 S   0  0  0  0  0  0  0  0  0  0  0  0
    0.0005   -1.0815   -0.0140 N   0  0  0  0  0  0  0  0  0  0  0  0
   -0.4922   -1.8115   -1.1651 C   0  0  0  0  0  0  0  0  0  0  0  0
    0.4792   -1.8192    1.1381 C   0  0  0  0  0  0  0  0  0  0  0  0
    0.0014    0.3289   -0.0097 C   0  0  0  0  0  0  0  0  0  0  0  0
   -1.9484   -1.4715   -1.4568 C   0  0  0  0  0  0  0  0  0  0  0  0
    1.9325   -1.4832    1.4483 C   0  0  0  0  0  0  0  0  0  0  0  0
   -0.1548    1.0231    1.1901 C   0  0  0  0  0  0  0  0  0  0  0  0
    0.1583    1.0298   -1.2055 C   0  0  0  0  0  0  0  0  0  0  0  0
   -0.1545    2.4179    1.1942 C   0  0  0  0  0  0  0  0  0  0  0  0
    0.1587    2.4246   -1.2014 C   0  0  0  0  0  0  0  0  0  0  0  0
   -4.4461   -0.8529   -0.5107 C   0  0  0  0  0  0  0  0  0  0  0  0
    4.4414   -0.8623    0.5343 C   0  0  0  0  0  0  0  0  0  0  0  0
    0.0023    3.1187   -0.0016 C   0  0  0  0  0  0  0  0  0  0  0  0
   -4.1941    0.6053   -0.1536 C   0  0  0  0  0  0  0  0  0  0  0  0
    4.1956    0.5983    0.1834 C   0  0  0  0  0  0  0  0  0  0  0  0
  1 18  1  0
  2 19  1  0
  3  9  1  0
  3 15  1  0
  4 10  1  0
  4 16  1  0
  5  6  1  0
  5  7  1  0
  5  8  1  0
  6  9  1  0
  7 10  1  0
  8 11  2  0
  8 12  1  0
 11 13  1  0
 12 14  2  0
 13 17  2  0
 14 17  1  0
 15 18  1  0
 16 19  1  0
M  END
>  <PUBCHEM_COMPOUND_CID>  (1) 
45633

>  <PUBCHEM_CONFORMER_RMSD>  (1) 
1

>  <PUBCHEM_CONFORMER_DIVERSEORDER>  (1) 
1
73
21
94
2
82
44
64
95
61
14
48
45
50
51
93
22
87
43
12
70
46
24
53
10
57
15
68
38
76
67
25
80
91
35
71
77
62
79
30
18
54
42
19
47
40
27
84
75
5
74
69
41
3
92
39
55
16
63
4
9
90
34
7
66
49
11
8
89
32
6
23
60
59
31
58
97
17
37
65
29
36
72
83
56
33
96
85
26
13
52
88
20
81
28
86
78

>  <PUBCHEM_MMFF94_PARTIAL_CHARGES>  (1) 
24
1 -0.29
10 0.23
11 -0.15
12 -0.15
13 -0.15
14 -0.15
15 0.23
16 0.23
17 -0.15
18 0.29
19 0.29
2 -0.29
28 0.15
29 0.15
3 -0.46
30 0.15
31 0.15
36 0.15
4 -0.46
5 -0.84
6 0.37
7 0.37
8 0.1
9 0.23

>  <PUBCHEM_EFFECTIVE_ROTOR_COUNT>  (1) 
11

>  <PUBCHEM_PHARMACOPHORE_FEATURES>  (1) 
2
1 5 cation
6 8 11 12 13 14 17 rings

>  <PUBCHEM_HEAVY_ATOM_COUNT>  (1) 
19

>  <PUBCHEM_ATOM_DEF_STEREO_COUNT>  (1) 
0

>  <PUBCHEM_ATOM_UDEF_STEREO_COUNT>  (1) 
0

>  <PUBCHEM_BOND_DEF_STEREO_COUNT>  (1) 
0

>  <PUBCHEM_BOND_UDEF_STEREO_COUNT>  (1) 
0

>  <PUBCHEM_ISOTOPIC_ATOM_COUNT>  (1) 
0

>  <PUBCHEM_COMPONENT_COUNT>  (1) 
1

>  <PUBCHEM_CACTVS_TAUTO_COUNT>  (1) 
1

>  <PUBCHEM_CONFORMER_ID>  (1) 
0000B24100000001

>  <PUBCHEM_MMFF94_ENERGY>  (1) 
51.4747

>  <PUBCHEM_FEATURE_SELFOVERLAP>  (1) 
10.148

>  <PUBCHEM_SHAPE_FINGERPRINT>  (1) 
13132413 78 18412261752943804629
14251764 3 14333407835417600283
14573314 32 16415483739735937823
14787075 74 18186804694455293274
14955137 171 18199207194512606827
1601671 61 18343300370633066095
18785283 64 17535756522224424133
21330990 113 17703229516230039318
23402539 116 18411129256416036474
23557571 272 18272364231822817542
23559900 14 17416988187210561060
23598288 3 18053359042972872222
350125 39 18198060271110426850
537710 114 18334010635887518886
6034566 193 16956500833244856324

>  <PUBCHEM_SHAPE_MULTIPOLES>  (1) 
397.47
7.84
3.11
1.59
0.03
1.39
0
-1.84
0.05
0.01
-0.01
-0.01
0.13
-1.44

>  <PUBCHEM_SHAPE_SELFOVERLAP>  (1) 
735.415

>  <PUBCHEM_SHAPE_VOLUME>  (1) 
253.4

>  <PUBCHEM_COORDINATE_TYPE>  (1) 
2
5
10

$$$$
