45643
     RDKit          3D

 25 25  0  0  0  0  0  0  0  0999 V2000
   -5.9598   -0.2965    0.0384 N   0  0  0  0  0  0  0  0  0  0  0  0
    5.3306   -0.4100    0.1810 N   0  0  0  0  0  0  0  0  0  0  0  0
   -4.9595    0.7814   -0.1507 C   0  0  0  0  0  0  0  0  0  0  0  0
   -7.3871    0.2500   -0.1096 C   0  0  0  0  0  0  0  0  0  0  0  0
   -5.8320   -0.9216    1.4349 C   0  0  0  0  0  0  0  0  0  0  0  0
   -5.7666   -1.4100   -1.0009 C   0  0  0  0  0  0  0  0  0  0  0  0
   -3.5628    0.1980    0.0039 C   0  0  0  0  0  0  0  0  0  0  0  0
   -2.4931    1.2667   -0.2288 C   0  0  0  0  0  0  0  0  0  0  0  0
   -7.5675    0.8000   -1.5076 C   0  0  0  0  0  0  0  0  0  0  0  0
   -6.0185    0.1550    2.4817 C   0  0  0  0  0  0  0  0  0  0  0  0
   -6.8291   -2.4685   -0.8006 C   0  0  0  0  0  0  0  0  0  0  0  0
   -1.0852    0.6930   -0.0394 C   0  0  0  0  0  0  0  0  0  0  0  0
    5.8663   -0.8899   -1.1979 C   0  0  0  0  0  0  0  0  0  0  0  0
    5.3858   -1.6186    1.1586 C   0  0  0  0  0  0  0  0  0  0  0  0
    6.4102    0.5861    0.7097 C   0  0  0  0  0  0  0  0  0  0  0  0
    3.9943    0.1329    0.0762 C   0  0  0  0  0  0  0  0  0  0  0  0
    0.0197    1.7378   -0.2333 C   0  0  0  0  0  0  0  0  0  0  0  0
    1.4150    1.1764   -0.1250 C   0  0  0  0  0  0  0  0  0  0  0  0
    3.3465    0.6154    1.2135 C   0  0  0  0  0  0  0  0  0  0  0  0
    3.3525    0.1722   -1.1616 C   0  0  0  0  0  0  0  0  0  0  0  0
    7.2628   -1.4454   -1.0241 C   0  0  0  0  0  0  0  0  0  0  0  0
    4.4638   -2.7082    0.6565 C   0  0  0  0  0  0  0  0  0  0  0  0
    6.4941    1.7726   -0.2256 C   0  0  0  0  0  0  0  0  0  0  0  0
    2.0569    1.1371    1.1128 C   0  0  0  0  0  0  0  0  0  0  0  0
    2.0628    0.6938   -1.2622 C   0  0  0  0  0  0  0  0  0  0  0  0
  1  3  1  0
  1  4  1  0
  1  5  1  0
  1  6  1  0
  2 13  1  0
  2 14  1  0
  2 15  1  0
  2 16  1  0
  3  7  1  0
  4  9  1  0
  5 10  1  0
  6 11  1  0
  7  8  1  0
  8 12  1  0
 12 17  1  0
 13 21  1  0
 14 22  1  0
 15 23  1  0
 16 19  2  0
 16 20  1  0
 17 18  1  0
 18 24  2  0
 18 25  1  0
 19 24  1  0
 20 25  2  0
M  CHG  2   1   1   2   1
M  END
>  <PUBCHEM_COMPOUND_CID>  (1) 
45643

>  <PUBCHEM_CONFORMER_RMSD>  (1) 
1.4

>  <PUBCHEM_CONFORMER_DIVERSEORDER>  (1) 
1
2
4
6
7
3
5

>  <PUBCHEM_MMFF94_PARTIAL_CHARGES>  (1) 
20
1 -1.01
13 0.5
14 0.5
15 0.5
16 0.36
17 0.14
18 -0.14
19 -0.15
2 -0.87
20 -0.15
24 -0.15
25 -0.15
3 0.5
4 0.5
5 0.5
57 0.15
58 0.15
6 0.5
68 0.15
69 0.15

>  <PUBCHEM_EFFECTIVE_ROTOR_COUNT>  (1) 
13

>  <PUBCHEM_PHARMACOPHORE_FEATURES>  (1) 
4
1 1 cation
1 2 cation
4 7 8 12 17 hydrophobe
6 16 18 19 20 24 25 rings

>  <PUBCHEM_HEAVY_ATOM_COUNT>  (1) 
25

>  <PUBCHEM_ATOM_DEF_STEREO_COUNT>  (1) 
0

>  <PUBCHEM_ATOM_UDEF_STEREO_COUNT>  (1) 
0

>  <PUBCHEM_BOND_DEF_STEREO_COUNT>  (1) 
0

>  <PUBCHEM_BOND_UDEF_STEREO_COUNT>  (1) 
0

>  <PUBCHEM_ISOTOPIC_ATOM_COUNT>  (1) 
0

>  <PUBCHEM_COMPONENT_COUNT>  (1) 
1

>  <PUBCHEM_CACTVS_TAUTO_COUNT>  (1) 
1

>  <PUBCHEM_CONFORMER_ID>  (1) 
0000B24B00000001

>  <PUBCHEM_MMFF94_ENERGY>  (1) 
103.6427

>  <PUBCHEM_FEATURE_SELFOVERLAP>  (1) 
20.297

>  <PUBCHEM_SHAPE_FINGERPRINT>  (1) 
10 15 14261345864623361729
10299344 5 18201723963395387800
11315181 36 17917713535432554921
11646440 116 14476962293853712154
11719270 70 17704070676953430606
12516196 113 18408322189875982492
12596602 18 17489872630618557698
13167372 99 9151179761475206966
13533116 47 18411135827594206128
13668630 136 17894352185426808411
13685833 64 18342458136283967588
13782708 43 18342171150595067373
14251764 18 17346881160759229137
14849402 71 17131548469990909320
15183329 4 16008750190870769365
15188451 53 17775281712406439543
15352257 5 18410011031088205067
15419008 145 12966857771649913170
15461852 350 14979954783903514933
15475509 35 18268697347849362914
15716309 27 18060137643863898477
17093844 174 18409727370854030953
17857418 61 18412261736085792703
20281389 69 11960011944158366113
20567600 247 18334573529668956787
21130935 74 17703794712541358870
21150785 3 16226055487409816796
21315763 28 9583520927825088029
22061861 79 17167581600921264175
22224240 67 16487248881219339172
23522609 53 18056227805985547233
23559900 14 17022904614070466045
2838139 119 11314309464370479295
29717793 49 17458063750647593084
3004659 81 17458062672763938261
3663271 9 17632580465448967083
4340502 62 18411974777037063064
465052 167 17846779599027899796
5104073 3 15481843267868642946
531348 171 18334570219330229365
543368 44 8286206042185144983
559249 180 18412822517655801255
59755656 520 9367343722054044041

>  <PUBCHEM_SHAPE_MULTIPOLES>  (1) 
504.53
26.04
2.06
1.54
19.48
1.18
0.5
8.44
-2.08
-1.04
-0.09
1.33
0.17
-0.18

>  <PUBCHEM_SHAPE_SELFOVERLAP>  (1) 
984.817

>  <PUBCHEM_SHAPE_VOLUME>  (1) 
303.5

>  <PUBCHEM_COORDINATE_TYPE>  (1) 
2
5
10

$$$$
