45660
     RDKit          3D

 35 40  0  0  0  0  0  0  0  0999 V2000
   -2.2895    1.3957    0.8656 N   0  0  0  0  0  0  0  0  0  0  0  0
    2.1041    0.8602   -1.4271 N   0  0  0  0  0  0  0  0  0  0  0  0
   -2.9400    0.5339   -0.1568 C   0  0  0  0  0  0  0  0  0  0  0  0
    3.5762    0.4289   -1.3510 C   0  0  0  0  0  0  0  0  0  0  0  0
   -0.8335    0.9676    1.0887 C   0  0  0  0  0  0  0  0  0  0  0  0
    1.4443    0.7226   -0.1079 C   0  0  0  0  0  0  0  0  0  0  0  0
   -0.0369    1.0718   -0.2074 C   0  0  0  0  0  0  0  0  0  0  0  0
   -2.9664   -0.9352    0.2264 C   0  0  0  0  0  0  0  0  0  0  0  0
   -4.4174    0.8328   -0.3408 C   0  0  0  0  0  0  0  0  0  0  0  0
    3.7549   -1.0274   -0.9596 C   0  0  0  0  0  0  0  0  0  0  0  0
    4.3538    1.1412   -0.2585 C   0  0  0  0  0  0  0  0  0  0  0  0
   -3.0284    1.2987    2.2062 C   0  0  0  0  0  0  0  0  0  0  0  0
   -2.2950    2.8635    0.4203 C   0  0  0  0  0  0  0  0  0  0  0  0
    1.4074   -0.0129   -2.4814 C   0  0  0  0  0  0  0  0  0  0  0  0
    2.0605    2.3166   -1.9124 C   0  0  0  0  0  0  0  0  0  0  0  0
   -4.2968   -1.4111    0.2579 C   0  0  0  0  0  0  0  0  0  0  0  0
   -5.1880   -0.3250   -0.0902 C   0  0  0  0  0  0  0  0  0  0  0  0
    4.5399   -1.1288    0.2112 C   0  0  0  0  0  0  0  0  0  0  0  0
    4.9079    0.2032    0.6417 C   0  0  0  0  0  0  0  0  0  0  0  0
   -1.8979   -1.7627    0.5298 C   0  0  0  0  0  0  0  0  0  0  0  0
   -5.0136    2.0340   -0.6878 C   0  0  0  0  0  0  0  0  0  0  0  0
    3.2689   -2.1546   -1.6010 C   0  0  0  0  0  0  0  0  0  0  0  0
    4.5552    2.5019   -0.0955 C   0  0  0  0  0  0  0  0  0  0  0  0
   -4.5659   -2.7292    0.5884 C   0  0  0  0  0  0  0  0  0  0  0  0
   -6.5689   -0.2881   -0.1937 C   0  0  0  0  0  0  0  0  0  0  0  0
    4.8382   -2.3678    0.7543 C   0  0  0  0  0  0  0  0  0  0  0  0
    5.6657    0.6257    1.7217 C   0  0  0  0  0  0  0  0  0  0  0  0
   -2.1697   -3.0910    0.8624 C   0  0  0  0  0  0  0  0  0  0  0  0
   -6.4054    2.0705   -0.7921 C   0  0  0  0  0  0  0  0  0  0  0  0
    3.5695   -3.4030   -1.0532 C   0  0  0  0  0  0  0  0  0  0  0  0
    5.3188    2.9273    0.9930 C   0  0  0  0  0  0  0  0  0  0  0  0
   -3.4903   -3.5697    0.8907 C   0  0  0  0  0  0  0  0  0  0  0  0
   -7.1753    0.9207   -0.5483 C   0  0  0  0  0  0  0  0  0  0  0  0
    4.3457   -3.5085    0.1132 C   0  0  0  0  0  0  0  0  0  0  0  0
    5.8679    1.9985    1.8932 C   0  0  0  0  0  0  0  0  0  0  0  0
  1  3  1  0
  1  5  1  0
  1 12  1  0
  1 13  1  0
  2  4  1  0
  2  6  1  0
  2 14  1  0
  2 15  1  0
  3  8  1  0
  3  9  1  0
  4 10  1  0
  4 11  1  0
  5  7  1  0
  6  7  1  0
  8 16  1  0
  8 20  2  0
  9 17  2  0
  9 21  1  0
 10 18  1  0
 10 22  2  0
 11 19  2  0
 11 23  1  0
 16 17  1  0
 16 24  2  0
 17 25  1  0
 18 19  1  0
 18 26  2  0
 19 27  1  0
 20 28  1  0
 21 29  2  0
 22 30  1  0
 23 31  2  0
 24 32  1  0
 25 33  2  0
 26 34  1  0
 27 35  2  0
 28 32  2  0
 29 33  1  0
 30 34  2  0
 31 35  1  0
M  CHG  2   1   1   2   1
M  END
>  <PUBCHEM_COMPOUND_CID>  (1) 
45660

>  <PUBCHEM_CONFORMER_RMSD>  (1) 
1

>  <PUBCHEM_CONFORMER_DIVERSEORDER>  (1) 
6
4
3
5
8
1
2
7

>  <PUBCHEM_MMFF94_PARTIAL_CHARGES>  (1) 
46
1 -1.01
10 -0.14
11 -0.14
12 0.5
13 0.5
14 0.5
15 0.5
2 -1.01
20 -0.15
21 -0.15
22 -0.15
23 -0.15
24 -0.15
25 -0.15
26 -0.15
27 -0.15
28 -0.15
29 -0.15
3 0.79
30 -0.15
31 -0.15
32 -0.15
33 -0.15
34 -0.15
35 -0.15
4 0.79
5 0.5
56 0.15
57 0.15
58 0.15
59 0.15
6 0.5
60 0.15
61 0.15
62 0.15
63 0.15
64 0.15
65 0.15
66 0.15
67 0.15
68 0.15
69 0.15
70 0.15
71 0.15
8 -0.14
9 -0.14

>  <PUBCHEM_EFFECTIVE_ROTOR_COUNT>  (1) 
6.4

>  <PUBCHEM_PHARMACOPHORE_FEATURES>  (1) 
8
1 1 cation
1 2 cation
5 3 8 9 16 17 rings
5 4 10 11 18 19 rings
6 10 18 22 26 30 34 rings
6 11 19 23 27 31 35 rings
6 8 16 20 24 28 32 rings
6 9 17 21 25 29 33 rings

>  <PUBCHEM_HEAVY_ATOM_COUNT>  (1) 
35

>  <PUBCHEM_ATOM_DEF_STEREO_COUNT>  (1) 
0

>  <PUBCHEM_ATOM_UDEF_STEREO_COUNT>  (1) 
0

>  <PUBCHEM_BOND_DEF_STEREO_COUNT>  (1) 
0

>  <PUBCHEM_BOND_UDEF_STEREO_COUNT>  (1) 
0

>  <PUBCHEM_ISOTOPIC_ATOM_COUNT>  (1) 
0

>  <PUBCHEM_COMPONENT_COUNT>  (1) 
1

>  <PUBCHEM_CACTVS_TAUTO_COUNT>  (1) 
1

>  <PUBCHEM_CONFORMER_ID>  (1) 
0000B25C00000006

>  <PUBCHEM_MMFF94_ENERGY>  (1) 
171.4065

>  <PUBCHEM_FEATURE_SELFOVERLAP>  (1) 
40.925

>  <PUBCHEM_SHAPE_FINGERPRINT>  (1) 
10835480 77 18413383250499113041
12373685 5 18269534161353575951
12677640 9 17550104758267614016
12728209 76 17385725786114893541
12786520 15 16370725924172913999
131258 43 17200818614144534894
13533116 47 18341333297170509894
13583140 156 18131064970039773304
13636023 51 18411975846088241640
13782708 43 11891333166796701201
13811026 1 18410289220704785775
14910302 57 18187645773779793509
15001296 14 18186799171148456355
15082195 135 18336563693461103364
15183329 4 17967253079245325349
15419008 42 18190726553889877389
15911013 46 18336548192998328970
17809404 112 18411143562244691434
19053607 189 18334857281432053716
19301679 30 17753628033315226787
19958102 18 18188204313292366695
20511986 3 18340758316834584695
20715895 44 18335701611577415039
21859007 373 17678161716601342445
23559900 14 18340498785267646358
23572383 38 18411139147108202855
2747138 104 11743546744076660709
3004659 81 18261116244575583494
32027 91 18266177219447658550
3383291 50 18114465652170996643
354706 109 18266437936842160042
3633792 109 18337383822061908613
404807 14 17475520469392880363
4073 2 18335702796824566296
4173938 306 18192681588427395828
4403749 210 18053935436690914496
460360 51 18189356656891104139
4874694 18 18338222843094617425
5104073 3 18271816695863132201
513532 50 18114458977553902370
57816373 69 18054228722442963446
77296 10 18409167696926415337
8988823 20 18272647914217468260
9961470 85 18335415742633532874

>  <PUBCHEM_SHAPE_MULTIPOLES>  (1) 
710.32
17.62
4.18
1.69
8.26
2.76
-0.2
-3.32
1.92
-1.8
0.51
-1.62
-0.45
2.34

>  <PUBCHEM_SHAPE_SELFOVERLAP>  (1) 
1577.758

>  <PUBCHEM_SHAPE_VOLUME>  (1) 
383.1

>  <PUBCHEM_COORDINATE_TYPE>  (1) 
2
5
10

$$$$
