4567
     RDKit          3D

 22 23  0  0  1  0  0  0  0  0999 V2000
   -1.8772   -1.1551   -1.6825 O   0  0  0  0  0  0  0  0  0  0  0  0
   -7.5695    0.0604    0.4739 O   0  0  0  0  0  0  0  0  0  0  0  0
    0.2142    0.1995   -0.3046 N   0  0  0  0  0  0  0  0  0  0  0  0
    1.0428    1.3881   -0.1015 C   0  0  0  0  0  0  0  0  0  0  0  0
   -1.1824    0.4919   -0.0237 C   0  0  0  0  0  0  0  0  0  0  0  0
    2.5284    1.0724   -0.3570 C   0  0  0  0  0  0  0  0  0  0  0  0
   -2.0436   -0.7568   -0.3189 C   0  0  0  0  0  0  0  0  0  0  0  0
    3.1342    0.0089    0.5713 C   0  0  0  0  0  0  0  0  0  0  0  0
    0.5680    2.5073   -1.0287 C   0  0  0  0  0  0  0  0  0  0  0  0
   -1.2858    0.9457    1.4337 C   0  0  0  0  0  0  0  0  0  0  0  0
   -3.5262   -0.5373   -0.1058 C   0  0  0  0  0  0  0  0  0  0  0  0
    4.6052   -0.2335    0.3440 C   0  0  0  0  0  0  0  0  0  0  0  0
   -4.2110   -1.3590    0.7719 C   0  0  0  0  0  0  0  0  0  0  0  0
   -4.1633    0.4799   -0.7945 C   0  0  0  0  0  0  0  0  0  0  0  0
    5.0034   -1.2004   -0.5668 C   0  0  0  0  0  0  0  0  0  0  0  0
    5.5356    0.5144    1.0498 C   0  0  0  0  0  0  0  0  0  0  0  0
   -5.5772   -1.1570    0.9672 C   0  0  0  0  0  0  0  0  0  0  0  0
   -5.5296    0.6818   -0.5990 C   0  0  0  0  0  0  0  0  0  0  0  0
   -6.2366   -0.1366    0.2818 C   0  0  0  0  0  0  0  0  0  0  0  0
    6.3640   -1.4248   -0.7768 C   0  0  0  0  0  0  0  0  0  0  0  0
    6.8962    0.2901    0.8397 C   0  0  0  0  0  0  0  0  0  0  0  0
    7.3104   -0.6796   -0.0736 C   0  0  0  0  0  0  0  0  0  0  0  0
  1  7  1  0
  2 19  1  0
  3  4  1  0
  3  5  1  0
  4  6  1  0
  4  9  1  0
  5  7  1  0
  5 10  1  0
  6  8  1  0
  7 11  1  0
  8 12  1  0
 11 13  2  0
 11 14  1  0
 12 15  2  0
 12 16  1  0
 13 17  1  0
 14 18  2  0
 15 20  1  0
 16 21  2  0
 17 19  2  0
 18 19  1  0
 20 22  2  0
 21 22  1  0
M  END
>  <PUBCHEM_COMPOUND_CID>  (1) 
4567

>  <PUBCHEM_CONFORMER_RMSD>  (1) 
0.8

>  <PUBCHEM_CONFORMER_DIVERSEORDER>  (1) 
4
93
16
33
60
37
8
98
27
99
83
36
40
68
74
86
15
46
6
62
3
30
67
70
32
94
75
20
17
53
73
72
34
25
71
9
96
11
65
59
22
19
24
54
91
79
38
51
7
35
2
18
31
41
61
5
77
44
12
47
85
89
66
52
97
82
13
39
84
87
50
76
78
57
1
64
28
48
26
42
63
45
49
23
56
55
58
95
92
14
69
90
80
21
81
29
10
43
88

>  <PUBCHEM_MMFF94_PARTIAL_CHARGES>  (1) 
31
1 -0.68
11 -0.14
12 -0.14
13 -0.15
14 -0.15
15 -0.15
16 -0.15
17 -0.15
18 -0.15
19 0.08
2 -0.53
20 -0.15
21 -0.15
22 -0.15
27 0.36
3 -0.9
37 0.4
38 0.15
39 0.15
4 0.27
40 0.15
41 0.15
42 0.15
43 0.15
44 0.15
45 0.15
46 0.15
47 0.45
5 0.27
7 0.42
8 0.14

>  <PUBCHEM_EFFECTIVE_ROTOR_COUNT>  (1) 
7

>  <PUBCHEM_PHARMACOPHORE_FEATURES>  (1) 
7
1 1 acceptor
1 1 donor
1 2 donor
1 3 cation
1 3 donor
6 11 13 14 17 18 19 rings
6 12 15 16 20 21 22 rings

>  <PUBCHEM_HEAVY_ATOM_COUNT>  (1) 
22

>  <PUBCHEM_ATOM_DEF_STEREO_COUNT>  (1) 
0

>  <PUBCHEM_ATOM_UDEF_STEREO_COUNT>  (1) 
3

>  <PUBCHEM_BOND_DEF_STEREO_COUNT>  (1) 
0

>  <PUBCHEM_BOND_UDEF_STEREO_COUNT>  (1) 
0

>  <PUBCHEM_ISOTOPIC_ATOM_COUNT>  (1) 
0

>  <PUBCHEM_COMPONENT_COUNT>  (1) 
1

>  <PUBCHEM_CACTVS_TAUTO_COUNT>  (1) 
2

>  <PUBCHEM_CONFORMER_ID>  (1) 
000011D700000004

>  <PUBCHEM_MMFF94_ENERGY>  (1) 
50.1679

>  <PUBCHEM_FEATURE_SELFOVERLAP>  (1) 
35.524

>  <PUBCHEM_SHAPE_FINGERPRINT>  (1) 
10 15 11599996649005983454
10299344 5 16370444449232723595
10613725 11 16081088182006677376
10670039 82 11458691808213500414
11315181 36 18411421722113545281
11524674 6 18412826910817215679
12236239 1 18201438107562448337
12516196 113 18407758140684973600
12592606 108 18408885166094956251
12633257 1 16271926043042119658
12730499 353 8358261466901202272
13288520 33 17821728347464509933
13533116 47 17203610350928053942
13668630 136 18333736818510559898
13673619 4 17385723621171749469
13685833 64 18334859420140728472
13914758 101 17131557154672542369
14123256 10 9079116661579141443
14251752 14 17458340823309140572
14251757 52 14476954636913201018
14251764 18 17060616724314193815
14251764 46 18410855456355466443
14341114 176 17632858633949803528
14617045 38 17675924291716058010
14840074 17 17988638588705625998
14856354 85 17095248021049299523
15183329 4 17240482502702065465
15419008 91 18189315979224961900
15537594 2 18409441484434477118
15716309 27 17132114632573845160
15849732 13 18411980264939696135
18006028 8 17989486316360165088
19141452 34 18131345349699506182
19489759 90 13686299088874427263
19784866 240 18335146396606808228
20157964 124 12540695917120154112
20567600 254 10592045752231238732
21150785 3 13045945720144103593
21267235 1 18333454239674460909
21315759 40 15285356214958227729
221357 26 13117998899256637270
22224240 67 17060613409169393894
2297311 6 17458345239200133261
23016692 55 18113622287606519534
23035841 295 15719391746206892235
23198884 109 15068623772862364452
23402539 116 16200428079143299297
23522609 53 16009606650304611980
23559900 14 18338230582615518857
23622692 88 17418093243451276428
246663 6 17022907861117781523
249057 3 18040434417417147871
2767999 5 10879993558205306162
28498 318 18410292489153571839
3004659 81 17676491657538976276
335352 9 18113051637277994229
34797466 226 15719398317934662166
4325135 7 14345793842325938098
437815 12 18334011705134175469
5207 217 7997967976992382197
559249 180 18130783495274222047
59755656 215 18261109643300883938
59755656 520 11023820652623328240
7226269 152 17131834261720202105

>  <PUBCHEM_SHAPE_MULTIPOLES>  (1) 
436.03
21.11
1.58
1.14
7.31
0.54
0.01
-6.75
2.51
0.25
-0.33
0.02
-0.02
1.07

>  <PUBCHEM_SHAPE_SELFOVERLAP>  (1) 
905.494

>  <PUBCHEM_SHAPE_VOLUME>  (1) 
249.5

>  <PUBCHEM_COORDINATE_TYPE>  (1) 
2
5
10

$$$$
