45687
     RDKit          3D

 22 22  0  0  0  0  0  0  0  0999 V2000
    4.1443   -0.0567   -0.0514 N   0  0  0  0  0  0  0  0  0  0  0  0
   -3.8317   -0.1685    0.1796 N   0  0  0  0  0  0  0  0  0  0  0  0
    2.6625   -0.3973   -0.1194 C   0  0  0  0  0  0  0  0  0  0  0  0
    4.3864    1.2903   -0.7170 C   0  0  0  0  0  0  0  0  0  0  0  0
    4.9452   -1.1307   -0.7735 C   0  0  0  0  0  0  0  0  0  0  0  0
    4.5831    0.0107    1.4043 C   0  0  0  0  0  0  0  0  0  0  0  0
    1.8219    0.8487    0.1371 C   0  0  0  0  0  0  0  0  0  0  0  0
   -2.4089    0.0899    0.1694 C   0  0  0  0  0  0  0  0  0  0  0  0
   -4.2414   -1.5989    0.6525 C   0  0  0  0  0  0  0  0  0  0  0  0
   -4.5862    0.8015    1.1332 C   0  0  0  0  0  0  0  0  0  0  0  0
   -4.4536   -0.0197   -1.2382 C   0  0  0  0  0  0  0  0  0  0  0  0
    0.3365    0.5842    0.1488 C   0  0  0  0  0  0  0  0  0  0  0  0
    3.9484    1.2173   -2.1634 C   0  0  0  0  0  0  0  0  0  0  0  0
    4.7004   -2.4670   -0.1075 C   0  0  0  0  0  0  0  0  0  0  0  0
    6.0566    0.3493    1.4655 C   0  0  0  0  0  0  0  0  0  0  0  0
   -1.6756    0.0020    1.3526 C   0  0  0  0  0  0  0  0  0  0  0  0
   -1.7696    0.4248   -1.0243 C   0  0  0  0  0  0  0  0  0  0  0  0
   -0.3030    0.2492    1.3424 C   0  0  0  0  0  0  0  0  0  0  0  0
   -0.3969    0.6720   -1.0345 C   0  0  0  0  0  0  0  0  0  0  0  0
   -3.6188   -2.6255   -0.2682 C   0  0  0  0  0  0  0  0  0  0  0  0
   -4.3611    2.2259    0.6751 C   0  0  0  0  0  0  0  0  0  0  0  0
   -5.9384   -0.3012   -1.1631 C   0  0  0  0  0  0  0  0  0  0  0  0
  1  3  1  0
  1  4  1  0
  1  5  1  0
  1  6  1  0
  2  8  1  0
  2  9  1  0
  2 10  1  0
  2 11  1  0
  3  7  1  0
  4 13  1  0
  5 14  1  0
  6 15  1  0
  7 12  1  0
  8 16  2  0
  8 17  1  0
  9 20  1  0
 10 21  1  0
 11 22  1  0
 12 18  2  0
 12 19  1  0
 16 18  1  0
 17 19  2  0
M  CHG  2   1   1   2   1
M  END
>  <PUBCHEM_COMPOUND_CID>  (1) 
45687

>  <PUBCHEM_CONFORMER_RMSD>  (1) 
1

>  <PUBCHEM_CONFORMER_DIVERSEORDER>  (1) 
2
3
4
1

>  <PUBCHEM_MMFF94_PARTIAL_CHARGES>  (1) 
20
1 -1.01
10 0.5
11 0.5
12 -0.14
16 -0.15
17 -0.15
18 -0.15
19 -0.15
2 -0.87
3 0.5
4 0.5
48 0.15
49 0.15
5 0.5
50 0.15
51 0.15
6 0.5
7 0.14
8 0.36
9 0.5

>  <PUBCHEM_EFFECTIVE_ROTOR_COUNT>  (1) 
10

>  <PUBCHEM_PHARMACOPHORE_FEATURES>  (1) 
3
1 1 cation
1 2 cation
6 8 12 16 17 18 19 rings

>  <PUBCHEM_HEAVY_ATOM_COUNT>  (1) 
22

>  <PUBCHEM_ATOM_DEF_STEREO_COUNT>  (1) 
0

>  <PUBCHEM_ATOM_UDEF_STEREO_COUNT>  (1) 
0

>  <PUBCHEM_BOND_DEF_STEREO_COUNT>  (1) 
0

>  <PUBCHEM_BOND_UDEF_STEREO_COUNT>  (1) 
0

>  <PUBCHEM_ISOTOPIC_ATOM_COUNT>  (1) 
0

>  <PUBCHEM_COMPONENT_COUNT>  (1) 
1

>  <PUBCHEM_CACTVS_TAUTO_COUNT>  (1) 
1

>  <PUBCHEM_CONFORMER_ID>  (1) 
0000B27700000002

>  <PUBCHEM_MMFF94_ENERGY>  (1) 
103.1703

>  <PUBCHEM_FEATURE_SELFOVERLAP>  (1) 
15.223

>  <PUBCHEM_SHAPE_FINGERPRINT>  (1) 
10912923 1 18187088381456342112
11315181 36 18335418001822512961
11796584 16 18334006211617887290
12236239 1 17632858607868704664
12596602 18 17203605986850956066
12616971 3 17675926508087500016
13073987 5 17988921154355875688
13167823 11 18408326596327552058
13533116 47 17917149403978440478
13583140 156 17775278387178742457
13675066 3 17275107244884210008
15183329 4 18113618967079887031
15788980 27 17561086908070476025
17349148 13 13542460990502857793
17844677 252 17704355480561586728
17857418 61 18410567405319874774
19489759 90 18060416907117022449
200 152 18343303656156284688
20281475 54 18409452492018204372
20645477 70 17967258602757909946
21033648 29 15195280885421741355
220451 1 18202293489080765986
22061861 79 17822007601294613670
23402539 116 18413388714129978145
23559900 14 18199737193803889977
29717793 49 18261108560784061036
3004659 81 18113618989208961662
314173 85 18040434365139354580
5104073 3 17917996048889518578
542803 24 18335707139126400496
559249 180 18058729096517557319
633830 44 16660641886214933517
90127 26 16988853786428551600
960060 61 18113345219313760102

>  <PUBCHEM_SHAPE_MULTIPOLES>  (1) 
442.79
15.11
1.9
1.58
4.81
1.03
0.18
1.93
0.15
-0.5
0.11
0.7
-0.41
-0.71

>  <PUBCHEM_SHAPE_SELFOVERLAP>  (1) 
871.623

>  <PUBCHEM_SHAPE_VOLUME>  (1) 
264.3

>  <PUBCHEM_COORDINATE_TYPE>  (1) 
2
5
10

$$$$
