45683
     RDKit          3D

 19 18  0  0  0  0  0  0  0  0999 V2000
   -0.0082    2.8945   -0.0175 S   0  0  0  0  0  0  0  0  0  0  0  0
   -2.7535   -0.1449   -0.0103 N   0  0  0  0  0  0  0  0  0  0  0  0
    2.7810   -0.1681    0.0011 N   0  0  0  0  0  0  0  0  0  0  0  0
   -1.7362    0.7984   -0.5351 C   0  0  0  0  0  0  0  0  0  0  0  0
    1.7341    0.8038    0.5259 C   0  0  0  0  0  0  0  0  0  0  0  0
   -3.3194   -1.0204   -1.1373 C   0  0  0  0  0  0  0  0  0  0  0  0
   -3.9211    0.6151    0.6346 C   0  0  0  0  0  0  0  0  0  0  0  0
   -2.1434   -1.0709    1.0515 C   0  0  0  0  0  0  0  0  0  0  0  0
    3.9199    0.6109   -0.6411 C   0  0  0  0  0  0  0  0  0  0  0  0
    3.3228   -1.0010    1.1539 C   0  0  0  0  0  0  0  0  0  0  0  0
    2.1473   -1.0861   -1.0342 C   0  0  0  0  0  0  0  0  0  0  0  0
   -1.2428    1.7144    0.5727 C   0  0  0  0  0  0  0  0  0  0  0  0
    1.2378    1.7027   -0.5947 C   0  0  0  0  0  0  0  0  0  0  0  0
   -2.2008   -1.8428   -1.7388 C   0  0  0  0  0  0  0  0  0  0  0  0
   -4.5427    1.5374   -0.3913 C   0  0  0  0  0  0  0  0  0  0  0  0
   -3.1996   -2.0419    1.5320 C   0  0  0  0  0  0  0  0  0  0  0  0
    4.5458    1.5215    0.3925 C   0  0  0  0  0  0  0  0  0  0  0  0
    2.1865   -1.7728    1.7881 C   0  0  0  0  0  0  0  0  0  0  0  0
    3.1927   -2.0498   -1.5519 C   0  0  0  0  0  0  0  0  0  0  0  0
  1 12  1  0
  1 13  1  0
  2  4  1  0
  2  6  1  0
  2  7  1  0
  2  8  1  0
  3  5  1  0
  3  9  1  0
  3 10  1  0
  3 11  1  0
  4 12  1  0
  5 13  1  0
  6 14  1  0
  7 15  1  0
  8 16  1  0
  9 17  1  0
 10 18  1  0
 11 19  1  0
M  CHG  2   2   1   3   1
M  END
>  <PUBCHEM_COMPOUND_CID>  (1) 
45683

>  <PUBCHEM_CONFORMER_RMSD>  (1) 
1

>  <PUBCHEM_CONFORMER_DIVERSEORDER>  (1) 
5
19
93
47
87
92
48
91
20
63
60
86
88
46
4
13
89
2
90
82
6
14
118
15
64
3
120
83
119
1
62
21
65
116
58
66
117
61
84
67
25
85
59
7
115
16
68
26
69
74
18
75
17
23
111
94
9
38
73
110
95
8
36
105
34
96
41
22
109
42
24
44
27
32
103
52
31
104
81
100
33
77
102
80
54
37
76
101
79
35
78
53
39
113
40
114
49
45
10
50
43
112
108
51
55
107
57
28
56
30
106
72
11
70
29
12
71
97
99
98

>  <PUBCHEM_MMFF94_PARTIAL_CHARGES>  (1) 
13
1 -0.46
10 0.5
11 0.5
12 0.23
13 0.23
2 -1.01
3 -1.01
4 0.5
5 0.5
6 0.5
7 0.5
8 0.5
9 0.5

>  <PUBCHEM_EFFECTIVE_ROTOR_COUNT>  (1) 
12

>  <PUBCHEM_PHARMACOPHORE_FEATURES>  (1) 
2
1 2 cation
1 3 cation

>  <PUBCHEM_HEAVY_ATOM_COUNT>  (1) 
19

>  <PUBCHEM_ATOM_DEF_STEREO_COUNT>  (1) 
0

>  <PUBCHEM_ATOM_UDEF_STEREO_COUNT>  (1) 
0

>  <PUBCHEM_BOND_DEF_STEREO_COUNT>  (1) 
0

>  <PUBCHEM_BOND_UDEF_STEREO_COUNT>  (1) 
0

>  <PUBCHEM_ISOTOPIC_ATOM_COUNT>  (1) 
0

>  <PUBCHEM_COMPONENT_COUNT>  (1) 
1

>  <PUBCHEM_CACTVS_TAUTO_COUNT>  (1) 
1

>  <PUBCHEM_CONFORMER_ID>  (1) 
0000B27300000005

>  <PUBCHEM_MMFF94_ENERGY>  (1) 
81.7248

>  <PUBCHEM_FEATURE_SELFOVERLAP>  (1) 
10.149

>  <PUBCHEM_SHAPE_FINGERPRINT>  (1) 
10366900 7 15554449595497065452
10498660 4 18130786771800986150
10616163 171 18272652393335419828
11552529 35 16056030406235322831
12553582 1 18410006637157150777
12596599 1 18339098007074214170
12633257 1 15554180167946207939
12670545 2 18263354798778647461
12670545 47 16988832895565244560
12788726 201 18269274564914339321
14022347 108 18265632986681657853
14252887 29 18342187669350563232
14787075 74 18196649825351819192
15375358 24 18411135835593569472
15375462 189 18408037424774689240
15635459 17 18412267250396448378
16752209 62 18120370948038640169
20442098 301 18272650125777310124
20645477 70 18413103944285279532
23402539 116 18334292098206174376
23419403 2 13528123736644071992
23557571 272 18261970638119690738
23559900 14 18201719492814630204
2871803 45 18334860481103470412
314173 41 18334022704397727233
34934 24 18410852161593720197
81228 2 18195533596941051137
9709674 26 18411142424115404789

>  <PUBCHEM_SHAPE_MULTIPOLES>  (1) 
384.9
8.85
2.85
1.58
0.03
0.57
0.02
-0.32
0.01
-0.05
-0.04
0.03
-1.27
0.25

>  <PUBCHEM_SHAPE_SELFOVERLAP>  (1) 
700.314

>  <PUBCHEM_SHAPE_VOLUME>  (1) 
251.4

>  <PUBCHEM_COORDINATE_TYPE>  (1) 
2
5
10

$$$$
