45700
     RDKit          3D

 24 26  0  0  1  0  0  0  0  0999 V2000
    1.0393   -1.5474   -0.0700 O   0  0  0  0  0  0  0  0  0  0  0  0
   -2.2720    1.9438   -0.4340 O   0  0  0  0  0  0  0  0  0  0  0  0
    0.3890    1.1420   -0.4398 O   0  0  0  0  0  0  0  0  0  0  0  0
   -5.3500   -0.8197    0.1459 O   0  0  0  0  0  0  0  0  0  0  0  0
    1.5021    3.6836   -0.3504 O   0  0  0  0  0  0  0  0  0  0  0  0
    3.7333    0.8979    0.6357 N   0  0  0  0  0  0  0  0  0  0  0  0
   -1.1937   -2.0859    0.1161 C   0  0  0  0  0  0  0  0  0  0  0  0
   -0.5155   -3.3916    0.2217 C   0  0  0  0  0  0  0  0  0  0  0  0
    0.9494   -2.9336    0.3488 C   0  0  0  0  0  0  0  0  0  0  0  0
   -2.6624   -1.8375    0.1290 C   0  0  0  0  0  0  0  0  0  0  0  0
   -0.2803   -1.1358   -0.0466 C   0  0  0  0  0  0  0  0  0  0  0  0
   -3.0180   -0.3603   -0.0212 C   0  0  0  0  0  0  0  0  0  0  0  0
   -0.6335    0.2419   -0.2366 C   0  0  0  0  0  0  0  0  0  0  0  0
   -1.9271    0.6156   -0.2147 C   0  0  0  0  0  0  0  0  0  0  0  0
   -4.2971    0.0590    0.0001 C   0  0  0  0  0  0  0  0  0  0  0  0
    1.9013   -3.7704   -0.4904 C   0  0  0  0  0  0  0  0  0  0  0  0
   -4.6420    1.5133   -0.1066 C   0  0  0  0  0  0  0  0  0  0  0  0
   -3.4335    2.3473    0.2959 C   0  0  0  0  0  0  0  0  0  0  0  0
    0.8440    1.6745    0.7899 C   0  0  0  0  0  0  0  0  0  0  0  0
    1.9856    2.6502    0.5126 C   0  0  0  0  0  0  0  0  0  0  0  0
    3.1945    1.9939   -0.1583 C   0  0  0  0  0  0  0  0  0  0  0  0
    4.8458    0.2554   -0.0508 C   0  0  0  0  0  0  0  0  0  0  0  0
    4.3905   -0.2963   -1.3955 C   0  0  0  0  0  0  0  0  0  0  0  0
    5.4502   -0.8397    0.8192 C   0  0  0  0  0  0  0  0  0  0  0  0
  1  9  1  0
  1 11  1  0
  2 14  1  0
  2 18  1  0
  3 13  1  0
  3 19  1  0
  4 15  1  0
  5 20  1  0
  6 21  1  0
  6 22  1  0
  7  8  1  0
  7 10  1  0
  7 11  2  0
  8  9  1  0
  9 16  1  0
 10 12  1  0
 11 13  1  0
 12 14  1  0
 12 15  2  0
 13 14  2  0
 15 17  1  0
 17 18  1  0
 19 20  1  0
 20 21  1  0
 22 23  1  0
 22 24  1  0
M  END
>  <PUBCHEM_COMPOUND_CID>  (1) 
45700

>  <PUBCHEM_CONFORMER_RMSD>  (1) 
0.8

>  <PUBCHEM_CONFORMER_DIVERSEORDER>  (1) 
4
81
80
83
47
93
70
56
36
18
89
21
90
45
8
72
27
78
84
77
50
23
64
59
91
54
65
43
46
15
51
95
87
48
86
3
71
39
42
67
75
26
55
94
85
38
76
14
66
57
79
17
60
35
69
10
58
30
53
9
13
73
49
20
5
82
92
52
68
2
97
33
11
29
61
34
41
88
37
74
63
25
44
24
31
40
96
16
22
62
19
1
28
12
6
32
7

>  <PUBCHEM_MMFF94_PARTIAL_CHARGES>  (1) 
24
1 -0.36
10 0.28
11 0.08
12 -0.14
13 0.08
14 0.08
15 -0.06
17 0.14
18 0.28
19 0.28
2 -0.36
20 0.28
21 0.27
22 0.27
3 -0.36
4 -0.53
43 0.36
44 0.45
5 -0.68
51 0.4
6 -0.9
7 -0.28
8 0.14
9 0.28

>  <PUBCHEM_EFFECTIVE_ROTOR_COUNT>  (1) 
7.4

>  <PUBCHEM_PHARMACOPHORE_FEATURES>  (1) 
12
1 1 acceptor
1 2 acceptor
1 3 acceptor
1 4 donor
1 5 acceptor
1 5 donor
1 6 cation
1 6 donor
3 22 23 24 hydrophobe
5 1 7 8 9 11 rings
6 2 12 14 15 17 18 rings
6 7 10 11 12 13 14 rings

>  <PUBCHEM_HEAVY_ATOM_COUNT>  (1) 
24

>  <PUBCHEM_ATOM_DEF_STEREO_COUNT>  (1) 
0

>  <PUBCHEM_ATOM_UDEF_STEREO_COUNT>  (1) 
2

>  <PUBCHEM_BOND_DEF_STEREO_COUNT>  (1) 
0

>  <PUBCHEM_BOND_UDEF_STEREO_COUNT>  (1) 
0

>  <PUBCHEM_ISOTOPIC_ATOM_COUNT>  (1) 
0

>  <PUBCHEM_COMPONENT_COUNT>  (1) 
1

>  <PUBCHEM_CACTVS_TAUTO_COUNT>  (1) 
3

>  <PUBCHEM_CONFORMER_ID>  (1) 
0000B28400000004

>  <PUBCHEM_MMFF94_ENERGY>  (1) 
49.1234

>  <PUBCHEM_FEATURE_SELFOVERLAP>  (1) 
61.022

>  <PUBCHEM_SHAPE_FINGERPRINT>  (1) 
10411042 1 16176788926785421098
10616163 171 17545603813325358988
10693767 8 17483374693583625879
10967382 1 18338515231504021299
1100329 8 18339359768182612826
11112241 14 16915352594180112576
11578080 2 16807556276503404767
12173636 292 18123181566052534893
12403260 363 18339920527919003933
12592029 89 18410295800140964066
12788726 201 17324917552721509578
13140716 1 18192999446277753795
13402501 40 18412827963268072574
138480 1 17978508637602231771
14466204 15 18411133611185638856
14790565 3 18410017624021539292
15006816 218 18411700967390065358
15042514 8 18120095241524917499
15196674 1 18338515356432599824
15209289 33 18412544327374309141
15256400 18 18339359772446028960
15403338 16 17097753691842467202
1601671 61 18338233769644405768
16110190 28 18263623174880455770
17804303 29 18337393850077074812
17859628 97 18335134272367884090
19591789 44 18338516455770141281
19930381 70 18194402195439344034
20028762 73 18200589332152888087
20510252 161 17981329207508759265
20642791 35 17835806296124092942
20905425 154 17982172219489401590
21279426 13 18268995289097267612
21330990 113 18261393317084436188
21524375 3 18201441440947706453
23227448 37 18342174505012472983
23366157 5 18114745923870691131
23558518 356 17974283532528721946
23559900 14 18127971009013097448
3004659 81 18260834779043284764
3298306 158 18411134701753592422
335352 9 18410291427885245260
338550 245 18335142003166221724
350125 39 18409450289185589921
352729 6 18193560197260244587
3680242 22 18336266717878725986
4093350 32 17059498413941597879
5265222 85 18265064698822515580
532947 4 18340488846291628791
59755656 215 18409728444210414933
6138700 20 18339644422094680774
7364860 26 18339922598288269903
9709674 26 18124596646223039372

>  <PUBCHEM_SHAPE_MULTIPOLES>  (1) 
459.58
9.68
4.28
0.81
1.99
1.41
0.06
-2.33
-0.11
1.28
-0.08
0.64
-0.02
0.24

>  <PUBCHEM_SHAPE_SELFOVERLAP>  (1) 
963.859

>  <PUBCHEM_SHAPE_VOLUME>  (1) 
261.6

>  <PUBCHEM_COORDINATE_TYPE>  (1) 
2
5
10

$$$$
