45719
     RDKit          3D

 11 10  0  0  0  0  0  0  0  0999 V2000
   -0.7958   -0.0759   -0.0125 N   0  0  0  0  0  0  0  0  0  0  0  0
    0.4935    0.1371    0.7676 C   0  0  0  0  0  0  0  0  0  0  0  0
   -0.7184   -1.3934   -0.7706 C   0  0  0  0  0  0  0  0  0  0  0  0
   -1.9719   -0.1143    0.9526 C   0  0  0  0  0  0  0  0  0  0  0  0
   -0.9865    1.0667   -0.9995 C   0  0  0  0  0  0  0  0  0  0  0  0
    1.6637    0.1742   -0.2041 C   0  0  0  0  0  0  0  0  0  0  0  0
   -0.5289   -2.5252    0.2155 C   0  0  0  0  0  0  0  0  0  0  0  0
   -2.0437    1.1977    1.7030 C   0  0  0  0  0  0  0  0  0  0  0  0
   -2.2695    0.8493   -1.7716 C   0  0  0  0  0  0  0  0  0  0  0  0
    2.9886    0.3408    0.5390 C   0  0  0  0  0  0  0  0  0  0  0  0
    4.1689    0.3429   -0.4192 C   0  0  0  0  0  0  0  0  0  0  0  0
  1  2  1  0
  1  3  1  0
  1  4  1  0
  1  5  1  0
  2  6  1  0
  3  7  1  0
  4  8  1  0
  5  9  1  0
  6 10  1  0
 10 11  1  0
M  CHG  1   1   1
M  END
>  <PUBCHEM_COMPOUND_CID>  (1) 
45719

>  <PUBCHEM_CONFORMER_RMSD>  (1) 
0.6

>  <PUBCHEM_CONFORMER_DIVERSEORDER>  (1) 
2
1
3

>  <PUBCHEM_MMFF94_PARTIAL_CHARGES>  (1) 
5
1 -1.01
2 0.5
3 0.5
4 0.5
5 0.5

>  <PUBCHEM_EFFECTIVE_ROTOR_COUNT>  (1) 
6

>  <PUBCHEM_PHARMACOPHORE_FEATURES>  (1) 
2
1 1 cation
1 11 hydrophobe

>  <PUBCHEM_HEAVY_ATOM_COUNT>  (1) 
11

>  <PUBCHEM_ATOM_DEF_STEREO_COUNT>  (1) 
0

>  <PUBCHEM_ATOM_UDEF_STEREO_COUNT>  (1) 
0

>  <PUBCHEM_BOND_DEF_STEREO_COUNT>  (1) 
0

>  <PUBCHEM_BOND_UDEF_STEREO_COUNT>  (1) 
0

>  <PUBCHEM_ISOTOPIC_ATOM_COUNT>  (1) 
0

>  <PUBCHEM_COMPONENT_COUNT>  (1) 
1

>  <PUBCHEM_CACTVS_TAUTO_COUNT>  (1) 
1

>  <PUBCHEM_CONFORMER_ID>  (1) 
0000B29700000002

>  <PUBCHEM_MMFF94_ENERGY>  (1) 
37.0532

>  <PUBCHEM_FEATURE_SELFOVERLAP>  (1) 
10.148

>  <PUBCHEM_SHAPE_FINGERPRINT>  (1) 
12423570 1 15740313373566479679
12932764 1 18186798119524988320
13024252 1 15357690916159807707
14817 1 16009892510695943447
15310529 11 17530682104590444336
16945 1 18126030344718699715
18342897 96 17560808662698318545
20645464 45 18130518474052977606
21524375 3 16986612861430213169
3248919 1 17989200486840283144
369184 2 17530960306617562928
5084963 1 18410005576299910354
59915604 170 16841875534408987569

>  <PUBCHEM_SHAPE_MULTIPOLES>  (1) 
221.39
4.77
1.72
1.51
6.68
1.42
0.06
-1.67
0.23
-0.9
0.01
-1.34
-0.59
0

>  <PUBCHEM_SHAPE_SELFOVERLAP>  (1) 
398.409

>  <PUBCHEM_SHAPE_VOLUME>  (1) 
143.4

>  <PUBCHEM_COORDINATE_TYPE>  (1) 
2
5
10

$$$$
