45713
     RDKit          3D

 25 28  0  0  1  0  0  0  0  0999 V2000
   -1.0253    0.3511   -0.9273 O   0  0  0  0  0  0  0  0  0  0  0  0
    0.0588    1.2165    0.9201 O   0  0  0  0  0  0  0  0  0  0  0  0
   -4.9501   -0.1823    0.5673 N   0  0  0  0  0  0  0  0  0  0  0  0
   -4.7820    0.5103   -0.7308 C   0  0  0  0  0  0  0  0  0  0  0  0
   -3.8918    0.1745    1.5393 C   0  0  0  0  0  0  0  0  0  0  0  0
   -2.2846    0.7071   -0.3679 C   0  0  0  0  0  0  0  0  0  0  0  0
   -3.3870    0.3087   -1.3444 C   0  0  0  0  0  0  0  0  0  0  0  0
   -2.4725    0.0024    0.9731 C   0  0  0  0  0  0  0  0  0  0  0  0
   -5.8699    0.1576   -1.7528 C   0  0  0  0  0  0  0  0  0  0  0  0
   -4.1143    1.5909    2.0888 C   0  0  0  0  0  0  0  0  0  0  0  0
   -5.0821   -1.6369    0.4491 C   0  0  0  0  0  0  0  0  0  0  0  0
    1.3175    0.2344   -0.8821 C   0  0  0  0  0  0  0  0  0  0  0  0
    0.0700    0.6659   -0.1726 C   0  0  0  0  0  0  0  0  0  0  0  0
    1.7606   -1.1569   -0.4698 C   0  0  0  0  0  0  0  0  0  0  0  0
    2.5197    1.0734   -0.4916 C   0  0  0  0  0  0  0  0  0  0  0  0
    3.0549   -1.1119    0.0965 C   0  0  0  0  0  0  0  0  0  0  0  0
    3.5213    0.2582    0.0830 C   0  0  0  0  0  0  0  0  0  0  0  0
    1.0619   -2.3483   -0.5759 C   0  0  0  0  0  0  0  0  0  0  0  0
    2.6919    2.4416   -0.6228 C   0  0  0  0  0  0  0  0  0  0  0  0
    3.6639   -2.2684    0.5550 C   0  0  0  0  0  0  0  0  0  0  0  0
    4.7123    0.8110    0.5241 C   0  0  0  0  0  0  0  0  0  0  0  0
    1.6763   -3.5135   -0.1138 C   0  0  0  0  0  0  0  0  0  0  0  0
    3.8926    2.9978   -0.1783 C   0  0  0  0  0  0  0  0  0  0  0  0
    2.9647   -3.4741    0.4453 C   0  0  0  0  0  0  0  0  0  0  0  0
    4.8931    2.1907    0.3885 C   0  0  0  0  0  0  0  0  0  0  0  0
  1  6  1  0
  1 13  1  0
  2 13  2  0
  3  4  1  0
  3  5  1  0
  3 11  1  0
  4  7  1  0
  4  9  1  0
  5  8  1  0
  5 10  1  0
  6  7  1  0
  6  8  1  0
 12 13  1  0
 12 14  1  0
 12 15  1  0
 14 16  1  0
 14 18  2  0
 15 17  2  0
 15 19  1  0
 16 17  1  0
 16 20  2  0
 17 21  1  0
 18 22  1  0
 19 23  2  0
 20 24  1  0
 21 25  2  0
 22 24  2  0
 23 25  1  0
M  END
>  <PUBCHEM_COMPOUND_CID>  (1) 
45713

>  <PUBCHEM_CONFORMER_RMSD>  (1) 
0.8

>  <PUBCHEM_CONFORMER_DIVERSEORDER>  (1) 
1
49
55
81
28
79
2
76
90
3
53
35
47
58
80
40
22
94
77
51
10
32
37
13
39
36
43
29
42
31
4
87
15
20
93
54
67
21
70
68
9
6
12
63
57
17
84
91
86
11
69
65
74
26
78
82
89
23
38
60
24
41
30
45
73
61
62
44
16
50
7
85
27
96
52
48
75
14
5
19
71
18
66
92
25
46
34
95
33
88
72
59
56
8
64
83

>  <PUBCHEM_MMFF94_PARTIAL_CHARGES>  (1) 
27
1 -0.43
11 0.27
12 0.35
13 0.66
14 -0.14
15 -0.14
18 -0.15
19 -0.15
2 -0.57
20 -0.15
21 -0.15
22 -0.15
23 -0.15
24 -0.15
25 -0.15
3 -0.81
4 0.27
43 0.15
44 0.15
45 0.15
46 0.15
47 0.15
48 0.15
49 0.15
5 0.27
50 0.15
6 0.28

>  <PUBCHEM_EFFECTIVE_ROTOR_COUNT>  (1) 
4.4

>  <PUBCHEM_PHARMACOPHORE_FEATURES>  (1) 
6
1 2 acceptor
1 3 cation
5 12 14 15 16 17 rings
6 14 16 18 20 22 24 rings
6 15 17 19 21 23 25 rings
6 3 4 5 6 7 8 rings

>  <PUBCHEM_HEAVY_ATOM_COUNT>  (1) 
25

>  <PUBCHEM_ATOM_DEF_STEREO_COUNT>  (1) 
0

>  <PUBCHEM_ATOM_UDEF_STEREO_COUNT>  (1) 
2

>  <PUBCHEM_BOND_DEF_STEREO_COUNT>  (1) 
0

>  <PUBCHEM_BOND_UDEF_STEREO_COUNT>  (1) 
0

>  <PUBCHEM_ISOTOPIC_ATOM_COUNT>  (1) 
0

>  <PUBCHEM_COMPONENT_COUNT>  (1) 
1

>  <PUBCHEM_CACTVS_TAUTO_COUNT>  (1) 
1

>  <PUBCHEM_CONFORMER_ID>  (1) 
0000B29100000001

>  <PUBCHEM_MMFF94_ENERGY>  (1) 
70.7395

>  <PUBCHEM_FEATURE_SELFOVERLAP>  (1) 
30.61

>  <PUBCHEM_SHAPE_FINGERPRINT>  (1) 
10090160 65 18412826914816205808
10411042 1 17905880389125810550
10835480 77 18334564729982600485
1100329 8 18340483474210311234
11405975 8 18265337196869353161
11421498 54 17703801296941982128
114674 6 18041002778555304234
11595378 159 17275107189355506377
12107183 9 17837503946805078265
12236239 1 17775566446409084373
12390115 104 18050860106904943804
12596602 18 17918278679507616003
12788726 201 17346597478844301707
13140716 1 18265893743442838816
13533116 47 18343017779534447443
13583140 156 18342171211384070701
13631057 29 17984976257640305271
13726171 33 14419861292359278479
13911987 19 18191596447723672132
146900 427 18202285839649170601
14787075 74 17988363783554532824
14790565 3 18048318035652189276
14844126 61 16460232446048679954
17138139 8 17556268964187642351
17818456 19 17342669855226290153
17844677 252 18337955584728980765
1813 80 17913496731814280910
19319366 153 18200866374628039622
19377110 9 18060143150301914659
20028762 73 18130499756771054062
20157964 124 18409158909966569045
204376 136 18338800138518447156
20511986 3 17917132945283804621
20645477 70 18261383421352945126
20739085 24 18336839593596545908
21033648 29 17313106332934051437
21054139 6 18199740517512608175
21065198 48 18202286866536627249
21197605 99 18191312786682538659
21421861 104 18127989511219960120
23557571 272 16950556641208328269
23559900 14 18333729087421441451
23572383 38 17894912958048374451
23845131 108 18191860330983336266
239999 70 18271815613895747190
268830 7 18341339890267394217
3178227 256 18335146393250584696
33824 294 18408884040586359622
341906 21 16128373706209271161
3421961 26 18263641775788065634
3633792 109 18338505349770756253
4098825 35 18337941309117532341
4340502 62 18340770450254086110
474 4 18412544348991537876
5104073 3 18336274461836252979
633830 44 18130803273266187180
6913067 236 18187915231448786517
8272917 22 18411697664845103716
9709674 26 18189050906832836215

>  <PUBCHEM_SHAPE_MULTIPOLES>  (1) 
497.77
12.38
3.38
1.34
12.54
2.24
0.22
-2.87
0.56
-5.69
0.25
2.18
-0.38
-0.5

>  <PUBCHEM_SHAPE_SELFOVERLAP>  (1) 
1084.408

>  <PUBCHEM_SHAPE_VOLUME>  (1) 
273.2

>  <PUBCHEM_COORDINATE_TYPE>  (1) 
2
5
10

$$$$
