4573
     RDKit          3D

 14 14  0  0  1  0  0  0  0  0999 V2000
    0.5405   -0.6194    0.0548 O   0  0  0  0  0  0  0  0  0  0  0  0
    2.1939    1.6094   -1.0934 O   0  0  0  0  0  0  0  0  0  0  0  0
    3.6476    1.4857    0.6486 O   0  0  0  0  0  0  0  0  0  0  0  0
    4.1892   -1.1377   -0.1178 N   0  0  0  0  0  0  0  0  0  0  0  0
    2.8916   -0.5597   -0.4633 C   0  0  0  0  0  0  0  0  0  0  0  0
    1.8004   -1.1847    0.4014 C   0  0  0  0  0  0  0  0  0  0  0  0
   -0.5073   -1.1629    0.8445 C   0  0  0  0  0  0  0  0  0  0  0  0
   -1.7768   -0.5049    0.4014 C   0  0  0  0  0  0  0  0  0  0  0  0
   -2.1982    0.6707    1.0164 C   0  0  0  0  0  0  0  0  0  0  0  0
   -2.5292   -1.0726   -0.6231 C   0  0  0  0  0  0  0  0  0  0  0  0
    2.9800    0.9340   -0.2146 C   0  0  0  0  0  0  0  0  0  0  0  0
   -3.3812    1.2835    0.6037 C   0  0  0  0  0  0  0  0  0  0  0  0
   -3.7123   -0.4597   -1.0359 C   0  0  0  0  0  0  0  0  0  0  0  0
   -4.1382    0.7184   -0.4226 C   0  0  0  0  0  0  0  0  0  0  0  0
  1  6  1  0
  1  7  1  0
  2 11  1  0
  3 11  2  0
  4  5  1  0
  5  6  1  0
  5 11  1  0
  7  8  1  0
  8  9  2  0
  8 10  1  0
  9 12  1  0
 10 13  2  0
 12 14  2  0
 13 14  1  0
M  END
>  <PUBCHEM_COMPOUND_CID>  (1) 
4573

>  <PUBCHEM_CONFORMER_RMSD>  (1) 
0.6

>  <PUBCHEM_CONFORMER_DIVERSEORDER>  (1) 
3
40
28
55
59
32
44
38
41
56
27
30
60
1
24
57
43
29
62
52
54
9
6
23
4
51
46
13
50
35
47
8
53
63
17
34
58
2
37
61
14
36
26
15
31
42
18
22
19
7
48
5
33
39
11
10
16
25
45
20
21
12
49

>  <PUBCHEM_MMFF94_PARTIAL_CHARGES>  (1) 
22
1 -0.56
10 -0.15
11 0.66
12 -0.15
13 -0.15
14 -0.15
2 -0.65
20 0.15
21 0.15
22 0.36
23 0.36
24 0.15
25 0.15
26 0.15
27 0.5
3 -0.57
4 -0.99
5 0.33
6 0.28
7 0.42
8 -0.14
9 -0.15

>  <PUBCHEM_EFFECTIVE_ROTOR_COUNT>  (1) 
5

>  <PUBCHEM_PHARMACOPHORE_FEATURES>  (1) 
7
1 1 acceptor
1 2 acceptor
1 3 acceptor
1 4 cation
1 4 donor
3 2 3 11 anion
6 8 9 10 12 13 14 rings

>  <PUBCHEM_HEAVY_ATOM_COUNT>  (1) 
14

>  <PUBCHEM_ATOM_DEF_STEREO_COUNT>  (1) 
0

>  <PUBCHEM_ATOM_UDEF_STEREO_COUNT>  (1) 
1

>  <PUBCHEM_BOND_DEF_STEREO_COUNT>  (1) 
0

>  <PUBCHEM_BOND_UDEF_STEREO_COUNT>  (1) 
0

>  <PUBCHEM_ISOTOPIC_ATOM_COUNT>  (1) 
0

>  <PUBCHEM_COMPONENT_COUNT>  (1) 
1

>  <PUBCHEM_CACTVS_TAUTO_COUNT>  (1) 
1

>  <PUBCHEM_CONFORMER_ID>  (1) 
000011DD00000003

>  <PUBCHEM_MMFF94_ENERGY>  (1) 
25.4185

>  <PUBCHEM_FEATURE_SELFOVERLAP>  (1) 
35.579

>  <PUBCHEM_SHAPE_FINGERPRINT>  (1) 
11543360 7 17774999124231553743
11615756 56 17385434432169953133
12162725 195 18342460335059147390
12251169 10 11241979169863490603
12932764 1 15936410078194817778
14123260 362 18336278915174227285
14252887 29 9511461134800710846
15239191 94 10087649190655656244
17802600 8 18409444748234640448
18186145 218 18187646885970834611
19107657 47 17603865576648928186
20281407 28 12103850059540941603
20300324 65 18060696208755677263
20432913 95 10735871790081135103
20645476 183 18342450409944199287
20671657 53 15339114632770075827
20871999 31 17774427400314191831
21119208 17 18272651212298664351
22079108 93 18040726853208485769
22169311 14 14273730780688965332
22485316 2 10159697984527108251
23402539 116 17988918925331087398
23402655 69 18342741793030146644
23559900 14 17632290130335013234
3082319 5 18202563977515452035
4028521 119 18335414639163813485
42 15 10665224834922596027
474 4 18187085091358250196
93112 12 18272373061626770710
94968 8 11240003369117189388
9882013 296 8286193946496968904
9971528 1 18340485570070156914

>  <PUBCHEM_SHAPE_MULTIPOLES>  (1) 
265.52
8.6
1.58
1.02
1.98
0.32
-0.03
1.68
-1.34
0.67
0.03
-0.4
0.07
-0.51

>  <PUBCHEM_SHAPE_SELFOVERLAP>  (1) 
539.496

>  <PUBCHEM_SHAPE_VOLUME>  (1) 
154.1

>  <PUBCHEM_COORDINATE_TYPE>  (1) 
2
5
10

$$$$
