45730
     RDKit          3D

 13 12  0  0  0  0  0  0  0  0999 V2000
    0.0000    0.9669    0.0000 N   0  0  0  0  0  0  0  0  0  0  0  0
    0.9690    0.0883    0.7780 C   0  0  0  0  0  0  0  0  0  0  0  0
   -0.9690    0.0883   -0.7780 C   0  0  0  0  0  0  0  0  0  0  0  0
    0.7781    1.8456   -0.9689 C   0  0  0  0  0  0  0  0  0  0  0  0
   -0.7781    1.8454    0.9689 C   0  0  0  0  0  0  0  0  0  0  0  0
    1.7423   -0.7863   -0.1976 C   0  0  0  0  0  0  0  0  0  0  0  0
   -1.7423   -0.7864    0.1977 C   0  0  0  0  0  0  0  0  0  0  0  0
   -0.1902    2.7165   -1.7392 C   0  0  0  0  0  0  0  0  0  0  0  0
    0.1900    2.7165    1.7393 C   0  0  0  0  0  0  0  0  0  0  0  0
    2.6980   -1.7213    0.5426 C   0  0  0  0  0  0  0  0  0  0  0  0
   -2.6978   -1.7214   -0.5426 C   0  0  0  0  0  0  0  0  0  0  0  0
    3.4503   -2.6259   -0.4203 C   0  0  0  0  0  0  0  0  0  0  0  0
   -3.4502   -2.6262    0.4202 C   0  0  0  0  0  0  0  0  0  0  0  0
  1  2  1  0
  1  3  1  0
  1  4  1  0
  1  5  1  0
  2  6  1  0
  3  7  1  0
  4  8  1  0
  5  9  1  0
  6 10  1  0
  7 11  1  0
 10 12  1  0
 11 13  1  0
M  CHG  1   1   1
M  END
>  <PUBCHEM_COMPOUND_CID>  (1) 
45730

>  <PUBCHEM_CONFORMER_RMSD>  (1) 
0.8

>  <PUBCHEM_CONFORMER_DIVERSEORDER>  (1) 
4
14
12
17
3
11
18
15
9
7
13
6
10
20
19
1
16
2
8
5

>  <PUBCHEM_MMFF94_PARTIAL_CHARGES>  (1) 
5
1 -1.01
2 0.5
3 0.5
4 0.5
5 0.5

>  <PUBCHEM_EFFECTIVE_ROTOR_COUNT>  (1) 
8

>  <PUBCHEM_PHARMACOPHORE_FEATURES>  (1) 
3
1 1 cation
1 12 hydrophobe
1 13 hydrophobe

>  <PUBCHEM_HEAVY_ATOM_COUNT>  (1) 
13

>  <PUBCHEM_ATOM_DEF_STEREO_COUNT>  (1) 
0

>  <PUBCHEM_ATOM_UDEF_STEREO_COUNT>  (1) 
0

>  <PUBCHEM_BOND_DEF_STEREO_COUNT>  (1) 
0

>  <PUBCHEM_BOND_UDEF_STEREO_COUNT>  (1) 
0

>  <PUBCHEM_ISOTOPIC_ATOM_COUNT>  (1) 
0

>  <PUBCHEM_COMPONENT_COUNT>  (1) 
1

>  <PUBCHEM_CACTVS_TAUTO_COUNT>  (1) 
1

>  <PUBCHEM_CONFORMER_ID>  (1) 
0000B2A200000004

>  <PUBCHEM_MMFF94_ENERGY>  (1) 
37.1108

>  <PUBCHEM_FEATURE_SELFOVERLAP>  (1) 
15.223

>  <PUBCHEM_SHAPE_FINGERPRINT>  (1) 
1 1 17760364791790043372
11322862 65 17479469940618088231
12423570 1 15159212196525310173
13024252 1 15071755066214873336
14817 1 11284212003938490492
20602899 9 17544741340351805844
20645477 70 17900530479003844575
20708731 107 18046910664836593767
20711985 344 18045200670720423751
20871998 22 18409725196550838475
21665056 4 17401769623010655478
23419403 2 18053345977312988596
23500284 5 18339645542327057042
23530152 11 17111008694945652423
23557571 272 18197201574008861866
2748010 2 18263902454158556903
3060560 45 17177146475651189773
3250762 1 18266713879489568549
7364860 26 18053943136812752499
76951 1 17625000595306432160
81228 2 18195245516314863763

>  <PUBCHEM_SHAPE_MULTIPOLES>  (1) 
262.55
4.34
4
1.41
0
0.64
0
-6.97
0
0
0
0
1.42
0.18

>  <PUBCHEM_SHAPE_SELFOVERLAP>  (1) 
474.302

>  <PUBCHEM_SHAPE_VOLUME>  (1) 
169.4

>  <PUBCHEM_COORDINATE_TYPE>  (1) 
2
5
10

$$$$
