45746
     RDKit          3D

 14 14  0  0  0  0  0  0  0  0999 V2000
    3.2735    1.2800   -0.0734 O   0  0  0  0  0  0  0  0  0  0  0  0
    3.1930   -1.4957    0.0142 O   0  0  0  0  0  0  0  0  0  0  0  0
   -1.3997    2.6995    0.5205 O   0  0  0  0  0  0  0  0  0  0  0  0
   -2.0889   -1.6382    1.2862 O   0  0  0  0  0  0  0  0  0  0  0  0
   -2.6308    1.1247   -0.5615 O   0  0  0  0  0  0  0  0  0  0  0  0
   -2.2638   -1.8028   -0.9741 O   0  0  0  0  0  0  0  0  0  0  0  0
   -0.3346    0.6932   -0.0471 C   0  0  0  0  0  0  0  0  0  0  0  0
   -0.3750   -0.7004   -0.0041 C   0  0  0  0  0  0  0  0  0  0  0  0
    0.8932    1.3549   -0.0698 C   0  0  0  0  0  0  0  0  0  0  0  0
    0.8123   -1.4323    0.0161 C   0  0  0  0  0  0  0  0  0  0  0  0
    2.0805    0.6230   -0.0497 C   0  0  0  0  0  0  0  0  0  0  0  0
    2.0400   -0.7707   -0.0067 C   0  0  0  0  0  0  0  0  0  0  0  0
   -1.5578    1.4848   -0.0709 C   0  0  0  0  0  0  0  0  0  0  0  0
   -1.6419   -1.4199    0.0203 C   0  0  0  0  0  0  0  0  0  0  0  0
  1 11  1  0
  2 12  1  0
  3 13  1  0
  4 14  1  0
  5 13  2  0
  6 14  2  0
  7  8  2  0
  7  9  1  0
  7 13  1  0
  8 10  1  0
  8 14  1  0
  9 11  2  0
 10 12  2  0
 11 12  1  0
M  END
>  <PUBCHEM_COMPOUND_CID>  (1) 
45746

>  <PUBCHEM_CONFORMER_RMSD>  (1) 
0.6

>  <PUBCHEM_CONFORMER_DIVERSEORDER>  (1) 
1
2

>  <PUBCHEM_MMFF94_PARTIAL_CHARGES>  (1) 
20
1 -0.53
10 -0.15
11 0.08
12 0.08
13 0.63
14 0.63
15 0.15
16 0.15
17 0.45
18 0.45
19 0.5
2 -0.53
20 0.5
3 -0.65
4 -0.65
5 -0.57
6 -0.57
7 0.09
8 0.09
9 -0.15

>  <PUBCHEM_EFFECTIVE_ROTOR_COUNT>  (1) 
2

>  <PUBCHEM_PHARMACOPHORE_FEATURES>  (1) 
9
1 1 donor
1 2 donor
1 3 acceptor
1 4 acceptor
1 5 acceptor
1 6 acceptor
3 3 5 13 anion
3 4 6 14 anion
6 7 8 9 10 11 12 rings

>  <PUBCHEM_HEAVY_ATOM_COUNT>  (1) 
14

>  <PUBCHEM_ATOM_DEF_STEREO_COUNT>  (1) 
0

>  <PUBCHEM_ATOM_UDEF_STEREO_COUNT>  (1) 
0

>  <PUBCHEM_BOND_DEF_STEREO_COUNT>  (1) 
0

>  <PUBCHEM_BOND_UDEF_STEREO_COUNT>  (1) 
0

>  <PUBCHEM_ISOTOPIC_ATOM_COUNT>  (1) 
0

>  <PUBCHEM_COMPONENT_COUNT>  (1) 
1

>  <PUBCHEM_CACTVS_TAUTO_COUNT>  (1) 
8

>  <PUBCHEM_CONFORMER_ID>  (1) 
0000B2B200000001

>  <PUBCHEM_MMFF94_ENERGY>  (1) 
45.1318

>  <PUBCHEM_FEATURE_SELFOVERLAP>  (1) 
45.792

>  <PUBCHEM_SHAPE_FINGERPRINT>  (1) 
11206711 2 18265055902027762892
12423570 1 8157952588475470681
13140716 1 18337673018919838634
13380535 21 18337405867564315572
13380535 76 18267017258888601030
15490181 8 18053390902733967925
16945 1 18196089945645100702
193761 8 18410856547071431284
19973954 147 18410013234548352524
20525323 117 18337667619850561066
20871998 184 18343308045792313263
21040471 1 18194965140986716436
21501502 16 18410290307215220310
21524375 3 17976823086477168325
22802520 49 18198922343643959822
2334 1 18409450319023247830
23419403 2 16750921742110198460
23552423 10 18260829310774586646
23559900 14 18055359029703520854
2748010 2 18411138043570418886
81228 2 18335699468378172025

>  <PUBCHEM_SHAPE_MULTIPOLES>  (1) 
252.9
4.1
2.46
0.76
1.94
0.54
0.06
-0.31
-0.19
-1.03
0.18
-0.39
-0.19
-0.01

>  <PUBCHEM_SHAPE_SELFOVERLAP>  (1) 
544.585

>  <PUBCHEM_SHAPE_VOLUME>  (1) 
139.3

>  <PUBCHEM_COORDINATE_TYPE>  (1) 
2
5
10

$$$$
