45756
     RDKit          3D

 18 17  0  0  0  0  0  0  0  0999 V2000
   -0.0466   -0.4318    0.0784 O   0  0  0  0  0  0  0  0  0  0  0  0
   -3.7133    0.0295   -0.0371 N   0  0  0  0  0  0  0  0  0  0  0  0
    4.8248   -0.3458    0.0747 N   0  0  0  0  0  0  0  0  0  0  0  0
   -2.4313   -0.6979    0.1409 C   0  0  0  0  0  0  0  0  0  0  0  0
   -4.9064   -0.9223    0.1234 C   0  0  0  0  0  0  0  0  0  0  0  0
   -3.7911    0.6617   -1.4334 C   0  0  0  0  0  0  0  0  0  0  0  0
   -3.8528    1.1496    1.0027 C   0  0  0  0  0  0  0  0  0  0  0  0
   -1.2777    0.2660   -0.0550 C   0  0  0  0  0  0  0  0  0  0  0  0
    3.5767    0.4990   -0.1363 C   0  0  0  0  0  0  0  0  0  0  0  0
    2.3473   -0.3722    0.0570 C   0  0  0  0  0  0  0  0  0  0  0  0
    6.0105    0.3217   -0.6069 C   0  0  0  0  0  0  0  0  0  0  0  0
   -4.8974   -1.5012    1.5213 C   0  0  0  0  0  0  0  0  0  0  0  0
   -3.6559   -0.4230   -2.4797 C   0  0  0  0  0  0  0  0  0  0  0  0
   -5.1854    1.8412    0.8143 C   0  0  0  0  0  0  0  0  0  0  0  0
    1.0660    0.4342   -0.0978 C   0  0  0  0  0  0  0  0  0  0  0  0
    4.6083   -1.7285   -0.5232 C   0  0  0  0  0  0  0  0  0  0  0  0
    5.1036   -0.4756    1.5652 C   0  0  0  0  0  0  0  0  0  0  0  0
    6.2208    1.6954   -0.0084 C   0  0  0  0  0  0  0  0  0  0  0  0
  1  8  1  0
  1 15  1  0
  2  4  1  0
  2  5  1  0
  2  6  1  0
  2  7  1  0
  3  9  1  0
  3 11  1  0
  3 16  1  0
  3 17  1  0
  4  8  1  0
  5 12  1  0
  6 13  1  0
  7 14  1  0
  9 10  1  0
 10 15  1  0
 11 18  1  0
M  CHG  2   2   1   3   1
M  END
>  <PUBCHEM_COMPOUND_CID>  (1) 
45756

>  <PUBCHEM_CONFORMER_RMSD>  (1) 
1.2

>  <PUBCHEM_CONFORMER_DIVERSEORDER>  (1) 
1
22
20
9
23
4
10
18
13
29
11
8
25
12
17
27
15
7
24
2
19
16
5
6
26
28
21
14
3

>  <PUBCHEM_MMFF94_PARTIAL_CHARGES>  (1) 
13
1 -0.56
11 0.5
15 0.28
16 0.5
17 0.5
2 -1.01
3 -1.01
4 0.5
5 0.5
6 0.5
7 0.5
8 0.28
9 0.5

>  <PUBCHEM_EFFECTIVE_ROTOR_COUNT>  (1) 
11

>  <PUBCHEM_PHARMACOPHORE_FEATURES>  (1) 
3
1 1 acceptor
1 2 cation
1 3 cation

>  <PUBCHEM_HEAVY_ATOM_COUNT>  (1) 
18

>  <PUBCHEM_ATOM_DEF_STEREO_COUNT>  (1) 
0

>  <PUBCHEM_ATOM_UDEF_STEREO_COUNT>  (1) 
0

>  <PUBCHEM_BOND_DEF_STEREO_COUNT>  (1) 
0

>  <PUBCHEM_BOND_UDEF_STEREO_COUNT>  (1) 
0

>  <PUBCHEM_ISOTOPIC_ATOM_COUNT>  (1) 
0

>  <PUBCHEM_COMPONENT_COUNT>  (1) 
1

>  <PUBCHEM_CACTVS_TAUTO_COUNT>  (1) 
1

>  <PUBCHEM_CONFORMER_ID>  (1) 
0000B2BC00000001

>  <PUBCHEM_MMFF94_ENERGY>  (1) 
73.0486

>  <PUBCHEM_FEATURE_SELFOVERLAP>  (1) 
15.223

>  <PUBCHEM_SHAPE_FINGERPRINT>  (1) 
10680689 15 17275102838616808551
10912923 1 18334855017772857074
11287383 113 17968097547082847480
11315181 36 18187931711665393561
12091667 2 18060420222399024270
12596602 18 18334580144108211248
12616971 3 17560803276814590969
12916754 54 17676775387457880773
13073987 5 18410299098712738098
13167823 11 17489862735219694350
13533116 47 17275111583455696806
14251718 22 17821729463807931810
14251732 16 18115593780542742920
14528608 73 17632853153455508476
15788980 27 17704070689806423284
17834072 33 17561080324165075644
17844677 252 18272940431138502048
19489759 90 12679461967630249307
20281389 69 18260831458221785521
20645477 56 16845577487608144089
20645477 70 18336267852014108554
220451 1 17603591807276303770
23081809 10 18202278091913153694
23402539 116 18131348596378172925
23557571 272 13326591639248950498
23559900 14 17095801144022400789
2916195 48 17168139083476549204
300161 21 17060333003080221150
42788 4 18412829092628024520
5104073 3 18260830405838351544
542803 24 18413388726608288984
90127 26 16153427242336656972

>  <PUBCHEM_SHAPE_MULTIPOLES>  (1) 
354.6
17.71
1.53
1.49
14.85
0.19
-0.54
1.9
1.73
-0.36
0.29
-1.9
-0.26
-0.15

>  <PUBCHEM_SHAPE_SELFOVERLAP>  (1) 
652.462

>  <PUBCHEM_SHAPE_VOLUME>  (1) 
229

>  <PUBCHEM_COORDINATE_TYPE>  (1) 
2
5
10

$$$$
