45760
     RDKit          3D

 17 16  0  0  0  0  0  0  0  0999 V2000
    0.4672    2.5284    0.2639 S   0  0  0  0  0  0  0  0  0  0  0  0
   -2.6100   -0.1619    0.0038 N   0  0  0  0  0  0  0  0  0  0  0  0
    3.5789   -0.1470   -0.3008 N   0  0  0  0  0  0  0  0  0  0  0  0
   -1.6349    0.8695   -0.4268 C   0  0  0  0  0  0  0  0  0  0  0  0
   -3.5790   -0.5070   -1.1359 C   0  0  0  0  0  0  0  0  0  0  0  0
   -3.4369    0.3337    1.1986 C   0  0  0  0  0  0  0  0  0  0  0  0
   -1.8908   -1.4515    0.4243 C   0  0  0  0  0  0  0  0  0  0  0  0
   -0.7338    1.2622    0.7324 C   0  0  0  0  0  0  0  0  0  0  0  0
    2.5779    0.7344    0.4322 C   0  0  0  0  0  0  0  0  0  0  0  0
   -2.7970   -1.0749   -2.3000 C   0  0  0  0  0  0  0  0  0  0  0  0
   -4.1580    1.6063    0.8118 C   0  0  0  0  0  0  0  0  0  0  0  0
   -2.9188   -2.4898    0.8174 C   0  0  0  0  0  0  0  0  0  0  0  0
    4.5228   -0.7884    0.7061 C   0  0  0  0  0  0  0  0  0  0  0  0
    1.6764    1.4495   -0.5607 C   0  0  0  0  0  0  0  0  0  0  0  0
    4.3800    0.7004   -1.2787 C   0  0  0  0  0  0  0  0  0  0  0  0
    2.8351   -1.2343   -1.0628 C   0  0  0  0  0  0  0  0  0  0  0  0
    3.7210   -1.6293    1.6752 C   0  0  0  0  0  0  0  0  0  0  0  0
  1  8  1  0
  1 14  1  0
  2  4  1  0
  2  5  1  0
  2  6  1  0
  2  7  1  0
  3  9  1  0
  3 13  1  0
  3 15  1  0
  3 16  1  0
  4  8  1  0
  5 10  1  0
  6 11  1  0
  7 12  1  0
  9 14  1  0
 13 17  1  0
M  CHG  2   2   1   3   1
M  END
>  <PUBCHEM_COMPOUND_CID>  (1) 
45760

>  <PUBCHEM_CONFORMER_RMSD>  (1) 
0.8

>  <PUBCHEM_CONFORMER_DIVERSEORDER>  (1) 
9
122
159
42
160
23
31
144
130
139
154
88
114
35
163
96
43
108
41
104
152
135
37
164
95
81
55
162
161
147
107
111
21
133
65
132
105
93
155
36
126
13
22
153
97
79
113
134
47
140
39
115
76
33
117
67
61
150
29
64
149
94
48
77
123
78
12
51
151
83
98
146
49
32
15
106
85
124
87
24
157
27
25
118
112
34
116
8
80
60
103
59
40
19
14
158
66
86
16
137
3
63
58
46
5
2
143
7
54
145
71
166
138
30
129
26
69
156
28
57
44
102
128
119
62
73
110
142
1
82
4
10
68
50
131
121
75
136
91
89
109
101
100
120
90
38
6
74
165
18
11
141
17
45
148
125
52
70
56
84
20
127
92
53
99
72

>  <PUBCHEM_MMFF94_PARTIAL_CHARGES>  (1) 
13
1 -0.46
13 0.5
14 0.23
15 0.5
16 0.5
2 -1.01
3 -1.01
4 0.5
5 0.5
6 0.5
7 0.5
8 0.23
9 0.5

>  <PUBCHEM_EFFECTIVE_ROTOR_COUNT>  (1) 
10

>  <PUBCHEM_PHARMACOPHORE_FEATURES>  (1) 
2
1 2 cation
1 3 cation

>  <PUBCHEM_HEAVY_ATOM_COUNT>  (1) 
17

>  <PUBCHEM_ATOM_DEF_STEREO_COUNT>  (1) 
0

>  <PUBCHEM_ATOM_UDEF_STEREO_COUNT>  (1) 
0

>  <PUBCHEM_BOND_DEF_STEREO_COUNT>  (1) 
0

>  <PUBCHEM_BOND_UDEF_STEREO_COUNT>  (1) 
0

>  <PUBCHEM_ISOTOPIC_ATOM_COUNT>  (1) 
0

>  <PUBCHEM_COMPONENT_COUNT>  (1) 
1

>  <PUBCHEM_CACTVS_TAUTO_COUNT>  (1) 
1

>  <PUBCHEM_CONFORMER_ID>  (1) 
0000B2C000000009

>  <PUBCHEM_MMFF94_ENERGY>  (1) 
69.2032

>  <PUBCHEM_FEATURE_SELFOVERLAP>  (1) 
10.149

>  <PUBCHEM_SHAPE_FINGERPRINT>  (1) 
10062212 137 18343297072324834695
12186901 62 15502369007345514213
12346177 29 17917705799537286173
12553582 1 18411141320588540368
12633257 1 18408041788519432174
12788726 201 18198915716446781472
14289901 80 16988842804402858632
15375462 189 18260835894975334400
15880784 105 16702297962560285918
17977361 122 18337386050374053115
18186145 218 14707209877323385700
20281475 54 18260831531067125744
20291156 8 18334860523884130640
20442098 301 17988646276781299468
20645477 70 18198052788633468581
212916 134 16916513541067816137
22959321 94 18337673014540735056
23402539 116 18410571765291610706
235170 7 16081090385356678542
23557571 272 16845292765018966367
23559900 14 16702027457014698400
23728640 28 17918277558647810767
314173 41 18337121136902278272
4921388 177 15864360185101687467
5161694 15 16660631947613176806
5281201 14 15285645369753039028

>  <PUBCHEM_SHAPE_MULTIPOLES>  (1) 
343.74
9.66
2.43
1.63
4.86
0.08
-0.52
-2.36
0.32
-0.72
0.57
-0.32
-0.64
-1.29

>  <PUBCHEM_SHAPE_SELFOVERLAP>  (1) 
618.466

>  <PUBCHEM_SHAPE_VOLUME>  (1) 
227.4

>  <PUBCHEM_COORDINATE_TYPE>  (1) 
2
5
10

$$$$
