45764
     RDKit          3D

 16 15  0  0  0  0  0  0  0  0999 V2000
    0.8262    2.5768   -0.5497 S   0  0  0  0  0  0  0  0  0  0  0  0
   -0.4299    1.7321    0.8399 S   0  0  0  0  0  0  0  0  0  0  0  0
    3.7975   -0.1894    0.2747 N   0  0  0  0  0  0  0  0  0  0  0  0
   -3.6639   -0.5066   -0.3091 N   0  0  0  0  0  0  0  0  0  0  0  0
    2.7743    0.9112    0.5149 C   0  0  0  0  0  0  0  0  0  0  0  0
   -2.7033    0.1736    0.5934 C   0  0  0  0  0  0  0  0  0  0  0  0
    3.0835   -1.4587   -0.1671 C   0  0  0  0  0  0  0  0  0  0  0  0
   -4.6977   -1.3062    0.4963 C   0  0  0  0  0  0  0  0  0  0  0  0
    4.7697    0.2498   -0.8109 C   0  0  0  0  0  0  0  0  0  0  0  0
    4.5630   -0.4598    1.5620 C   0  0  0  0  0  0  0  0  0  0  0  0
   -4.4188    0.5141   -1.1723 C   0  0  0  0  0  0  0  0  0  0  0  0
   -2.9360   -1.4788   -1.2480 C   0  0  0  0  0  0  0  0  0  0  0  0
    2.0538    1.2550   -0.7785 C   0  0  0  0  0  0  0  0  0  0  0  0
   -1.6372    0.8945   -0.2153 C   0  0  0  0  0  0  0  0  0  0  0  0
    4.1058   -2.5487   -0.4041 C   0  0  0  0  0  0  0  0  0  0  0  0
   -5.4868   -0.3590    1.3736 C   0  0  0  0  0  0  0  0  0  0  0  0
  1  2  1  0
  1 13  1  0
  2 14  1  0
  3  5  1  0
  3  7  1  0
  3  9  1  0
  3 10  1  0
  4  6  1  0
  4  8  1  0
  4 11  1  0
  4 12  1  0
  5 13  1  0
  6 14  1  0
  7 15  1  0
  8 16  1  0
M  CHG  2   3   1   4   1
M  END
>  <PUBCHEM_COMPOUND_CID>  (1) 
45764

>  <PUBCHEM_CONFORMER_RMSD>  (1) 
0.8

>  <PUBCHEM_CONFORMER_DIVERSEORDER>  (1) 
49
43
113
106
71
118
168
74
150
137
57
162
5
154
64
91
86
158
170
27
112
140
29
85
122
108
172
32
69
44
21
46
177
35
114
145
41
167
151
24
81
157
156
121
159
176
149
26
131
155
83
75
103
48
107
22
110
171
148
11
39
63
109
58
166
152
124
169
126
70
129
10
15
20
18
12
143
79
147
17
14
117
2
98
160
133
179
40
174
164
111
141
53
99
25
9
47
142
130
8
116
178
138
73
77
67
153
102
88
146
50
89
55
72
105
60
96
78
128
104
93
84
125
82
31
80
66
134
101
136
54
36
97
161
28
23
87
94
76
65
68
42
45
30
51
34
92
90
127
59
115
100
163
139
37
135
1
173
165
144
132
123
38
175
120
13
33
56
62
19
16
95
7
4
52
119
3
6
61

>  <PUBCHEM_MMFF94_PARTIAL_CHARGES>  (1) 
14
1 -0.23
10 0.5
11 0.5
12 0.5
13 0.23
14 0.23
2 -0.23
3 -1.01
4 -1.01
5 0.5
6 0.5
7 0.5
8 0.5
9 0.5

>  <PUBCHEM_EFFECTIVE_ROTOR_COUNT>  (1) 
9

>  <PUBCHEM_PHARMACOPHORE_FEATURES>  (1) 
3
1 3 cation
1 4 cation
4 1 2 13 14 hydrophobe

>  <PUBCHEM_HEAVY_ATOM_COUNT>  (1) 
16

>  <PUBCHEM_ATOM_DEF_STEREO_COUNT>  (1) 
0

>  <PUBCHEM_ATOM_UDEF_STEREO_COUNT>  (1) 
0

>  <PUBCHEM_BOND_DEF_STEREO_COUNT>  (1) 
0

>  <PUBCHEM_BOND_UDEF_STEREO_COUNT>  (1) 
0

>  <PUBCHEM_ISOTOPIC_ATOM_COUNT>  (1) 
0

>  <PUBCHEM_COMPONENT_COUNT>  (1) 
1

>  <PUBCHEM_CACTVS_TAUTO_COUNT>  (1) 
1

>  <PUBCHEM_CONFORMER_ID>  (1) 
0000B2C400000031

>  <PUBCHEM_MMFF94_ENERGY>  (1) 
49.7289

>  <PUBCHEM_FEATURE_SELFOVERLAP>  (1) 
15.223

>  <PUBCHEM_SHAPE_FINGERPRINT>  (1) 
10730089 43 14045747031747871737
11089746 13 9511464385853616264
11128504 68 13695589966339478371
12553582 1 18341612637548714820
12596602 18 16487253317599029835
13551218 46 18343025484700767831
1420 369 18412547599965127066
14251731 5 18268713810063148126
14251732 14 14635167767006161193
14251740 57 18273221910362954086
14251757 17 17894916251797576779
14251758 9 18343305834464722857
14252887 29 18411697686557433832
15342816 4 17822572712270511080
15352361 1 18410011009660412630
15537594 2 18343588459854300582
1798214 20 18408037416237359212
1813 80 18187369826236575589
193927 3 18260556614531616201
20281475 54 18270682103428148781
20291156 8 18413107243020577244
20645477 70 18187088394446829976
20671657 53 17676483947508677660
21250096 35 18343861117231360793
212847 35 10952050057337634632
212916 134 15482402993076851269
235170 7 16515680039662876318
2637199 183 8142088705913828908
339767 52 18340192042676521046
351380 3 18411422825466283942
46194498 28 17313393390872628685
5281201 14 17168142386037498189
7064713 232 17203327797397613327

>  <PUBCHEM_SHAPE_MULTIPOLES>  (1) 
327.01
12.85
2.38
1.31
4.37
0.06
-0.16
-6.51
-1.72
-1.68
0.44
0.38
-0.05
0

>  <PUBCHEM_SHAPE_SELFOVERLAP>  (1) 
571.758

>  <PUBCHEM_SHAPE_VOLUME>  (1) 
222.7

>  <PUBCHEM_COORDINATE_TYPE>  (1) 
2
5
10

$$$$
