45783
     RDKit          3D

 18 18  0  0  1  0  0  0  0  0999 V2000
   -1.3946    1.1631   -1.8663 O   0  0  0  0  0  0  0  0  0  0  0  0
   -0.4636   -2.4608    0.1757 O   0  0  0  0  0  0  0  0  0  0  0  0
    3.1234    1.7036   -0.2550 O   0  0  0  0  0  0  0  0  0  0  0  0
   -2.1570    1.0478    0.8920 N   0  0  0  0  0  0  0  0  0  0  0  0
   -2.3507   -0.1175   -0.0675 C   0  0  0  0  0  0  0  0  0  0  0  0
   -1.3079   -0.1051   -1.2018 C   0  0  0  0  0  0  0  0  0  0  0  0
   -3.1917    0.9657    2.0051 C   0  0  0  0  0  0  0  0  0  0  0  0
   -0.7599    0.9837    1.4922 C   0  0  0  0  0  0  0  0  0  0  0  0
   -2.3258    2.3591    0.1384 C   0  0  0  0  0  0  0  0  0  0  0  0
    0.0873   -0.2561   -0.5848 C   0  0  0  0  0  0  0  0  0  0  0  0
   -1.5522   -1.1870   -2.2673 C   0  0  0  0  0  0  0  0  0  0  0  0
    0.4137   -1.4247    0.0619 C   0  0  0  0  0  0  0  0  0  0  0  0
    0.9613    0.7992   -0.7073 C   0  0  0  0  0  0  0  0  0  0  0  0
    2.2347    0.6781   -0.1508 C   0  0  0  0  0  0  0  0  0  0  0  0
    1.6872   -1.5457    0.6182 C   0  0  0  0  0  0  0  0  0  0  0  0
    2.5976   -0.4943    0.5120 C   0  0  0  0  0  0  0  0  0  0  0  0
   -0.0095   -3.6214    0.8691 C   0  0  0  0  0  0  0  0  0  0  0  0
    4.4078    1.5124    0.3362 C   0  0  0  0  0  0  0  0  0  0  0  0
  1  6  1  0
  2 12  1  0
  2 17  1  0
  3 14  1  0
  3 18  1  0
  4  5  1  0
  4  7  1  0
  4  8  1  0
  4  9  1  0
  5  6  1  0
  6 10  1  0
  6 11  1  0
 10 12  2  0
 10 13  1  0
 12 15  1  0
 13 14  2  0
 14 16  1  0
 15 16  2  0
M  CHG  1   4   1
M  END
>  <PUBCHEM_COMPOUND_CID>  (1) 
45783

>  <PUBCHEM_CONFORMER_RMSD>  (1) 
0.6

>  <PUBCHEM_CONFORMER_DIVERSEORDER>  (1) 
1
3
7
9
2
6
4
5
8

>  <PUBCHEM_MMFF94_PARTIAL_CHARGES>  (1) 
21
1 -0.68
10 -0.14
12 0.08
13 -0.15
14 0.08
15 -0.15
16 -0.15
17 0.28
18 0.28
2 -0.36
3 -0.36
33 0.4
34 0.15
35 0.15
36 0.15
4 -1.01
5 0.5
6 0.42
7 0.5
8 0.5
9 0.5

>  <PUBCHEM_EFFECTIVE_ROTOR_COUNT>  (1) 
5

>  <PUBCHEM_PHARMACOPHORE_FEATURES>  (1) 
6
1 1 acceptor
1 1 donor
1 2 acceptor
1 3 acceptor
1 4 cation
6 10 12 13 14 15 16 rings

>  <PUBCHEM_HEAVY_ATOM_COUNT>  (1) 
18

>  <PUBCHEM_ATOM_DEF_STEREO_COUNT>  (1) 
0

>  <PUBCHEM_ATOM_UDEF_STEREO_COUNT>  (1) 
1

>  <PUBCHEM_BOND_DEF_STEREO_COUNT>  (1) 
0

>  <PUBCHEM_BOND_UDEF_STEREO_COUNT>  (1) 
0

>  <PUBCHEM_ISOTOPIC_ATOM_COUNT>  (1) 
0

>  <PUBCHEM_COMPONENT_COUNT>  (1) 
1

>  <PUBCHEM_CACTVS_TAUTO_COUNT>  (1) 
1

>  <PUBCHEM_CONFORMER_ID>  (1) 
0000B2D700000001

>  <PUBCHEM_MMFF94_ENERGY>  (1) 
119.5026

>  <PUBCHEM_FEATURE_SELFOVERLAP>  (1) 
30.446

>  <PUBCHEM_SHAPE_FINGERPRINT>  (1) 
11471102 22 17968378922927215802
11640471 11 17844233039196983425
12202030 40 16518795896939560931
12423570 1 16963734167691957791
12491281 212 17704075105349366656
12808571 1 17988929937606109358
13024252 1 13985202449786696717
13027679 85 17619346945360627955
13134695 92 17255678595354191589
13538477 17 17917416606298291477
13898156 1 17629737012426178375
14617773 55 18129359605623957606
14787075 74 18127692853924293347
14817 1 11567932123516808135
15309172 13 18187366527891115324
15490181 8 18411410713949107830
15534591 1 18131077060235321064
15775835 57 18202290177518984952
15906896 17 18130235968057632927
16945 1 18193295197440536271
17357990 137 17487340339370202488
19765921 60 18272931596374781224
20344682 10 18265072326278238177
20510252 161 17687176904774243512
21061003 4 17755866316254322930
21339142 149 18129377275467351780
21339142 36 17692522734282061590
21524375 3 18202007598730137928
21731228 192 18410866451097185128
21756936 100 18270412688767214584
22802520 49 15339120113090114996
2306618 200 17971456645110235820
23236772 104 18273209824419369757
23419403 2 17114646974779762295
23557571 272 15839831201540586754
2748010 2 17823406116050713870
298252 57 16988574463177656529
305870 269 18336828580899238512
3286 77 17823994332954047507
427121 178 17767732409208216499
430814 3 17703240498614291985
4340502 62 18410023139122693763
68419 9 17486745542466526319
81228 2 17827085313880698490
9999458 23 18052282629425532145

>  <PUBCHEM_SHAPE_MULTIPOLES>  (1) 
347.84
4.92
2.86
1.68
3.62
2.27
0.38
-3.87
-1.22
0.14
-0.79
-1.53
0.06
-0.83

>  <PUBCHEM_SHAPE_SELFOVERLAP>  (1) 
714.091

>  <PUBCHEM_SHAPE_VOLUME>  (1) 
203.2

>  <PUBCHEM_COORDINATE_TYPE>  (1) 
2
5
10

$$$$
