45785
     RDKit          3D

 17 17  0  0  1  0  0  0  0  0999 V2000
   -0.8916    1.3532   -1.3797 O   0  0  0  0  0  0  0  0  0  0  0  0
    0.0634   -2.5575   -0.4953 O   0  0  0  0  0  0  0  0  0  0  0  0
    3.6830    1.5036    0.3995 O   0  0  0  0  0  0  0  0  0  0  0  0
   -3.1516    0.5839    0.2879 N   0  0  0  0  0  0  0  0  0  0  0  0
   -1.7013    0.2882    0.6423 C   0  0  0  0  0  0  0  0  0  0  0  0
   -0.8833    0.1338   -0.6386 C   0  0  0  0  0  0  0  0  0  0  0  0
   -3.9576    0.7725    1.5650 C   0  0  0  0  0  0  0  0  0  0  0  0
   -3.2206    1.8539   -0.5478 C   0  0  0  0  0  0  0  0  0  0  0  0
   -3.7267   -0.5789   -0.5077 C   0  0  0  0  0  0  0  0  0  0  0  0
    0.5552   -0.2176   -0.3309 C   0  0  0  0  0  0  0  0  0  0  0  0
    0.9481   -1.5448   -0.2767 C   0  0  0  0  0  0  0  0  0  0  0  0
    1.4557    0.8113   -0.1075 C   0  0  0  0  0  0  0  0  0  0  0  0
    2.7861    0.5041    0.1782 C   0  0  0  0  0  0  0  0  0  0  0  0
    2.2785   -1.8517    0.0089 C   0  0  0  0  0  0  0  0  0  0  0  0
    3.1974   -0.8272    0.2364 C   0  0  0  0  0  0  0  0  0  0  0  0
   -0.6298   -3.0691    0.6413 C   0  0  0  0  0  0  0  0  0  0  0  0
    3.1951    2.8423    0.3246 C   0  0  0  0  0  0  0  0  0  0  0  0
  1  6  1  0
  2 11  1  0
  2 16  1  0
  3 13  1  0
  3 17  1  0
  4  5  1  0
  4  7  1  0
  4  8  1  0
  4  9  1  0
  5  6  1  0
  6 10  1  0
 10 11  2  0
 10 12  1  0
 11 14  1  0
 12 13  2  0
 13 15  1  0
 14 15  2  0
M  CHG  1   4   1
M  END
>  <PUBCHEM_COMPOUND_CID>  (1) 
45785

>  <PUBCHEM_CONFORMER_RMSD>  (1) 
0.6

>  <PUBCHEM_CONFORMER_DIVERSEORDER>  (1) 
28
25
19
18
26
2
23
4
32
30
20
17
11
22
24
16
27
31
9
29
6
10
1
15
13
3
5
21
7
14
8
12

>  <PUBCHEM_MMFF94_PARTIAL_CHARGES>  (1) 
21
1 -0.68
10 -0.14
11 0.08
12 -0.15
13 0.08
14 -0.15
15 -0.15
16 0.28
17 0.28
2 -0.36
3 -0.36
30 0.15
31 0.4
32 0.15
33 0.15
4 -1.01
5 0.5
6 0.42
7 0.5
8 0.5
9 0.5

>  <PUBCHEM_EFFECTIVE_ROTOR_COUNT>  (1) 
5

>  <PUBCHEM_PHARMACOPHORE_FEATURES>  (1) 
6
1 1 acceptor
1 1 donor
1 2 acceptor
1 3 acceptor
1 4 cation
6 10 11 12 13 14 15 rings

>  <PUBCHEM_HEAVY_ATOM_COUNT>  (1) 
17

>  <PUBCHEM_ATOM_DEF_STEREO_COUNT>  (1) 
0

>  <PUBCHEM_ATOM_UDEF_STEREO_COUNT>  (1) 
1

>  <PUBCHEM_BOND_DEF_STEREO_COUNT>  (1) 
0

>  <PUBCHEM_BOND_UDEF_STEREO_COUNT>  (1) 
0

>  <PUBCHEM_ISOTOPIC_ATOM_COUNT>  (1) 
0

>  <PUBCHEM_COMPONENT_COUNT>  (1) 
1

>  <PUBCHEM_CACTVS_TAUTO_COUNT>  (1) 
1

>  <PUBCHEM_CONFORMER_ID>  (1) 
0000B2D90000001C

>  <PUBCHEM_MMFF94_ENERGY>  (1) 
84.3516

>  <PUBCHEM_FEATURE_SELFOVERLAP>  (1) 
30.447

>  <PUBCHEM_SHAPE_FINGERPRINT>  (1) 
10608611 8 18263639576437931565
10980938 120 18412824690038892608
11471102 22 18262244313219247482
12390115 104 17907874138624571320
13032168 30 18271239551676280411
13140716 1 18408610257527227035
13296908 3 17604158029968346105
13380535 21 18337676437903794446
13380535 76 18339919419822891622
13583140 156 16806426137258235360
14026960 21 18335139812453793412
14251717 144 18411412882759561559
14289901 80 18342453721163082649
14787075 74 17986668384417515023
15219456 202 18261954029438952349
15309172 13 18408603647461236165
15501101 241 18262242114264706732
15502708 68 18338516326794833651
16945 1 18260552263782486302
1741750 31 18128252483841647248
18186145 218 18273218564630415820
19049666 15 17538845780816260325
19422 9 17775282738207401511
201361 129 18128828451445245465
204376 136 18339082691215437905
20510252 161 17693095584282500984
20645477 70 18196926665884055999
20671657 1 18411702101910213084
21041028 32 17837492947435952446
21501502 16 18267856349902134318
21503847 285 17844826792613562736
21524375 3 18271801375915279278
21731228 192 18410575097574653586
22182937 141 17983296220715322408
22854114 111 18413388722266017832
23419403 2 14566978108419047915
23557571 272 16951129457097156669
23558518 356 17902229241711047722
2748010 2 18115295662473016476
2838139 119 15050577553741885024
31174 14 18262800657708224138
458136 41 18338815441339275142
474 4 18343303656209142825
49207404 50 18334304183611142849
495365 180 18194379127286054789
6333272 397 18339921627187902136
633830 44 17988655068421352165
7364860 26 18051692148753212887
77492 1 17417519225145379429
81228 2 17973717279566485074
8272917 22 18199755734887549517

>  <PUBCHEM_SHAPE_MULTIPOLES>  (1) 
327.26
6.79
2.94
0.99
2.53
0.92
0.1
-3.65
1.45
-1.57
0.2
0.81
-0.18
0.27

>  <PUBCHEM_SHAPE_SELFOVERLAP>  (1) 
661.234

>  <PUBCHEM_SHAPE_VOLUME>  (1) 
194.2

>  <PUBCHEM_COORDINATE_TYPE>  (1) 
2
5
10

$$$$
