45789
     RDKit          3D

 17 17  0  0  1  0  0  0  0  0999 V2000
   -0.0751   -2.3315    0.4071 O   0  0  0  0  0  0  0  0  0  0  0  0
    3.6576    1.6651   -0.2919 O   0  0  0  0  0  0  0  0  0  0  0  0
   -3.2876    0.4269    0.0797 N   0  0  0  0  0  0  0  0  0  0  0  0
   -1.8237    0.7282    0.3666 C   0  0  0  0  0  0  0  0  0  0  0  0
   -0.9518    0.1311   -0.7448 C   0  0  0  0  0  0  0  0  0  0  0  0
   -3.6896    1.0728   -1.2385 C   0  0  0  0  0  0  0  0  0  0  0  0
   -3.4868   -1.0792   -0.0118 C   0  0  0  0  0  0  0  0  0  0  0  0
   -4.1503    0.9856    1.2020 C   0  0  0  0  0  0  0  0  0  0  0  0
   -1.6668    2.2408    0.4503 C   0  0  0  0  0  0  0  0  0  0  0  0
    0.4770   -0.1171   -0.3249 C   0  0  0  0  0  0  0  0  0  0  0  0
    0.8378   -1.3360    0.2286 C   0  0  0  0  0  0  0  0  0  0  0  0
    1.4086    0.8944   -0.5043 C   0  0  0  0  0  0  0  0  0  0  0  0
    2.7328    0.6814   -0.1209 C   0  0  0  0  0  0  0  0  0  0  0  0
    2.1621   -1.5488    0.6118 C   0  0  0  0  0  0  0  0  0  0  0  0
    3.1095   -0.5402    0.4371 C   0  0  0  0  0  0  0  0  0  0  0  0
   -0.2467   -3.2536   -0.6672 C   0  0  0  0  0  0  0  0  0  0  0  0
    4.9931    1.3800    0.1214 C   0  0  0  0  0  0  0  0  0  0  0  0
  1 11  1  0
  1 16  1  0
  2 13  1  0
  2 17  1  0
  3  4  1  0
  3  6  1  0
  3  7  1  0
  3  8  1  0
  4  5  1  0
  4  9  1  0
  5 10  1  0
 10 11  2  0
 10 12  1  0
 11 14  1  0
 12 13  2  0
 13 15  1  0
 14 15  2  0
M  CHG  1   3   1
M  END
>  <PUBCHEM_COMPOUND_CID>  (1) 
45789

>  <PUBCHEM_CONFORMER_RMSD>  (1) 
0.6

>  <PUBCHEM_CONFORMER_DIVERSEORDER>  (1) 
10
26
33
13
29
32
27
37
38
41
19
36
21
39
4
22
35
6
14
25
28
1
34
15
18
7
3
40
24
11
20
23
2
16
12
17
9
8
31
30
5

>  <PUBCHEM_MMFF94_PARTIAL_CHARGES>  (1) 
19
1 -0.36
10 -0.14
11 0.08
12 -0.15
13 0.08
14 -0.15
15 -0.15
16 0.28
17 0.28
2 -0.36
3 -1.01
33 0.15
34 0.15
35 0.15
4 0.5
5 0.14
6 0.5
7 0.5
8 0.5

>  <PUBCHEM_EFFECTIVE_ROTOR_COUNT>  (1) 
5

>  <PUBCHEM_PHARMACOPHORE_FEATURES>  (1) 
4
1 1 acceptor
1 2 acceptor
1 3 cation
6 10 11 12 13 14 15 rings

>  <PUBCHEM_HEAVY_ATOM_COUNT>  (1) 
17

>  <PUBCHEM_ATOM_DEF_STEREO_COUNT>  (1) 
0

>  <PUBCHEM_ATOM_UDEF_STEREO_COUNT>  (1) 
1

>  <PUBCHEM_BOND_DEF_STEREO_COUNT>  (1) 
0

>  <PUBCHEM_BOND_UDEF_STEREO_COUNT>  (1) 
0

>  <PUBCHEM_ISOTOPIC_ATOM_COUNT>  (1) 
0

>  <PUBCHEM_COMPONENT_COUNT>  (1) 
1

>  <PUBCHEM_CACTVS_TAUTO_COUNT>  (1) 
1

>  <PUBCHEM_CONFORMER_ID>  (1) 
0000B2DD0000000A

>  <PUBCHEM_MMFF94_ENERGY>  (1) 
83.1611

>  <PUBCHEM_FEATURE_SELFOVERLAP>  (1) 
20.297

>  <PUBCHEM_SHAPE_FINGERPRINT>  (1) 
10922049 32 18412833486284830870
10980938 120 18260828194151511976
11132069 177 18335415755506890833
11578080 2 11963951584425902559
12119455 92 18113609093229810732
12346645 44 18411420596288664504
12390115 104 18049177836866083308
12553582 1 16968861061848893723
13380535 76 18410856598859160118
13583140 156 16443610393941206988
14123255 52 18409725188361707140
14787075 74 18195808689901652153
14897335 6 18336825385749460350
15196674 1 18408603660319777307
15219456 202 17895189953041743117
15309172 13 18408042900804938703
15775835 57 18343868809480832273
16945 1 18194685860922916879
1741750 31 18342175622172954874
18186145 218 18412831256922393716
200 152 18339911646227283893
201361 129 18127419946879733281
204376 136 18409168822191886060
20510252 161 18271812349356293241
20645477 70 18191014621804943015
21499 59 18410851053591949639
21524375 3 18408604777507120504
23402539 116 18272082842328663300
23557571 272 17984996044527692206
23559900 14 18123178009624259499
25147074 1 18115575093762705586
2748010 2 18335432248160500870
458136 41 18269849643707308299
474229 33 18337954596860076687
5104073 3 18407760326358831731
57426455 19 18271530895859771737
58051976 378 18413106147703722612
6333272 397 18408605881139843688
633830 44 18131078082237097277
69090 78 18409164450289868042
7364860 26 18126289631804733871
81228 2 17831850622733858650
8272917 22 18196370317253059957
9709674 26 18193556654292306455

>  <PUBCHEM_SHAPE_MULTIPOLES>  (1) 
333.13
7.86
2.64
0.94
1.36
1.89
0.03
-4.57
-0.68
0.31
0.11
-0.65
-0.09
-0.45

>  <PUBCHEM_SHAPE_SELFOVERLAP>  (1) 
668.72

>  <PUBCHEM_SHAPE_VOLUME>  (1) 
199.9

>  <PUBCHEM_COORDINATE_TYPE>  (1) 
2
5
10

$$$$
