4578
     RDKit          3D

 18 20  0  0  0  0  0  0  0  0999 V2000
    0.4145   -0.1609    0.0242 O   0  0  0  0  0  0  0  0  0  0  0  0
   -1.9394   -2.1704    0.0033 N   0  0  0  0  0  0  0  0  0  0  0  0
   -1.2906    1.4495    0.0104 N   0  0  0  0  0  0  0  0  0  0  0  0
   -4.0757   -1.5342   -0.0154 N   0  0  0  0  0  0  0  0  0  0  0  0
   -3.6580    0.8607   -0.0110 N   0  0  0  0  0  0  0  0  0  0  0  0
   -2.9586    3.0933   -0.0039 N   0  0  0  0  0  0  0  0  0  0  0  0
   -1.9196   -0.8048    0.0041 C   0  0  0  0  0  0  0  0  0  0  0  0
   -0.9210    0.1491    0.0132 C   0  0  0  0  0  0  0  0  0  0  0  0
    1.3246    0.9320    0.0327 C   0  0  0  0  0  0  0  0  0  0  0  0
   -3.2574   -0.4336   -0.0076 C   0  0  0  0  0  0  0  0  0  0  0  0
    2.7278    0.4011    0.0121 C   0  0  0  0  0  0  0  0  0  0  0  0
   -3.2525   -2.5609   -0.0085 C   0  0  0  0  0  0  0  0  0  0  0  0
    3.3822    0.1388    1.2106 C   0  0  0  0  0  0  0  0  0  0  0  0
    3.3610    0.1758   -1.2051 C   0  0  0  0  0  0  0  0  0  0  0  0
   -2.6173    1.7213   -0.0013 C   0  0  0  0  0  0  0  0  0  0  0  0
    4.6866   -0.3551    1.1917 C   0  0  0  0  0  0  0  0  0  0  0  0
    4.6654   -0.3181   -1.2239 C   0  0  0  0  0  0  0  0  0  0  0  0
    5.3281   -0.5836   -0.0255 C   0  0  0  0  0  0  0  0  0  0  0  0
  1  8  1  0
  1  9  1  0
  2  7  1  0
  2 12  1  0
  3  8  1  0
  3 15  2  0
  4 10  1  0
  4 12  2  0
  5 10  2  0
  5 15  1  0
  6 15  1  0
  7  8  2  0
  7 10  1  0
  9 11  1  0
 11 13  2  0
 11 14  1  0
 13 16  1  0
 14 17  2  0
 16 18  2  0
 17 18  1  0
M  END
>  <PUBCHEM_COMPOUND_CID>  (1) 
4578

>  <PUBCHEM_CONFORMER_RMSD>  (1) 
0.6

>  <PUBCHEM_CONFORMER_DIVERSEORDER>  (1) 
1
29
34
42
41
21
35
33
40
11
32
10
4
19
37
28
24
26
39
9
30
2
23
25
3
8
20
31
18
14
6
36
12
16
38
15
17
43
13
27
7
5
22

>  <PUBCHEM_MMFF94_PARTIAL_CHARGES>  (1) 
27
1 -0.36
10 0.48
11 -0.14
12 0.04
13 -0.15
14 -0.15
15 0.72
16 -0.15
17 -0.15
18 -0.15
2 0.03
21 0.27
22 0.15
23 0.15
24 0.15
25 0.15
26 0.15
27 0.15
28 0.4
29 0.4
3 -0.62
4 -0.57
5 -0.57
6 -0.9
7 -0.15
8 0.39
9 0.42

>  <PUBCHEM_EFFECTIVE_ROTOR_COUNT>  (1) 
3

>  <PUBCHEM_PHARMACOPHORE_FEATURES>  (1) 
7
1 2 donor
1 6 donor
3 2 4 12 cation
4 3 5 6 15 cation
5 2 4 7 10 12 rings
6 11 13 14 16 17 18 rings
6 3 5 7 8 10 15 rings

>  <PUBCHEM_HEAVY_ATOM_COUNT>  (1) 
18

>  <PUBCHEM_ATOM_DEF_STEREO_COUNT>  (1) 
0

>  <PUBCHEM_ATOM_UDEF_STEREO_COUNT>  (1) 
0

>  <PUBCHEM_BOND_DEF_STEREO_COUNT>  (1) 
0

>  <PUBCHEM_BOND_UDEF_STEREO_COUNT>  (1) 
0

>  <PUBCHEM_ISOTOPIC_ATOM_COUNT>  (1) 
0

>  <PUBCHEM_COMPONENT_COUNT>  (1) 
1

>  <PUBCHEM_CACTVS_TAUTO_COUNT>  (1) 
9

>  <PUBCHEM_CONFORMER_ID>  (1) 
000011E200000001

>  <PUBCHEM_MMFF94_ENERGY>  (1) 
46.2844

>  <PUBCHEM_FEATURE_SELFOVERLAP>  (1) 
35.653

>  <PUBCHEM_SHAPE_FINGERPRINT>  (1) 
10319926 262 18198038362713671010
10616163 171 18409731763756443482
10680689 15 18409174302712704256
10912923 1 17967251992829706176
11046707 91 18335701675737887995
11796584 16 18198064682331951478
12107183 9 17757544162803507248
12236239 1 17676207961425915372
12346177 29 18341041965032897436
12390115 104 17984713225295569353
12500047 106 18340202977721421908
13167823 11 18259703393904211194
13583140 156 17846206748910974062
13675066 3 17917988391300081888
13760787 5 16515406249041560204
13862211 1 18339077224587733519
14386348 63 17775289365600453974
14508225 48 18338784737166956141
15042514 8 18337396041154110531
16752209 62 18336255808176438747
17804303 29 18413108389639805649
17834072 33 18260270785101717084
17844677 252 18412831300368218184
17870717 6 18342470217895018486
19141452 34 17774445013769655983
1986462 14 18410856555529523180
200 152 16660638566326539476
20279233 1 17704072889256894950
20281475 54 18187077335232746170
20645477 56 18340208479796340513
21033648 29 17131819946530966208
21065201 7 18341330011879283002
21267235 1 18335990860629651771
22646028 1 18040712584889323394
22646028 28 18186516631410220058
22943178 12 18060697291024320824
2297311 6 18341906206963225510
2306618 200 18201727245288446793
23175994 123 17203892963321947185
23402539 116 18342166783393913133
23557571 272 18201731617111720060
23559900 14 18341042021036718952
23598291 2 17967540090345352884
26918003 58 17489587853334105490
2838139 119 16444169934481926309
312423 11 18115038509811810540
4214541 1 18410573968298895912
5104073 3 18341333391559733224
559249 180 18261950726857119034
573450 72 18261104150079423288
602551 16 18411980274057333010
6049 1 17988923405140590360
67856867 119 18116432729748957380
9709674 26 18272374144095725142

>  <PUBCHEM_SHAPE_MULTIPOLES>  (1) 
339.66
10.86
2.21
0.94
8.93
0.36
-0.01
-2.36
-0.07
-4.22
0
1.42
-0.04
-0.02

>  <PUBCHEM_SHAPE_SELFOVERLAP>  (1) 
748.722

>  <PUBCHEM_SHAPE_VOLUME>  (1) 
182.4

>  <PUBCHEM_COORDINATE_TYPE>  (1) 
2
5
10

$$$$
