45797
     RDKit          3D

 13 13  0  0  0  0  0  0  0  0999 V2000
    2.5651   -1.9299   -0.0060 O   0  0  0  0  0  0  0  0  0  0  0  0
   -2.0272   -0.4311   -0.0022 N   0  0  0  0  0  0  0  0  0  0  0  0
   -0.5313   -0.1070   -0.0007 C   0  0  0  0  0  0  0  0  0  0  0  0
   -2.2419   -1.7608    0.7149 C   0  0  0  0  0  0  0  0  0  0  0  0
   -2.5113   -0.5090   -1.4475 C   0  0  0  0  0  0  0  0  0  0  0  0
   -2.8498    0.6358    0.7173 C   0  0  0  0  0  0  0  0  0  0  0  0
   -0.1661    1.1973    0.0054 C   0  0  0  0  0  0  0  0  0  0  0  0
    0.3103   -1.1712   -0.0050 C   0  0  0  0  0  0  0  0  0  0  0  0
    1.2013    1.4724    0.0078 C   0  0  0  0  0  0  0  0  0  0  0  0
    2.1234    0.4256    0.0037 C   0  0  0  0  0  0  0  0  0  0  0  0
    1.6778   -0.8961   -0.0028 C   0  0  0  0  0  0  0  0  0  0  0  0
   -1.1336    2.3355    0.0090 C   0  0  0  0  0  0  0  0  0  0  0  0
    3.5833    0.7385    0.0062 C   0  0  0  0  0  0  0  0  0  0  0  0
  1 11  1  0
  2  3  1  0
  2  4  1  0
  2  5  1  0
  2  6  1  0
  3  7  2  0
  3  8  1  0
  7  9  1  0
  7 12  1  0
  8 11  2  0
  9 10  2  0
 10 11  1  0
 10 13  1  0
M  CHG  1   2   1
M  END
>  <PUBCHEM_COMPOUND_CID>  (1) 
45797

>  <PUBCHEM_CONFORMER_RMSD>  (1) 
0.4

>  <PUBCHEM_CONFORMER_DIVERSEORDER>  (1) 
1

>  <PUBCHEM_MMFF94_PARTIAL_CHARGES>  (1) 
16
1 -0.53
10 -0.14
11 0.08
12 0.14
13 0.14
2 -0.87
23 0.15
24 0.15
3 0.36
31 0.45
4 0.5
5 0.5
6 0.5
7 -0.14
8 -0.15
9 -0.15

>  <PUBCHEM_EFFECTIVE_ROTOR_COUNT>  (1) 
1

>  <PUBCHEM_PHARMACOPHORE_FEATURES>  (1) 
3
1 1 donor
1 2 cation
6 3 7 8 9 10 11 rings

>  <PUBCHEM_HEAVY_ATOM_COUNT>  (1) 
13

>  <PUBCHEM_ATOM_DEF_STEREO_COUNT>  (1) 
0

>  <PUBCHEM_ATOM_UDEF_STEREO_COUNT>  (1) 
0

>  <PUBCHEM_BOND_DEF_STEREO_COUNT>  (1) 
0

>  <PUBCHEM_BOND_UDEF_STEREO_COUNT>  (1) 
0

>  <PUBCHEM_ISOTOPIC_ATOM_COUNT>  (1) 
0

>  <PUBCHEM_COMPONENT_COUNT>  (1) 
1

>  <PUBCHEM_CACTVS_TAUTO_COUNT>  (1) 
3

>  <PUBCHEM_CONFORMER_ID>  (1) 
0000B2E500000001

>  <PUBCHEM_MMFF94_ENERGY>  (1) 
77.9767

>  <PUBCHEM_FEATURE_SELFOVERLAP>  (1) 
15.223

>  <PUBCHEM_SHAPE_FINGERPRINT>  (1) 
10967382 1 18410295795851154232
11206711 2 18410292506159790244
12032990 46 18338244889446701130
12138202 97 17532350102284584279
12382932 28 18411142458459208753
12524768 44 18340491079743032047
12897270 3 18410008875056391828
12932764 1 17561081431812970474
13380535 21 18268444455267842824
15775835 57 18130793351574968713
16945 1 18409447016008930284
17844478 74 17822020804414276553
193761 8 18194402182638480888
20201158 50 18334570291157944787
20525323 117 18412537687249316016
21061003 4 18194412310060595369
21501502 16 18340485543741060544
2334 1 18338515231825956544
23402655 69 18340752768533449725
23419403 2 16606239055926767784
23463225 33 18335420162660353192
23552423 10 18261678069279130534
23559900 14 17837495151350956766
2748010 2 18267020561987425116
3312278 4 18336550498725080664
528886 8 18411417336455842881
53812653 166 18271806847788316088
63268167 104 18412542111128804585
8030462 33 18342173388267656580
8809292 202 18260275135265583346

>  <PUBCHEM_SHAPE_MULTIPOLES>  (1) 
256.68
4.66
2.08
0.85
1.44
0.25
-0.18
-0.53
0.03
-0.09
0.18
-0.64
-0.1
-0.02

>  <PUBCHEM_SHAPE_SELFOVERLAP>  (1) 
528.406

>  <PUBCHEM_SHAPE_VOLUME>  (1) 
151.7

>  <PUBCHEM_COORDINATE_TYPE>  (1) 
2
5
10

$$$$
