45791
     RDKit          3D

  9  8  0  0  0  0  0  0  0  0999 V2000
   -3.3749    1.5672    0.1233 Cl  0  0  0  0  0  0  0  0  0  0  0  0
    3.6324    1.1743    0.1831 Cl  0  0  0  0  0  0  0  0  0  0  0  0
    0.0118   -0.7347    0.0369 N   0  0  0  0  0  0  0  0  0  0  0  0
   -0.8750    0.4788    0.2759 C   0  0  0  0  0  0  0  0  0  0  0  0
    1.4340   -0.4186    0.4769 C   0  0  0  0  0  0  0  0  0  0  0  0
    0.0047   -1.0842   -1.4444 C   0  0  0  0  0  0  0  0  0  0  0  0
   -0.5167   -1.9151    0.8392 C   0  0  0  0  0  0  0  0  0  0  0  0
   -2.2949    0.1820   -0.1684 C   0  0  0  0  0  0  0  0  0  0  0  0
    1.9788    0.7502   -0.3224 C   0  0  0  0  0  0  0  0  0  0  0  0
  1  8  1  0
  2  9  1  0
  3  4  1  0
  3  5  1  0
  3  6  1  0
  3  7  1  0
  4  8  1  0
  5  9  1  0
M  CHG  1   3   1
M  END
>  <PUBCHEM_COMPOUND_CID>  (1) 
45791

>  <PUBCHEM_CONFORMER_RMSD>  (1) 
0.6

>  <PUBCHEM_CONFORMER_DIVERSEORDER>  (1) 
1
3
4
2

>  <PUBCHEM_MMFF94_PARTIAL_CHARGES>  (1) 
9
1 -0.29
2 -0.29
3 -1.01
4 0.5
5 0.5
6 0.5
7 0.5
8 0.29
9 0.29

>  <PUBCHEM_EFFECTIVE_ROTOR_COUNT>  (1) 
4

>  <PUBCHEM_PHARMACOPHORE_FEATURES>  (1) 
1
1 3 cation

>  <PUBCHEM_HEAVY_ATOM_COUNT>  (1) 
9

>  <PUBCHEM_ATOM_DEF_STEREO_COUNT>  (1) 
0

>  <PUBCHEM_ATOM_UDEF_STEREO_COUNT>  (1) 
0

>  <PUBCHEM_BOND_DEF_STEREO_COUNT>  (1) 
0

>  <PUBCHEM_BOND_UDEF_STEREO_COUNT>  (1) 
0

>  <PUBCHEM_ISOTOPIC_ATOM_COUNT>  (1) 
0

>  <PUBCHEM_COMPONENT_COUNT>  (1) 
1

>  <PUBCHEM_CACTVS_TAUTO_COUNT>  (1) 
1

>  <PUBCHEM_CONFORMER_ID>  (1) 
0000B2DF00000001

>  <PUBCHEM_MMFF94_ENERGY>  (1) 
27.9217

>  <PUBCHEM_FEATURE_SELFOVERLAP>  (1) 
5.074

>  <PUBCHEM_SHAPE_FINGERPRINT>  (1) 
122479 349 18339923822185579552
14325111 11 18409729555963411633
14390081 3 18411982421266830217
15775835 57 18413105048081630105
170605 34 18341896225860253481
20653085 51 18130511919758894956
21028194 46 18342463650800377624
21040471 1 18334581251914380290
21293036 1 17203608219917243701
21524375 3 18413103952833145721
23211744 41 18338522945539585095
23235685 24 18412259532256048808
5084963 1 18270112401231945066
68250623 7 18342168960246701343

>  <PUBCHEM_SHAPE_MULTIPOLES>  (1) 
183.97
4.99
1.78
0.98
0.84
0.35
0.25
-4.21
-0.35
-0.46
-0.22
0.01
0.4
0.02

>  <PUBCHEM_SHAPE_SELFOVERLAP>  (1) 
311.917

>  <PUBCHEM_SHAPE_VOLUME>  (1) 
126.8

>  <PUBCHEM_COORDINATE_TYPE>  (1) 
2
5
10

$$$$
