4580
     RDKit          3D

 28 30  0  0  1  0  0  0  0  0999 V2000
    1.8832    3.0998   -1.5147 Cl  0  0  0  0  0  0  0  0  0  0  0  0
    5.5540   -0.2447    0.4709 O   0  0  0  0  0  0  0  0  0  0  0  0
    1.8747   -2.0640    1.3101 O   0  0  0  0  0  0  0  0  0  0  0  0
    4.3953   -1.7064    1.7545 O   0  0  0  0  0  0  0  0  0  0  0  0
   -0.7056   -1.6967    1.4256 O   0  0  0  0  0  0  0  0  0  0  0  0
   -3.5939   -3.6328   -0.4861 O   0  0  0  0  0  0  0  0  0  0  0  0
   -2.0946   -2.9776   -2.0570 O   0  0  0  0  0  0  0  0  0  0  0  0
   -1.5530   -0.7436   -0.5080 N   0  0  0  0  0  0  0  0  0  0  0  0
    4.4694    1.7025   -0.4943 C   0  0  0  0  0  0  0  0  0  0  0  0
    5.5372    0.6340   -0.6772 C   0  0  0  0  0  0  0  0  0  0  0  0
    3.1610    1.0064   -0.2715 C   0  0  0  0  0  0  0  0  0  0  0  0
    3.1412   -0.2129    0.4168 C   0  0  0  0  0  0  0  0  0  0  0  0
    1.9285   -0.8673    0.6560 C   0  0  0  0  0  0  0  0  0  0  0  0
    0.7349   -0.3012    0.2075 C   0  0  0  0  0  0  0  0  0  0  0  0
    1.9572    1.5739   -0.7032 C   0  0  0  0  0  0  0  0  0  0  0  0
    4.4010   -0.7970    0.9353 C   0  0  0  0  0  0  0  0  0  0  0  0
   -2.8902   -1.3603   -0.4193 C   0  0  0  0  0  0  0  0  0  0  0  0
    6.9229    1.2504   -0.8053 C   0  0  0  0  0  0  0  0  0  0  0  0
    0.7486    0.9182   -0.4685 C   0  0  0  0  0  0  0  0  0  0  0  0
   -3.9193   -0.4728   -1.1232 C   0  0  0  0  0  0  0  0  0  0  0  0
   -0.5435   -0.9617    0.4375 C   0  0  0  0  0  0  0  0  0  0  0  0
   -4.3629    0.6941   -0.2747 C   0  0  0  0  0  0  0  0  0  0  0  0
   -2.7966   -2.7123   -1.0902 C   0  0  0  0  0  0  0  0  0  0  0  0
   -5.4559    0.5472    0.5648 C   0  0  0  0  0  0  0  0  0  0  0  0
   -3.6696    1.8917   -0.3505 C   0  0  0  0  0  0  0  0  0  0  0  0
   -5.8662    1.6257    1.3486 C   0  0  0  0  0  0  0  0  0  0  0  0
   -4.0796    2.9703    0.4333 C   0  0  0  0  0  0  0  0  0  0  0  0
   -5.1781    2.8372    1.2828 C   0  0  0  0  0  0  0  0  0  0  0  0
  1 15  1  0
  2 10  1  0
  2 16  1  0
  3 13  1  0
  4 16  2  0
  5 21  2  0
  6 23  1  0
  7 23  2  0
  8 17  1  0
  8 21  1  0
  9 10  1  0
  9 11  1  0
 10 18  1  0
 11 12  2  0
 11 15  1  0
 12 13  1  0
 12 16  1  0
 13 14  2  0
 14 19  1  0
 14 21  1  0
 15 19  2  0
 17 20  1  0
 17 23  1  0
 20 22  1  0
 22 24  2  0
 22 25  1  0
 24 26  1  0
 25 27  2  0
 26 28  2  0
 27 28  1  0
M  END
>  <PUBCHEM_COMPOUND_CID>  (1) 
4580

>  <PUBCHEM_CONFORMER_RMSD>  (1) 
0.8

>  <PUBCHEM_CONFORMER_DIVERSEORDER>  (1) 
8
9
57
48
44
121
33
60
1
89
58
120
149
75
94
110
67
152
22
29
109
151
145
28
13
76
68
99
123
148
105
113
65
139
108
4
24
51
132
98
134
34
116
82
90
103
142
17
91
77
16
32
129
59
70
133
128
100
2
79
46
97
5
93
30
130
36
38
147
64
6
74
114
69
104
78
144
131
88
12
3
52
73
138
25
19
18
37
127
71
61
92
84
27
45
119
35
63
107
50
39
140
111
102
42
137
41
26
54
55
122
115
7
135
106
112
15
80
31
10
141
150
43
40
124
126
87
96
117
11
143
85
21
101
23
86
66
20
72
146
49
53
136
47
14
118
81
125
62
56
95
83

>  <PUBCHEM_MMFF94_PARTIAL_CHARGES>  (1) 
36
1 -0.18
10 0.28
11 -0.14
12 0.09
13 0.08
14 0.09
15 0.18
16 0.63
17 0.36
19 -0.15
2 -0.43
20 0.14
21 0.54
22 -0.14
23 0.66
24 -0.15
25 -0.15
26 -0.15
27 -0.15
28 -0.15
3 -0.53
36 0.15
39 0.37
4 -0.57
40 0.45
41 0.15
42 0.15
43 0.15
44 0.15
45 0.15
46 0.5
5 -0.57
6 -0.65
7 -0.57
8 -0.73
9 0.14

>  <PUBCHEM_EFFECTIVE_ROTOR_COUNT>  (1) 
6.6

>  <PUBCHEM_PHARMACOPHORE_FEATURES>  (1) 
10
1 3 donor
1 4 acceptor
1 5 acceptor
1 6 acceptor
1 7 acceptor
1 8 donor
3 6 7 23 anion
6 11 12 13 14 15 19 rings
6 2 9 10 11 12 16 rings
6 22 24 25 26 27 28 rings

>  <PUBCHEM_HEAVY_ATOM_COUNT>  (1) 
28

>  <PUBCHEM_ATOM_DEF_STEREO_COUNT>  (1) 
0

>  <PUBCHEM_ATOM_UDEF_STEREO_COUNT>  (1) 
2

>  <PUBCHEM_BOND_DEF_STEREO_COUNT>  (1) 
0

>  <PUBCHEM_BOND_UDEF_STEREO_COUNT>  (1) 
0

>  <PUBCHEM_ISOTOPIC_ATOM_COUNT>  (1) 
0

>  <PUBCHEM_COMPONENT_COUNT>  (1) 
1

>  <PUBCHEM_CACTVS_TAUTO_COUNT>  (1) 
22

>  <PUBCHEM_CONFORMER_ID>  (1) 
000011E400000008

>  <PUBCHEM_MMFF94_ENERGY>  (1) 
81.2094

>  <PUBCHEM_FEATURE_SELFOVERLAP>  (1) 
50.833

>  <PUBCHEM_SHAPE_FINGERPRINT>  (1) 
10165383 225 17703519827062078819
10906281 52 18186812396191302922
11796584 16 17632301190097340598
12107183 9 18194395598285168770
12236239 1 18411138013205103992
12422481 6 18119802517368871266
12978246 48 18338237064248903281
13583140 156 17458900432542714471
14251757 5 18131353020632409465
14294032 229 17917996071334629407
14713325 29 18342181124253466511
14790565 3 18187649089821930916
14849402 71 18114755935408524436
15081414 286 18113337484141288380
15183329 4 18408880741919471404
15297060 5 17774450373872705697
15475509 8 18337969891734373628
15484559 13 15734266721160158052
1601671 61 18411416190132273284
16110190 28 18335140847762360349
17818456 19 18342176656753969716
20511986 3 18335688438912770416
20739085 24 17822296721555788756
21033648 29 16917055677261385786
21421861 104 18042678391600395546
21756936 100 18335144210821713875
23522609 53 18115326543657646668
23559900 14 17560801065497011032
24771293 8 18264763437264404820
25147074 1 18260821610172551218
3610482 184 18190197830393876116
38570 142 18188508903413792404
392239 28 17969807271043684457
397830 11 12468643884832993700
5104073 3 18188202195556998434
543358 83 18259982682911171778
6328613 192 18409452505362743780
6700243 42 17269227194570277079
7226269 152 17846782871302849953
7808743 9 18342739607287282529

>  <PUBCHEM_SHAPE_MULTIPOLES>  (1) 
537.9
14.95
3.59
1.42
5.1
0.72
0.01
-7.18
-1.93
-4.04
0.78
-0.26
0.4
-3.85

>  <PUBCHEM_SHAPE_SELFOVERLAP>  (1) 
1156.112

>  <PUBCHEM_SHAPE_VOLUME>  (1) 
295.4

>  <PUBCHEM_COORDINATE_TYPE>  (1) 
2
5
10

$$$$
