45806
     RDKit          3D

 20 20  0  0  0  0  0  0  0  0999 V2000
    4.0469    0.0510   -0.0129 N   0  0  0  0  0  0  0  0  0  0  0  0
   -3.9160    0.1836    0.0663 N   0  0  0  0  0  0  0  0  0  0  0  0
    2.5706    0.3828    0.1499 C   0  0  0  0  0  0  0  0  0  0  0  0
    4.4085   -1.1142    0.8969 C   0  0  0  0  0  0  0  0  0  0  0  0
    4.8839    1.2657    0.3616 C   0  0  0  0  0  0  0  0  0  0  0  0
    1.7144   -0.8242   -0.2182 C   0  0  0  0  0  0  0  0  0  0  0  0
    4.3248   -0.3301   -1.4599 C   0  0  0  0  0  0  0  0  0  0  0  0
   -2.4942   -0.0709   -0.0055 C   0  0  0  0  0  0  0  0  0  0  0  0
   -4.7939   -1.0587    0.4171 C   0  0  0  0  0  0  0  0  0  0  0  0
   -4.2576    1.2382    1.1573 C   0  0  0  0  0  0  0  0  0  0  0  0
    0.2310   -0.5587   -0.1433 C   0  0  0  0  0  0  0  0  0  0  0  0
   -4.4764    0.7032   -1.2883 C   0  0  0  0  0  0  0  0  0  0  0  0
    5.8769   -1.4390    0.7307 C   0  0  0  0  0  0  0  0  0  0  0  0
    4.5201    2.4204   -0.5460 C   0  0  0  0  0  0  0  0  0  0  0  0
   -1.8126   -0.5433    1.1160 C   0  0  0  0  0  0  0  0  0  0  0  0
   -1.8045    0.1561   -1.1964 C   0  0  0  0  0  0  0  0  0  0  0  0
   -0.4412   -0.7887    1.0468 C   0  0  0  0  0  0  0  0  0  0  0  0
   -0.4332   -0.0894   -1.2658 C   0  0  0  0  0  0  0  0  0  0  0  0
   -4.6163   -2.1129   -0.6537 C   0  0  0  0  0  0  0  0  0  0  0  0
   -3.5316    2.5290    0.8474 C   0  0  0  0  0  0  0  0  0  0  0  0
  1  3  1  0
  1  4  1  0
  1  5  1  0
  1  7  1  0
  2  8  1  0
  2  9  1  0
  2 10  1  0
  2 12  1  0
  3  6  1  0
  4 13  1  0
  5 14  1  0
  6 11  1  0
  8 15  2  0
  8 16  1  0
  9 19  1  0
 10 20  1  0
 11 17  2  0
 11 18  1  0
 15 17  1  0
 16 18  2  0
M  CHG  2   1   1   2   1
M  END
>  <PUBCHEM_COMPOUND_CID>  (1) 
45806

>  <PUBCHEM_CONFORMER_RMSD>  (1) 
0.8

>  <PUBCHEM_CONFORMER_DIVERSEORDER>  (1) 
2
20
41
47
12
31
53
40
44
16
33
30
45
1
48
21
42
17
34
32
38
39
29
28
22
37
43
19
15
10
50
23
7
24
26
13
36
18
25
4
35
52
11
8
6
51
3
46
27
49
5
9
14

>  <PUBCHEM_MMFF94_PARTIAL_CHARGES>  (1) 
20
1 -1.01
10 0.5
11 -0.14
12 0.5
15 -0.15
16 -0.15
17 -0.15
18 -0.15
2 -0.87
3 0.5
4 0.5
45 0.15
46 0.15
47 0.15
48 0.15
5 0.5
6 0.14
7 0.5
8 0.36
9 0.5

>  <PUBCHEM_EFFECTIVE_ROTOR_COUNT>  (1) 
8

>  <PUBCHEM_PHARMACOPHORE_FEATURES>  (1) 
3
1 1 cation
1 2 cation
6 8 11 15 16 17 18 rings

>  <PUBCHEM_HEAVY_ATOM_COUNT>  (1) 
20

>  <PUBCHEM_ATOM_DEF_STEREO_COUNT>  (1) 
0

>  <PUBCHEM_ATOM_UDEF_STEREO_COUNT>  (1) 
0

>  <PUBCHEM_BOND_DEF_STEREO_COUNT>  (1) 
0

>  <PUBCHEM_BOND_UDEF_STEREO_COUNT>  (1) 
0

>  <PUBCHEM_ISOTOPIC_ATOM_COUNT>  (1) 
0

>  <PUBCHEM_COMPONENT_COUNT>  (1) 
1

>  <PUBCHEM_CACTVS_TAUTO_COUNT>  (1) 
1

>  <PUBCHEM_CONFORMER_ID>  (1) 
0000B2EE00000002

>  <PUBCHEM_MMFF94_ENERGY>  (1) 
86.2102

>  <PUBCHEM_FEATURE_SELFOVERLAP>  (1) 
15.223

>  <PUBCHEM_SHAPE_FINGERPRINT>  (1) 
10366900 7 14490471971949864508
10595046 47 18339922713962275530
10912923 1 18410575097716877042
11089746 13 18334294275759621400
11287383 113 18343302604074101766
11315181 36 18408039606565094250
11405975 8 18261114080323588082
12107183 9 17834113048317584394
12403259 118 18201434757641100808
12403259 415 17385715877329533198
12596602 18 18333731342311115737
12616971 3 18060133250054215486
12670546 56 18259982665240822264
12916748 109 18273500091093863054
13073987 5 18411417323908557824
13167823 11 18410852170352667794
13533116 47 18040995120923663506
13583140 156 17560508530552543931
13675066 3 16443068296085467882
14251764 18 18113332025654385026
14528608 73 18337112358099687342
15209294 21 18187653440565746969
15788980 27 17203890738586727734
15880784 105 18186237342097005675
17349148 13 17385731300309504367
17834072 33 18408884061681517834
17844677 252 18413395332167808912
18222031 100 15791729719915524462
19433438 15 18059851762335021132
19489759 90 18201435852942157411
200 152 18261388979578891055
20645477 56 17458340875328588052
20645477 70 18410012127016950630
21033648 29 16732973232720437156
22854114 59 18186518825937885860
23402539 116 17894624842762021927
23557571 272 17632308839217686369
23559900 14 16588312691879007366
2838139 119 18267296531027883877
314173 85 15574710300868297990
34797466 226 18130516317784171069
351380 180 18260263053685765344
5104073 3 18187085065920698136
542803 24 18131353007552055562
633830 44 18341898476454713550
7495541 125 17988638661556487474
90127 26 18340220647501564984
960060 61 10375871883690922872
9971528 1 17458343061556645326

>  <PUBCHEM_SHAPE_MULTIPOLES>  (1) 
401.63
13.86
1.99
1.31
8.17
0.95
-0.18
0.12
0.77
-0.21
0.24
-0.33
0.03
-1.23

>  <PUBCHEM_SHAPE_SELFOVERLAP>  (1) 
790.143

>  <PUBCHEM_SHAPE_VOLUME>  (1) 
241.8

>  <PUBCHEM_COORDINATE_TYPE>  (1) 
2
5
10

$$$$
