45810
     RDKit          3D

 21 21  0  0  0  0  0  0  0  0999 V2000
    3.9048    0.3441    0.0176 N   0  0  0  0  0  0  0  0  0  0  0  0
   -3.7484    0.6226   -0.0922 N   0  0  0  0  0  0  0  0  0  0  0  0
    2.6921   -0.3806    0.5837 C   0  0  0  0  0  0  0  0  0  0  0  0
    5.1012   -0.5965    0.0126 C   0  0  0  0  0  0  0  0  0  0  0  0
    4.2178    1.5586    0.8797 C   0  0  0  0  0  0  0  0  0  0  0  0
    2.3559   -1.6082   -0.2574 C   0  0  0  0  0  0  0  0  0  0  0  0
    3.6079    0.7948   -1.4054 C   0  0  0  0  0  0  0  0  0  0  0  0
    1.1134   -2.3911    0.1873 C   0  0  0  0  0  0  0  0  0  0  0  0
   -2.5207   -0.1383   -0.0215 C   0  0  0  0  0  0  0  0  0  0  0  0
   -3.5012    2.1383    0.1552 C   0  0  0  0  0  0  0  0  0  0  0  0
   -4.8395    0.2168    0.9482 C   0  0  0  0  0  0  0  0  0  0  0  0
    6.3033    0.1295   -0.5509 C   0  0  0  0  0  0  0  0  0  0  0  0
    3.0250    2.4896    0.8809 C   0  0  0  0  0  0  0  0  0  0  0  0
   -0.1667   -1.5976    0.1137 C   0  0  0  0  0  0  0  0  0  0  0  0
   -4.4382    0.4741   -1.4781 C   0  0  0  0  0  0  0  0  0  0  0  0
   -1.7599   -0.1282    1.1476 C   0  0  0  0  0  0  0  0  0  0  0  0
   -2.0972   -0.8826   -1.1226 C   0  0  0  0  0  0  0  0  0  0  0  0
   -0.5757   -0.8622    1.2156 C   0  0  0  0  0  0  0  0  0  0  0  0
   -0.9131   -1.6167   -1.0546 C   0  0  0  0  0  0  0  0  0  0  0  0
   -2.5272    2.6595   -0.8788 C   0  0  0  0  0  0  0  0  0  0  0  0
   -5.2338   -1.2260    0.7195 C   0  0  0  0  0  0  0  0  0  0  0  0
  1  3  1  0
  1  4  1  0
  1  5  1  0
  1  7  1  0
  2  9  1  0
  2 10  1  0
  2 11  1  0
  2 15  1  0
  3  6  1  0
  4 12  1  0
  5 13  1  0
  6  8  1  0
  8 14  1  0
  9 16  2  0
  9 17  1  0
 10 20  1  0
 11 21  1  0
 14 18  2  0
 14 19  1  0
 16 18  1  0
 17 19  2  0
M  CHG  2   1   1   2   1
M  END
>  <PUBCHEM_COMPOUND_CID>  (1) 
45810

>  <PUBCHEM_CONFORMER_RMSD>  (1) 
0.8

>  <PUBCHEM_CONFORMER_DIVERSEORDER>  (1) 
1
32
94
117
42
101
107
85
45
78
80
122
86
91
108
115
15
31
37
118
70
43
109
110
100
98
93
84
49
7
51
92
123
116
59
112
65
67
66
76
127
69
72
130
62
27
41
34
87
3
126
35
5
103
88
131
6
74
114
21
38
46
20
124
26
68
33
28
97
50
29
40
24
119
13
47
77
4
89
104
23
58
17
11
73
25
111
14
16
95
129
63
82
12
53
83
19
52
75
10
120
71
55
96
102
79
44
128
125
81
30
61
57
56
105
48
113
36
9
106
121
99
39
18
8
90
64
60
54
2
22

>  <PUBCHEM_MMFF94_PARTIAL_CHARGES>  (1) 
20
1 -1.01
10 0.5
11 0.5
14 -0.14
15 0.5
16 -0.15
17 -0.15
18 -0.15
19 -0.15
2 -0.87
3 0.5
4 0.5
48 0.15
49 0.15
5 0.5
50 0.15
51 0.15
7 0.5
8 0.14
9 0.36

>  <PUBCHEM_EFFECTIVE_ROTOR_COUNT>  (1) 
9

>  <PUBCHEM_PHARMACOPHORE_FEATURES>  (1) 
3
1 1 cation
1 2 cation
6 9 14 16 17 18 19 rings

>  <PUBCHEM_HEAVY_ATOM_COUNT>  (1) 
21

>  <PUBCHEM_ATOM_DEF_STEREO_COUNT>  (1) 
0

>  <PUBCHEM_ATOM_UDEF_STEREO_COUNT>  (1) 
0

>  <PUBCHEM_BOND_DEF_STEREO_COUNT>  (1) 
0

>  <PUBCHEM_BOND_UDEF_STEREO_COUNT>  (1) 
0

>  <PUBCHEM_ISOTOPIC_ATOM_COUNT>  (1) 
0

>  <PUBCHEM_COMPONENT_COUNT>  (1) 
1

>  <PUBCHEM_CACTVS_TAUTO_COUNT>  (1) 
1

>  <PUBCHEM_CONFORMER_ID>  (1) 
0000B2F200000001

>  <PUBCHEM_MMFF94_ENERGY>  (1) 
86.2968

>  <PUBCHEM_FEATURE_SELFOVERLAP>  (1) 
15.223

>  <PUBCHEM_SHAPE_FINGERPRINT>  (1) 
10670039 82 18188221914005380276
10803635 8 12103564156452903185
11578080 2 16662033730997852941
12166972 35 18408610275113102432
12403259 415 18412822504016642208
12596602 18 15647061477417115420
12670546 177 17704061919715326863
13402501 40 18409446986071227512
14251751 18 11599715182086197584
14251752 14 14476691758148212834
14251764 18 17894346692775846026
14251764 38 18187366476215027373
14466204 15 18338223870356828872
14787075 74 17895762910633019459
15183329 4 18201154374198130238
15537594 2 11743839183366717932
17349148 13 16950572107596771359
18186145 218 17846773014109766546
18335252 114 18199742549185119717
200 152 12895072916498127910
20374829 77 11815894539673774090
20645477 56 18343022198428365806
21033648 29 18040704879470315084
21250096 35 8286200547888297374
21524375 3 18410296899906143338
21652331 79 18410290324273978089
21864079 5 18339627997517144768
221357 26 18343862204011216832
23227448 37 18200027477183440095
23557571 272 17894920645654855379
23559900 14 17677333779924136539
26918003 58 8574709087681356610
2838139 119 18340478989526209948
351380 180 18413105061288032020
3524813 1 18410851049524355096
3545911 37 18412549816469315298
4028521 119 18202001027804461592
4325135 7 18410858780924365367
474 4 18040716952523007942
4921388 177 15123213464698957237
5104073 3 18115876200581239811
5281201 14 18271249296350296934
59682541 35 18041572441900694723
59755656 520 18186521029388867618
6328613 192 18335425721002603916
9996256 80 18411139151440574070

>  <PUBCHEM_SHAPE_MULTIPOLES>  (1) 
422.21
12.61
2.49
1.28
6.76
0.98
-0.16
3.23
-0.34
-0.13
0
-0.48
0.14
0.81

>  <PUBCHEM_SHAPE_SELFOVERLAP>  (1) 
828.531

>  <PUBCHEM_SHAPE_VOLUME>  (1) 
254.4

>  <PUBCHEM_COORDINATE_TYPE>  (1) 
2
5
10

$$$$
