45821
     RDKit          3D

 23 26  0  0  1  0  0  0  0  0999 V2000
   -4.7132    3.4908   -0.6129 Cl  0  0  0  0  0  0  0  0  0  0  0  0
    3.6008    1.0664    0.7244 N   0  0  0  0  0  0  0  0  0  0  0  0
    0.9832    0.0458    0.1040 N   0  0  0  0  0  0  0  0  0  0  0  0
    3.4671   -0.2708    0.1192 C   0  0  0  0  0  0  0  0  0  0  0  0
    2.6883    1.8670   -0.1116 C   0  0  0  0  0  0  0  0  0  0  0  0
    3.5083   -0.0153   -1.3938 C   0  0  0  0  0  0  0  0  0  0  0  0
    2.9868    1.4168   -1.5484 C   0  0  0  0  0  0  0  0  0  0  0  0
    2.0878   -0.8088    0.5700 C   0  0  0  0  0  0  0  0  0  0  0  0
    1.2552    1.4760    0.3231 C   0  0  0  0  0  0  0  0  0  0  0  0
   -0.2925   -0.3563    0.6852 C   0  0  0  0  0  0  0  0  0  0  0  0
    4.9726    1.5654    0.7175 C   0  0  0  0  0  0  0  0  0  0  0  0
   -1.4124    0.6196    0.3557 C   0  0  0  0  0  0  0  0  0  0  0  0
   -0.6659   -1.7880    0.3304 C   0  0  0  0  0  0  0  0  0  0  0  0
   -1.6486    1.6776    1.2096 C   0  0  0  0  0  0  0  0  0  0  0  0
   -2.1596    0.4168   -0.7870 C   0  0  0  0  0  0  0  0  0  0  0  0
   -1.4272   -2.5190    1.2199 C   0  0  0  0  0  0  0  0  0  0  0  0
   -0.2327   -2.3130   -0.8702 C   0  0  0  0  0  0  0  0  0  0  0  0
   -2.6761    2.5715    0.9081 C   0  0  0  0  0  0  0  0  0  0  0  0
   -3.1871    1.3107   -1.0886 C   0  0  0  0  0  0  0  0  0  0  0  0
   -1.7698   -3.8314    0.8947 C   0  0  0  0  0  0  0  0  0  0  0  0
   -0.5755   -3.6254   -1.1953 C   0  0  0  0  0  0  0  0  0  0  0  0
   -3.4453    2.3882   -0.2411 C   0  0  0  0  0  0  0  0  0  0  0  0
   -1.3441   -4.3845   -0.3128 C   0  0  0  0  0  0  0  0  0  0  0  0
  1 22  1  0
  2  4  1  0
  2  5  1  0
  2 11  1  0
  3  8  1  0
  3  9  1  0
  3 10  1  0
  4  6  1  0
  4  8  1  0
  5  7  1  0
  5  9  1  0
  6  7  1  0
 10 12  1  0
 10 13  1  0
 12 14  2  0
 12 15  1  0
 13 16  2  0
 13 17  1  0
 14 18  1  0
 15 19  2  0
 16 20  1  0
 17 21  2  0
 18 22  2  0
 19 22  1  0
 20 23  2  0
 21 23  1  0
M  END
>  <PUBCHEM_COMPOUND_CID>  (1) 
45821

>  <PUBCHEM_CONFORMER_RMSD>  (1) 
0.8

>  <PUBCHEM_CONFORMER_DIVERSEORDER>  (1) 
1
4
7
2
10
5
3
6
11
8
9

>  <PUBCHEM_MMFF94_PARTIAL_CHARGES>  (1) 
30
1 -0.18
10 0.56
11 0.27
12 -0.14
13 -0.14
14 -0.15
15 -0.15
16 -0.15
17 -0.15
18 -0.15
19 -0.15
2 -0.81
20 -0.15
21 -0.15
22 0.18
23 -0.15
3 -0.81
38 0.15
39 0.15
4 0.27
40 0.15
41 0.15
42 0.15
43 0.15
44 0.15
45 0.15
46 0.15
5 0.27
8 0.27
9 0.27

>  <PUBCHEM_EFFECTIVE_ROTOR_COUNT>  (1) 
4.2

>  <PUBCHEM_PHARMACOPHORE_FEATURES>  (1) 
5
1 2 cation
1 3 cation
6 12 14 15 18 19 22 rings
6 13 16 17 20 21 23 rings
8 2 3 4 5 6 7 8 9 rings

>  <PUBCHEM_HEAVY_ATOM_COUNT>  (1) 
23

>  <PUBCHEM_ATOM_DEF_STEREO_COUNT>  (1) 
0

>  <PUBCHEM_ATOM_UDEF_STEREO_COUNT>  (1) 
3

>  <PUBCHEM_BOND_DEF_STEREO_COUNT>  (1) 
0

>  <PUBCHEM_BOND_UDEF_STEREO_COUNT>  (1) 
0

>  <PUBCHEM_ISOTOPIC_ATOM_COUNT>  (1) 
0

>  <PUBCHEM_COMPONENT_COUNT>  (1) 
1

>  <PUBCHEM_CACTVS_TAUTO_COUNT>  (1) 
1

>  <PUBCHEM_CONFORMER_ID>  (1) 
0000B2FD00000001

>  <PUBCHEM_MMFF94_ENERGY>  (1) 
79.2721

>  <PUBCHEM_FEATURE_SELFOVERLAP>  (1) 
25.374

>  <PUBCHEM_SHAPE_FINGERPRINT>  (1) 
121448 382 18271798025951785641
12160290 23 18266479756621599083
12173636 292 18410855447591744645
12293681 160 17917701362525327529
12553582 1 17619920890636477678
12643181 29 18339932503311679614
12714826 92 18053959616749758890
12730499 353 18119820110399499873
12788726 201 17972888230418624418
13004483 165 17978791542861087499
13009979 54 16478803262108100289
13140716 1 17905891727195017091
133893 2 17621330030798770313
13583140 156 16950277425226497073
13590594 115 17832426771982111091
13681431 1 17327180948957559899
138480 1 17330553142498235875
13955234 65 17906173945776251809
14178342 30 18336255860385621640
15664445 248 17042070406837199141
16752209 62 18411131480607566227
1813 80 17475529741947515790
19784866 34 18268140968758274793
20567600 347 18339359639734410215
20645476 183 18408601452722398628
21285901 2 17985847036231322167
21304303 282 17979594035946036653
21524375 3 18261671484972901073
22182313 1 17916603058510426060
2255824 54 17763743187944379295
22907989 373 18193575564505647733
23419403 2 15258133372649358347
23557571 272 18199185281747471000
23558518 356 18260265273984001810
23559900 14 18271815610376057628
23598288 3 18188218722464649674
238 59 18126294038609828559
283562 15 17973434696778284986
3060560 45 18194118504164076174
3091708 16 9124849747956039155
3380486 145 17476911828332220267
352729 6 18340496564331769354
4409770 3 18267295607356213847
474 4 18122341277196579177
59755656 520 18336818723843812468
6138700 20 17764030169054034518
633830 44 17844536508764825633
6443956 14 17546444475521131326
7164475 11 18120094137585953390
7364860 26 17836362645039704493
7615 1 17532652541365847300
81228 2 18119815969343709731
8272917 22 17977665308374115453
90316 7 17979929528684666099
9709674 26 18272653501964515684
9981440 41 17916846020230816506

>  <PUBCHEM_SHAPE_MULTIPOLES>  (1) 
465.24
7.35
5.23
1.3
2.84
6.24
0.19
-9.39
0.82
-5.04
0.21
0.11
0.08
0.62

>  <PUBCHEM_SHAPE_SELFOVERLAP>  (1) 
1005.796

>  <PUBCHEM_SHAPE_VOLUME>  (1) 
256.9

>  <PUBCHEM_COORDINATE_TYPE>  (1) 
2
5
10

$$$$
