45827
     RDKit          3D

 26 29  0  0  1  0  0  0  0  0999 V2000
   -0.2608    1.9259   -1.2997 O   0  0  0  0  0  0  0  0  0  0  0  0
   -0.2817    2.1044    2.0356 O   0  0  0  0  0  0  0  0  0  0  0  0
    4.0970   -0.4160   -0.6172 N   0  0  0  0  0  0  0  0  0  0  0  0
    1.4371    0.5607   -0.4895 N   0  0  0  0  0  0  0  0  0  0  0  0
    3.8774    1.0208   -0.8567 C   0  0  0  0  0  0  0  0  0  0  0  0
    3.3404   -0.6404    0.6264 C   0  0  0  0  0  0  0  0  0  0  0  0
    4.0279    1.6768    0.5207 C   0  0  0  0  0  0  0  0  0  0  0  0
    3.6717    0.5677    1.5106 C   0  0  0  0  0  0  0  0  0  0  0  0
    2.4383    1.1628   -1.3827 C   0  0  0  0  0  0  0  0  0  0  0  0
    1.8482   -0.6504    0.2443 C   0  0  0  0  0  0  0  0  0  0  0  0
   -0.8600    0.3815    0.3997 C   0  0  0  0  0  0  0  0  0  0  0  0
   -2.2015    1.0674    0.1477 C   0  0  0  0  0  0  0  0  0  0  0  0
    0.1224    1.0296   -0.5438 C   0  0  0  0  0  0  0  0  0  0  0  0
   -2.6509    0.8616   -1.3051 C   0  0  0  0  0  0  0  0  0  0  0  0
   -3.2654    0.5530    1.1268 C   0  0  0  0  0  0  0  0  0  0  0  0
   -4.0160    1.4934   -1.5678 C   0  0  0  0  0  0  0  0  0  0  0  0
   -4.6296    1.1852    0.8600 C   0  0  0  0  0  0  0  0  0  0  0  0
    5.5106   -0.7607   -0.4920 C   0  0  0  0  0  0  0  0  0  0  0  0
   -0.3978    0.6977    1.8413 C   0  0  0  0  0  0  0  0  0  0  0  0
   -0.9992   -1.1285    0.1728 C   0  0  0  0  0  0  0  0  0  0  0  0
   -5.0688    0.9863   -0.5873 C   0  0  0  0  0  0  0  0  0  0  0  0
   -0.8049   -1.6216   -1.0953 C   0  0  0  0  0  0  0  0  0  0  0  0
   -1.3130   -1.9267    1.2468 C   0  0  0  0  0  0  0  0  0  0  0  0
   -0.9320   -2.9954   -1.3019 C   0  0  0  0  0  0  0  0  0  0  0  0
   -1.4400   -3.3004    1.0403 C   0  0  0  0  0  0  0  0  0  0  0  0
   -1.2495   -3.8346   -0.2340 C   0  0  0  0  0  0  0  0  0  0  0  0
  1 13  2  0
  2 19  1  0
  3  5  1  0
  3  6  1  0
  3 18  1  0
  4  9  1  0
  4 10  1  0
  4 13  1  0
  5  7  1  0
  5  9  1  0
  6  8  1  0
  6 10  1  0
  7  8  1  0
 11 12  1  0
 11 13  1  0
 11 19  1  0
 11 20  1  0
 12 14  1  0
 12 15  1  0
 14 16  1  0
 15 17  1  0
 16 21  1  0
 17 21  1  0
 20 22  2  0
 20 23  1  0
 22 24  1  0
 23 25  2  0
 24 26  2  0
 25 26  1  0
M  END
>  <PUBCHEM_COMPOUND_CID>  (1) 
45827

>  <PUBCHEM_CONFORMER_RMSD>  (1) 
0.8

>  <PUBCHEM_CONFORMER_DIVERSEORDER>  (1) 
2
18
14
1
17
11
13
5
10
16
7
15
6
4
3
12
9
8

>  <PUBCHEM_MMFF94_PARTIAL_CHARGES>  (1) 
24
1 -0.57
10 0.3
11 0.2
13 0.57
18 0.27
19 0.28
2 -0.68
20 -0.14
22 -0.15
23 -0.15
24 -0.15
25 -0.15
26 -0.15
3 -0.81
4 -0.66
5 0.27
53 0.15
54 0.15
55 0.4
56 0.15
57 0.15
58 0.15
6 0.27
9 0.3

>  <PUBCHEM_EFFECTIVE_ROTOR_COUNT>  (1) 
7.4

>  <PUBCHEM_PHARMACOPHORE_FEATURES>  (1) 
7
1 1 acceptor
1 2 acceptor
1 2 donor
1 3 cation
6 12 14 15 16 17 21 rings
6 20 22 23 24 25 26 rings
8 3 4 5 6 7 8 9 10 rings

>  <PUBCHEM_HEAVY_ATOM_COUNT>  (1) 
26

>  <PUBCHEM_ATOM_DEF_STEREO_COUNT>  (1) 
0

>  <PUBCHEM_ATOM_UDEF_STEREO_COUNT>  (1) 
3

>  <PUBCHEM_BOND_DEF_STEREO_COUNT>  (1) 
0

>  <PUBCHEM_BOND_UDEF_STEREO_COUNT>  (1) 
0

>  <PUBCHEM_ISOTOPIC_ATOM_COUNT>  (1) 
0

>  <PUBCHEM_COMPONENT_COUNT>  (1) 
1

>  <PUBCHEM_CACTVS_TAUTO_COUNT>  (1) 
1

>  <PUBCHEM_CONFORMER_ID>  (1) 
0000B30300000002

>  <PUBCHEM_MMFF94_ENERGY>  (1) 
103.5244

>  <PUBCHEM_FEATURE_SELFOVERLAP>  (1) 
35.522

>  <PUBCHEM_SHAPE_FINGERPRINT>  (1) 
10366900 7 17417820534808641964
10906281 52 17560815345952547184
11421498 54 18129662972956473897
11488393 25 17903636281260721347
11578080 2 17983578795045437953
121448 382 18270384075720994823
12403814 3 17894910763087847533
12553582 1 17689446296489812054
12592029 89 18041559127111647659
12633257 1 18266995389490455336
12714826 92 18124889103077873370
12788726 201 18047469208169841963
12969540 114 18335689521318161157
13140716 1 18335419131831434808
13149001 5 18058437867569994905
13224815 77 18189332541066176010
133893 2 17831596270538945611
13533116 47 17845654729823699806
13544653 18 11815890172024447493
13583140 156 17530692012758489857
14115302 16 18413393146346115784
14251751 93 18187075170585027407
14787075 74 17988922262958714881
15131766 46 14419566769525325702
15420108 30 15971894256444745280
16752209 62 18339358694377952895
16945 1 18260548909217946553
17349148 13 18273219672732088668
17980427 23 17387404873709964876
18981168 100 11604190164288465610
20197701 30 18410003309037284527
20600515 1 18201452393014753476
20602899 9 18271811194015586035
21033648 29 18337093593182719536
21033650 10 17058398940884878576
21330990 113 12901819468179778041
21452121 199 17327727904336888794
21521721 280 18342457063090828569
22182313 1 18267609973277165783
229495 10 15358793649155812083
23227448 37 18187929546432287732
23402539 116 17560518408792727824
23419403 2 17414711274622615715
23557571 272 18128537248847494658
23559900 14 18273496797634824808
298252 57 18040991826404029497
3383291 50 18199187278908439414
34934 24 18040154045862300308
3729539 64 18122068598387412998
38695281 34 18269269072251722887
4015057 19 17702933855113773320
404807 14 14901183322188494942
4340502 62 18269293296115192225
5104073 3 18265043803906717640
59755656 520 18341054033965053535
633830 44 17916872309562267197
69090 78 18260265252534999581
81228 2 17831283262418567651

>  <PUBCHEM_SHAPE_MULTIPOLES>  (1) 
513.37
8.8
3.16
1.67
4.53
3.83
-0.26
-4.05
0.93
-2.04
0.17
-0.4
-0.38
0.34

>  <PUBCHEM_SHAPE_SELFOVERLAP>  (1) 
1106.114

>  <PUBCHEM_SHAPE_VOLUME>  (1) 
278.2

>  <PUBCHEM_COORDINATE_TYPE>  (1) 
2
5
10

$$$$
