45839
     RDKit          3D

 19 21  0  0  1  0  0  0  0  0999 V2000
   -3.2915   -1.7487    0.9560 O   0  0  0  0  0  0  0  0  0  0  0  0
   -2.2814    0.2431    0.3813 N   0  0  0  0  0  0  0  0  0  0  0  0
    0.3668    0.5675   -0.6222 N   0  0  0  0  0  0  0  0  0  0  0  0
   -1.1709    0.1892    1.3146 C   0  0  0  0  0  0  0  0  0  0  0  0
   -1.9999    1.3715   -0.4936 C   0  0  0  0  0  0  0  0  0  0  0  0
   -1.0179    1.6627    1.7165 C   0  0  0  0  0  0  0  0  0  0  0  0
   -1.5684    2.4515    0.5102 C   0  0  0  0  0  0  0  0  0  0  0  0
    0.0533   -0.3182    0.5187 C   0  0  0  0  0  0  0  0  0  0  0  0
   -0.8288    0.9409   -1.4070 C   0  0  0  0  0  0  0  0  0  0  0  0
   -3.2555   -0.7252    0.2710 C   0  0  0  0  0  0  0  0  0  0  0  0
    1.4070   -0.0025   -1.4713 C   0  0  0  0  0  0  0  0  0  0  0  0
   -4.3227   -0.4605   -0.7587 C   0  0  0  0  0  0  0  0  0  0  0  0
    2.6898   -0.2237   -0.7148 C   0  0  0  0  0  0  0  0  0  0  0  0
   -5.2994   -1.6112   -0.7981 C   0  0  0  0  0  0  0  0  0  0  0  0
    3.6388    0.7881   -0.6679 C   0  0  0  0  0  0  0  0  0  0  0  0
    2.9053   -1.4361   -0.0745 C   0  0  0  0  0  0  0  0  0  0  0  0
    4.8271    0.5833    0.0330 C   0  0  0  0  0  0  0  0  0  0  0  0
    4.0937   -1.6408    0.6266 C   0  0  0  0  0  0  0  0  0  0  0  0
    5.0546   -0.6310    0.6803 C   0  0  0  0  0  0  0  0  0  0  0  0
  1 10  2  0
  2  4  1  0
  2  5  1  0
  2 10  1  0
  3  8  1  0
  3  9  1  0
  3 11  1  0
  4  6  1  0
  4  8  1  0
  5  7  1  0
  5  9  1  0
  6  7  1  0
 10 12  1  0
 11 13  1  0
 12 14  1  0
 13 15  2  0
 13 16  1  0
 15 17  1  0
 16 18  2  0
 17 19  2  0
 18 19  1  0
M  END
>  <PUBCHEM_COMPOUND_CID>  (1) 
45839

>  <PUBCHEM_CONFORMER_RMSD>  (1) 
0.8

>  <PUBCHEM_CONFORMER_DIVERSEORDER>  (1) 
1
5
12
4
6
11
7
9
3
2
8
10

>  <PUBCHEM_MMFF94_PARTIAL_CHARGES>  (1) 
21
1 -0.57
10 0.57
11 0.41
12 0.06
13 -0.14
15 -0.15
16 -0.15
17 -0.15
18 -0.15
19 -0.15
2 -0.66
3 -0.81
37 0.15
38 0.15
39 0.15
4 0.3
40 0.15
41 0.15
5 0.3
8 0.27
9 0.27

>  <PUBCHEM_EFFECTIVE_ROTOR_COUNT>  (1) 
5.2

>  <PUBCHEM_PHARMACOPHORE_FEATURES>  (1) 
5
1 1 acceptor
1 14 hydrophobe
1 3 cation
6 13 15 16 17 18 19 rings
8 2 3 4 5 6 7 8 9 rings

>  <PUBCHEM_HEAVY_ATOM_COUNT>  (1) 
19

>  <PUBCHEM_ATOM_DEF_STEREO_COUNT>  (1) 
0

>  <PUBCHEM_ATOM_UDEF_STEREO_COUNT>  (1) 
2

>  <PUBCHEM_BOND_DEF_STEREO_COUNT>  (1) 
0

>  <PUBCHEM_BOND_UDEF_STEREO_COUNT>  (1) 
0

>  <PUBCHEM_ISOTOPIC_ATOM_COUNT>  (1) 
0

>  <PUBCHEM_COMPONENT_COUNT>  (1) 
1

>  <PUBCHEM_CACTVS_TAUTO_COUNT>  (1) 
1

>  <PUBCHEM_CONFORMER_ID>  (1) 
0000B30F00000001

>  <PUBCHEM_MMFF94_ENERGY>  (1) 
56.6612

>  <PUBCHEM_FEATURE_SELFOVERLAP>  (1) 
25.371

>  <PUBCHEM_SHAPE_FINGERPRINT>  (1) 
10366900 7 17967824851330824988
10447042 23 18409158939588637686
10922049 32 8502382126569831149
11315181 36 15864076464548189908
11458722 120 8502387615490348524
12403814 3 17203322295438881889
12592029 89 8141817096155497133
12596602 18 18340192000665917378
12670545 2 15574705907211582578
128620 24 17847062168841287196
12916754 54 18338800009790624126
13083527 12 18130787914331332525
13224815 77 16988563451277109436
13533116 47 18335699425676529394
13544653 18 18412268358677423763
13583140 156 17773580647216048112
14289901 80 17988931020233487854
14787075 74 18059289971753809226
15099037 51 12540691526661465486
15375358 24 15430042093172693340
17349148 13 17822015298092045290
17492 89 18200594670818446222
17834072 14 17603868931171451598
1813 80 17632303414505205957
18222031 100 16988840618359476461
192875 21 17676211281551738588
19862831 5 14923945643581179884
200 152 18335417971752252711
20279233 1 16298393448555007880
20645477 70 16081380652426797754
20671657 53 18187369865328878053
21065198 48 18409730621853668928
21069387 34 17676214554269377510
21304303 282 17764288567118657837
21864079 5 13398347907029730746
22079108 93 13973961025777401263
23402539 116 18408881819993270349
23419403 2 18057582408953736329
23503958 25 16056601998190353848
23557571 272 17774737367444645100
23559900 14 17968660548528890892
25 1 12685079406880509897
26918003 58 18335419084085615094
3009799 131 17967803977414967143
312423 11 18338253586924209404
3286 77 18410006633400201756
347723 3 17240197734208073269
469060 322 16915918773511356757
5161694 15 12973611044844039806
5283173 99 18041828529020237845
57100710 210 18341608192151808839
5924683 9 18336825299343796729
6442390 28 14764346076369794628
7615 1 17896907428827620540
76465 3 18410288112149503887
9709674 26 18262808367306909050
9882013 296 17846784000852367902

>  <PUBCHEM_SHAPE_MULTIPOLES>  (1) 
375.18
10.21
1.9
1.36
3.03
0.39
0.03
-5.24
-0.27
-1.21
0.39
-0.27
0.23
-0.7

>  <PUBCHEM_SHAPE_SELFOVERLAP>  (1) 
794.411

>  <PUBCHEM_SHAPE_VOLUME>  (1) 
209

>  <PUBCHEM_COORDINATE_TYPE>  (1) 
2
5
10

$$$$
