45838
     RDKit          3D

 22 24  0  0  1  0  0  0  0  0999 V2000
   -4.2334    0.6854   -2.1152 O   0  0  0  0  0  0  0  0  0  0  0  0
    2.7541    1.8430    1.2780 O   0  0  0  0  0  0  0  0  0  0  0  0
   -3.4998   -0.3845   -0.2086 N   0  0  0  0  0  0  0  0  0  0  0  0
   -0.8640   -0.2936    0.8727 N   0  0  0  0  0  0  0  0  0  0  0  0
   -2.4687   -1.2063   -0.8157 C   0  0  0  0  0  0  0  0  0  0  0  0
   -3.3288   -0.5439    1.2279 C   0  0  0  0  0  0  0  0  0  0  0  0
   -2.5746   -2.5051   -0.0044 C   0  0  0  0  0  0  0  0  0  0  0  0
   -3.1460   -2.0636    1.3590 C   0  0  0  0  0  0  0  0  0  0  0  0
   -1.1240   -0.4845   -0.5696 C   0  0  0  0  0  0  0  0  0  0  0  0
   -2.0393    0.2208    1.6068 C   0  0  0  0  0  0  0  0  0  0  0  0
    0.3131    0.5380    1.0982 C   0  0  0  0  0  0  0  0  0  0  0  0
   -4.3026    0.4968   -0.8996 C   0  0  0  0  0  0  0  0  0  0  0  0
    1.5525   -0.0741    0.4457 C   0  0  0  0  0  0  0  0  0  0  0  0
   -5.3161    1.2414   -0.0703 C   0  0  0  0  0  0  0  0  0  0  0  0
   -6.0988    2.1930   -0.9428 C   0  0  0  0  0  0  0  0  0  0  0  0
    2.7894    0.7893    0.6465 C   0  0  0  0  0  0  0  0  0  0  0  0
    4.0833    0.3373    0.0550 C   0  0  0  0  0  0  0  0  0  0  0  0
    4.1085   -0.8440   -0.6502 C   0  0  0  0  0  0  0  0  0  0  0  0
    5.2002    1.1195    0.2382 C   0  0  0  0  0  0  0  0  0  0  0  0
    5.3177   -1.2664   -1.2026 C   0  0  0  0  0  0  0  0  0  0  0  0
    6.4094    0.6973   -0.3142 C   0  0  0  0  0  0  0  0  0  0  0  0
    6.4680   -0.4958   -1.0347 C   0  0  0  0  0  0  0  0  0  0  0  0
  1 12  2  0
  2 16  2  0
  3  5  1  0
  3  6  1  0
  3 12  1  0
  4  9  1  0
  4 10  1  0
  4 11  1  0
  5  7  1  0
  5  9  1  0
  6  8  1  0
  6 10  1  0
  7  8  1  0
 11 13  1  0
 12 14  1  0
 13 16  1  0
 14 15  1  0
 16 17  1  0
 17 18  2  0
 17 19  1  0
 18 20  1  0
 19 21  2  0
 20 22  2  0
 21 22  1  0
M  END
>  <PUBCHEM_COMPOUND_CID>  (1) 
45838

>  <PUBCHEM_CONFORMER_RMSD>  (1) 
0.8

>  <PUBCHEM_CONFORMER_DIVERSEORDER>  (1) 
1
122
108
100
119
104
111
27
7
132
89
60
107
70
112
80
34
88
25
64
23
123
106
18
130
51
56
31
78
102
55
44
94
69
4
58
84
93
113
86
116
8
91
125
22
61
62
63
76
2
97
120
52
90
72
57
77
54
41
103
96
12
101
37
21
75
124
53
40
68
83
131
47
115
29
127
39
33
38
79
129
20
59
35
71
15
3
17
92
13
46
82
14
87
81
110
105
43
5
9
45
42
24
6
128
85
11
117
26
36
118
49
66
48
65
99
73
95
30
121
109
16
67
126
19
50
74
98
114
32
10
28

>  <PUBCHEM_MMFF94_PARTIAL_CHARGES>  (1) 
24
1 -0.57
10 0.27
11 0.27
12 0.57
13 0.06
14 0.06
16 0.42
17 0.09
18 -0.15
19 -0.15
2 -0.57
20 -0.15
21 -0.15
22 -0.15
3 -0.66
4 -0.81
42 0.15
43 0.15
44 0.15
45 0.15
46 0.15
5 0.3
6 0.3
9 0.27

>  <PUBCHEM_EFFECTIVE_ROTOR_COUNT>  (1) 
7.2

>  <PUBCHEM_PHARMACOPHORE_FEATURES>  (1) 
6
1 1 acceptor
1 15 hydrophobe
1 2 acceptor
1 4 cation
6 17 18 19 20 21 22 rings
8 3 4 5 6 7 8 9 10 rings

>  <PUBCHEM_HEAVY_ATOM_COUNT>  (1) 
22

>  <PUBCHEM_ATOM_DEF_STEREO_COUNT>  (1) 
0

>  <PUBCHEM_ATOM_UDEF_STEREO_COUNT>  (1) 
2

>  <PUBCHEM_BOND_DEF_STEREO_COUNT>  (1) 
0

>  <PUBCHEM_BOND_UDEF_STEREO_COUNT>  (1) 
0

>  <PUBCHEM_ISOTOPIC_ATOM_COUNT>  (1) 
0

>  <PUBCHEM_COMPONENT_COUNT>  (1) 
1

>  <PUBCHEM_CACTVS_TAUTO_COUNT>  (1) 
2

>  <PUBCHEM_CONFORMER_ID>  (1) 
0000B30E00000001

>  <PUBCHEM_MMFF94_ENERGY>  (1) 
61.5926

>  <PUBCHEM_FEATURE_SELFOVERLAP>  (1) 
30.446

>  <PUBCHEM_SHAPE_FINGERPRINT>  (1) 
10 15 9223221920091704974
10447042 23 17846499223720832084
105312 117 18261107453088959935
106641 1 14057012607345150797
10753850 27 13470392401913232661
107951 10 18259705597117686275
10803635 8 18334857229681508066
10835480 77 18272646892168609560
11315181 36 15051734204992216650
11796584 16 18410292519540629058
12390115 104 17894911802881227697
12555020 224 17561080310937490663
12596602 18 12103847835244047062
12616971 3 15984553311424039211
12670543 26 18131067108500788028
12788726 201 18058163925892224665
13167823 11 17703519856773545058
13668630 136 15985104119721446028
13914758 101 16415203326075059409
14251752 14 18040995108048992482
14341114 328 14129060322467245826
15081414 286 12685090385381719998
15183329 4 18201154356279658917
15788980 27 18410859893030400362
15880784 105 14405183984765491890
17093844 174 18409164450342486032
17349148 13 15267063670156072300
17834072 8 18343301457175278956
17844677 252 17968666033096424812
17857418 61 16702303442991140598
18222031 100 15841552977284955680
19377110 9 13190337993545291368
200 152 16988844990193039539
20645477 56 18040432188133890513
20681677 155 17967813851138683075
21033648 29 18336819892180561400
21315764 119 18115315479758302630
21728266 224 13254797915127316383
21756936 100 16588022411892156097
22061861 79 18202003222654114892
2215653 11 17989204832946175660
22224240 67 13767930096744322017
22393880 68 18410568530859996898
22646028 1 16774083985816022826
23081809 10 16298381401314135226
23198884 109 18410291394042640205
23402539 116 17458061599454319026
23559900 14 17846491582325439376
29717793 49 17203614770454559212
300161 21 18272649065400364498
3004659 81 18343867697996763142
314194 84 17274831255356228854
4015057 19 17346310552947464409
5104073 3 12973894770853651332
531348 171 17489308529888168333
542803 24 16298104298297665970
543368 44 15285646537810193934
5924683 9 13973970895807335011
59682541 35 8069728694374846508
59755656 520 15647054858666635312
633830 44 17968089888955809184
90127 26 18261673791307321720

>  <PUBCHEM_SHAPE_MULTIPOLES>  (1) 
431.05
16.51
1.91
1.48
13.53
0.4
0.04
-4.91
6.19
-2.22
0
-0.97
-0.06
2.24

>  <PUBCHEM_SHAPE_SELFOVERLAP>  (1) 
909.633

>  <PUBCHEM_SHAPE_VOLUME>  (1) 
240.4

>  <PUBCHEM_COORDINATE_TYPE>  (1) 
2
5
10

$$$$
