45846
     RDKit          3D

 16 17  0  0  1  0  0  0  0  0999 V2000
   -3.8851   -1.5337   -0.0591 Cl  0  0  0  0  0  0  0  0  0  0  0  0
   -2.7648    1.2242    0.0151 O   0  0  0  0  0  0  0  0  0  0  0  0
    2.7973   -0.9594    0.2840 N   0  0  0  0  0  0  0  0  0  0  0  0
    1.9758   -0.0803   -0.5245 C   0  0  0  0  0  0  0  0  0  0  0  0
    2.3088    1.3680   -0.1421 C   0  0  0  0  0  0  0  0  0  0  0  0
    1.2984    2.3322   -0.7463 C   0  0  0  0  0  0  0  0  0  0  0  0
    0.5040   -0.4195   -0.3808 C   0  0  0  0  0  0  0  0  0  0  0  0
   -0.0912    2.0513   -0.1830 C   0  0  0  0  0  0  0  0  0  0  0  0
   -0.4686    0.5925   -0.2510 C   0  0  0  0  0  0  0  0  0  0  0  0
    0.0799   -1.7586   -0.4555 C   0  0  0  0  0  0  0  0  0  0  0  0
   -1.8244    0.2435   -0.1380 C   0  0  0  0  0  0  0  0  0  0  0  0
    2.4353   -0.8336    1.6928 C   0  0  0  0  0  0  0  0  0  0  0  0
    4.2111   -0.6534    0.0844 C   0  0  0  0  0  0  0  0  0  0  0  0
   -1.2714   -2.0911   -0.3549 C   0  0  0  0  0  0  0  0  0  0  0  0
   -2.2227   -1.0907   -0.1900 C   0  0  0  0  0  0  0  0  0  0  0  0
   -3.0824    1.6087    1.3489 C   0  0  0  0  0  0  0  0  0  0  0  0
  1 15  1  0
  2 11  1  0
  2 16  1  0
  3  4  1  0
  3 12  1  0
  3 13  1  0
  4  5  1  0
  4  7  1  0
  5  6  1  0
  6  8  1  0
  7  9  2  0
  7 10  1  0
  8  9  1  0
  9 11  1  0
 10 14  2  0
 11 15  2  0
 14 15  1  0
M  END
>  <PUBCHEM_COMPOUND_CID>  (1) 
45846

>  <PUBCHEM_CONFORMER_RMSD>  (1) 
0.6

>  <PUBCHEM_CONFORMER_DIVERSEORDER>  (1) 
2
3
1
4

>  <PUBCHEM_MMFF94_PARTIAL_CHARGES>  (1) 
16
1 -0.18
10 -0.15
11 0.08
12 0.27
13 0.27
14 -0.15
15 0.18
16 0.28
2 -0.36
24 0.15
3 -0.81
31 0.15
4 0.41
7 -0.14
8 0.14
9 -0.14

>  <PUBCHEM_EFFECTIVE_ROTOR_COUNT>  (1) 
2.8

>  <PUBCHEM_PHARMACOPHORE_FEATURES>  (1) 
4
1 2 acceptor
1 3 cation
6 4 5 6 7 8 9 rings
6 7 9 10 11 14 15 rings

>  <PUBCHEM_HEAVY_ATOM_COUNT>  (1) 
16

>  <PUBCHEM_ATOM_DEF_STEREO_COUNT>  (1) 
0

>  <PUBCHEM_ATOM_UDEF_STEREO_COUNT>  (1) 
1

>  <PUBCHEM_BOND_DEF_STEREO_COUNT>  (1) 
0

>  <PUBCHEM_BOND_UDEF_STEREO_COUNT>  (1) 
0

>  <PUBCHEM_ISOTOPIC_ATOM_COUNT>  (1) 
0

>  <PUBCHEM_COMPONENT_COUNT>  (1) 
1

>  <PUBCHEM_CACTVS_TAUTO_COUNT>  (1) 
1

>  <PUBCHEM_CONFORMER_ID>  (1) 
0000B31600000002

>  <PUBCHEM_MMFF94_ENERGY>  (1) 
59.0285

>  <PUBCHEM_FEATURE_SELFOVERLAP>  (1) 
20.318

>  <PUBCHEM_SHAPE_FINGERPRINT>  (1) 
10967382 1 18194684756884115959
11086676 242 18188213074672514608
11132069 177 18339074883223265656
11578080 2 17460284790438566812
12202030 40 15502371244495955233
12251169 10 18410297973536801377
12382932 28 18341049597326893289
12423570 1 11022734321991175486
12696612 119 18409173224533423116
13140716 1 18411706478091971993
13172582 1 18337957791988541389
13221675 6 18333731304067801226
13583140 156 17458634367803589425
14144814 61 18409729581696181687
14178342 30 18271249300998562139
14993402 34 18408880720186269390
15076042 46 18270683185416749719
15309172 13 18338802191143432554
15375462 189 17967532333576173010
15442244 35 18411139159950685924
15536298 74 18341612689441717596
16945 1 18266178322858062741
17804303 29 18272090470406696134
192875 21 18270950336972856085
19422 9 18334581256478359934
200 152 18201427113168987487
20510252 161 18131072662125370379
20559304 39 18338234997899466318
20645477 70 18190454059779946463
21267235 1 18337399326429552022
21501502 16 18338806713971062933
21501925 9 18338226167314823862
22112679 90 18410579491389422940
22445834 79 18260259763603933106
2334 1 18339082704169035149
23388829 49 18268981154159631135
23402539 116 18201708570718116999
23419403 2 15895226856421637677
23463225 33 18408886251993246847
23552423 10 17901665191449361878
23557571 272 17060339634873813919
23598291 2 18260841409476121604
2748010 2 18411417319170517789
34934 24 18187638064530014696
427121 178 16626339155032646545
6992083 37 18409737226917738841
7364860 26 18196652019815817628
74978 22 18336262435231536830
90316 7 18117261585010801224

>  <PUBCHEM_SHAPE_MULTIPOLES>  (1) 
320.29
5.9
2.45
1.01
0.08
0.68
0.42
-1.42
1.17
-0.65
-0.15
0.18
0.07
-1.02

>  <PUBCHEM_SHAPE_SELFOVERLAP>  (1) 
663.741

>  <PUBCHEM_SHAPE_VOLUME>  (1) 
186.2

>  <PUBCHEM_COORDINATE_TYPE>  (1) 
2
5
10

$$$$
