45841
     RDKit          3D

 18 20  0  0  1  0  0  0  0  0999 V2000
   -5.4163   -1.0435   -0.7267 Cl  0  0  0  0  0  0  0  0  0  0  0  0
    0.0525    1.5164    2.0082 O   0  0  0  0  0  0  0  0  0  0  0  0
    1.0201    0.7264    0.0531 N   0  0  0  0  0  0  0  0  0  0  0  0
    3.0964   -1.2279   -0.0272 N   0  0  0  0  0  0  0  0  0  0  0  0
    2.3850    1.1461    0.3130 C   0  0  0  0  0  0  0  0  0  0  0  0
    1.1014   -0.1612   -1.0998 C   0  0  0  0  0  0  0  0  0  0  0  0
    2.8878    1.4936   -1.0950 C   0  0  0  0  0  0  0  0  0  0  0  0
    2.0337    0.6204   -2.0373 C   0  0  0  0  0  0  0  0  0  0  0  0
    3.1236   -0.0781    0.9007 C   0  0  0  0  0  0  0  0  0  0  0  0
    1.7574   -1.4711   -0.6032 C   0  0  0  0  0  0  0  0  0  0  0  0
   -0.0300    0.9470    0.9223 C   0  0  0  0  0  0  0  0  0  0  0  0
    3.6360   -2.4309    0.5967 C   0  0  0  0  0  0  0  0  0  0  0  0
   -1.3541    0.4574    0.5168 C   0  0  0  0  0  0  0  0  0  0  0  0
   -1.7534   -0.8302    0.8657 C   0  0  0  0  0  0  0  0  0  0  0  0
   -2.2036    1.2833   -0.2149 C   0  0  0  0  0  0  0  0  0  0  0  0
   -3.0108   -1.2952    0.4802 C   0  0  0  0  0  0  0  0  0  0  0  0
   -3.4610    0.8184   -0.6001 C   0  0  0  0  0  0  0  0  0  0  0  0
   -3.8646   -0.4709   -0.2527 C   0  0  0  0  0  0  0  0  0  0  0  0
  1 18  1  0
  2 11  2  0
  3  5  1  0
  3  6  1  0
  3 11  1  0
  4  9  1  0
  4 10  1  0
  4 12  1  0
  5  7  1  0
  5  9  1  0
  6  8  1  0
  6 10  1  0
  7  8  1  0
 11 13  1  0
 13 14  2  0
 13 15  1  0
 14 16  1  0
 15 17  2  0
 16 18  2  0
 17 18  1  0
M  END
>  <PUBCHEM_COMPOUND_CID>  (1) 
45841

>  <PUBCHEM_CONFORMER_RMSD>  (1) 
0.6

>  <PUBCHEM_CONFORMER_DIVERSEORDER>  (1) 
1
3
4
2

>  <PUBCHEM_MMFF94_PARTIAL_CHARGES>  (1) 
20
1 -0.18
10 0.27
11 0.54
12 0.27
13 0.09
14 -0.15
15 -0.15
16 -0.15
17 -0.15
18 0.18
2 -0.57
3 -0.66
32 0.15
33 0.15
34 0.15
35 0.15
4 -0.81
5 0.3
6 0.3
9 0.27

>  <PUBCHEM_EFFECTIVE_ROTOR_COUNT>  (1) 
3.2

>  <PUBCHEM_PHARMACOPHORE_FEATURES>  (1) 
4
1 2 acceptor
1 4 cation
6 13 14 15 16 17 18 rings
8 3 4 5 6 7 8 9 10 rings

>  <PUBCHEM_HEAVY_ATOM_COUNT>  (1) 
18

>  <PUBCHEM_ATOM_DEF_STEREO_COUNT>  (1) 
0

>  <PUBCHEM_ATOM_UDEF_STEREO_COUNT>  (1) 
2

>  <PUBCHEM_BOND_DEF_STEREO_COUNT>  (1) 
0

>  <PUBCHEM_BOND_UDEF_STEREO_COUNT>  (1) 
0

>  <PUBCHEM_ISOTOPIC_ATOM_COUNT>  (1) 
0

>  <PUBCHEM_COMPONENT_COUNT>  (1) 
1

>  <PUBCHEM_CACTVS_TAUTO_COUNT>  (1) 
1

>  <PUBCHEM_CONFORMER_ID>  (1) 
0000B31100000001

>  <PUBCHEM_MMFF94_ENERGY>  (1) 
59.5295

>  <PUBCHEM_FEATURE_SELFOVERLAP>  (1) 
20.297

>  <PUBCHEM_SHAPE_FINGERPRINT>  (1) 
10062212 137 18269547261394121163
10447042 23 18201704172513213895
10759866 29 18263369234148113342
11370993 70 18113613521067059235
12363563 72 17846221037924302347
12553582 1 16917348156181893629
12707595 3 17632581586525296569
13296908 3 16702032941381895861
13571099 22 18333452019250079074
13705890 14 18334011696280191136
14115302 16 18260830414612882155
14178342 30 16915953867789267715
14252887 29 16415204498252776581
14341114 328 12103547697980313775
14350558 41 18410014312484975538
16945 1 18266191693075502296
17834072 14 18271516486281416874
18186145 218 16081093679586051525
200 152 18202279191256008815
20279233 1 18341614862531418227
20281475 54 18341899619068975395
20361792 2 16917074351869171241
20369508 70 17988354966419060833
20626108 58 18335408028903241858
20645477 70 18187082862402391275
20671657 53 18188493454363928006
21069387 34 18261115114862196866
21501502 16 18339370677468291665
23402539 116 18260818289988959517
23557571 272 18113886174460700629
23559900 14 18260265274009667160
2637199 183 8069738646035772994
3082319 5 18113626702495426189
3286 77 18272360980279113605
347723 3 12396298111321625538
427121 178 13973677347756761486
474 4 15864920983129164101
5161694 15 16950568757174055827
5281201 14 17894347770189807591
633830 44 16298392336069022069
74978 22 15864364570041827897
76465 3 18339634551553030739
81228 2 16986331377868953145
9709674 26 18259989292354611843
9981440 41 16158231223424335164

>  <PUBCHEM_SHAPE_MULTIPOLES>  (1) 
356.47
8.17
1.9
1.42
7.7
0.69
-0.03
3.14
-1.76
-1.4
0.08
-0.58
-0.44
-0.47

>  <PUBCHEM_SHAPE_SELFOVERLAP>  (1) 
755.721

>  <PUBCHEM_SHAPE_VOLUME>  (1) 
202.3

>  <PUBCHEM_COORDINATE_TYPE>  (1) 
2
5
10

$$$$
