45858
     RDKit          3D

 17 18  0  0  1  0  0  0  0  0999 V2000
   -0.8841    2.9243   -0.5277 Cl  0  0  0  0  0  0  0  0  0  0  0  0
    3.5624   -0.7397    0.6367 O   0  0  0  0  0  0  0  0  0  0  0  0
   -2.1277    0.0585    0.5798 N   0  0  0  0  0  0  0  0  0  0  0  0
   -1.2190   -0.1452   -0.5547 C   0  0  0  0  0  0  0  0  0  0  0  0
   -1.1892   -1.6245   -0.9724 C   0  0  0  0  0  0  0  0  0  0  0  0
   -0.3480   -2.4627   -0.0158 C   0  0  0  0  0  0  0  0  0  0  0  0
    0.1633    0.3864   -0.2292 C   0  0  0  0  0  0  0  0  0  0  0  0
    1.0992   -1.9768   -0.0149 C   0  0  0  0  0  0  0  0  0  0  0  0
    1.2372   -0.4765    0.0638 C   0  0  0  0  0  0  0  0  0  0  0  0
   -3.4542   -0.4414    0.2645 C   0  0  0  0  0  0  0  0  0  0  0  0
    0.3699    1.7763   -0.1865 C   0  0  0  0  0  0  0  0  0  0  0  0
    2.4937    0.0678    0.3744 C   0  0  0  0  0  0  0  0  0  0  0  0
    1.6211    2.3027    0.1324 C   0  0  0  0  0  0  0  0  0  0  0  0
    2.6828    1.4487    0.4126 C   0  0  0  0  0  0  0  0  0  0  0  0
   -4.0120    0.2756   -0.9617 C   0  0  0  0  0  0  0  0  0  0  0  0
   -4.3675   -0.2540    1.4717 C   0  0  0  0  0  0  0  0  0  0  0  0
    4.3720   -1.1196   -0.4729 C   0  0  0  0  0  0  0  0  0  0  0  0
  1 11  1  0
  2 12  1  0
  2 17  1  0
  3  4  1  0
  3 10  1  0
  4  5  1  0
  4  7  1  0
  5  6  1  0
  6  8  1  0
  7  9  2  0
  7 11  1  0
  8  9  1  0
  9 12  1  0
 10 15  1  0
 10 16  1  0
 11 13  2  0
 12 14  2  0
 13 14  1  0
M  END
>  <PUBCHEM_COMPOUND_CID>  (1) 
45858

>  <PUBCHEM_CONFORMER_RMSD>  (1) 
0.6

>  <PUBCHEM_CONFORMER_DIVERSEORDER>  (1) 
1
2
4
3

>  <PUBCHEM_MMFF94_PARTIAL_CHARGES>  (1) 
16
1 -0.18
10 0.27
11 0.18
12 0.08
13 -0.15
14 -0.15
17 0.28
2 -0.36
25 0.36
27 0.15
28 0.15
3 -0.9
4 0.41
7 -0.14
8 0.14
9 -0.14

>  <PUBCHEM_EFFECTIVE_ROTOR_COUNT>  (1) 
3.8

>  <PUBCHEM_PHARMACOPHORE_FEATURES>  (1) 
6
1 2 acceptor
1 3 cation
1 3 donor
3 10 15 16 hydrophobe
6 4 5 6 7 8 9 rings
6 7 9 11 12 13 14 rings

>  <PUBCHEM_HEAVY_ATOM_COUNT>  (1) 
17

>  <PUBCHEM_ATOM_DEF_STEREO_COUNT>  (1) 
0

>  <PUBCHEM_ATOM_UDEF_STEREO_COUNT>  (1) 
1

>  <PUBCHEM_BOND_DEF_STEREO_COUNT>  (1) 
0

>  <PUBCHEM_BOND_UDEF_STEREO_COUNT>  (1) 
0

>  <PUBCHEM_ISOTOPIC_ATOM_COUNT>  (1) 
0

>  <PUBCHEM_COMPONENT_COUNT>  (1) 
1

>  <PUBCHEM_CACTVS_TAUTO_COUNT>  (1) 
1

>  <PUBCHEM_CONFORMER_ID>  (1) 
0000B32200000001

>  <PUBCHEM_MMFF94_ENERGY>  (1) 
46.5708

>  <PUBCHEM_FEATURE_SELFOVERLAP>  (1) 
30.466

>  <PUBCHEM_SHAPE_FINGERPRINT>  (1) 
10219947 1 18410291432391202273
104564 63 18266457603148851908
10967382 1 18338510949606464436
10980938 120 18337107981285438789
11132069 177 18271793644889873962
11471102 20 18410566305781691500
11471102 22 18335431161908055243
11578080 2 17343180170635262137
11680986 33 18193560188433134770
12011746 2 18337671923276085495
12236239 1 17704348879940235199
12382932 28 18194670703909638888
12553582 1 18410283697519430306
13140716 1 18339073921193056034
13172582 1 18412824715528861687
13221675 6 18410289203319246758
13380535 21 18120096340693088620
13862211 1 18339355280306194454
14178342 30 17763731492421385088
14790565 3 18338812147263467572
15309172 13 18412263947862152739
15375462 189 18114453509723164690
15442244 35 18341329014909001390
15848702 151 17631738170691095950
16752209 62 18265603308536789636
16945 1 18339066130095870638
17357779 13 18337379440430246221
18186145 218 18271528684072822967
18511873 20 18130790083157603866
193761 8 17690556390631603574
19591789 44 18267868285515841310
20028762 73 18201439246241641503
20510252 161 18271800169309414616
20511035 2 17913206752337573782
20645477 70 18336816567991639415
20739085 24 18263383471886013137
20871999 31 18267595619912512180
21029758 27 18261399931518545236
21501502 16 18124872619104174174
22094290 62 18340204205902545090
22182313 1 17983011159509095118
23184049 59 18412548734095007993
2334 1 18050561039161576118
23402539 116 18272358759380322582
23463225 33 18410008883498607332
23493267 7 17386558060081261229
23559900 14 18270967972784300404
2748010 2 18194677292489515742
57426455 70 18408889542085921051
59554788 170 18410017645638586468
6992083 37 18272087253233572471
7164475 11 17769923898943879839
77492 1 17775000241218339429
7832392 63 18197216073306600748

>  <PUBCHEM_SHAPE_MULTIPOLES>  (1) 
340.87
6.74
2.71
0.96
2
1
-0.08
-1.33
-1.19
-0.82
0.38
0.77
-0.06
0.33

>  <PUBCHEM_SHAPE_SELFOVERLAP>  (1) 
698.881

>  <PUBCHEM_SHAPE_VOLUME>  (1) 
198.6

>  <PUBCHEM_COORDINATE_TYPE>  (1) 
2
5
10

$$$$
