45868
     RDKit          3D

 19 20  0  0  0  0  0  0  0  0999 V2000
    3.5827    3.4560    0.5897 Cl  0  0  0  0  0  0  0  0  0  0  0  0
    2.6382   -2.2540   -2.1496 Cl  0  0  0  0  0  0  0  0  0  0  0  0
    0.4387    0.6168   -1.8564 O   0  0  0  0  0  0  0  0  0  0  0  0
   -1.7621   -1.0100    2.7325 O   0  0  0  0  0  0  0  0  0  0  0  0
    2.1164   -0.2593    0.1133 N   0  0  0  0  0  0  0  0  0  0  0  0
    0.7677   -0.2499    0.3269 C   0  0  0  0  0  0  0  0  0  0  0  0
    2.8450    0.9651   -0.1904 C   0  0  0  0  0  0  0  0  0  0  0  0
    2.9258   -1.4314    0.4191 C   0  0  0  0  0  0  0  0  0  0  0  0
   -1.5363    0.2753   -0.6288 C   0  0  0  0  0  0  0  0  0  0  0  0
   -0.0699    0.2437   -0.8043 C   0  0  0  0  0  0  0  0  0  0  0  0
   -2.1200   -0.1461    0.5663 C   0  0  0  0  0  0  0  0  0  0  0  0
    0.1831   -0.6487    1.4633 C   0  0  0  0  0  0  0  0  0  0  0  0
   -1.2787   -0.6311    1.6727 C   0  0  0  0  0  0  0  0  0  0  0  0
    2.7112    1.9494    0.9613 C   0  0  0  0  0  0  0  0  0  0  0  0
    2.4630   -2.6154   -0.4157 C   0  0  0  0  0  0  0  0  0  0  0  0
   -2.3468    0.7335   -1.6746 C   0  0  0  0  0  0  0  0  0  0  0  0
   -3.5108   -0.1099    0.7196 C   0  0  0  0  0  0  0  0  0  0  0  0
   -3.7332    0.7683   -1.5198 C   0  0  0  0  0  0  0  0  0  0  0  0
   -4.3140    0.3478   -0.3250 C   0  0  0  0  0  0  0  0  0  0  0  0
  1 14  1  0
  2 15  1  0
  3 10  2  0
  4 13  2  0
  5  6  1  0
  5  7  1  0
  5  8  1  0
  6 10  1  0
  6 12  2  0
  7 14  1  0
  8 15  1  0
  9 10  1  0
  9 11  2  0
  9 16  1  0
 11 13  1  0
 11 17  1  0
 12 13  1  0
 16 18  2  0
 17 19  2  0
 18 19  1  0
M  END
>  <PUBCHEM_COMPOUND_CID>  (1) 
45868

>  <PUBCHEM_CONFORMER_RMSD>  (1) 
0.6

>  <PUBCHEM_CONFORMER_DIVERSEORDER>  (1) 
1
5
10
18
15
22
24
16
17
23
21
7
6
19
20
14
3
9
2
12
11
8
13
4

>  <PUBCHEM_MMFF94_PARTIAL_CHARGES>  (1) 
24
1 -0.29
10 0.47
11 0.09
12 -0.14
13 0.47
14 0.29
15 0.29
16 -0.15
17 -0.15
18 -0.15
19 -0.15
2 -0.29
24 0.15
29 0.15
3 -0.57
30 0.15
31 0.15
32 0.15
4 -0.57
5 -0.84
6 0.11
7 0.37
8 0.37
9 0.09

>  <PUBCHEM_EFFECTIVE_ROTOR_COUNT>  (1) 
5

>  <PUBCHEM_PHARMACOPHORE_FEATURES>  (1) 
5
1 3 acceptor
1 4 acceptor
1 5 cation
6 6 9 10 11 12 13 rings
6 9 11 16 17 18 19 rings

>  <PUBCHEM_HEAVY_ATOM_COUNT>  (1) 
19

>  <PUBCHEM_ATOM_DEF_STEREO_COUNT>  (1) 
0

>  <PUBCHEM_ATOM_UDEF_STEREO_COUNT>  (1) 
0

>  <PUBCHEM_BOND_DEF_STEREO_COUNT>  (1) 
0

>  <PUBCHEM_BOND_UDEF_STEREO_COUNT>  (1) 
0

>  <PUBCHEM_ISOTOPIC_ATOM_COUNT>  (1) 
0

>  <PUBCHEM_COMPONENT_COUNT>  (1) 
1

>  <PUBCHEM_CACTVS_TAUTO_COUNT>  (1) 
1

>  <PUBCHEM_CONFORMER_ID>  (1) 
0000B32C00000001

>  <PUBCHEM_MMFF94_ENERGY>  (1) 
55.0766

>  <PUBCHEM_FEATURE_SELFOVERLAP>  (1) 
25.393

>  <PUBCHEM_SHAPE_FINGERPRINT>  (1) 
11132069 177 17240474823833328981
11543360 7 18200014244848026709
11582403 64 17104188183821345908
12236239 1 16988561286771951818
12363563 72 18051976914049724022
12788726 201 17186732615439494730
13134695 92 18266447725325191502
13140716 1 16373233790511474905
14178342 30 16733541753209213186
16752209 62 16515406240309343715
16945 1 18117827807681705907
17980427 23 17243288606895392476
1813 80 17415574120836662334
18186145 218 17895472514771721493
18915476 22 18340495538193248906
19765921 60 16985722497782856544
19786989 88 18342730853732457126
20559304 39 16056873594431287078
20600515 1 16877937256974407524
20645476 183 17274815904436069301
20645477 70 18343302552513447358
20671657 53 18056194661785584038
2255824 54 18060417997928017590
2334 1 16588857954924794059
23526113 38 18262520265306099314
23557571 272 17677629707301780907
23559900 14 17530962449959295830
23598291 2 17201663080995132138
2748010 2 17676784139973710059
3286 77 18116425956004899262
4072396 5 15286179741316137773
474 4 18200021988474198936
495365 180 18338505422120685248
6049 1 17968962836436790986
633830 44 17486524695533288584
7615 1 17131841923414363523
77492 1 17132112433471487819
81228 2 17096382781299295699
8272917 22 18202284688713875596
84936 31 18343018904562561094
88987 49 16732989746901214946
90316 7 15266491817094532811

>  <PUBCHEM_SHAPE_MULTIPOLES>  (1) 
378.03
6.97
2.56
2.04
2.99
0.78
-0.45
2.02
1.26
-5.53
0.55
1.24
-0.53
0.96

>  <PUBCHEM_SHAPE_SELFOVERLAP>  (1) 
783.668

>  <PUBCHEM_SHAPE_VOLUME>  (1) 
219.8

>  <PUBCHEM_COORDINATE_TYPE>  (1) 
2
5
10

$$$$
