45864
     RDKit          3D

 15 16  0  0  1  0  0  0  0  0999 V2000
   -4.2252    1.0122    0.1563 Cl  0  0  0  0  0  0  0  0  0  0  0  0
   -2.8123   -1.5888    0.4750 O   0  0  0  0  0  0  0  0  0  0  0  0
    2.5657    1.1329    0.0692 N   0  0  0  0  0  0  0  0  0  0  0  0
    1.7283    0.0982   -0.5473 C   0  0  0  0  0  0  0  0  0  0  0  0
    2.2238   -1.2549   -0.0116 C   0  0  0  0  0  0  0  0  0  0  0  0
    1.2893   -2.3780   -0.4378 C   0  0  0  0  0  0  0  0  0  0  0  0
    0.2354    0.3094   -0.3421 C   0  0  0  0  0  0  0  0  0  0  0  0
   -0.0876   -2.1670    0.1818 C   0  0  0  0  0  0  0  0  0  0  0  0
   -0.6164   -0.7696   -0.0260 C   0  0  0  0  0  0  0  0  0  0  0  0
   -0.3375    1.5775   -0.5501 C   0  0  0  0  0  0  0  0  0  0  0  0
   -1.9935   -0.5459    0.1410 C   0  0  0  0  0  0  0  0  0  0  0  0
    3.9781    0.8529   -0.1757 C   0  0  0  0  0  0  0  0  0  0  0  0
    2.2971    1.2134    1.5026 C   0  0  0  0  0  0  0  0  0  0  0  0
   -1.7092    1.7837   -0.3942 C   0  0  0  0  0  0  0  0  0  0  0  0
   -2.5360    0.7239   -0.0412 C   0  0  0  0  0  0  0  0  0  0  0  0
  1 15  1  0
  2 11  1  0
  3  4  1  0
  3 12  1  0
  3 13  1  0
  4  5  1  0
  4  7  1  0
  5  6  1  0
  6  8  1  0
  7  9  2  0
  7 10  1  0
  8  9  1  0
  9 11  1  0
 10 14  2  0
 11 15  2  0
 14 15  1  0
M  END
>  <PUBCHEM_COMPOUND_CID>  (1) 
45864

>  <PUBCHEM_CONFORMER_RMSD>  (1) 
0.6

>  <PUBCHEM_CONFORMER_DIVERSEORDER>  (1) 
1
2

>  <PUBCHEM_MMFF94_PARTIAL_CHARGES>  (1) 
16
1 -0.18
10 -0.15
11 0.08
12 0.27
13 0.27
14 -0.15
15 0.18
2 -0.53
23 0.15
3 -0.81
30 0.15
31 0.45
4 0.41
7 -0.14
8 0.14
9 -0.14

>  <PUBCHEM_EFFECTIVE_ROTOR_COUNT>  (1) 
1.8

>  <PUBCHEM_PHARMACOPHORE_FEATURES>  (1) 
4
1 2 donor
1 3 cation
6 4 5 6 7 8 9 rings
6 7 9 10 11 14 15 rings

>  <PUBCHEM_HEAVY_ATOM_COUNT>  (1) 
15

>  <PUBCHEM_ATOM_DEF_STEREO_COUNT>  (1) 
0

>  <PUBCHEM_ATOM_UDEF_STEREO_COUNT>  (1) 
1

>  <PUBCHEM_BOND_DEF_STEREO_COUNT>  (1) 
0

>  <PUBCHEM_BOND_UDEF_STEREO_COUNT>  (1) 
0

>  <PUBCHEM_ISOTOPIC_ATOM_COUNT>  (1) 
0

>  <PUBCHEM_COMPONENT_COUNT>  (1) 
1

>  <PUBCHEM_CACTVS_TAUTO_COUNT>  (1) 
3

>  <PUBCHEM_CONFORMER_ID>  (1) 
0000B32800000001

>  <PUBCHEM_MMFF94_ENERGY>  (1) 
46.2435

>  <PUBCHEM_FEATURE_SELFOVERLAP>  (1) 
20.318

>  <PUBCHEM_SHAPE_FINGERPRINT>  (1) 
10608611 8 18264768766379237765
10967382 1 18337392638753638741
11132069 177 18335136509660658097
11471102 20 18339358552933649925
11680986 33 18336554811014969363
12382932 28 18407761447551036537
12524768 44 18263927644320979007
13140716 1 18335987458910091035
13380535 21 18339370677293848063
13380535 76 18409165502219310422
13897977 150 18410853244199408709
14178342 30 18408884066266401907
15219456 202 18410578353196605159
15309172 13 18409456911418382121
15536298 74 18341896238381171671
15775835 57 18343022185521981484
15852999 172 17898256495081727727
161256 15 18191872219067299941
16945 1 18194960966125491534
17804303 29 18119813512780886038
20510252 161 18270405025959963840
20588541 1 18409732841660989237
20645477 70 18197772207574087853
20871998 184 18265900335421202559
21501502 16 18339074895818199071
21524375 3 18413384345778849630
2334 1 18409168835172064887
23388829 49 18122619724221521623
23402539 116 18268138928263252358
23463225 33 18260545619557691524
23493267 7 17894636988818505490
23559900 14 18201163243812141356
25 1 18272089370652403692
2748010 2 18408893923079494919
43471831 8 18333445456672367970
449060 62 18340771451145178157
5104073 3 18336552603928917569
528886 8 18409165515067074649
53812653 166 18341895194783259432
6333449 129 18411134774899943941
7364860 26 18198905807956813398
81228 2 17549523554882525730

>  <PUBCHEM_SHAPE_MULTIPOLES>  (1) 
299.71
5.74
2.33
0.85
1.59
1.04
0.19
-2.16
0.52
-0.35
0
-0.32
-0.21
0.54

>  <PUBCHEM_SHAPE_SELFOVERLAP>  (1) 
623.811

>  <PUBCHEM_SHAPE_VOLUME>  (1) 
172.7

>  <PUBCHEM_COORDINATE_TYPE>  (1) 
2
5
10

$$$$
