45887
     RDKit          3D

 18 19  0  0  1  0  0  0  0  0999 V2000
   -1.8242    3.5862    0.2380 Cl  0  0  0  0  0  0  0  0  0  0  0  0
   -0.4679   -2.0978   -0.4011 O   0  0  0  0  0  0  0  0  0  0  0  0
   -3.0730   -1.2819   -0.1358 O   0  0  0  0  0  0  0  0  0  0  0  0
    2.1059   -1.4674    0.4359 N   0  0  0  0  0  0  0  0  0  0  0  0
    1.7564   -0.2857   -0.3599 C   0  0  0  0  0  0  0  0  0  0  0  0
    2.7781    0.8076   -0.0078 C   0  0  0  0  0  0  0  0  0  0  0  0
    0.3144    0.1691   -0.1892 C   0  0  0  0  0  0  0  0  0  0  0  0
    2.3816    2.1366   -0.6347 C   0  0  0  0  0  0  0  0  0  0  0  0
    1.0543    2.6073   -0.0507 C   0  0  0  0  0  0  0  0  0  0  0  0
   -0.0088    1.5373   -0.0722 C   0  0  0  0  0  0  0  0  0  0  0  0
   -0.7354   -0.7667   -0.2316 C   0  0  0  0  0  0  0  0  0  0  0  0
   -1.3511    1.9278    0.0676 C   0  0  0  0  0  0  0  0  0  0  0  0
   -2.0659   -0.3644   -0.1049 C   0  0  0  0  0  0  0  0  0  0  0  0
    1.9163   -1.1931    1.8576 C   0  0  0  0  0  0  0  0  0  0  0  0
    3.4843   -1.8678    0.1669 C   0  0  0  0  0  0  0  0  0  0  0  0
   -2.3733    0.9818    0.0521 C   0  0  0  0  0  0  0  0  0  0  0  0
   -0.4201   -2.5795   -1.7407 C   0  0  0  0  0  0  0  0  0  0  0  0
   -3.4717   -1.8495    1.1105 C   0  0  0  0  0  0  0  0  0  0  0  0
  1 12  1  0
  2 11  1  0
  2 17  1  0
  3 13  1  0
  3 18  1  0
  4  5  1  0
  4 14  1  0
  4 15  1  0
  5  6  1  0
  5  7  1  0
  6  8  1  0
  7 10  2  0
  7 11  1  0
  8  9  1  0
  9 10  1  0
 10 12  1  0
 11 13  2  0
 12 16  2  0
 13 16  1  0
M  END
>  <PUBCHEM_COMPOUND_CID>  (1) 
45887

>  <PUBCHEM_CONFORMER_RMSD>  (1) 
0.6

>  <PUBCHEM_CONFORMER_DIVERSEORDER>  (1) 
1
3
5
6
2
4

>  <PUBCHEM_MMFF94_PARTIAL_CHARGES>  (1) 
17
1 -0.18
10 -0.14
11 0.08
12 0.18
13 0.08
14 0.27
15 0.27
16 -0.15
17 0.28
18 0.28
2 -0.36
3 -0.36
32 0.15
4 -0.81
5 0.41
7 -0.14
9 0.14

>  <PUBCHEM_EFFECTIVE_ROTOR_COUNT>  (1) 
3.8

>  <PUBCHEM_PHARMACOPHORE_FEATURES>  (1) 
5
1 2 acceptor
1 3 acceptor
1 4 cation
6 5 6 7 8 9 10 rings
6 7 10 11 12 13 16 rings

>  <PUBCHEM_HEAVY_ATOM_COUNT>  (1) 
18

>  <PUBCHEM_ATOM_DEF_STEREO_COUNT>  (1) 
0

>  <PUBCHEM_ATOM_UDEF_STEREO_COUNT>  (1) 
1

>  <PUBCHEM_BOND_DEF_STEREO_COUNT>  (1) 
0

>  <PUBCHEM_BOND_UDEF_STEREO_COUNT>  (1) 
0

>  <PUBCHEM_ISOTOPIC_ATOM_COUNT>  (1) 
0

>  <PUBCHEM_COMPONENT_COUNT>  (1) 
1

>  <PUBCHEM_CACTVS_TAUTO_COUNT>  (1) 
1

>  <PUBCHEM_CONFORMER_ID>  (1) 
0000B33F00000001

>  <PUBCHEM_MMFF94_ENERGY>  (1) 
76.3042

>  <PUBCHEM_FEATURE_SELFOVERLAP>  (1) 
25.397

>  <PUBCHEM_SHAPE_FINGERPRINT>  (1) 
10967382 1 18122627424733892804
10980938 120 18193556902767244427
11680986 33 18409719656079917384
12382932 28 17834393415045214496
12553582 1 18196368345372544967
13140716 1 18412268311533205521
13221675 6 18194968662796569742
13380535 76 17836640829997743461
14223421 5 18334857250781362865
14251711 518 18195238038924325622
14787075 74 17536885742109558987
14790565 3 17760670430876299197
15076042 46 18411978031456468519
15490181 8 18124596375508510317
16945 1 18196650911339734932
193761 8 18410013217068322708
19591789 44 17688882246844992510
20511035 2 18198047102202204900
20559304 39 18337107972880029600
20645477 70 18263637532434451271
20739085 24 18122657013486223289
20871998 184 18271519784747851854
20905425 154 18411989086955821100
21501502 16 18409453561391649685
22112679 90 17912064351145579742
23184049 29 18335980887309135672
2334 1 18411982459562833364
23388829 49 18121473981713386456
23419403 2 16105484206128162044
23463225 33 18410013221399706613
2748010 2 18341046311708755380
34934 24 18124591144106137157
352729 6 18268994189696903005
58807428 26 17328295845247913537
7364860 26 18339641247854989832
81228 2 17976792338494806712
90525 40 18343303651887801782

>  <PUBCHEM_SHAPE_MULTIPOLES>  (1) 
355.58
4.77
3.76
1.11
0.32
1.69
0.13
-1.53
1.09
-1.29
-0.37
0.2
-0.8
-0.32

>  <PUBCHEM_SHAPE_SELFOVERLAP>  (1) 
735.357

>  <PUBCHEM_SHAPE_VOLUME>  (1) 
206.7

>  <PUBCHEM_COORDINATE_TYPE>  (1) 
2
5
10

$$$$
