45889
     RDKit          3D

 17 18  0  0  1  0  0  0  0  0999 V2000
   -0.7401    3.7658    0.4880 Cl  0  0  0  0  0  0  0  0  0  0  0  0
   -0.8890   -2.0543   -0.3319 O   0  0  0  0  0  0  0  0  0  0  0  0
   -3.1781   -0.6369    0.2062 O   0  0  0  0  0  0  0  0  0  0  0  0
    2.0556   -1.6392    0.6982 N   0  0  0  0  0  0  0  0  0  0  0  0
    1.6829   -0.8562   -0.4859 C   0  0  0  0  0  0  0  0  0  0  0  0
    2.8551    0.0234   -0.9508 C   0  0  0  0  0  0  0  0  0  0  0  0
    3.0228    1.2525   -0.0639 C   0  0  0  0  0  0  0  0  0  0  0  0
    0.4310   -0.0454   -0.2131 C   0  0  0  0  0  0  0  0  0  0  0  0
    1.7704    2.1235   -0.1198 C   0  0  0  0  0  0  0  0  0  0  0  0
    0.4829    1.3462   -0.0011 C   0  0  0  0  0  0  0  0  0  0  0  0
   -0.8086   -0.7042   -0.1372 C   0  0  0  0  0  0  0  0  0  0  0  0
   -0.7042    2.0477    0.2635 C   0  0  0  0  0  0  0  0  0  0  0  0
   -1.9782    0.0043    0.1354 C   0  0  0  0  0  0  0  0  0  0  0  0
   -1.9261    1.3799    0.3355 C   0  0  0  0  0  0  0  0  0  0  0  0
    3.2489   -2.4240    0.4344 C   0  0  0  0  0  0  0  0  0  0  0  0
   -1.4016   -2.8310    0.7464 C   0  0  0  0  0  0  0  0  0  0  0  0
   -3.9238   -0.7521   -1.0040 C   0  0  0  0  0  0  0  0  0  0  0  0
  1 12  1  0
  2 11  1  0
  2 16  1  0
  3 13  1  0
  3 17  1  0
  4  5  1  0
  4 15  1  0
  5  6  1  0
  5  8  1  0
  6  7  1  0
  7  9  1  0
  8 10  2  0
  8 11  1  0
  9 10  1  0
 10 12  1  0
 11 13  2  0
 12 14  2  0
 13 14  1  0
M  END
>  <PUBCHEM_COMPOUND_CID>  (1) 
45889

>  <PUBCHEM_CONFORMER_RMSD>  (1) 
0.6

>  <PUBCHEM_CONFORMER_DIVERSEORDER>  (1) 
4
5
6
3
7
11
10
1
9
8
2

>  <PUBCHEM_MMFF94_PARTIAL_CHARGES>  (1) 
17
1 -0.18
10 -0.14
11 0.08
12 0.18
13 0.08
14 -0.15
15 0.27
16 0.28
17 0.28
2 -0.36
25 0.36
26 0.15
3 -0.36
4 -0.9
5 0.41
8 -0.14
9 0.14

>  <PUBCHEM_EFFECTIVE_ROTOR_COUNT>  (1) 
3.8

>  <PUBCHEM_PHARMACOPHORE_FEATURES>  (1) 
6
1 2 acceptor
1 3 acceptor
1 4 cation
1 4 donor
6 5 6 7 8 9 10 rings
6 8 10 11 12 13 14 rings

>  <PUBCHEM_HEAVY_ATOM_COUNT>  (1) 
17

>  <PUBCHEM_ATOM_DEF_STEREO_COUNT>  (1) 
0

>  <PUBCHEM_ATOM_UDEF_STEREO_COUNT>  (1) 
1

>  <PUBCHEM_BOND_DEF_STEREO_COUNT>  (1) 
0

>  <PUBCHEM_BOND_UDEF_STEREO_COUNT>  (1) 
0

>  <PUBCHEM_ISOTOPIC_ATOM_COUNT>  (1) 
0

>  <PUBCHEM_COMPONENT_COUNT>  (1) 
1

>  <PUBCHEM_CACTVS_TAUTO_COUNT>  (1) 
1

>  <PUBCHEM_CONFORMER_ID>  (1) 
0000B34100000004

>  <PUBCHEM_MMFF94_ENERGY>  (1) 
62.3794

>  <PUBCHEM_FEATURE_SELFOVERLAP>  (1) 
30.472

>  <PUBCHEM_SHAPE_FINGERPRINT>  (1) 
10967382 1 18339082712669149340
11680986 33 18336829800490881866
12382932 28 18268432519411055776
12423570 1 17604425331194472597
12553582 1 18411710888769806882
13140716 1 17764028369240678393
14178342 30 17910674585559219297
1420 336 18265901250375941114
14648413 74 17834674181763816833
15442244 35 18266180517929144690
16945 1 18336553810203069940
193761 8 18339082566819940628
20510252 161 18199750245750540576
20559304 39 18410009914686527138
20588541 1 18265331896710644997
21501502 16 18339647724365362112
21524375 3 17542796308773026569
23184049 29 18339643317818405372
2334 1 18411985754103462105
23388829 49 18120364359352943403
23402539 116 18272645757642576541
23419403 2 15597426009160911661
23558518 356 18264494975040718048
23559900 14 18410852196543938494
2748010 2 18411703158103409477
3312278 4 18264214788496225726
34934 24 18269832176122320588
57005193 9 18337662130908776022
7364860 26 18342170081549091994
81228 2 18342189850877769904

>  <PUBCHEM_SHAPE_MULTIPOLES>  (1) 
335
5.02
3.7
0.84
0.29
1.43
0.06
-2.2
0.79
0.11
-1
0.06
-0.16
-0.56

>  <PUBCHEM_SHAPE_SELFOVERLAP>  (1) 
692.309

>  <PUBCHEM_SHAPE_VOLUME>  (1) 
194.6

>  <PUBCHEM_COORDINATE_TYPE>  (1) 
2
5
10

$$$$
