45883
     RDKit          3D

 20 21  0  0  1  0  0  0  0  0999 V2000
   -3.8608    1.1036    0.4567 O   0  0  0  0  0  0  0  0  0  0  0  0
    2.1198    0.9659   -1.6465 O   0  0  0  0  0  0  0  0  0  0  0  0
    1.3918   -1.6393   -0.7711 N   0  0  0  0  0  0  0  0  0  0  0  0
    0.4269   -1.3915    0.3057 C   0  0  0  0  0  0  0  0  0  0  0  0
   -0.4328   -2.6593    0.4352 C   0  0  0  0  0  0  0  0  0  0  0  0
   -0.3997   -0.1281    0.1154 C   0  0  0  0  0  0  0  0  0  0  0  0
   -1.5928   -2.4275    1.3929 C   0  0  0  0  0  0  0  0  0  0  0  0
   -2.5194   -1.3550    0.8315 C   0  0  0  0  0  0  0  0  0  0  0  0
   -1.7827   -0.1139    0.3926 C   0  0  0  0  0  0  0  0  0  0  0  0
    0.2215    1.0771   -0.2605 C   0  0  0  0  0  0  0  0  0  0  0  0
   -2.5162    1.0723    0.2232 C   0  0  0  0  0  0  0  0  0  0  0  0
   -0.5165    2.2520   -0.4124 C   0  0  0  0  0  0  0  0  0  0  0  0
   -1.8863    2.2480   -0.1779 C   0  0  0  0  0  0  0  0  0  0  0  0
    0.6980   -1.7781   -2.0483 C   0  0  0  0  0  0  0  0  0  0  0  0
    2.1788   -2.8340   -0.4783 C   0  0  0  0  0  0  0  0  0  0  0  0
    1.6590    1.1637   -0.5063 C   0  0  0  0  0  0  0  0  0  0  0  0
    2.6130    1.5024    0.6511 C   0  0  0  0  0  0  0  0  0  0  0  0
    4.0076    0.8995    0.4812 C   0  0  0  0  0  0  0  0  0  0  0  0
   -4.7149    0.8106   -0.6458 C   0  0  0  0  0  0  0  0  0  0  0  0
    4.9059    1.2317    1.6616 C   0  0  0  0  0  0  0  0  0  0  0  0
  1 11  1  0
  1 19  1  0
  2 16  2  0
  3  4  1  0
  3 14  1  0
  3 15  1  0
  4  5  1  0
  4  6  1  0
  5  7  1  0
  6  9  2  0
  6 10  1  0
  7  8  1  0
  8  9  1  0
  9 11  1  0
 10 12  2  0
 10 16  1  0
 11 13  2  0
 12 13  1  0
 16 17  1  0
 17 18  1  0
 18 20  1  0
M  END
>  <PUBCHEM_COMPOUND_CID>  (1) 
45883

>  <PUBCHEM_CONFORMER_RMSD>  (1) 
0.8

>  <PUBCHEM_CONFORMER_DIVERSEORDER>  (1) 
1
5
4
7
3
8
9
6
2

>  <PUBCHEM_MMFF94_PARTIAL_CHARGES>  (1) 
18
1 -0.36
10 0.09
11 0.08
12 -0.15
13 -0.15
14 0.27
15 0.27
16 0.42
17 0.06
19 0.28
2 -0.57
28 0.15
29 0.15
3 -0.81
4 0.41
6 -0.14
8 0.14
9 -0.14

>  <PUBCHEM_EFFECTIVE_ROTOR_COUNT>  (1) 
5.8

>  <PUBCHEM_PHARMACOPHORE_FEATURES>  (1) 
6
1 1 acceptor
1 2 acceptor
1 20 hydrophobe
1 3 cation
6 4 5 6 7 8 9 rings
6 6 9 10 11 12 13 rings

>  <PUBCHEM_HEAVY_ATOM_COUNT>  (1) 
20

>  <PUBCHEM_ATOM_DEF_STEREO_COUNT>  (1) 
0

>  <PUBCHEM_ATOM_UDEF_STEREO_COUNT>  (1) 
1

>  <PUBCHEM_BOND_DEF_STEREO_COUNT>  (1) 
0

>  <PUBCHEM_BOND_UDEF_STEREO_COUNT>  (1) 
0

>  <PUBCHEM_ISOTOPIC_ATOM_COUNT>  (1) 
0

>  <PUBCHEM_COMPONENT_COUNT>  (1) 
1

>  <PUBCHEM_CACTVS_TAUTO_COUNT>  (1) 
2

>  <PUBCHEM_CONFORMER_ID>  (1) 
0000B33B00000001

>  <PUBCHEM_MMFF94_ENERGY>  (1) 
71.6733

>  <PUBCHEM_FEATURE_SELFOVERLAP>  (1) 
30.466

>  <PUBCHEM_SHAPE_FINGERPRINT>  (1) 
108231 29 17690568485476014214
10906281 52 18337122232240738701
10967382 1 18263374615726031151
1100329 8 17261882044511774512
11132069 177 18409451409586563321
11680986 33 18336839605837869650
12011746 2 18336830780244390542
13004483 165 16835690941160355590
13140716 1 18194691594868248961
13380535 76 18410011044057061305
13544592 271 18411701023520071985
14178342 30 18340503243364708265
14420673 8 18263352600584041962
15536298 74 18269839718285553677
15848702 105 12175629507523592600
15852999 172 18410858767406038501
16945 1 18048895270429264979
17349148 13 18334848463610643085
1813 80 15864064331160090178
19930374 2 18197504136678864342
20691752 17 17678753236735023697
20871998 184 18267586995106660272
20905425 154 18339374006036304166
21452121 103 18339640015046843625
21524375 3 18342731936001120080
22182313 1 18337128812267448547
2334 1 18263662769556547107
23402539 116 18337940298971834349
23419403 2 16447815828454774367
23558518 356 18195536883060589201
23559900 14 18263376819313760494
2748010 2 18263950815812160555
34934 24 18201146681874935653
352729 6 18265063594319789141
42630746 31 18410012092540914353
4340502 62 18409450272148087169
495365 180 17917146100446632064
58807428 26 18333731299350822050
59554788 191 18118681256375141037
59755656 215 18337952285930178004
7364860 26 18199750237018031452
84936 31 17273974640908056110
9862522 239 18341601668365556650

>  <PUBCHEM_SHAPE_MULTIPOLES>  (1) 
394.87
6.62
3.24
1.35
1.74
1.77
0.3
-3.9
-2.11
0.08
0.06
0.75
0.46
1.35

>  <PUBCHEM_SHAPE_SELFOVERLAP>  (1) 
820.162

>  <PUBCHEM_SHAPE_VOLUME>  (1) 
225.7

>  <PUBCHEM_COORDINATE_TYPE>  (1) 
2
5
10

$$$$
