45891
     RDKit          3D

 27 28  0  0  1  0  0  0  0  0999 V2000
    7.1156    1.2353    1.4881 Cl  0  0  0  0  0  0  0  0  0  0  0  0
    1.8545    1.4539   -1.1349 O   0  0  0  0  0  0  0  0  0  0  0  0
    6.6269   -1.5812    1.0317 N   0  0  0  0  0  0  0  0  0  0  0  0
    6.0017   -1.1227   -0.2136 C   0  0  0  0  0  0  0  0  0  0  0  0
    5.2535   -2.3271   -0.8074 C   0  0  0  0  0  0  0  0  0  0  0  0
    4.4062   -1.9014   -1.9979 C   0  0  0  0  0  0  0  0  0  0  0  0
    5.1171    0.1039   -0.0445 C   0  0  0  0  0  0  0  0  0  0  0  0
    3.3259   -0.9277   -1.5407 C   0  0  0  0  0  0  0  0  0  0  0  0
    3.8699    0.1980   -0.6967 C   0  0  0  0  0  0  0  0  0  0  0  0
    3.0828    1.3506   -0.5345 C   0  0  0  0  0  0  0  0  0  0  0  0
    5.5693    1.2083    0.7006 C   0  0  0  0  0  0  0  0  0  0  0  0
    5.6038   -1.8756    2.0313 C   0  0  0  0  0  0  0  0  0  0  0  0
    7.4543   -2.7572    0.7778 C   0  0  0  0  0  0  0  0  0  0  0  0
    3.5371    2.4212    0.2318 C   0  0  0  0  0  0  0  0  0  0  0  0
   -4.2482    0.6948    0.1824 C   0  0  0  0  0  0  0  0  0  0  0  0
   -2.9751    0.5406   -0.6559 C   0  0  0  0  0  0  0  0  0  0  0  0
   -5.4821    0.0672   -0.4702 C   0  0  0  0  0  0  0  0  0  0  0  0
    4.7834    2.3530    0.8429 C   0  0  0  0  0  0  0  0  0  0  0  0
   -1.7451    1.1892   -0.0157 C   0  0  0  0  0  0  0  0  0  0  0  0
   -6.7585    0.2320    0.3619 C   0  0  0  0  0  0  0  0  0  0  0  0
   -0.5087    1.0299   -0.9070 C   0  0  0  0  0  0  0  0  0  0  0  0
    0.7365    1.6449   -0.2799 C   0  0  0  0  0  0  0  0  0  0  0  0
   -8.0136   -0.4513   -0.1930 C   0  0  0  0  0  0  0  0  0  0  0  0
   -9.2663   -0.2005    0.6503 C   0  0  0  0  0  0  0  0  0  0  0  0
  -10.5362   -0.8102    0.0475 C   0  0  0  0  0  0  0  0  0  0  0  0
  -11.7944   -0.5393    0.8732 C   0  0  0  0  0  0  0  0  0  0  0  0
  -13.0103   -1.2287    0.2724 C   0  0  0  0  0  0  0  0  0  0  0  0
  1 11  1  0
  2 10  1  0
  2 22  1  0
  3  4  1  0
  3 12  1  0
  3 13  1  0
  4  5  1  0
  4  7  1  0
  5  6  1  0
  6  8  1  0
  7  9  2  0
  7 11  1  0
  8  9  1  0
  9 10  1  0
 10 14  2  0
 11 18  2  0
 14 18  1  0
 15 16  1  0
 15 17  1  0
 16 19  1  0
 17 20  1  0
 19 21  1  0
 20 23  1  0
 21 22  1  0
 23 24  1  0
 24 25  1  0
 25 26  1  0
 26 27  1  0
M  END
>  <PUBCHEM_COMPOUND_CID>  (1) 
45891

>  <PUBCHEM_CONFORMER_RMSD>  (1) 
1.2

>  <PUBCHEM_CONFORMER_DIVERSEORDER>  (1) 
1
190
164
122
160
65
196
8
181
17
87
20
132
139
141
134
146
35
169
171
67
123
29
73
111
16
54
6
175
108
11
136
124
23
117
189
58
138
88
94
99
70
216
217
172
210
200
208
89
18
179
95
145
103
5
42
4
130
153
154
205
33
202
102
170
75
218
186
28
24
207
105
97
126
180
195
7
61
56
159
142
76
147
50
161
157
125
106
127
107
40
149
115
91
128
78
22
133
86
31
110
14
174
203
198
34
168
44
66
80
69
165
204
184
19
30
60
135
68
3
155
32
36
144
72
182
183
64
167
151
191
113
140
21
38
63
104
79
27
206
211
13
81
152
100
120
53
213
85
10
194
114
214
192
77
176
187
37
197
96
15
177
12
57
162
83
209
166
45
46
150
112
39
49
129
215
62
212
143
98
188
41
178
43
137
26
201
173
221
101
109
52
219
121
59
163
93
220
74
193
82
2
90
119
118
51
92
25
71
47
199
131
116
148
158
48
9
185
84
55
156

>  <PUBCHEM_MMFF94_PARTIAL_CHARGES>  (1) 
16
1 -0.18
10 0.08
11 0.18
12 0.27
13 0.27
14 -0.15
18 -0.15
2 -0.36
22 0.28
3 -0.81
4 0.41
45 0.15
50 0.15
7 -0.14
8 0.14
9 -0.14

>  <PUBCHEM_EFFECTIVE_ROTOR_COUNT>  (1) 
13.8

>  <PUBCHEM_PHARMACOPHORE_FEATURES>  (1) 
5
1 2 acceptor
1 27 hydrophobe
1 3 cation
6 4 5 6 7 8 9 rings
6 7 9 10 11 14 18 rings

>  <PUBCHEM_HEAVY_ATOM_COUNT>  (1) 
27

>  <PUBCHEM_ATOM_DEF_STEREO_COUNT>  (1) 
0

>  <PUBCHEM_ATOM_UDEF_STEREO_COUNT>  (1) 
1

>  <PUBCHEM_BOND_DEF_STEREO_COUNT>  (1) 
0

>  <PUBCHEM_BOND_UDEF_STEREO_COUNT>  (1) 
0

>  <PUBCHEM_ISOTOPIC_ATOM_COUNT>  (1) 
0

>  <PUBCHEM_COMPONENT_COUNT>  (1) 
1

>  <PUBCHEM_CACTVS_TAUTO_COUNT>  (1) 
1

>  <PUBCHEM_CONFORMER_ID>  (1) 
0000B34300000001

>  <PUBCHEM_MMFF94_ENERGY>  (1) 
57.9864

>  <PUBCHEM_FEATURE_SELFOVERLAP>  (1) 
25.392

>  <PUBCHEM_SHAPE_FINGERPRINT>  (1) 
10168742 298 16877670063634653843
10666366 153 17676201361005401669
11211813 74 9583517616542498339
11607047 141 13901635087495723348
11607047 191 13191484871274909740
11638347 137 18408041823691417449
12089408 11 10881394358501510785
12559415 86 14129328557246940343
13617811 41 16443063893949841693
14026016 60 15936681571731025451
14202775 3 18041286574022454947
14216079 64 18259987067940944749
14344974 52 10519982670206281781
14400156 188 18340206277201239338
14428016 248 8574438630625108375
14537116 161 11602822397514519774
14617042 71 11167935875528187451
15183329 4 13623531220997179420
15475509 35 17968927584526880626
15510794 2 18334293168106724869
1754911 235 7925913661206569281
19301679 30 18340769251811329388
1979834 28 17346313749136251550
2026 5 18187922816641210059
20578428 11 18187373173050113428
21026386 10 17914343386313579422
21102433 48 18272086150799296751
21344244 78 17632571622708040440
21362267 2 10951766327831142427
21362267 313 16988015895293481729
21781051 124 16370740231088454281
21895431 317 18334292034193842875
221357 26 11241965967687664134
22149856 69 15626224624021686389
232437 2 18408042932272936787
437795 160 15267053788707527205
439807 62 18040156210172376563
465052 167 18339916006283545494
5104073 3 18200867367414728008
57676310 18 11095893670274276571
57828716 42 18336828595240887906
59520757 100 16154000161468355571
59521099 67 13984660374128916974
59521120 56 16588577601325146861
59682541 52 11963387419597752184
6438161 24 18040434391262228735
9937071 3 18335707161619271019

>  <PUBCHEM_SHAPE_MULTIPOLES>  (1) 
546.67
40.7
2.52
1.4
169.1
0.47
0.06
21.33
14.65
-7.15
0.24
-2.69
0.56
0.71

>  <PUBCHEM_SHAPE_SELFOVERLAP>  (1) 
1078.063

>  <PUBCHEM_SHAPE_VOLUME>  (1) 
327.2

>  <PUBCHEM_COORDINATE_TYPE>  (1) 
2
5
10

$$$$
