45895
     RDKit          3D

 18 19  0  0  1  0  0  0  0  0999 V2000
   -2.2620    2.7171   -0.1996 Cl  0  0  0  0  0  0  0  0  0  0  0  0
    2.7564   -0.3297   -0.4658 O   0  0  0  0  0  0  0  0  0  0  0  0
   -3.1942    0.0789    0.5565 N   0  0  0  0  0  0  0  0  0  0  0  0
   -2.2061   -0.3905   -0.4209 C   0  0  0  0  0  0  0  0  0  0  0  0
   -2.0765   -1.9103   -0.2299 C   0  0  0  0  0  0  0  0  0  0  0  0
   -0.9294   -2.4617   -1.0645 C   0  0  0  0  0  0  0  0  0  0  0  0
   -0.8708    0.3353   -0.3463 C   0  0  0  0  0  0  0  0  0  0  0  0
    0.3904   -1.8703   -0.5825 C   0  0  0  0  0  0  0  0  0  0  0  0
    0.3474   -0.3681   -0.4513 C   0  0  0  0  0  0  0  0  0  0  0  0
    1.5643    0.3317   -0.3955 C   0  0  0  0  0  0  0  0  0  0  0  0
   -0.8293    1.7388   -0.2567 C   0  0  0  0  0  0  0  0  0  0  0  0
   -2.6886   -0.1069    1.9136 C   0  0  0  0  0  0  0  0  0  0  0  0
   -4.4587   -0.6281    0.3747 C   0  0  0  0  0  0  0  0  0  0  0  0
    1.5831    1.7193   -0.2774 C   0  0  0  0  0  0  0  0  0  0  0  0
    0.3865    2.4233   -0.2155 C   0  0  0  0  0  0  0  0  0  0  0  0
    3.6425   -0.1832    0.6406 C   0  0  0  0  0  0  0  0  0  0  0  0
    3.9053   -1.5436    1.2657 C   0  0  0  0  0  0  0  0  0  0  0  0
    4.9397    0.4479    0.1548 C   0  0  0  0  0  0  0  0  0  0  0  0
  1 11  1  0
  2 10  1  0
  2 16  1  0
  3  4  1  0
  3 12  1  0
  3 13  1  0
  4  5  1  0
  4  7  1  0
  5  6  1  0
  6  8  1  0
  7  9  2  0
  7 11  1  0
  8  9  1  0
  9 10  1  0
 10 14  2  0
 11 15  2  0
 14 15  1  0
 16 17  1  0
 16 18  1  0
M  END
>  <PUBCHEM_COMPOUND_CID>  (1) 
45895

>  <PUBCHEM_CONFORMER_RMSD>  (1) 
0.6

>  <PUBCHEM_CONFORMER_DIVERSEORDER>  (1) 
1
3
8
12
5
9
4
2
7
11
10
6

>  <PUBCHEM_MMFF94_PARTIAL_CHARGES>  (1) 
16
1 -0.18
10 0.08
11 0.18
12 0.27
13 0.27
14 -0.15
15 -0.15
16 0.28
2 -0.36
3 -0.81
32 0.15
33 0.15
4 0.41
7 -0.14
8 0.14
9 -0.14

>  <PUBCHEM_EFFECTIVE_ROTOR_COUNT>  (1) 
3.8

>  <PUBCHEM_PHARMACOPHORE_FEATURES>  (1) 
5
1 2 acceptor
1 3 cation
3 16 17 18 hydrophobe
6 4 5 6 7 8 9 rings
6 7 9 10 11 14 15 rings

>  <PUBCHEM_HEAVY_ATOM_COUNT>  (1) 
18

>  <PUBCHEM_ATOM_DEF_STEREO_COUNT>  (1) 
0

>  <PUBCHEM_ATOM_UDEF_STEREO_COUNT>  (1) 
1

>  <PUBCHEM_BOND_DEF_STEREO_COUNT>  (1) 
0

>  <PUBCHEM_BOND_UDEF_STEREO_COUNT>  (1) 
0

>  <PUBCHEM_ISOTOPIC_ATOM_COUNT>  (1) 
0

>  <PUBCHEM_COMPONENT_COUNT>  (1) 
1

>  <PUBCHEM_CACTVS_TAUTO_COUNT>  (1) 
1

>  <PUBCHEM_CONFORMER_ID>  (1) 
0000B34700000001

>  <PUBCHEM_MMFF94_ENERGY>  (1) 
61.7917

>  <PUBCHEM_FEATURE_SELFOVERLAP>  (1) 
25.392

>  <PUBCHEM_SHAPE_FINGERPRINT>  (1) 
10906281 52 18263663796191108189
10967382 1 18340492273923139165
11086676 242 18335427884689875992
11132069 177 18272939327268369423
11680986 33 17907302048341823679
11796584 16 16660361498118377931
12202030 40 16444465891339226443
12251169 10 18341897432360857362
12382932 28 18343586239340228006
12390115 104 18058465230865036536
12553582 1 18337100250761050446
12633257 1 17917697025093018482
13140716 1 18196092359416864019
13172582 1 18341898527566974959
13380535 76 18049434847181321677
14022347 108 18265638553196637470
14178342 30 18054522313295199017
14420673 8 17544745734948362610
14787075 74 17822577238891871130
15209294 21 17632304427948312881
15309172 13 18342742905326501470
15375462 189 18259980509499562042
15375462 478 18187367622875777775
16945 1 18412270536004141231
17804303 29 18272090538915202228
1813 80 17603589582857940430
20028762 73 17986959755079251519
20261772 1 18412827997200620946
20510252 161 18201720604973835040
20871998 184 18338795607127639284
21029758 27 18260272970686449220
21267235 1 18408047308100936302
21501502 16 18053102010348561980
21637258 2 16081645694510520323
22112679 90 18198344163557074366
22182313 1 18125449613653174015
23184049 59 18412548733894495899
2334 1 17908426097260115135
23402539 116 18201710786984350343
23463225 33 18337392737522081838
23559900 14 18128256693400026166
23598294 1 18337101255767606200
25147074 1 18054232304249730031
2748010 2 18052549767848882023
34934 24 18336823199479205436
352729 6 18050560738698923612
4072396 5 18337665313711728859
4340502 62 14261359085017963631
465052 167 18189065325249441827
5104073 3 18264757784822946496
6992083 37 18270126841144135119
90316 7 18410287008506529992

>  <PUBCHEM_SHAPE_MULTIPOLES>  (1) 
361.45
7.19
2.7
1.1
5.1
0.71
0.44
-1.25
2.66
-0.96
-0.6
-0.28
-0.35
-0.47

>  <PUBCHEM_SHAPE_SELFOVERLAP>  (1) 
742.235

>  <PUBCHEM_SHAPE_VOLUME>  (1) 
210.8

>  <PUBCHEM_COORDINATE_TYPE>  (1) 
2
5
10

$$$$
