45908
     RDKit          3D

 20 21  0  0  0  0  0  0  0  0999 V2000
    0.7101   -0.5006   -0.1900 O   0  0  0  0  0  0  0  0  0  0  0  0
   -0.0707   -0.3043   -2.3465 O   0  0  0  0  0  0  0  0  0  0  0  0
    4.3523   -0.0260    0.1475 N   0  0  0  0  0  0  0  0  0  0  0  0
    2.9786   -0.2720    0.5599 C   0  0  0  0  0  0  0  0  0  0  0  0
    5.2593   -0.1007    1.2956 C   0  0  0  0  0  0  0  0  0  0  0  0
    4.4714    1.2795   -0.5063 C   0  0  0  0  0  0  0  0  0  0  0  0
    2.0439   -0.2374   -0.6387 C   0  0  0  0  0  0  0  0  0  0  0  0
    5.1542   -1.4472    1.9915 C   0  0  0  0  0  0  0  0  0  0  0  0
    5.8875    1.5178   -1.0027 C   0  0  0  0  0  0  0  0  0  0  0  0
   -2.4236    0.2324   -0.0930 C   0  0  0  0  0  0  0  0  0  0  0  0
   -1.5771   -0.7853   -0.5619 C   0  0  0  0  0  0  0  0  0  0  0  0
   -3.6800   -0.1126    0.4597 C   0  0  0  0  0  0  0  0  0  0  0  0
   -0.2672   -0.5077   -1.1443 C   0  0  0  0  0  0  0  0  0  0  0  0
   -1.9634   -2.1238   -0.4870 C   0  0  0  0  0  0  0  0  0  0  0  0
   -2.0512    1.5849   -0.1603 C   0  0  0  0  0  0  0  0  0  0  0  0
   -4.0529   -1.4651    0.5268 C   0  0  0  0  0  0  0  0  0  0  0  0
   -4.5268    0.9049    0.9286 C   0  0  0  0  0  0  0  0  0  0  0  0
   -3.1990   -2.4630    0.0562 C   0  0  0  0  0  0  0  0  0  0  0  0
   -2.9049    2.5827    0.3106 C   0  0  0  0  0  0  0  0  0  0  0  0
   -4.1404    2.2434    0.8541 C   0  0  0  0  0  0  0  0  0  0  0  0
  1  7  1  0
  1 13  1  0
  2 13  2  0
  3  4  1  0
  3  5  1  0
  3  6  1  0
  4  7  1  0
  5  8  1  0
  6  9  1  0
 10 11  2  0
 10 12  1  0
 10 15  1  0
 11 13  1  0
 11 14  1  0
 12 16  2  0
 12 17  1  0
 14 18  2  0
 15 19  2  0
 16 18  1  0
 17 20  2  0
 19 20  1  0
M  END
>  <PUBCHEM_COMPOUND_CID>  (1) 
45908

>  <PUBCHEM_CONFORMER_RMSD>  (1) 
0.8

>  <PUBCHEM_CONFORMER_DIVERSEORDER>  (1) 
1
123
98
126
136
34
89
110
59
49
25
119
87
71
129
56
42
57
50
117
115
24
113
2
96
63
44
13
7
66
65
15
73
46
45
21
80
40
31
43
68
8
118
106
17
67
125
70
58
101
30
116
134
128
16
131
29
69
112
38
52
85
14
84
20
27
93
92
26
32
74
127
39
6
90
53
47
102
135
120
81
124
114
79
72
104
28
108
10
88
23
95
107
54
48
12
97
33
86
51
64
91
83
41
62
19
109
111
75
130
3
4
9
36
18
11
121
132
100
5
22
122
99
35
94
37
61
55
78
60
103
76
133
77
105
82

>  <PUBCHEM_MMFF94_PARTIAL_CHARGES>  (1) 
23
1 -0.43
11 0.09
13 0.63
14 -0.15
15 -0.15
16 -0.15
17 -0.15
18 -0.15
19 -0.15
2 -0.57
20 -0.15
3 -0.81
35 0.15
36 0.15
37 0.15
38 0.15
39 0.15
4 0.27
40 0.15
41 0.15
5 0.27
6 0.27
7 0.28

>  <PUBCHEM_EFFECTIVE_ROTOR_COUNT>  (1) 
7

>  <PUBCHEM_PHARMACOPHORE_FEATURES>  (1) 
4
1 2 acceptor
1 3 cation
6 10 11 12 14 16 18 rings
6 10 12 15 17 19 20 rings

>  <PUBCHEM_HEAVY_ATOM_COUNT>  (1) 
20

>  <PUBCHEM_ATOM_DEF_STEREO_COUNT>  (1) 
0

>  <PUBCHEM_ATOM_UDEF_STEREO_COUNT>  (1) 
0

>  <PUBCHEM_BOND_DEF_STEREO_COUNT>  (1) 
0

>  <PUBCHEM_BOND_UDEF_STEREO_COUNT>  (1) 
0

>  <PUBCHEM_ISOTOPIC_ATOM_COUNT>  (1) 
0

>  <PUBCHEM_COMPONENT_COUNT>  (1) 
1

>  <PUBCHEM_CACTVS_TAUTO_COUNT>  (1) 
1

>  <PUBCHEM_CONFORMER_ID>  (1) 
0000B35400000001

>  <PUBCHEM_MMFF94_ENERGY>  (1) 
53.7357

>  <PUBCHEM_FEATURE_SELFOVERLAP>  (1) 
20.324

>  <PUBCHEM_SHAPE_FINGERPRINT>  (1) 
10319926 262 18271244928848883910
10366900 7 18200306740220656459
10912923 1 18187361060788163794
11552529 35 18044375169743778666
11595378 159 18041007219413967836
12107183 9 17974562495102500314
12236239 1 17894910745966059147
12390115 104 17987818318898497617
12403259 118 18201430394107315264
12403259 415 16917071083530525046
12596602 18 17821451274328378289
12633257 1 18408884014489612184
12969540 114 15985100803937744452
13167823 11 18260261945842932626
13583140 156 17845920892909794850
13675066 3 17989481923125475254
13897977 58 18410580616623394741
14251758 9 17703504382085687270
14341114 176 18334300872507757932
14341114 328 18334298669168527232
14420673 8 18120937196801842690
15880784 105 17240479217442370416
17780758 139 18261661619581079410
17844677 252 18341342171058311492
17980427 23 18410300229001547325
1813 80 16733557022129621742
18186145 218 15841553002970324358
19377110 9 18041833017666938424
193927 3 14129346152488215966
20645477 56 16916779730192356598
21033648 29 17132112442383234496
21065198 48 18261109686329255818
21401589 2 17845661322624834569
21650355 55 18267586982644050359
23402539 116 18201432623796917415
23557571 272 17988379133757047420
23559900 14 18057058916759135318
3633792 109 17896580840068430959
5104073 3 18335415781835877496
573450 72 18408597067803700898
9981440 41 18270964532035474547

>  <PUBCHEM_SHAPE_MULTIPOLES>  (1) 
394.87
13.08
2.43
1.42
18.07
0.32
-0.09
2.85
4.57
-2.73
0.28
1.41
-0.24
-2.15

>  <PUBCHEM_SHAPE_SELFOVERLAP>  (1) 
827.111

>  <PUBCHEM_SHAPE_VOLUME>  (1) 
225.7

>  <PUBCHEM_COORDINATE_TYPE>  (1) 
2
5
10

$$$$
