45918
     RDKit          3D

 10 10  0  0  1  0  0  0  0  0999 V2000
   -2.4471   -1.8622    0.4689 Cl  0  0  0  0  0  0  0  0  0  0  0  0
    0.1774   -0.5251   -0.2144 O   0  0  0  0  0  0  0  0  0  0  0  0
   -0.5988    1.6627    0.1474 O   0  0  0  0  0  0  0  0  0  0  0  0
    2.9044   -1.3632   -0.3819 O   0  0  0  0  0  0  0  0  0  0  0  0
   -0.9847    0.3200   -0.1899 C   0  0  0  0  0  0  0  0  0  0  0  0
    1.2839    0.3806   -0.1812 C   0  0  0  0  0  0  0  0  0  0  0  0
    0.7462    1.5456    0.6136 C   0  0  0  0  0  0  0  0  0  0  0  0
   -1.9467   -0.2080    0.8668 C   0  0  0  0  0  0  0  0  0  0  0  0
   -1.6294    0.3308   -1.5702 C   0  0  0  0  0  0  0  0  0  0  0  0
    2.4948   -0.2812    0.4409 C   0  0  0  0  0  0  0  0  0  0  0  0
  1  8  1  0
  2  5  1  0
  2  6  1  0
  3  5  1  0
  3  7  1  0
  4 10  1  0
  5  8  1  0
  5  9  1  0
  6  7  1  0
  6 10  1  0
M  END
>  <PUBCHEM_COMPOUND_CID>  (1) 
45918

>  <PUBCHEM_CONFORMER_RMSD>  (1) 
0.6

>  <PUBCHEM_CONFORMER_DIVERSEORDER>  (1) 
2
17
6
8
14
10
21
4
18
3
15
16
22
1
13
12
7
11
20
5
19
9

>  <PUBCHEM_MMFF94_PARTIAL_CHARGES>  (1) 
10
1 -0.29
10 0.28
2 -0.56
21 0.4
3 -0.56
4 -0.68
5 0.56
6 0.28
7 0.28
8 0.29

>  <PUBCHEM_EFFECTIVE_ROTOR_COUNT>  (1) 
3

>  <PUBCHEM_PHARMACOPHORE_FEATURES>  (1) 
5
1 2 acceptor
1 3 acceptor
1 4 acceptor
1 4 donor
5 2 3 5 6 7 rings

>  <PUBCHEM_HEAVY_ATOM_COUNT>  (1) 
10

>  <PUBCHEM_ATOM_DEF_STEREO_COUNT>  (1) 
0

>  <PUBCHEM_ATOM_UDEF_STEREO_COUNT>  (1) 
2

>  <PUBCHEM_BOND_DEF_STEREO_COUNT>  (1) 
0

>  <PUBCHEM_BOND_UDEF_STEREO_COUNT>  (1) 
0

>  <PUBCHEM_ISOTOPIC_ATOM_COUNT>  (1) 
0

>  <PUBCHEM_COMPONENT_COUNT>  (1) 
1

>  <PUBCHEM_CACTVS_TAUTO_COUNT>  (1) 
1

>  <PUBCHEM_CONFORMER_ID>  (1) 
0000B35E00000002

>  <PUBCHEM_MMFF94_ENERGY>  (1) 
22.4213

>  <PUBCHEM_FEATURE_SELFOVERLAP>  (1) 
25.415

>  <PUBCHEM_SHAPE_FINGERPRINT>  (1) 
10857977 72 18341324569833920330
12423570 1 8788114296064805657
12897270 3 15936695946886122858
12932764 1 17168427069401926400
13024252 1 13407660787337938900
13839132 238 11815355822083923731
14128692 85 18041574623195506302
15310529 11 16081656556340211280
16945 1 18115859711647914636
20711978 78 18127126600639660009
20711985 344 17241030072804783165
23552423 10 18114186345381967234
29004967 10 18341891926334194328
369184 2 15912749610182943394
5084963 1 17967813881150608866

>  <PUBCHEM_SHAPE_MULTIPOLES>  (1) 
190.06
3.71
1.67
1.05
0.93
0.15
0.27
2.25
-0.17
-0.09
-0.17
-0.46
-0.15
0.57

>  <PUBCHEM_SHAPE_SELFOVERLAP>  (1) 
364.832

>  <PUBCHEM_SHAPE_VOLUME>  (1) 
118.2

>  <PUBCHEM_COORDINATE_TYPE>  (1) 
2
5
10

$$$$
