45911
     RDKit          3D

 15 16  0  0  1  0  0  0  0  0999 V2000
    0.3437   -2.8478   -0.4826 O   0  0  0  0  0  0  0  0  0  0  0  0
   -3.1990    1.0998    1.1311 O   0  0  0  0  0  0  0  0  0  0  0  0
   -1.7367   -0.5031    1.8299 O   0  0  0  0  0  0  0  0  0  0  0  0
   -0.7156    1.1808   -0.7907 C   0  0  0  0  0  0  0  0  0  0  0  0
   -1.8057    0.1388   -0.5052 C   0  0  0  0  0  0  0  0  0  0  0  0
   -1.4059   -1.2771   -0.9000 C   0  0  0  0  0  0  0  0  0  0  0  0
    0.6239    0.7446   -0.2397 C   0  0  0  0  0  0  0  0  0  0  0  0
    0.9610   -0.6090   -0.1022 C   0  0  0  0  0  0  0  0  0  0  0  0
   -0.0046   -1.6692   -0.4814 C   0  0  0  0  0  0  0  0  0  0  0  0
   -0.5966    1.4700   -2.2915 C   0  0  0  0  0  0  0  0  0  0  0  0
   -2.2161    0.1858    0.9417 C   0  0  0  0  0  0  0  0  0  0  0  0
    1.5695    1.7173    0.1242 C   0  0  0  0  0  0  0  0  0  0  0  0
    2.2184   -0.9787    0.3935 C   0  0  0  0  0  0  0  0  0  0  0  0
    2.8200    1.3474    0.6193 C   0  0  0  0  0  0  0  0  0  0  0  0
    3.1435    0.0004    0.7538 C   0  0  0  0  0  0  0  0  0  0  0  0
  1  9  2  0
  2 11  1  0
  3 11  2  0
  4  5  1  0
  4  7  1  0
  4 10  1  0
  5  6  1  0
  5 11  1  0
  6  9  1  0
  7  8  2  0
  7 12  1  0
  8  9  1  0
  8 13  1  0
 12 14  2  0
 13 15  2  0
 14 15  1  0
M  END
>  <PUBCHEM_COMPOUND_CID>  (1) 
45911

>  <PUBCHEM_CONFORMER_RMSD>  (1) 
0.6

>  <PUBCHEM_CONFORMER_DIVERSEORDER>  (1) 
1
3
5
4
2
6

>  <PUBCHEM_MMFF94_PARTIAL_CHARGES>  (1) 
19
1 -0.57
11 0.66
12 -0.15
13 -0.15
14 -0.15
15 -0.15
2 -0.65
23 0.15
24 0.15
25 0.15
26 0.15
27 0.5
3 -0.57
4 0.14
5 0.06
6 0.06
7 -0.14
8 0.09
9 0.42

>  <PUBCHEM_EFFECTIVE_ROTOR_COUNT>  (1) 
1.6

>  <PUBCHEM_PHARMACOPHORE_FEATURES>  (1) 
6
1 1 acceptor
1 2 acceptor
1 3 acceptor
3 2 3 11 anion
6 4 5 6 7 8 9 rings
6 7 8 12 13 14 15 rings

>  <PUBCHEM_HEAVY_ATOM_COUNT>  (1) 
15

>  <PUBCHEM_ATOM_DEF_STEREO_COUNT>  (1) 
0

>  <PUBCHEM_ATOM_UDEF_STEREO_COUNT>  (1) 
2

>  <PUBCHEM_BOND_DEF_STEREO_COUNT>  (1) 
0

>  <PUBCHEM_BOND_UDEF_STEREO_COUNT>  (1) 
0

>  <PUBCHEM_ISOTOPIC_ATOM_COUNT>  (1) 
0

>  <PUBCHEM_COMPONENT_COUNT>  (1) 
1

>  <PUBCHEM_CACTVS_TAUTO_COUNT>  (1) 
2

>  <PUBCHEM_CONFORMER_ID>  (1) 
0000B35700000001

>  <PUBCHEM_MMFF94_ENERGY>  (1) 
34.77

>  <PUBCHEM_FEATURE_SELFOVERLAP>  (1) 
30.523

>  <PUBCHEM_SHAPE_FINGERPRINT>  (1) 
11471102 22 18334860493703204696
12202030 40 15575253433937580778
12400797 245 17534359008575337315
12423570 1 10944931835680301439
12491281 212 18270965772900760088
13024252 1 15648149980726843470
13172582 1 18408884061823669826
13839132 238 17632031839032187940
14617773 55 17914321631231818886
14761567 1 14802917334892705926
14817 1 7846023991443890351
15309172 13 18411695495907685456
15775835 57 18342457083900870760
15906896 17 17274815917521470351
16945 1 18339361851262662015
17844478 74 17822007597263357756
19837323 101 14979969072488906507
20511035 2 18043834158266312697
21061003 4 18125159325535602566
23419403 2 17686341967057713957
23493267 7 17388531610797221832
25 1 17397512361322088572
2748010 2 18192130617638461820
430814 3 17346601833160346703
5084963 1 18128513003361521806
598444 67 17605552141581556450
68419 9 17398132910949566741
81228 2 17977368757919790474

>  <PUBCHEM_SHAPE_MULTIPOLES>  (1) 
291.09
3.93
2.12
1.48
1.19
0.85
0.14
-0.9
-1.89
0.22
0.67
-1.04
-0.43
0.04

>  <PUBCHEM_SHAPE_SELFOVERLAP>  (1) 
627.078

>  <PUBCHEM_SHAPE_VOLUME>  (1) 
158.7

>  <PUBCHEM_COORDINATE_TYPE>  (1) 
2
5
10

$$$$
