45915
     RDKit          3D

 23 25  0  0  1  0  0  0  0  0999 V2000
    0.4746   -2.6873   -1.2577 O   0  0  0  0  0  0  0  0  0  0  0  0
    2.5593   -1.9529   -0.5854 O   0  0  0  0  0  0  0  0  0  0  0  0
   -3.0599    1.6796   -0.7033 N   0  0  0  0  0  0  0  0  0  0  0  0
    0.6422   -0.4624   -0.4889 C   0  0  0  0  0  0  0  0  0  0  0  0
    0.1072    0.0197   -1.8641 C   0  0  0  0  0  0  0  0  0  0  0  0
   -2.1827    0.5380   -0.9880 C   0  0  0  0  0  0  0  0  0  0  0  0
   -0.9521    1.1009   -1.7059 C   0  0  0  0  0  0  0  0  0  0  0  0
   -0.5227   -0.7718    0.4681 C   0  0  0  0  0  0  0  0  0  0  0  0
   -1.8344   -0.2954    0.2356 C   0  0  0  0  0  0  0  0  0  0  0  0
    1.6387    0.5818    0.0607 C   0  0  0  0  0  0  0  0  0  0  0  0
    1.3635   -1.7740   -0.7728 C   0  0  0  0  0  0  0  0  0  0  0  0
   -0.2734   -1.5346    1.6314 C   0  0  0  0  0  0  0  0  0  0  0  0
   -2.8583   -0.6671    1.1309 C   0  0  0  0  0  0  0  0  0  0  0  0
    1.4245    1.1390    1.3145 C   0  0  0  0  0  0  0  0  0  0  0  0
    2.7367    0.9502   -0.7054 C   0  0  0  0  0  0  0  0  0  0  0  0
   -3.3411    2.4205   -1.9304 C   0  0  0  0  0  0  0  0  0  0  0  0
   -2.4477    2.5516    0.2960 C   0  0  0  0  0  0  0  0  0  0  0  0
   -1.2963   -1.8614    2.5191 C   0  0  0  0  0  0  0  0  0  0  0  0
   -2.5915   -1.4359    2.2630 C   0  0  0  0  0  0  0  0  0  0  0  0
    2.3245    2.0818    1.8111 C   0  0  0  0  0  0  0  0  0  0  0  0
    3.6367    1.8931   -0.2086 C   0  0  0  0  0  0  0  0  0  0  0  0
    3.4305    2.4589    1.0497 C   0  0  0  0  0  0  0  0  0  0  0  0
    1.0218   -3.9724   -1.5693 C   0  0  0  0  0  0  0  0  0  0  0  0
  1 11  1  0
  1 23  1  0
  2 11  2  0
  3  6  1  0
  3 16  1  0
  3 17  1  0
  4  5  1  0
  4  8  1  0
  4 10  1  0
  4 11  1  0
  5  7  1  0
  6  7  1  0
  6  9  1  0
  8  9  2  0
  8 12  1  0
  9 13  1  0
 10 14  2  0
 10 15  1  0
 12 18  2  0
 13 19  2  0
 14 20  1  0
 15 21  2  0
 18 19  1  0
 20 22  2  0
 21 22  1  0
M  END
>  <PUBCHEM_COMPOUND_CID>  (1) 
45915

>  <PUBCHEM_CONFORMER_RMSD>  (1) 
0.8

>  <PUBCHEM_CONFORMER_DIVERSEORDER>  (1) 
3
1
6
4
2
5

>  <PUBCHEM_MMFF94_PARTIAL_CHARGES>  (1) 
30
1 -0.43
10 -0.14
11 0.66
12 -0.15
13 -0.15
14 -0.15
15 -0.15
16 0.27
17 0.27
18 -0.15
19 -0.15
2 -0.57
20 -0.15
21 -0.15
22 -0.15
23 0.28
29 0.15
3 -0.81
30 0.15
31 0.15
32 0.15
39 0.15
4 0.35
40 0.15
41 0.15
42 0.15
43 0.15
6 0.41
8 -0.14
9 -0.14

>  <PUBCHEM_EFFECTIVE_ROTOR_COUNT>  (1) 
4.8

>  <PUBCHEM_PHARMACOPHORE_FEATURES>  (1) 
5
1 2 acceptor
1 3 cation
6 10 14 15 20 21 22 rings
6 4 5 6 7 8 9 rings
6 8 9 12 13 18 19 rings

>  <PUBCHEM_HEAVY_ATOM_COUNT>  (1) 
23

>  <PUBCHEM_ATOM_DEF_STEREO_COUNT>  (1) 
1

>  <PUBCHEM_ATOM_UDEF_STEREO_COUNT>  (1) 
1

>  <PUBCHEM_BOND_DEF_STEREO_COUNT>  (1) 
0

>  <PUBCHEM_BOND_UDEF_STEREO_COUNT>  (1) 
0

>  <PUBCHEM_ISOTOPIC_ATOM_COUNT>  (1) 
0

>  <PUBCHEM_COMPONENT_COUNT>  (1) 
1

>  <PUBCHEM_CACTVS_TAUTO_COUNT>  (1) 
1

>  <PUBCHEM_CONFORMER_ID>  (1) 
0000B35B00000003

>  <PUBCHEM_MMFF94_ENERGY>  (1) 
86.4968

>  <PUBCHEM_FEATURE_SELFOVERLAP>  (1) 
25.391

>  <PUBCHEM_SHAPE_FINGERPRINT>  (1) 
10165383 225 17910704225418802224
11578080 2 17903962973220347764
11582403 64 17611976704155554357
12507560 18 17328601522338800421
12633257 1 17460286916231009288
12716301 132 17458918041233401619
13134695 92 17697304123545564804
13149001 5 17974299724371116731
13294875 104 17463397322856175329
13681431 1 17912365329737554182
13764800 53 18335132150216475521
14022347 108 16663782109047116067
14142880 1 17054987404989532048
14713325 29 17971223463020478628
14787075 74 18263067947036223557
14817 1 11540425026759841715
16945 1 17824262824181130104
17876694 64 16757479448559946875
17980427 26 17682930255507000037
18219364 16 18058170707587490920
19049666 15 18335995181028706376
20510252 161 17968660535554214505
20600515 1 17170122683994028227
21524375 3 18118935127375676004
229495 10 18060147513893936283
23419403 2 18194427531256010482
23493267 7 18040433317541991096
23526113 38 17976266737677620831
23557571 272 17969521466091092411
23559900 14 17894919537732530566
238 59 18202270394894150068
25222932 49 14078721781183141010
2748010 2 18335993007701388630
35225 105 17827043463371135441
427121 178 18042124271989075089
4340502 62 17414744212848907619
495365 180 18270665494288429420
5845 1 15186820482853928742
70251023 43 17765698141251963005
7226269 152 17469041060487075658
81228 2 17823444693705390289
9981440 41 18198600255193157096

>  <PUBCHEM_SHAPE_MULTIPOLES>  (1) 
456.61
5.17
3.68
2.34
1.72
1.81
-0.55
-4.17
-0.97
-0.13
1.36
-0.95
0.65
2.82

>  <PUBCHEM_SHAPE_SELFOVERLAP>  (1) 
988.232

>  <PUBCHEM_SHAPE_VOLUME>  (1) 
249.1

>  <PUBCHEM_COORDINATE_TYPE>  (1) 
2
5
10

$$$$
