4592
     RDKit          3D

 22 24  0  0  0  0  0  0  0  0999 V2000
   -4.3097   -4.0674   -0.8112 O   0  0  0  0  0  0  0  0  0  0  0  0
   -2.6486    2.9395   -0.0318 N   0  0  0  0  0  0  0  0  0  0  0  0
    1.1733    0.3542   -0.0186 N   0  0  0  0  0  0  0  0  0  0  0  0
   -3.0579    0.5489    0.1034 N   0  0  0  0  0  0  0  0  0  0  0  0
   -0.4205    2.9427   -0.1028 N   0  0  0  0  0  0  0  0  0  0  0  0
   -0.9669   -0.7097    0.1023 N   0  0  0  0  0  0  0  0  0  0  0  0
   -3.0428   -1.7878    0.2249 N   0  0  0  0  0  0  0  0  0  0  0  0
   -0.8819    1.6529   -0.0214 C   0  0  0  0  0  0  0  0  0  0  0  0
   -2.2667    1.6292    0.0233 C   0  0  0  0  0  0  0  0  0  0  0  0
   -0.2301    0.4245    0.0213 C   0  0  0  0  0  0  0  0  0  0  0  0
    1.8952   -0.8826    0.0223 C   0  0  0  0  0  0  0  0  0  0  0  0
   -2.3151   -0.5789    0.1378 C   0  0  0  0  0  0  0  0  0  0  0  0
   -1.5050    3.6895   -0.1073 C   0  0  0  0  0  0  0  0  0  0  0  0
    3.3771   -0.6290    0.0001 C   0  0  0  0  0  0  0  0  0  0  0  0
   -3.9990    3.4477   -0.0163 C   0  0  0  0  0  0  0  0  0  0  0  0
   -2.4121   -3.0685    0.2709 C   0  0  0  0  0  0  0  0  0  0  0  0
    4.0422   -0.5589   -1.2174 C   0  0  0  0  0  0  0  0  0  0  0  0
    4.0630   -0.4674    1.1969 C   0  0  0  0  0  0  0  0  0  0  0  0
   -3.4634   -4.1639    0.3275 C   0  0  0  0  0  0  0  0  0  0  0  0
    5.4168   -0.3234   -1.2382 C   0  0  0  0  0  0  0  0  0  0  0  0
    5.4377   -0.2318    1.1759 C   0  0  0  0  0  0  0  0  0  0  0  0
    6.1146   -0.1598   -0.0417 C   0  0  0  0  0  0  0  0  0  0  0  0
  1 19  1  0
  2  9  1  0
  2 13  1  0
  2 15  1  0
  3 10  1  0
  3 11  1  0
  4  9  2  0
  4 12  1  0
  5  8  1  0
  5 13  2  0
  6 10  1  0
  6 12  2  0
  7 12  1  0
  7 16  1  0
  8  9  1  0
  8 10  2  0
 11 14  1  0
 14 17  2  0
 14 18  1  0
 16 19  1  0
 17 20  1  0
 18 21  2  0
 20 22  2  0
 21 22  1  0
M  END
>  <PUBCHEM_COMPOUND_CID>  (1) 
4592

>  <PUBCHEM_CONFORMER_RMSD>  (1) 
0.8

>  <PUBCHEM_CONFORMER_DIVERSEORDER>  (1) 
1
48
70
35
77
13
63
27
73
67
41
23
14
18
50
46
72
47
59
36
56
17
8
52
60
45
62
49
29
16
37
12
24
74
30
57
31
34
75
32
25
61
76
58
22
65
20
68
53
33
6
54
43
64
69
21
55
51
38
11
15
5
40
28
4
26
44
9
7
42
19
39
71
10
66
2
3

>  <PUBCHEM_MMFF94_PARTIAL_CHARGES>  (1) 
31
1 -0.68
10 0.41
11 0.51
12 0.72
13 0.04
14 -0.14
15 0.26
16 0.37
17 -0.15
18 -0.15
19 0.28
2 0.05
20 -0.15
21 -0.15
22 -0.15
25 0.4
26 0.15
3 -0.87
30 0.4
33 0.15
34 0.15
37 0.15
38 0.15
39 0.15
4 -0.57
40 0.4
5 -0.57
6 -0.62
7 -0.87
8 0.23
9 0.11

>  <PUBCHEM_EFFECTIVE_ROTOR_COUNT>  (1) 
6

>  <PUBCHEM_PHARMACOPHORE_FEATURES>  (1) 
10
1 1 acceptor
1 1 donor
1 3 cation
1 3 donor
1 7 donor
3 2 5 13 cation
4 4 6 7 12 cation
5 2 5 8 9 13 rings
6 14 17 18 20 21 22 rings
6 4 6 8 9 10 12 rings

>  <PUBCHEM_HEAVY_ATOM_COUNT>  (1) 
22

>  <PUBCHEM_ATOM_DEF_STEREO_COUNT>  (1) 
0

>  <PUBCHEM_ATOM_UDEF_STEREO_COUNT>  (1) 
0

>  <PUBCHEM_BOND_DEF_STEREO_COUNT>  (1) 
0

>  <PUBCHEM_BOND_UDEF_STEREO_COUNT>  (1) 
0

>  <PUBCHEM_ISOTOPIC_ATOM_COUNT>  (1) 
0

>  <PUBCHEM_COMPONENT_COUNT>  (1) 
1

>  <PUBCHEM_CACTVS_TAUTO_COUNT>  (1) 
6

>  <PUBCHEM_CONFORMER_ID>  (1) 
000011F000000001

>  <PUBCHEM_MMFF94_ENERGY>  (1) 
53.3026

>  <PUBCHEM_FEATURE_SELFOVERLAP>  (1) 
50.883

>  <PUBCHEM_SHAPE_FINGERPRINT>  (1) 
10319926 262 18268690768149155362
10411042 1 18194120948238597723
11056379 131 18410301298068543190
11265709 11 18265335186835240651
12107183 9 17756979022712703402
12173636 292 18049438141231541588
12236239 1 17604155818245038864
12390115 104 17984431732606265537
12553582 1 18263931101717528627
12616971 3 17240487958165080116
12788726 201 18260543458894561770
138480 1 16320621939889234651
14508225 48 18267574887947177239
14790565 3 17907582423865922713
14844126 61 18334575746035599235
15042514 8 18410016546174119515
15250474 111 18188479178357522818
16087824 20 18410011006573519517
16992727 255 18115568380659958885
17539 30 18411975888832348967
19427546 20 18335145305911923340
20101258 96 18337401559664554379
20645477 56 18266462001348623096
21065201 7 18341895152561690618
21426921 1 18410294713656708018
21728266 224 18261098691398081986
22224240 67 18126855902654644529
22849339 104 18339658736503033335
23557571 272 18272661112498949244
23559900 14 18339633533893948416
23598288 3 18115893882660812389
573450 72 18187358788855842506
77188 2 18050567640937604277
9709674 26 18270683052505151710
9981440 41 17975416815553431857

>  <PUBCHEM_SHAPE_MULTIPOLES>  (1) 
416.99
11.73
4.93
0.91
17.88
1.95
0.03
3.4
0.34
-12.38
0.26
1.23
0.21
-0.15

>  <PUBCHEM_SHAPE_SELFOVERLAP>  (1) 
895.245

>  <PUBCHEM_SHAPE_VOLUME>  (1) 
229.6

>  <PUBCHEM_COORDINATE_TYPE>  (1) 
2
5
10

$$$$
