45922
     RDKit          3D

 21 22  0  0  0  0  0  0  0  0999 V2000
    7.1358    1.5216   -0.2425 O   0  0  0  0  0  0  0  0  0  0  0  0
   -7.1441    1.5088    0.2755 O   0  0  0  0  0  0  0  0  0  0  0  0
    0.0084   -1.6072   -0.0118 N   0  0  0  0  0  0  0  0  0  0  0  0
    1.2046   -0.7790   -0.0591 C   0  0  0  0  0  0  0  0  0  0  0  0
   -1.1926   -0.7818    0.0598 C   0  0  0  0  0  0  0  0  0  0  0  0
    2.4648   -1.6412   -0.1413 C   0  0  0  0  0  0  0  0  0  0  0  0
   -2.4655   -1.6393    0.0998 C   0  0  0  0  0  0  0  0  0  0  0  0
    3.7131   -0.7955   -0.1684 C   0  0  0  0  0  0  0  0  0  0  0  0
   -3.7018   -0.8069    0.1463 C   0  0  0  0  0  0  0  0  0  0  0  0
    4.3285   -0.4525    1.0258 C   0  0  0  0  0  0  0  0  0  0  0  0
   -4.3216   -0.4122   -1.0395 C   0  0  0  0  0  0  0  0  0  0  0  0
    4.2248   -0.3758   -1.3867 C   0  0  0  0  0  0  0  0  0  0  0  0
   -4.2391   -0.4237    1.3751 C   0  0  0  0  0  0  0  0  0  0  0  0
    5.4836    0.3291    1.0011 C   0  0  0  0  0  0  0  0  0  0  0  0
   -5.4784    0.3658   -0.9964 C   0  0  0  0  0  0  0  0  0  0  0  0
    5.3800    0.4057   -1.4114 C   0  0  0  0  0  0  0  0  0  0  0  0
   -5.3962    0.3542    1.4181 C   0  0  0  0  0  0  0  0  0  0  0  0
    6.0094    0.7582   -0.2175 C   0  0  0  0  0  0  0  0  0  0  0  0
   -6.0158    0.7489    0.2325 C   0  0  0  0  0  0  0  0  0  0  0  0
    7.7288    1.8455    1.0142 C   0  0  0  0  0  0  0  0  0  0  0  0
   -7.7268    1.8775   -0.9735 C   0  0  0  0  0  0  0  0  0  0  0  0
  1 18  1  0
  1 20  1  0
  2 19  1  0
  2 21  1  0
  3  4  1  0
  3  5  1  0
  4  6  1  0
  5  7  1  0
  6  8  1  0
  7  9  1  0
  8 10  2  0
  8 12  1  0
  9 11  2  0
  9 13  1  0
 10 14  1  0
 11 15  1  0
 12 16  2  0
 13 17  2  0
 14 18  2  0
 15 19  2  0
 16 18  1  0
 17 19  1  0
M  END
>  <PUBCHEM_COMPOUND_CID>  (1) 
45922

>  <PUBCHEM_CONFORMER_RMSD>  (1) 
0.8

>  <PUBCHEM_CONFORMER_DIVERSEORDER>  (1) 
1
18
6
13
46
27
48
10
5
11
15
32
26
7
31
45
36
4
34
23
42
17
49
12
43
50
33
47
44
3
37
21
29
41
20
16
24
38
14
25
39
2
40
51
22
9
28
8
30
19
35

>  <PUBCHEM_MMFF94_PARTIAL_CHARGES>  (1) 
30
1 -0.36
10 -0.15
11 -0.15
12 -0.15
13 -0.15
14 -0.15
15 -0.15
16 -0.15
17 -0.15
18 0.08
19 0.08
2 -0.36
20 0.28
21 0.28
3 -0.9
30 0.36
31 0.15
32 0.15
33 0.15
34 0.15
35 0.15
36 0.15
37 0.15
38 0.15
4 0.27
5 0.27
6 0.14
7 0.14
8 -0.14
9 -0.14

>  <PUBCHEM_EFFECTIVE_ROTOR_COUNT>  (1) 
8

>  <PUBCHEM_PHARMACOPHORE_FEATURES>  (1) 
6
1 1 acceptor
1 2 acceptor
1 3 cation
1 3 donor
6 8 10 12 14 16 18 rings
6 9 11 13 15 17 19 rings

>  <PUBCHEM_HEAVY_ATOM_COUNT>  (1) 
21

>  <PUBCHEM_ATOM_DEF_STEREO_COUNT>  (1) 
0

>  <PUBCHEM_ATOM_UDEF_STEREO_COUNT>  (1) 
0

>  <PUBCHEM_BOND_DEF_STEREO_COUNT>  (1) 
0

>  <PUBCHEM_BOND_UDEF_STEREO_COUNT>  (1) 
0

>  <PUBCHEM_ISOTOPIC_ATOM_COUNT>  (1) 
0

>  <PUBCHEM_COMPONENT_COUNT>  (1) 
1

>  <PUBCHEM_CACTVS_TAUTO_COUNT>  (1) 
1

>  <PUBCHEM_CONFORMER_ID>  (1) 
0000B36200000001

>  <PUBCHEM_MMFF94_ENERGY>  (1) 
60.9845

>  <PUBCHEM_FEATURE_SELFOVERLAP>  (1) 
30.446

>  <PUBCHEM_SHAPE_FINGERPRINT>  (1) 
10 15 17022910042829402775
10693767 8 13182203747343107140
11524674 6 11458433431940419505
117890 112 18334296465634175806
12166972 35 12319729276540808027
12596602 18 16805046224347860017
12616971 3 16008752450224443022
13668630 136 10663820771358607665
13685833 64 8286199448656244534
14123256 34 9223234044114461622
14251757 52 18333730208450506680
14251764 18 17676490566533016823
14528608 73 16845572010960644574
14598715 104 18335973220977667833
14729087 3 18410573993810094001
14849402 71 14635450350032135478
15183329 4 15769780134555882111
15348495 7 15719684250195479544
15716309 27 12035449445540633007
16988056 13 16343413021121856736
17134984 74 12247682665235123532
1768 4 18342465837930443833
1818759 1 10737281317107683984
18222031 100 12463568465591373402
18335252 114 17561085809318555432
18643901 69 12895348903171252965
2026 5 10447939359922098364
20281389 69 18259984851437191575
20526848 3 18411139134128160485
21150785 3 15769774658519870573
21267235 1 9223230753905762279
21298829 104 18342743971043237793
21365058 113 12103839072983775811
22061861 79 13110963110816548339
22288116 15 17346306142675486383
23081809 10 18410566292902700951
23198884 109 16702303421853998623
23559900 14 14261050105134713475
2767999 5 18411417314865149990
300161 21 18411983559069361671
3004659 81 12751239203551924478
312425 54 15719396131173329601
3383291 50 8790880774668852637
3663271 9 15792020007806170328
4340502 62 16153426147505040642
465052 167 8646769997903529290
5104073 3 15647632175216887742
543368 44 18273216396220544643
59682541 52 17275113782499947926
9995097 26 9943521938686423152

>  <PUBCHEM_SHAPE_MULTIPOLES>  (1) 
415.45
25.3
1.71
1.31
0.1
0.29
0
18.19
-0.25
0.03
0
-0.03
0.18
1.12

>  <PUBCHEM_SHAPE_SELFOVERLAP>  (1) 
861.139

>  <PUBCHEM_SHAPE_VOLUME>  (1) 
238.4

>  <PUBCHEM_COORDINATE_TYPE>  (1) 
2
5
10

$$$$
