45937
     RDKit          3D

 35 39  0  0  1  0  0  0  0  0999 V2000
    3.1596    1.0527   -1.0796 O   0  0  0  0  0  0  0  0  0  0  0  0
   -3.1724    0.0828   -1.6890 O   0  0  0  0  0  0  0  0  0  0  0  0
   -4.6985    0.0591    0.7182 O   0  0  0  0  0  0  0  0  0  0  0  0
   -1.7027   -2.9836   -1.7337 O   0  0  0  0  0  0  0  0  0  0  0  0
    7.6160   -0.2195   -0.2699 O   0  0  0  0  0  0  0  0  0  0  0  0
    7.7592    1.8866   -1.1865 O   0  0  0  0  0  0  0  0  0  0  0  0
   -5.4216    2.2445    0.8604 O   0  0  0  0  0  0  0  0  0  0  0  0
    2.3656    0.4073   -0.0724 C   0  0  0  0  0  0  0  0  0  0  0  0
    0.9521    0.1497   -0.6632 C   0  0  0  0  0  0  0  0  0  0  0  0
    3.0821   -0.8733    0.4343 C   0  0  0  0  0  0  0  0  0  0  0  0
    0.0398   -0.7136    0.2517 C   0  0  0  0  0  0  0  0  0  0  0  0
   -1.3652   -0.9884   -0.4042 C   0  0  0  0  0  0  0  0  0  0  0  0
   -2.0436    0.3534   -0.8413 C   0  0  0  0  0  0  0  0  0  0  0  0
    4.2393   -0.3029    1.3143 C   0  0  0  0  0  0  0  0  0  0  0  0
    2.1262   -1.6961    1.3390 C   0  0  0  0  0  0  0  0  0  0  0  0
    0.7771   -1.9960    0.6892 C   0  0  0  0  0  0  0  0  0  0  0  0
    2.3922    1.3399    1.1527 C   0  0  0  0  0  0  0  0  0  0  0  0
    0.2575    1.4685   -1.0485 C   0  0  0  0  0  0  0  0  0  0  0  0
   -1.1043    1.2334   -1.6865 C   0  0  0  0  0  0  0  0  0  0  0  0
    3.6397    0.9592    1.9630 C   0  0  0  0  0  0  0  0  0  0  0  0
   -2.3212   -1.7721    0.5383 C   0  0  0  0  0  0  0  0  0  0  0  0
    3.5952   -1.7831   -0.7000 C   0  0  0  0  0  0  0  0  0  0  0  0
   -2.5597    1.1600    0.3812 C   0  0  0  0  0  0  0  0  0  0  0  0
   -2.7865   -0.9607    1.7464 C   0  0  0  0  0  0  0  0  0  0  0  0
   -3.4457    0.3500    1.3334 C   0  0  0  0  0  0  0  0  0  0  0  0
   -1.1719   -1.8843   -1.6146 C   0  0  0  0  0  0  0  0  0  0  0  0
    5.5109    0.0385    0.5922 C   0  0  0  0  0  0  0  0  0  0  0  0
    6.6205   -0.9294    0.4744 C   0  0  0  0  0  0  0  0  0  0  0  0
    5.8089    1.1873   -0.0089 C   0  0  0  0  0  0  0  0  0  0  0  0
    7.1547    1.0311   -0.5631 C   0  0  0  0  0  0  0  0  0  0  0  0
   -5.4345    1.1444    0.3257 C   0  0  0  0  0  0  0  0  0  0  0  0
   -6.3003    0.7593   -0.8549 C   0  0  0  0  0  0  0  0  0  0  0  0
   -7.6442    0.1393   -0.4417 C   0  0  0  0  0  0  0  0  0  0  0  0
   -8.4813    1.1658    0.3238 C   0  0  0  0  0  0  0  0  0  0  0  0
   -7.4429   -1.1099    0.4196 C   0  0  0  0  0  0  0  0  0  0  0  0
  1  8  1  0
  2 13  1  0
  3 25  1  0
  3 31  1  0
  4 26  2  0
  5 28  1  0
  5 30  1  0
  6 30  2  0
  7 31  2  0
  8  9  1  0
  8 10  1  0
  8 17  1  0
  9 11  1  0
  9 18  1  0
 10 14  1  0
 10 15  1  0
 10 22  1  0
 11 12  1  0
 11 16  1  0
 12 13  1  0
 12 21  1  0
 12 26  1  0
 13 19  1  0
 13 23  1  0
 14 20  1  0
 14 27  1  0
 15 16  1  0
 17 20  1  0
 18 19  1  0
 21 24  1  0
 23 25  1  0
 24 25  1  0
 27 28  1  0
 27 29  2  0
 29 30  1  0
 31 32  1  0
 32 33  1  0
 33 34  1  0
 33 35  1  0
M  END
>  <PUBCHEM_COMPOUND_CID>  (1) 
45937

>  <PUBCHEM_CONFORMER_RMSD>  (1) 
1

>  <PUBCHEM_CONFORMER_DIVERSEORDER>  (1) 
1
6
45
87
109
26
13
95
40
36
79
111
72
117
77
66
80
64
30
102
78
28
3
21
93
31
32
10
67
98
107
37
110
83
57
84
82
35
8
90
11
101
112
54
89
12
7
68
23
60
71
34
116
85
44
59
76
69
56
119
115
50
33
2
61
92
73
81
29
75
118
88
70
20
18
106
41
96
94
51
104
65
24
53
39
55
9
38
114
14
19
15
113
16
43
103
49
100
97
91
27
25
42
74
48
47
17
4
62
5
99
105
108
52
58
22
46
63
86

>  <PUBCHEM_MMFF94_PARTIAL_CHARGES>  (1) 
23
1 -0.68
12 0.06
13 0.28
14 0.14
2 -0.68
25 0.28
26 0.45
27 -0.28
28 0.42
29 -0.14
3 -0.43
30 0.71
31 0.66
32 0.06
4 -0.57
5 -0.43
6 -0.57
61 0.4
62 0.06
63 0.4
66 0.15
7 -0.57
8 0.28

>  <PUBCHEM_EFFECTIVE_ROTOR_COUNT>  (1) 
8.6

>  <PUBCHEM_PHARMACOPHORE_FEATURES>  (1) 
13
1 1 acceptor
1 1 donor
1 2 acceptor
1 2 donor
1 4 acceptor
1 6 acceptor
1 7 acceptor
3 33 34 35 hydrophobe
5 5 27 28 29 30 rings
5 8 10 14 17 20 rings
6 12 13 21 23 24 25 rings
6 8 9 10 11 15 16 rings
6 9 11 12 13 18 19 rings

>  <PUBCHEM_HEAVY_ATOM_COUNT>  (1) 
35

>  <PUBCHEM_ATOM_DEF_STEREO_COUNT>  (1) 
6

>  <PUBCHEM_ATOM_UDEF_STEREO_COUNT>  (1) 
2

>  <PUBCHEM_BOND_DEF_STEREO_COUNT>  (1) 
0

>  <PUBCHEM_BOND_UDEF_STEREO_COUNT>  (1) 
0

>  <PUBCHEM_ISOTOPIC_ATOM_COUNT>  (1) 
0

>  <PUBCHEM_COMPONENT_COUNT>  (1) 
1

>  <PUBCHEM_CACTVS_TAUTO_COUNT>  (1) 
1

>  <PUBCHEM_CONFORMER_ID>  (1) 
0000B37100000001

>  <PUBCHEM_MMFF94_ENERGY>  (1) 
112.5693

>  <PUBCHEM_FEATURE_SELFOVERLAP>  (1) 
66.207

>  <PUBCHEM_SHAPE_FINGERPRINT>  (1) 
10 15 17022620884151054592
10165383 225 18341894082676795642
10670039 82 16056885689312219225
10930396 42 15140955205478203949
11828532 37 13398051172013053325
12166972 35 10879986961178179482
12236239 1 18342454807752761683
13533116 47 17988921120133709407
13811026 1 18040721376840430883
13914758 101 14261359041683291538
14251764 18 18187082867002936837
14840074 17 18261104175553932020
14955137 171 17967540077745547228
15183329 4 15913611657295325554
15301273 46 18040999535521977827
15461852 350 18272090530742155015
15788980 27 14261355795389661722
15840311 113 17676492765925486108
15849732 13 18408041818816084829
18608769 82 18260828215631876587
21033648 29 18263913497236757256
22224240 67 17312822679907970058
23576562 1 18198904901624021932
24771293 8 18187650180770154021
249057 3 17060335253917403768
2838139 119 15267057038979944473
32027 91 11893537614843966024
3383291 50 15410891877133583287
350125 39 18186802495880599444
3633792 109 17703233910287557667
4017518 198 18272656740117669830
4098825 35 11527953339675932387
4258327 124 18339650047763146124
4340502 62 17917991664308066727
463206 1 10954044579509237185
5028188 123 18336556027318636542
5283156 175 9223236247416938172
58260988 393 15357970132395327292
59755656 520 18059846277630318047
6086070 43 17845651572389455352
6328613 192 18408891758748404088

>  <PUBCHEM_SHAPE_MULTIPOLES>  (1) 
679.2
20.69
2.09
1.57
6.45
0.63
-0.04
-7.58
0.75
0.03
-0.36
0.05
0.13
-0.77

>  <PUBCHEM_SHAPE_SELFOVERLAP>  (1) 
1460.537

>  <PUBCHEM_SHAPE_VOLUME>  (1) 
370.9

>  <PUBCHEM_COORDINATE_TYPE>  (1) 
2
5
10

$$$$
