45936
     RDKit          3D

 35 39  0  0  1  0  0  0  0  0999 V2000
    2.8839   -2.3721   -1.2251 O   0  0  0  0  0  0  0  0  0  0  0  0
   -1.5260   -3.3467   -0.2584 O   0  0  0  0  0  0  0  0  0  0  0  0
   -5.0752   -0.1773    0.3023 O   0  0  0  0  0  0  0  0  0  0  0  0
   -0.9602   -3.1235    2.3545 O   0  0  0  0  0  0  0  0  0  0  0  0
    6.6004    2.8777    1.1176 O   0  0  0  0  0  0  0  0  0  0  0  0
    8.6022    1.9096    0.5247 O   0  0  0  0  0  0  0  0  0  0  0  0
   -5.2131    1.8263   -0.8335 O   0  0  0  0  0  0  0  0  0  0  0  0
    2.5227   -0.9928   -1.0983 C   0  0  0  0  0  0  0  0  0  0  0  0
    0.9915   -0.8786   -0.8515 C   0  0  0  0  0  0  0  0  0  0  0  0
    3.3818   -0.2778    0.0150 C   0  0  0  0  0  0  0  0  0  0  0  0
    0.5970   -1.3707    0.5681 C   0  0  0  0  0  0  0  0  0  0  0  0
   -0.9455   -1.2250    0.8492 C   0  0  0  0  0  0  0  0  0  0  0  0
   -1.7719   -1.9308   -0.2764 C   0  0  0  0  0  0  0  0  0  0  0  0
    4.0473    0.9127   -0.7475 C   0  0  0  0  0  0  0  0  0  0  0  0
    2.4959    0.2721    1.1561 C   0  0  0  0  0  0  0  0  0  0  0  0
    1.4924   -0.7550    1.6727 C   0  0  0  0  0  0  0  0  0  0  0  0
    2.9315   -0.3246   -2.4327 C   0  0  0  0  0  0  0  0  0  0  0  0
    0.1688   -1.6294   -1.9118 C   0  0  0  0  0  0  0  0  0  0  0  0
   -1.3312   -1.4567   -1.6778 C   0  0  0  0  0  0  0  0  0  0  0  0
    4.2622    0.3581   -2.1519 C   0  0  0  0  0  0  0  0  0  0  0  0
   -1.3850    0.2582    0.9960 C   0  0  0  0  0  0  0  0  0  0  0  0
    4.4518   -1.2213    0.6219 C   0  0  0  0  0  0  0  0  0  0  0  0
   -3.2876   -1.7184   -0.0978 C   0  0  0  0  0  0  0  0  0  0  0  0
   -2.8995    0.4519    1.1209 C   0  0  0  0  0  0  0  0  0  0  0  0
   -3.6807   -0.2497    0.0167 C   0  0  0  0  0  0  0  0  0  0  0  0
   -1.2077   -1.9370    2.1664 C   0  0  0  0  0  0  0  0  0  0  0  0
    5.2838    1.4954   -0.1461 C   0  0  0  0  0  0  0  0  0  0  0  0
    5.2284    2.6403    0.7855 C   0  0  0  0  0  0  0  0  0  0  0  0
    6.5376    1.0983   -0.3460 C   0  0  0  0  0  0  0  0  0  0  0  0
    7.3870    1.9778    0.4586 C   0  0  0  0  0  0  0  0  0  0  0  0
   -5.7257    0.9234   -0.1865 C   0  0  0  0  0  0  0  0  0  0  0  0
   -7.1854    0.8467    0.1990 C   0  0  0  0  0  0  0  0  0  0  0  0
   -7.9727    2.0590   -0.2956 C   0  0  0  0  0  0  0  0  0  0  0  0
   -9.4527    1.9471    0.0678 C   0  0  0  0  0  0  0  0  0  0  0  0
  -10.2461    3.1331   -0.4562 C   0  0  0  0  0  0  0  0  0  0  0  0
  1  8  1  0
  2 13  1  0
  3 25  1  0
  3 31  1  0
  4 26  2  0
  5 28  1  0
  5 30  1  0
  6 30  2  0
  7 31  2  0
  8  9  1  0
  8 10  1  0
  8 17  1  0
  9 11  1  0
  9 18  1  0
 10 14  1  0
 10 15  1  0
 10 22  1  0
 11 12  1  0
 11 16  1  0
 12 13  1  0
 12 21  1  0
 12 26  1  0
 13 19  1  0
 13 23  1  0
 14 20  1  0
 14 27  1  0
 15 16  1  0
 17 20  1  0
 18 19  1  0
 21 24  1  0
 23 25  1  0
 24 25  1  0
 27 28  1  0
 27 29  2  0
 29 30  1  0
 31 32  1  0
 32 33  1  0
 33 34  1  0
 34 35  1  0
M  END
>  <PUBCHEM_COMPOUND_CID>  (1) 
45936

>  <PUBCHEM_CONFORMER_RMSD>  (1) 
1

>  <PUBCHEM_CONFORMER_DIVERSEORDER>  (1) 
1
65
70
82
36
46
51
61
86
20
88
15
48
95
64
13
85
81
32
57
50
93
58
92
62
54
47
24
56
45
35
72
59
74
37
84
83
33
18
27
21
63
25
53
42
91
90
38
49
55
60
79
12
73
16
6
30
80
67
19
69
94
68
43
9
44
89
77
76
11
7
10
78
39
75
87
23
40
22
66
71
34
29
17
31
52
3
26
4
28
14
8
41
2
5

>  <PUBCHEM_MMFF94_PARTIAL_CHARGES>  (1) 
23
1 -0.68
12 0.06
13 0.28
14 0.14
2 -0.68
25 0.28
26 0.45
27 -0.28
28 0.42
29 -0.14
3 -0.43
30 0.71
31 0.66
32 0.06
4 -0.57
5 -0.43
6 -0.57
61 0.4
62 0.06
63 0.4
66 0.15
7 -0.57
8 0.28

>  <PUBCHEM_EFFECTIVE_ROTOR_COUNT>  (1) 
9.6

>  <PUBCHEM_PHARMACOPHORE_FEATURES>  (1) 
13
1 1 acceptor
1 1 donor
1 2 acceptor
1 2 donor
1 35 hydrophobe
1 4 acceptor
1 6 acceptor
1 7 acceptor
5 5 27 28 29 30 rings
5 8 10 14 17 20 rings
6 12 13 21 23 24 25 rings
6 8 9 10 11 15 16 rings
6 9 11 12 13 18 19 rings

>  <PUBCHEM_HEAVY_ATOM_COUNT>  (1) 
35

>  <PUBCHEM_ATOM_DEF_STEREO_COUNT>  (1) 
6

>  <PUBCHEM_ATOM_UDEF_STEREO_COUNT>  (1) 
2

>  <PUBCHEM_BOND_DEF_STEREO_COUNT>  (1) 
0

>  <PUBCHEM_BOND_UDEF_STEREO_COUNT>  (1) 
0

>  <PUBCHEM_ISOTOPIC_ATOM_COUNT>  (1) 
0

>  <PUBCHEM_COMPONENT_COUNT>  (1) 
1

>  <PUBCHEM_CACTVS_TAUTO_COUNT>  (1) 
1

>  <PUBCHEM_CONFORMER_ID>  (1) 
0000B37000000001

>  <PUBCHEM_MMFF94_ENERGY>  (1) 
103.6229

>  <PUBCHEM_FEATURE_SELFOVERLAP>  (1) 
66.12

>  <PUBCHEM_SHAPE_FINGERPRINT>  (1) 
10533779 47 14996561729824439657
11135609 12 10953734526304876484
11135609 127 18201712942488142460
11409948 41 15841007559736652140
11456790 92 14923943445054297445
11607047 141 17896877651687592914
11961588 58 18131354119695676438
12422481 6 15647323130834886094
12633257 1 16878504674094502758
12838862 33 17489581277781548984
13583140 156 18268156534152006282
13673619 4 9007063456802845062
13911987 19 16343710949543485207
14341114 176 12540690462168926702
14359421 15 12463576162479139637
14767858 380 15482397516624335676
14931854 50 16056891229556240644
15082195 135 17346600768288351120
15183329 4 15769775724600174873
15238133 3 17968384541177157452
15510800 12 9511456745629666261
15840311 113 18041280959671334855
16994733 274 18409729552607460585
17492 54 16702304550850421831
19302320 297 17822295716629069532
19438510 23 18409166623195076163
2026 5 9655584006827293169
20505436 4 18334287678242397771
20511986 3 17202479078454655380
20715895 44 18343024423706702188
20721686 124 18202566147097092326
20721686 146 18339927117032397988
21033648 29 17967538977743003379
21424621 283 18334012787734589179
21756936 100 18187361086305175995
21781055 127 17676779703931720622
23522609 53 15937274307931380414
23559900 14 15410331199925022794
23576562 1 16844716677077539337
24771293 8 18260827108058023901
25269216 80 17560505306039219541
2838139 119 18341608200805254661
3004659 81 12679459777086093573
3178227 256 14345793860122862196
3918712 181 18340764850329739561
392239 28 14779265340909543035
4093350 32 18261390032120425970
4112364 45 18187918427031191723
439807 62 8646768910981416949
445580 126 17676206862315539005
5372103 7 18131068242578356949
5385378 56 17458335335100592178
6058803 2 15867475221781895870
6691757 9 17023735848575692555
9980921 177 18262785282231590864

>  <PUBCHEM_SHAPE_MULTIPOLES>  (1) 
679.2
23.55
3.25
1.81
38.19
0.21
0.21
33.34
0.87
0.96
-0.57
-1.36
-0.96
2.07

>  <PUBCHEM_SHAPE_SELFOVERLAP>  (1) 
1451.968

>  <PUBCHEM_SHAPE_VOLUME>  (1) 
372.8

>  <PUBCHEM_COORDINATE_TYPE>  (1) 
2
5
10

$$$$
