45932
     RDKit          3D

 34 38  0  0  1  0  0  0  0  0999 V2000
    2.7667   -1.3950    0.6598 O   0  0  0  0  0  0  0  0  0  0  0  0
   -3.5470   -0.3190    1.2807 O   0  0  0  0  0  0  0  0  0  0  0  0
   -4.9109    0.6487   -1.0274 O   0  0  0  0  0  0  0  0  0  0  0  0
   -1.9603    2.4370    2.4855 O   0  0  0  0  0  0  0  0  0  0  0  0
    7.3143   -0.1932    0.5655 O   0  0  0  0  0  0  0  0  0  0  0  0
    7.3120   -2.4919    0.6754 O   0  0  0  0  0  0  0  0  0  0  0  0
   -5.7118   -1.2971   -1.9736 O   0  0  0  0  0  0  0  0  0  0  0  0
    2.0668   -0.3876   -0.0862 C   0  0  0  0  0  0  0  0  0  0  0  0
    0.6294   -0.2701    0.4913 C   0  0  0  0  0  0  0  0  0  0  0  0
    2.8660    0.9431   -0.0685 C   0  0  0  0  0  0  0  0  0  0  0  0
   -0.1857    0.9153   -0.0964 C   0  0  0  0  0  0  0  0  0  0  0  0
   -1.6181    1.0252    0.5484 C   0  0  0  0  0  0  0  0  0  0  0  0
   -2.3773   -0.3403    0.4457 C   0  0  0  0  0  0  0  0  0  0  0  0
    4.0540    0.6518   -1.0394 C   0  0  0  0  0  0  0  0  0  0  0  0
    2.0053    2.0897   -0.6631 C   0  0  0  0  0  0  0  0  0  0  0  0
    0.6300    2.2219   -0.0124 C   0  0  0  0  0  0  0  0  0  0  0  0
    2.1353   -0.8257   -1.5609 C   0  0  0  0  0  0  0  0  0  0  0  0
   -0.1416   -1.5949    0.3477 C   0  0  0  0  0  0  0  0  0  0  0  0
   -1.5315   -1.5182    0.9636 C   0  0  0  0  0  0  0  0  0  0  0  0
    3.4473   -0.2596   -2.1230 C   0  0  0  0  0  0  0  0  0  0  0  0
   -2.4781    2.1487   -0.0954 C   0  0  0  0  0  0  0  0  0  0  0  0
    3.3407    1.3592    1.3384 C   0  0  0  0  0  0  0  0  0  0  0  0
   -2.8450   -0.6286   -1.0068 C   0  0  0  0  0  0  0  0  0  0  0  0
   -2.8963    1.8477   -1.5338 C   0  0  0  0  0  0  0  0  0  0  0  0
   -3.6335    0.5186   -1.6470 C   0  0  0  0  0  0  0  0  0  0  0  0
   -1.4678    1.4209    2.0065 C   0  0  0  0  0  0  0  0  0  0  0  0
    5.2610   -0.0002   -0.4285 C   0  0  0  0  0  0  0  0  0  0  0  0
    6.3989    0.7936    0.0784 C   0  0  0  0  0  0  0  0  0  0  0  0
    5.4725   -1.3032   -0.2641 C   0  0  0  0  0  0  0  0  0  0  0  0
    6.7845   -1.4359    0.3711 C   0  0  0  0  0  0  0  0  0  0  0  0
   -5.7142   -0.4584   -1.0830 C   0  0  0  0  0  0  0  0  0  0  0  0
   -6.6100   -0.4817    0.1344 C   0  0  0  0  0  0  0  0  0  0  0  0
   -6.9910   -1.9042    0.5367 C   0  0  0  0  0  0  0  0  0  0  0  0
   -7.8647   -1.9168    1.7803 C   0  0  0  0  0  0  0  0  0  0  0  0
  1  8  1  0
  2 13  1  0
  3 25  1  0
  3 31  1  0
  4 26  2  0
  5 28  1  0
  5 30  1  0
  6 30  2  0
  7 31  2  0
  8  9  1  0
  8 10  1  0
  8 17  1  0
  9 11  1  0
  9 18  1  0
 10 14  1  0
 10 15  1  0
 10 22  1  0
 11 12  1  0
 11 16  1  0
 12 13  1  0
 12 21  1  0
 12 26  1  0
 13 19  1  0
 13 23  1  0
 14 20  1  0
 14 27  1  0
 15 16  1  0
 17 20  1  0
 18 19  1  0
 21 24  1  0
 23 25  1  0
 24 25  1  0
 27 28  1  0
 27 29  2  0
 29 30  1  0
 31 32  1  0
 32 33  1  0
 33 34  1  0
M  END
>  <PUBCHEM_COMPOUND_CID>  (1) 
45932

>  <PUBCHEM_CONFORMER_RMSD>  (1) 
1

>  <PUBCHEM_CONFORMER_DIVERSEORDER>  (1) 
1
76
87
64
42
35
49
44
8
32
54
11
12
29
50
16
55
92
53
88
25
2
19
63
47
75
73
74
71
84
31
21
52
24
72
67
4
70
34
93
90
61
94
37
7
95
69
79
86
81
13
57
59
60
41
6
80
43
23
20
10
77
17
68
62
39
40
65
56
5
85
82
38
26
33
14
22
18
36
3
30
78
15
9
58
48
89
51
91
45
28
83
46
27
66

>  <PUBCHEM_MMFF94_PARTIAL_CHARGES>  (1) 
23
1 -0.68
12 0.06
13 0.28
14 0.14
2 -0.68
25 0.28
26 0.45
27 -0.28
28 0.42
29 -0.14
3 -0.43
30 0.71
31 0.66
32 0.06
4 -0.57
5 -0.43
6 -0.57
60 0.4
61 0.06
62 0.4
65 0.15
7 -0.57
8 0.28

>  <PUBCHEM_EFFECTIVE_ROTOR_COUNT>  (1) 
8.6

>  <PUBCHEM_PHARMACOPHORE_FEATURES>  (1) 
13
1 1 acceptor
1 1 donor
1 2 acceptor
1 2 donor
1 34 hydrophobe
1 4 acceptor
1 6 acceptor
1 7 acceptor
5 5 27 28 29 30 rings
5 8 10 14 17 20 rings
6 12 13 21 23 24 25 rings
6 8 9 10 11 15 16 rings
6 9 11 12 13 18 19 rings

>  <PUBCHEM_HEAVY_ATOM_COUNT>  (1) 
34

>  <PUBCHEM_ATOM_DEF_STEREO_COUNT>  (1) 
6

>  <PUBCHEM_ATOM_UDEF_STEREO_COUNT>  (1) 
2

>  <PUBCHEM_BOND_DEF_STEREO_COUNT>  (1) 
0

>  <PUBCHEM_BOND_UDEF_STEREO_COUNT>  (1) 
0

>  <PUBCHEM_ISOTOPIC_ATOM_COUNT>  (1) 
0

>  <PUBCHEM_COMPONENT_COUNT>  (1) 
1

>  <PUBCHEM_CACTVS_TAUTO_COUNT>  (1) 
1

>  <PUBCHEM_CONFORMER_ID>  (1) 
0000B36C00000001

>  <PUBCHEM_MMFF94_ENERGY>  (1) 
107.1517

>  <PUBCHEM_FEATURE_SELFOVERLAP>  (1) 
66.207

>  <PUBCHEM_SHAPE_FINGERPRINT>  (1) 
10 15 12679459790023866526
10076449 9 17894920658739898769
11089746 13 13190057601005418967
11646440 116 18272372000827767193
11672396 43 18187091628473217170
12107698 1 18202560687591758292
12166972 35 18333448755191407684
12236239 1 18272931609249185244
12422481 6 15912788111150798237
12788726 201 17917991634026731985
13782708 43 18188492488302390883
13811026 1 18261104167570638976
13914758 101 17313099718241381932
14068700 675 18060133266875888453
14856354 85 13551485726499283314
15064986 266 18261120663870363341
15082195 135 16879366703441791820
15142383 8 12247685963110421922
15183329 4 15719672074691085374
15461852 350 17967538960932510238
15510800 12 18270974457710449838
15788980 27 17676498216080722028
17349148 13 18272373062217549404
17980427 23 18060426789932281192
18608769 82 18113619023458242131
19377110 9 17203612558192850326
200 152 17989484121494720205
21267235 1 18408325488204552836
21781051 124 17749402510996749779
21792961 116 18335696114667888911
21927370 108 18201450154930292624
23559900 14 18262231235128603896
23569917 315 18260554390114266394
23576562 1 11170497749988985563
2838139 119 14851604362959130135
3178227 256 18343024414578736359
3383291 50 18259983794744011827
3633792 109 18114734928469511942
4325135 7 14692569936092176798
463206 1 17702655708931668895
484989 97 17822018661283949963
5104073 3 16127819535348675574
58083652 198 17560792273941978377
59755656 215 17240481399122629370
6086070 43 13118293597904479855
6328613 192 8070020099653626950

>  <PUBCHEM_SHAPE_MULTIPOLES>  (1) 
658.62
18.6
2.31
1.76
1.17
0.2
-0.06
-12.41
-0.87
0.32
-0.6
1.61
0.37
0.48

>  <PUBCHEM_SHAPE_SELFOVERLAP>  (1) 
1418.031

>  <PUBCHEM_SHAPE_VOLUME>  (1) 
359.1

>  <PUBCHEM_COORDINATE_TYPE>  (1) 
2
5
10

$$$$
