45946
     RDKit          3D

 13 14  0  0  0  0  0  0  0  0999 V2000
    2.1460    2.3186    0.0006 Cl  0  0  0  0  0  0  0  0  0  0  0  0
   -4.3686   -0.3162   -0.0002 Cl  0  0  0  0  0  0  0  0  0  0  0  0
    3.7237   -0.1563   -0.0011 O   0  0  0  0  0  0  0  0  0  0  0  0
    0.0900    0.4811    0.0000 C   0  0  0  0  0  0  0  0  0  0  0  0
   -0.3903   -0.8502    0.0002 C   0  0  0  0  0  0  0  0  0  0  0  0
    1.4754    0.7114    0.0001 C   0  0  0  0  0  0  0  0  0  0  0  0
    0.5290   -1.9120    0.0003 C   0  0  0  0  0  0  0  0  0  0  0  0
   -0.8293    1.5429   -0.0001 C   0  0  0  0  0  0  0  0  0  0  0  0
   -1.7756   -1.0805    0.0001 C   0  0  0  0  0  0  0  0  0  0  0  0
    2.3743   -0.3556    0.0002 C   0  0  0  0  0  0  0  0  0  0  0  0
    1.9021   -1.6647    0.0003 C   0  0  0  0  0  0  0  0  0  0  0  0
   -2.2023    1.2954   -0.0002 C   0  0  0  0  0  0  0  0  0  0  0  0
   -2.6745   -0.0137   -0.0001 C   0  0  0  0  0  0  0  0  0  0  0  0
  1  6  1  0
  2 13  1  0
  3 10  1  0
  4  5  1  0
  4  6  2  0
  4  8  1  0
  5  7  2  0
  5  9  1  0
  6 10  1  0
  7 11  1  0
  8 12  2  0
  9 13  2  0
 10 11  2  0
 12 13  1  0
M  END
>  <PUBCHEM_COMPOUND_CID>  (1) 
45946

>  <PUBCHEM_CONFORMER_RMSD>  (1) 
0.4

>  <PUBCHEM_CONFORMER_DIVERSEORDER>  (1) 
1

>  <PUBCHEM_MMFF94_PARTIAL_CHARGES>  (1) 
17
1 -0.18
10 0.08
11 -0.15
12 -0.15
13 0.18
14 0.15
15 0.15
16 0.15
17 0.15
18 0.15
19 0.45
2 -0.18
3 -0.53
6 0.18
7 -0.15
8 -0.15
9 -0.15

>  <PUBCHEM_EFFECTIVE_ROTOR_COUNT>  (1) 
0

>  <PUBCHEM_PHARMACOPHORE_FEATURES>  (1) 
3
1 3 donor
6 4 5 6 7 10 11 rings
6 4 5 8 9 12 13 rings

>  <PUBCHEM_HEAVY_ATOM_COUNT>  (1) 
13

>  <PUBCHEM_ATOM_DEF_STEREO_COUNT>  (1) 
0

>  <PUBCHEM_ATOM_UDEF_STEREO_COUNT>  (1) 
0

>  <PUBCHEM_BOND_DEF_STEREO_COUNT>  (1) 
0

>  <PUBCHEM_BOND_UDEF_STEREO_COUNT>  (1) 
0

>  <PUBCHEM_ISOTOPIC_ATOM_COUNT>  (1) 
0

>  <PUBCHEM_COMPONENT_COUNT>  (1) 
1

>  <PUBCHEM_CACTVS_TAUTO_COUNT>  (1) 
3

>  <PUBCHEM_CONFORMER_ID>  (1) 
0000B37A00000001

>  <PUBCHEM_MMFF94_ENERGY>  (1) 
36.3262

>  <PUBCHEM_FEATURE_SELFOVERLAP>  (1) 
15.249

>  <PUBCHEM_SHAPE_FINGERPRINT>  (1) 
10608611 8 18335978701519149541
10967382 1 18410855485913802820
11132069 177 18341604962278412147
11206711 2 18336550417083824621
11471102 20 18410289199134776559
12032990 46 18268434533962142806
13140716 1 18266455593172651546
13221675 6 18411420600678681279
13380535 76 18337952410652865498
13897977 150 18338514273974429021
14144814 61 18338797810329557707
14251717 144 18412539938202445887
14325111 11 18338516335300125313
14911166 2 18411145740241614190
15536298 74 18271526489297321700
15775835 57 18200035169417158501
16945 1 18410855442969547527
17844478 74 18113625560392775925
17990270 104 18267304239934335250
193761 8 17834114529965210726
200 152 18201991119631433941
20201158 50 18408604742878564683
20559304 39 18409448059722757130
20645477 70 18412822487179593071
21267235 1 18411146817893601591
21501502 16 18265897943271942817
2334 1 18050568748427386274
23402539 116 18341601620973437919
23402655 69 18340759344043795317
23463225 33 18408603643139882120
23552423 10 18408322193991004085
2748010 2 18121786289848812886
5084963 1 18202001023171936216
528886 8 18411414024925495667
53812653 166 18342451547967425760
581208 293 18340761632828704049
63268167 104 18337956662417242112
7364860 26 18342740741005869164
8809292 202 18187370964624422731

>  <PUBCHEM_SHAPE_MULTIPOLES>  (1) 
265.4
5.53
2.11
0.62
2.97
0.38
0
0.04
0
-1.08
0
0.03
0.01
0

>  <PUBCHEM_SHAPE_SELFOVERLAP>  (1) 
565.305

>  <PUBCHEM_SHAPE_VOLUME>  (1) 
150.2

>  <PUBCHEM_COORDINATE_TYPE>  (1) 
2
5
10

$$$$
