45943
     RDKit          3D

 12 13  0  0  0  0  0  0  0  0999 V2000
   -3.4816   -1.5146   -0.0009 Br  0  0  0  0  0  0  0  0  0  0  0  0
   -2.8981    1.5479    0.0003 O   0  0  0  0  0  0  0  0  0  0  0  0
    0.6666    0.7038   -0.0001 C   0  0  0  0  0  0  0  0  0  0  0  0
    0.6093   -0.7103    0.0002 C   0  0  0  0  0  0  0  0  0  0  0  0
   -0.5298    1.4395    0.0000 C   0  0  0  0  0  0  0  0  0  0  0  0
   -0.6424   -1.3471    0.0004 C   0  0  0  0  0  0  0  0  0  0  0  0
    1.9183    1.3404   -0.0003 C   0  0  0  0  0  0  0  0  0  0  0  0
    1.8056   -1.4461    0.0002 C   0  0  0  0  0  0  0  0  0  0  0  0
   -1.7646    0.7902    0.0001 C   0  0  0  0  0  0  0  0  0  0  0  0
   -1.8208   -0.6003    0.0004 C   0  0  0  0  0  0  0  0  0  0  0  0
    3.0968    0.5936   -0.0003 C   0  0  0  0  0  0  0  0  0  0  0  0
    3.0406   -0.7970    0.0000 C   0  0  0  0  0  0  0  0  0  0  0  0
  1 10  1  0
  2  9  1  0
  3  4  1  0
  3  5  2  0
  3  7  1  0
  4  6  2  0
  4  8  1  0
  5  9  1  0
  6 10  1  0
  7 11  2  0
  8 12  2  0
  9 10  2  0
 11 12  1  0
M  END
>  <PUBCHEM_COMPOUND_CID>  (1) 
45943

>  <PUBCHEM_CONFORMER_RMSD>  (1) 
0.4

>  <PUBCHEM_CONFORMER_DIVERSEORDER>  (1) 
1

>  <PUBCHEM_MMFF94_PARTIAL_CHARGES>  (1) 
17
1 -0.11
10 0.11
11 -0.15
12 -0.15
13 0.15
14 0.15
15 0.15
16 0.15
17 0.15
18 0.15
19 0.45
2 -0.53
5 -0.15
6 -0.15
7 -0.15
8 -0.15
9 0.08

>  <PUBCHEM_EFFECTIVE_ROTOR_COUNT>  (1) 
0

>  <PUBCHEM_PHARMACOPHORE_FEATURES>  (1) 
4
1 1 hydrophobe
1 2 donor
6 3 4 5 6 9 10 rings
6 3 4 7 8 11 12 rings

>  <PUBCHEM_HEAVY_ATOM_COUNT>  (1) 
12

>  <PUBCHEM_ATOM_DEF_STEREO_COUNT>  (1) 
0

>  <PUBCHEM_ATOM_UDEF_STEREO_COUNT>  (1) 
0

>  <PUBCHEM_BOND_DEF_STEREO_COUNT>  (1) 
0

>  <PUBCHEM_BOND_UDEF_STEREO_COUNT>  (1) 
0

>  <PUBCHEM_ISOTOPIC_ATOM_COUNT>  (1) 
0

>  <PUBCHEM_COMPONENT_COUNT>  (1) 
1

>  <PUBCHEM_CACTVS_TAUTO_COUNT>  (1) 
3

>  <PUBCHEM_CONFORMER_ID>  (1) 
0000B37700000001

>  <PUBCHEM_MMFF94_ENERGY>  (1) 
32.6378

>  <PUBCHEM_FEATURE_SELFOVERLAP>  (1) 
20.324

>  <PUBCHEM_SHAPE_FINGERPRINT>  (1) 
10608611 8 18411133640870666432
10967382 1 18194683661619924035
11206711 2 18408886256467555991
11471102 20 18338230587173970111
11769659 78 18408880732976361954
12032990 46 18410862087294705343
12932764 1 17459186300506103902
13380535 21 18339373963001851805
13380535 76 18340201865525222431
14144814 61 18410855468755130242
14325111 11 18410573985220250272
15775835 57 18335427824502292012
16945 1 18266459999766684422
17844478 74 18260557761483049955
17990270 104 18411420592278624742
193761 8 14952090521206156807
19973954 147 18410857650667055748
200 152 18130496518354363919
20201158 50 18335419127119892035
20510252 161 18272936045918727849
20645477 70 18411976983975715191
20871998 184 18202002131553275007
21501502 16 18409168800701218827
21501925 9 18337096943404150138
2334 1 18410575101885159111
23402539 116 18339630256664843295
23402655 69 18268978814046189229
23463225 33 18408886239171648342
23552423 10 18333170570058957382
23559900 14 18270681949363246718
2748010 2 18411417302001126429
5084963 1 18271809050805618050
528886 8 18338792312803112768
53812653 166 18342733001306010000
7364860 26 18198344151026035256

>  <PUBCHEM_SHAPE_MULTIPOLES>  (1) 
247.03
5.25
1.88
0.62
1.1
0.16
0
-0.99
0
0.52
0
0.02
-0.03
0

>  <PUBCHEM_SHAPE_SELFOVERLAP>  (1) 
528.155

>  <PUBCHEM_SHAPE_VOLUME>  (1) 
142.4

>  <PUBCHEM_COORDINATE_TYPE>  (1) 
2
5
10

$$$$
