45958
     RDKit          3D

 14 13  0  0  0  0  0  0  0  0999 V2000
   -0.2215    0.2426   -0.0882 O   0  0  0  0  0  0  0  0  0  0  0  0
   -1.1894   -1.6486    0.7542 O   0  0  0  0  0  0  0  0  0  0  0  0
    3.5038    0.0230   -0.0922 N   0  0  0  0  0  0  0  0  0  0  0  0
   -2.5298    0.1004    0.0108 N   0  0  0  0  0  0  0  0  0  0  0  0
    2.1340    0.6516   -0.3034 C   0  0  0  0  0  0  0  0  0  0  0  0
    3.5963   -1.2713   -0.8874 C   0  0  0  0  0  0  0  0  0  0  0  0
    4.5824    0.9870   -0.5650 C   0  0  0  0  0  0  0  0  0  0  0  0
    3.7028   -0.2751    1.3869 C   0  0  0  0  0  0  0  0  0  0  0  0
    1.0619   -0.3242    0.1401 C   0  0  0  0  0  0  0  0  0  0  0  0
   -1.3052   -0.5262    0.2649 C   0  0  0  0  0  0  0  0  0  0  0  0
   -3.8048   -0.5426    0.3133 C   0  0  0  0  0  0  0  0  0  0  0  0
   -2.6083    1.4328   -0.5709 C   0  0  0  0  0  0  0  0  0  0  0  0
   -4.3057   -1.3524   -0.8705 C   0  0  0  0  0  0  0  0  0  0  0  0
   -2.6164    2.5030    0.5074 C   0  0  0  0  0  0  0  0  0  0  0  0
  1  9  1  0
  1 10  1  0
  2 10  2  0
  3  5  1  0
  3  6  1  0
  3  7  1  0
  3  8  1  0
  4 10  1  0
  4 11  1  0
  4 12  1  0
  5  9  1  0
 11 13  1  0
 12 14  1  0
M  CHG  1   3   1
M  END
>  <PUBCHEM_COMPOUND_CID>  (1) 
45958

>  <PUBCHEM_CONFORMER_RMSD>  (1) 
0.8

>  <PUBCHEM_CONFORMER_DIVERSEORDER>  (1) 
2
28
39
31
10
26
52
37
3
51
34
36
48
22
1
50
11
33
4
30
25
21
20
42
41
35
38
5
32
12
16
17
24
6
23
15
44
29
43
40
45
47
46
27
9
19
18
14
8
13
7
49

>  <PUBCHEM_MMFF94_PARTIAL_CHARGES>  (1) 
12
1 -0.43
10 0.78
11 0.3
12 0.3
2 -0.57
3 -1.01
4 -0.66
5 0.5
6 0.5
7 0.5
8 0.5
9 0.28

>  <PUBCHEM_EFFECTIVE_ROTOR_COUNT>  (1) 
7

>  <PUBCHEM_PHARMACOPHORE_FEATURES>  (1) 
2
1 2 acceptor
1 3 cation

>  <PUBCHEM_HEAVY_ATOM_COUNT>  (1) 
14

>  <PUBCHEM_ATOM_DEF_STEREO_COUNT>  (1) 
0

>  <PUBCHEM_ATOM_UDEF_STEREO_COUNT>  (1) 
0

>  <PUBCHEM_BOND_DEF_STEREO_COUNT>  (1) 
0

>  <PUBCHEM_BOND_UDEF_STEREO_COUNT>  (1) 
0

>  <PUBCHEM_ISOTOPIC_ATOM_COUNT>  (1) 
0

>  <PUBCHEM_COMPONENT_COUNT>  (1) 
1

>  <PUBCHEM_CACTVS_TAUTO_COUNT>  (1) 
1

>  <PUBCHEM_CONFORMER_ID>  (1) 
0000B38600000002

>  <PUBCHEM_MMFF94_ENERGY>  (1) 
30.3433

>  <PUBCHEM_FEATURE_SELFOVERLAP>  (1) 
10.148

>  <PUBCHEM_SHAPE_FINGERPRINT>  (1) 
12162725 195 18334297573751432572
12932764 1 17203601584466896212
13296908 3 18201722812623558590
14123238 8 18341331175440873742
14144814 61 17894348860926962032
14325111 11 18408605825194336556
17834072 32 18043531620718099229
18186145 218 18265335010572315172
187816 3 18260543468243546711
190213 19 15574715794073316840
19107657 47 16225761904519410837
1986462 14 18339927021650923845
200 152 18334849554843598791
20279233 1 18410863183102151050
20300324 65 18412262852634832453
20510252 161 18412267224674338601
20645477 56 18272374114321097609
20645477 70 17846509093387367390
23048698 100 17095235930336202416
23380061 127 18341609304770033557
23402539 116 18410567410062981967
23532345 12 18260822653902156800
23557571 272 17988372507002486533
23559900 14 18339076111536718920
3268164 11 18411129238903468573
474 4 16806742870143816412
573450 72 18262224534973964464
58051976 378 18337958999428174830
69090 78 18343018925689763927
9709674 26 18411427202196662486

>  <PUBCHEM_SHAPE_MULTIPOLES>  (1) 
266.41
9.62
1.82
0.98
3.58
0.81
0.12
-0.63
-1.2
-1.73
-0.02
0.49
-0.13
-0.3

>  <PUBCHEM_SHAPE_SELFOVERLAP>  (1) 
490.914

>  <PUBCHEM_SHAPE_VOLUME>  (1) 
171.4

>  <PUBCHEM_COORDINATE_TYPE>  (1) 
2
5
10

$$$$
