45950
     RDKit          3D

 13 12  0  0  0  0  0  0  0  0999 V2000
   -0.0202   -0.0425   -1.2105 P   0  0  0  0  0  0  0  0  0  0  0  0
    2.4349   -2.2974    1.4640 F   0  0  0  0  0  0  0  0  0  0  0  0
    0.6114    3.2945    1.3843 F   0  0  0  0  0  0  0  0  0  0  0  0
   -3.3298   -0.7666    1.3950 F   0  0  0  0  0  0  0  0  0  0  0  0
    1.2424   -0.6340   -0.3805 O   0  0  0  0  0  0  0  0  0  0  0  0
   -0.0850    1.4210   -0.5123 O   0  0  0  0  0  0  0  0  0  0  0  0
   -1.2040   -0.7528   -0.3578 O   0  0  0  0  0  0  0  0  0  0  0  0
    1.6413   -1.9579   -0.7061 C   0  0  0  0  0  0  0  0  0  0  0  0
    1.0768    2.2285   -0.6410 C   0  0  0  0  0  0  0  0  0  0  0  0
   -2.5324   -0.4794   -0.7812 C   0  0  0  0  0  0  0  0  0  0  0  0
    2.8218   -2.3378    0.1594 C   0  0  0  0  0  0  0  0  0  0  0  0
    0.8363    3.5441    0.0651 C   0  0  0  0  0  0  0  0  0  0  0  0
   -3.4935   -1.2196    0.1217 C   0  0  0  0  0  0  0  0  0  0  0  0
  1  5  1  0
  1  6  1  0
  1  7  1  0
  2 11  1  0
  3 12  1  0
  4 13  1  0
  5  8  1  0
  6  9  1  0
  7 10  1  0
  8 11  1  0
  9 12  1  0
 10 13  1  0
M  END
>  <PUBCHEM_COMPOUND_CID>  (1) 
45950

>  <PUBCHEM_CONFORMER_RMSD>  (1) 
0.8

>  <PUBCHEM_CONFORMER_DIVERSEORDER>  (1) 
1
41
37
28
32
35
50
17
18
43
3
51
45
9
40
26
11
24
5
44
19
34
53
42
39
6
52
10
49
27
38
54
16
7
36
15
2
25
13
33
46
8
20
23
31
47
4
14
22
48
12
30
21
29

>  <PUBCHEM_MMFF94_PARTIAL_CHARGES>  (1) 
13
1 0.3
10 0.28
11 0.34
12 0.34
13 0.34
2 -0.34
3 -0.34
4 -0.34
5 -0.38
6 -0.38
7 -0.38
8 0.28
9 0.28

>  <PUBCHEM_EFFECTIVE_ROTOR_COUNT>  (1) 
9

>  <PUBCHEM_PHARMACOPHORE_FEATURES>  (1) 
0

>  <PUBCHEM_HEAVY_ATOM_COUNT>  (1) 
13

>  <PUBCHEM_ATOM_DEF_STEREO_COUNT>  (1) 
0

>  <PUBCHEM_ATOM_UDEF_STEREO_COUNT>  (1) 
0

>  <PUBCHEM_BOND_DEF_STEREO_COUNT>  (1) 
0

>  <PUBCHEM_BOND_UDEF_STEREO_COUNT>  (1) 
0

>  <PUBCHEM_ISOTOPIC_ATOM_COUNT>  (1) 
0

>  <PUBCHEM_COMPONENT_COUNT>  (1) 
1

>  <PUBCHEM_CACTVS_TAUTO_COUNT>  (1) 
1

>  <PUBCHEM_CONFORMER_ID>  (1) 
0000B37E00000001

>  <PUBCHEM_MMFF94_ENERGY>  (1) 
7.5564

>  <PUBCHEM_FEATURE_SELFOVERLAP>  (1) 
0

>  <PUBCHEM_SHAPE_FINGERPRINT>  (1) 
11357001 24 17832424198378341386
13275264 69 18120653535095090274
136203 1 17834111948663362152
15502708 68 18049156962649343581
17841504 4 18408327691976644847
19021347 4 17401486447083756310
20711985 327 18342738494485051975
20711985 344 17835533621488256814
21061003 4 18408601431474863711
21524375 3 17624701545523779469
23500284 5 17753051600699411171
23598294 1 18122074099997497142
305870 269 18051973915977480365
3071541 236 17398097262752534878
57672749 33 18339915030228807810
58734985 188 18411134749130296174
7364860 26 18340209716503991087
81228 2 17834111940110344710

>  <PUBCHEM_SHAPE_MULTIPOLES>  (1) 
231.95
4.53
4.25
1.23
5.38
2.93
-0.3
-2.94
-1.33
-5.11
-1.32
0.04
-0.03
-0.14

>  <PUBCHEM_SHAPE_SELFOVERLAP>  (1) 
414.929

>  <PUBCHEM_SHAPE_VOLUME>  (1) 
149.3

>  <PUBCHEM_COORDINATE_TYPE>  (1) 
2
5
10

$$$$
