4596
     RDKit          2D

 33 35  0  0  1  0  0  0  0  0999 V2000
    0.0000    0.0000    0.0000 O   0  0  0  0  0  0  0  0  0  0  0  0
    0.0000    0.0000    0.0000 O   0  0  0  0  0  0  0  0  0  0  0  0
    0.0000    0.0000    0.0000 O   0  0  0  0  0  0  0  0  0  0  0  0
    0.0000    0.0000    0.0000 O   0  0  0  0  0  0  0  0  0  0  0  0
    0.0000    0.0000    0.0000 N   0  0  0  0  0  0  0  0  0  0  0  0
    0.0000    0.0000    0.0000 N   0  0  0  0  0  0  0  0  0  0  0  0
    0.0000    0.0000    0.0000 N   0  0  0  0  0  0  0  0  0  0  0  0
    0.0000    0.0000    0.0000 N   0  0  0  0  0  0  0  0  0  0  0  0
    0.0000    0.0000    0.0000 N   0  0  0  0  0  0  0  0  0  0  0  0
    0.0000    0.0000    0.0000 N   0  0  0  0  0  0  0  0  0  0  0  0
    0.0000    0.0000    0.0000 C   0  0  0  0  0  0  0  0  0  0  0  0
    0.0000    0.0000    0.0000 C   0  0  0  0  0  0  0  0  0  0  0  0
    0.0000    0.0000    0.0000 C   0  0  0  0  0  0  0  0  0  0  0  0
    0.0000    0.0000    0.0000 C   0  0  0  0  0  0  0  0  0  0  0  0
    0.0000    0.0000    0.0000 C   0  0  0  0  0  0  0  0  0  0  0  0
    0.0000    0.0000    0.0000 C   0  0  0  0  0  0  0  0  0  0  0  0
    0.0000    0.0000    0.0000 C   0  0  0  0  0  0  0  0  0  0  0  0
    0.0000    0.0000    0.0000 C   0  0  0  0  0  0  0  0  0  0  0  0
    0.0000    0.0000    0.0000 C   0  0  0  0  0  0  0  0  0  0  0  0
    0.0000    0.0000    0.0000 C   0  0  0  0  0  0  0  0  0  0  0  0
    0.0000    0.0000    0.0000 C   0  0  0  0  0  0  0  0  0  0  0  0
    0.0000    0.0000    0.0000 C   0  0  0  0  0  0  0  0  0  0  0  0
    0.0000    0.0000    0.0000 C   0  0  0  0  0  0  0  0  0  0  0  0
    0.0000    0.0000    0.0000 C   0  0  0  0  0  0  0  0  0  0  0  0
    0.0000    0.0000    0.0000 C   0  0  0  0  0  0  0  0  0  0  0  0
    0.0000    0.0000    0.0000 C   0  0  0  0  0  0  0  0  0  0  0  0
    0.0000    0.0000    0.0000 C   0  0  0  0  0  0  0  0  0  0  0  0
    0.0000    0.0000    0.0000 C   0  0  0  0  0  0  0  0  0  0  0  0
    0.0000    0.0000    0.0000 C   0  0  0  0  0  0  0  0  0  0  0  0
    0.0000    0.0000    0.0000 C   0  0  0  0  0  0  0  0  0  0  0  0
    0.0000    0.0000    0.0000 C   0  0  0  0  0  0  0  0  0  0  0  0
    0.0000    0.0000    0.0000 C   0  0  0  0  0  0  0  0  0  0  0  0
    0.0000    0.0000    0.0000 C   0  0  0  0  0  0  0  0  0  0  0  0
  1 17  1  0
  1 18  1  0
  2 13  1  0
  3 19  2  0
  4 25  2  0
  5 11  1  0
  5 19  1  0
  6  7  1  0
  6 17  2  0
  7 18  2  0
  8 23  1  0
  8 24  1  0
  8 25  1  0
  9 24  2  0
  9 28  1  0
 10 27  1  0
 11 12  1  0
 11 13  1  0
 12 14  1  0
 12 15  1  0
 13 17  1  0
 16 18  1  0
 16 20  1  0
 16 21  1  0
 16 22  1  0
 19 23  1  0
 24 26  1  0
 25 27  1  0
 26 29  2  0
 26 30  1  0
 27 28  2  0
 29 31  1  0
 30 32  2  0
 31 33  2  0
 32 33  1  0
M  END
>  <PUBCHEM_COMPOUND_CID>  (1) 
4596

>  <PUBCHEM_CONFORMER_RMSD>  (1) 
1

>  <PUBCHEM_CONFORMER_DIVERSEORDER>  (1) 
14
63
215
196
240
219
96
31
373
297
91
398
153
101
137
375
43
338
340
257
262
315
271
351
67
278
233
343
252
261
5
232
182
254
243
249
134
70
95
248
364
203
376
25
367
363
310
173
24
241
345
244
381
393
306
390
79
352
112
341
88
49
136
139
83
247
34
118
29
4
151
329
331
33
395
405
314
174
349
181
321
150
383
391
209
275
301
1
330
371
223
259
141
22
339
72
298
48
316
300
183
268
62
119
10
272
40
362
210
74
217
114
328
379
163
80
152
7
68
89
216
32
178
106
348
374
290
378
167
92
388
387
147
97
258
273
133
213
299
324
218
266
291
84
287
195
187
334
307
200
282
39
160
394
361
148
94
108
45
11
237
54
403
337
30
407
267
47
123
242
354
412
263
193
397
401
212
170
188
246
59
198
281
323
191
18
238
226
57
131
166
251
408
77
192
279
52
344
276
201
104
326
142
342
353
90
168
113
165
135
369
311
26
87
229
325
400
320
293
206
202
110
109
185
129
355
396
402
256
116
277
358
179
107
359
296
304
162
130
208
12
332
313
122
308
93
265
154
366
143
360
138
253
239
16
184
333
149
177
370
230
78
111
322
66
404
60
250
161
286
245
319
144
285
385
103
100
156
13
155
189
115
410
347
38
221
199
145
295
317
19
171
140
204
2
126
372
336
368
406
411
283
409
124
65
102
197
146
384
69
132
3
194
227
274
8
164
73
270
356
280
6
303
159
105
365
50
228
176
335
190
98
180
71
225
255
399
55
231
127
85
175
120
302
292
186
305
269
309
346
377
20
357
27
21
327
36
284
35
86
64
382
56
53
312
42
46
61
157
76
125
82
58
392
81
380
234
211
17
23
386
389
350
117
264
15
318
158
51
205
235
224
169
294
41
75
207
128
260
44
99
172
236
9
289
37
222
288
28
121
220
214

>  <PUBCHEM_MMFF94_PARTIAL_CHARGES>  (1) 
37
1 -0.28
10 -0.9
11 0.3
13 0.46
16 0.18
17 0.3
18 0.3
19 0.57
2 -0.68
23 0.36
24 0.42
25 0.62
26 0.09
27 0.11
28 0.02
29 -0.15
3 -0.57
30 -0.15
31 -0.15
32 -0.15
33 -0.15
37 0.37
4 -0.57
5 -0.73
53 0.4
56 0.15
57 0.15
58 0.15
59 0.4
6 -0.34
60 0.4
61 0.15
62 0.15
63 0.15
7 -0.34
8 -0.42
9 -0.62

>  <PUBCHEM_EFFECTIVE_ROTOR_COUNT>  (1) 
9

>  <PUBCHEM_PHARMACOPHORE_FEATURES>  (1) 
12
1 10 cation
1 10 donor
1 2 acceptor
1 2 donor
1 3 acceptor
1 4 acceptor
1 5 donor
3 12 14 15 hydrophobe
4 16 20 21 22 hydrophobe
5 1 6 7 17 18 rings
6 26 29 30 31 32 33 rings
6 8 9 24 25 27 28 rings

>  <PUBCHEM_HEAVY_ATOM_COUNT>  (1) 
33

>  <PUBCHEM_ATOM_DEF_STEREO_COUNT>  (1) 
0

>  <PUBCHEM_ATOM_UDEF_STEREO_COUNT>  (1) 
2

>  <PUBCHEM_BOND_DEF_STEREO_COUNT>  (1) 
0

>  <PUBCHEM_BOND_UDEF_STEREO_COUNT>  (1) 
0

>  <PUBCHEM_ISOTOPIC_ATOM_COUNT>  (1) 
0

>  <PUBCHEM_COMPONENT_COUNT>  (1) 
1

>  <PUBCHEM_CACTVS_TAUTO_COUNT>  (1) 
4

$$$$
