45976
     RDKit          3D

 20 21  0  0  0  0  0  0  0  0999 V2000
    2.7138    0.2385   -0.9918 O   0  0  0  0  0  0  0  0  0  0  0  0
    3.2020    0.2245    1.2814 O   0  0  0  0  0  0  0  0  0  0  0  0
   -2.5591    1.6464    0.2589 N   0  0  0  0  0  0  0  0  0  0  0  0
    4.8391   -0.2631   -0.2883 N   0  0  0  0  0  0  0  0  0  0  0  0
   -1.8511   -1.1787    0.0580 C   0  0  0  0  0  0  0  0  0  0  0  0
   -2.0320   -2.0728   -1.1817 C   0  0  0  0  0  0  0  0  0  0  0  0
   -1.5106   -2.1376    1.2177 C   0  0  0  0  0  0  0  0  0  0  0  0
   -2.2741   -3.4660   -0.6211 C   0  0  0  0  0  0  0  0  0  0  0  0
   -1.3512   -3.5147    0.5838 C   0  0  0  0  0  0  0  0  0  0  0  0
   -0.8377   -0.0782   -0.1644 C   0  0  0  0  0  0  0  0  0  0  0  0
   -1.1992    1.2664   -0.0633 C   0  0  0  0  0  0  0  0  0  0  0  0
    0.4787   -0.4221   -0.4764 C   0  0  0  0  0  0  0  0  0  0  0  0
   -0.2472    2.2639   -0.2736 C   0  0  0  0  0  0  0  0  0  0  0  0
   -3.0063    1.0679    1.6308 C   0  0  0  0  0  0  0  0  0  0  0  0
   -3.6384    1.1598   -0.7574 C   0  0  0  0  0  0  0  0  0  0  0  0
   -2.7242    3.1909    0.3161 C   0  0  0  0  0  0  0  0  0  0  0  0
    1.4308    0.5755   -0.6868 C   0  0  0  0  0  0  0  0  0  0  0  0
    1.0678    1.9184   -0.5854 C   0  0  0  0  0  0  0  0  0  0  0  0
    3.5652    0.0764    0.1183 C   0  0  0  0  0  0  0  0  0  0  0  0
    5.9336   -0.4955    0.6251 C   0  0  0  0  0  0  0  0  0  0  0  0
  1 17  1  0
  1 19  1  0
  2 19  2  0
  3 11  1  0
  3 14  1  0
  3 15  1  0
  3 16  1  0
  4 19  1  0
  4 20  1  0
  5  6  1  0
  5  7  1  0
  5 10  1  0
  6  8  1  0
  7  9  1  0
  8  9  1  0
 10 11  2  0
 10 12  1  0
 11 13  1  0
 12 17  2  0
 13 18  2  0
 17 18  1  0
M  CHG  1   3   1
M  END
>  <PUBCHEM_COMPOUND_CID>  (1) 
45976

>  <PUBCHEM_CONFORMER_RMSD>  (1) 
0.8

>  <PUBCHEM_CONFORMER_DIVERSEORDER>  (1) 
1
8
7
6
3
10
5
9
4
2
12
11
13

>  <PUBCHEM_MMFF94_PARTIAL_CHARGES>  (1) 
20
1 -0.23
10 -0.14
11 0.36
12 -0.15
13 -0.15
14 0.5
15 0.5
16 0.5
17 0.08
18 -0.15
19 0.78
2 -0.57
20 0.3
3 -0.87
30 0.15
31 0.15
4 -0.73
41 0.15
42 0.37
5 0.14

>  <PUBCHEM_EFFECTIVE_ROTOR_COUNT>  (1) 
6

>  <PUBCHEM_PHARMACOPHORE_FEATURES>  (1) 
5
1 2 acceptor
1 3 cation
1 4 donor
5 5 6 7 8 9 rings
6 10 11 12 13 17 18 rings

>  <PUBCHEM_HEAVY_ATOM_COUNT>  (1) 
20

>  <PUBCHEM_ATOM_DEF_STEREO_COUNT>  (1) 
0

>  <PUBCHEM_ATOM_UDEF_STEREO_COUNT>  (1) 
0

>  <PUBCHEM_BOND_DEF_STEREO_COUNT>  (1) 
0

>  <PUBCHEM_BOND_UDEF_STEREO_COUNT>  (1) 
0

>  <PUBCHEM_ISOTOPIC_ATOM_COUNT>  (1) 
0

>  <PUBCHEM_COMPONENT_COUNT>  (1) 
1

>  <PUBCHEM_CACTVS_TAUTO_COUNT>  (1) 
2

>  <PUBCHEM_CONFORMER_ID>  (1) 
0000B39800000001

>  <PUBCHEM_MMFF94_ENERGY>  (1) 
92.3678

>  <PUBCHEM_FEATURE_SELFOVERLAP>  (1) 
25.371

>  <PUBCHEM_SHAPE_FINGERPRINT>  (1) 
10366900 7 17846491509585366272
10616163 171 18410012148302051950
1100329 8 18410575128156441161
11357001 24 18337962284777586187
11578080 2 16986027092921845803
121448 382 18271800182220573133
12346177 29 18411978087470580038
12500047 106 18340483370608934624
12553582 1 17978246167824280990
12616971 3 17095526189317482020
12715332 25 18412548743133160047
12788726 201 18265066897159857967
13004483 165 18055348295519762703
13052359 8 18408603656373145183
13083527 12 17622711433714319552
13140716 1 18268156529118436913
13583140 156 17167868547259555141
14178342 30 18411419522958537518
14223421 5 18053377987978688896
14844126 61 18410287055967792874
14866123 147 18409728456573792043
15042514 8 18337398231302503851
15099037 8 18191306193938510588
15309172 13 18266187136468895361
16752209 62 18262506096071988907
16945 1 18339936956163857349
19591789 44 18050009882951187238
20028762 73 18200887266140563351
20554085 129 17910651208258501313
20600515 1 18342468010672828820
20832881 197 17974286831338879907
21033648 29 18269824325192155704
212916 134 18197485238754502488
21339142 149 17704354355686135197
21452121 199 17834666471880405744
21501502 16 18194130830609926556
21731228 192 18196948690238979265
22224240 67 18271816657984425753
23184049 29 18122067760467148860
2334 1 17906743844554254117
23402539 116 18271799129953443029
23419403 2 17200779275921339483
23557571 272 18201444696664701300
23558518 356 18116157851535583760
23559900 14 18413102871477268212
23598288 3 18189068632047049415
23728640 28 18409169904603104091
25147074 1 18191884515590797788
257057 1 17908141328233431239
3091708 16 8912051367185973393
352729 6 18339657714680663637
43471831 8 18048883996335272301
5104073 3 18341887529189757424
532947 4 17836369246125448558
5364581 5 18198606922005904192
54173680 148 18338519754215477397
559249 180 18187920647603077938
58807428 26 18122917429747788169
5924683 9 18341604954189981594
7364860 26 17403176993841340789
81228 2 18269564986634247067
9709674 26 18272092673746219846

>  <PUBCHEM_SHAPE_MULTIPOLES>  (1) 
389.89
7.73
3.8
1.15
15.04
2.04
-0.24
0.02
-1.29
-4.98
-0.08
-0.37
0.17
-0.63

>  <PUBCHEM_SHAPE_SELFOVERLAP>  (1) 
805.306

>  <PUBCHEM_SHAPE_VOLUME>  (1) 
225.1

>  <PUBCHEM_COORDINATE_TYPE>  (1) 
2
5
10

$$$$
