45998
     RDKit          3D

 21 22  0  0  0  0  0  0  0  0999 V2000
    1.2570   -0.1130    0.7539 O   0  0  0  0  0  0  0  0  0  0  0  0
    1.5096    0.3877   -1.4924 O   0  0  0  0  0  0  0  0  0  0  0  0
   -4.2247   -0.6899   -0.2104 N   0  0  0  0  0  0  0  0  0  0  0  0
    3.3680    0.3540   -0.0963 N   0  0  0  0  0  0  0  0  0  0  0  0
    6.1287   -0.4502    0.1596 C   0  0  0  0  0  0  0  0  0  0  0  0
    5.4660   -0.2964   -1.2088 C   0  0  0  0  0  0  0  0  0  0  0  0
    5.0957   -0.7967    1.2314 C   0  0  0  0  0  0  0  0  0  0  0  0
    4.3143    0.7033   -1.1556 C   0  0  0  0  0  0  0  0  0  0  0  0
    3.9483    0.2104    1.2431 C   0  0  0  0  0  0  0  0  0  0  0  0
   -2.8080   -0.5246    0.0419 C   0  0  0  0  0  0  0  0  0  0  0  0
   -2.2859    0.7167    0.4054 C   0  0  0  0  0  0  0  0  0  0  0  0
   -4.5705   -2.1550   -0.5978 C   0  0  0  0  0  0  0  0  0  0  0  0
   -4.7141    0.2355   -1.3597 C   0  0  0  0  0  0  0  0  0  0  0  0
   -5.1531   -0.3596    0.9993 C   0  0  0  0  0  0  0  0  0  0  0  0
   -1.9630   -1.6274   -0.0823 C   0  0  0  0  0  0  0  0  0  0  0  0
    2.0046    0.2249   -0.3777 C   0  0  0  0  0  0  0  0  0  0  0  0
   -3.1698    1.9127    0.5460 C   0  0  0  0  0  0  0  0  0  0  0  0
   -0.9187    0.8553    0.6445 C   0  0  0  0  0  0  0  0  0  0  0  0
   -0.1138   -0.2516    0.5133 C   0  0  0  0  0  0  0  0  0  0  0  0
   -0.5959   -1.4888    0.1570 C   0  0  0  0  0  0  0  0  0  0  0  0
   -2.5747    3.1525   -0.1144 C   0  0  0  0  0  0  0  0  0  0  0  0
  1 16  1  0
  1 19  1  0
  2 16  2  0
  3 10  1  0
  3 12  1  0
  3 13  1  0
  3 14  1  0
  4  8  1  0
  4  9  1  0
  4 16  1  0
  5  6  1  0
  5  7  1  0
  6  8  1  0
  7  9  1  0
 10 11  2  0
 10 15  1  0
 11 17  1  0
 11 18  1  0
 15 20  2  0
 17 21  1  0
 18 19  2  0
 19 20  1  0
M  CHG  1   3   1
M  END
>  <PUBCHEM_COMPOUND_CID>  (1) 
45998

>  <PUBCHEM_CONFORMER_RMSD>  (1) 
0.8

>  <PUBCHEM_CONFORMER_DIVERSEORDER>  (1) 
1
12
15
17
7
16
10
13
19
14
3
21
20
22
5
2
4
8
6
11
18
9

>  <PUBCHEM_MMFF94_PARTIAL_CHARGES>  (1) 
20
1 -0.23
10 0.36
11 -0.14
12 0.5
13 0.5
14 0.5
15 -0.15
16 0.78
17 0.14
18 -0.15
19 0.08
2 -0.57
20 -0.15
3 -0.87
4 -0.66
41 0.15
44 0.15
45 0.15
8 0.3
9 0.3

>  <PUBCHEM_EFFECTIVE_ROTOR_COUNT>  (1) 
6.2

>  <PUBCHEM_PHARMACOPHORE_FEATURES>  (1) 
5
1 2 acceptor
1 21 hydrophobe
1 3 cation
6 10 11 15 18 19 20 rings
6 4 5 6 7 8 9 rings

>  <PUBCHEM_HEAVY_ATOM_COUNT>  (1) 
21

>  <PUBCHEM_ATOM_DEF_STEREO_COUNT>  (1) 
0

>  <PUBCHEM_ATOM_UDEF_STEREO_COUNT>  (1) 
0

>  <PUBCHEM_BOND_DEF_STEREO_COUNT>  (1) 
0

>  <PUBCHEM_BOND_UDEF_STEREO_COUNT>  (1) 
0

>  <PUBCHEM_ISOTOPIC_ATOM_COUNT>  (1) 
0

>  <PUBCHEM_COMPONENT_COUNT>  (1) 
1

>  <PUBCHEM_CACTVS_TAUTO_COUNT>  (1) 
1

>  <PUBCHEM_CONFORMER_ID>  (1) 
0000B3AE00000001

>  <PUBCHEM_MMFF94_ENERGY>  (1) 
85.4831

>  <PUBCHEM_FEATURE_SELFOVERLAP>  (1) 
25.371

>  <PUBCHEM_SHAPE_FINGERPRINT>  (1) 
11089746 13 17967253109589944004
11315181 36 18333733529040215200
12107183 9 17685205080877573624
12166972 35 17603871151775299021
12236239 1 17967250901464764986
12390115 104 17986684675408447625
12403259 415 17775281656129019624
12403260 363 18409448098393728804
12596602 18 17458070390783051240
12670546 56 18260265257304850476
12916748 109 18409452496608596912
13167823 11 18334294258463987066
13288520 33 18342740719087700147
13533116 47 18187078447555774130
13583140 156 17774708780500622820
13760787 5 16950288390836698332
13862211 1 18341046423831877827
14251764 18 18114179744808498178
14294032 229 18192715545214895589
14573314 32 18272090461853685014
15042514 8 18268431411663752635
15183329 4 18113897148175657350
15788980 27 18113897169296896778
15961568 22 18267296728717939224
16988056 13 15236371473061641821
17349148 13 18260551138358714358
17834072 33 17749108911284806698
17844677 252 18343586244168186072
18927931 339 18413674617064724023
19489759 90 18343581824266555704
200 152 17676485060052406553
20645477 70 16271934788117709166
21033648 29 16917055630275169904
21033650 10 18194148255909275452
21065201 7 18343864399092712354
21150785 3 17749679579500193942
21267235 1 18409174324156028602
2297311 6 18272097105698599785
23366157 5 17899696756499107891
23402539 116 18341609334913770239
23557571 272 17988656159147983325
23559900 14 18272369836670541640
25147074 1 18194391209329394915
26918003 58 14908185256624982358
2838139 119 16733806611664363565
300161 21 17968093162237736366
3268164 11 18273209785939042949
34797466 226 17988657332655165812
351380 180 17917990594465343506
4214541 1 18341332214976109176
5104073 3 18129102388780693515
542803 24 16877940546781945770
559249 180 18337669699068796378
573450 72 18335978692965729194
59755656 215 18343022146983684431
7495541 125 17561080354129581416

>  <PUBCHEM_SHAPE_MULTIPOLES>  (1) 
410.47
13.69
1.95
1.22
12.32
1.01
-0.15
-2.47
-0.95
-3.13
-0.08
0.7
0.03
-0.63

>  <PUBCHEM_SHAPE_SELFOVERLAP>  (1) 
841.891

>  <PUBCHEM_SHAPE_VOLUME>  (1) 
237.6

>  <PUBCHEM_COORDINATE_TYPE>  (1) 
2
5
10

$$$$
