46018
     RDKit          3D

 24 24  0  0  0  0  0  0  0  0999 V2000
    4.6013   -2.5224    2.8495 Cl  0  0  0  0  0  0  0  0  0  0  0  0
    5.8286    2.1075   -2.3088 Cl  0  0  0  0  0  0  0  0  0  0  0  0
    1.0243   -0.4214    0.6268 O   0  0  0  0  0  0  0  0  0  0  0  0
    1.4334    0.3128   -1.5292 O   0  0  0  0  0  0  0  0  0  0  0  0
   -3.1721    2.0527    0.5656 N   0  0  0  0  0  0  0  0  0  0  0  0
    3.2365   -0.1212   -0.1255 N   0  0  0  0  0  0  0  0  0  0  0  0
   -2.3574    0.7824    0.3098 C   0  0  0  0  0  0  0  0  0  0  0  0
   -1.0351    0.8069    0.6028 C   0  0  0  0  0  0  0  0  0  0  0  0
   -3.0426   -0.2733   -0.1972 C   0  0  0  0  0  0  0  0  0  0  0  0
   -2.3182   -1.4405   -0.4389 C   0  0  0  0  0  0  0  0  0  0  0  0
   -4.6218    1.7949    0.1645 C   0  0  0  0  0  0  0  0  0  0  0  0
   -2.5757    3.1922   -0.2560 C   0  0  0  0  0  0  0  0  0  0  0  0
   -3.1514    2.4658    2.0359 C   0  0  0  0  0  0  0  0  0  0  0  0
   -3.0038   -2.6416   -0.9969 C   0  0  0  0  0  0  0  0  0  0  0  0
   -0.3107   -0.3604    0.3612 C   0  0  0  0  0  0  0  0  0  0  0  0
   -0.9523   -1.4841   -0.1596 C   0  0  0  0  0  0  0  0  0  0  0  0
   -0.3404    2.0081    1.1613 C   0  0  0  0  0  0  0  0  0  0  0  0
   -4.0994   -3.1833   -0.0591 C   0  0  0  0  0  0  0  0  0  0  0  0
   -3.5942   -2.3854   -2.3965 C   0  0  0  0  0  0  0  0  0  0  0  0
    1.8745   -0.0452   -0.4376 C   0  0  0  0  0  0  0  0  0  0  0  0
    3.7494   -0.5437    1.1738 C   0  0  0  0  0  0  0  0  0  0  0  0
    4.2365    0.2352   -1.1219 C   0  0  0  0  0  0  0  0  0  0  0  0
    3.9817   -2.0433    1.2500 C   0  0  0  0  0  0  0  0  0  0  0  0
    4.6091    1.7074   -1.0740 C   0  0  0  0  0  0  0  0  0  0  0  0
  1 23  1  0
  2 24  1  0
  3 15  1  0
  3 20  1  0
  4 20  2  0
  5  7  1  0
  5 11  1  0
  5 12  1  0
  5 13  1  0
  6 20  1  0
  6 21  1  0
  6 22  1  0
  7  8  2  0
  7  9  1  0
  8 15  1  0
  8 17  1  0
  9 10  2  0
 10 14  1  0
 10 16  1  0
 14 18  1  0
 14 19  1  0
 15 16  2  0
 21 23  1  0
 22 24  1  0
M  CHG  1   5   1
M  END
>  <PUBCHEM_COMPOUND_CID>  (1) 
46018

>  <PUBCHEM_CONFORMER_RMSD>  (1) 
1

>  <PUBCHEM_CONFORMER_DIVERSEORDER>  (1) 
1
15
52
50
8
12
27
47
49
14
32
20
55
7
18
63
31
19
9
24
67
36
41
44
61
25
56
57
4
62
60
40
29
45
35
37
10
51
58
26
38
42
21
46
53
65
28
23
16
17
22
39
34
48
64
43
11
54
66
30
13
33
6
59
3
2
5

>  <PUBCHEM_MMFF94_PARTIAL_CHARGES>  (1) 
24
1 -0.29
10 -0.14
11 0.5
12 0.5
13 0.5
14 0.14
15 0.08
16 -0.15
17 0.14
2 -0.29
20 0.78
21 0.3
22 0.3
23 0.29
24 0.29
25 0.15
3 -0.23
36 0.15
4 -0.57
5 -0.87
6 -0.66
7 0.36
8 -0.14
9 -0.15

>  <PUBCHEM_EFFECTIVE_ROTOR_COUNT>  (1) 
9

>  <PUBCHEM_PHARMACOPHORE_FEATURES>  (1) 
4
1 4 acceptor
1 5 cation
3 14 18 19 hydrophobe
6 7 8 9 10 15 16 rings

>  <PUBCHEM_HEAVY_ATOM_COUNT>  (1) 
24

>  <PUBCHEM_ATOM_DEF_STEREO_COUNT>  (1) 
0

>  <PUBCHEM_ATOM_UDEF_STEREO_COUNT>  (1) 
0

>  <PUBCHEM_BOND_DEF_STEREO_COUNT>  (1) 
0

>  <PUBCHEM_BOND_UDEF_STEREO_COUNT>  (1) 
0

>  <PUBCHEM_ISOTOPIC_ATOM_COUNT>  (1) 
0

>  <PUBCHEM_COMPONENT_COUNT>  (1) 
1

>  <PUBCHEM_CACTVS_TAUTO_COUNT>  (1) 
1

>  <PUBCHEM_CONFORMER_ID>  (1) 
0000B3C200000001

>  <PUBCHEM_MMFF94_ENERGY>  (1) 
100.0249

>  <PUBCHEM_FEATURE_SELFOVERLAP>  (1) 
20.297

>  <PUBCHEM_SHAPE_FINGERPRINT>  (1) 
10062212 137 18336255752278722947
11578080 2 17899939907667096652
12107183 9 17973998445590062778
12236239 1 18260272957732540134
12553582 1 18057601177781485159
12616971 3 17967527931271871154
12714826 92 17917432063912294803
12788726 201 18341053037469772363
13140716 1 18200869708129082563
13540713 5 18335136484265335906
13583140 156 17097494181111729633
13631057 29 17754183294907571714
13726171 33 18058469719095318320
14739800 52 18341321272017163664
14790565 3 17985281685565678009
15021287 119 17823974529387308034
15042514 8 18341327825957473587
15131766 46 17604724381167238365
15806764 133 16845578651359594032
15842332 3 18335136475733449626
173720 79 18267015073224786643
17492 89 18411139134482549854
17818456 19 18196927765290130178
1813 80 17843116172165728495
19377110 9 18334294314203376466
19427546 20 18338807830820698885
20101258 96 18194981857374031121
20511986 3 18334845118021231388
20600515 1 17845640453057191456
20645477 70 16805592669190667410
20871999 31 18272658990442064229
21065201 7 18060702771497776478
21304303 282 17696156285483812101
21728266 224 18269814498079726002
21781055 127 17414730773600228832
22182313 1 16630519653060349322
22393880 68 18271251616207838116
23557571 272 17632026294335053389
23559900 14 17844535409864868094
23598288 3 18413393129013363247
25147074 1 18334853914166903746
255183 451 17266663210848980935
266924 1 18333730247347740314
2748010 2 17984681571528138713
2838139 119 17315907768456412013
312423 11 18335135401976022178
394222 165 17902800661092194161
474 4 17677629707977345468
56633871 153 17758095018066765578
573450 72 18339911641589717594
5912855 24 18261121810711320379
6034566 193 16808447126035739140
633830 44 17676491601393152258
67856867 119 18334569162446586104
6823239 73 17561086938652374640
7237137 82 18342183314111534469
7615 1 18334569140586562570

>  <PUBCHEM_SHAPE_MULTIPOLES>  (1) 
475.95
11.4
3.84
2.14
11.69
0.31
-0.14
-0.25
2.27
-2.78
-0.38
2.25
0.54
-6.22

>  <PUBCHEM_SHAPE_SELFOVERLAP>  (1) 
939.422

>  <PUBCHEM_SHAPE_VOLUME>  (1) 
290.8

>  <PUBCHEM_COORDINATE_TYPE>  (1) 
2
5
10

$$$$
