46029
     RDKit          3D

 18 18  0  0  0  0  0  0  0  0999 V2000
   -2.4944    0.1809    0.9836 O   0  0  0  0  0  0  0  0  0  0  0  0
   -2.9752    0.1998   -1.2911 O   0  0  0  0  0  0  0  0  0  0  0  0
    2.9179    0.8863   -0.2656 N   0  0  0  0  0  0  0  0  0  0  0  0
   -4.6648   -0.0535    0.2783 N   0  0  0  0  0  0  0  0  0  0  0  0
    1.4405    0.6762    0.0749 C   0  0  0  0  0  0  0  0  0  0  0  0
    0.9879   -0.5965    0.1735 C   0  0  0  0  0  0  0  0  0  0  0  0
    1.8413   -1.8056   -0.0301 C   0  0  0  0  0  0  0  0  0  0  0  0
    3.1999    2.3849   -0.3232 C   0  0  0  0  0  0  0  0  0  0  0  0
    3.2106    0.2265   -1.6102 C   0  0  0  0  0  0  0  0  0  0  0  0
    3.8447    0.2676    0.7789 C   0  0  0  0  0  0  0  0  0  0  0  0
    0.7029    1.8013    0.2511 C   0  0  0  0  0  0  0  0  0  0  0  0
   -0.3611   -0.7670    0.4848 C   0  0  0  0  0  0  0  0  0  0  0  0
    1.3700   -2.6624   -1.2192 C   0  0  0  0  0  0  0  0  0  0  0  0
    1.9388   -2.6748    1.2367 C   0  0  0  0  0  0  0  0  0  0  0  0
   -1.1780    0.3467    0.6794 C   0  0  0  0  0  0  0  0  0  0  0  0
   -0.6460    1.6309    0.5624 C   0  0  0  0  0  0  0  0  0  0  0  0
   -3.3570    0.1146   -0.1276 C   0  0  0  0  0  0  0  0  0  0  0  0
   -5.7780   -0.1558   -0.6364 C   0  0  0  0  0  0  0  0  0  0  0  0
  1 15  1  0
  1 17  1  0
  2 17  2  0
  3  5  1  0
  3  8  1  0
  3  9  1  0
  3 10  1  0
  4 17  1  0
  4 18  1  0
  5  6  2  0
  5 11  1  0
  6  7  1  0
  6 12  1  0
  7 13  1  0
  7 14  1  0
 11 16  2  0
 12 15  2  0
 15 16  1  0
M  CHG  1   3   1
M  END
>  <PUBCHEM_COMPOUND_CID>  (1) 
46029

>  <PUBCHEM_CONFORMER_RMSD>  (1) 
0.6

>  <PUBCHEM_CONFORMER_DIVERSEORDER>  (1) 
1
7
15
17
16
18
2
9
3
13
14
4
10
8
12
11
6
5

>  <PUBCHEM_MMFF94_PARTIAL_CHARGES>  (1) 
20
1 -0.23
10 0.5
11 -0.15
12 -0.15
15 0.08
16 -0.15
17 0.78
18 0.3
2 -0.57
29 0.15
3 -0.87
30 0.15
37 0.15
38 0.37
4 -0.73
5 0.36
6 -0.14
7 0.14
8 0.5
9 0.5

>  <PUBCHEM_EFFECTIVE_ROTOR_COUNT>  (1) 
5

>  <PUBCHEM_PHARMACOPHORE_FEATURES>  (1) 
5
1 2 acceptor
1 3 cation
1 4 donor
3 7 13 14 hydrophobe
6 5 6 11 12 15 16 rings

>  <PUBCHEM_HEAVY_ATOM_COUNT>  (1) 
18

>  <PUBCHEM_ATOM_DEF_STEREO_COUNT>  (1) 
0

>  <PUBCHEM_ATOM_UDEF_STEREO_COUNT>  (1) 
0

>  <PUBCHEM_BOND_DEF_STEREO_COUNT>  (1) 
0

>  <PUBCHEM_BOND_UDEF_STEREO_COUNT>  (1) 
0

>  <PUBCHEM_ISOTOPIC_ATOM_COUNT>  (1) 
0

>  <PUBCHEM_COMPONENT_COUNT>  (1) 
1

>  <PUBCHEM_CACTVS_TAUTO_COUNT>  (1) 
2

>  <PUBCHEM_CONFORMER_ID>  (1) 
0000B3CD00000001

>  <PUBCHEM_MMFF94_ENERGY>  (1) 
93.0094

>  <PUBCHEM_FEATURE_SELFOVERLAP>  (1) 
25.371

>  <PUBCHEM_SHAPE_FINGERPRINT>  (1) 
10980938 120 18341898467542888835
11471102 20 18410012160669677329
116883 192 17909266880074122461
12236239 1 17703791423070715289
12553582 1 17846486029285925695
12616999 72 18335141998765856647
12730499 353 18260837033500247051
13083527 12 18190727653544117818
13140716 1 18195525015727808056
13380535 76 18409451409707889314
13836976 161 18411418444457152647
14251717 144 18413671313701869954
14576447 43 18201711899523252575
15852999 172 17385736802215260930
16945 1 18337686251682610776
18186145 218 18337400438662583820
200 152 18272367555563041297
20645476 183 17461175506652256116
20645477 70 18411699859869070087
20671657 53 18046062657682379394
21054139 6 18129085891964621279
21501502 16 18194127308747182912
21524375 3 18339083791254488984
22289505 5 18334847287095962221
2255824 54 18271524311696369665
22713019 99 18201455670337791358
23114952 82 17896322419658059111
2334 1 17907586070455764872
23402655 69 18411414008568552717
23419403 2 16011803470658853746
23559900 14 18114458963936121810
23598291 2 17985562056544784811
25 1 18336264638592139369
25147074 1 18195258710549271456
257057 1 17685488746182531970
2748010 2 18050584124721588040
2871803 45 18412832373508525485
3060560 45 18411421743308657492
3071541 37 18333454248359126682
33824 294 18410855473034260315
4072396 5 18335405877414543312
42630746 31 18342173379698833819
5281201 14 17968091963736249909
58051976 378 18408602569762145935
633830 44 18270983317615778396
7164475 11 18127128576646869961
7364860 26 18271529685116947946
81228 2 17331396467837573706
81539 233 18261114101307807198
8272917 22 18341619187727015655
9999458 23 18187081784919059214

>  <PUBCHEM_SHAPE_MULTIPOLES>  (1) 
348.73
8.15
2.45
1.18
13.03
1.06
-0.25
-0.97
-1.68
-2.83
0.04
-0.42
0.36
-0.37

>  <PUBCHEM_SHAPE_SELFOVERLAP>  (1) 
709.709

>  <PUBCHEM_SHAPE_VOLUME>  (1) 
204

>  <PUBCHEM_COORDINATE_TYPE>  (1) 
2
5
10

$$$$
