4602
     RDKit          3D

 17 18  0  0  0  0  0  0  0  0999 V2000
   -2.8646    2.1693   -0.5269 O   0  0  0  0  0  0  0  0  0  0  0  0
   -0.4920    1.6406    0.5186 O   0  0  0  0  0  0  0  0  0  0  0  0
    5.7925    0.1325   -0.0092 O   0  0  0  0  0  0  0  0  0  0  0  0
    0.2821   -0.4881   -0.0933 N   0  0  0  0  0  0  0  0  0  0  0  0
   -2.0817   -0.0074    0.1091 C   0  0  0  0  0  0  0  0  0  0  0  0
    1.6896   -0.3293   -0.0711 C   0  0  0  0  0  0  0  0  0  0  0  0
   -0.7062    0.4635    0.1907 C   0  0  0  0  0  0  0  0  0  0  0  0
   -3.1153    0.8593   -0.2466 C   0  0  0  0  0  0  0  0  0  0  0  0
   -2.3596   -1.3444    0.3936 C   0  0  0  0  0  0  0  0  0  0  0  0
    2.2263    0.9010    0.2667 C   0  0  0  0  0  0  0  0  0  0  0  0
    2.4962   -1.4084   -0.3894 C   0  0  0  0  0  0  0  0  0  0  0  0
   -4.4266    0.3887   -0.3180 C   0  0  0  0  0  0  0  0  0  0  0  0
    3.6122    1.0573    0.2869 C   0  0  0  0  0  0  0  0  0  0  0  0
    3.8822   -1.2522   -0.3692 C   0  0  0  0  0  0  0  0  0  0  0  0
   -3.6709   -1.8147    0.3224 C   0  0  0  0  0  0  0  0  0  0  0  0
    4.4403   -0.0193   -0.0309 C   0  0  0  0  0  0  0  0  0  0  0  0
   -4.7044   -0.9482   -0.0333 C   0  0  0  0  0  0  0  0  0  0  0  0
  1  8  1  0
  2  7  2  0
  3 16  1  0
  4  6  1  0
  4  7  1  0
  5  7  1  0
  5  8  2  0
  5  9  1  0
  6 10  2  0
  6 11  1  0
  8 12  1  0
  9 15  2  0
 10 13  1  0
 11 14  2  0
 12 17  2  0
 13 16  2  0
 14 16  1  0
 15 17  1  0
M  END
>  <PUBCHEM_COMPOUND_CID>  (1) 
4602

>  <PUBCHEM_CONFORMER_RMSD>  (1) 
0.6

>  <PUBCHEM_CONFORMER_DIVERSEORDER>  (1) 
2
4
1
5
3

>  <PUBCHEM_MMFF94_PARTIAL_CHARGES>  (1) 
28
1 -0.53
10 -0.15
11 -0.15
12 -0.15
13 -0.15
14 -0.15
15 -0.15
16 0.08
17 -0.15
18 0.37
19 0.15
2 -0.57
20 0.15
21 0.15
22 0.15
23 0.15
24 0.15
25 0.15
26 0.15
27 0.45
28 0.45
3 -0.53
4 -0.55
5 0.09
6 0.12
7 0.54
8 0.08
9 -0.15

>  <PUBCHEM_EFFECTIVE_ROTOR_COUNT>  (1) 
3

>  <PUBCHEM_PHARMACOPHORE_FEATURES>  (1) 
6
1 1 donor
1 2 acceptor
1 3 donor
1 4 donor
6 5 8 9 12 15 17 rings
6 6 10 11 13 14 16 rings

>  <PUBCHEM_HEAVY_ATOM_COUNT>  (1) 
17

>  <PUBCHEM_ATOM_DEF_STEREO_COUNT>  (1) 
0

>  <PUBCHEM_ATOM_UDEF_STEREO_COUNT>  (1) 
0

>  <PUBCHEM_BOND_DEF_STEREO_COUNT>  (1) 
0

>  <PUBCHEM_BOND_UDEF_STEREO_COUNT>  (1) 
0

>  <PUBCHEM_ISOTOPIC_ATOM_COUNT>  (1) 
0

>  <PUBCHEM_COMPONENT_COUNT>  (1) 
1

>  <PUBCHEM_CACTVS_TAUTO_COUNT>  (1) 
14

>  <PUBCHEM_CONFORMER_ID>  (1) 
000011FA00000002

>  <PUBCHEM_MMFF94_ENERGY>  (1) 
54.5799

>  <PUBCHEM_FEATURE_SELFOVERLAP>  (1) 
30.447

>  <PUBCHEM_SHAPE_FINGERPRINT>  (1) 
10 15 18270386309610618816
10014705 185 18041277686574069429
10608611 8 18411415107310047104
10680689 15 18187653491888823425
11615757 297 17346882268755017450
12107183 9 17612300854074829400
12236239 1 16877940538070614082
13167823 11 18187361013211552098
13296908 3 18413108359611840835
14252887 29 17131843053634275350
14386348 63 18342740727698935171
15196674 1 18411700950458375854
15375358 24 18411700984591442822
15961568 22 17677332856907400684
17834072 33 18187931720123550524
17834074 16 18411700988928413247
18186145 218 17967808345059103135
19141452 34 18272374222043517503
19489759 90 17967529073363666168
1986462 14 18334295349005651205
200 152 17846497028043146795
20279233 1 18411143532275171210
20645477 56 18261673675855024229
20645477 70 17988083279789375838
20871999 31 18335414647853955269
21065201 7 18187078429969397914
21079973 296 18336266824756879915
21267235 1 18411709797932782542
221490 88 18264775535046917938
22485316 2 18411136935121028019
2297311 6 18411146843842428813
23402539 116 18113893875067458902
23402655 69 18343301440385689580
23557571 272 18411141311676956653
23559900 14 18410851062240068784
26918003 58 18412261744269493538
2871803 45 18408884031543004218
3268164 11 17385714790723964887
3545911 37 18410012126125010780
4214541 1 18410012109040288493
4921388 177 16733275641773911067
5104073 3 18341894043969401762
542803 24 16805325496058997574
573450 72 17968646142754477562
67856867 119 18042128824575274940
69090 78 18341891909191579575
77779 3 18411139129843716726
9709674 26 18411706460717170727

>  <PUBCHEM_SHAPE_MULTIPOLES>  (1) 
327.26
11.11
1.73
0.68
4.79
0.13
0
-1.4
-0.57
-0.98
-0.02
-0.07
0
0.72

>  <PUBCHEM_SHAPE_SELFOVERLAP>  (1) 
710.716

>  <PUBCHEM_SHAPE_VOLUME>  (1) 
177.8

>  <PUBCHEM_COORDINATE_TYPE>  (1) 
2
5
10

$$$$
