4603
     RDKit          3D

 22 22  0  0  1  0  0  0  0  0999 V2000
   -0.8446    1.2320    0.2026 O   0  0  0  0  0  0  0  0  0  0  0  0
    3.5776    0.1201    0.1468 O   0  0  0  0  0  0  0  0  0  0  0  0
    3.8660   -2.0908   -0.4763 O   0  0  0  0  0  0  0  0  0  0  0  0
   -3.5105   -0.9530    1.7407 O   0  0  0  0  0  0  0  0  0  0  0  0
   -2.5455   -1.1417   -0.3687 N   0  0  0  0  0  0  0  0  0  0  0  0
   -1.1403   -3.6229    0.1972 N   0  0  0  0  0  0  0  0  0  0  0  0
   -1.1581   -1.1465    0.0503 C   0  0  0  0  0  0  0  0  0  0  0  0
   -0.4558   -2.4544   -0.3629 C   0  0  0  0  0  0  0  0  0  0  0  0
   -0.4388    0.0819   -0.5418 C   0  0  0  0  0  0  0  0  0  0  0  0
    1.0154   -2.4503    0.0903 C   0  0  0  0  0  0  0  0  0  0  0  0
    1.0610   -0.0173   -0.5061 C   0  0  0  0  0  0  0  0  0  0  0  0
    1.7047   -1.1549   -0.2109 C   0  0  0  0  0  0  0  0  0  0  0  0
   -0.8449    2.3967   -0.6077 C   0  0  0  0  0  0  0  0  0  0  0  0
   -0.5021    3.6026    0.2743 C   0  0  0  0  0  0  0  0  0  0  0  0
   -2.2205    2.5765   -1.2605 C   0  0  0  0  0  0  0  0  0  0  0  0
    3.1696   -1.1257   -0.2036 C   0  0  0  0  0  0  0  0  0  0  0  0
   -3.6003   -1.0449    0.5192 C   0  0  0  0  0  0  0  0  0  0  0  0
    0.8596    3.4627    0.9423 C   0  0  0  0  0  0  0  0  0  0  0  0
   -3.3439    2.7200   -0.2422 C   0  0  0  0  0  0  0  0  0  0  0  0
   -4.9323   -1.0375   -0.1819 C   0  0  0  0  0  0  0  0  0  0  0  0
    4.9955    0.3089    0.1983 C   0  0  0  0  0  0  0  0  0  0  0  0
    5.2883    1.7386    0.6007 C   0  0  0  0  0  0  0  0  0  0  0  0
  1  9  1  0
  1 13  1  0
  2 16  1  0
  2 21  1  0
  3 16  2  0
  4 17  2  0
  5  7  1  0
  5 17  1  0
  6  8  1  0
  7  8  1  0
  7  9  1  0
  8 10  1  0
  9 11  1  0
 10 12  1  0
 11 12  2  0
 12 16  1  0
 13 14  1  0
 13 15  1  0
 14 18  1  0
 15 19  1  0
 17 20  1  0
 21 22  1  0
M  END
>  <PUBCHEM_COMPOUND_CID>  (1) 
4603

>  <PUBCHEM_CONFORMER_RMSD>  (1) 
1

>  <PUBCHEM_CONFORMER_DIVERSEORDER>  (1) 
1
79
67
53
30
58
86
45
39
84
52
71
22
77
68
81
41
83
62
37
38
51
7
80
13
70
3
57
75
73
66
29
46
25
87
61
55
26
82
44
59
5
43
54
76
12
72
40
49
4
36
19
50
42
18
11
60
27
85
64
6
78
28
74
8
56
33
16
63
69
23
14
65
35
15
32
20
47
2
17
24
31
10
21
9
34
48

>  <PUBCHEM_MMFF94_PARTIAL_CHARGES>  (1) 
21
1 -0.56
10 0.14
11 -0.29
12 -0.12
13 0.28
16 0.71
17 0.57
2 -0.43
20 0.06
21 0.28
28 0.15
3 -0.57
30 0.37
31 0.36
32 0.36
4 -0.57
5 -0.73
6 -0.99
7 0.3
8 0.27
9 0.42

>  <PUBCHEM_EFFECTIVE_ROTOR_COUNT>  (1) 
9.8

>  <PUBCHEM_PHARMACOPHORE_FEATURES>  (1) 
9
1 1 acceptor
1 18 hydrophobe
1 19 hydrophobe
1 3 acceptor
1 4 acceptor
1 5 donor
1 6 cation
1 6 donor
6 7 8 9 10 11 12 rings

>  <PUBCHEM_HEAVY_ATOM_COUNT>  (1) 
22

>  <PUBCHEM_ATOM_DEF_STEREO_COUNT>  (1) 
0

>  <PUBCHEM_ATOM_UDEF_STEREO_COUNT>  (1) 
3

>  <PUBCHEM_BOND_DEF_STEREO_COUNT>  (1) 
0

>  <PUBCHEM_BOND_UDEF_STEREO_COUNT>  (1) 
0

>  <PUBCHEM_ISOTOPIC_ATOM_COUNT>  (1) 
0

>  <PUBCHEM_COMPONENT_COUNT>  (1) 
1

>  <PUBCHEM_CACTVS_TAUTO_COUNT>  (1) 
2

>  <PUBCHEM_CONFORMER_ID>  (1) 
000011FB00000001

>  <PUBCHEM_MMFF94_ENERGY>  (1) 
28.7221

>  <PUBCHEM_FEATURE_SELFOVERLAP>  (1) 
45.672

>  <PUBCHEM_SHAPE_FINGERPRINT>  (1) 
10498660 4 18338797802045799028
10670039 82 18262253170444405228
1100329 8 18193839477255582914
12390115 104 18270131127669475412
12788726 201 18261112980716845914
13140716 1 17977666738086184346
14790565 3 18410862078763169773
17357779 13 18338221726983343501
19591789 44 18411135818423944493
20510252 161 18411699846688509234
20642791 178 17756150342747640748
23402539 116 18342170111324226143
23419403 2 18116973654798530613
23557571 272 18342185462196289956
23559900 14 18125433104242395582
2748010 2 18194408792266452966
34934 24 18338230582853129102
350125 39 18265902350293932646
352729 6 18050565145081661438
392239 28 18341052900167722536
5104073 3 18335419002871523362
69474 34 18268428104058328320
81228 2 17972623008025182827
9709674 26 17910111304782630782

>  <PUBCHEM_SHAPE_MULTIPOLES>  (1) 
419.31
8.44
4.6
0.93
6.11
2.32
0.13
-0.13
1.15
-1.47
0.23
-0.49
0.25
1.33

>  <PUBCHEM_SHAPE_SELFOVERLAP>  (1) 
829.686

>  <PUBCHEM_SHAPE_VOLUME>  (1) 
248.7

>  <PUBCHEM_COORDINATE_TYPE>  (1) 
2
5
10

$$$$
