46043
     RDKit          3D

 16 15  0  0  1  0  0  0  0  0999 V2000
    0.8622    0.3523    0.4152 O   0  0  0  0  0  0  0  0  0  0  0  0
   -2.6588   -0.4207   -0.4055 N   0  0  0  0  0  0  0  0  0  0  0  0
    4.5732    0.2083    0.0492 N   0  0  0  0  0  0  0  0  0  0  0  0
   -1.5323    0.2191    0.3196 C   0  0  0  0  0  0  0  0  0  0  0  0
   -4.0042   -0.0150    0.2115 C   0  0  0  0  0  0  0  0  0  0  0  0
   -2.5470   -1.9501   -0.3441 C   0  0  0  0  0  0  0  0  0  0  0  0
   -2.6647   -0.0011   -1.8817 C   0  0  0  0  0  0  0  0  0  0  0  0
   -0.2216   -0.2284   -0.2972 C   0  0  0  0  0  0  0  0  0  0  0  0
   -4.1876    1.4868    0.0625 C   0  0  0  0  0  0  0  0  0  0  0  0
    3.2368    0.6022    0.6615 C   0  0  0  0  0  0  0  0  0  0  0  0
   -2.5390   -2.3915    1.1032 C   0  0  0  0  0  0  0  0  0  0  0  0
    2.1149   -0.0408   -0.1297 C   0  0  0  0  0  0  0  0  0  0  0  0
   -5.4881    1.9479    0.7003 C   0  0  0  0  0  0  0  0  0  0  0  0
    4.7371   -1.3032    0.1179 C   0  0  0  0  0  0  0  0  0  0  0  0
    4.6172    0.6579   -1.4041 C   0  0  0  0  0  0  0  0  0  0  0  0
    5.7018    0.8764    0.8213 C   0  0  0  0  0  0  0  0  0  0  0  0
  1  8  1  0
  1 12  1  0
  2  4  1  0
  2  5  1  0
  2  6  1  0
  2  7  1  0
  3 10  1  0
  3 14  1  0
  3 15  1  0
  3 16  1  0
  4  8  1  0
  5  9  1  0
  6 11  1  0
  9 13  1  0
 10 12  1  0
M  CHG  2   2   1   3   1
M  END
>  <PUBCHEM_COMPOUND_CID>  (1) 
46043

>  <PUBCHEM_CONFORMER_RMSD>  (1) 
0.8

>  <PUBCHEM_CONFORMER_DIVERSEORDER>  (1) 
99
29
74
21
17
32
89
59
7
36
73
46
31
38
80
41
96
2
81
87
58
53
103
64
93
83
94
56
50
23
110
33
60
19
40
84
101
27
79
54
34
47
82
44
48
75
66
108
105
35
69
68
78
43
42
51
1
107
102
37
100
45
71
70
14
3
62
77
10
104
63
49
92
106
20
98
26
95
88
15
97
55
61
109
24
91
5
18
65
39
52
9
72
86
85
4
90
6
11
30
25
67
12
22
16
28
76
13
57
8

>  <PUBCHEM_MMFF94_PARTIAL_CHARGES>  (1) 
13
1 -0.56
10 0.5
12 0.28
14 0.5
15 0.5
16 0.5
2 -1.01
3 -1.01
4 0.5
5 0.5
6 0.5
7 0.5
8 0.28

>  <PUBCHEM_EFFECTIVE_ROTOR_COUNT>  (1) 
9

>  <PUBCHEM_PHARMACOPHORE_FEATURES>  (1) 
4
1 1 acceptor
1 13 hydrophobe
1 2 cation
1 3 cation

>  <PUBCHEM_HEAVY_ATOM_COUNT>  (1) 
16

>  <PUBCHEM_ATOM_DEF_STEREO_COUNT>  (1) 
0

>  <PUBCHEM_ATOM_UDEF_STEREO_COUNT>  (1) 
1

>  <PUBCHEM_BOND_DEF_STEREO_COUNT>  (1) 
0

>  <PUBCHEM_BOND_UDEF_STEREO_COUNT>  (1) 
0

>  <PUBCHEM_ISOTOPIC_ATOM_COUNT>  (1) 
0

>  <PUBCHEM_COMPONENT_COUNT>  (1) 
1

>  <PUBCHEM_CACTVS_TAUTO_COUNT>  (1) 
1

>  <PUBCHEM_CONFORMER_ID>  (1) 
0000B3DB00000063

>  <PUBCHEM_MMFF94_ENERGY>  (1) 
60.1083

>  <PUBCHEM_FEATURE_SELFOVERLAP>  (1) 
20.297

>  <PUBCHEM_SHAPE_FINGERPRINT>  (1) 
10014705 185 17703787024728902401
10680689 15 17917995022265473814
10912923 1 17604147133752224280
11405975 8 18336545010010240104
117890 112 18201438051849537232
12616971 3 16950279629050621596
14123238 8 11097859583793643688
15242439 84 17775287157771024904
15375358 24 17847065466970112374
15501527 16 18343866593789514529
167882 2 16844175532841398567
17834072 8 17418097598458456812
17844677 252 18270966863775272776
18186145 218 17967805081168944232
187816 3 13039181494988366061
18785283 64 12974757891264538886
200 152 12175617369903815993
20279233 1 17418100931041595518
20281389 69 18411136892620086033
20281475 54 18187359956744230662
20621476 66 18201725020369325881
20645477 56 18113330891076169725
20645477 70 16630253511148534684
20681677 155 18408882936341798203
220451 1 17749105596097477722
22224240 67 18335428920747783009
22485316 2 18342454863830000978
23402539 116 18202275901052759748
23402655 69 17775845714131170900
23559900 14 18413387631966583050
300161 21 18059850667186860952
4214541 1 18411136948010938409
5104073 3 18260542368547050136
542803 24 17967254199968175116
59755656 520 18410286992133730639
633830 44 18342733053019463396
77188 2 17691967485996376971
90127 26 18060140989706602032

>  <PUBCHEM_SHAPE_MULTIPOLES>  (1) 
313.44
13.67
1.86
1.19
10.5
0.78
0.45
-5.17
-1.57
-2.47
-0.53
-0.09
-0.01
-0.19

>  <PUBCHEM_SHAPE_SELFOVERLAP>  (1) 
571.401

>  <PUBCHEM_SHAPE_VOLUME>  (1) 
204.7

>  <PUBCHEM_COORDINATE_TYPE>  (1) 
2
5
10

$$$$
