4604
     RDKit          3D

 11 11  0  0  0  0  0  0  0  0999 V2000
   -1.9677    2.2935    0.0042 O   0  0  0  0  0  0  0  0  0  0  0  0
    2.6190    0.0401    1.2096 O   0  0  0  0  0  0  0  0  0  0  0  0
   -1.9011   -2.2992    0.0032 O   0  0  0  0  0  0  0  0  0  0  0  0
    2.8235    0.0523   -1.0682 O   0  0  0  0  0  0  0  0  0  0  0  0
    0.0421    1.1642   -0.0246 N   0  0  0  0  0  0  0  0  0  0  0  0
   -1.9551   -0.0173    0.0031 N   0  0  0  0  0  0  0  0  0  0  0  0
    0.1070   -1.2025   -0.0262 N   0  0  0  0  0  0  0  0  0  0  0  0
    0.6855   -0.0477   -0.0341 C   0  0  0  0  0  0  0  0  0  0  0  0
   -1.3420    1.2345   -0.0052 C   0  0  0  0  0  0  0  0  0  0  0  0
   -1.2751   -1.2386   -0.0065 C   0  0  0  0  0  0  0  0  0  0  0  0
    2.1638    0.0208   -0.0553 C   0  0  0  0  0  0  0  0  0  0  0  0
  1  9  2  0
  2 11  1  0
  3 10  2  0
  4 11  2  0
  5  8  1  0
  5  9  1  0
  6  9  1  0
  6 10  1  0
  7  8  2  0
  7 10  1  0
  8 11  1  0
M  END
>  <PUBCHEM_COMPOUND_CID>  (1) 
4604

>  <PUBCHEM_CONFORMER_RMSD>  (1) 
0.4

>  <PUBCHEM_CONFORMER_DIVERSEORDER>  (1) 
1
2
3

>  <PUBCHEM_MMFF94_PARTIAL_CHARGES>  (1) 
14
1 -0.57
10 0.84
11 0.72
12 0.37
13 0.37
14 0.5
2 -0.65
3 -0.57
4 -0.57
5 -0.49
6 -0.49
7 -0.66
8 0.51
9 0.69

>  <PUBCHEM_EFFECTIVE_ROTOR_COUNT>  (1) 
1

>  <PUBCHEM_PHARMACOPHORE_FEATURES>  (1) 
9
1 1 acceptor
1 2 acceptor
1 3 acceptor
1 4 acceptor
1 5 donor
1 6 donor
1 7 donor
3 2 4 11 anion
6 5 6 7 8 9 10 rings

>  <PUBCHEM_HEAVY_ATOM_COUNT>  (1) 
11

>  <PUBCHEM_ATOM_DEF_STEREO_COUNT>  (1) 
0

>  <PUBCHEM_ATOM_UDEF_STEREO_COUNT>  (1) 
0

>  <PUBCHEM_BOND_DEF_STEREO_COUNT>  (1) 
0

>  <PUBCHEM_BOND_UDEF_STEREO_COUNT>  (1) 
0

>  <PUBCHEM_ISOTOPIC_ATOM_COUNT>  (1) 
0

>  <PUBCHEM_COMPONENT_COUNT>  (1) 
1

>  <PUBCHEM_CACTVS_TAUTO_COUNT>  (1) 
5

>  <PUBCHEM_CONFORMER_ID>  (1) 
000011FC00000001

>  <PUBCHEM_MMFF94_ENERGY>  (1) 
21.453

>  <PUBCHEM_FEATURE_SELFOVERLAP>  (1) 
45.844

>  <PUBCHEM_SHAPE_FINGERPRINT>  (1) 
1 1 17689711961532988045
10857977 72 18198614626253566162
12716758 59 18342177704910313906
12932741 1 17775286054069879316
16945 1 18410854365069756875
20645464 45 17988631983161702504
20871998 184 18272655696276241559
21040471 1 18266740177610621604
21930827 45 18343024350312144744
23552423 10 17971193874468205436
23559900 14 18128822933478133894
29004967 10 16773802519313202058
81228 2 18411417345283128283

>  <PUBCHEM_SHAPE_MULTIPOLES>  (1) 
187.95
3.56
1.95
0.76
2.08
0.03
-0.04
-0.14
0.04
-2.01
0
0.55
-0.01
0

>  <PUBCHEM_SHAPE_SELFOVERLAP>  (1) 
393.702

>  <PUBCHEM_SHAPE_VOLUME>  (1) 
104

>  <PUBCHEM_COORDINATE_TYPE>  (1) 
2
5
10

$$$$
