46053
     RDKit          3D

 17 16  0  0  0  0  0  0  0  0999 V2000
   -5.0504    0.3312   -0.1867 N   0  0  0  0  0  0  0  0  0  0  0  0
    4.9048   -0.3556   -0.2279 N   0  0  0  0  0  0  0  0  0  0  0  0
   -3.8227    0.6446    0.5835 C   0  0  0  0  0  0  0  0  0  0  0  0
    3.7436    0.0849    0.5841 C   0  0  0  0  0  0  0  0  0  0  0  0
   -2.6062    0.2034   -0.2168 C   0  0  0  0  0  0  0  0  0  0  0  0
    2.4637   -0.1838   -0.1948 C   0  0  0  0  0  0  0  0  0  0  0  0
   -1.3144    0.4644    0.5594 C   0  0  0  0  0  0  0  0  0  0  0  0
    1.2047    0.2837    0.5405 C   0  0  0  0  0  0  0  0  0  0  0  0
   -0.0882   -0.0097   -0.2241 C   0  0  0  0  0  0  0  0  0  0  0  0
   -5.1701   -1.1794   -0.4335 C   0  0  0  0  0  0  0  0  0  0  0  0
    6.2190   -0.1302    0.5324 C   0  0  0  0  0  0  0  0  0  0  0  0
   -6.3037    0.7903    0.5721 C   0  0  0  0  0  0  0  0  0  0  0  0
   -5.0345    1.0366   -1.5505 C   0  0  0  0  0  0  0  0  0  0  0  0
    4.7992   -1.8495   -0.5650 C   0  0  0  0  0  0  0  0  0  0  0  0
    4.9762    0.4270   -1.5464 C   0  0  0  0  0  0  0  0  0  0  0  0
   -5.2701   -1.8951    0.8958 C   0  0  0  0  0  0  0  0  0  0  0  0
    6.3493    1.3372    0.8780 C   0  0  0  0  0  0  0  0  0  0  0  0
  1  3  1  0
  1 10  1  0
  1 12  1  0
  1 13  1  0
  2  4  1  0
  2 11  1  0
  2 14  1  0
  2 15  1  0
  3  5  1  0
  4  6  1  0
  5  7  1  0
  6  8  1  0
  7  9  1  0
  8  9  1  0
 10 16  1  0
 11 17  1  0
M  CHG  2   1   1   2   1
M  END
>  <PUBCHEM_COMPOUND_CID>  (1) 
46053

>  <PUBCHEM_CONFORMER_RMSD>  (1) 
0.8

>  <PUBCHEM_CONFORMER_DIVERSEORDER>  (1) 
3
29
141
288
196
221
55
215
1
279
5
17
104
9
138
165
148
152
243
174
200
144
117
137
19
43
65
74
83
4
157
269
70
50
160
80
170
84
63
72
238
105
100
197
244
2
37
124
250
145
268
252
159
18
127
161
114
16
171
242
162
49
180
108
47
232
283
261
175
32
257
210
246
267
195
220
87
139
44
59
153
213
241
140
182
147
276
126
90
25
116
258
185
237
52
203
285
239
183
251
191
66
275
51
38
79
169
233
68
42
192
229
236
135
102
113
115
107
201
224
76
198
48
199
172
262
86
142
78
189
93
260
151
264
60
163
270
56
204
98
259
136
101
12
62
112
188
209
13
132
249
123
158
194
164
118
205
131
177
88
111
208
21
256
235
178
272
228
234
96
81
240
223
110
216
168
266
45
46
35
181
95
214
166
154
231
150
206
71
54
40
130
57
247
207
226
245
75
218
129
94
134
156
6
91
128
222
190
219
277
254
248
143
155
61
282
106
225
103
274
287
58
85
89
26
122
278
64
121
31
217
120
11
173
73
33
125
92
186
82
27
39
263
69
202
23
286
133
15
212
7
30
77
281
14
8
119
28
253
146
265
53
36
193
284
10
230
271
273
99
187
184
41
280
97
67
179
227
20
255
149
24
109
211
22
34
167
176

>  <PUBCHEM_MMFF94_PARTIAL_CHARGES>  (1) 
10
1 -1.01
10 0.5
11 0.5
12 0.5
13 0.5
14 0.5
15 0.5
2 -1.01
3 0.5
4 0.5

>  <PUBCHEM_EFFECTIVE_ROTOR_COUNT>  (1) 
10

>  <PUBCHEM_PHARMACOPHORE_FEATURES>  (1) 
3
1 1 cation
1 2 cation
5 5 6 7 8 9 hydrophobe

>  <PUBCHEM_HEAVY_ATOM_COUNT>  (1) 
17

>  <PUBCHEM_ATOM_DEF_STEREO_COUNT>  (1) 
0

>  <PUBCHEM_ATOM_UDEF_STEREO_COUNT>  (1) 
0

>  <PUBCHEM_BOND_DEF_STEREO_COUNT>  (1) 
0

>  <PUBCHEM_BOND_UDEF_STEREO_COUNT>  (1) 
0

>  <PUBCHEM_ISOTOPIC_ATOM_COUNT>  (1) 
0

>  <PUBCHEM_COMPONENT_COUNT>  (1) 
1

>  <PUBCHEM_CACTVS_TAUTO_COUNT>  (1) 
1

>  <PUBCHEM_CONFORMER_ID>  (1) 
0000B3E500000003

>  <PUBCHEM_MMFF94_ENERGY>  (1) 
53.734

>  <PUBCHEM_FEATURE_SELFOVERLAP>  (1) 
15.223

>  <PUBCHEM_SHAPE_FINGERPRINT>  (1) 
10638233 991 14692287395699976522
11089746 13 16370723747030312612
11287383 113 18412825806793465888
11315181 36 18060136562165064601
12091667 2 17095241415194114089
12516196 113 18407759244069646956
13073987 5 17988926622461075928
13533116 47 18059011679954838134
1420 363 18060142045973125179
14251718 22 18408322202623201730
14251732 16 18272368719672953130
14251764 46 15719392828528250633
14461889 52 18340200908153990322
14528608 73 17167866374179670134
15183329 4 17095240323771468850
15716309 27 16988844977608856879
17093844 174 18272929423870279209
17834072 33 17822013124606498125
17834076 25 15213020440299569025
17844677 252 17989490731576074041
18927931 339 17846502539340755941
19489759 90 17530963583951948777
20645477 70 17774726355934417110
21054139 6 17604144930102374819
220451 1 18114185215853203907
23035841 295 18260551117511469555
23081809 10 16988841666004455241
23402539 116 17385439921359443319
23536379 177 18411419488123714352
23559900 14 18342449379030358889
2767999 5 14562529587156446398
300161 21 18186794773059682026
42788 4 15213021539668784885
4340502 62 18409444787601691090
4463277 17 17775566433408151080
542803 24 16515686632373969205
57483677 66 18342457032292866631

>  <PUBCHEM_SHAPE_MULTIPOLES>  (1) 
339.89
20.5
1.4
1.15
3.07
0.62
0.32
-0.13
-0.46
-0.52
-0.05
0.04
-0.18
1.19

>  <PUBCHEM_SHAPE_SELFOVERLAP>  (1) 
617.972

>  <PUBCHEM_SHAPE_VOLUME>  (1) 
220.3

>  <PUBCHEM_COORDINATE_TYPE>  (1) 
2
5
10

$$$$
