46057
     RDKit          3D

 42 47  0  0  0  0  0  0  0  0999 V2000
   -4.3793   -1.5420    0.3359 N   0  0  0  0  0  0  0  0  0  0  0  0
    4.3622   -1.5496   -0.4069 N   0  0  0  0  0  0  0  0  0  0  0  0
   -4.7607   -0.1887   -0.1479 C   0  0  0  0  0  0  0  0  0  0  0  0
    4.7524   -0.1576    0.1104 C   0  0  0  0  0  0  0  0  0  0  0  0
   -2.9940   -1.5122    0.9939 C   0  0  0  0  0  0  0  0  0  0  0  0
    3.0228   -1.5202   -1.0422 C   0  0  0  0  0  0  0  0  0  0  0  0
   -5.3906   -2.0530    1.3699 C   0  0  0  0  0  0  0  0  0  0  0  0
   -4.3361   -2.5414   -0.8270 C   0  0  0  0  0  0  0  0  0  0  0  0
    5.4331   -2.0020   -1.4099 C   0  0  0  0  0  0  0  0  0  0  0  0
    4.3819   -2.5218    0.7813 C   0  0  0  0  0  0  0  0  0  0  0  0
   -1.9272   -1.5030   -0.0908 C   0  0  0  0  0  0  0  0  0  0  0  0
    1.9564   -1.5295    0.0429 C   0  0  0  0  0  0  0  0  0  0  0  0
   -4.3669    0.9230    0.8085 C   0  0  0  0  0  0  0  0  0  0  0  0
   -4.0336    0.2215   -1.4164 C   0  0  0  0  0  0  0  0  0  0  0  0
    4.3192    0.9679   -0.8122 C   0  0  0  0  0  0  0  0  0  0  0  0
    4.0550    0.2176    1.4060 C   0  0  0  0  0  0  0  0  0  0  0  0
   -0.5247   -1.5198    0.5185 C   0  0  0  0  0  0  0  0  0  0  0  0
    0.5536   -1.5465   -0.5661 C   0  0  0  0  0  0  0  0  0  0  0  0
   -3.5179    1.8497    0.1621 C   0  0  0  0  0  0  0  0  0  0  0  0
   -3.3132    1.4187   -1.2044 C   0  0  0  0  0  0  0  0  0  0  0  0
    3.4770    1.8707   -0.1242 C   0  0  0  0  0  0  0  0  0  0  0  0
    3.3146    1.4096    1.2382 C   0  0  0  0  0  0  0  0  0  0  0  0
   -6.7609   -2.1263    0.7328 C   0  0  0  0  0  0  0  0  0  0  0  0
   -3.9455   -3.9043   -0.2984 C   0  0  0  0  0  0  0  0  0  0  0  0
    6.7754   -2.0582   -0.7140 C   0  0  0  0  0  0  0  0  0  0  0  0
    4.0004   -3.9046    0.3001 C   0  0  0  0  0  0  0  0  0  0  0  0
   -4.7266    1.0806    2.1367 C   0  0  0  0  0  0  0  0  0  0  0  0
   -4.0110   -0.4259   -2.6407 C   0  0  0  0  0  0  0  0  0  0  0  0
    4.6409    1.1568   -2.1461 C   0  0  0  0  0  0  0  0  0  0  0  0
    4.0736   -0.4545    2.6171 C   0  0  0  0  0  0  0  0  0  0  0  0
   -3.0276    2.9510    0.8445 C   0  0  0  0  0  0  0  0  0  0  0  0
   -2.5670    1.9822   -2.2267 C   0  0  0  0  0  0  0  0  0  0  0  0
    2.9550    2.9792   -0.7705 C   0  0  0  0  0  0  0  0  0  0  0  0
    2.5897    1.9429    2.2914 C   0  0  0  0  0  0  0  0  0  0  0  0
   -4.2325    2.1906    2.8239 C   0  0  0  0  0  0  0  0  0  0  0  0
   -3.2589    0.1424   -3.6704 C   0  0  0  0  0  0  0  0  0  0  0  0
    4.1148    2.2741   -2.7968 C   0  0  0  0  0  0  0  0  0  0  0  0
    3.3429    0.0833    3.6781 C   0  0  0  0  0  0  0  0  0  0  0  0
   -3.3920    3.1172    2.1839 C   0  0  0  0  0  0  0  0  0  0  0  0
   -2.5446    1.3349   -3.4657 C   0  0  0  0  0  0  0  0  0  0  0  0
    3.2808    3.1768   -2.1157 C   0  0  0  0  0  0  0  0  0  0  0  0
    2.6088    1.2705    3.5172 C   0  0  0  0  0  0  0  0  0  0  0  0
  1  3  1  0
  1  5  1  0
  1  7  1  0
  1  8  1  0
  2  4  1  0
  2  6  1  0
  2  9  1  0
  2 10  1  0
  3 13  1  0
  3 14  1  0
  4 15  1  0
  4 16  1  0
  5 11  1  0
  6 12  1  0
  7 23  1  0
  8 24  1  0
  9 25  1  0
 10 26  1  0
 11 17  1  0
 12 18  1  0
 13 19  1  0
 13 27  2  0
 14 20  2  0
 14 28  1  0
 15 21  1  0
 15 29  2  0
 16 22  2  0
 16 30  1  0
 17 18  1  0
 19 20  1  0
 19 31  2  0
 20 32  1  0
 21 22  1  0
 21 33  2  0
 22 34  1  0
 27 35  1  0
 28 36  2  0
 29 37  1  0
 30 38  2  0
 31 39  1  0
 32 40  2  0
 33 41  1  0
 34 42  2  0
 35 39  2  0
 36 40  1  0
 37 41  2  0
 38 42  1  0
M  CHG  2   1   1   2   1
M  END
>  <PUBCHEM_COMPOUND_CID>  (1) 
46057

>  <PUBCHEM_CONFORMER_RMSD>  (1) 
1.2

>  <PUBCHEM_CONFORMER_DIVERSEORDER>  (1) 
3
24
42
58
56
43
34
1
49
54
12
29
14
47
18
27
7
52
39
44
4
45
6
23
19
46
50
41
30
31
32
26
33
22
10
37
21
57
53
35
55
11
20
13
38
17
36
28
40
16
48
51
2
25
15
8
9
5

>  <PUBCHEM_MMFF94_PARTIAL_CHARGES>  (1) 
46
1 -1.01
10 0.5
13 -0.14
14 -0.14
15 -0.14
16 -0.14
2 -1.01
27 -0.15
28 -0.15
29 -0.15
3 0.79
30 -0.15
31 -0.15
32 -0.15
33 -0.15
34 -0.15
35 -0.15
36 -0.15
37 -0.15
38 -0.15
39 -0.15
4 0.79
40 -0.15
41 -0.15
42 -0.15
5 0.5
6 0.5
7 0.5
77 0.15
78 0.15
79 0.15
8 0.5
80 0.15
81 0.15
82 0.15
83 0.15
84 0.15
85 0.15
86 0.15
87 0.15
88 0.15
89 0.15
9 0.5
90 0.15
91 0.15
92 0.15

>  <PUBCHEM_EFFECTIVE_ROTOR_COUNT>  (1) 
13.4

>  <PUBCHEM_PHARMACOPHORE_FEATURES>  (1) 
9
1 1 cation
1 2 cation
4 11 12 17 18 hydrophobe
5 3 13 14 19 20 rings
5 4 15 16 21 22 rings
6 13 19 27 31 35 39 rings
6 14 20 28 32 36 40 rings
6 15 21 29 33 37 41 rings
6 16 22 30 34 38 42 rings

>  <PUBCHEM_HEAVY_ATOM_COUNT>  (1) 
42

>  <PUBCHEM_ATOM_DEF_STEREO_COUNT>  (1) 
0

>  <PUBCHEM_ATOM_UDEF_STEREO_COUNT>  (1) 
0

>  <PUBCHEM_BOND_DEF_STEREO_COUNT>  (1) 
0

>  <PUBCHEM_BOND_UDEF_STEREO_COUNT>  (1) 
0

>  <PUBCHEM_ISOTOPIC_ATOM_COUNT>  (1) 
0

>  <PUBCHEM_COMPONENT_COUNT>  (1) 
1

>  <PUBCHEM_CACTVS_TAUTO_COUNT>  (1) 
1

>  <PUBCHEM_CONFORMER_ID>  (1) 
0000B3E900000003

>  <PUBCHEM_MMFF94_ENERGY>  (1) 
233.6188

>  <PUBCHEM_FEATURE_SELFOVERLAP>  (1) 
45.999

>  <PUBCHEM_SHAPE_FINGERPRINT>  (1) 
10928967 22 17821729412026010480
14279260 333 17771352963723578798
14950920 106 18341900671124875565
15001296 14 17604150457508584186
150020 26 18270676455461811038
15406563 228 18337403677552922934
16067690 210 15791999074410461789
17921350 177 17531516595493627996
20764821 26 18410015411849046664
23559900 14 18335977610597547294
460360 51 17604413111986031114
469060 322 17530690914075062779
497634 4 18408327670749806175
508706 21 18266729208433329593
6086070 43 17604409835316543198

>  <PUBCHEM_SHAPE_MULTIPOLES>  (1) 
854.38
15.96
4.27
3.71
0.06
1
0.1
5.61
0.24
0
-0.05
-0.02
-2.73
-1.24

>  <PUBCHEM_SHAPE_SELFOVERLAP>  (1) 
1860.754

>  <PUBCHEM_SHAPE_VOLUME>  (1) 
465.6

>  <PUBCHEM_COORDINATE_TYPE>  (1) 
2
5
10

$$$$
