46078
     RDKit          3D

 15 15  0  0  0  0  0  0  0  0999 V2000
    2.5919   -0.0724    0.7931 O   0  0  0  0  0  0  0  0  0  0  0  0
    2.4085    1.6912   -0.6666 O   0  0  0  0  0  0  0  0  0  0  0  0
    0.6893    1.1184    0.7819 N   0  0  0  0  0  0  0  0  0  0  0  0
   -1.1760    1.6899   -0.7363 C   0  0  0  0  0  0  0  0  0  0  0  0
   -0.2571    2.1400    0.3968 C   0  0  0  0  0  0  0  0  0  0  0  0
   -2.0173    0.4916   -0.3711 C   0  0  0  0  0  0  0  0  0  0  0  0
    3.5299   -0.7586   -0.0436 C   0  0  0  0  0  0  0  0  0  0  0  0
   -1.5301   -0.7826   -0.6181 C   0  0  0  0  0  0  0  0  0  0  0  0
   -3.2632    0.6859    0.2050 C   0  0  0  0  0  0  0  0  0  0  0  0
    4.1873   -1.8756    0.7525 C   0  0  0  0  0  0  0  0  0  0  0  0
    2.8094   -1.2881   -1.2743 C   0  0  0  0  0  0  0  0  0  0  0  0
    1.9401    0.9818    0.2176 C   0  0  0  0  0  0  0  0  0  0  0  0
   -2.3081   -1.8901   -0.2801 C   0  0  0  0  0  0  0  0  0  0  0  0
   -4.0411   -0.4216    0.5427 C   0  0  0  0  0  0  0  0  0  0  0  0
   -3.5635   -1.7097    0.3005 C   0  0  0  0  0  0  0  0  0  0  0  0
  1  7  1  0
  1 12  1  0
  2 12  2  0
  3  5  1  0
  3 12  1  0
  4  5  1  0
  4  6  1  0
  6  8  2  0
  6  9  1  0
  7 10  1  0
  7 11  1  0
  8 13  1  0
  9 14  2  0
 13 15  2  0
 14 15  1  0
M  END
>  <PUBCHEM_COMPOUND_CID>  (1) 
46078

>  <PUBCHEM_CONFORMER_RMSD>  (1) 
0.8

>  <PUBCHEM_CONFORMER_DIVERSEORDER>  (1) 
1
19
15
29
21
17
7
11
23
16
8
22
4
3
25
41
34
27
38
31
5
26
6
33
36
10
30
40
12
24
20
28
13
32
39
37
14
18
35
2
9
42

>  <PUBCHEM_MMFF94_PARTIAL_CHARGES>  (1) 
19
1 -0.43
12 0.78
13 -0.15
14 -0.15
15 -0.15
2 -0.57
21 0.37
22 0.15
23 0.15
3 -0.73
30 0.15
31 0.15
32 0.15
4 0.14
5 0.3
6 -0.14
7 0.28
8 -0.15
9 -0.15

>  <PUBCHEM_EFFECTIVE_ROTOR_COUNT>  (1) 
6

>  <PUBCHEM_PHARMACOPHORE_FEATURES>  (1) 
4
1 2 acceptor
1 3 donor
3 7 10 11 hydrophobe
6 6 8 9 13 14 15 rings

>  <PUBCHEM_HEAVY_ATOM_COUNT>  (1) 
15

>  <PUBCHEM_ATOM_DEF_STEREO_COUNT>  (1) 
0

>  <PUBCHEM_ATOM_UDEF_STEREO_COUNT>  (1) 
0

>  <PUBCHEM_BOND_DEF_STEREO_COUNT>  (1) 
0

>  <PUBCHEM_BOND_UDEF_STEREO_COUNT>  (1) 
0

>  <PUBCHEM_ISOTOPIC_ATOM_COUNT>  (1) 
0

>  <PUBCHEM_COMPONENT_COUNT>  (1) 
1

>  <PUBCHEM_CACTVS_TAUTO_COUNT>  (1) 
2

>  <PUBCHEM_CONFORMER_ID>  (1) 
0000B3FE00000001

>  <PUBCHEM_MMFF94_ENERGY>  (1) 
26.5012

>  <PUBCHEM_FEATURE_SELFOVERLAP>  (1) 
20.297

>  <PUBCHEM_SHAPE_FINGERPRINT>  (1) 
10616163 171 18124319568844765358
10618630 7 18410855464528708580
12006461 19 18338517551150364707
12186901 62 17313658244863947781
12596599 1 18201454574573173699
13296908 3 18334572468875149409
14251705 54 18412827988600149806
14350558 41 18342742905642999612
15239191 94 18335139803821362019
15375462 189 18270684306229387520
17804303 29 18413394245883974321
17834074 16 18411703179477733287
18522851 12 18266191693201953381
19422 9 18335707173581071489
19766037 51 18041572406892206883
20281475 54 18410575136471900205
20291156 8 18334855004756086146
20442098 301 18058448875349426951
20645477 70 18265603454802827319
20871998 22 18337105773725256073
21634736 98 18334863835451524204
22445834 79 18053947530954361453
22721475 48 18342459227036609012
22959321 94 18338793412604988474
23463225 33 18411702118620694373
23559900 14 18340193099913878312
328317 168 9583513201094435763
4416823 128 18410292531660126464
5902787 121 18410287000158993746
6786 2 16017163417765638429

>  <PUBCHEM_SHAPE_MULTIPOLES>  (1) 
291.97
7.91
2.37
0.96
2.43
0.17
-0.1
-4.59
1.13
0.13
-0.02
0.43
-0.09
-0.02

>  <PUBCHEM_SHAPE_SELFOVERLAP>  (1) 
586.76

>  <PUBCHEM_SHAPE_VOLUME>  (1) 
171.1

>  <PUBCHEM_COORDINATE_TYPE>  (1) 
2
5
10

$$$$
