4607
     RDKit          3D

 28 31  0  0  1  0  0  0  0  0999 V2000
    2.8925    2.1770    0.6414 S   0  0  0  0  0  0  0  0  0  0  0  0
    1.6317   -0.5135   -2.5782 O   0  0  0  0  0  0  0  0  0  0  0  0
    3.5756   -0.6942    2.1379 O   0  0  0  0  0  0  0  0  0  0  0  0
    4.5789   -2.2490    0.7922 O   0  0  0  0  0  0  0  0  0  0  0  0
   -1.2348    2.6592    0.5811 O   0  0  0  0  0  0  0  0  0  0  0  0
   -5.1740    1.1748    0.3295 O   0  0  0  0  0  0  0  0  0  0  0  0
    2.2263   -0.1661   -0.3224 N   0  0  0  0  0  0  0  0  0  0  0  0
   -0.7171    0.7833   -0.6548 N   0  0  0  0  0  0  0  0  0  0  0  0
   -4.8089   -0.1641    0.2579 N   0  0  0  0  0  0  0  0  0  0  0  0
    1.5730    0.9317    0.3883 C   0  0  0  0  0  0  0  0  0  0  0  0
    4.2280    1.1182   -0.1082 C   0  0  0  0  0  0  0  0  0  0  0  0
    3.6603   -0.3207   -0.1854 C   0  0  0  0  0  0  0  0  0  0  0  0
    0.6937    1.1244   -0.8587 C   0  0  0  0  0  0  0  0  0  0  0  0
    1.5241   -0.0157   -1.4807 C   0  0  0  0  0  0  0  0  0  0  0  0
    4.5198    1.6721   -1.5135 C   0  0  0  0  0  0  0  0  0  0  0  0
    5.4953    1.2461    0.7449 C   0  0  0  0  0  0  0  0  0  0  0  0
    3.9680   -1.1710    1.0370 C   0  0  0  0  0  0  0  0  0  0  0  0
   -1.5947    1.5997    0.0689 C   0  0  0  0  0  0  0  0  0  0  0  0
   -2.9861    1.1377    0.1603 C   0  0  0  0  0  0  0  0  0  0  0  0
   -3.4768   -0.1542    0.1560 C   0  0  0  0  0  0  0  0  0  0  0  0
   -4.0590    1.9471    0.2689 C   0  0  0  0  0  0  0  0  0  0  0  0
   -2.7468   -1.3913    0.0601 C   0  0  0  0  0  0  0  0  0  0  0  0
   -4.2706    3.3998    0.3327 C   0  0  0  0  0  0  0  0  0  0  0  0
   -2.3031   -2.0264    1.2178 C   0  0  0  0  0  0  0  0  0  0  0  0
   -2.4869   -1.9483   -1.1900 C   0  0  0  0  0  0  0  0  0  0  0  0
   -1.5953   -3.2248    1.1249 C   0  0  0  0  0  0  0  0  0  0  0  0
   -1.7794   -3.1468   -1.2828 C   0  0  0  0  0  0  0  0  0  0  0  0
   -1.3336   -3.7850   -0.1252 C   0  0  0  0  0  0  0  0  0  0  0  0
  1 10  1  0
  1 11  1  0
  2 14  2  0
  3 17  1  0
  4 17  2  0
  5 18  2  0
  6  9  1  0
  6 21  1  0
  7 10  1  0
  7 12  1  0
  7 14  1  0
  8 13  1  0
  8 18  1  0
  9 20  2  0
 10 13  1  0
 11 12  1  0
 11 15  1  0
 11 16  1  0
 12 17  1  0
 13 14  1  0
 18 19  1  0
 19 20  1  0
 19 21  2  0
 20 22  1  0
 21 23  1  0
 22 24  2  0
 22 25  1  0
 24 26  1  0
 25 27  2  0
 26 28  2  0
 27 28  1  0
M  CHG  1   3  -1
M  END
>  <PUBCHEM_COMPOUND_CID>  (1) 
4607

>  <PUBCHEM_CONFORMER_RMSD>  (1) 
0.8

>  <PUBCHEM_CONFORMER_DIVERSEORDER>  (1) 
1
125
67
169
172
14
87
98
166
97
127
48
72
3
163
79
53
139
83
17
146
16
153
122
120
81
50
59
164
25
110
41
128
103
144
91
78
28
138
89
123
84
10
65
13
121
21
90
31
77
60
145
94
11
157
51
150
132
104
20
137
106
61
12
142
4
56
115
40
158
85
57
155
117
76
47
143
73
159
95
35
63
68
58
136
82
133
70
7
161
26
129
160
140
114
5
141
34
154
88
112
93
105
2
131
147
30
124
151
49
46
32
9
130
38
39
167
152
111
118
27
24
36
19
55
165
102
99
33
108
37
148
52
29
119
100
42
116
107
66
8
75
101
18
168
54
171
149
86
170
15
71
80
43
23
45
113
62
156
6
64
109
126
134
44
74
135
96
92
22
162
69

>  <PUBCHEM_MMFF94_PARTIAL_CHARGES>  (1) 
32
1 -0.45
10 0.44
11 0.23
12 0.19
13 0.28
14 0.58
17 0.91
18 0.72
19 -0.09
2 -0.57
20 0.23
21 -0.04
22 0.05
23 0.18
24 -0.15
25 -0.15
26 -0.15
27 -0.15
28 -0.15
3 -0.9
38 0.37
4 -0.9
42 0.15
43 0.15
44 0.15
45 0.15
46 0.15
5 -0.57
6 -0.02
7 -0.59
8 -0.65
9 -0.41

>  <PUBCHEM_EFFECTIVE_ROTOR_COUNT>  (1) 
5.8

>  <PUBCHEM_PHARMACOPHORE_FEATURES>  (1) 
12
1 2 acceptor
1 3 acceptor
1 4 acceptor
1 5 acceptor
1 8 donor
1 9 acceptor
3 11 15 16 hydrophobe
3 3 4 17 anion
4 7 10 13 14 rings
5 6 9 19 20 21 rings
6 22 24 25 26 27 28 rings
7 1 7 10 11 12 13 14 rings

>  <PUBCHEM_HEAVY_ATOM_COUNT>  (1) 
28

>  <PUBCHEM_ATOM_DEF_STEREO_COUNT>  (1) 
0

>  <PUBCHEM_ATOM_UDEF_STEREO_COUNT>  (1) 
3

>  <PUBCHEM_BOND_DEF_STEREO_COUNT>  (1) 
0

>  <PUBCHEM_BOND_UDEF_STEREO_COUNT>  (1) 
0

>  <PUBCHEM_ISOTOPIC_ATOM_COUNT>  (1) 
0

>  <PUBCHEM_COMPONENT_COUNT>  (1) 
1

>  <PUBCHEM_CACTVS_TAUTO_COUNT>  (1) 
2

>  <PUBCHEM_CONFORMER_ID>  (1) 
000011FF00000001

>  <PUBCHEM_MMFF94_ENERGY>  (1) 
74.0271

>  <PUBCHEM_FEATURE_SELFOVERLAP>  (1) 
64.924

>  <PUBCHEM_SHAPE_FINGERPRINT>  (1) 
10366900 7 17346602971295337200
10616163 171 18338238296571850438
11370993 70 18341332193522176653
11513181 2 18343864433479786414
11552529 35 18193550297128850374
12107183 9 18120650236855411482
12422481 6 17754451257842692699
12633257 1 18343862199599834960
12788726 201 18339922739996089707
13583140 156 18058727047797051896
13631057 29 18047474705922529454
13726171 33 17909584909391434492
14081887 123 18268420416356837152
14844126 61 18266738176335619499
15250474 111 18336537335125234382
15484559 13 15147941279159730028
1813 80 16515685511936112068
20511986 3 17968647315428742180
20554085 129 18056740054535341385
21133410 171 17118263127228538190
21133410 52 15392587577591611604
23559900 14 18129675088605171652
23728640 28 18410857698381642899
3298306 158 18121778331669994045
338550 245 18263927648684758310
3411729 13 18050293557953557985
3633792 109 18042102333385356671
5104073 3 18410860923480096121
5265222 85 18338811052336483638
5309563 4 17400647515597157515
5364581 5 17911786183684643112
9709674 26 18272942643120148903

>  <PUBCHEM_SHAPE_MULTIPOLES>  (1) 
535.79
10.81
4.01
1.47
5.21
1.76
0.39
-4.1
-2.05
-4.11
-0.49
1.19
0.61
-1.05

>  <PUBCHEM_SHAPE_SELFOVERLAP>  (1) 
1155.707

>  <PUBCHEM_SHAPE_VOLUME>  (1) 
297.8

>  <PUBCHEM_COORDINATE_TYPE>  (1) 
2
5
10

$$$$
