4608
     RDKit          3D

 28 31  0  0  1  0  0  0  0  0999 V2000
   -2.9532    1.9372   -1.2281 S   0  0  0  0  0  0  0  0  0  0  0  0
   -2.2603   -0.1356    2.5877 O   0  0  0  0  0  0  0  0  0  0  0  0
   -4.8634   -1.8941    0.6168 O   0  0  0  0  0  0  0  0  0  0  0  0
   -6.6668   -0.5051    0.7372 O   0  0  0  0  0  0  0  0  0  0  0  0
    1.5199    1.1243   -0.5587 O   0  0  0  0  0  0  0  0  0  0  0  0
    3.2397   -3.0592   -0.5587 O   0  0  0  0  0  0  0  0  0  0  0  0
   -3.0845   -0.0959    0.3764 N   0  0  0  0  0  0  0  0  0  0  0  0
    0.0258   -0.4395    0.2393 N   0  0  0  0  0  0  0  0  0  0  0  0
    4.2754   -2.1579   -0.3444 N   0  0  0  0  0  0  0  0  0  0  0  0
   -2.1761    0.3773   -0.6725 C   0  0  0  0  0  0  0  0  0  0  0  0
   -4.6489    1.2683   -0.8503 C   0  0  0  0  0  0  0  0  0  0  0  0
   -4.4406    0.4223    0.4254 C   0  0  0  0  0  0  0  0  0  0  0  0
   -1.0921    0.4936    0.4075 C   0  0  0  0  0  0  0  0  0  0  0  0
   -2.1725   -0.0031    1.3880 C   0  0  0  0  0  0  0  0  0  0  0  0
   -5.6020    2.4388   -0.6011 C   0  0  0  0  0  0  0  0  0  0  0  0
   -5.1176    0.4588   -2.0681 C   0  0  0  0  0  0  0  0  0  0  0  0
   -5.4639   -0.6790    0.6095 C   0  0  0  0  0  0  0  0  0  0  0  0
    1.2781   -0.0405   -0.2437 C   0  0  0  0  0  0  0  0  0  0  0  0
    2.3061   -1.0865   -0.3271 C   0  0  0  0  0  0  0  0  0  0  0  0
    3.6780   -0.9708   -0.2077 C   0  0  0  0  0  0  0  0  0  0  0  0
    2.0565   -2.3935   -0.5451 C   0  0  0  0  0  0  0  0  0  0  0  0
    4.4614    0.2131    0.0314 C   0  0  0  0  0  0  0  0  0  0  0  0
    0.8512   -3.2063   -0.7584 C   0  0  0  0  0  0  0  0  0  0  0  0
    4.7504    0.6015    1.3376 C   0  0  0  0  0  0  0  0  0  0  0  0
    4.9271    0.9657   -1.0443 C   0  0  0  0  0  0  0  0  0  0  0  0
    5.5092    1.7488    1.5694 C   0  0  0  0  0  0  0  0  0  0  0  0
    5.6860    2.1129   -0.8124 C   0  0  0  0  0  0  0  0  0  0  0  0
    5.9770    2.5044    0.4944 C   0  0  0  0  0  0  0  0  0  0  0  0
  1 10  1  0
  1 11  1  0
  2 14  2  0
  3 17  1  0
  4 17  2  0
  5 18  2  0
  6  9  1  0
  6 21  1  0
  7 10  1  0
  7 12  1  0
  7 14  1  0
  8 13  1  0
  8 18  1  0
  9 20  2  0
 10 13  1  0
 11 12  1  0
 11 15  1  0
 11 16  1  0
 12 17  1  0
 13 14  1  0
 18 19  1  0
 19 20  1  0
 19 21  2  0
 20 22  1  0
 21 23  1  0
 22 24  2  0
 22 25  1  0
 24 26  1  0
 25 27  2  0
 26 28  2  0
 27 28  1  0
M  END
>  <PUBCHEM_COMPOUND_CID>  (1) 
4608

>  <PUBCHEM_CONFORMER_RMSD>  (1) 
0.8

>  <PUBCHEM_CONFORMER_DIVERSEORDER>  (1) 
10
100
21
170
138
11
28
116
64
172
150
80
13
123
74
171
95
148
117
160
161
68
124
155
153
137
99
126
122
73
109
56
90
125
143
154
54
36
89
51
3
162
129
33
72
166
22
111
63
79
120
163
34
25
1
173
75
83
35
59
133
104
149
93
128
5
102
48
131
17
119
108
110
144
77
147
165
57
19
96
7
132
139
159
14
142
44
42
86
6
81
16
60
30
67
92
4
115
32
18
15
23
55
49
66
91
157
71
103
82
70
50
164
87
61
8
130
136
41
2
146
121
12
78
76
62
107
97
45
118
39
105
58
156
84
106
46
158
43
47
88
26
135
27
40
38
112
52
9
151
94
141
24
152
69
37
65
134
31
53
113
20
101
167
168
169
85
127
114
98
145
29
140

>  <PUBCHEM_MMFF94_PARTIAL_CHARGES>  (1) 
33
1 -0.45
10 0.44
11 0.23
12 0.36
13 0.28
14 0.58
17 0.66
18 0.72
19 -0.09
2 -0.57
20 0.23
21 -0.04
22 0.05
23 0.18
24 -0.15
25 -0.15
26 -0.15
27 -0.15
28 -0.15
3 -0.65
38 0.37
39 0.5
4 -0.57
43 0.15
44 0.15
45 0.15
46 0.15
47 0.15
5 -0.57
6 -0.02
7 -0.59
8 -0.65
9 -0.41

>  <PUBCHEM_EFFECTIVE_ROTOR_COUNT>  (1) 
5.8

>  <PUBCHEM_PHARMACOPHORE_FEATURES>  (1) 
12
1 2 acceptor
1 3 acceptor
1 4 acceptor
1 5 acceptor
1 8 donor
1 9 acceptor
3 11 15 16 hydrophobe
3 3 4 17 anion
4 7 10 13 14 rings
5 6 9 19 20 21 rings
6 22 24 25 26 27 28 rings
7 1 7 10 11 12 13 14 rings

>  <PUBCHEM_HEAVY_ATOM_COUNT>  (1) 
28

>  <PUBCHEM_ATOM_DEF_STEREO_COUNT>  (1) 
0

>  <PUBCHEM_ATOM_UDEF_STEREO_COUNT>  (1) 
3

>  <PUBCHEM_BOND_DEF_STEREO_COUNT>  (1) 
0

>  <PUBCHEM_BOND_UDEF_STEREO_COUNT>  (1) 
0

>  <PUBCHEM_ISOTOPIC_ATOM_COUNT>  (1) 
0

>  <PUBCHEM_COMPONENT_COUNT>  (1) 
1

>  <PUBCHEM_CACTVS_TAUTO_COUNT>  (1) 
2

>  <PUBCHEM_CONFORMER_ID>  (1) 
000012000000000A

>  <PUBCHEM_MMFF94_ENERGY>  (1) 
72.3382

>  <PUBCHEM_FEATURE_SELFOVERLAP>  (1) 
64.695

>  <PUBCHEM_SHAPE_FINGERPRINT>  (1) 
10 15 18187925135949417024
10165383 225 18341618170442726264
10835480 77 18410569553246900885
11181472 205 17273992233758940369
12236239 1 17346602963042726689
12403259 415 18409735036420893542
12596602 18 17632865239060904371
12616971 3 17846205614876272918
12730499 353 18413393142235628290
13631057 29 17844233245761849447
13911987 19 18341899640396664404
14461889 52 18261677068335850162
14528608 73 18060415820311084876
146900 427 17917993888568226714
14840074 17 17203890769000074205
15183329 4 12685091466721539355
15419008 42 17970610910230832271
15537594 2 17561361790314494591
15575132 122 16917073235214877265
15961568 22 17749395875462318404
17349148 13 14996289080540765183
17844677 252 18338806597890849429
17980427 23 17531248399933149165
1979834 28 18407762538868693708
20567600 234 18188208805490898508
20645477 70 18338241449109656670
21033648 29 18186524284609236432
22149856 69 18265072309419862849
23559900 14 17531539659415448270
239999 70 18340489950720969534
32027 91 18046623404397218771
34797466 226 18131361825083309732
4073 2 18260833691868004107
4340502 62 18343301492131161846
437795 51 17417251077362719411
44317340 157 18271810068723436133
5104073 3 18335702681029241769
5283173 99 18114742616761885981
6004065 56 18263359347481589917

>  <PUBCHEM_SHAPE_MULTIPOLES>  (1) 
535.79
16.84
2.91
1.5
3.11
1.42
0.4
-8.14
0.68
-2.86
-0.81
0.78
-0.29
2.13

>  <PUBCHEM_SHAPE_SELFOVERLAP>  (1) 
1153.069

>  <PUBCHEM_SHAPE_VOLUME>  (1) 
299.6

>  <PUBCHEM_COORDINATE_TYPE>  (1) 
2
5
10

$$$$
