46087
     RDKit          3D

 18 17  0  0  1  0  0  0  0  0999 V2000
   -0.1608    0.7693   -0.6106 O   0  0  0  0  0  0  0  0  0  0  0  0
    2.6449   -0.2752   -0.0508 N   0  0  0  0  0  0  0  0  0  0  0  0
   -3.6186   -0.1348    0.4628 N   0  0  0  0  0  0  0  0  0  0  0  0
    2.2187    1.0276   -0.6198 C   0  0  0  0  0  0  0  0  0  0  0  0
    3.9399   -0.7628   -0.7150 C   0  0  0  0  0  0  0  0  0  0  0  0
    1.5652   -1.3443   -0.2686 C   0  0  0  0  0  0  0  0  0  0  0  0
    2.8990   -0.1541    1.4581 C   0  0  0  0  0  0  0  0  0  0  0  0
    0.9025    1.4908   -0.0039 C   0  0  0  0  0  0  0  0  0  0  0  0
   -2.3970   -0.0868   -0.4437 C   0  0  0  0  0  0  0  0  0  0  0  0
   -1.2925    0.6897    0.2457 C   0  0  0  0  0  0  0  0  0  0  0  0
    5.0437    0.2370   -0.4479 C   0  0  0  0  0  0  0  0  0  0  0  0
    1.2946   -1.4844   -1.7506 C   0  0  0  0  0  0  0  0  0  0  0  0
    3.3681   -1.4893    1.9931 C   0  0  0  0  0  0  0  0  0  0  0  0
    0.6436    2.9862   -0.1332 C   0  0  0  0  0  0  0  0  0  0  0  0
   -4.5372   -1.2635    0.0172 C   0  0  0  0  0  0  0  0  0  0  0  0
   -3.1758   -0.3782    1.8984 C   0  0  0  0  0  0  0  0  0  0  0  0
   -4.3643    1.1892    0.3794 C   0  0  0  0  0  0  0  0  0  0  0  0
   -4.9740   -1.0162   -1.4103 C   0  0  0  0  0  0  0  0  0  0  0  0
  1  8  1  0
  1 10  1  0
  2  4  1  0
  2  5  1  0
  2  6  1  0
  2  7  1  0
  3  9  1  0
  3 15  1  0
  3 16  1  0
  3 17  1  0
  4  8  1  0
  5 11  1  0
  6 12  1  0
  7 13  1  0
  8 14  1  0
  9 10  1  0
 15 18  1  0
M  CHG  2   2   1   3   1
M  END
>  <PUBCHEM_COMPOUND_CID>  (1) 
46087

>  <PUBCHEM_CONFORMER_RMSD>  (1) 
0.8

>  <PUBCHEM_CONFORMER_DIVERSEORDER>  (1) 
1
26
81
171
160
189
127
61
29
194
91
68
102
183
40
137
181
113
64
163
122
168
150
72
179
79
134
138
88
98
118
115
139
156
82
151
135
142
187
92
71
56
105
93
124
39
173
109
89
133
154
164
90
125
59
145
132
66
108
42
121
158
70
130
166
55
111
182
114
144
99
175
30
22
106
140
44
178
129
36
28
152
46
37
50
101
157
100
95
80
103
186
69
177
83
67
33
75
94
27
123
159
65
131
74
41
165
84
141
112
192
97
176
86
45
54
120
47
24
31
170
149
25
49
34
174
77
85
172
53
76
87
119
128
63
16
38
35
162
190
32
184
43
107
136
20
11
126
78
57
169
193
7
191
161
96
143
116
62
153
51
15
18
104
23
73
188
2
17
180
147
12
9
185
8
48
148
155
58
13
14
52
3
6
21
167
110
19
117
5
60
146
10
4

>  <PUBCHEM_MMFF94_PARTIAL_CHARGES>  (1) 
13
1 -0.56
10 0.28
15 0.5
16 0.5
17 0.5
2 -1.01
3 -1.01
4 0.5
5 0.5
6 0.5
7 0.5
8 0.28
9 0.5

>  <PUBCHEM_EFFECTIVE_ROTOR_COUNT>  (1) 
10

>  <PUBCHEM_PHARMACOPHORE_FEATURES>  (1) 
3
1 1 acceptor
1 2 cation
1 3 cation

>  <PUBCHEM_HEAVY_ATOM_COUNT>  (1) 
18

>  <PUBCHEM_ATOM_DEF_STEREO_COUNT>  (1) 
0

>  <PUBCHEM_ATOM_UDEF_STEREO_COUNT>  (1) 
1

>  <PUBCHEM_BOND_DEF_STEREO_COUNT>  (1) 
0

>  <PUBCHEM_BOND_UDEF_STEREO_COUNT>  (1) 
0

>  <PUBCHEM_ISOTOPIC_ATOM_COUNT>  (1) 
0

>  <PUBCHEM_COMPONENT_COUNT>  (1) 
1

>  <PUBCHEM_CACTVS_TAUTO_COUNT>  (1) 
1

>  <PUBCHEM_CONFORMER_ID>  (1) 
0000B40700000001

>  <PUBCHEM_MMFF94_ENERGY>  (1) 
80.5539

>  <PUBCHEM_FEATURE_SELFOVERLAP>  (1) 
15.223

>  <PUBCHEM_SHAPE_FINGERPRINT>  (1) 
10064457 181 16917063386838790022
10366900 7 17967249819143653211
11796584 16 16732695034745660242
12363563 72 18334012770253967987
12553582 1 18335704931560436411
12707595 3 18261114092680910497
12788726 201 18191591843608369089
13464513 79 18343866636643936518
14178342 30 18059861602057493585
14251764 30 16988297382574930758
14252887 29 18343030969152036540
14341114 176 15554448526182194682
14787075 74 18115035216104586028
15188451 53 17489009544672832823
15375462 189 18187083953487140624
17349148 13 18201997759440201711
17834072 33 18059859510108090892
18186145 218 17240767315396074097
18222031 100 18343292682535922999
19862831 5 12901545732749816159
200 152 18272933838896069197
20261772 1 18060414741984182638
20281475 54 17967529051957557449
20369508 70 18187355575682468553
20626108 58 18339910593701638715
20645476 183 13551471510126002209
20645477 70 18335984289186978341
21033648 29 16916776341183722225
21250096 35 18260544506908032457
21421861 104 17827085004257470480
21503847 285 15267339609363076498
2255824 54 18196660811287162893
23402539 116 18412827962735199150
23402655 69 13190339071381336846
23532345 12 18060425733095668897
23559900 14 17560805381369444021
81228 2 17977398135121743753

>  <PUBCHEM_SHAPE_MULTIPOLES>  (1) 
354.6
10.36
2.01
1.58
6.24
1.22
-0.55
-3.23
-0.02
-0.32
0.23
-0.27
-0.77
-0.78

>  <PUBCHEM_SHAPE_SELFOVERLAP>  (1) 
657.496

>  <PUBCHEM_SHAPE_VOLUME>  (1) 
227.7

>  <PUBCHEM_COORDINATE_TYPE>  (1) 
2
5
10

$$$$
