46097
     RDKit          3D

 16 16  0  0  0  0  0  0  0  0999 V2000
   -2.8115    0.8028    0.5853 O   0  0  0  0  0  0  0  0  0  0  0  0
   -3.5714   -0.4519   -1.2186 O   0  0  0  0  0  0  0  0  0  0  0  0
    4.9442   -0.0547   -0.0097 N   0  0  0  0  0  0  0  0  0  0  0  0
   -4.8580   -0.2280    0.6988 N   0  0  0  0  0  0  0  0  0  0  0  0
    2.5825   -0.1271   -0.7849 C   0  0  0  0  0  0  0  0  0  0  0  0
    3.5468    0.1636    0.3626 C   0  0  0  0  0  0  0  0  0  0  0  0
    1.1399    0.1214   -0.4187 C   0  0  0  0  0  0  0  0  0  0  0  0
    0.3881   -0.9102    0.1218 C   0  0  0  0  0  0  0  0  0  0  0  0
    0.5915    1.3772   -0.6290 C   0  0  0  0  0  0  0  0  0  0  0  0
    5.1504   -1.4399   -0.4306 C   0  0  0  0  0  0  0  0  0  0  0  0
    5.8283    0.2774    1.1068 C   0  0  0  0  0  0  0  0  0  0  0  0
   -0.9456   -0.6804    0.4602 C   0  0  0  0  0  0  0  0  0  0  0  0
   -0.7422    1.6069   -0.2909 C   0  0  0  0  0  0  0  0  0  0  0  0
   -1.5108    0.5780    0.2537 C   0  0  0  0  0  0  0  0  0  0  0  0
   -3.7448   -0.0102   -0.0866 C   0  0  0  0  0  0  0  0  0  0  0  0
   -5.9873   -1.0252    0.2798 C   0  0  0  0  0  0  0  0  0  0  0  0
  1 14  1  0
  1 15  1  0
  2 15  2  0
  3  6  1  0
  3 10  1  0
  3 11  1  0
  4 15  1  0
  4 16  1  0
  5  6  1  0
  5  7  1  0
  7  8  2  0
  7  9  1  0
  8 12  1  0
  9 13  2  0
 12 14  2  0
 13 14  1  0
M  END
>  <PUBCHEM_COMPOUND_CID>  (1) 
46097

>  <PUBCHEM_CONFORMER_RMSD>  (1) 
0.8

>  <PUBCHEM_CONFORMER_DIVERSEORDER>  (1) 
2
33
18
30
1
31
17
37
11
28
35
29
16
13
20
27
21
26
12
24
23
25
9
10
34
7
4
5
36
15
32
3
22
14
8
19
6

>  <PUBCHEM_MMFF94_PARTIAL_CHARGES>  (1) 
21
1 -0.23
10 0.27
11 0.27
12 -0.15
13 -0.15
14 0.08
15 0.78
16 0.3
2 -0.57
21 0.15
22 0.15
29 0.15
3 -0.81
30 0.15
31 0.37
4 -0.73
5 0.14
6 0.27
7 -0.14
8 -0.15
9 -0.15

>  <PUBCHEM_EFFECTIVE_ROTOR_COUNT>  (1) 
6

>  <PUBCHEM_PHARMACOPHORE_FEATURES>  (1) 
4
1 2 acceptor
1 3 cation
1 4 donor
6 7 8 9 12 13 14 rings

>  <PUBCHEM_HEAVY_ATOM_COUNT>  (1) 
16

>  <PUBCHEM_ATOM_DEF_STEREO_COUNT>  (1) 
0

>  <PUBCHEM_ATOM_UDEF_STEREO_COUNT>  (1) 
0

>  <PUBCHEM_BOND_DEF_STEREO_COUNT>  (1) 
0

>  <PUBCHEM_BOND_UDEF_STEREO_COUNT>  (1) 
0

>  <PUBCHEM_ISOTOPIC_ATOM_COUNT>  (1) 
0

>  <PUBCHEM_COMPONENT_COUNT>  (1) 
1

>  <PUBCHEM_CACTVS_TAUTO_COUNT>  (1) 
2

>  <PUBCHEM_CONFORMER_ID>  (1) 
0000B41100000002

>  <PUBCHEM_MMFF94_ENERGY>  (1) 
41.9665

>  <PUBCHEM_FEATURE_SELFOVERLAP>  (1) 
20.297

>  <PUBCHEM_SHAPE_FINGERPRINT>  (1) 
100836 57 11384116349236794945
10354089 29 13758356674021616890
11401426 45 18408601448638590245
12236239 1 18273217495557943075
124424 183 16805610278118406009
13288520 33 18408888421321009373
13533116 47 18336263449609307538
13690532 89 18186524310347411181
13862211 1 18186800283465961962
1420 363 18412267237364028843
14943859 89 10087636005322341988
15048467 5 14908184153060805355
17834072 33 13334745651550274082
17834072 8 10881398725296152458
17834076 25 14189578533297398915
17862501 102 18341896285588823585
18222031 100 17675930880849439396
187816 3 17168146736612249049
19489759 90 16370720413819166909
200 152 18333447634035683381
20281389 69 11527955530051282819
20645477 56 11023817367326001746
21150785 3 17022914466693463590
21267235 1 18335431161539004115
22079108 93 16917058984639508594
22224240 67 16988840596847931167
22854114 59 18060416902916922664
23402539 116 18408600349227163373
23559900 14 13984955072618776196
4340502 62 16200437961451558974
5104073 3 18200309893274914858
5374978 207 18333730235043113152
59755656 520 13551474731678975905
69090 78 18272366469305613150

>  <PUBCHEM_SHAPE_MULTIPOLES>  (1) 
307.57
13.05
1.26
0.92
1.15
0.16
-0.02
-4.58
2.37
0.03
-0.12
0.26
0
0.34

>  <PUBCHEM_SHAPE_SELFOVERLAP>  (1) 
619.35

>  <PUBCHEM_SHAPE_VOLUME>  (1) 
180.7

>  <PUBCHEM_COORDINATE_TYPE>  (1) 
2
5
10

$$$$
