46091
     RDKit          3D

 18 18  0  0  1  0  0  0  0  0999 V2000
   -1.8531   -0.2856    0.8848 O   0  0  0  0  0  0  0  0  0  0  0  0
   -2.2244    2.0818   -0.5226 O   0  0  0  0  0  0  0  0  0  0  0  0
   -1.9303   -1.4617   -1.1196 O   0  0  0  0  0  0  0  0  0  0  0  0
    3.1769   -1.2033   -0.2477 N   0  0  0  0  0  0  0  0  0  0  0  0
   -3.4550   -1.8972    0.5740 N   0  0  0  0  0  0  0  0  0  0  0  0
    2.9851    0.1065    0.3741 C   0  0  0  0  0  0  0  0  0  0  0  0
    1.5845    0.6345    0.1350 C   0  0  0  0  0  0  0  0  0  0  0  0
    3.3124    0.0231    1.8669 C   0  0  0  0  0  0  0  0  0  0  0  0
    0.5047   -0.0768    0.6250 C   0  0  0  0  0  0  0  0  0  0  0  0
    1.4209    1.8141   -0.5678 C   0  0  0  0  0  0  0  0  0  0  0  0
    4.5337   -1.6913   -0.0035 C   0  0  0  0  0  0  0  0  0  0  0  0
    2.9102   -1.1313   -1.6838 C   0  0  0  0  0  0  0  0  0  0  0  0
   -0.7843    0.4088    0.4044 C   0  0  0  0  0  0  0  0  0  0  0  0
    0.1322    2.2995   -0.7884 C   0  0  0  0  0  0  0  0  0  0  0  0
   -0.9705    1.5971   -0.3021 C   0  0  0  0  0  0  0  0  0  0  0  0
   -2.3802   -1.2479    0.0025 C   0  0  0  0  0  0  0  0  0  0  0  0
   -2.7584    2.9681    0.4589 C   0  0  0  0  0  0  0  0  0  0  0  0
   -4.2043   -2.9383   -0.0901 C   0  0  0  0  0  0  0  0  0  0  0  0
  1 13  1  0
  1 16  1  0
  2 15  1  0
  2 17  1  0
  3 16  2  0
  4  6  1  0
  4 11  1  0
  4 12  1  0
  5 16  1  0
  5 18  1  0
  6  7  1  0
  6  8  1  0
  7  9  2  0
  7 10  1  0
  9 13  1  0
 10 14  2  0
 13 15  2  0
 14 15  1  0
M  END
>  <PUBCHEM_COMPOUND_CID>  (1) 
46091

>  <PUBCHEM_CONFORMER_RMSD>  (1) 
0.8

>  <PUBCHEM_CONFORMER_DIVERSEORDER>  (1) 
1
67
87
85
114
89
97
106
57
86
90
92
74
40
108
30
111
102
58
13
14
75
65
34
68
29
59
99
109
110
62
113
60
69
76
120
54
36
15
79
17
84
107
115
24
26
49
73
20
80
35
101
10
83
41
116
50
105
51
37
112
25
70
31
95
33
8
39
94
43
64
71
5
118
12
72
82
66
104
119
100
98
32
91
78
9
55
38
42
7
63
117
27
48
28
77
11
45
103
46
16
47
18
19
56
21
96
23
88
52
22
81
44
4
93
53
61
3
6
2

>  <PUBCHEM_MMFF94_PARTIAL_CHARGES>  (1) 
21
1 -0.23
10 -0.15
11 0.27
12 0.27
13 0.08
14 -0.15
15 0.08
16 0.78
17 0.28
18 0.3
2 -0.36
23 0.15
24 0.15
3 -0.57
31 0.15
35 0.37
4 -0.81
5 -0.73
6 0.41
7 -0.14
9 -0.15

>  <PUBCHEM_EFFECTIVE_ROTOR_COUNT>  (1) 
6

>  <PUBCHEM_PHARMACOPHORE_FEATURES>  (1) 
5
1 2 acceptor
1 3 acceptor
1 4 cation
1 5 donor
6 7 9 10 13 14 15 rings

>  <PUBCHEM_HEAVY_ATOM_COUNT>  (1) 
18

>  <PUBCHEM_ATOM_DEF_STEREO_COUNT>  (1) 
0

>  <PUBCHEM_ATOM_UDEF_STEREO_COUNT>  (1) 
1

>  <PUBCHEM_BOND_DEF_STEREO_COUNT>  (1) 
0

>  <PUBCHEM_BOND_UDEF_STEREO_COUNT>  (1) 
0

>  <PUBCHEM_ISOTOPIC_ATOM_COUNT>  (1) 
0

>  <PUBCHEM_COMPONENT_COUNT>  (1) 
1

>  <PUBCHEM_CACTVS_TAUTO_COUNT>  (1) 
2

>  <PUBCHEM_CONFORMER_ID>  (1) 
0000B40B00000001

>  <PUBCHEM_MMFF94_ENERGY>  (1) 
61.9334

>  <PUBCHEM_FEATURE_SELFOVERLAP>  (1) 
25.371

>  <PUBCHEM_SHAPE_FINGERPRINT>  (1) 
10618630 7 18411139181399479819
11322862 65 18194688059861640343
11578080 2 17916576674247427985
116883 192 18411141359401203007
12202030 40 18130506336633648086
12346177 29 18339070489165844669
12363563 72 18261673769848504138
12553582 1 18125999618411836079
12633257 1 16200152140042245462
13083527 12 18047452694083561152
13140716 1 18410007702673206232
13296908 3 18411698760283277496
13544592 145 17841157645387034076
13583140 156 16200437944203202419
14178342 30 18336814295906467330
14252887 29 18266741470496212866
15042514 8 18264212409163491153
15885798 251 18337956804752861331
16945 1 18044086852694111612
19141452 34 18267872687461557505
19591789 44 17688594853545506497
20645476 183 16589733144410540904
20645477 70 17973440194315532251
20671657 53 17750219452066643993
20871998 22 18338236080083531786
20871999 31 18335713706384428574
21296965 67 18264201573034719881
21452121 199 18120362409527383985
21478907 32 18409166619517494883
21501502 16 18334303080089767476
22112679 90 17750221535252766808
2255824 54 17259062321346157373
23402539 116 17968663710141551478
23419403 2 17541050614888757300
23557571 272 18341331120007258120
23559900 14 18196087738981716654
25147074 1 18114189656839318940
2748010 2 18342734087964215404
4463277 69 18130229358150476447
7164475 11 18336829787922439181
7364860 26 18051979409188066760
7970288 3 18335419105872747234
81228 2 18334290976855888881
9709674 26 18129095632881428438

>  <PUBCHEM_SHAPE_MULTIPOLES>  (1) 
342.86
7.28
3.19
1.21
1.25
0.44
0.05
-5.96
0.64
-3.91
-0.47
0.94
-0.12
0.22

>  <PUBCHEM_SHAPE_SELFOVERLAP>  (1) 
697.703

>  <PUBCHEM_SHAPE_VOLUME>  (1) 
200.2

>  <PUBCHEM_COORDINATE_TYPE>  (1) 
2
5
10

$$$$
