46105
     RDKit          3D

 16 16  0  0  1  0  0  0  0  0999 V2000
   -2.5648   -0.9621   -0.0419 O   0  0  0  0  0  0  0  0  0  0  0  0
   -2.7854    1.3519    0.0085 O   0  0  0  0  0  0  0  0  0  0  0  0
    3.4612    0.9418   -0.3144 N   0  0  0  0  0  0  0  0  0  0  0  0
   -4.6535   -0.0168   -0.1291 N   0  0  0  0  0  0  0  0  0  0  0  0
    3.0321   -0.3256    0.2759 C   0  0  0  0  0  0  0  0  0  0  0  0
    1.5284   -0.4964    0.1904 C   0  0  0  0  0  0  0  0  0  0  0  0
    3.7734   -1.4851   -0.3936 C   0  0  0  0  0  0  0  0  0  0  0  0
    0.7960   -0.6033    1.3581 C   0  0  0  0  0  0  0  0  0  0  0  0
    0.9261   -0.5413   -1.0535 C   0  0  0  0  0  0  0  0  0  0  0  0
    4.9138    1.0836   -0.2200 C   0  0  0  0  0  0  0  0  0  0  0  0
    2.7943    2.0642    0.3443 C   0  0  0  0  0  0  0  0  0  0  0  0
   -0.5876   -0.7608    1.2795 C   0  0  0  0  0  0  0  0  0  0  0  0
   -0.4577   -0.6986   -1.1323 C   0  0  0  0  0  0  0  0  0  0  0  0
   -1.2146   -0.8083    0.0343 C   0  0  0  0  0  0  0  0  0  0  0  0
   -3.3001    0.2391   -0.0501 C   0  0  0  0  0  0  0  0  0  0  0  0
   -5.6614    1.0175   -0.1562 C   0  0  0  0  0  0  0  0  0  0  0  0
  1 14  1  0
  1 15  1  0
  2 15  2  0
  3  5  1  0
  3 10  1  0
  3 11  1  0
  4 15  1  0
  4 16  1  0
  5  6  1  0
  5  7  1  0
  6  8  2  0
  6  9  1  0
  8 12  1  0
  9 13  2  0
 12 14  2  0
 13 14  1  0
M  END
>  <PUBCHEM_COMPOUND_CID>  (1) 
46105

>  <PUBCHEM_CONFORMER_RMSD>  (1) 
0.6

>  <PUBCHEM_CONFORMER_DIVERSEORDER>  (1) 
1
30
49
17
76
33
87
66
6
59
73
25
88
77
63
50
37
43
60
82
78
45
42
72
65
56
86
80
47
36
11
46
31
26
14
64
81
48
57
23
62
41
79
19
53
24
84
51
44
16
10
39
69
27
18
61
68
71
12
22
21
85
13
74
58
83
28
40
38
54
55
34
35
52
75
70
2
67
29
20
15
8
9
32
3
4
5
7

>  <PUBCHEM_MMFF94_PARTIAL_CHARGES>  (1) 
20
1 -0.23
10 0.27
11 0.27
12 -0.15
13 -0.15
14 0.08
15 0.78
16 0.3
2 -0.57
21 0.15
22 0.15
29 0.15
3 -0.81
30 0.15
31 0.37
4 -0.73
5 0.41
6 -0.14
8 -0.15
9 -0.15

>  <PUBCHEM_EFFECTIVE_ROTOR_COUNT>  (1) 
5

>  <PUBCHEM_PHARMACOPHORE_FEATURES>  (1) 
4
1 2 acceptor
1 3 cation
1 4 donor
6 6 8 9 12 13 14 rings

>  <PUBCHEM_HEAVY_ATOM_COUNT>  (1) 
16

>  <PUBCHEM_ATOM_DEF_STEREO_COUNT>  (1) 
0

>  <PUBCHEM_ATOM_UDEF_STEREO_COUNT>  (1) 
1

>  <PUBCHEM_BOND_DEF_STEREO_COUNT>  (1) 
0

>  <PUBCHEM_BOND_UDEF_STEREO_COUNT>  (1) 
0

>  <PUBCHEM_ISOTOPIC_ATOM_COUNT>  (1) 
0

>  <PUBCHEM_COMPONENT_COUNT>  (1) 
1

>  <PUBCHEM_CACTVS_TAUTO_COUNT>  (1) 
2

>  <PUBCHEM_CONFORMER_ID>  (1) 
0000B41900000001

>  <PUBCHEM_MMFF94_ENERGY>  (1) 
45.9575

>  <PUBCHEM_FEATURE_SELFOVERLAP>  (1) 
20.297

>  <PUBCHEM_SHAPE_FINGERPRINT>  (1) 
106641 1 15430326883241930588
11132069 177 16515404079476784683
11401426 45 15123499290203549771
11543360 7 18200869690163443943
12251169 10 14851606596036116043
12616999 72 16845575296578705119
12670543 26 15984834700438177901
13081056 2 18334575711675658885
13140716 1 15575573494626100014
13675066 3 17530970172342155519
13760787 19 18130785685137869622
13760787 5 16988857076326326194
14115302 16 17060617819620700374
14252887 29 14562808811596687385
14911166 2 15841552993747373806
14943859 89 18411700989186915203
14993402 34 17132120168944945258
15048467 5 18260267468933374772
15375462 189 12396297092781380024
15477762 27 10303819791426934242
16752209 62 15913058585867249842
16945 1 15719387360861075650
17834072 33 18341326777653066047
18186145 218 17967808349443988134
187816 3 15841556283697590815
19026448 4 18336273413221186594
19026448 5 18411973684971151286
200 152 8862950463402335174
20645476 183 17774719882907064246
20645477 56 18334859449941846339
20645477 70 18201162061926131790
20871999 31 17988070218798999391
212847 35 18260547818686656468
21652331 79 18335137587866501461
22079108 93 17894633682099908435
22854114 59 17022901246430347367
23402539 116 18341606019383790007
23402655 69 18343301474307655948
23557571 272 18267594674587456275
23559900 14 18342175553348405242
26918003 58 7853580097153126373
2838139 119 18340760524527441876
3060560 45 14836116646043283397
351380 180 18410572881482298469
3545911 37 18410013255812250940
4047638 21 18334014982088415250
474 4 17968098671900458276
633830 44 18333445447950369567
7495541 125 17560511906729083003
76465 3 12463028584276245972
8272917 22 18342178830487612566

>  <PUBCHEM_SHAPE_MULTIPOLES>  (1) 
307.57
9.94
1.54
1.02
7.68
0.57
-0.13
4.25
1.15
-1.08
-0.02
-0.15
-0.25
0.17

>  <PUBCHEM_SHAPE_SELFOVERLAP>  (1) 
625.245

>  <PUBCHEM_SHAPE_VOLUME>  (1) 
179.3

>  <PUBCHEM_COORDINATE_TYPE>  (1) 
2
5
10

$$$$
