4611
     RDKit          3D

 24 25  0  0  0  0  0  0  0  0999 V2000
    4.3599   -0.0431    0.8138 S   0  0  0  0  0  0  0  0  0  0  0  0
    5.0452    0.5246    1.9600 O   0  0  0  0  0  0  0  0  0  0  0  0
    5.1269   -0.6614   -0.2505 O   0  0  0  0  0  0  0  0  0  0  0  0
   -6.8127   -0.3693    0.9906 O   0  0  0  0  0  0  0  0  0  0  0  0
   -7.9349    1.8080   -0.1655 O   0  0  0  0  0  0  0  0  0  0  0  0
    3.1411   -1.1266    1.3691 N   0  0  0  0  0  0  0  0  0  0  0  0
   -6.5879    1.4818   -0.3757 N   0  0  0  0  0  0  0  0  0  0  0  0
    3.3937    1.2561    0.0990 C   0  0  0  0  0  0  0  0  0  0  0  0
    2.1427   -1.5688    0.4492 C   0  0  0  0  0  0  0  0  0  0  0  0
    3.0045    2.3205    0.8917 C   0  0  0  0  0  0  0  0  0  0  0  0
    3.0474    1.1806   -1.2380 C   0  0  0  0  0  0  0  0  0  0  0  0
    0.7966   -1.3021    0.6988 C   0  0  0  0  0  0  0  0  0  0  0  0
    2.5140   -2.2674   -0.6995 C   0  0  0  0  0  0  0  0  0  0  0  0
   -0.1768   -1.7344   -0.2007 C   0  0  0  0  0  0  0  0  0  0  0  0
    2.2430    3.3444    0.3283 C   0  0  0  0  0  0  0  0  0  0  0  0
    2.2860    2.2045   -1.8014 C   0  0  0  0  0  0  0  0  0  0  0  0
    1.5390   -2.6993   -1.5987 C   0  0  0  0  0  0  0  0  0  0  0  0
    0.1928   -2.4328   -1.3491 C   0  0  0  0  0  0  0  0  0  0  0  0
    1.8838    3.2865   -1.0184 C   0  0  0  0  0  0  0  0  0  0  0  0
   -1.5577   -1.4615    0.0550 C   0  0  0  0  0  0  0  0  0  0  0  0
   -2.7170   -1.2311    0.2689 C   0  0  0  0  0  0  0  0  0  0  0  0
   -4.0893   -0.9628    0.5242 C   0  0  0  0  0  0  0  0  0  0  0  0
   -4.7011    0.0983   -0.0166 C   0  0  0  0  0  0  0  0  0  0  0  0
   -6.1394    0.3554    0.2653 C   0  0  0  0  0  0  0  0  0  0  0  0
  1  2  2  0
  1  3  2  0
  1  6  1  0
  1  8  1  0
  4 24  2  0
  5  7  1  0
  6  9  1  0
  7 24  1  0
  8 10  2  0
  8 11  1  0
  9 12  2  0
  9 13  1  0
 10 15  1  0
 11 16  2  0
 12 14  1  0
 13 17  2  0
 14 18  2  0
 14 20  1  0
 15 19  2  0
 16 19  1  0
 17 18  1  0
 20 21  3  0
 21 22  1  0
 22 23  2  0
 23 24  1  0
M  END
>  <PUBCHEM_COMPOUND_CID>  (1) 
4611

>  <PUBCHEM_CONFORMER_RMSD>  (1) 
0.8

>  <PUBCHEM_CONFORMER_DIVERSEORDER>  (1) 
1
24
48
6
46
34
43
47
45
14
38
18
36
35
32
44
27
8
41
9
37
49
26
16
7
33
4
5
15
20
40
29
42
17
19
28
13
21
3
22
2
23
25
39
31
30
12
11
10

>  <PUBCHEM_MMFF94_PARTIAL_CHARGES>  (1) 
38
1 1.45
10 -0.15
11 -0.15
12 -0.15
13 -0.15
14 0.07
15 -0.15
16 -0.15
17 -0.15
18 -0.15
19 -0.15
2 -0.65
20 -0.07
21 -0.06
22 -0.09
23 -0.14
24 0.62
25 0.42
26 0.15
27 0.15
28 0.15
29 0.15
3 -0.65
30 0.15
31 0.15
32 0.15
33 0.15
34 0.15
35 0.15
36 0.15
37 0.37
38 0.4
4 -0.57
5 -0.44
6 -0.76
7 -0.39
8 -0.01
9 0.2

>  <PUBCHEM_EFFECTIVE_ROTOR_COUNT>  (1) 
5

>  <PUBCHEM_PHARMACOPHORE_FEATURES>  (1) 
7
1 2 acceptor
1 3 acceptor
1 4 acceptor
1 6 donor
1 7 donor
6 8 10 11 15 16 19 rings
6 9 12 13 14 17 18 rings

>  <PUBCHEM_HEAVY_ATOM_COUNT>  (1) 
24

>  <PUBCHEM_ATOM_DEF_STEREO_COUNT>  (1) 
0

>  <PUBCHEM_ATOM_UDEF_STEREO_COUNT>  (1) 
0

>  <PUBCHEM_BOND_DEF_STEREO_COUNT>  (1) 
0

>  <PUBCHEM_BOND_UDEF_STEREO_COUNT>  (1) 
1

>  <PUBCHEM_ISOTOPIC_ATOM_COUNT>  (1) 
0

>  <PUBCHEM_COMPONENT_COUNT>  (1) 
1

>  <PUBCHEM_CACTVS_TAUTO_COUNT>  (1) 
3

>  <PUBCHEM_CONFORMER_ID>  (1) 
0000120300000001

>  <PUBCHEM_MMFF94_ENERGY>  (1) 
46.2559

>  <PUBCHEM_FEATURE_SELFOVERLAP>  (1) 
35.539

>  <PUBCHEM_SHAPE_FINGERPRINT>  (1) 
10763959 59 18410860953423261391
12403259 118 18266451195042153578
12403259 327 17531242898539387978
12422481 6 18261103102107708269
12633257 1 17604417617723411234
12778500 126 16950559948264651553
13878862 14 18189035569847585517
13944108 23 18335712619368248285
14251764 38 18334582313473403033
14251764 75 18122916596630153577
15238133 3 18187085100675996618
15475509 84 17463108172730994874
17810953 82 18410575123444748897
18335252 114 18341890758113756511
20715895 44 18342174470921168649
21315763 76 18342176653112929001
21475661 188 18261393394335623475
22149856 69 17845392045809503267
23559900 14 18271255923786171127
3472631 163 16916777552311686930
474 4 18413112770554310251
513532 50 17703518722485253252
58260988 114 16521837142661396626
60111433 81 17702368727623210849

>  <PUBCHEM_SHAPE_MULTIPOLES>  (1) 
464.32
14.86
3.74
1.42
38.73
1.79
0.17
8.09
-3.5
-2.72
1.36
-1.64
0.01
0.24

>  <PUBCHEM_SHAPE_SELFOVERLAP>  (1) 
970.333

>  <PUBCHEM_SHAPE_VOLUME>  (1) 
260.1

>  <PUBCHEM_COORDINATE_TYPE>  (1) 
2
5
10

$$$$
