46124
     RDKit          3D

 21 22  0  0  0  0  0  0  0  0999 V2000
   -1.9586   -0.2776   -0.7608 O   0  0  0  0  0  0  0  0  0  0  0  0
    3.5826    2.2741    0.5525 O   0  0  0  0  0  0  0  0  0  0  0  0
    4.2135    0.1718    0.5171 O   0  0  0  0  0  0  0  0  0  0  0  0
   -0.8625    3.5786   -0.2473 O   0  0  0  0  0  0  0  0  0  0  0  0
   -2.4279    2.1001   -0.6747 O   0  0  0  0  0  0  0  0  0  0  0  0
   -2.3643   -0.4431    1.5229 O   0  0  0  0  0  0  0  0  0  0  0  0
    3.3339    1.0558    0.4077 N   0  0  0  0  0  0  0  0  0  0  0  0
   -1.2380    2.3940   -0.4123 N   0  0  0  0  0  0  0  0  0  0  0  0
   -4.0630   -0.7854   -0.0198 N   0  0  0  0  0  0  0  0  0  0  0  0
    0.2961   -1.0145   -0.3642 C   0  0  0  0  0  0  0  0  0  0  0  0
    1.6409   -0.6873   -0.0684 C   0  0  0  0  0  0  0  0  0  0  0  0
   -0.6527    0.0148   -0.4758 C   0  0  0  0  0  0  0  0  0  0  0  0
    1.9973    0.6598    0.1071 C   0  0  0  0  0  0  0  0  0  0  0  0
   -0.2809    1.3477   -0.2981 C   0  0  0  0  0  0  0  0  0  0  0  0
    1.0415    1.6696   -0.0073 C   0  0  0  0  0  0  0  0  0  0  0  0
   -0.0602   -2.3614   -0.5399 C   0  0  0  0  0  0  0  0  0  0  0  0
    2.5896   -1.7168    0.0431 C   0  0  0  0  0  0  0  0  0  0  0  0
    0.8955   -3.3714   -0.4254 C   0  0  0  0  0  0  0  0  0  0  0  0
    2.2178   -3.0497   -0.1344 C   0  0  0  0  0  0  0  0  0  0  0  0
   -2.7695   -0.4989    0.3655 C   0  0  0  0  0  0  0  0  0  0  0  0
   -5.1314   -1.0603    0.9124 C   0  0  0  0  0  0  0  0  0  0  0  0
  1 12  1  0
  1 20  1  0
  2  7  1  0
  3  7  2  0
  4  8  1  0
  5  8  2  0
  6 20  2  0
  7 13  1  0
  8 14  1  0
  9 20  1  0
  9 21  1  0
 10 11  1  0
 10 12  2  0
 10 16  1  0
 11 13  2  0
 11 17  1  0
 12 14  1  0
 13 15  1  0
 14 15  2  0
 16 18  2  0
 17 19  2  0
 18 19  1  0
M  CHG  4   2  -1   4  -1   7   1   8   1
M  END
>  <PUBCHEM_COMPOUND_CID>  (1) 
46124

>  <PUBCHEM_CONFORMER_RMSD>  (1) 
0.8

>  <PUBCHEM_CONFORMER_DIVERSEORDER>  (1) 
1
2
3
4

>  <PUBCHEM_MMFF94_PARTIAL_CHARGES>  (1) 
25
1 -0.23
12 0.08
13 0.13
14 0.13
15 -0.15
16 -0.15
17 -0.15
18 -0.15
19 -0.15
2 -0.52
20 0.78
21 0.3
22 0.15
23 0.15
24 0.15
25 0.15
26 0.15
27 0.37
3 -0.52
4 -0.52
5 -0.52
6 -0.57
7 0.91
8 0.91
9 -0.73

>  <PUBCHEM_EFFECTIVE_ROTOR_COUNT>  (1) 
5

>  <PUBCHEM_PHARMACOPHORE_FEATURES>  (1) 
10
1 2 acceptor
1 2 anion
1 3 acceptor
1 4 acceptor
1 4 anion
1 5 acceptor
1 6 acceptor
1 9 donor
6 10 11 12 13 14 15 rings
6 10 11 16 17 18 19 rings

>  <PUBCHEM_HEAVY_ATOM_COUNT>  (1) 
21

>  <PUBCHEM_ATOM_DEF_STEREO_COUNT>  (1) 
0

>  <PUBCHEM_ATOM_UDEF_STEREO_COUNT>  (1) 
0

>  <PUBCHEM_BOND_DEF_STEREO_COUNT>  (1) 
0

>  <PUBCHEM_BOND_UDEF_STEREO_COUNT>  (1) 
0

>  <PUBCHEM_ISOTOPIC_ATOM_COUNT>  (1) 
0

>  <PUBCHEM_COMPONENT_COUNT>  (1) 
1

>  <PUBCHEM_CACTVS_TAUTO_COUNT>  (1) 
2

>  <PUBCHEM_CONFORMER_ID>  (1) 
0000B42C00000001

>  <PUBCHEM_MMFF94_ENERGY>  (1) 
88.2617

>  <PUBCHEM_FEATURE_SELFOVERLAP>  (1) 
50.937

>  <PUBCHEM_SHAPE_FINGERPRINT>  (1) 
10493431 412 18053663856611686008
10906281 52 18115326560747474137
10967382 1 18411415154691707638
1100329 8 17908143531277496873
11680986 33 18194959630438206780
12236239 1 17703792570006487407
13140716 1 18050843613813302120
14223421 5 18337955562910979830
14648413 74 18050843321676339496
14790565 3 18193852658579695685
14863182 85 18263661695551232583
15042514 8 18120928667149059074
15309172 13 18340485672373743154
15375462 6 18410573950881591607
15475509 84 17771359582114922705
16945 1 18411409644528118326
193761 8 18195522580586670500
19591789 44 18412263956520561838
20028762 73 17697041705677279279
20510252 161 18271801346035741944
20739085 24 18336562572057790073
21197605 99 17760382380531668251
21421861 104 18115869598984468635
21501502 16 18193000317849711373
21524375 3 18130504240610804742
221490 88 18194966244904471222
22182313 1 18338791213539346644
23184049 59 18339928245948737593
2334 1 18339636733791659860
23419403 2 17969202461257892727
23558518 356 18044100055291476945
23559900 14 18193266391274197596
2748010 2 18267013964980890668
3250762 1 18122062001037447621
33824 294 18410576214451000651
350125 39 18411704249351779940
44154327 71 18264492969518019572
58807428 26 18267851956256105530
589210 1 18194402182474989564
59554788 170 18341902870032333486
59755656 215 18409168787895854342
7364860 26 18053373311006716638
81228 2 17896899659469035001
8809292 202 17831302692196688319
9709674 26 18051123701346829647

>  <PUBCHEM_SHAPE_MULTIPOLES>  (1) 
382.01
6.52
3.73
0.84
4.6
0.2
-0.12
-0.75
-2.21
-1.45
0.55
0.39
-0.06
0.97

>  <PUBCHEM_SHAPE_SELFOVERLAP>  (1) 
836.07

>  <PUBCHEM_SHAPE_VOLUME>  (1) 
205.2

>  <PUBCHEM_COORDINATE_TYPE>  (1) 
2
5
10

$$$$
