46127
     RDKit          3D

 21 21  0  0  0  0  0  0  0  0999 V2000
    3.3047    1.0355   -0.5450 O   0  0  0  0  0  0  0  0  0  0  0  0
    3.4611   -1.0010    0.5660 O   0  0  0  0  0  0  0  0  0  0  0  0
   -1.5984    0.4979   -0.6655 N   0  0  0  0  0  0  0  0  0  0  0  0
    5.1546   -0.2869   -0.8495 N   0  0  0  0  0  0  0  0  0  0  0  0
   -2.7781    0.7683    0.1910 C   0  0  0  0  0  0  0  0  0  0  0  0
   -1.5104   -1.0115   -0.9652 C   0  0  0  0  0  0  0  0  0  0  0  0
   -0.3086    0.9920    0.0272 C   0  0  0  0  0  0  0  0  0  0  0  0
   -1.6867    1.2140   -2.0284 C   0  0  0  0  0  0  0  0  0  0  0  0
   -4.0273    0.2428   -0.5006 C   0  0  0  0  0  0  0  0  0  0  0  0
   -1.3594   -1.7718    0.3439 C   0  0  0  0  0  0  0  0  0  0  0  0
   -5.2780    0.5404    0.3256 C   0  0  0  0  0  0  0  0  0  0  0  0
   -1.2216   -3.2730    0.0936 C   0  0  0  0  0  0  0  0  0  0  0  0
    0.9309    0.7885   -0.5793 C   0  0  0  0  0  0  0  0  0  0  0  0
   -0.3839    1.6414    1.2594 C   0  0  0  0  0  0  0  0  0  0  0  0
    2.0950    1.2346    0.0462 C   0  0  0  0  0  0  0  0  0  0  0  0
   -6.5369    0.0518   -0.3728 C   0  0  0  0  0  0  0  0  0  0  0  0
   -1.0339   -4.0399    1.3929 C   0  0  0  0  0  0  0  0  0  0  0  0
    0.7802    2.0875    1.8851 C   0  0  0  0  0  0  0  0  0  0  0  0
    2.0196    1.8841    1.2784 C   0  0  0  0  0  0  0  0  0  0  0  0
    3.9402   -0.1743   -0.2045 C   0  0  0  0  0  0  0  0  0  0  0  0
    6.0370   -1.4204   -0.6985 C   0  0  0  0  0  0  0  0  0  0  0  0
  1 15  1  0
  1 20  1  0
  2 20  2  0
  3  5  1  0
  3  6  1  0
  3  7  1  0
  3  8  1  0
  4 20  1  0
  4 21  1  0
  5  9  1  0
  6 10  1  0
  7 13  2  0
  7 14  1  0
  9 11  1  0
 10 12  1  0
 11 16  1  0
 12 17  1  0
 13 15  1  0
 14 18  2  0
 15 19  2  0
 18 19  1  0
M  CHG  1   3   1
M  END
>  <PUBCHEM_COMPOUND_CID>  (1) 
46127

>  <PUBCHEM_CONFORMER_RMSD>  (1) 
1

>  <PUBCHEM_CONFORMER_DIVERSEORDER>  (1) 
1
22
105
111
35
73
58
46
69
107
34
110
64
40
49
100
28
117
123
41
91
4
86
80
42
81
79
44
116
47
82
66
57
90
70
29
89
48
121
106
50
99
43
16
10
97
84
51
98
115
108
13
55
109
120
104
15
60
93
6
85
96
65
78
53
31
56
114
61
30
68
24
54
7
119
76
75
21
39
88
122
124
62
38
92
12
14
113
19
118
125
101
71
52
74
17
103
18
94
59
72
11
83
27
37
33
26
25
87
112
36
3
63
20
126
67
102
77
5
32
45
8
9
95
2
23

>  <PUBCHEM_MMFF94_PARTIAL_CHARGES>  (1) 
20
1 -0.23
13 -0.15
14 -0.15
15 0.08
18 -0.15
19 -0.15
2 -0.57
20 0.78
21 0.3
3 -0.87
37 0.15
38 0.15
4 -0.73
45 0.15
46 0.15
47 0.37
5 0.5
6 0.5
7 0.36
8 0.5

>  <PUBCHEM_EFFECTIVE_ROTOR_COUNT>  (1) 
10

>  <PUBCHEM_PHARMACOPHORE_FEATURES>  (1) 
6
1 16 hydrophobe
1 17 hydrophobe
1 2 acceptor
1 3 cation
1 4 donor
6 7 13 14 15 18 19 rings

>  <PUBCHEM_HEAVY_ATOM_COUNT>  (1) 
21

>  <PUBCHEM_ATOM_DEF_STEREO_COUNT>  (1) 
0

>  <PUBCHEM_ATOM_UDEF_STEREO_COUNT>  (1) 
0

>  <PUBCHEM_BOND_DEF_STEREO_COUNT>  (1) 
0

>  <PUBCHEM_BOND_UDEF_STEREO_COUNT>  (1) 
0

>  <PUBCHEM_ISOTOPIC_ATOM_COUNT>  (1) 
0

>  <PUBCHEM_COMPONENT_COUNT>  (1) 
1

>  <PUBCHEM_CACTVS_TAUTO_COUNT>  (1) 
2

>  <PUBCHEM_CONFORMER_ID>  (1) 
0000B42F00000001

>  <PUBCHEM_MMFF94_ENERGY>  (1) 
63.7932

>  <PUBCHEM_FEATURE_SELFOVERLAP>  (1) 
30.446

>  <PUBCHEM_SHAPE_FINGERPRINT>  (1) 
107951 10 17167868560318589699
10906281 52 17773900686472494512
11036077 3 18408609137004823655
11322862 65 18263917894835108671
11759241 127 10953731201441065833
12507560 18 18202566172444038321
12549972 3 17986106537722323427
12553582 1 18129367238313384372
12592029 89 18041838407212552491
12715332 25 18412544323158463135
12788726 201 18059582317598721192
13544592 145 18412259566573498233
14115302 16 18409455816460405444
15295992 7 17916870252415071769
15422964 175 17400076868845732338
18769570 83 11959738166274947843
20832881 197 18060136531467414433
21267235 1 17917999343477476820
22956985 138 17751904836633015419
23402539 116 16988839454534622117
23559900 14 18342173431987976008
3004659 81 18410577267292514020
3729539 64 18265331711869237366
465052 167 17917714625399615613
5104073 3 16629958971029092971
59755656 215 18338231571159103733
6138700 20 18272374118215066967
633830 44 18130211758060318869
81228 2 17758093175641072767
8809292 202 18341332270847412310
9709674 26 18126276686730917182
9981440 41 16192792172694051153

>  <PUBCHEM_SHAPE_MULTIPOLES>  (1) 
410.47
10.84
3.16
1.43
0.55
4.15
-0.11
1.42
3.13
-0.23
-1.77
0.06
-0.4
1.06

>  <PUBCHEM_SHAPE_SELFOVERLAP>  (1) 
811.39

>  <PUBCHEM_SHAPE_VOLUME>  (1) 
244.9

>  <PUBCHEM_COORDINATE_TYPE>  (1) 
2
5
10

$$$$
