46120
     RDKit          3D

 16 16  0  0  0  0  0  0  0  0999 V2000
   -0.6097   -0.9940    0.9026 O   0  0  0  0  0  0  0  0  0  0  0  0
   -1.3628   -0.7249   -1.2807 O   0  0  0  0  0  0  0  0  0  0  0  0
   -0.7404    2.2984   -0.1184 N   0  0  0  0  0  0  0  0  0  0  0  0
   -2.8122   -1.3871    0.4054 N   0  0  0  0  0  0  0  0  0  0  0  0
    0.0711    1.7653    0.9753 C   0  0  0  0  0  0  0  0  0  0  0  0
    1.0243    0.7013    0.4995 C   0  0  0  0  0  0  0  0  0  0  0  0
    0.6378   -0.6324    0.4865 C   0  0  0  0  0  0  0  0  0  0  0  0
    1.5345   -1.6044    0.0430 C   0  0  0  0  0  0  0  0  0  0  0  0
    2.2918    1.0802    0.0765 C   0  0  0  0  0  0  0  0  0  0  0  0
    2.8098   -1.2341   -0.3838 C   0  0  0  0  0  0  0  0  0  0  0  0
    3.1886    0.1082   -0.3670 C   0  0  0  0  0  0  0  0  0  0  0  0
    0.1138    2.8929   -1.1459 C   0  0  0  0  0  0  0  0  0  0  0  0
   -1.6944    3.2850    0.3868 C   0  0  0  0  0  0  0  0  0  0  0  0
    1.1487   -3.0467    0.0190 C   0  0  0  0  0  0  0  0  0  0  0  0
   -1.5882   -1.0111   -0.1085 C   0  0  0  0  0  0  0  0  0  0  0  0
   -4.0127   -1.4967   -0.3901 C   0  0  0  0  0  0  0  0  0  0  0  0
  1  7  1  0
  1 15  1  0
  2 15  2  0
  3  5  1  0
  3 12  1  0
  3 13  1  0
  4 15  1  0
  4 16  1  0
  5  6  1  0
  6  7  2  0
  6  9  1  0
  7  8  1  0
  8 10  2  0
  8 14  1  0
  9 11  2  0
 10 11  1  0
M  END
>  <PUBCHEM_COMPOUND_CID>  (1) 
46120

>  <PUBCHEM_CONFORMER_RMSD>  (1) 
0.6

>  <PUBCHEM_CONFORMER_DIVERSEORDER>  (1) 
4
18
37
43
5
28
27
7
30
44
38
25
41
36
40
6
19
35
13
33
34
23
10
45
16
17
29
21
26
24
22
20
15
39
11
42
31
1
3
14
32
8
2
12
9

>  <PUBCHEM_MMFF94_PARTIAL_CHARGES>  (1) 
20
1 -0.23
10 -0.15
11 -0.15
12 0.27
13 0.27
14 0.14
15 0.78
16 0.3
19 0.15
2 -0.57
20 0.15
21 0.15
3 -0.81
31 0.37
4 -0.73
5 0.41
6 -0.14
7 0.08
8 -0.14
9 -0.15

>  <PUBCHEM_EFFECTIVE_ROTOR_COUNT>  (1) 
5

>  <PUBCHEM_PHARMACOPHORE_FEATURES>  (1) 
4
1 2 acceptor
1 3 cation
1 4 donor
6 6 7 8 9 10 11 rings

>  <PUBCHEM_HEAVY_ATOM_COUNT>  (1) 
16

>  <PUBCHEM_ATOM_DEF_STEREO_COUNT>  (1) 
0

>  <PUBCHEM_ATOM_UDEF_STEREO_COUNT>  (1) 
0

>  <PUBCHEM_BOND_DEF_STEREO_COUNT>  (1) 
0

>  <PUBCHEM_BOND_UDEF_STEREO_COUNT>  (1) 
0

>  <PUBCHEM_ISOTOPIC_ATOM_COUNT>  (1) 
0

>  <PUBCHEM_COMPONENT_COUNT>  (1) 
1

>  <PUBCHEM_CACTVS_TAUTO_COUNT>  (1) 
2

>  <PUBCHEM_CONFORMER_ID>  (1) 
0000B42800000004

>  <PUBCHEM_MMFF94_ENERGY>  (1) 
45.7825

>  <PUBCHEM_FEATURE_SELFOVERLAP>  (1) 
20.297

>  <PUBCHEM_SHAPE_FINGERPRINT>  (1) 
104564 63 18341618079103389237
10967382 1 18122908886899333762
11206711 2 18339096899499970750
11578080 2 17416380126672187771
11680611 10 17825653470467824218
116883 192 18269836415534772511
12715332 25 17477201635271152731
14614273 12 18337106748920007696
15210252 30 17967802852107798949
16945 1 18122345679501147216
17357779 13 18339907290998635565
193761 8 18194684757074214858
20606313 2 18266456692647466059
20708731 107 18049725418945938999
21160774 45 18047751503437716525
21501502 16 18263928722505502250
22289505 5 18336247017106170023
22802520 49 18340478959276614540
23402539 116 18268700774853196566
23419403 2 15596011019305598122
23530152 11 17618786851634571377
23559900 14 17767687162535543254
238 59 17542742806591579463
2748010 2 18338506547175237288
3060560 45 18197488730657943975
353137 74 18334852797200911712
589210 1 18193841427271026994
7364860 26 17907298007099305789
81228 2 18335422322528022873

>  <PUBCHEM_SHAPE_MULTIPOLES>  (1) 
307.57
4.47
3.77
0.94
1.6
1.68
0.1
-2.36
0.63
1.82
0.25
0.14
0.26
-0.22

>  <PUBCHEM_SHAPE_SELFOVERLAP>  (1) 
627.147

>  <PUBCHEM_SHAPE_VOLUME>  (1) 
179.2

>  <PUBCHEM_COORDINATE_TYPE>  (1) 
2
5
10

$$$$
