46134
     RDKit          3D

 24 24  0  0  0  0  0  0  0  0999 V2000
   -4.5469   -0.5982   -0.7807 O   0  0  0  0  0  0  0  0  0  0  0  0
    3.1045   -1.3974    0.0517 O   0  0  0  0  0  0  0  0  0  0  0  0
    1.9133    0.0625   -1.2446 O   0  0  0  0  0  0  0  0  0  0  0  0
    5.9609    0.9373    0.0379 N   0  0  0  0  0  0  0  0  0  0  0  0
    0.8581   -1.5238    0.1225 N   0  0  0  0  0  0  0  0  0  0  0  0
    4.7171    0.3275    0.4842 C   0  0  0  0  0  0  0  0  0  0  0  0
    6.0967    2.2925    0.5774 C   0  0  0  0  0  0  0  0  0  0  0  0
    7.1101    0.1190    0.4324 C   0  0  0  0  0  0  0  0  0  0  0  0
   -6.1818    1.5321    0.3229 C   0  0  0  0  0  0  0  0  0  0  0  0
   -6.6217    0.0743    0.2075 C   0  0  0  0  0  0  0  0  0  0  0  0
    4.3210   -0.8175   -0.4340 C   0  0  0  0  0  0  0  0  0  0  0  0
   -7.3803    2.4796    0.2815 C   0  0  0  0  0  0  0  0  0  0  0  0
   -5.4377   -0.8784    0.2902 C   0  0  0  0  0  0  0  0  0  0  0  0
    4.9153    3.1620    0.1814 C   0  0  0  0  0  0  0  0  0  0  0  0
    8.4094    0.7099   -0.0879 C   0  0  0  0  0  0  0  0  0  0  0  0
   -3.2151   -0.8305   -0.5546 C   0  0  0  0  0  0  0  0  0  0  0  0
   -6.9493    3.9300    0.4302 C   0  0  0  0  0  0  0  0  0  0  0  0
   -0.5043   -1.3026   -0.0947 C   0  0  0  0  0  0  0  0  0  0  0  0
   -1.4670   -2.0712    0.5599 C   0  0  0  0  0  0  0  0  0  0  0  0
   -2.8223   -1.8350    0.3300 C   0  0  0  0  0  0  0  0  0  0  0  0
   -2.2523   -0.0619   -1.2090 C   0  0  0  0  0  0  0  0  0  0  0  0
   -0.8968   -0.2977   -0.9790 C   0  0  0  0  0  0  0  0  0  0  0  0
    1.9444   -0.8593   -0.4385 C   0  0  0  0  0  0  0  0  0  0  0  0
   -1.0751   -3.1532    1.5132 C   0  0  0  0  0  0  0  0  0  0  0  0
  1 13  1  0
  1 16  1  0
  2 11  1  0
  2 23  1  0
  3 23  2  0
  4  6  1  0
  4  7  1  0
  4  8  1  0
  5 18  1  0
  5 23  1  0
  6 11  1  0
  7 14  1  0
  8 15  1  0
  9 10  1  0
  9 12  1  0
 10 13  1  0
 12 17  1  0
 16 20  2  0
 16 21  1  0
 18 19  2  0
 18 22  1  0
 19 20  1  0
 19 24  1  0
 21 22  2  0
M  END
>  <PUBCHEM_COMPOUND_CID>  (1) 
46134

>  <PUBCHEM_CONFORMER_RMSD>  (1) 
1

>  <PUBCHEM_CONFORMER_DIVERSEORDER>  (1) 
10
116
12
81
42
6
63
119
56
62
19
70
117
82
26
51
14
58
103
65
85
101
41
35
77
96
53
8
37
120
38
124
93
27
20
45
43
47
44
73
123
25
109
76
107
79
31
66
104
78
91
114
94
90
111
36
88
61
28
80
121
68
83
24
84
52
30
106
9
100
17
105
64
102
67
108
98
50
54
33
69
23
92
34
72
39
21
74
86
110
57
1
11
49
40
112
2
55
118
113
3
59
60
75
5
89
48
125
95
13
15
87
115
29
122
99
4
32
97
18
46
22
7
16
71

>  <PUBCHEM_MMFF94_PARTIAL_CHARGES>  (1) 
22
1 -0.36
11 0.28
13 0.28
16 0.08
18 0.12
19 -0.14
2 -0.43
20 -0.15
21 -0.15
22 -0.15
23 0.78
24 0.14
3 -0.57
4 -0.81
5 -0.55
50 0.15
51 0.15
52 0.15
53 0.37
6 0.27
7 0.27
8 0.27

>  <PUBCHEM_EFFECTIVE_ROTOR_COUNT>  (1) 
13

>  <PUBCHEM_PHARMACOPHORE_FEATURES>  (1) 
6
1 1 acceptor
1 17 hydrophobe
1 3 acceptor
1 4 cation
1 5 donor
6 16 18 19 20 21 22 rings

>  <PUBCHEM_HEAVY_ATOM_COUNT>  (1) 
24

>  <PUBCHEM_ATOM_DEF_STEREO_COUNT>  (1) 
0

>  <PUBCHEM_ATOM_UDEF_STEREO_COUNT>  (1) 
0

>  <PUBCHEM_BOND_DEF_STEREO_COUNT>  (1) 
0

>  <PUBCHEM_BOND_UDEF_STEREO_COUNT>  (1) 
0

>  <PUBCHEM_ISOTOPIC_ATOM_COUNT>  (1) 
0

>  <PUBCHEM_COMPONENT_COUNT>  (1) 
1

>  <PUBCHEM_CACTVS_TAUTO_COUNT>  (1) 
2

>  <PUBCHEM_CONFORMER_ID>  (1) 
0000B4360000000A

>  <PUBCHEM_MMFF94_ENERGY>  (1) 
51.8812

>  <PUBCHEM_FEATURE_SELFOVERLAP>  (1) 
30.446

>  <PUBCHEM_SHAPE_FINGERPRINT>  (1) 
10883706 163 18334574603986521317
10906281 52 18114475525467165110
11045977 3 18189331441823761954
11456790 92 18335135384959489168
11497681 19 9079110059866488442
125118 31 18410576197550673804
12895837 130 18271806865236924845
13167372 99 18413106165126347104
13668630 136 11891322137562732424
13685833 64 10881392137217428862
13782708 43 8214147351965244661
14251764 30 8502656995707570415
14556957 393 14836135402265705779
15352257 5 8286202755554533865
21033648 29 18196923578182189906
21130935 74 18260548909403446979
21267235 1 11312053275559550023
21424621 283 18409168788380962651
21585482 111 18336545993769539965
21756936 100 18411135840869861743
21781055 127 17969238758817444614
22122407 14 17988090009818246208
22224240 67 18113054939992235235
23559900 14 18113902689332659958
2838139 119 18201716301453443205
2916195 48 18410293627415175459
3545911 37 18114176467564179334
465052 167 11602824592232122002
5104073 3 17169257153146074411
5385378 56 17968094170901761738
5718773 13 8862940576372126809
5758199 1 18259988150315219635
636775 72 18412542145473394433

>  <PUBCHEM_SHAPE_MULTIPOLES>  (1) 
466.34
23.59
3.52
0.98
10.35
2.76
-0.03
23.2
3.4
-4.25
1.34
-0.24
-0.32
0.01

>  <PUBCHEM_SHAPE_SELFOVERLAP>  (1) 
921.755

>  <PUBCHEM_SHAPE_VOLUME>  (1) 
279.1

>  <PUBCHEM_COORDINATE_TYPE>  (1) 
2
5
10

$$$$
