46132
     RDKit          3D

 22 22  0  0  0  0  0  0  0  0999 V2000
    2.3562    1.4014    0.4990 O   0  0  0  0  0  0  0  0  0  0  0  0
   -5.2343   -0.0691    0.2223 O   0  0  0  0  0  0  0  0  0  0  0  0
    1.2051   -0.5095    1.0023 O   0  0  0  0  0  0  0  0  0  0  0  0
    5.3954   -0.5874   -0.1281 N   0  0  0  0  0  0  0  0  0  0  0  0
    0.1234    1.4324    0.2681 N   0  0  0  0  0  0  0  0  0  0  0  0
    4.1290    0.0839   -0.4188 C   0  0  0  0  0  0  0  0  0  0  0  0
    6.1700   -0.7706   -1.3549 C   0  0  0  0  0  0  0  0  0  0  0  0
    5.1540   -1.8755    0.5210 C   0  0  0  0  0  0  0  0  0  0  0  0
    3.5747    0.7490    0.8309 C   0  0  0  0  0  0  0  0  0  0  0  0
    6.4306    0.5585   -2.0432 C   0  0  0  0  0  0  0  0  0  0  0  0
    6.4604   -2.5599    0.8858 C   0  0  0  0  0  0  0  0  0  0  0  0
   -1.2417    1.0655    0.2515 C   0  0  0  0  0  0  0  0  0  0  0  0
   -2.2226    1.9767   -0.1400 C   0  0  0  0  0  0  0  0  0  0  0  0
   -3.9252    0.3032    0.2317 C   0  0  0  0  0  0  0  0  0  0  0  0
   -3.5643    1.5955   -0.1500 C   0  0  0  0  0  0  0  0  0  0  0  0
   -1.6021   -0.2271    0.6329 C   0  0  0  0  0  0  0  0  0  0  0  0
    1.2086    0.6562    0.6259 C   0  0  0  0  0  0  0  0  0  0  0  0
   -2.9440   -0.6080    0.6230 C   0  0  0  0  0  0  0  0  0  0  0  0
   -5.5164   -1.4443   -0.0323 C   0  0  0  0  0  0  0  0  0  0  0  0
   -6.8584   -1.5480   -0.7407 C   0  0  0  0  0  0  0  0  0  0  0  0
   -1.8649    3.3671   -0.5545 C   0  0  0  0  0  0  0  0  0  0  0  0
   -7.2335   -2.9900   -1.0319 C   0  0  0  0  0  0  0  0  0  0  0  0
  1  9  1  0
  1 17  1  0
  2 14  1  0
  2 19  1  0
  3 17  2  0
  4  6  1  0
  4  7  1  0
  4  8  1  0
  5 12  1  0
  5 17  1  0
  6  9  1  0
  7 10  1  0
  8 11  1  0
 12 13  2  0
 12 16  1  0
 13 15  1  0
 13 21  1  0
 14 15  2  0
 14 18  1  0
 16 18  2  0
 19 20  1  0
 20 22  1  0
M  END
>  <PUBCHEM_COMPOUND_CID>  (1) 
46132

>  <PUBCHEM_CONFORMER_RMSD>  (1) 
1

>  <PUBCHEM_CONFORMER_DIVERSEORDER>  (1) 
5
35
30
11
10
44
41
22
19
37
28
33
47
21
32
36
23
49
46
9
42
24
18
17
38
31
26
27
1
48
40
25
43
16
20
45
29
15
13
7
6
4
39
34
8
14
2
12
3

>  <PUBCHEM_MMFF94_PARTIAL_CHARGES>  (1) 
22
1 -0.43
12 0.12
13 -0.14
14 0.08
15 -0.15
16 -0.15
17 0.78
18 -0.15
19 0.28
2 -0.36
21 0.14
3 -0.57
37 0.15
38 0.37
39 0.15
4 -0.81
40 0.15
5 -0.55
6 0.27
7 0.27
8 0.27
9 0.28

>  <PUBCHEM_EFFECTIVE_ROTOR_COUNT>  (1) 
11

>  <PUBCHEM_PHARMACOPHORE_FEATURES>  (1) 
6
1 2 acceptor
1 22 hydrophobe
1 3 acceptor
1 4 cation
1 5 donor
6 12 13 14 15 16 18 rings

>  <PUBCHEM_HEAVY_ATOM_COUNT>  (1) 
22

>  <PUBCHEM_ATOM_DEF_STEREO_COUNT>  (1) 
0

>  <PUBCHEM_ATOM_UDEF_STEREO_COUNT>  (1) 
0

>  <PUBCHEM_BOND_DEF_STEREO_COUNT>  (1) 
0

>  <PUBCHEM_BOND_UDEF_STEREO_COUNT>  (1) 
0

>  <PUBCHEM_ISOTOPIC_ATOM_COUNT>  (1) 
0

>  <PUBCHEM_COMPONENT_COUNT>  (1) 
1

>  <PUBCHEM_CACTVS_TAUTO_COUNT>  (1) 
2

>  <PUBCHEM_CONFORMER_ID>  (1) 
0000B43400000005

>  <PUBCHEM_MMFF94_ENERGY>  (1) 
51.911

>  <PUBCHEM_FEATURE_SELFOVERLAP>  (1) 
30.446

>  <PUBCHEM_SHAPE_FINGERPRINT>  (1) 
10 15 11527946781218614575
10595046 47 18187936049783108564
10693767 8 18194953266135704079
10730089 47 18409727331719037186
11524674 6 16558750122663925719
117890 112 10737282450314008688
125118 31 8286210456415142943
12616971 3 14908173153665774440
12895836 83 13334729168278117105
13288520 33 18413672409662634313
13668630 136 17704081681266050598
13673619 4 18131353029043015521
13782708 43 18059852874431013227
13862211 1 18411978079128675707
14216079 64 18343299293240087023
14251764 30 18272930544487348137
14347332 77 18409725123567698744
14556957 393 17313112934119841293
14931854 50 17822278103500457483
15183329 4 18334299747289883490
17844677 252 18412267203764381296
18222031 100 18114176466778267193
20526848 3 8430321255435186367
21150785 3 17967817179870193334
21267235 1 18337113466876482907
21424621 283 8286214863731596647
21637258 2 17775559871383547971
2297311 6 18411989048206390521
23081809 10 18187090516324003352
23522609 53 18123221002305655424
23559900 14 18336258011510973113
465052 167 17918277583863648756
5104073 3 17917989468852019288
5470011 282 17676208013398481735
5718773 13 18413101758184336051
59755656 215 18407758149043221891

>  <PUBCHEM_SHAPE_MULTIPOLES>  (1) 
425.18
20.19
2.93
1.19
3.82
0.06
-0.45
-18.49
-7.33
-2.85
-0.41
1.69
-0.19
-2.05

>  <PUBCHEM_SHAPE_SELFOVERLAP>  (1) 
845.143

>  <PUBCHEM_SHAPE_VOLUME>  (1) 
253.5

>  <PUBCHEM_COORDINATE_TYPE>  (1) 
2
5
10

$$$$
