46138
     RDKit          3D

 24 25  0  0  0  0  0  0  0  0999 V2000
    2.2150   -0.6354   -0.1685 O   0  0  0  0  0  0  0  0  0  0  0  0
   -5.4742   -0.3762    0.6467 O   0  0  0  0  0  0  0  0  0  0  0  0
    0.8392    1.1340    0.2863 O   0  0  0  0  0  0  0  0  0  0  0  0
    5.7791    0.2809   -0.3794 N   0  0  0  0  0  0  0  0  0  0  0  0
    0.0107   -1.0341   -0.0199 N   0  0  0  0  0  0  0  0  0  0  0  0
    6.1759    0.5815    1.0034 C   0  0  0  0  0  0  0  0  0  0  0  0
    6.8802   -0.3462   -1.1237 C   0  0  0  0  0  0  0  0  0  0  0  0
    7.3836    1.5192    1.0394 C   0  0  0  0  0  0  0  0  0  0  0  0
    8.1110    0.5614   -1.1574 C   0  0  0  0  0  0  0  0  0  0  0  0
    8.5547    0.9460    0.2493 C   0  0  0  0  0  0  0  0  0  0  0  0
    4.5953   -0.5780   -0.3967 C   0  0  0  0  0  0  0  0  0  0  0  0
    3.3389    0.2340   -0.1253 C   0  0  0  0  0  0  0  0  0  0  0  0
    0.9874   -0.0603    0.0575 C   0  0  0  0  0  0  0  0  0  0  0  0
   -1.3847   -0.8824    0.1468 C   0  0  0  0  0  0  0  0  0  0  0  0
   -7.4637    0.6921   -0.1634 C   0  0  0  0  0  0  0  0  0  0  0  0
   -2.2416   -1.9775    0.0361 C   0  0  0  0  0  0  0  0  0  0  0  0
   -6.0212    0.8896    0.2801 C   0  0  0  0  0  0  0  0  0  0  0  0
   -8.1085    2.0089   -0.5867 C   0  0  0  0  0  0  0  0  0  0  0  0
   -4.1332   -0.5424    0.4826 C   0  0  0  0  0  0  0  0  0  0  0  0
   -3.6158   -1.8075    0.2041 C   0  0  0  0  0  0  0  0  0  0  0  0
   -1.9019    0.3828    0.4258 C   0  0  0  0  0  0  0  0  0  0  0  0
   -3.2762    0.5528    0.5935 C   0  0  0  0  0  0  0  0  0  0  0  0
   -1.7151   -3.3441   -0.2609 C   0  0  0  0  0  0  0  0  0  0  0  0
   -9.5349    1.8008   -1.0697 C   0  0  0  0  0  0  0  0  0  0  0  0
  1 12  1  0
  1 13  1  0
  2 17  1  0
  2 19  1  0
  3 13  2  0
  4  6  1  0
  4  7  1  0
  4 11  1  0
  5 13  1  0
  5 14  1  0
  6  8  1  0
  7  9  1  0
  8 10  1  0
  9 10  1  0
 11 12  1  0
 14 16  2  0
 14 21  1  0
 15 17  1  0
 15 18  1  0
 16 20  1  0
 16 23  1  0
 18 24  1  0
 19 20  2  0
 19 22  1  0
 21 22  2  0
M  END
>  <PUBCHEM_COMPOUND_CID>  (1) 
46138

>  <PUBCHEM_CONFORMER_RMSD>  (1) 
1

>  <PUBCHEM_CONFORMER_DIVERSEORDER>  (1) 
1
52
24
17
54
38
26
43
49
69
23
31
16
62
65
46
28
61
41
12
22
57
70
29
55
51
71
37
14
67
44
36
47
39
42
66
68
10
30
13
35
15
2
40
58
59
60
27
8
21
72
5
11
34
45
19
20
9
7
56
53
25
48
18
64
4
32
3
6
50
63
33

>  <PUBCHEM_MMFF94_PARTIAL_CHARGES>  (1) 
22
1 -0.43
11 0.27
12 0.28
13 0.78
14 0.12
16 -0.14
17 0.28
19 0.08
2 -0.36
20 -0.15
21 -0.15
22 -0.15
23 0.14
3 -0.57
4 -0.81
41 0.37
46 0.15
47 0.15
48 0.15
5 -0.55
6 0.27
7 0.27

>  <PUBCHEM_EFFECTIVE_ROTOR_COUNT>  (1) 
11.2

>  <PUBCHEM_PHARMACOPHORE_FEATURES>  (1) 
7
1 2 acceptor
1 24 hydrophobe
1 3 acceptor
1 4 cation
1 5 donor
6 14 16 19 20 21 22 rings
6 4 6 7 8 9 10 rings

>  <PUBCHEM_HEAVY_ATOM_COUNT>  (1) 
24

>  <PUBCHEM_ATOM_DEF_STEREO_COUNT>  (1) 
0

>  <PUBCHEM_ATOM_UDEF_STEREO_COUNT>  (1) 
0

>  <PUBCHEM_BOND_DEF_STEREO_COUNT>  (1) 
0

>  <PUBCHEM_BOND_UDEF_STEREO_COUNT>  (1) 
0

>  <PUBCHEM_ISOTOPIC_ATOM_COUNT>  (1) 
0

>  <PUBCHEM_COMPONENT_COUNT>  (1) 
1

>  <PUBCHEM_CACTVS_TAUTO_COUNT>  (1) 
2

>  <PUBCHEM_CONFORMER_ID>  (1) 
0000B43A00000001

>  <PUBCHEM_MMFF94_ENERGY>  (1) 
45.8564

>  <PUBCHEM_FEATURE_SELFOVERLAP>  (1) 
35.52

>  <PUBCHEM_SHAPE_FINGERPRINT>  (1) 
10411042 1 17836647801406054231
10835480 77 17988926704144536760
11315181 36 17418100948263870667
125118 31 18334017224568304676
12838862 33 18411125931704875153
13530399 1 17677060148270080340
14117953 113 18410859853906658228
14150022 121 13551463732130478039
14251764 18 18040996262852155611
14344974 52 18342733045194725141
14429380 56 16200145522056467728
14729087 3 18408885127234230017
14933364 13 18131357440723131248
15461852 350 17846494872644784839
155225 1 18187645770498273405
1577012 14 18335414668954674299
16087824 20 18334575690876854893
17093844 174 18410014372873292755
1754911 235 17703788107256138805
1818759 1 10735875088706143869
20554085 129 18058996324682059611
21095086 128 13542467553461065772
21150785 3 15554447396547753901
21792934 111 18272362054738271832
21927370 108 8718828717476544807
220451 1 17749386010296718778
23559900 14 17988358282181254096
23569943 247 10157494576822844924
23576562 1 17702652397760095077
249057 3 18411139164377983117
300161 21 18341895203790211202
306946 40 17703496771477635448
335352 9 18412262848577346029
4073 2 18338240496423534650
59682541 35 7997679887860923244

>  <PUBCHEM_SHAPE_MULTIPOLES>  (1) 
466.34
29.99
2.14
0.95
6.26
1.46
0.08
-22
5.94
-3.53
0.19
0.78
-0.22
1.86

>  <PUBCHEM_SHAPE_SELFOVERLAP>  (1) 
941.136

>  <PUBCHEM_SHAPE_VOLUME>  (1) 
273.7

>  <PUBCHEM_COORDINATE_TYPE>  (1) 
2
5
10

$$$$
