46142
     RDKit          3D

 23 24  0  0  0  0  0  0  0  0999 V2000
    8.0987    0.6967    0.3042 O   0  0  0  0  0  0  0  0  0  0  0  0
    1.7861   -0.6149   -0.1335 O   0  0  0  0  0  0  0  0  0  0  0  0
   -5.9049   -0.0714    0.5035 O   0  0  0  0  0  0  0  0  0  0  0  0
    0.4556    1.2249    0.1391 O   0  0  0  0  0  0  0  0  0  0  0  0
    5.3779    0.1791   -0.3522 N   0  0  0  0  0  0  0  0  0  0  0  0
   -0.4311   -0.9375    0.0053 N   0  0  0  0  0  0  0  0  0  0  0  0
    6.4777   -0.5344   -1.0162 C   0  0  0  0  0  0  0  0  0  0  0  0
    5.7796    0.5717    1.0057 C   0  0  0  0  0  0  0  0  0  0  0  0
    4.1707   -0.6440   -0.3186 C   0  0  0  0  0  0  0  0  0  0  0  0
    7.7293    0.3386   -1.0280 C   0  0  0  0  0  0  0  0  0  0  0  0
    7.0471    1.4195    0.9456 C   0  0  0  0  0  0  0  0  0  0  0  0
    2.9343    0.2232   -0.1434 C   0  0  0  0  0  0  0  0  0  0  0  0
   -1.8241   -0.7330    0.1305 C   0  0  0  0  0  0  0  0  0  0  0  0
    0.5724    0.0117    0.0176 C   0  0  0  0  0  0  0  0  0  0  0  0
   -2.7109   -1.8093    0.0980 C   0  0  0  0  0  0  0  0  0  0  0  0
   -4.5669   -0.2886    0.3812 C   0  0  0  0  0  0  0  0  0  0  0  0
   -4.0822   -1.5871    0.2235 C   0  0  0  0  0  0  0  0  0  0  0  0
   -2.3085    0.5656    0.2887 C   0  0  0  0  0  0  0  0  0  0  0  0
   -3.6800    0.7878    0.4139 C   0  0  0  0  0  0  0  0  0  0  0  0
   -6.4079    1.1724    0.0181 C   0  0  0  0  0  0  0  0  0  0  0  0
   -2.2199   -3.2108   -0.0691 C   0  0  0  0  0  0  0  0  0  0  0  0
   -7.8470    0.9780   -0.4343 C   0  0  0  0  0  0  0  0  0  0  0  0
   -8.4460    2.2619   -0.9796 C   0  0  0  0  0  0  0  0  0  0  0  0
  1 10  1  0
  1 11  1  0
  2 12  1  0
  2 14  1  0
  3 16  1  0
  3 20  1  0
  4 14  2  0
  5  7  1  0
  5  8  1  0
  5  9  1  0
  6 13  1  0
  6 14  1  0
  7 10  1  0
  8 11  1  0
  9 12  1  0
 13 15  2  0
 13 18  1  0
 15 17  1  0
 15 21  1  0
 16 17  2  0
 16 19  1  0
 18 19  2  0
 20 22  1  0
 22 23  1  0
M  END
>  <PUBCHEM_COMPOUND_CID>  (1) 
46142

>  <PUBCHEM_CONFORMER_RMSD>  (1) 
1

>  <PUBCHEM_CONFORMER_DIVERSEORDER>  (1) 
1
47
28
27
3
4
24
50
8
21
10
11
20
14
32
52
48
18
29
23
46
22
41
49
26
53
45
36
37
16
34
43
42
15
30
6
40
25
13
7
39
51
9
17
12
19
33
44
31
38
2
5
35

>  <PUBCHEM_MMFF94_PARTIAL_CHARGES>  (1) 
25
1 -0.56
10 0.28
11 0.28
12 0.28
13 0.12
14 0.78
15 -0.14
16 0.08
17 -0.15
18 -0.15
19 -0.15
2 -0.43
20 0.28
21 0.14
3 -0.36
36 0.37
37 0.15
38 0.15
39 0.15
4 -0.57
5 -0.81
6 -0.55
7 0.27
8 0.27
9 0.27

>  <PUBCHEM_EFFECTIVE_ROTOR_COUNT>  (1) 
10.2

>  <PUBCHEM_PHARMACOPHORE_FEATURES>  (1) 
8
1 1 acceptor
1 23 hydrophobe
1 3 acceptor
1 4 acceptor
1 5 cation
1 6 donor
6 1 5 7 8 10 11 rings
6 13 15 16 17 18 19 rings

>  <PUBCHEM_HEAVY_ATOM_COUNT>  (1) 
23

>  <PUBCHEM_ATOM_DEF_STEREO_COUNT>  (1) 
0

>  <PUBCHEM_ATOM_UDEF_STEREO_COUNT>  (1) 
0

>  <PUBCHEM_BOND_DEF_STEREO_COUNT>  (1) 
0

>  <PUBCHEM_BOND_UDEF_STEREO_COUNT>  (1) 
0

>  <PUBCHEM_ISOTOPIC_ATOM_COUNT>  (1) 
0

>  <PUBCHEM_COMPONENT_COUNT>  (1) 
1

>  <PUBCHEM_CACTVS_TAUTO_COUNT>  (1) 
2

>  <PUBCHEM_CONFORMER_ID>  (1) 
0000B43E00000001

>  <PUBCHEM_MMFF94_ENERGY>  (1) 
54.7585

>  <PUBCHEM_FEATURE_SELFOVERLAP>  (1) 
40.596

>  <PUBCHEM_SHAPE_FINGERPRINT>  (1) 
10411042 1 17907016537162517291
10835480 77 18059575819360551472
11045977 3 17988925621791835106
11315181 36 17560807657987032355
125118 31 18261395572369930580
12838862 33 18337095809654200493
14251764 18 17894628162935181019
14344974 52 18342451561723109957
14429380 56 16343695556707796032
14729087 3 18408321073574518277
14933364 13 18202006551633577184
15461852 350 17846213393441581287
155225 1 18187926133173503933
17093844 174 18409168839999737003
20238998 120 18411700989182647216
20554085 129 18130209498111144683
21150785 3 15554446297046656237
21792934 111 18272642421507977072
220451 1 17603581963617651122
23559900 14 18131064986950364320
23569943 247 10446004228811980268
249057 3 18409450310407368333
300161 21 18412544314579240418
335352 9 18410573998790889749
4073 2 18336551642136369714
59682541 35 8286190643741088668

>  <PUBCHEM_SHAPE_MULTIPOLES>  (1) 
439.89
26.47
2.03
0.88
14.16
1.19
0.05
-15.76
3.88
-3.59
0.12
0.77
-0.19
1.73

>  <PUBCHEM_SHAPE_SELFOVERLAP>  (1) 
893.651

>  <PUBCHEM_SHAPE_VOLUME>  (1) 
255.8

>  <PUBCHEM_COORDINATE_TYPE>  (1) 
2
5
10

$$$$
