46140
     RDKit          3D

 26 27  0  0  0  0  0  0  0  0999 V2000
    3.1032    0.6177    0.2732 O   0  0  0  0  0  0  0  0  0  0  0  0
   -4.5499    1.1108   -0.7581 O   0  0  0  0  0  0  0  0  0  0  0  0
    1.6259   -0.9362   -0.5226 O   0  0  0  0  0  0  0  0  0  0  0  0
    6.5872   -0.6091    0.4000 N   0  0  0  0  0  0  0  0  0  0  0  0
    0.9335    1.2031    0.1424 N   0  0  0  0  0  0  0  0  0  0  0  0
    7.7034   -0.2120    1.2696 C   0  0  0  0  0  0  0  0  0  0  0  0
    7.0118   -0.6927   -1.0045 C   0  0  0  0  0  0  0  0  0  0  0  0
    8.8614   -1.2063    1.1701 C   0  0  0  0  0  0  0  0  0  0  0  0
    8.1472   -1.7026   -1.1784 C   0  0  0  0  0  0  0  0  0  0  0  0
    9.3273   -1.3719   -0.2718 C   0  0  0  0  0  0  0  0  0  0  0  0
    5.4706    0.3249    0.5420 C   0  0  0  0  0  0  0  0  0  0  0  0
    4.1684   -0.3243    0.1012 C   0  0  0  0  0  0  0  0  0  0  0  0
   -7.3828   -1.2467   -0.0281 C   0  0  0  0  0  0  0  0  0  0  0  0
   -8.8476   -1.0704    0.3819 C   0  0  0  0  0  0  0  0  0  0  0  0
   -6.6352    0.0752   -0.1954 C   0  0  0  0  0  0  0  0  0  0  0  0
   -9.5890   -2.3941    0.5731 C   0  0  0  0  0  0  0  0  0  0  0  0
   -5.1944   -0.1495   -0.6346 C   0  0  0  0  0  0  0  0  0  0  0  0
    1.8536    0.1837   -0.0815 C   0  0  0  0  0  0  0  0  0  0  0  0
   -0.4461    1.1946   -0.0787 C   0  0  0  0  0  0  0  0  0  0  0  0
  -11.0551   -2.1647    0.9081 C   0  0  0  0  0  0  0  0  0  0  0  0
   -3.1979    1.1387   -0.5341 C   0  0  0  0  0  0  0  0  0  0  0  0
   -1.2230    2.3180    0.2049 C   0  0  0  0  0  0  0  0  0  0  0  0
   -2.5988    2.2900   -0.0229 C   0  0  0  0  0  0  0  0  0  0  0  0
   -1.0449    0.0434   -0.5905 C   0  0  0  0  0  0  0  0  0  0  0  0
   -2.4208    0.0153   -0.8180 C   0  0  0  0  0  0  0  0  0  0  0  0
   -0.6080    3.5650    0.7526 C   0  0  0  0  0  0  0  0  0  0  0  0
  1 12  1  0
  1 18  1  0
  2 17  1  0
  2 21  1  0
  3 18  2  0
  4  6  1  0
  4  7  1  0
  4 11  1  0
  5 18  1  0
  5 19  1  0
  6  8  1  0
  7  9  1  0
  8 10  1  0
  9 10  1  0
 11 12  1  0
 13 14  1  0
 13 15  1  0
 14 16  1  0
 15 17  1  0
 16 20  1  0
 19 22  2  0
 19 24  1  0
 21 23  2  0
 21 25  1  0
 22 23  1  0
 22 26  1  0
 24 25  2  0
M  END
>  <PUBCHEM_COMPOUND_CID>  (1) 
46140

>  <PUBCHEM_CONFORMER_RMSD>  (1) 
1.2

>  <PUBCHEM_CONFORMER_DIVERSEORDER>  (1) 
1
21
55
17
24
47
36
37
33
32
6
52
10
28
42
45
50
5
48
41
40
27
39
25
9
53
23
35
15
29
30
20
16
49
44
54
11
51
2
34
7
31
22
3
18
12
43
38
46
8
26
19
14
4
13

>  <PUBCHEM_MMFF94_PARTIAL_CHARGES>  (1) 
22
1 -0.43
11 0.27
12 0.28
17 0.28
18 0.78
19 0.12
2 -0.36
21 0.08
22 -0.14
23 -0.15
24 -0.15
25 -0.15
26 0.14
3 -0.57
4 -0.81
5 -0.55
54 0.37
55 0.15
56 0.15
57 0.15
6 0.27
7 0.27

>  <PUBCHEM_EFFECTIVE_ROTOR_COUNT>  (1) 
13.2

>  <PUBCHEM_PHARMACOPHORE_FEATURES>  (1) 
8
1 2 acceptor
1 20 hydrophobe
1 3 acceptor
1 4 cation
1 5 donor
4 13 14 15 16 hydrophobe
6 19 21 22 23 24 25 rings
6 4 6 7 8 9 10 rings

>  <PUBCHEM_HEAVY_ATOM_COUNT>  (1) 
26

>  <PUBCHEM_ATOM_DEF_STEREO_COUNT>  (1) 
0

>  <PUBCHEM_ATOM_UDEF_STEREO_COUNT>  (1) 
0

>  <PUBCHEM_BOND_DEF_STEREO_COUNT>  (1) 
0

>  <PUBCHEM_BOND_UDEF_STEREO_COUNT>  (1) 
0

>  <PUBCHEM_ISOTOPIC_ATOM_COUNT>  (1) 
0

>  <PUBCHEM_COMPONENT_COUNT>  (1) 
1

>  <PUBCHEM_CACTVS_TAUTO_COUNT>  (1) 
2

>  <PUBCHEM_CONFORMER_ID>  (1) 
0000B43C00000001

>  <PUBCHEM_MMFF94_ENERGY>  (1) 
45.795

>  <PUBCHEM_FEATURE_SELFOVERLAP>  (1) 
40.594

>  <PUBCHEM_SHAPE_FINGERPRINT>  (1) 
10162869 55 16805604768561575494
10411042 1 18410293632011505221
10533779 47 16916797266059088590
11463208 3 18338800014709207286
12522641 33 13334730224402430425
12539745 222 18411982443559669289
13165054 146 9367340402597661025
13530399 1 12535334741046725562
14202775 3 18336548214753039026
14344974 52 10809349953917797747
15419008 145 17917722288818933425
15461852 350 16877940521180967183
155225 1 10663826278556876659
1754911 235 12829488160355938859
1818759 1 18335422374516087827
18335252 98 18413389817398561726
20105231 36 18343587317931388334
20771845 65 18411420652461875801
21150785 3 16443066076046233820
21267235 1 18413388734924254845
21362267 313 12175636048716593398
21792961 116 18337381661561379965
21927370 108 18202568367341865985
232437 2 18186239537495492563
23524908 199 11891321033751064528
23569917 315 18263363595563792882
23576562 1 13262979449938081255
246663 6 18408886239535729687
306946 40 12901552382050690350
3178227 256 17131830980439053526
3383291 50 18412543219225696346
4339292 15 18114178649475936151
54039377 194 18334015008480672455
5719381 82 18260551143487475763
57816332 4 18340486797920166609
59682541 35 18202841071546269882
636775 8 18408045108481763967
6673363 416 10881396548982986591

>  <PUBCHEM_SHAPE_MULTIPOLES>  (1) 
507.5
36.77
2.6
1.01
14.91
1.65
-0.05
-38.93
-7.62
3.8
-0.55
-1.06
-0.2
2

>  <PUBCHEM_SHAPE_SELFOVERLAP>  (1) 
1016.449

>  <PUBCHEM_SHAPE_VOLUME>  (1) 
299.3

>  <PUBCHEM_COORDINATE_TYPE>  (1) 
2
5
10

$$$$
