46144
     RDKit          3D

 24 24  0  0  1  0  0  0  0  0999 V2000
   -2.8271    1.6854    0.4237 O   0  0  0  0  0  0  0  0  0  0  0  0
    4.8118    0.5358    0.1892 O   0  0  0  0  0  0  0  0  0  0  0  0
   -1.5250    0.2281    1.6115 O   0  0  0  0  0  0  0  0  0  0  0  0
   -4.9606   -1.2515   -0.3431 N   0  0  0  0  0  0  0  0  0  0  0  0
   -0.6120    1.6913    0.0226 N   0  0  0  0  0  0  0  0  0  0  0  0
   -3.7996   -0.3722   -0.3656 C   0  0  0  0  0  0  0  0  0  0  0  0
   -3.9838    0.8484    0.5393 C   0  0  0  0  0  0  0  0  0  0  0  0
   -4.7935   -2.3532   -1.2935 C   0  0  0  0  0  0  0  0  0  0  0  0
   -5.1857   -1.7762    1.0056 C   0  0  0  0  0  0  0  0  0  0  0  0
   -5.1994    1.6886    0.1692 C   0  0  0  0  0  0  0  0  0  0  0  0
   -4.5584   -1.8328   -2.7013 C   0  0  0  0  0  0  0  0  0  0  0  0
   -6.4336   -2.6412    1.0570 C   0  0  0  0  0  0  0  0  0  0  0  0
   -1.6328    1.1117    0.7700 C   0  0  0  0  0  0  0  0  0  0  0  0
    0.7561    1.4101    0.0526 C   0  0  0  0  0  0  0  0  0  0  0  0
    6.4937   -1.1371   -0.1368 C   0  0  0  0  0  0  0  0  0  0  0  0
    1.6461    2.0967   -0.7736 C   0  0  0  0  0  0  0  0  0  0  0  0
    5.1689   -0.7964    0.5309 C   0  0  0  0  0  0  0  0  0  0  0  0
    6.9315   -2.5651    0.1756 C   0  0  0  0  0  0  0  0  0  0  0  0
    3.4726    0.8251    0.1444 C   0  0  0  0  0  0  0  0  0  0  0  0
    3.0090    1.8033   -0.7275 C   0  0  0  0  0  0  0  0  0  0  0  0
    1.2295    0.4294    0.9245 C   0  0  0  0  0  0  0  0  0  0  0  0
    2.5925    0.1358    0.9705 C   0  0  0  0  0  0  0  0  0  0  0  0
    1.1669    3.1514   -1.7176 C   0  0  0  0  0  0  0  0  0  0  0  0
    8.2329   -2.9154   -0.5279 C   0  0  0  0  0  0  0  0  0  0  0  0
  1  7  1  0
  1 13  1  0
  2 17  1  0
  2 19  1  0
  3 13  2  0
  4  6  1  0
  4  8  1  0
  4  9  1  0
  5 13  1  0
  5 14  1  0
  6  7  1  0
  7 10  1  0
  8 11  1  0
  9 12  1  0
 14 16  2  0
 14 21  1  0
 15 17  1  0
 15 18  1  0
 16 20  1  0
 16 23  1  0
 18 24  1  0
 19 20  2  0
 19 22  1  0
 21 22  2  0
M  END
>  <PUBCHEM_COMPOUND_CID>  (1) 
46144

>  <PUBCHEM_CONFORMER_RMSD>  (1) 
1

>  <PUBCHEM_CONFORMER_DIVERSEORDER>  (1) 
1
146
26
203
142
8
34
97
36
35
115
80
38
189
86
179
145
198
105
194
45
95
61
132
94
138
147
161
133
59
129
12
124
154
87
174
77
140
72
135
168
102
46
139
16
197
148
134
172
62
29
118
13
47
116
120
76
60
79
151
85
170
11
18
50
125
70
163
206
165
114
130
202
199
24
143
56
78
33
162
7
83
44
39
111
110
106
21
43
96
108
137
182
149
74
88
191
93
200
158
22
136
173
103
48
41
14
52
190
65
92
9
144
107
186
19
82
152
2
4
53
66
188
160
175
68
181
81
84
58
90
67
187
180
167
196
64
10
204
177
126
141
51
156
3
128
91
150
171
31
49
15
27
23
32
104
100
17
121
28
71
6
201
157
20
73
63
75
55
57
192
117
184
164
37
99
193
155
119
178
176
101
25
205
123
122
183
169
40
113
112
127
89
159
166
153
185
54
42
5
69
109
195
98
30
131

>  <PUBCHEM_MMFF94_PARTIAL_CHARGES>  (1) 
22
1 -0.43
13 0.78
14 0.12
16 -0.14
17 0.28
19 0.08
2 -0.36
20 -0.15
21 -0.15
22 -0.15
23 0.14
3 -0.57
4 -0.81
45 0.37
48 0.15
49 0.15
5 -0.55
50 0.15
6 0.27
7 0.28
8 0.27
9 0.27

>  <PUBCHEM_EFFECTIVE_ROTOR_COUNT>  (1) 
12

>  <PUBCHEM_PHARMACOPHORE_FEATURES>  (1) 
6
1 2 acceptor
1 24 hydrophobe
1 3 acceptor
1 4 cation
1 5 donor
6 14 16 19 20 21 22 rings

>  <PUBCHEM_HEAVY_ATOM_COUNT>  (1) 
24

>  <PUBCHEM_ATOM_DEF_STEREO_COUNT>  (1) 
0

>  <PUBCHEM_ATOM_UDEF_STEREO_COUNT>  (1) 
1

>  <PUBCHEM_BOND_DEF_STEREO_COUNT>  (1) 
0

>  <PUBCHEM_BOND_UDEF_STEREO_COUNT>  (1) 
0

>  <PUBCHEM_ISOTOPIC_ATOM_COUNT>  (1) 
0

>  <PUBCHEM_COMPONENT_COUNT>  (1) 
1

>  <PUBCHEM_CACTVS_TAUTO_COUNT>  (1) 
2

>  <PUBCHEM_CONFORMER_ID>  (1) 
0000B44000000001

>  <PUBCHEM_MMFF94_ENERGY>  (1) 
58.024

>  <PUBCHEM_FEATURE_SELFOVERLAP>  (1) 
30.446

>  <PUBCHEM_SHAPE_FINGERPRINT>  (1) 
11497681 19 18410859842213505660
11796584 16 17989208105484538220
1361 4 18193279817216027067
13668630 136 18040714809624614203
13782708 43 18343013360187212306
14251751 18 17917708041177612955
14289585 56 17676753319114327742
14556957 393 16444775752598621174
17492 89 18263648518854929041
18222031 100 18186515497760647128
20028762 73 18343016675870978726
20398071 356 18412550907222352922
21267235 1 17968389943755944416
21424621 283 9655568613726768708
21585483 132 18338780274369634422
21709351 56 18186796989685098765
22224240 67 12247383576075499808
22393880 68 16951390178812926681
23402539 116 18260264153255870273
23559900 14 18411694413339369064
2748736 6 9079116631420003046
2838139 119 11242555336022157842
397830 11 17417511597953336346
46194498 28 16444749578714594757
465052 167 18272374157692354572
5104073 3 16056307457374625770
54039377 194 18409737283127035691
543368 44 8646765591029472675
559249 180 18413388714219298217
57527293 21 17202761648047088153
636775 72 8790009958008705446
6712543 237 16056884623691305718
7495541 125 17561079250228593160

>  <PUBCHEM_SHAPE_MULTIPOLES>  (1) 
466.34
19.73
3.56
1.51
18.8
0.76
0.86
23.48
0.84
0.9
1.22
-2.09
0.43
-0.9

>  <PUBCHEM_SHAPE_SELFOVERLAP>  (1) 
925.785

>  <PUBCHEM_SHAPE_VOLUME>  (1) 
279.2

>  <PUBCHEM_COORDINATE_TYPE>  (1) 
2
5
10

$$$$
