4614
     RDKit          3D

 22 24  0  0  0  0  0  0  0  0999 V2000
    1.1008   -0.8497   -0.4577 O   0  0  0  0  0  0  0  0  0  0  0  0
    6.1955    0.1563    1.3706 O   0  0  0  0  0  0  0  0  0  0  0  0
    5.9584    0.2506   -0.8883 O   0  0  0  0  0  0  0  0  0  0  0  0
    0.9204    1.4043   -0.4187 N   0  0  0  0  0  0  0  0  0  0  0  0
   -0.2053   -0.5331   -0.2366 C   0  0  0  0  0  0  0  0  0  0  0  0
   -0.3050    0.8320   -0.2142 C   0  0  0  0  0  0  0  0  0  0  0  0
    1.7103    0.3634   -0.5557 C   0  0  0  0  0  0  0  0  0  0  0  0
    3.1604    0.3385   -0.8005 C   0  0  0  0  0  0  0  0  0  0  0  0
   -1.1016   -1.6435   -0.0904 C   0  0  0  0  0  0  0  0  0  0  0  0
   -1.5129    1.5810   -0.0082 C   0  0  0  0  0  0  0  0  0  0  0  0
    3.9839    0.3234    0.4997 C   0  0  0  0  0  0  0  0  0  0  0  0
   -2.4408   -1.5252   -0.4773 C   0  0  0  0  0  0  0  0  0  0  0  0
   -0.6444   -2.8542    0.4412 C   0  0  0  0  0  0  0  0  0  0  0  0
   -1.8994    1.9398    1.2831 C   0  0  0  0  0  0  0  0  0  0  0  0
   -2.3000    1.9490   -1.0994 C   0  0  0  0  0  0  0  0  0  0  0  0
   -3.3123   -2.6048   -0.3344 C   0  0  0  0  0  0  0  0  0  0  0  0
   -1.5159   -3.9338    0.5839 C   0  0  0  0  0  0  0  0  0  0  0  0
   -3.0729    2.6670    1.4831 C   0  0  0  0  0  0  0  0  0  0  0  0
   -3.4734    2.6763   -0.8994 C   0  0  0  0  0  0  0  0  0  0  0  0
    5.4640    0.2364    0.2313 C   0  0  0  0  0  0  0  0  0  0  0  0
   -2.8499   -3.8092    0.1960 C   0  0  0  0  0  0  0  0  0  0  0  0
   -3.8598    3.0353    0.3919 C   0  0  0  0  0  0  0  0  0  0  0  0
  1  5  1  0
  1  7  1  0
  2 20  1  0
  3 20  2  0
  4  6  1  0
  4  7  2  0
  5  6  2  0
  5  9  1  0
  6 10  1  0
  7  8  1  0
  8 11  1  0
  9 12  2  0
  9 13  1  0
 10 14  2  0
 10 15  1  0
 11 20  1  0
 12 16  1  0
 13 17  2  0
 14 18  1  0
 15 19  2  0
 16 21  2  0
 17 21  1  0
 18 22  2  0
 19 22  1  0
M  END
>  <PUBCHEM_COMPOUND_CID>  (1) 
4614

>  <PUBCHEM_CONFORMER_RMSD>  (1) 
0.8

>  <PUBCHEM_CONFORMER_DIVERSEORDER>  (1) 
2
15
14
3
8
17
12
13
4
1
7
11
18
16
9
5
10
6

>  <PUBCHEM_MMFF94_PARTIAL_CHARGES>  (1) 
33
1 -0.28
10 0.05
11 0.06
12 -0.15
13 -0.15
14 -0.15
15 -0.15
16 -0.15
17 -0.15
18 -0.15
19 -0.15
2 -0.65
20 0.66
21 -0.15
22 -0.15
27 0.15
28 0.15
29 0.15
3 -0.57
30 0.15
31 0.15
32 0.15
33 0.15
34 0.15
35 0.15
36 0.15
37 0.5
4 -0.57
5 0.09
6 0.17
7 0.3
8 0.18
9 0.05

>  <PUBCHEM_EFFECTIVE_ROTOR_COUNT>  (1) 
5

>  <PUBCHEM_PHARMACOPHORE_FEATURES>  (1) 
6
1 2 acceptor
1 3 acceptor
3 2 3 20 anion
5 1 4 5 6 7 rings
6 10 14 15 18 19 22 rings
6 9 12 13 16 17 21 rings

>  <PUBCHEM_HEAVY_ATOM_COUNT>  (1) 
22

>  <PUBCHEM_ATOM_DEF_STEREO_COUNT>  (1) 
0

>  <PUBCHEM_ATOM_UDEF_STEREO_COUNT>  (1) 
0

>  <PUBCHEM_BOND_DEF_STEREO_COUNT>  (1) 
0

>  <PUBCHEM_BOND_UDEF_STEREO_COUNT>  (1) 
0

>  <PUBCHEM_ISOTOPIC_ATOM_COUNT>  (1) 
0

>  <PUBCHEM_COMPONENT_COUNT>  (1) 
1

>  <PUBCHEM_CACTVS_TAUTO_COUNT>  (1) 
2

>  <PUBCHEM_CONFORMER_ID>  (1) 
0000120600000002

>  <PUBCHEM_MMFF94_ENERGY>  (1) 
47.4464

>  <PUBCHEM_FEATURE_SELFOVERLAP>  (1) 
30.505

>  <PUBCHEM_SHAPE_FINGERPRINT>  (1) 
10319926 262 18269820018167061176
10411042 1 17977949312707177575
1100329 8 18339367473929182097
11036077 4 18335970979405172690
11582403 64 16445847754628991589
12107183 9 18118675527516464058
121448 382 18341888555106906221
12523318 42 18338782525163495882
12788726 201 18192443080582894150
13004483 165 18123472949249602923
13052359 8 18409449176424855509
13134695 92 17621035795579854895
13140716 1 18050293857815226435
13149001 5 17552958076735641447
13899415 180 17839450430131276319
14178342 30 18410013239175889134
14790565 3 17906742392923938228
14866123 147 18409730655538843435
15842332 3 17750532826351142100
15927050 60 18268149756018801935
17138139 8 17912043306581030413
17539 30 18340200912053162519
19427546 20 18263654007976264036
19591789 44 18121514457538217359
204376 136 18265336105536131757
20554085 129 17984958437230079105
21033648 29 18266164038346443256
21236236 1 18412825798208760620
22182313 1 17774740700734620718
22224240 67 18270127808155966073
2255824 54 17548420302511912039
23419403 2 17345461777463374761
23557571 272 18201170909616270700
23558518 356 18189060969931154640
23559900 14 18193266623566584396
23929065 36 18199165425660046320
255183 451 8284185156366402433
283562 15 18337667632583151338
3027735 51 18413108372534315687
3091708 16 9055323221200727363
394222 165 16909483096211025321
4073 2 18341894079167954702
4409770 3 18335976550088655039
497634 4 18115306804077001580
5104073 3 18340193164712824200
53917941 68 18339068298964873093
58779409 54 18340480153525371519
59755656 520 18268434546609570508
7226269 152 18337949103723596703
77188 2 17834116720883789543
81228 2 18266194983363251343
9981440 41 17560509608800130374

>  <PUBCHEM_SHAPE_MULTIPOLES>  (1) 
430.16
9.64
4.76
1.1
21.93
3.82
-0.2
-3.75
-1.18
-8.74
-0.86
-0.06
-0.58
-0.31

>  <PUBCHEM_SHAPE_SELFOVERLAP>  (1) 
940.587

>  <PUBCHEM_SHAPE_VOLUME>  (1) 
234.6

>  <PUBCHEM_COORDINATE_TYPE>  (1) 
2
5
10

$$$$
