4615
     RDKit          3D

 32 36  0  0  0  0  0  0  0  0999 V2000
    6.2553   -2.6795    0.1433 O   0  0  0  0  0  0  0  0  0  0  0  0
   -2.0721   -0.5240    0.3183 N   0  0  0  0  0  0  0  0  0  0  0  0
    0.4941   -1.8158    0.6420 N   0  0  0  0  0  0  0  0  0  0  0  0
    4.6715   -0.9317   -0.1713 N   0  0  0  0  0  0  0  0  0  0  0  0
    6.8872   -0.4236   -0.1789 N   0  0  0  0  0  0  0  0  0  0  0  0
   -1.8528   -1.9055   -0.1273 C   0  0  0  0  0  0  0  0  0  0  0  0
   -0.8204    0.2401    0.2524 C   0  0  0  0  0  0  0  0  0  0  0  0
   -0.7576   -2.5802    0.7058 C   0  0  0  0  0  0  0  0  0  0  0  0
    0.2744   -0.4340    1.0867 C   0  0  0  0  0  0  0  0  0  0  0  0
   -3.1153    0.1189   -0.4781 C   0  0  0  0  0  0  0  0  0  0  0  0
    1.5362   -2.4584    1.4402 C   0  0  0  0  0  0  0  0  0  0  0  0
    2.8784   -1.7309    1.3215 C   0  0  0  0  0  0  0  0  0  0  0  0
   -4.3733   -0.7310   -0.5797 C   0  0  0  0  0  0  0  0  0  0  0  0
   -3.4225    1.5306   -0.0007 C   0  0  0  0  0  0  0  0  0  0  0  0
    3.4286   -1.6499   -0.1012 C   0  0  0  0  0  0  0  0  0  0  0  0
   -5.3612   -0.5776    0.3717 C   0  0  0  0  0  0  0  0  0  0  0  0
   -3.2571    1.8341    1.3354 C   0  0  0  0  0  0  0  0  0  0  0  0
   -4.4887   -1.6305   -1.6201 C   0  0  0  0  0  0  0  0  0  0  0  0
   -3.8578    2.4653   -0.9181 C   0  0  0  0  0  0  0  0  0  0  0  0
    4.8075    0.4517   -0.3771 C   0  0  0  0  0  0  0  0  0  0  0  0
    5.9705   -1.5048   -0.0437 C   0  0  0  0  0  0  0  0  0  0  0  0
    6.1678    0.7546   -0.3803 C   0  0  0  0  0  0  0  0  0  0  0  0
   -6.5142   -1.3571    0.2785 C   0  0  0  0  0  0  0  0  0  0  0  0
   -3.5391    3.1283    1.7730 C   0  0  0  0  0  0  0  0  0  0  0  0
   -5.6417   -2.4100   -1.7133 C   0  0  0  0  0  0  0  0  0  0  0  0
   -4.1397    3.7595   -0.4805 C   0  0  0  0  0  0  0  0  0  0  0  0
    3.8507    1.4288   -0.5558 C   0  0  0  0  0  0  0  0  0  0  0  0
   -6.6543   -2.2733   -0.7640 C   0  0  0  0  0  0  0  0  0  0  0  0
   -3.9804    4.0909    0.8649 C   0  0  0  0  0  0  0  0  0  0  0  0
    6.6386    2.0364   -0.5604 C   0  0  0  0  0  0  0  0  0  0  0  0
    4.3044    2.7392   -0.7406 C   0  0  0  0  0  0  0  0  0  0  0  0
    5.6829    3.0395   -0.7427 C   0  0  0  0  0  0  0  0  0  0  0  0
  1 21  2  0
  2  6  1  0
  2  7  1  0
  2 10  1  0
  3  8  1  0
  3  9  1  0
  3 11  1  0
  4 15  1  0
  4 20  1  0
  4 21  1  0
  5 21  1  0
  5 22  1  0
  6  8  1  0
  7  9  1  0
 10 13  1  0
 10 14  1  0
 11 12  1  0
 12 15  1  0
 13 16  2  0
 13 18  1  0
 14 17  2  0
 14 19  1  0
 16 23  1  0
 17 24  1  0
 18 25  2  0
 19 26  2  0
 20 22  2  0
 20 27  1  0
 22 30  1  0
 23 28  2  0
 24 29  2  0
 25 28  1  0
 26 29  1  0
 27 31  2  0
 30 32  2  0
 31 32  1  0
M  END
>  <PUBCHEM_COMPOUND_CID>  (1) 
4615

>  <PUBCHEM_CONFORMER_RMSD>  (1) 
1

>  <PUBCHEM_CONFORMER_DIVERSEORDER>  (1) 
2
92
29
102
111
89
96
43
22
33
16
9
39
86
84
93
52
53
105
65
60
40
71
72
73
100
54
99
64
76
21
14
83
41
27
59
69
48
95
8
88
103
26
81
112
44
28
10
11
7
25
46
45
34
74
36
50
68
108
32
17
38
55
63
42
35
31
19
62
90
37
101
106
58
49
91
61
13
23
98
57
110
82
47
94
30
109
20
12
6
78
56
51
15
77
1
107
80
18
66
85
3
24
97
4
104
70
5
75
87
79
67

>  <PUBCHEM_MMFF94_PARTIAL_CHARGES>  (1) 
46
1 -0.57
10 0.56
11 0.27
13 -0.14
14 -0.14
15 0.3
16 -0.15
17 -0.15
18 -0.15
19 -0.15
2 -0.81
20 0.12
21 0.69
22 0.12
23 -0.15
24 -0.15
25 -0.15
26 -0.15
27 -0.15
28 -0.15
29 -0.15
3 -0.81
30 -0.15
31 -0.15
32 -0.15
4 -0.48
48 0.15
49 0.15
5 -0.55
50 0.15
51 0.15
52 0.37
53 0.15
54 0.15
55 0.15
56 0.15
57 0.15
58 0.15
59 0.15
6 0.27
60 0.15
61 0.15
62 0.15
7 0.27
8 0.27
9 0.27

>  <PUBCHEM_EFFECTIVE_ROTOR_COUNT>  (1) 
8.2

>  <PUBCHEM_PHARMACOPHORE_FEATURES>  (1) 
9
1 1 acceptor
1 2 cation
1 3 cation
1 5 donor
5 4 5 20 21 22 rings
6 13 16 18 23 25 28 rings
6 14 17 19 24 26 29 rings
6 2 3 6 7 8 9 rings
6 20 22 27 30 31 32 rings

>  <PUBCHEM_HEAVY_ATOM_COUNT>  (1) 
32

>  <PUBCHEM_ATOM_DEF_STEREO_COUNT>  (1) 
0

>  <PUBCHEM_ATOM_UDEF_STEREO_COUNT>  (1) 
0

>  <PUBCHEM_BOND_DEF_STEREO_COUNT>  (1) 
0

>  <PUBCHEM_BOND_UDEF_STEREO_COUNT>  (1) 
0

>  <PUBCHEM_ISOTOPIC_ATOM_COUNT>  (1) 
0

>  <PUBCHEM_COMPONENT_COUNT>  (1) 
1

>  <PUBCHEM_CACTVS_TAUTO_COUNT>  (1) 
2

>  <PUBCHEM_CONFORMER_ID>  (1) 
0000120700000002

>  <PUBCHEM_MMFF94_ENERGY>  (1) 
102.2993

>  <PUBCHEM_FEATURE_SELFOVERLAP>  (1) 
45.775

>  <PUBCHEM_SHAPE_FINGERPRINT>  (1) 
10439779 11 18337666521141540352
10595046 47 18412262839670796270
10670039 82 18410007745337828176
11101153 10 18335702767039519285
12107698 1 18201438129048269805
12788726 201 18340476821195771739
13617811 41 18191294073878891929
13673619 4 17203322364754730755
13690498 29 18130779071383754951
14118638 360 18409449215428065180
14202776 33 18201998833313543975
14347332 77 18272086128100145629
14394314 77 18408609167144065077
14784336 7 18195245744307066981
14790565 3 18336268929427842760
14856354 85 16343430596080876047
15064981 194 17970929961924407310
15082195 135 18191567697396552399
15183329 4 18334013908989974474
15276724 80 18413389852116567591
15289351 153 18336261332844298392
15320295 44 18342462521577517284
15351339 4 18409161130496946560
15538507 32 18126846233870201745
15575132 122 18411976954105648679
15705408 1 17620438714016808957
1577012 14 18262520287139716346
20554085 129 14490736980232737979
21049683 271 18191299589286455975
21120745 212 18342175575435041601
21796203 349 18051151469303175675
23522609 53 17986978360549536305
249057 25 18115854244497789770
2838139 119 18334297548435329002
335352 9 18260833727071871798
3552219 110 18201452415100747643
4197921 191 18334580187311494068
4258327 124 18190740835263388229
44317340 157 18343015597269145776
497634 4 18334851685105023975
5081480 168 16343693344261270193
550186 72 18409449185374213761
6371009 1 18261106435055291852
7237137 82 18343862200074660025

>  <PUBCHEM_SHAPE_MULTIPOLES>  (1) 
632.75
19.99
4.69
1.31
17.74
3.85
0.13
-0.18
-5.6
-2.96
0.41
-1.25
-0.01
-3.69

>  <PUBCHEM_SHAPE_SELFOVERLAP>  (1) 
1376.781

>  <PUBCHEM_SHAPE_VOLUME>  (1) 
343.1

>  <PUBCHEM_COORDINATE_TYPE>  (1) 
2
5
10

$$$$
