46150
     RDKit          3D

 27 28  0  0  1  0  0  0  0  0999 V2000
    3.0568   -1.4009   -0.8611 O   0  0  0  0  0  0  0  0  0  0  0  0
   -4.4058   -0.8308    1.1037 O   0  0  0  0  0  0  0  0  0  0  0  0
    1.7839    0.4547   -0.4522 O   0  0  0  0  0  0  0  0  0  0  0  0
    6.0861    0.5613    0.0220 N   0  0  0  0  0  0  0  0  0  0  0  0
    0.8956   -1.7110   -0.3124 N   0  0  0  0  0  0  0  0  0  0  0  0
    7.0086    0.4280    1.1584 C   0  0  0  0  0  0  0  0  0  0  0  0
    5.6517    1.9548   -0.1491 C   0  0  0  0  0  0  0  0  0  0  0  0
    8.2481    1.3039    0.9686 C   0  0  0  0  0  0  0  0  0  0  0  0
    6.8467    2.8806   -0.3814 C   0  0  0  0  0  0  0  0  0  0  0  0
    7.8670    2.7629    0.7453 C   0  0  0  0  0  0  0  0  0  0  0  0
    4.9297   -0.3173    0.1961 C   0  0  0  0  0  0  0  0  0  0  0  0
    4.1842   -0.5559   -1.1192 C   0  0  0  0  0  0  0  0  0  0  0  0
    5.0409   -1.2411   -2.1763 C   0  0  0  0  0  0  0  0  0  0  0  0
    1.8906   -0.7631   -0.5309 C   0  0  0  0  0  0  0  0  0  0  0  0
   -7.1808    1.4329   -0.0330 C   0  0  0  0  0  0  0  0  0  0  0  0
   -8.6944    1.2744   -0.2016 C   0  0  0  0  0  0  0  0  0  0  0  0
   -6.4893    0.1663    0.4686 C   0  0  0  0  0  0  0  0  0  0  0  0
   -9.3829    2.5346   -0.7271 C   0  0  0  0  0  0  0  0  0  0  0  0
   -4.9928    0.3818    0.6519 C   0  0  0  0  0  0  0  0  0  0  0  0
   -0.4397   -1.5052    0.0435 C   0  0  0  0  0  0  0  0  0  0  0  0
   -1.3062   -2.5833    0.2237 C   0  0  0  0  0  0  0  0  0  0  0  0
   -3.0992   -1.0532    0.7543 C   0  0  0  0  0  0  0  0  0  0  0  0
  -10.8907    2.3496   -0.8079 C   0  0  0  0  0  0  0  0  0  0  0  0
   -2.6360   -2.3572    0.5792 C   0  0  0  0  0  0  0  0  0  0  0  0
   -0.9024   -0.2009    0.2192 C   0  0  0  0  0  0  0  0  0  0  0  0
   -2.2324    0.0249    0.5743 C   0  0  0  0  0  0  0  0  0  0  0  0
   -0.8373   -3.9906    0.0434 C   0  0  0  0  0  0  0  0  0  0  0  0
  1 12  1  0
  1 14  1  0
  2 19  1  0
  2 22  1  0
  3 14  2  0
  4  6  1  0
  4  7  1  0
  4 11  1  0
  5 14  1  0
  5 20  1  0
  6  8  1  0
  7  9  1  0
  8 10  1  0
  9 10  1  0
 11 12  1  0
 12 13  1  0
 15 16  1  0
 15 17  1  0
 16 18  1  0
 17 19  1  0
 18 23  1  0
 20 21  2  0
 20 25  1  0
 21 24  1  0
 21 27  1  0
 22 24  2  0
 22 26  1  0
 25 26  2  0
M  END
>  <PUBCHEM_COMPOUND_CID>  (1) 
46150

>  <PUBCHEM_CONFORMER_RMSD>  (1) 
1.2

>  <PUBCHEM_CONFORMER_DIVERSEORDER>  (1) 
1
18
39
54
75
72
16
56
73
59
78
58
21
46
71
51
32
22
25
74
6
31
63
64
26
11
30
7
3
29
34
70
47
76
49
43
68
65
42
44
24
17
61
53
62
8
66
27
20
35
40
4
37
23
14
10
67
45
15
9
57
38
52
48
60
36
50
2
69
19
41
13
55
12
33
28
77
5

>  <PUBCHEM_MMFF94_PARTIAL_CHARGES>  (1) 
22
1 -0.43
11 0.27
12 0.28
14 0.78
19 0.28
2 -0.36
20 0.12
21 -0.14
22 0.08
24 -0.15
25 -0.15
26 -0.15
27 0.14
3 -0.57
4 -0.81
5 -0.55
54 0.37
58 0.15
59 0.15
6 0.27
60 0.15
7 0.27

>  <PUBCHEM_EFFECTIVE_ROTOR_COUNT>  (1) 
13.2

>  <PUBCHEM_PHARMACOPHORE_FEATURES>  (1) 
8
1 2 acceptor
1 23 hydrophobe
1 3 acceptor
1 4 cation
1 5 donor
4 15 16 17 18 hydrophobe
6 20 21 22 24 25 26 rings
6 4 6 7 8 9 10 rings

>  <PUBCHEM_HEAVY_ATOM_COUNT>  (1) 
27

>  <PUBCHEM_ATOM_DEF_STEREO_COUNT>  (1) 
0

>  <PUBCHEM_ATOM_UDEF_STEREO_COUNT>  (1) 
1

>  <PUBCHEM_BOND_DEF_STEREO_COUNT>  (1) 
0

>  <PUBCHEM_BOND_UDEF_STEREO_COUNT>  (1) 
0

>  <PUBCHEM_ISOTOPIC_ATOM_COUNT>  (1) 
0

>  <PUBCHEM_COMPONENT_COUNT>  (1) 
1

>  <PUBCHEM_CACTVS_TAUTO_COUNT>  (1) 
2

>  <PUBCHEM_CONFORMER_ID>  (1) 
0000B44600000001

>  <PUBCHEM_MMFF94_ENERGY>  (1) 
48.6676

>  <PUBCHEM_FEATURE_SELFOVERLAP>  (1) 
40.594

>  <PUBCHEM_SHAPE_FINGERPRINT>  (1) 
10 15 18262807379706634586
10029044 110 18343022156444388641
10209105 3 9511471000842139497
10280341 67 17895748488592406133
10835480 77 18201726171303873306
11607047 141 17896031058489891146
125118 31 18334862740288027060
12539745 222 11097849676285664135
12838862 33 18113892742235563525
13685833 64 12179836230795997322
13782708 43 11891324405179046050
14040221 304 18059853931615435325
14344974 52 18410853266824433557
15274700 259 18337662045527349605
15840311 113 18187081711525223034
16991971 28 10375865273862887229
17134984 74 10735888262146502180
1818759 1 11527942370994181037
195137 95 18186515484654244453
20105231 36 9367345938051102473
2026 5 7853314024737229168
20554085 129 18272640230131105931
20721686 146 18269278023354672692
21033648 29 18186804685928915759
21130971 5 11530751571463497480
21150785 3 14405188374068717322
21585481 151 8862935092490408069
21585482 111 18266180711815700628
21792934 111 18260828168603364900
21859007 373 18186798054409668740
22899556 105 10951507984952085060
23569943 247 10301889019118564396
255183 451 11743827067886715187
2835820 25 15285908127958723829
306946 40 18410567380093838177
312425 54 17604426418754953434
3918712 181 18411133624081395625
4403749 210 18337676412398553619
465052 167 12757417385759341818
5283384 27 18413389839110313657
54039377 194 10375868593988892281
5470011 282 11959728274500704376
6327066 14 18412826897810500791
636775 72 18335138658210553085
636775 8 10015586124776834393
9995097 26 10447923984038476352

>  <PUBCHEM_SHAPE_MULTIPOLES>  (1) 
528.08
32
3.56
1.15
42.2
0.94
-0.34
-40.97
-1.58
0.6
-0.19
-1.25
0.14
3.34

>  <PUBCHEM_SHAPE_SELFOVERLAP>  (1) 
1058.14

>  <PUBCHEM_SHAPE_VOLUME>  (1) 
312.1

>  <PUBCHEM_COORDINATE_TYPE>  (1) 
2
5
10

$$$$
