46151
     RDKit          3D

 34 37  0  0  1  0  0  0  0  0999 V2000
   -0.3226   -1.8917    1.8553 O   0  0  0  0  0  0  0  0  0  0  0  0
    2.0502   -3.1903    1.4469 O   0  0  0  0  0  0  0  0  0  0  0  0
    3.1888   -3.2517   -1.0714 O   0  0  0  0  0  0  0  0  0  0  0  0
   -6.0640    0.1117    0.8964 O   0  0  0  0  0  0  0  0  0  0  0  0
    1.2199    3.5705   -1.5377 O   0  0  0  0  0  0  0  0  0  0  0  0
   -4.3658    2.1682    1.6535 O   0  0  0  0  0  0  0  0  0  0  0  0
    0.4580    1.5825   -0.6203 N   0  0  0  0  0  0  0  0  0  0  0  0
   -0.7678    1.5042   -1.3917 C   0  0  0  0  0  0  0  0  0  0  0  0
   -0.5329    0.8908   -2.7909 C   0  0  0  0  0  0  0  0  0  0  0  0
   -0.5296   -0.6386   -2.9133 C   0  0  0  0  0  0  0  0  0  0  0  0
   -1.8568    0.8494   -0.5364 C   0  0  0  0  0  0  0  0  0  0  0  0
    0.1429   -1.3365   -1.7606 C   0  0  0  0  0  0  0  0  0  0  0  0
   -0.4487   -1.3119   -0.4801 C   0  0  0  0  0  0  0  0  0  0  0  0
   -1.7419   -0.5946   -0.2765 C   0  0  0  0  0  0  0  0  0  0  0  0
    0.2040   -1.9348    0.5954 C   0  0  0  0  0  0  0  0  0  0  0  0
    1.3659   -1.9945   -1.9437 C   0  0  0  0  0  0  0  0  0  0  0  0
   -2.7970    1.6583   -0.0142 C   0  0  0  0  0  0  0  0  0  0  0  0
   -2.7650   -1.4036    0.0590 C   0  0  0  0  0  0  0  0  0  0  0  0
    1.4206   -2.5875    0.3978 C   0  0  0  0  0  0  0  0  0  0  0  0
    1.9991   -2.6188   -0.8692 C   0  0  0  0  0  0  0  0  0  0  0  0
    1.3550    2.6250   -0.7654 C   0  0  0  0  0  0  0  0  0  0  0  0
   -3.9542    1.3321    0.8512 C   0  0  0  0  0  0  0  0  0  0  0  0
   -4.1545   -1.0839    0.2527 C   0  0  0  0  0  0  0  0  0  0  0  0
   -4.7022    0.0708    0.6408 C   0  0  0  0  0  0  0  0  0  0  0  0
    2.5755    2.5456    0.0780 C   0  0  0  0  0  0  0  0  0  0  0  0
    0.0707   -0.7994    2.6809 C   0  0  0  0  0  0  0  0  0  0  0  0
    3.2151    3.7143    0.4356 C   0  0  0  0  0  0  0  0  0  0  0  0
    3.0298    1.3058    0.4771 C   0  0  0  0  0  0  0  0  0  0  0  0
    1.7344   -4.5588    1.6905 C   0  0  0  0  0  0  0  0  0  0  0  0
    4.3723   -2.4723   -0.9120 C   0  0  0  0  0  0  0  0  0  0  0  0
    4.3608    3.6400    1.2276 C   0  0  0  0  0  0  0  0  0  0  0  0
    4.1754    1.2315    1.2693 C   0  0  0  0  0  0  0  0  0  0  0  0
   -6.7761    0.4697   -0.2691 C   0  0  0  0  0  0  0  0  0  0  0  0
    4.8409    2.3986    1.6445 C   0  0  0  0  0  0  0  0  0  0  0  0
  1 15  1  0
  1 26  1  0
  2 19  1  0
  2 29  1  0
  3 20  1  0
  3 30  1  0
  4 24  1  0
  4 33  1  0
  5 21  2  0
  6 22  2  0
  7  8  1  0
  7 21  1  0
  8  9  1  0
  8 11  1  0
  9 10  1  0
 10 12  1  0
 11 14  1  0
 11 17  2  0
 12 13  2  0
 12 16  1  0
 13 14  1  0
 13 15  1  0
 14 18  2  0
 15 19  2  0
 16 20  2  0
 17 22  1  0
 18 23  1  0
 19 20  1  0
 21 25  1  0
 22 24  1  0
 23 24  2  0
 25 27  2  0
 25 28  1  0
 27 31  1  0
 28 32  2  0
 31 34  2  0
 32 34  1  0
M  END
>  <PUBCHEM_COMPOUND_CID>  (1) 
46151

>  <PUBCHEM_CONFORMER_RMSD>  (1) 
1

>  <PUBCHEM_CONFORMER_DIVERSEORDER>  (1) 
1
2
7
5
3
15
8
10
11
4
13
6
14
9
12

>  <PUBCHEM_MMFF94_PARTIAL_CHARGES>  (1) 
43
1 -0.36
10 0.14
11 -0.14
12 -0.14
13 0.03
14 -0.03
15 0.08
16 -0.15
17 -0.14
18 -0.15
19 0.08
2 -0.36
20 0.08
21 0.54
22 0.54
23 -0.15
24 0.09
25 0.09
26 0.28
27 -0.15
28 -0.15
29 0.28
3 -0.36
30 0.28
31 -0.15
32 -0.15
33 0.28
34 -0.15
4 -0.36
40 0.37
41 0.15
42 0.15
43 0.15
44 0.15
48 0.15
49 0.15
5 -0.57
56 0.15
57 0.15
6 -0.57
61 0.15
7 -0.73
8 0.44

>  <PUBCHEM_EFFECTIVE_ROTOR_COUNT>  (1) 
7.6

>  <PUBCHEM_PHARMACOPHORE_FEATURES>  (1) 
11
1 1 acceptor
1 2 acceptor
1 3 acceptor
1 4 acceptor
1 5 acceptor
1 6 acceptor
1 7 donor
6 12 13 15 16 19 20 rings
6 25 27 28 31 32 34 rings
7 11 14 17 18 22 23 24 rings
7 8 9 10 11 12 13 14 rings

>  <PUBCHEM_HEAVY_ATOM_COUNT>  (1) 
34

>  <PUBCHEM_ATOM_DEF_STEREO_COUNT>  (1) 
1

>  <PUBCHEM_ATOM_UDEF_STEREO_COUNT>  (1) 
0

>  <PUBCHEM_BOND_DEF_STEREO_COUNT>  (1) 
0

>  <PUBCHEM_BOND_UDEF_STEREO_COUNT>  (1) 
0

>  <PUBCHEM_ISOTOPIC_ATOM_COUNT>  (1) 
0

>  <PUBCHEM_COMPONENT_COUNT>  (1) 
1

>  <PUBCHEM_CACTVS_TAUTO_COUNT>  (1) 
2

>  <PUBCHEM_CONFORMER_ID>  (1) 
0000B44700000001

>  <PUBCHEM_MMFF94_ENERGY>  (1) 
154.4188

>  <PUBCHEM_FEATURE_SELFOVERLAP>  (1) 
55.856

>  <PUBCHEM_SHAPE_FINGERPRINT>  (1) 
10764073 3 17458891725873905115
11578080 2 17459739320759083261
12156800 1 14999420640465973064
12422481 6 18261944249624313792
12633257 1 17677607734402334936
12741549 16 17342931538708792834
12788726 201 17400095079918556522
133893 2 17981849074349653510
14787075 74 17971214559183963526
14955137 171 17843132406930676014
15775530 1 17898277317189492637
17980427 23 17272303340104607465
20600515 1 17480298964254276897
20691752 17 17676499315070032463
22182313 1 17749658607327803877
22223350 30 17822307815230026906
23419403 2 18188481376810176573
23559900 14 18261410956646820959
23728640 28 17764021772228589256
244849 19 17969203561454926789
3411729 13 18343303665189551809
3493558 16 18273222988383304330
392239 28 18117569422528351762
469060 322 14420912618833259336
5104073 3 18198364913620274241
5171179 24 18265890251144265189
5265222 85 18052827141844916596
5895379 119 16984650190726061017
6086070 43 18049432648564046605
6287921 2 18342172280335120010
9981440 41 18124321772510836187

>  <PUBCHEM_SHAPE_MULTIPOLES>  (1) 
659.51
9.77
5.14
2.32
10.56
1.54
-0.63
-6.48
4.42
-7.61
1.13
-0.45
0.61
0.84

>  <PUBCHEM_SHAPE_SELFOVERLAP>  (1) 
1432.427

>  <PUBCHEM_SHAPE_VOLUME>  (1) 
355.8

>  <PUBCHEM_COORDINATE_TYPE>  (1) 
2
5
10

$$$$
