4616
     RDKit          3D

 20 22  0  0  1  0  0  0  0  0999 V2000
   -0.1439    4.4764   -1.0800 Cl  0  0  0  0  0  0  0  0  0  0  0  0
    2.0677   -3.1800   -1.3667 O   0  0  0  0  0  0  0  0  0  0  0  0
    2.9712   -2.6678    1.0456 O   0  0  0  0  0  0  0  0  0  0  0  0
    2.4790   -0.4398    0.9569 N   0  0  0  0  0  0  0  0  0  0  0  0
    0.2518   -1.7970   -0.5518 N   0  0  0  0  0  0  0  0  0  0  0  0
    0.5409    0.6254   -0.1840 C   0  0  0  0  0  0  0  0  0  0  0  0
   -0.2462   -0.6403   -0.2772 C   0  0  0  0  0  0  0  0  0  0  0  0
    1.7747    0.6859    0.4829 C   0  0  0  0  0  0  0  0  0  0  0  0
   -1.7114   -0.5938   -0.0029 C   0  0  0  0  0  0  0  0  0  0  0  0
    1.6704   -1.9165   -0.8383 C   0  0  0  0  0  0  0  0  0  0  0  0
   -0.0366    1.8043   -0.6836 C   0  0  0  0  0  0  0  0  0  0  0  0
    2.3563    1.9383    0.7308 C   0  0  0  0  0  0  0  0  0  0  0  0
    2.4037   -1.7318    0.4791 C   0  0  0  0  0  0  0  0  0  0  0  0
    0.5789    3.0375   -0.4725 C   0  0  0  0  0  0  0  0  0  0  0  0
    1.7655    3.1065    0.2493 C   0  0  0  0  0  0  0  0  0  0  0  0
   -2.2128    0.3472    0.8874 C   0  0  0  0  0  0  0  0  0  0  0  0
   -2.5575   -1.4916   -0.6414 C   0  0  0  0  0  0  0  0  0  0  0  0
   -3.5832    0.3910    1.1439 C   0  0  0  0  0  0  0  0  0  0  0  0
   -3.9280   -1.4476   -0.3849 C   0  0  0  0  0  0  0  0  0  0  0  0
   -4.4407   -0.5063    0.5077 C   0  0  0  0  0  0  0  0  0  0  0  0
  1 14  1  0
  2 10  1  0
  3 13  2  0
  4  8  1  0
  4 13  1  0
  5  7  2  0
  5 10  1  0
  6  7  1  0
  6  8  2  0
  6 11  1  0
  7  9  1  0
  8 12  1  0
  9 16  2  0
  9 17  1  0
 10 13  1  0
 11 14  2  0
 12 15  2  0
 14 15  1  0
 16 18  1  0
 17 19  2  0
 18 20  2  0
 19 20  1  0
M  END
>  <PUBCHEM_COMPOUND_CID>  (1) 
4616

>  <PUBCHEM_CONFORMER_RMSD>  (1) 
0.6

>  <PUBCHEM_CONFORMER_DIVERSEORDER>  (1) 
1
2

>  <PUBCHEM_MMFF94_PARTIAL_CHARGES>  (1) 
30
1 -0.18
10 0.59
11 -0.15
12 -0.15
13 0.57
14 0.18
15 -0.15
16 -0.15
17 -0.15
18 -0.15
19 -0.15
2 -0.68
20 -0.15
22 0.37
23 0.15
24 0.15
25 0.15
26 0.15
27 0.15
28 0.15
29 0.15
3 -0.57
30 0.15
31 0.4
4 -0.55
5 -0.7
6 0.09
7 0.28
8 0.12
9 0.09

>  <PUBCHEM_EFFECTIVE_ROTOR_COUNT>  (1) 
1.4

>  <PUBCHEM_PHARMACOPHORE_FEATURES>  (1) 
8
1 2 acceptor
1 2 donor
1 3 acceptor
1 4 donor
1 5 acceptor
6 6 8 11 12 14 15 rings
6 9 16 17 18 19 20 rings
7 4 5 6 7 8 10 13 rings

>  <PUBCHEM_HEAVY_ATOM_COUNT>  (1) 
20

>  <PUBCHEM_ATOM_DEF_STEREO_COUNT>  (1) 
0

>  <PUBCHEM_ATOM_UDEF_STEREO_COUNT>  (1) 
1

>  <PUBCHEM_BOND_DEF_STEREO_COUNT>  (1) 
0

>  <PUBCHEM_BOND_UDEF_STEREO_COUNT>  (1) 
0

>  <PUBCHEM_ISOTOPIC_ATOM_COUNT>  (1) 
0

>  <PUBCHEM_COMPONENT_COUNT>  (1) 
1

>  <PUBCHEM_CACTVS_TAUTO_COUNT>  (1) 
3

>  <PUBCHEM_CONFORMER_ID>  (1) 
0000120800000001

>  <PUBCHEM_MMFF94_ENERGY>  (1) 
73.6694

>  <PUBCHEM_FEATURE_SELFOVERLAP>  (1) 
40.646

>  <PUBCHEM_SHAPE_FINGERPRINT>  (1) 
10090160 65 17834103531166213911
10382601 240 18409732897785630416
108634 29 17689984648927594085
11578080 2 17386555856852619100
11640471 11 17914627282959376833
116883 192 18194114114765937661
12035758 1 17906731402108162865
12553582 1 18338516335469430598
12716301 132 17615112292258659240
12788726 201 17901403194450538498
12954195 1 16172582191103537820
13134695 92 18261103080469036277
13140716 1 17905325478617327369
13681431 1 18263946413048357756
14178342 30 18123458642734399083
14790565 3 18192155017232658636
14844126 61 17541638540193154218
15420108 30 18129648828985199698
15490181 8 18051139390772866271
16945 1 18116986891449626329
17357779 13 18124583185500160965
17492 89 18342742948915173087
1813 80 18339372846305567310
19591789 44 18337951320127142524
20559304 39 18341338880733554641
20645476 183 17400646411673998237
20739085 24 18409728508260683112
21452121 99 17398667900982271842
21524375 3 17836369619892792805
22182313 1 17626655008883944478
2255824 54 18194128631623379797
23419403 2 17897416494163083180
23559900 14 17917438613948528383
2748010 2 17838884946294212686
3060560 45 18121217838311570868
3091708 16 9358432184093228954
352729 6 17475795828108704174
4409770 3 17401498047911911111
474 4 18120936372014348473
5283268 108 18265904553284841785
5312544 6 17689149432792544199
6992083 37 18127706928436923873
7097593 13 18341617022989769035
7364860 26 18270688669915861359
81228 2 17831870048754582001
8272917 22 18338519763200933783
90316 7 18122061996763748451

>  <PUBCHEM_SHAPE_MULTIPOLES>  (1) 
391.76
5.76
4.51
1.11
7.47
1.73
0.01
-0.46
-1.49
-4.84
1.55
-0.08
-0.11
-0.64

>  <PUBCHEM_SHAPE_SELFOVERLAP>  (1) 
854.282

>  <PUBCHEM_SHAPE_VOLUME>  (1) 
211.6

>  <PUBCHEM_COORDINATE_TYPE>  (1) 
2
5
10

$$$$
