46165
     RDKit          3D

 30 32  0  0  1  0  0  0  0  0999 V2000
    7.8056   -1.0305   -0.2420 F   0  0  0  0  0  0  0  0  0  0  0  0
    6.4081   -1.1646   -1.8951 F   0  0  0  0  0  0  0  0  0  0  0  0
    7.0119    0.7835   -1.1411 F   0  0  0  0  0  0  0  0  0  0  0  0
   -3.6636    3.6404   -0.5518 O   0  0  0  0  0  0  0  0  0  0  0  0
   -4.1493    0.9166   -0.2754 O   0  0  0  0  0  0  0  0  0  0  0  0
   -3.1826   -0.7277   -2.1637 O   0  0  0  0  0  0  0  0  0  0  0  0
   -0.6639    1.4703   -0.3425 N   0  0  0  0  0  0  0  0  0  0  0  0
    1.9650    0.6019    0.3600 N   0  0  0  0  0  0  0  0  0  0  0  0
    0.2626    0.9961   -1.3780 C   0  0  0  0  0  0  0  0  0  0  0  0
    0.0832    2.1495    0.7229 C   0  0  0  0  0  0  0  0  0  0  0  0
    1.2789    0.0110   -0.7959 C   0  0  0  0  0  0  0  0  0  0  0  0
    1.0947    1.2035    1.3749 C   0  0  0  0  0  0  0  0  0  0  0  0
   -1.6634    2.3678   -0.9208 C   0  0  0  0  0  0  0  0  0  0  0  0
   -2.7112    2.8009    0.1074 C   0  0  0  0  0  0  0  0  0  0  0  0
    3.2013    0.0648    0.7360 C   0  0  0  0  0  0  0  0  0  0  0  0
   -3.4546    1.6286    0.7439 C   0  0  0  0  0  0  0  0  0  0  0  0
    4.2917    0.0573   -0.1569 C   0  0  0  0  0  0  0  0  0  0  0  0
    3.3934   -0.4851    2.0193 C   0  0  0  0  0  0  0  0  0  0  0  0
    5.5239   -0.4779    0.2185 C   0  0  0  0  0  0  0  0  0  0  0  0
    4.6255   -1.0202    2.3947 C   0  0  0  0  0  0  0  0  0  0  0  0
    5.6908   -1.0166    1.4943 C   0  0  0  0  0  0  0  0  0  0  0  0
    6.6628   -0.4750   -0.7439 C   0  0  0  0  0  0  0  0  0  0  0  0
   -4.8629   -0.1832    0.1197 C   0  0  0  0  0  0  0  0  0  0  0  0
   -4.5674   -1.4428   -0.3931 C   0  0  0  0  0  0  0  0  0  0  0  0
   -5.8899   -0.0218    1.0453 C   0  0  0  0  0  0  0  0  0  0  0  0
   -5.3052   -2.5509    0.0234 C   0  0  0  0  0  0  0  0  0  0  0  0
   -6.6276   -1.1299    1.4619 C   0  0  0  0  0  0  0  0  0  0  0  0
   -3.4953   -1.6284   -1.3612 C   0  0  0  0  0  0  0  0  0  0  0  0
   -6.3354   -2.3944    0.9509 C   0  0  0  0  0  0  0  0  0  0  0  0
   -2.7271   -2.9435   -1.4117 C   0  0  0  0  0  0  0  0  0  0  0  0
  1 22  1  0
  2 22  1  0
  3 22  1  0
  4 14  1  0
  5 16  1  0
  5 23  1  0
  6 28  2  0
  7  9  1  0
  7 10  1  0
  7 13  1  0
  8 11  1  0
  8 12  1  0
  8 15  1  0
  9 11  1  0
 10 12  1  0
 13 14  1  0
 14 16  1  0
 15 17  2  0
 15 18  1  0
 17 19  1  0
 18 20  2  0
 19 21  2  0
 19 22  1  0
 20 21  1  0
 23 24  2  0
 23 25  1  0
 24 26  1  0
 24 28  1  0
 25 27  2  0
 26 29  2  0
 27 29  1  0
 28 30  1  0
M  END
>  <PUBCHEM_COMPOUND_CID>  (1) 
46165

>  <PUBCHEM_CONFORMER_RMSD>  (1) 
1.2

>  <PUBCHEM_CONFORMER_DIVERSEORDER>  (1) 
2
137
45
108
136
180
17
105
189
39
13
214
101
30
208
43
196
52
124
127
188
22
68
135
51
190
7
158
54
23
37
33
149
4
146
118
99
207
20
147
63
110
144
122
26
117
161
164
159
154
18
41
179
138
155
87
176
123
115
77
192
57
86
181
166
185
202
83
111
48
211
100
169
76
19
162
120
109
165
140
150
133
114
50
191
84
25
197
53
153
171
82
15
28
129
97
96
62
71
177
116
56
156
46
206
119
172
132
148
69
35
8
24
126
85
128
163
209
27
198
106
14
64
31
55
88
200
89
58
193
143
6
134
186
151
173
195
203
215
139
59
212
34
75
216
61
112
152
178
49
11
210
121
142
199
38
170
194
9
168
10
102
130
36
182
78
205
29
94
32
65
175
145
16
44
184
93
21
95
92
80
70
67
12
204
91
125
141
157
167
66
3
187
42
47
104
113
74
90
174
131
1
73
183
98
103
60
201
79
81
107
72
40
213
5
160

>  <PUBCHEM_MMFF94_PARTIAL_CHARGES>  (1) 
39
1 -0.34
10 0.27
11 0.37
12 0.37
13 0.27
14 0.28
15 0.1
16 0.28
17 -0.15
18 -0.15
19 -0.14
2 -0.34
20 -0.15
21 -0.15
22 1.16
23 0.08
24 0.09
25 -0.15
26 -0.15
27 -0.15
28 0.42
29 -0.15
3 -0.34
30 0.06
4 -0.68
44 0.15
45 0.15
46 0.4
47 0.15
48 0.15
49 0.15
5 -0.36
50 0.15
51 0.15
52 0.15
6 -0.57
7 -0.81
8 -0.84
9 0.27

>  <PUBCHEM_EFFECTIVE_ROTOR_COUNT>  (1) 
9.2

>  <PUBCHEM_PHARMACOPHORE_FEATURES>  (1) 
9
1 4 acceptor
1 4 donor
1 5 acceptor
1 6 acceptor
1 7 cation
1 8 cation
6 15 17 18 19 20 21 rings
6 23 24 25 26 27 29 rings
6 7 8 9 10 11 12 rings

>  <PUBCHEM_HEAVY_ATOM_COUNT>  (1) 
30

>  <PUBCHEM_ATOM_DEF_STEREO_COUNT>  (1) 
0

>  <PUBCHEM_ATOM_UDEF_STEREO_COUNT>  (1) 
1

>  <PUBCHEM_BOND_DEF_STEREO_COUNT>  (1) 
0

>  <PUBCHEM_BOND_UDEF_STEREO_COUNT>  (1) 
0

>  <PUBCHEM_ISOTOPIC_ATOM_COUNT>  (1) 
0

>  <PUBCHEM_COMPONENT_COUNT>  (1) 
1

>  <PUBCHEM_CACTVS_TAUTO_COUNT>  (1) 
2

>  <PUBCHEM_CONFORMER_ID>  (1) 
0000B45500000002

>  <PUBCHEM_MMFF94_ENERGY>  (1) 
91.4545

>  <PUBCHEM_FEATURE_SELFOVERLAP>  (1) 
45.685

>  <PUBCHEM_SHAPE_FINGERPRINT>  (1) 
10928967 22 18116408492831898259
11135609 12 18130516279161256812
11476731 47 16807309130942296364
11497681 19 17894631410289380338
11524674 6 17060336314832218927
117089 54 17972890425917943227
12107183 9 12463569561092636504
12166972 35 17386007312272171053
12422481 6 17775287200862947431
12522641 33 18048869703576512917
12633257 1 17489305352060710233
13690498 29 18408039602339263917
13782708 43 18343297055234727450
14202776 33 18041282062945700348
14767858 380 17312827078429124104
14856354 85 18339643442304444503
14955137 171 17489583472373103096
15183329 4 18410006654485057490
15328829 1 18041006167473664550
15348495 7 16415188035706779002
15352257 5 17988647359429913654
15537594 2 18335412465636328131
15685185 35 17318186274582628380
15799311 1 18339929217028519546
16110190 28 18201156671757427569
18608769 82 18060698391010838862
18927931 339 18412538813137181805
19841028 212 18122054580284318683
21796203 349 18047785782056899329
2303208 19 17703785895484793488
23522609 53 17897470323279354380
2838139 119 9583514300584951571
397830 11 18058998580061876048
4015057 19 16009042674118198660
44880168 125 17775845709409371638
474113 269 18198052789910816263
484985 159 18334282172916451255
497634 4 17095520678347011501
504843 32 17825940426451377237
54039377 194 18114473339845587627
6691757 9 18340208463471546713
6700243 42 18124906502186069796
7970288 3 18187641470766512099
9896288 288 18199474277523322705
999808 66 18272656739910907871

>  <PUBCHEM_SHAPE_MULTIPOLES>  (1) 
567.99
19.95
3.02
1.84
18.64
1.3
0.17
-12.13
1.87
-5.39
-0.51
1.15
-0.69
-0.28

>  <PUBCHEM_SHAPE_SELFOVERLAP>  (1) 
1202.515

>  <PUBCHEM_SHAPE_VOLUME>  (1) 
319.1

>  <PUBCHEM_COORDINATE_TYPE>  (1) 
2
5
10

$$$$
