46164
     RDKit          3D

 27 29  0  0  1  0  0  0  0  0999 V2000
   -2.4077   -4.2073   -0.0633 O   0  0  0  0  0  0  0  0  0  0  0  0
   -3.5604   -1.6937   -0.5225 O   0  0  0  0  0  0  0  0  0  0  0  0
   -4.6923    3.9356    1.1303 O   0  0  0  0  0  0  0  0  0  0  0  0
    0.5648   -2.0896    0.5932 N   0  0  0  0  0  0  0  0  0  0  0  0
    2.9911   -0.6621    0.1093 N   0  0  0  0  0  0  0  0  0  0  0  0
    0.9984   -1.8048   -0.7800 C   0  0  0  0  0  0  0  0  0  0  0  0
    1.7358   -2.3036    1.4524 C   0  0  0  0  0  0  0  0  0  0  0  0
    1.8727   -0.5495   -0.8319 C   0  0  0  0  0  0  0  0  0  0  0  0
    2.6337   -1.0645    1.4754 C   0  0  0  0  0  0  0  0  0  0  0  0
   -0.3131   -3.2589    0.6221 C   0  0  0  0  0  0  0  0  0  0  0  0
   -1.5978   -3.0338   -0.1788 C   0  0  0  0  0  0  0  0  0  0  0  0
    4.1280    0.1350   -0.0652 C   0  0  0  0  0  0  0  0  0  0  0  0
   -2.4092   -1.8336    0.3044 C   0  0  0  0  0  0  0  0  0  0  0  0
    4.0363    1.4102   -0.6581 C   0  0  0  0  0  0  0  0  0  0  0  0
    5.3989   -0.3133    0.3472 C   0  0  0  0  0  0  0  0  0  0  0  0
    5.1695    2.2047   -0.8319 C   0  0  0  0  0  0  0  0  0  0  0  0
    6.5321    0.4813    0.1734 C   0  0  0  0  0  0  0  0  0  0  0  0
    6.4173    1.7403   -0.4161 C   0  0  0  0  0  0  0  0  0  0  0  0
   -4.0541   -0.4264   -0.6804 C   0  0  0  0  0  0  0  0  0  0  0  0
    7.6290    2.5894   -0.6029 C   0  0  0  0  0  0  0  0  0  0  0  0
   -3.9027    0.5048    0.3415 C   0  0  0  0  0  0  0  0  0  0  0  0
   -4.7038   -0.0822   -1.8610 C   0  0  0  0  0  0  0  0  0  0  0  0
   -4.4068    1.7955    0.1807 C   0  0  0  0  0  0  0  0  0  0  0  0
   -5.2077    1.2085   -2.0217 C   0  0  0  0  0  0  0  0  0  0  0  0
   -5.0593    2.1472   -1.0009 C   0  0  0  0  0  0  0  0  0  0  0  0
   -4.2524    2.7743    1.2453 C   0  0  0  0  0  0  0  0  0  0  0  0
   -3.5403    2.3965    2.5395 C   0  0  0  0  0  0  0  0  0  0  0  0
  1 11  1  0
  2 13  1  0
  2 19  1  0
  3 26  2  0
  4  6  1  0
  4  7  1  0
  4 10  1  0
  5  8  1  0
  5  9  1  0
  5 12  1  0
  6  8  1  0
  7  9  1  0
 10 11  1  0
 11 13  1  0
 12 14  2  0
 12 15  1  0
 14 16  1  0
 15 17  2  0
 16 18  2  0
 17 18  1  0
 18 20  1  0
 19 21  2  0
 19 22  1  0
 21 23  1  0
 22 24  2  0
 23 25  2  0
 23 26  1  0
 24 25  1  0
 26 27  1  0
M  END
>  <PUBCHEM_COMPOUND_CID>  (1) 
46164

>  <PUBCHEM_CONFORMER_RMSD>  (1) 
1

>  <PUBCHEM_CONFORMER_DIVERSEORDER>  (1) 
1
134
93
65
159
282
281
62
289
255
171
77
70
152
288
219
157
286
97
259
305
298
37
110
164
276
6
252
19
183
191
132
26
83
114
14
271
234
168
300
85
299
156
89
91
222
254
172
161
116
129
128
143
72
56
190
248
229
253
76
113
98
296
127
90
122
46
80
5
136
184
203
278
94
81
34
165
275
287
64
182
126
138
92
236
71
11
163
303
117
175
213
250
137
215
160
13
204
290
44
108
131
144
107
49
218
24
244
115
54
88
39
302
112
47
216
186
261
109
260
139
103
274
284
59
28
84
192
30
55
238
145
41
130
270
240
277
119
306
225
150
22
96
140
170
263
57
228
68
74
214
256
223
221
173
9
266
20
51
258
151
58
297
247
251
8
195
188
210
17
27
279
241
162
63
100
45
202
42
135
193
301
33
154
185
111
52
201
48
35
66
12
53
273
118
4
207
18
180
99
153
142
147
217
73
189
294
36
75
101
307
148
178
82
67
166
69
38
105
235
231
291
125
149
212
269
293
187
10
176
133
224
120
124
15
32
95
246
79
179
233
211
155
87
167
121
205
61
169
25
285
245
220
86
304
267
7
199
280
206
78
43
198
208
209
21
230
102
226
237
16
23
174
295
141
60
239
265
262
50
2
268
106
200
181
264
123
196
283
243
194
29
257
177
146
227
249
40
242
197
292
104
3
31
272
232
158

>  <PUBCHEM_MMFF94_PARTIAL_CHARGES>  (1) 
36
1 -0.68
10 0.27
11 0.28
12 0.1
13 0.28
14 -0.15
15 -0.15
16 -0.15
17 -0.15
18 -0.14
19 0.08
2 -0.36
20 0.14
21 -0.15
22 -0.15
23 0.09
24 -0.15
25 -0.15
26 0.42
27 0.06
3 -0.57
4 -0.81
41 0.15
42 0.15
43 0.4
44 0.15
45 0.15
49 0.15
5 -0.84
50 0.15
51 0.15
52 0.15
6 0.27
7 0.27
8 0.37
9 0.37

>  <PUBCHEM_EFFECTIVE_ROTOR_COUNT>  (1) 
8.2

>  <PUBCHEM_PHARMACOPHORE_FEATURES>  (1) 
9
1 1 acceptor
1 1 donor
1 2 acceptor
1 3 acceptor
1 4 cation
1 5 cation
6 12 14 15 16 17 18 rings
6 19 21 22 23 24 25 rings
6 4 5 6 7 8 9 rings

>  <PUBCHEM_HEAVY_ATOM_COUNT>  (1) 
27

>  <PUBCHEM_ATOM_DEF_STEREO_COUNT>  (1) 
0

>  <PUBCHEM_ATOM_UDEF_STEREO_COUNT>  (1) 
1

>  <PUBCHEM_BOND_DEF_STEREO_COUNT>  (1) 
0

>  <PUBCHEM_BOND_UDEF_STEREO_COUNT>  (1) 
0

>  <PUBCHEM_ISOTOPIC_ATOM_COUNT>  (1) 
0

>  <PUBCHEM_COMPONENT_COUNT>  (1) 
1

>  <PUBCHEM_CACTVS_TAUTO_COUNT>  (1) 
2

>  <PUBCHEM_CONFORMER_ID>  (1) 
0000B45400000001

>  <PUBCHEM_MMFF94_ENERGY>  (1) 
89.7408

>  <PUBCHEM_FEATURE_SELFOVERLAP>  (1) 
45.677

>  <PUBCHEM_SHAPE_FINGERPRINT>  (1) 
100830 2 18339368448296337088
100830 39 18335983176858897046
10670039 82 18201433670871878769
10917259 69 18267029367482992540
11135609 187 18335693890023074965
11135609 201 18412272718417363611
11477941 20 17771054188191007655
12107183 9 18261661581464911778
12390115 104 18260834829855411790
12422481 6 16732698338002980318
13103583 49 11674882165000805255
14251764 75 18268437828407845865
14347329 18 18342171168091363874
14765038 42 18340217301495870057
14931854 50 18201709618816828541
15064981 113 17775283846689039094
15119646 57 17274277062688183097
15163728 17 18271815587820247759
15513586 35 17172110626375771701
155225 5 18412547604413867728
15685185 35 18410856569079836437
16728433 281 18269014093208901428
19303781 99 11455885858692068836
21585480 29 10954031437288937108
22864921 47 11887407829198160156
22956985 138 16456035129567225283
235170 7 15697415768832625687
2748736 6 18408878525758999136
2838139 119 18273493490225014360
312425 83 17344636937594681631
328310 18 17560815328513741233
397830 11 11098133431647123606
4144715 1 18188780560533952434
44426695 248 14634876387687699800
46194498 28 15481802714855831002
5104073 3 17385994114202154962
5372103 7 17387666381472705991
563151 74 16298659499882179233
57724786 102 18192993721075844243
5937810 71 18191885611752126428
6034566 193 18338521837902486913
6299153 45 18261383405001504706
6328613 192 18335418002550324708
636775 72 17973722778000778804
7808743 9 18410008857813595963

>  <PUBCHEM_SHAPE_MULTIPOLES>  (1) 
528.08
18
4.6
1.63
20.32
1.31
-0.39
-18.88
3.93
-3.92
-1.27
-2.41
-0.89
-2.82

>  <PUBCHEM_SHAPE_SELFOVERLAP>  (1) 
1108.737

>  <PUBCHEM_SHAPE_VOLUME>  (1) 
298.9

>  <PUBCHEM_COORDINATE_TYPE>  (1) 
2
5
10

$$$$
