46175
     RDKit          3D

 27 29  0  0  1  0  0  0  0  0999 V2000
   -5.0556   -1.6590   -1.4456 Cl  0  0  0  0  0  0  0  0  0  0  0  0
    2.6984   -3.6080    0.8282 O   0  0  0  0  0  0  0  0  0  0  0  0
    3.3148   -0.9021    0.6552 O   0  0  0  0  0  0  0  0  0  0  0  0
    4.3361   -0.8765   -1.8269 O   0  0  0  0  0  0  0  0  0  0  0  0
   -0.1308   -1.3470    0.0313 N   0  0  0  0  0  0  0  0  0  0  0  0
   -2.7764   -0.2701    0.0342 N   0  0  0  0  0  0  0  0  0  0  0  0
   -1.1041   -1.7695    1.0458 C   0  0  0  0  0  0  0  0  0  0  0  0
   -0.8192   -1.0659   -1.2347 C   0  0  0  0  0  0  0  0  0  0  0  0
   -2.1484   -0.6783    1.2946 C   0  0  0  0  0  0  0  0  0  0  0  0
   -1.8529    0.0493   -1.0616 C   0  0  0  0  0  0  0  0  0  0  0  0
    0.8918   -2.3751   -0.1582 C   0  0  0  0  0  0  0  0  0  0  0  0
    1.7033   -2.6215    1.1159 C   0  0  0  0  0  0  0  0  0  0  0  0
   -4.0199    0.3717    0.0543 C   0  0  0  0  0  0  0  0  0  0  0  0
    2.3990   -1.3679    1.6415 C   0  0  0  0  0  0  0  0  0  0  0  0
   -5.1568   -0.1622   -0.5894 C   0  0  0  0  0  0  0  0  0  0  0  0
   -4.1649    1.5967    0.7373 C   0  0  0  0  0  0  0  0  0  0  0  0
   -6.3836    0.5008   -0.5508 C   0  0  0  0  0  0  0  0  0  0  0  0
   -5.3917    2.2595    0.7758 C   0  0  0  0  0  0  0  0  0  0  0  0
   -6.5009    1.7116    0.1317 C   0  0  0  0  0  0  0  0  0  0  0  0
    3.5363    0.4483    0.6101 C   0  0  0  0  0  0  0  0  0  0  0  0
    3.8612    1.0747   -0.5895 C   0  0  0  0  0  0  0  0  0  0  0  0
    3.4301    1.1869    1.7852 C   0  0  0  0  0  0  0  0  0  0  0  0
    4.0816    2.4518   -0.6144 C   0  0  0  0  0  0  0  0  0  0  0  0
    3.6505    2.5640    1.7601 C   0  0  0  0  0  0  0  0  0  0  0  0
    3.9749    0.3162   -1.8275 C   0  0  0  0  0  0  0  0  0  0  0  0
    3.9762    3.1964    0.5604 C   0  0  0  0  0  0  0  0  0  0  0  0
    3.6512    0.9750   -3.1628 C   0  0  0  0  0  0  0  0  0  0  0  0
  1 15  1  0
  2 12  1  0
  3 14  1  0
  3 20  1  0
  4 25  2  0
  5  7  1  0
  5  8  1  0
  5 11  1  0
  6  9  1  0
  6 10  1  0
  6 13  1  0
  7  9  1  0
  8 10  1  0
 11 12  1  0
 12 14  1  0
 13 15  2  0
 13 16  1  0
 15 17  1  0
 16 18  2  0
 17 19  2  0
 18 19  1  0
 20 21  2  0
 20 22  1  0
 21 23  1  0
 21 25  1  0
 22 24  2  0
 23 26  2  0
 24 26  1  0
 25 27  1  0
M  END
>  <PUBCHEM_COMPOUND_CID>  (1) 
46175

>  <PUBCHEM_CONFORMER_RMSD>  (1) 
1

>  <PUBCHEM_CONFORMER_DIVERSEORDER>  (1) 
2
96
350
314
341
306
431
290
393
348
189
451
271
101
157
454
104
439
222
334
102
43
252
300
403
58
207
198
11
14
193
265
243
269
281
142
216
231
152
244
299
321
195
333
192
278
345
298
108
106
417
95
359
97
325
453
109
129
107
51
229
418
241
284
459
313
30
319
415
382
57
436
168
238
24
266
86
448
210
311
105
411
327
156
373
196
121
420
209
316
320
163
233
236
32
211
386
364
351
167
440
85
179
275
349
126
267
273
272
473
424
283
117
212
226
183
315
270
52
466
46
394
87
352
262
128
182
435
123
261
340
468
141
355
110
111
36
323
343
232
50
254
83
139
220
387
194
404
294
335
280
456
330
134
27
21
203
457
449
145
44
401
398
257
368
13
437
67
218
412
217
125
445
365
378
178
293
240
268
332
114
277
103
35
40
408
75
122
91
423
92
427
371
201
413
399
372
202
225
31
379
23
221
397
287
463
304
406
143
79
228
442
147
409
434
338
63
160
150
400
99
151
120
455
73
70
421
135
48
441
61
188
380
166
276
12
295
264
370
475
357
258
407
302
59
68
181
248
464
60
205
20
428
331
361
326
49
377
78
133
470
81
219
115
474
66
279
471
172
433
17
8
389
93
247
452
171
41
119
366
425
72
208
447
9
344
223
324
132
416
450
444
346
329
215
197
286
10
392
98
234
360
88
312
414
410
204
358
190
33
405
144
47
426
224
461
18
347
138
245
82
260
430
263
146
5
251
165
159
465
130
390
342
65
318
367
339
307
90
249
255
112
76
100
391
422
77
317
174
274
291
230
153
309
84
177
419
259
19
227
446
310
460
253
127
154
200
89
363
170
34
328
80
246
162
322
28
383
356
402
297
199
303
42
116
429
472
45
289
53
26
354
432
4
148
305
375
296
1
384
175
292
438
155
118
443
213
37
396
187
237
56
376
381
235
256
7
185
55
388
206
25
173
458
214
180
140
131
242
288
362
250
38
469
16
336
186
71
69
369
169
29
301
158
39
285
337
239
149
353
124
64
94
191
176
137
113
308
161
462
395
164
385
6
467
15
74
374
62
282
22
3
184
136
54

>  <PUBCHEM_MMFF94_PARTIAL_CHARGES>  (1) 
36
1 -0.18
10 0.37
11 0.27
12 0.28
13 0.1
14 0.28
15 0.18
16 -0.15
17 -0.15
18 -0.15
19 -0.15
2 -0.68
20 0.08
21 0.09
22 -0.15
23 -0.15
24 -0.15
25 0.42
26 -0.15
27 0.06
3 -0.36
4 -0.57
41 0.15
42 0.4
43 0.15
44 0.15
45 0.15
46 0.15
47 0.15
48 0.15
49 0.15
5 -0.81
6 -0.84
7 0.27
8 0.27
9 0.37

>  <PUBCHEM_EFFECTIVE_ROTOR_COUNT>  (1) 
8.2

>  <PUBCHEM_PHARMACOPHORE_FEATURES>  (1) 
9
1 2 acceptor
1 2 donor
1 3 acceptor
1 4 acceptor
1 5 cation
1 6 cation
6 13 15 16 17 18 19 rings
6 20 21 22 23 24 26 rings
6 5 6 7 8 9 10 rings

>  <PUBCHEM_HEAVY_ATOM_COUNT>  (1) 
27

>  <PUBCHEM_ATOM_DEF_STEREO_COUNT>  (1) 
0

>  <PUBCHEM_ATOM_UDEF_STEREO_COUNT>  (1) 
1

>  <PUBCHEM_BOND_DEF_STEREO_COUNT>  (1) 
0

>  <PUBCHEM_BOND_UDEF_STEREO_COUNT>  (1) 
0

>  <PUBCHEM_ISOTOPIC_ATOM_COUNT>  (1) 
0

>  <PUBCHEM_COMPONENT_COUNT>  (1) 
1

>  <PUBCHEM_CACTVS_TAUTO_COUNT>  (1) 
2

>  <PUBCHEM_CONFORMER_ID>  (1) 
0000B45F00000002

>  <PUBCHEM_MMFF94_ENERGY>  (1) 
92.7377

>  <PUBCHEM_FEATURE_SELFOVERLAP>  (1) 
45.685

>  <PUBCHEM_SHAPE_FINGERPRINT>  (1) 
10937287 8 18265611172869659818
11720765 8 17774731857871854012
12633257 1 16226320529709901136
13150687 139 11598859857584448834
13878862 14 18042946702375509629
13965767 371 17823400756279759024
14251764 75 18262805197368064304
14347332 77 8646479723023839811
14429115 67 7925916988603632036
14528608 73 18341891900901883623
14537116 161 17060337406081778305
14848178 5 8502373308991520649
14849402 71 18335696110056508306
15142526 21 18261948652081759179
15183329 4 15841560665065503345
15664445 248 14261051229909685178
19752476 56 18201716293190608304
20567600 234 17240486922998762493
20567600 9 18337963298321270208
20645477 70 10447634820975652754
22393880 68 18202283610851092451
23559900 14 17530971237072636706
238 59 16772686592795070710
245318 6 17897171423150669717
34797466 226 17561361807937462341
394071 54 16805617957620269237
474 4 18333447634241535339
504579 68 18342446025009047591
513532 50 17918272043999245970
5219985 9 17900535676083273194
633830 44 18343015614211482478
6669772 16 13254209671953500062
8988823 20 13551469301943144887
960060 61 12319450038893216753

>  <PUBCHEM_SHAPE_MULTIPOLES>  (1) 
529.95
14.8
3.37
2.06
18.07
0.32
-1.1
-9.49
-2.63
-2.68
1.34
-2.9
-0.1
-1.04

>  <PUBCHEM_SHAPE_SELFOVERLAP>  (1) 
1107.821

>  <PUBCHEM_SHAPE_VOLUME>  (1) 
300.1

>  <PUBCHEM_COORDINATE_TYPE>  (1) 
2
5
10

$$$$
