46188
     RDKit          3D

 28 30  0  0  1  0  0  0  0  0999 V2000
   -2.0557   -4.2413    0.0004 O   0  0  0  0  0  0  0  0  0  0  0  0
   -3.5064   -1.8892   -0.4696 O   0  0  0  0  0  0  0  0  0  0  0  0
    5.5531   -0.6251    0.7583 O   0  0  0  0  0  0  0  0  0  0  0  0
   -5.2591    3.5956    1.1260 O   0  0  0  0  0  0  0  0  0  0  0  0
    0.6595   -1.7775    0.5560 N   0  0  0  0  0  0  0  0  0  0  0  0
    2.8897   -0.0833   -0.0054 N   0  0  0  0  0  0  0  0  0  0  0  0
    1.8656   -1.8372    1.3909 C   0  0  0  0  0  0  0  0  0  0  0  0
    1.0272   -1.4680   -0.8310 C   0  0  0  0  0  0  0  0  0  0  0  0
    2.6113   -0.5008    1.3746 C   0  0  0  0  0  0  0  0  0  0  0  0
    1.7461   -0.1197   -0.9220 C   0  0  0  0  0  0  0  0  0  0  0  0
   -0.0735   -3.0412    0.6228 C   0  0  0  0  0  0  0  0  0  0  0  0
   -1.3925   -2.9829   -0.1514 C   0  0  0  0  0  0  0  0  0  0  0  0
    3.9207    0.8387   -0.2181 C   0  0  0  0  0  0  0  0  0  0  0  0
   -2.3294   -1.8782    0.3324 C   0  0  0  0  0  0  0  0  0  0  0  0
    5.2499    0.5637    0.1646 C   0  0  0  0  0  0  0  0  0  0  0  0
    3.6536    2.0808   -0.8291 C   0  0  0  0  0  0  0  0  0  0  0  0
    6.2680    1.4917   -0.0545 C   0  0  0  0  0  0  0  0  0  0  0  0
    4.6717    3.0086   -1.0483 C   0  0  0  0  0  0  0  0  0  0  0  0
    5.9789    2.7141   -0.6609 C   0  0  0  0  0  0  0  0  0  0  0  0
   -4.1494   -0.6917   -0.6350 C   0  0  0  0  0  0  0  0  0  0  0  0
    5.9193   -1.7028   -0.1004 C   0  0  0  0  0  0  0  0  0  0  0  0
   -4.0868    0.2685    0.3691 C   0  0  0  0  0  0  0  0  0  0  0  0
   -4.8600   -0.4468   -1.8051 C   0  0  0  0  0  0  0  0  0  0  0  0
   -4.7428    1.4880    0.2010 C   0  0  0  0  0  0  0  0  0  0  0  0
   -5.5161    0.7725   -1.9730 C   0  0  0  0  0  0  0  0  0  0  0  0
   -5.4576    1.7400   -0.9699 C   0  0  0  0  0  0  0  0  0  0  0  0
   -4.6825    2.4964    1.2475 C   0  0  0  0  0  0  0  0  0  0  0  0
   -3.9030    2.2273    2.5300 C   0  0  0  0  0  0  0  0  0  0  0  0
  1 12  1  0
  2 14  1  0
  2 20  1  0
  3 15  1  0
  3 21  1  0
  4 27  2  0
  5  7  1  0
  5  8  1  0
  5 11  1  0
  6  9  1  0
  6 10  1  0
  6 13  1  0
  7  9  1  0
  8 10  1  0
 11 12  1  0
 12 14  1  0
 13 15  2  0
 13 16  1  0
 15 17  1  0
 16 18  2  0
 17 19  2  0
 18 19  1  0
 20 22  2  0
 20 23  1  0
 22 24  1  0
 23 25  2  0
 24 26  2  0
 24 27  1  0
 25 26  1  0
 27 28  1  0
M  END
>  <PUBCHEM_COMPOUND_CID>  (1) 
46188

>  <PUBCHEM_CONFORMER_RMSD>  (1) 
1.2

>  <PUBCHEM_CONFORMER_DIVERSEORDER>  (1) 
1
11
218
221
142
125
175
138
124
25
204
47
100
155
213
111
52
152
20
73
39
200
226
10
181
150
28
102
166
56
219
216
225
135
72
101
38
22
89
85
53
96
13
70
51
6
36
107
160
46
113
16
195
212
50
2
48
180
86
19
193
30
141
183
67
37
147
95
188
177
220
83
9
33
129
61
82
131
105
23
5
210
18
55
84
79
75
144
139
174
54
112
184
14
92
151
137
58
167
187
63
116
165
12
106
178
68
192
130
91
97
186
43
66
40
199
140
123
159
60
104
57
26
214
71
153
198
161
108
122
78
163
35
215
121
49
117
171
176
134
224
211
207
179
118
182
146
76
222
109
62
27
94
98
156
8
217
145
149
206
196
201
81
169
158
34
65
110
223
162
74
7
194
31
99
164
4
64
185
77
208
44
190
197
41
148
59
114
15
189
143
154
132
173
136
17
24
103
170
90
203
87
119
45
42
202
128
172
120
133
21
88
191
93
80
69
209
168
115
32
29
126
3
205
157
127

>  <PUBCHEM_MMFF94_PARTIAL_CHARGES>  (1) 
37
1 -0.68
10 0.37
11 0.27
12 0.28
13 0.1
14 0.28
15 0.08
16 -0.15
17 -0.15
18 -0.15
19 -0.15
2 -0.36
20 0.08
21 0.28
22 -0.15
23 -0.15
24 0.09
25 -0.15
26 -0.15
27 0.42
28 0.06
3 -0.36
4 -0.57
42 0.15
43 0.4
44 0.15
45 0.15
46 0.15
5 -0.81
50 0.15
51 0.15
52 0.15
53 0.15
6 -0.84
7 0.27
8 0.27
9 0.37

>  <PUBCHEM_EFFECTIVE_ROTOR_COUNT>  (1) 
9.2

>  <PUBCHEM_PHARMACOPHORE_FEATURES>  (1) 
10
1 1 acceptor
1 1 donor
1 2 acceptor
1 3 acceptor
1 4 acceptor
1 5 cation
1 6 cation
6 13 15 16 17 18 19 rings
6 20 22 23 24 25 26 rings
6 5 6 7 8 9 10 rings

>  <PUBCHEM_HEAVY_ATOM_COUNT>  (1) 
28

>  <PUBCHEM_ATOM_DEF_STEREO_COUNT>  (1) 
0

>  <PUBCHEM_ATOM_UDEF_STEREO_COUNT>  (1) 
1

>  <PUBCHEM_BOND_DEF_STEREO_COUNT>  (1) 
0

>  <PUBCHEM_BOND_UDEF_STEREO_COUNT>  (1) 
0

>  <PUBCHEM_ISOTOPIC_ATOM_COUNT>  (1) 
0

>  <PUBCHEM_COMPONENT_COUNT>  (1) 
1

>  <PUBCHEM_CACTVS_TAUTO_COUNT>  (1) 
2

>  <PUBCHEM_CONFORMER_ID>  (1) 
0000B46C00000001

>  <PUBCHEM_MMFF94_ENERGY>  (1) 
104.4813

>  <PUBCHEM_FEATURE_SELFOVERLAP>  (1) 
50.753

>  <PUBCHEM_SHAPE_FINGERPRINT>  (1) 
100830 2 18339091410047327265
10670039 82 18272926094764092577
11135609 201 18341621417057817915
11963148 33 10590116105642474556
12107183 9 18334566920416135714
12422481 6 16877939438648878766
13103583 49 11746934270234000791
14251764 75 18340778022830542529
14347329 18 18413384354157469960
14790565 3 18408604729856304788
14931854 50 18202272581808126021
15064981 113 17775848999664920526
15163728 17 18272942604645304311
15183329 4 18409164398998303870
16112460 7 18408042905385262292
21792965 301 18196960797546852192
235170 7 15769479981457250879
2748736 6 18409440384458450336
2838139 119 18131626790057722794
397830 11 11242246424878425822
4144715 1 18189063143459186122
4197921 191 18189618409272308054
445580 125 18411146822436423838
5104073 3 17604701300693029578
57724786 102 18264489490526100531
6034566 193 18410299086619256777
6299153 45 18334849481855632738
6328613 192 18408039641652683452
7808743 9 18337953488689929699
7970288 3 10087342453256596669

>  <PUBCHEM_SHAPE_MULTIPOLES>  (1) 
542.79
17.57
4.37
1.6
6.07
0.93
-0.34
-14.15
2.57
-1.62
-0.73
-2.33
-0.84
-3.07

>  <PUBCHEM_SHAPE_SELFOVERLAP>  (1) 
1139.48

>  <PUBCHEM_SHAPE_VOLUME>  (1) 
306.8

>  <PUBCHEM_COORDINATE_TYPE>  (1) 
2
5
10

$$$$
