46196
     RDKit          3D

 21 22  0  0  1  0  0  0  0  0999 V2000
    0.1225   -3.6637    0.2022 O   0  0  0  0  0  0  0  0  0  0  0  0
   -1.3997   -1.3151    0.4588 O   0  0  0  0  0  0  0  0  0  0  0  0
   -2.4661   -1.1679   -1.9992 O   0  0  0  0  0  0  0  0  0  0  0  0
    1.9787   -0.4870   -0.2499 N   0  0  0  0  0  0  0  0  0  0  0  0
    4.3073    1.2214   -0.1202 N   0  0  0  0  0  0  0  0  0  0  0  0
    3.0575   -0.7411    0.7129 C   0  0  0  0  0  0  0  0  0  0  0  0
    2.5079    0.1725   -1.4497 C   0  0  0  0  0  0  0  0  0  0  0  0
    3.7793    0.5602    1.0794 C   0  0  0  0  0  0  0  0  0  0  0  0
    3.2286    1.4745   -1.0832 C   0  0  0  0  0  0  0  0  0  0  0  0
    1.2924   -1.7289   -0.6000 C   0  0  0  0  0  0  0  0  0  0  0  0
    0.7173   -2.4351    0.6301 C   0  0  0  0  0  0  0  0  0  0  0  0
    4.9919    2.4642    0.2308 C   0  0  0  0  0  0  0  0  0  0  0  0
   -0.3385   -1.6093    1.3619 C   0  0  0  0  0  0  0  0  0  0  0  0
   -2.0867   -0.1505    0.6752 C   0  0  0  0  0  0  0  0  0  0  0  0
   -2.6633    0.5412   -0.3856 C   0  0  0  0  0  0  0  0  0  0  0  0
   -2.2000    0.3310    1.9761 C   0  0  0  0  0  0  0  0  0  0  0  0
   -3.3595    1.7255   -0.1437 C   0  0  0  0  0  0  0  0  0  0  0  0
   -2.8963    1.5153    2.2182 C   0  0  0  0  0  0  0  0  0  0  0  0
   -2.5537    0.0505   -1.7524 C   0  0  0  0  0  0  0  0  0  0  0  0
   -3.4760    2.2124    1.1583 C   0  0  0  0  0  0  0  0  0  0  0  0
   -2.5435    1.0295   -2.9201 C   0  0  0  0  0  0  0  0  0  0  0  0
  1 11  1  0
  2 13  1  0
  2 14  1  0
  3 19  2  0
  4  6  1  0
  4  7  1  0
  4 10  1  0
  5  8  1  0
  5  9  1  0
  5 12  1  0
  6  8  1  0
  7  9  1  0
 10 11  1  0
 11 13  1  0
 14 15  2  0
 14 16  1  0
 15 17  1  0
 15 19  1  0
 16 18  2  0
 17 20  2  0
 18 20  1  0
 19 21  1  0
M  END
>  <PUBCHEM_COMPOUND_CID>  (1) 
46196

>  <PUBCHEM_CONFORMER_RMSD>  (1) 
0.8

>  <PUBCHEM_CONFORMER_DIVERSEORDER>  (1) 
5
356
95
370
291
24
111
207
114
153
303
354
316
202
149
309
218
103
405
329
85
219
29
155
16
154
190
191
69
124
279
209
285
249
337
256
91
102
197
259
55
388
391
278
204
214
135
314
357
178
389
363
273
254
376
260
38
119
401
379
23
338
386
22
166
345
237
353
220
107
231
340
404
112
349
198
330
226
293
188
361
177
39
288
304
308
238
205
292
8
230
277
346
372
377
241
210
365
201
298
137
301
66
59
327
286
162
182
302
382
88
184
334
326
196
364
296
368
235
392
203
18
73
71
310
255
318
170
403
257
385
187
40
313
134
378
380
332
118
28
6
262
242
143
159
222
317
98
236
25
36
173
355
136
96
373
239
176
387
30
342
77
348
312
115
32
186
396
243
195
20
398
199
50
282
399
264
192
280
394
108
123
87
362
290
305
156
215
200
131
121
358
359
26
252
101
343
84
228
225
213
52
321
165
180
284
175
90
81
289
211
383
224
10
261
14
126
27
106
371
113
319
268
315
109
384
61
253
223
360
125
221
138
129
400
295
208
140
306
142
335
272
169
381
216
267
179
80
248
307
336
339
79
352
116
132
234
78
183
141
100
60
297
250
51
283
366
172
139
367
265
57
133
63
46
127
395
244
374
160
320
258
41
347
322
328
206
185
67
105
311
74
266
174
99
146
147
58
390
168
53
325
171
193
35
48
34
72
94
369
68
212
344
161
49
21
158
144
64
1
31
251
11
104
89
65
269
150
33
12
47
86
120
163
271
19
276
44
324
333
122
151
375
117
157
263
275
92
181
274
281
130
217
2
227
351
152
341
110
145
148
76
194
294
13
393
42
164
397
93
37
287
240
331
82
17
62
233
229
245
299
70
232
7
247
43
3
83
45
350
300
54
323
246
167
270
15
189
56
97
75
402
128
9
4

>  <PUBCHEM_MMFF94_PARTIAL_CHARGES>  (1) 
26
1 -0.68
10 0.27
11 0.28
12 0.27
13 0.28
14 0.08
15 0.09
16 -0.15
17 -0.15
18 -0.15
19 0.42
2 -0.36
20 -0.15
21 0.06
3 -0.57
38 0.4
39 0.15
4 -0.81
40 0.15
41 0.15
42 0.15
5 -0.81
6 0.27
7 0.27
8 0.27
9 0.27

>  <PUBCHEM_EFFECTIVE_ROTOR_COUNT>  (1) 
7.2

>  <PUBCHEM_PHARMACOPHORE_FEATURES>  (1) 
8
1 1 acceptor
1 1 donor
1 2 acceptor
1 3 acceptor
1 4 cation
1 5 cation
6 14 15 16 17 18 20 rings
6 4 5 6 7 8 9 rings

>  <PUBCHEM_HEAVY_ATOM_COUNT>  (1) 
21

>  <PUBCHEM_ATOM_DEF_STEREO_COUNT>  (1) 
0

>  <PUBCHEM_ATOM_UDEF_STEREO_COUNT>  (1) 
1

>  <PUBCHEM_BOND_DEF_STEREO_COUNT>  (1) 
0

>  <PUBCHEM_BOND_UDEF_STEREO_COUNT>  (1) 
0

>  <PUBCHEM_ISOTOPIC_ATOM_COUNT>  (1) 
0

>  <PUBCHEM_COMPONENT_COUNT>  (1) 
1

>  <PUBCHEM_CACTVS_TAUTO_COUNT>  (1) 
2

>  <PUBCHEM_CONFORMER_ID>  (1) 
0000B47400000005

>  <PUBCHEM_MMFF94_ENERGY>  (1) 
58.7726

>  <PUBCHEM_FEATURE_SELFOVERLAP>  (1) 
40.609

>  <PUBCHEM_SHAPE_FINGERPRINT>  (1) 
10165383 225 17683570239688166118
10291535 26 17913483816768012872
10764073 3 12388750071434858175
107951 10 11740799050900813955
10928967 22 8646496240936356472
10968037 57 7997976755900631024
11640471 11 18058724693885863519
12077114 3 17023175042000277694
121448 382 18271514407617576106
12173636 292 18340501035482408099
12633257 1 15864365618262151381
12824470 246 11531641149120509025
12892183 10 15647052672913305632
13103583 49 13479122468055136852
13134695 92 17685488754693819330
14123250 116 18201719565496485285
14142880 1 18262242222034430319
14856354 85 15792593996780370202
14932701 244 17701809110473738677
15295992 7 16809252775689593317
15342168 16 18336554828358265057
17980427 23 17770754859299335650
1813 80 17120297931818521631
18219364 16 18040718043471087749
18981168 100 18115315449324032211
19765921 60 18201721712901291979
20291156 8 9079112241751845578
20645476 183 17700973233135304287
21095088 737 17699278077941549952
21421566 26 16199857483953159349
21475661 188 17464540798002185173
21486144 27 18044108856059164371
21713013 43 14548732954048458124
21864079 5 18340778073932196248
22749437 52 18409166636423025048
22907989 373 17981608478855809012
22956985 138 14946740045024611122
23419403 2 17192903589816706259
23503958 8 12612752423624592220
23559900 14 15359690782172708835
27216 239 17968103052909414841
2838139 119 17630606937495818000
312425 83 16916804958862661804
469060 322 17678745754875653139
474 4 18339079289638217514
484985 159 8718009520366450097
4921388 177 15339123458975049049
621550 5 16453526632094473451
633830 44 18271812281016579102
90316 7 15213603181979235613
9981440 41 17168683294139342317

>  <PUBCHEM_SHAPE_MULTIPOLES>  (1) 
404.6
8.3
2.9
2.28
6.99
1.57
0.9
-7.36
-0.5
1.06
-0.51
-2.56
-0.64
-0.65

>  <PUBCHEM_SHAPE_SELFOVERLAP>  (1) 
830.112

>  <PUBCHEM_SHAPE_VOLUME>  (1) 
234.6

>  <PUBCHEM_COORDINATE_TYPE>  (1) 
2
5
10

$$$$
