46203
     RDKit          3D

 26 28  0  0  1  0  0  0  0  0999 V2000
    2.6059   -3.6487    0.4711 O   0  0  0  0  0  0  0  0  0  0  0  0
    3.1379   -0.9218    0.5850 O   0  0  0  0  0  0  0  0  0  0  0  0
    4.2136   -0.6161   -1.8550 O   0  0  0  0  0  0  0  0  0  0  0  0
   -0.2765   -1.4050   -0.1685 N   0  0  0  0  0  0  0  0  0  0  0  0
   -2.9550   -0.4138   -0.1260 N   0  0  0  0  0  0  0  0  0  0  0  0
   -1.2582   -1.9564    0.7734 C   0  0  0  0  0  0  0  0  0  0  0  0
   -0.9449   -1.0188   -1.4173 C   0  0  0  0  0  0  0  0  0  0  0  0
   -2.3426   -0.9276    1.1030 C   0  0  0  0  0  0  0  0  0  0  0  0
   -2.0178    0.0418   -1.1605 C   0  0  0  0  0  0  0  0  0  0  0  0
    0.7830   -2.3777   -0.4334 C   0  0  0  0  0  0  0  0  0  0  0  0
    1.5731   -2.7265    0.8302 C   0  0  0  0  0  0  0  0  0  0  0  0
   -4.2188    0.1851   -0.0740 C   0  0  0  0  0  0  0  0  0  0  0  0
    2.2158   -1.5117    1.4960 C   0  0  0  0  0  0  0  0  0  0  0  0
   -4.6523    0.8665    1.0810 C   0  0  0  0  0  0  0  0  0  0  0  0
   -5.0963    0.1243   -1.1750 C   0  0  0  0  0  0  0  0  0  0  0  0
   -5.9121    1.4627    1.1329 C   0  0  0  0  0  0  0  0  0  0  0  0
   -6.3563    0.7207   -1.1230 C   0  0  0  0  0  0  0  0  0  0  0  0
   -6.7641    1.3899    0.0310 C   0  0  0  0  0  0  0  0  0  0  0  0
    3.3165    0.4323    0.6807 C   0  0  0  0  0  0  0  0  0  0  0  0
    3.6479    1.1856   -0.4417 C   0  0  0  0  0  0  0  0  0  0  0  0
    3.1599    1.0454    1.9205 C   0  0  0  0  0  0  0  0  0  0  0  0
    3.8239    2.5642   -0.3233 C   0  0  0  0  0  0  0  0  0  0  0  0
    3.3360    2.4241    2.0386 C   0  0  0  0  0  0  0  0  0  0  0  0
    3.8140    0.5592   -1.7459 C   0  0  0  0  0  0  0  0  0  0  0  0
    3.6680    3.1834    0.9169 C   0  0  0  0  0  0  0  0  0  0  0  0
    3.4993    1.3390   -3.0166 C   0  0  0  0  0  0  0  0  0  0  0  0
  1 11  1  0
  2 13  1  0
  2 19  1  0
  3 24  2  0
  4  6  1  0
  4  7  1  0
  4 10  1  0
  5  8  1  0
  5  9  1  0
  5 12  1  0
  6  8  1  0
  7  9  1  0
 10 11  1  0
 11 13  1  0
 12 14  2  0
 12 15  1  0
 14 16  1  0
 15 17  2  0
 16 18  2  0
 17 18  1  0
 19 20  2  0
 19 21  1  0
 20 22  1  0
 20 24  1  0
 21 23  2  0
 22 25  2  0
 23 25  1  0
 24 26  1  0
M  END
>  <PUBCHEM_COMPOUND_CID>  (1) 
46203

>  <PUBCHEM_CONFORMER_RMSD>  (1) 
1

>  <PUBCHEM_CONFORMER_DIVERSEORDER>  (1) 
2
12
252
237
101
131
144
210
5
159
196
148
258
272
264
188
233
98
24
87
221
227
238
35
166
168
90
83
84
51
26
54
17
139
273
19
68
164
185
8
137
16
263
182
106
213
212
209
222
181
240
41
151
271
74
44
178
143
58
249
81
14
202
115
97
200
228
175
32
170
75
224
215
112
242
45
183
134
226
15
220
187
36
152
171
161
246
172
104
255
89
49
219
57
50
119
149
269
259
93
177
176
169
105
194
191
102
76
103
67
266
179
53
60
110
95
225
22
21
130
37
127
199
125
192
251
85
217
132
250
218
39
23
186
241
173
117
108
109
126
96
86
198
88
145
78
121
257
20
113
268
48
65
56
180
248
142
40
140
94
111
174
61
47
155
123
201
231
236
80
91
270
133
9
204
7
100
25
239
114
10
253
73
46
206
247
260
234
18
153
197
122
33
235
6
129
116
232
13
156
79
165
193
195
203
82
62
189
211
216
11
1
243
254
256
34
120
158
162
230
244
59
150
245
118
141
63
43
207
163
77
223
261
31
136
214
262
52
146
267
30
99
135
190
42
55
157
128
138
28
92
147
29
167
124
229
64
27
66
38
107
70
69
72
154
3
160
205
265
4
71
208
184

>  <PUBCHEM_MMFF94_PARTIAL_CHARGES>  (1) 
36
1 -0.68
10 0.27
11 0.28
12 0.1
13 0.28
14 -0.15
15 -0.15
16 -0.15
17 -0.15
18 -0.15
19 0.08
2 -0.36
20 0.09
21 -0.15
22 -0.15
23 -0.15
24 0.42
25 -0.15
26 0.06
3 -0.57
4 -0.81
40 0.15
41 0.15
42 0.4
43 0.15
44 0.15
45 0.15
46 0.15
47 0.15
48 0.15
49 0.15
5 -0.84
6 0.27
7 0.27
8 0.37
9 0.37

>  <PUBCHEM_EFFECTIVE_ROTOR_COUNT>  (1) 
8.2

>  <PUBCHEM_PHARMACOPHORE_FEATURES>  (1) 
9
1 1 acceptor
1 1 donor
1 2 acceptor
1 3 acceptor
1 4 cation
1 5 cation
6 12 14 15 16 17 18 rings
6 19 20 21 22 23 25 rings
6 4 5 6 7 8 9 rings

>  <PUBCHEM_HEAVY_ATOM_COUNT>  (1) 
26

>  <PUBCHEM_ATOM_DEF_STEREO_COUNT>  (1) 
0

>  <PUBCHEM_ATOM_UDEF_STEREO_COUNT>  (1) 
1

>  <PUBCHEM_BOND_DEF_STEREO_COUNT>  (1) 
0

>  <PUBCHEM_BOND_UDEF_STEREO_COUNT>  (1) 
0

>  <PUBCHEM_ISOTOPIC_ATOM_COUNT>  (1) 
0

>  <PUBCHEM_COMPONENT_COUNT>  (1) 
1

>  <PUBCHEM_CACTVS_TAUTO_COUNT>  (1) 
2

>  <PUBCHEM_CONFORMER_ID>  (1) 
0000B47B00000002

>  <PUBCHEM_MMFF94_ENERGY>  (1) 
88.3753

>  <PUBCHEM_FEATURE_SELFOVERLAP>  (1) 
45.685

>  <PUBCHEM_SHAPE_FINGERPRINT>  (1) 
10165383 225 18186812370173865702
10498660 4 18341334512577735024
10730089 43 17603586335245115469
10937287 8 18196363938999895594
11505856 67 17465118419167958879
11720765 8 17775015549014792172
12363563 72 10375611303624716050
12633257 1 16443334438086980304
13150687 139 10662952261418315834
13782708 43 12031493420712323181
13878862 14 18116974634193219373
13965767 371 17896579856399132740
14251740 57 11602812484846110264
14251764 38 18191861220184374477
14251764 75 18265053711463170473
14341114 328 16009311045043492232
14347332 77 9511460018695055779
14429115 67 10881394327128360917
14528608 73 18201996634311380637
14537116 161 16774077363446510169
14848178 5 8142085343218135041
14848178 96 18411981390237159745
14950920 106 14490738088007798253
15183329 4 14476968870012858577
15342168 16 18409441505755865043
15664445 248 14117216417198724283
16992610 120 10882843501932540750
16992828 155 14889305933608263168
19752476 56 18060133288867358712
1979834 28 18040150716946070077
20567600 234 17603307072856998757
20567600 9 18342465802573776817
21315764 119 15625673700235383217
2303208 19 13614228322793950999
23559900 14 17677057836875884839
238 59 16413523440148905484
2838139 119 18343016667190886009
34797466 226 17275099561989356565
376196 1 17342639378539089664
474 4 18411130342694291171
513532 50 17275098427817238560
633830 44 18201434813354181191
6669772 16 12390925922529114391
7808743 9 17827646065085001980
7970288 3 9222694213833605072
960060 61 14333129706020089353

>  <PUBCHEM_SHAPE_MULTIPOLES>  (1) 
507.5
14.31
3.26
2.13
23.13
1.05
-0.89
-10.5
-1.4
-4.16
1.24
-2.4
-0.77
-0.13

>  <PUBCHEM_SHAPE_SELFOVERLAP>  (1) 
1068.758

>  <PUBCHEM_SHAPE_VOLUME>  (1) 
285.3

>  <PUBCHEM_COORDINATE_TYPE>  (1) 
2
5
10

$$$$
