46201
     RDKit          3D

 23 24  0  0  1  0  0  0  0  0999 V2000
    0.4830   -2.5272   -0.1253 O   0  0  0  0  0  0  0  0  0  0  0  0
    2.9023   -3.7782    0.4340 O   0  0  0  0  0  0  0  0  0  0  0  0
   -3.3830   -0.5726    2.4780 O   0  0  0  0  0  0  0  0  0  0  0  0
    2.9616   -0.0760    0.4069 N   0  0  0  0  0  0  0  0  0  0  0  0
    2.8832   -2.4836   -0.1742 C   0  0  0  0  0  0  0  0  0  0  0  0
    3.0106   -1.4337    0.9322 C   0  0  0  0  0  0  0  0  0  0  0  0
    3.0280    0.9021    1.4842 C   0  0  0  0  0  0  0  0  0  0  0  0
    2.9655    2.3277    0.9343 C   0  0  0  0  0  0  0  0  0  0  0  0
    1.5999   -2.3490   -0.9909 C   0  0  0  0  0  0  0  0  0  0  0  0
    1.6765    2.5789    0.1930 C   0  0  0  0  0  0  0  0  0  0  0  0
    1.6119    2.3195   -1.1677 C   0  0  0  0  0  0  0  0  0  0  0  0
    0.5770    3.0653    0.8839 C   0  0  0  0  0  0  0  0  0  0  0  0
   -0.6607   -1.8474   -0.4488 C   0  0  0  0  0  0  0  0  0  0  0  0
   -1.5317   -1.4454    0.5581 C   0  0  0  0  0  0  0  0  0  0  0  0
    0.4198    2.5518   -1.8535 C   0  0  0  0  0  0  0  0  0  0  0  0
   -0.6152    3.2977    0.1980 C   0  0  0  0  0  0  0  0  0  0  0  0
   -2.6974   -0.7539    0.2283 C   0  0  0  0  0  0  0  0  0  0  0  0
   -0.9417   -1.5661   -1.7815 C   0  0  0  0  0  0  0  0  0  0  0  0
   -0.6938    3.0409   -1.1707 C   0  0  0  0  0  0  0  0  0  0  0  0
   -2.9853   -0.4686   -1.1063 C   0  0  0  0  0  0  0  0  0  0  0  0
   -2.1074   -0.8746   -2.1112 C   0  0  0  0  0  0  0  0  0  0  0  0
   -3.6133   -0.3315    1.2763 C   0  0  0  0  0  0  0  0  0  0  0  0
   -4.8899    0.4238    0.9227 C   0  0  0  0  0  0  0  0  0  0  0  0
  1  9  1  0
  1 13  1  0
  2  5  1  0
  3 22  2  0
  4  6  1  0
  4  7  1  0
  5  6  1  0
  5  9  1  0
  7  8  1  0
  8 10  1  0
 10 11  2  0
 10 12  1  0
 11 15  1  0
 12 16  2  0
 13 14  2  0
 13 18  1  0
 14 17  1  0
 15 19  2  0
 16 19  1  0
 17 20  2  0
 17 22  1  0
 18 21  2  0
 20 21  1  0
 22 23  1  0
M  END
>  <PUBCHEM_COMPOUND_CID>  (1) 
46201

>  <PUBCHEM_CONFORMER_RMSD>  (1) 
1

>  <PUBCHEM_CONFORMER_DIVERSEORDER>  (1) 
2
311
238
269
6
354
19
176
250
195
334
342
69
373
28
312
232
83
174
120
284
8
338
279
173
411
288
425
429
270
57
111
329
361
150
447
297
42
424
390
177
100
377
70
208
201
137
332
437
29
229
436
114
365
54
324
133
230
277
395
330
124
446
422
273
95
434
49
163
122
74
439
314
268
186
171
58
7
67
328
90
352
387
45
13
290
318
356
300
152
239
116
445
235
168
14
343
392
234
368
423
21
240
264
397
10
1
170
291
72
118
378
275
153
412
381
39
298
357
214
335
190
463
458
200
79
48
346
50
339
180
260
218
184
146
385
166
251
172
23
276
257
119
418
162
384
306
112
265
287
156
379
37
123
408
11
224
244
127
299
164
102
76
213
427
109
462
110
129
85
144
296
160
62
222
417
185
272
131
326
81
316
305
274
403
466
221
220
30
420
406
77
460
262
386
216
413
405
454
5
310
178
399
53
60
143
440
4
280
43
93
455
181
325
197
400
203
253
204
451
448
364
96
38
107
64
108
65
151
285
433
167
404
347
113
449
366
128
35
369
59
416
18
99
132
375
333
155
183
105
261
80
359
337
161
211
154
98
209
236
56
206
142
139
468
348
442
135
147
441
421
438
78
86
149
419
380
47
467
210
34
258
33
157
182
452
267
293
363
428
278
159
304
63
256
61
345
87
3
323
191
46
32
15
374
255
331
205
362
73
187
97
389
148
125
382
52
431
231
31
283
340
219
393
36
358
295
179
322
24
327
443
227
336
426
353
106
292
367
370
415
407
313
192
165
351
103
394
259
383
140
308
252
66
289
199
237
453
409
16
350
248
91
71
444
414
88
223
271
196
194
136
286
341
121
41
207
254
126
89
398
457
249
12
435
307
51
141
355
461
55
217
459
432
82
281
396
301
138
188
309
226
44
212
376
193
247
391
401
9
402
430
303
266
372
242
233
243
94
68
319
450
17
225
145
40
198
84
228
115
189
344
263
464
20
75
92
317
202
320
388
349
246
169
22
25
134
27
371
104
26
158
245
302
175
117
294
101
360
282
465
315
130
321
215
456
410
241

>  <PUBCHEM_MMFF94_PARTIAL_CHARGES>  (1) 
34
1 -0.36
10 -0.14
11 -0.15
12 -0.15
13 0.08
14 -0.15
15 -0.15
16 -0.15
17 0.09
18 -0.15
19 -0.15
2 -0.68
20 -0.15
21 -0.15
22 0.42
23 0.06
29 0.36
3 -0.57
34 0.4
35 0.15
36 0.15
37 0.15
38 0.15
39 0.15
4 -0.9
40 0.15
41 0.15
42 0.15
43 0.15
5 0.28
6 0.27
7 0.27
8 0.14
9 0.28

>  <PUBCHEM_EFFECTIVE_ROTOR_COUNT>  (1) 
9

>  <PUBCHEM_PHARMACOPHORE_FEATURES>  (1) 
8
1 1 acceptor
1 2 acceptor
1 2 donor
1 3 acceptor
1 4 cation
1 4 donor
6 10 11 12 15 16 19 rings
6 13 14 17 18 20 21 rings

>  <PUBCHEM_HEAVY_ATOM_COUNT>  (1) 
23

>  <PUBCHEM_ATOM_DEF_STEREO_COUNT>  (1) 
0

>  <PUBCHEM_ATOM_UDEF_STEREO_COUNT>  (1) 
1

>  <PUBCHEM_BOND_DEF_STEREO_COUNT>  (1) 
0

>  <PUBCHEM_BOND_UDEF_STEREO_COUNT>  (1) 
0

>  <PUBCHEM_ISOTOPIC_ATOM_COUNT>  (1) 
0

>  <PUBCHEM_COMPONENT_COUNT>  (1) 
1

>  <PUBCHEM_CACTVS_TAUTO_COUNT>  (1) 
2

>  <PUBCHEM_CONFORMER_ID>  (1) 
0000B47900000002

>  <PUBCHEM_MMFF94_ENERGY>  (1) 
57.8083

>  <PUBCHEM_FEATURE_SELFOVERLAP>  (1) 
40.6

>  <PUBCHEM_SHAPE_FINGERPRINT>  (1) 
10119406 146 15677455977366576806
10382601 240 18411696621521634618
104564 63 18339075991535961220
10708813 3 18057310893604706301
11244481 83 16371858537282165781
11640471 11 17774727587788106051
12156800 1 16765683532206770788
12422481 6 18196386818813570905
12539773 59 17343766355949622615
12633257 1 17677327367400242331
128993 33 17252315704564920677
14840074 17 18117547634565889584
18219364 16 17972578142343316839
19930381 70 18193534865459081383
23419403 2 18188768336914018981
35225 105 16958726914387469577
4409770 3 15249373254226665423
445580 42 17470716711881288346
474 4 18270673276801084579
5283268 108 18265341615978802635
539174 4 18202284718783856473

>  <PUBCHEM_SHAPE_MULTIPOLES>  (1) 
450.74
6.41
4.82
1.9
4.12
0.4
0.17
-0.96
-3.44
-4.3
0.71
1.17
0.29
-0.29

>  <PUBCHEM_SHAPE_SELFOVERLAP>  (1) 
937.037

>  <PUBCHEM_SHAPE_VOLUME>  (1) 
256.6

>  <PUBCHEM_COORDINATE_TYPE>  (1) 
2
5
10

$$$$
