46216
     RDKit          3D

 14 14  0  0  1  0  0  0  0  0999 V2000
    1.1436   -2.6009   -0.5438 O   0  0  0  0  0  0  0  0  0  0  0  0
   -1.6052   -0.0983   -0.4674 N   0  0  0  0  0  0  0  0  0  0  0  0
   -0.9082   -1.3475   -0.1364 C   0  0  0  0  0  0  0  0  0  0  0  0
    0.4746   -1.3687   -0.8260 C   0  0  0  0  0  0  0  0  0  0  0  0
   -2.9325   -0.0842    0.1225 C   0  0  0  0  0  0  0  0  0  0  0  0
   -0.8063   -1.4418    1.3872 C   0  0  0  0  0  0  0  0  0  0  0  0
    1.3972   -0.2572   -0.3731 C   0  0  0  0  0  0  0  0  0  0  0  0
   -3.6978    1.1935   -0.2006 C   0  0  0  0  0  0  0  0  0  0  0  0
    1.3814    0.9506   -1.0485 C   0  0  0  0  0  0  0  0  0  0  0  0
    2.2355   -0.4732    0.7066 C   0  0  0  0  0  0  0  0  0  0  0  0
   -5.0818    1.2261    0.4320 C   0  0  0  0  0  0  0  0  0  0  0  0
    2.2312    1.9750   -0.6313 C   0  0  0  0  0  0  0  0  0  0  0  0
    3.0852    0.5513    1.1239 C   0  0  0  0  0  0  0  0  0  0  0  0
    3.0830    1.7753    0.4549 C   0  0  0  0  0  0  0  0  0  0  0  0
  1  4  1  0
  2  3  1  0
  2  5  1  0
  3  4  1  0
  3  6  1  0
  4  7  1  0
  5  8  1  0
  7  9  2  0
  7 10  1  0
  8 11  1  0
  9 12  1  0
 10 13  2  0
 12 14  2  0
 13 14  1  0
M  END
>  <PUBCHEM_COMPOUND_CID>  (1) 
46216

>  <PUBCHEM_CONFORMER_RMSD>  (1) 
0.6

>  <PUBCHEM_CONFORMER_DIVERSEORDER>  (1) 
20
1
37
10
62
18
13
16
45
64
47
32
60
63
25
54
42
9
5
41
49
12
17
55
57
4
40
35
44
56
53
61
39
7
15
26
52
28
23
46
31
24
21
59
3
11
8
6
27
14
30
29
38
19
33
2
34
22
43
58
51
36
50
48

>  <PUBCHEM_MMFF94_PARTIAL_CHARGES>  (1) 
18
1 -0.68
10 -0.15
12 -0.15
13 -0.15
14 -0.15
17 0.36
2 -0.9
25 0.15
26 0.15
27 0.4
3 0.27
31 0.15
32 0.15
33 0.15
4 0.42
5 0.27
7 -0.14
9 -0.15

>  <PUBCHEM_EFFECTIVE_ROTOR_COUNT>  (1) 
5

>  <PUBCHEM_PHARMACOPHORE_FEATURES>  (1) 
6
1 1 acceptor
1 1 donor
1 11 hydrophobe
1 2 cation
1 2 donor
6 7 9 10 12 13 14 rings

>  <PUBCHEM_HEAVY_ATOM_COUNT>  (1) 
14

>  <PUBCHEM_ATOM_DEF_STEREO_COUNT>  (1) 
0

>  <PUBCHEM_ATOM_UDEF_STEREO_COUNT>  (1) 
2

>  <PUBCHEM_BOND_DEF_STEREO_COUNT>  (1) 
0

>  <PUBCHEM_BOND_UDEF_STEREO_COUNT>  (1) 
0

>  <PUBCHEM_ISOTOPIC_ATOM_COUNT>  (1) 
0

>  <PUBCHEM_COMPONENT_COUNT>  (1) 
1

>  <PUBCHEM_CACTVS_TAUTO_COUNT>  (1) 
1

>  <PUBCHEM_CONFORMER_ID>  (1) 
0000B48800000014

>  <PUBCHEM_MMFF94_ENERGY>  (1) 
24.6512

>  <PUBCHEM_FEATURE_SELFOVERLAP>  (1) 
30.446

>  <PUBCHEM_SHAPE_FINGERPRINT>  (1) 
10465860 228 18342178821601739461
122479 349 18336547213344033705
12251169 10 17894907472731377156
12616999 72 15267055931036617829
13571099 52 18059571438013848350
14252887 29 12324242754402554444
15061688 2 17274526746058356152
15775835 57 18271522095371665696
15906896 17 18048595112250377922
16945 1 17604410990688807742
18186145 218 18339647737587484575
20231682 184 17988923366485637773
20361792 2 11386634265192719330
21452121 103 18267017263674230745
21524375 3 18336819892190948239
21665062 11 18186237329333923028
21713013 43 11743847962548889713
21947302 44 18340776944350288503
230 275 18272377455298842397
23419403 2 16836246842608500106
23557571 272 17346031294353180303
305870 269 18412541028839477790
465052 167 11169921559136538153
474 4 18409449180978474089
49207404 50 18188790408766471819
6333272 397 18333735715199551065
7364860 26 18200595774250053062

>  <PUBCHEM_SHAPE_MULTIPOLES>  (1) 
277.26
6.95
2.24
1.11
9.09
0.44
0.16
-5.18
1.61
-0.69
-0.23
-0.44
0.14
0.06

>  <PUBCHEM_SHAPE_SELFOVERLAP>  (1) 
553.326

>  <PUBCHEM_SHAPE_VOLUME>  (1) 
165

>  <PUBCHEM_COORDINATE_TYPE>  (1) 
2
5
10

$$$$
