46221
     RDKit          3D

 14 14  0  0  1  0  0  0  0  0999 V2000
    5.0195    1.0962    0.9889 Cl  0  0  0  0  0  0  0  0  0  0  0  0
   -3.3755   -1.3178    2.0229 Cl  0  0  0  0  0  0  0  0  0  0  0  0
    1.4447   -0.3696   -0.1498 N   0  0  0  0  0  0  0  0  0  0  0  0
    0.7154    0.8879   -0.3097 C   0  0  0  0  0  0  0  0  0  0  0  0
    2.8871   -0.1281   -0.1566 C   0  0  0  0  0  0  0  0  0  0  0  0
    1.0790   -1.3107   -1.2077 C   0  0  0  0  0  0  0  0  0  0  0  0
   -0.7750    0.6837   -0.2467 C   0  0  0  0  0  0  0  0  0  0  0  0
    3.2677    0.7815    1.0013 C   0  0  0  0  0  0  0  0  0  0  0  0
    1.8280   -2.6240   -1.0574 C   0  0  0  0  0  0  0  0  0  0  0  0
   -1.3131   -0.1271    0.7430 C   0  0  0  0  0  0  0  0  0  0  0  0
   -1.5901    1.3105   -1.1790 C   0  0  0  0  0  0  0  0  0  0  0  0
   -2.6939   -0.3149    0.8015 C   0  0  0  0  0  0  0  0  0  0  0  0
   -2.9710    1.1225   -1.1204 C   0  0  0  0  0  0  0  0  0  0  0  0
   -3.5229    0.3098   -0.1302 C   0  0  0  0  0  0  0  0  0  0  0  0
  1  8  1  0
  2 12  1  0
  3  4  1  0
  3  5  1  0
  3  6  1  0
  4  7  1  0
  5  8  1  0
  6  9  1  0
  7 10  2  0
  7 11  1  0
 10 12  1  0
 11 13  2  0
 12 14  2  0
 13 14  1  0
M  END
>  <PUBCHEM_COMPOUND_CID>  (1) 
46221

>  <PUBCHEM_CONFORMER_RMSD>  (1) 
0.6

>  <PUBCHEM_CONFORMER_DIVERSEORDER>  (1) 
3
56
28
26
52
43
41
27
45
23
35
34
46
42
44
51
25
33
54
20
36
59
32
39
49
11
37
22
10
47
38
30
55
24
9
57
40
4
31
2
53
48
29
50
12
7
1
5
60
58
8
6
19
17
15
16
18
21
14
13

>  <PUBCHEM_MMFF94_PARTIAL_CHARGES>  (1) 
17
1 -0.29
10 -0.15
11 -0.15
12 0.18
13 -0.15
14 -0.15
2 -0.18
26 0.15
27 0.15
28 0.15
29 0.15
3 -0.81
4 0.41
5 0.27
6 0.27
7 -0.14
8 0.29

>  <PUBCHEM_EFFECTIVE_ROTOR_COUNT>  (1) 
5

>  <PUBCHEM_PHARMACOPHORE_FEATURES>  (1) 
2
1 3 cation
6 7 10 11 12 13 14 rings

>  <PUBCHEM_HEAVY_ATOM_COUNT>  (1) 
14

>  <PUBCHEM_ATOM_DEF_STEREO_COUNT>  (1) 
0

>  <PUBCHEM_ATOM_UDEF_STEREO_COUNT>  (1) 
0

>  <PUBCHEM_BOND_DEF_STEREO_COUNT>  (1) 
0

>  <PUBCHEM_BOND_UDEF_STEREO_COUNT>  (1) 
0

>  <PUBCHEM_ISOTOPIC_ATOM_COUNT>  (1) 
0

>  <PUBCHEM_COMPONENT_COUNT>  (1) 
1

>  <PUBCHEM_CACTVS_TAUTO_COUNT>  (1) 
1

>  <PUBCHEM_CONFORMER_ID>  (1) 
0000B48D00000003

>  <PUBCHEM_MMFF94_ENERGY>  (1) 
30.283

>  <PUBCHEM_FEATURE_SELFOVERLAP>  (1) 
10.148

>  <PUBCHEM_SHAPE_FINGERPRINT>  (1) 
107287 299 18343026562368053942
11132069 177 18340488971061711214
12119455 92 18342162385183910392
12202030 40 18191328016788933495
12892183 10 17843993432204825651
12932764 1 17346045463165570005
13214271 11 18334287686657628509
13296908 3 18262531298823887919
13296909 8 16226312751450307732
14115302 16 15430043192425696195
15099037 37 18113620126773843523
15207287 21 18260821626967421731
15219456 202 18338515240173070846
15279308 16 18337101268177955668
15309172 13 18201434822329321712
15375358 24 18335414639031840741
16945 1 18270413770819008581
1813 80 13407350687053118698
18380122 1 18409174306949584142
19049666 15 18120657933273411525
201361 129 16486988253845064794
20201158 50 18335985281250414759
20279233 1 18334577919293948311
204376 136 18130218363440009836
20645464 45 18187361013332715173
20645477 70 17916297243110186311
20711985 327 14129054799292290494
20715346 28 18337399248771766783
21061003 4 18272658973378674809
21499 59 17917419956647134444
21618674 53 16056889056123505715
22079108 93 17202764946022562178
23048698 100 16988843839463602965
23236772 104 16343701053880429235
232386 152 16805327703455831896
23402539 116 17749935731275777085
23557571 272 18113911420177739717
23559900 14 17823702967216507478
23598291 2 14490479676952401530
2748010 2 18263373498939900783
3086196 2 17530962522731081985
458136 41 18059869376106814806
474 4 16916497181410843800
568465 68 18341339997203518777
573450 72 16588292891584063336
5902787 121 17531257204864193825
633830 44 17131844191721818624
7615 1 16127804137405408099
77492 1 16200146556410044231
81228 2 18044667394823203509
81539 233 18412819171406714166
88987 49 17241054188703350135

>  <PUBCHEM_SHAPE_MULTIPOLES>  (1) 
286.87
7.71
1.83
1.56
5.28
1.13
-0.34
-1.61
-3.49
0.48
0.61
-0.6
0.46
2.32

>  <PUBCHEM_SHAPE_SELFOVERLAP>  (1) 
557.161

>  <PUBCHEM_SHAPE_VOLUME>  (1) 
175.8

>  <PUBCHEM_COORDINATE_TYPE>  (1) 
2
5
10

$$$$
