46223
     RDKit          3D

 14 14  0  0  1  0  0  0  0  0999 V2000
    5.1693    1.4467   -0.1136 Cl  0  0  0  0  0  0  0  0  0  0  0  0
   -5.0741    0.0805    0.4498 Cl  0  0  0  0  0  0  0  0  0  0  0  0
    1.5905   -0.3779    0.1810 N   0  0  0  0  0  0  0  0  0  0  0  0
    0.8053    0.5044   -0.6814 C   0  0  0  0  0  0  0  0  0  0  0  0
    3.0195   -0.2071   -0.0789 C   0  0  0  0  0  0  0  0  0  0  0  0
    1.1973   -1.7720   -0.0205 C   0  0  0  0  0  0  0  0  0  0  0  0
   -0.6696    0.3984   -0.3980 C   0  0  0  0  0  0  0  0  0  0  0  0
    3.4348    1.2253    0.2187 C   0  0  0  0  0  0  0  0  0  0  0  0
    2.0037   -2.7038    0.8683 C   0  0  0  0  0  0  0  0  0  0  0  0
   -1.4326   -0.5335   -1.0874 C   0  0  0  0  0  0  0  0  0  0  0  0
   -1.2452    1.2338    0.5491 C   0  0  0  0  0  0  0  0  0  0  0  0
   -2.7989   -0.6322   -0.8243 C   0  0  0  0  0  0  0  0  0  0  0  0
   -2.6115    1.1352    0.8121 C   0  0  0  0  0  0  0  0  0  0  0  0
   -3.3884    0.2022    0.1253 C   0  0  0  0  0  0  0  0  0  0  0  0
  1  8  1  0
  2 14  1  0
  3  4  1  0
  3  5  1  0
  3  6  1  0
  4  7  1  0
  5  8  1  0
  6  9  1  0
  7 10  2  0
  7 11  1  0
 10 12  1  0
 11 13  2  0
 12 14  2  0
 13 14  1  0
M  END
>  <PUBCHEM_COMPOUND_CID>  (1) 
46223

>  <PUBCHEM_CONFORMER_RMSD>  (1) 
0.6

>  <PUBCHEM_CONFORMER_DIVERSEORDER>  (1) 
3
15
13
18
14
17
16
24
8
21
2
12
23
9
1
19
20
25
7
4
22
5
6
11
10

>  <PUBCHEM_MMFF94_PARTIAL_CHARGES>  (1) 
17
1 -0.29
10 -0.15
11 -0.15
12 -0.15
13 -0.15
14 0.18
2 -0.18
26 0.15
27 0.15
28 0.15
29 0.15
3 -0.81
4 0.41
5 0.27
6 0.27
7 -0.14
8 0.29

>  <PUBCHEM_EFFECTIVE_ROTOR_COUNT>  (1) 
5

>  <PUBCHEM_PHARMACOPHORE_FEATURES>  (1) 
2
1 3 cation
6 7 10 11 12 13 14 rings

>  <PUBCHEM_HEAVY_ATOM_COUNT>  (1) 
14

>  <PUBCHEM_ATOM_DEF_STEREO_COUNT>  (1) 
0

>  <PUBCHEM_ATOM_UDEF_STEREO_COUNT>  (1) 
0

>  <PUBCHEM_BOND_DEF_STEREO_COUNT>  (1) 
0

>  <PUBCHEM_BOND_UDEF_STEREO_COUNT>  (1) 
0

>  <PUBCHEM_ISOTOPIC_ATOM_COUNT>  (1) 
0

>  <PUBCHEM_COMPONENT_COUNT>  (1) 
1

>  <PUBCHEM_CACTVS_TAUTO_COUNT>  (1) 
1

>  <PUBCHEM_CONFORMER_ID>  (1) 
0000B48F00000003

>  <PUBCHEM_MMFF94_ENERGY>  (1) 
31.129

>  <PUBCHEM_FEATURE_SELFOVERLAP>  (1) 
10.148

>  <PUBCHEM_SHAPE_FINGERPRINT>  (1) 
12346645 44 18342175570485511228
124424 183 11671788186414029684
12932764 1 18265057933362579941
13760787 19 18272649065094474359
13897977 58 17989491839904352849
14252887 29 17749116556236702075
14787075 74 18198341964549564937
14911166 2 11527952261454349164
15207287 21 16588025731506100785
15342168 16 18043256932095359700
15375358 24 17530682104484936037
15375462 189 18343860009393399803
15669948 3 17703778228678000711
15775835 57 18202003230742921640
170605 34 18272092682240916158
18186145 218 18411979174619532492
201361 129 18341897338230247192
20279233 1 16298109765580030873
204376 136 18187366588395190900
20510252 161 17345763988647886681
20645477 70 18263914450324234543
21524375 3 18340767135114372476
22445834 79 18339922598040525459
23048698 100 18342740672112117867
23236772 104 18343863333460631851
23402539 116 18130500942244616348
23598294 1 17489011760643952959
33824 294 18187646886065923314
34934 24 18342454837996887269
449060 50 18408887338852165741
458136 41 18334579036323360666
474 4 18336269036987115412
5104073 3 18189904123851401393
633830 44 18342458183903135212
7364860 26 18271527477488063582

>  <PUBCHEM_SHAPE_MULTIPOLES>  (1) 
286.87
8.96
1.93
0.94
1.14
1.32
0.06
-3.44
-0.97
2.02
-0.55
-0.34
0.12
-0.76

>  <PUBCHEM_SHAPE_SELFOVERLAP>  (1) 
557.053

>  <PUBCHEM_SHAPE_VOLUME>  (1) 
176.1

>  <PUBCHEM_COORDINATE_TYPE>  (1) 
2
5
10

$$$$
