46227
     RDKit          3D

 15 15  0  0  1  0  0  0  0  0999 V2000
   -5.5835   -1.1992    0.3275 Cl  0  0  0  0  0  0  0  0  0  0  0  0
   -1.9095    0.4266    0.0421 N   0  0  0  0  0  0  0  0  0  0  0  0
   -1.1842   -0.7242   -0.4948 C   0  0  0  0  0  0  0  0  0  0  0  0
    0.2980   -0.6150   -0.2546 C   0  0  0  0  0  0  0  0  0  0  0  0
   -3.3491    0.2610   -0.1551 C   0  0  0  0  0  0  0  0  0  0  0  0
   -1.4460    1.6622   -0.5881 C   0  0  0  0  0  0  0  0  0  0  0  0
    0.7606   -0.2218    0.9933 C   0  0  0  0  0  0  0  0  0  0  0  0
    1.1806   -0.9095   -1.2844 C   0  0  0  0  0  0  0  0  0  0  0  0
    3.0308   -0.4150    0.1890 C   0  0  0  0  0  0  0  0  0  0  0  0
   -3.8353   -0.9794    0.5784 C   0  0  0  0  0  0  0  0  0  0  0  0
   -2.1893    2.8694   -0.0418 C   0  0  0  0  0  0  0  0  0  0  0  0
    2.1340   -0.1213    1.2163 C   0  0  0  0  0  0  0  0  0  0  0  0
    2.5539   -0.8088   -1.0615 C   0  0  0  0  0  0  0  0  0  0  0  0
    4.4992   -0.3081    0.4270 C   0  0  0  0  0  0  0  0  0  0  0  0
    5.0396    1.0832    0.1067 C   0  0  0  0  0  0  0  0  0  0  0  0
  1 10  1  0
  2  3  1  0
  2  5  1  0
  2  6  1  0
  3  4  1  0
  4  7  2  0
  4  8  1  0
  5 10  1  0
  6 11  1  0
  7 12  1  0
  8 13  2  0
  9 12  2  0
  9 13  1  0
  9 14  1  0
 14 15  1  0
M  END
>  <PUBCHEM_COMPOUND_CID>  (1) 
46227

>  <PUBCHEM_CONFORMER_RMSD>  (1) 
0.6

>  <PUBCHEM_CONFORMER_DIVERSEORDER>  (1) 
3
76
19
13
78
35
26
75
2
67
14
69
72
41
79
27
70
54
74
36
40
6
44
66
12
33
42
77
29
18
56
58
49
30
43
15
73
34
20
63
10
52
16
46
64
45
60
25
31
21
61
37
71
4
32
68
8
47
51
57
55
50
48
24
28
59
62
1
53
65
9
39
38
11
5
7
23
22
17

>  <PUBCHEM_MMFF94_PARTIAL_CHARGES>  (1) 
17
1 -0.29
10 0.29
12 -0.15
13 -0.15
14 0.14
2 -0.81
22 0.15
23 0.15
29 0.15
3 0.41
30 0.15
4 -0.14
5 0.27
6 0.27
7 -0.15
8 -0.15
9 -0.14

>  <PUBCHEM_EFFECTIVE_ROTOR_COUNT>  (1) 
6

>  <PUBCHEM_PHARMACOPHORE_FEATURES>  (1) 
3
1 15 hydrophobe
1 2 cation
6 4 7 8 9 12 13 rings

>  <PUBCHEM_HEAVY_ATOM_COUNT>  (1) 
15

>  <PUBCHEM_ATOM_DEF_STEREO_COUNT>  (1) 
0

>  <PUBCHEM_ATOM_UDEF_STEREO_COUNT>  (1) 
0

>  <PUBCHEM_BOND_DEF_STEREO_COUNT>  (1) 
0

>  <PUBCHEM_BOND_UDEF_STEREO_COUNT>  (1) 
0

>  <PUBCHEM_ISOTOPIC_ATOM_COUNT>  (1) 
0

>  <PUBCHEM_COMPONENT_COUNT>  (1) 
1

>  <PUBCHEM_CACTVS_TAUTO_COUNT>  (1) 
1

>  <PUBCHEM_CONFORMER_ID>  (1) 
0000B49300000003

>  <PUBCHEM_MMFF94_ENERGY>  (1) 
31.8246

>  <PUBCHEM_FEATURE_SELFOVERLAP>  (1) 
15.223

>  <PUBCHEM_SHAPE_FINGERPRINT>  (1) 
10354089 29 15698005149682737147
11401426 45 14562526301559400851
12236239 1 17240480316785485195
12916748 109 18410294722821421672
12932764 1 17560221557912004494
13214271 11 18342172250750234693
13764800 53 18197216936806452681
14787075 74 17968940932129877016
15219456 202 17987798493075907350
17834072 8 10807945872456483176
17844478 74 18130788928101382681
17862501 102 17530679901166862874
18186145 218 17845662417598634974
19010151 120 16660648448830081543
192875 21 16298109795386378373
200 152 16008744719335622287
20344682 1 18202285822590640031
20510252 161 18340488872324942897
20645477 56 17917418865946902896
20645477 70 16844163433443739319
21652331 79 18410852209318479824
23402539 116 18335133207057661007
23402655 69 16415480407104787539
23557571 272 18412550885599407644
23559900 14 18123185706200457246
25 1 16917064434884409574
26918003 58 17167864196863515691
314173 85 18411711989167651579
4072396 5 12901812952909568904
5104073 3 18270114600619250106
621550 34 18060424590391548119
81228 2 18191041023317174849

>  <PUBCHEM_SHAPE_MULTIPOLES>  (1) 
305.58
9.97
1.8
1.06
1.91
1.74
0.04
-1.55
-1.76
1.71
0.19
-0.47
-0.2
0.57

>  <PUBCHEM_SHAPE_SELFOVERLAP>  (1) 
599.061

>  <PUBCHEM_SHAPE_VOLUME>  (1) 
185.4

>  <PUBCHEM_COORDINATE_TYPE>  (1) 
2
5
10

$$$$
