46244
     RDKit          3D

 15 15  0  0  1  0  0  0  0  0999 V2000
    2.0705    0.6807    1.4234 O   0  0  0  0  0  0  0  0  0  0  0  0
    0.6959    2.1541   -0.0575 O   0  0  0  0  0  0  0  0  0  0  0  0
   -3.1706   -1.7732    0.0863 O   0  0  0  0  0  0  0  0  0  0  0  0
    3.7011   -1.2211    0.0000 N   0  0  0  0  0  0  0  0  0  0  0  0
    1.4751   -0.4597    0.7914 C   0  0  0  0  0  0  0  0  0  0  0  0
    0.0784   -0.1186    0.3892 C   0  0  0  0  0  0  0  0  0  0  0  0
    2.3391   -0.8879   -0.4107 C   0  0  0  0  0  0  0  0  0  0  0  0
   -0.2502    1.1745   -0.0181 C   0  0  0  0  0  0  0  0  0  0  0  0
   -0.9031   -1.1092    0.4244 C   0  0  0  0  0  0  0  0  0  0  0  0
   -2.2130   -0.8068    0.0525 C   0  0  0  0  0  0  0  0  0  0  0  0
   -1.5602    1.4767   -0.3901 C   0  0  0  0  0  0  0  0  0  0  0  0
   -2.5416    0.4862   -0.3548 C   0  0  0  0  0  0  0  0  0  0  0  0
    4.4952   -1.6471   -1.1424 C   0  0  0  0  0  0  0  0  0  0  0  0
    0.2726    3.4469   -0.4859 C   0  0  0  0  0  0  0  0  0  0  0  0
   -4.4889   -1.3954   -0.3077 C   0  0  0  0  0  0  0  0  0  0  0  0
  1  5  1  0
  2  8  1  0
  2 14  1  0
  3 10  1  0
  3 15  1  0
  4  7  1  0
  4 13  1  0
  5  6  1  0
  5  7  1  0
  6  8  2  0
  6  9  1  0
  8 11  1  0
  9 10  2  0
 10 12  1  0
 11 12  2  0
M  END
>  <PUBCHEM_COMPOUND_CID>  (1) 
46244

>  <PUBCHEM_CONFORMER_RMSD>  (1) 
0.6

>  <PUBCHEM_CONFORMER_DIVERSEORDER>  (1) 
13
33
4
45
49
20
8
47
51
3
42
43
53
15
46
48
7
35
41
56
34
54
52
29
5
50
55
24
22
28
16
40
30
25
14
6
37
36
9
18
19
27
39
44
32
23
17
12
31
21
2
26
38
11
10
1

>  <PUBCHEM_MMFF94_PARTIAL_CHARGES>  (1) 
20
1 -0.68
10 0.08
11 -0.15
12 -0.15
13 0.27
14 0.28
15 0.28
19 0.15
2 -0.36
20 0.36
21 0.15
22 0.15
23 0.4
3 -0.36
4 -0.9
5 0.42
6 -0.14
7 0.27
8 0.08
9 -0.15

>  <PUBCHEM_EFFECTIVE_ROTOR_COUNT>  (1) 
5

>  <PUBCHEM_PHARMACOPHORE_FEATURES>  (1) 
7
1 1 acceptor
1 1 donor
1 2 acceptor
1 3 acceptor
1 4 cation
1 4 donor
6 6 8 9 10 11 12 rings

>  <PUBCHEM_HEAVY_ATOM_COUNT>  (1) 
15

>  <PUBCHEM_ATOM_DEF_STEREO_COUNT>  (1) 
0

>  <PUBCHEM_ATOM_UDEF_STEREO_COUNT>  (1) 
1

>  <PUBCHEM_BOND_DEF_STEREO_COUNT>  (1) 
0

>  <PUBCHEM_BOND_UDEF_STEREO_COUNT>  (1) 
0

>  <PUBCHEM_ISOTOPIC_ATOM_COUNT>  (1) 
0

>  <PUBCHEM_COMPONENT_COUNT>  (1) 
1

>  <PUBCHEM_CACTVS_TAUTO_COUNT>  (1) 
1

>  <PUBCHEM_CONFORMER_ID>  (1) 
0000B4A40000000D

>  <PUBCHEM_MMFF94_ENERGY>  (1) 
53.6556

>  <PUBCHEM_FEATURE_SELFOVERLAP>  (1) 
35.543

>  <PUBCHEM_SHAPE_FINGERPRINT>  (1) 
10465860 71 18261115166380562550
11206711 2 18040985229423842751
11543360 7 14779545712259351219
12032990 46 18412262835106998467
12553582 1 18334572434705672803
12841375 25 18410575093268915831
14178000 29 18342458187786853607
14252887 29 18268144434501029267
14790565 3 17762344612816702820
14911166 2 18263352621530954549
15219456 202 18201990036967333576
16945 1 18119513358891126385
17134986 127 16676690018848320516
17990270 104 18264763427629237857
18186145 218 17532358933217412023
19591789 44 17259626941883828601
20300324 65 18262531277939726550
20374829 77 18412260601740049678
20645477 70 18047459300223485631
20671657 53 18411141359184983591
20711985 344 18192706752635183664
20871998 22 18411132575802867849
20871999 31 18261110734053395511
21061003 4 16916781821799446154
21296965 67 18412262839317257875
21524375 3 17033040693786209784
22182313 1 18338778087776729652
22213442 358 18410856581309837478
22802520 49 18199461078492514794
23402539 116 18262516988325264694
23557571 272 18410849954639659984
23559900 14 18125433108848651194
2748010 2 18338214025500605697
3071541 250 18335989773738954397
3286 77 17418091031147519234
7364860 26 18195245752596158665
81228 2 18264486187369208880
83771 10 18272091599445310538

>  <PUBCHEM_SHAPE_MULTIPOLES>  (1) 
286.1
6.61
2.77
0.91
1.97
2.76
0.08
-6.27
-1.9
-0.14
-0.57
0.62
-0.04
0.62

>  <PUBCHEM_SHAPE_SELFOVERLAP>  (1) 
580.537

>  <PUBCHEM_SHAPE_VOLUME>  (1) 
167.8

>  <PUBCHEM_COORDINATE_TYPE>  (1) 
2
5
10

$$$$
