46247
     RDKit          3D

 21 22  0  0  1  0  0  0  0  0999 V2000
    2.7894    2.0468    0.6358 O   0  0  0  0  0  0  0  0  0  0  0  0
    4.1957   -0.4460    0.3016 N   0  0  0  0  0  0  0  0  0  0  0  0
    4.6795   -1.6990    0.8981 C   0  0  0  0  0  0  0  0  0  0  0  0
    4.6389   -0.3160   -1.0936 C   0  0  0  0  0  0  0  0  0  0  0  0
    6.2067   -1.7727    0.8638 C   0  0  0  0  0  0  0  0  0  0  0  0
    6.1649   -0.3443   -1.1929 C   0  0  0  0  0  0  0  0  0  0  0  0
    6.7386   -1.6043   -0.5550 C   0  0  0  0  0  0  0  0  0  0  0  0
    2.7374   -0.3698    0.3845 C   0  0  0  0  0  0  0  0  0  0  0  0
    2.2101    0.9836   -0.1326 C   0  0  0  0  0  0  0  0  0  0  0  0
    0.7242    1.0786   -0.0513 C   0  0  0  0  0  0  0  0  0  0  0  0
   -3.5416    1.3515    0.1822 C   0  0  0  0  0  0  0  0  0  0  0  0
   -4.2070   -0.0111   -0.0230 C   0  0  0  0  0  0  0  0  0  0  0  0
   -2.0397    1.2558    0.1001 C   0  0  0  0  0  0  0  0  0  0  0  0
    0.0812    0.9185    1.1761 C   0  0  0  0  0  0  0  0  0  0  0  0
   -0.0227    1.3279   -1.2026 C   0  0  0  0  0  0  0  0  0  0  0  0
   -5.7286    0.0906    0.0980 C   0  0  0  0  0  0  0  0  0  0  0  0
   -1.3088    1.0075    1.2522 C   0  0  0  0  0  0  0  0  0  0  0  0
   -1.4127    1.4170   -1.1265 C   0  0  0  0  0  0  0  0  0  0  0  0
   -6.3972   -1.2642   -0.1402 C   0  0  0  0  0  0  0  0  0  0  0  0
   -7.9195   -1.1562   -0.0524 C   0  0  0  0  0  0  0  0  0  0  0  0
   -8.5889   -2.4943   -0.3223 C   0  0  0  0  0  0  0  0  0  0  0  0
  1  9  1  0
  2  3  1  0
  2  4  1  0
  2  8  1  0
  3  5  1  0
  4  6  1  0
  5  7  1  0
  6  7  1  0
  8  9  1  0
  9 10  1  0
 10 14  2  0
 10 15  1  0
 11 12  1  0
 11 13  1  0
 12 16  1  0
 13 17  2  0
 13 18  1  0
 14 17  1  0
 15 18  2  0
 16 19  1  0
 19 20  1  0
 20 21  1  0
M  END
>  <PUBCHEM_COMPOUND_CID>  (1) 
46247

>  <PUBCHEM_CONFORMER_RMSD>  (1) 
0.8

>  <PUBCHEM_CONFORMER_DIVERSEORDER>  (1) 
1
309
7
145
289
169
6
276
263
20
231
342
71
337
316
219
282
343
345
363
255
135
129
245
176
284
277
250
151
136
349
352
359
358
355
161
178
313
202
220
361
222
87
59
242
312
290
141
186
294
322
217
114
339
247
148
239
184
224
230
227
172
287
258
188
341
297
272
199
93
110
333
354
271
301
168
146
240
353
167
124
293
43
356
246
317
28
218
128
19
340
160
315
163
260
306
320
76
68
365
189
132
112
33
275
286
216
187
64
323
332
311
31
344
39
84
325
2
75
159
116
208
147
336
273
79
249
105
4
100
142
152
314
296
51
237
221
82
42
47
143
137
259
58
80
236
88
335
248
131
203
366
211
122
212
338
109
308
108
153
324
94
30
334
117
298
173
27
196
182
262
48
328
21
126
198
158
318
25
362
38
364
267
327
256
63
102
8
299
155
144
244
36
171
285
253
118
174
13
195
215
81
209
295
329
162
181
191
170
15
351
214
57
280
307
185
5
200
264
92
77
257
348
204
26
228
367
201
360
223
232
17
268
91
346
274
303
40
140
350
326
125
150
190
29
134
292
120
133
177
53
104
35
127
319
90
241
302
107
229
78
69
65
50
281
291
97
238
83
32
18
61
11
138
86
115
305
10
279
252
193
9
157
85
347
73
283
154
37
180
331
210
130
357
330
46
243
56
265
261
278
34
288
66
270
183
12
41
207
62
179
310
266
16
3
89
269
49
175
300
164
225
123
74
197
95
165
55
22
121
14
70
23
254
149
156
106
206
119
111
99
321
234
235
226
44
194
98
67
205
103
60
166
139
96
192
45
213
72
304
52
233
54
113
251
101
24

>  <PUBCHEM_MMFF94_PARTIAL_CHARGES>  (1) 
18
1 -0.68
10 -0.14
11 0.14
13 -0.14
14 -0.15
15 -0.15
17 -0.15
18 -0.15
2 -0.81
3 0.27
4 0.27
41 0.15
42 0.15
45 0.15
46 0.15
47 0.4
8 0.27
9 0.42

>  <PUBCHEM_EFFECTIVE_ROTOR_COUNT>  (1) 
9.2

>  <PUBCHEM_PHARMACOPHORE_FEATURES>  (1) 
7
1 1 acceptor
1 1 donor
1 2 cation
1 21 hydrophobe
5 11 12 16 19 20 hydrophobe
6 10 13 14 15 17 18 rings
6 2 3 4 5 6 7 rings

>  <PUBCHEM_HEAVY_ATOM_COUNT>  (1) 
21

>  <PUBCHEM_ATOM_DEF_STEREO_COUNT>  (1) 
0

>  <PUBCHEM_ATOM_UDEF_STEREO_COUNT>  (1) 
1

>  <PUBCHEM_BOND_DEF_STEREO_COUNT>  (1) 
0

>  <PUBCHEM_BOND_UDEF_STEREO_COUNT>  (1) 
0

>  <PUBCHEM_ISOTOPIC_ATOM_COUNT>  (1) 
0

>  <PUBCHEM_COMPONENT_COUNT>  (1) 
1

>  <PUBCHEM_CACTVS_TAUTO_COUNT>  (1) 
1

>  <PUBCHEM_CONFORMER_ID>  (1) 
0000B4A700000001

>  <PUBCHEM_MMFF94_ENERGY>  (1) 
26.8437

>  <PUBCHEM_FEATURE_SELFOVERLAP>  (1) 
35.52

>  <PUBCHEM_SHAPE_FINGERPRINT>  (1) 
10 15 13110964241057578907
10299344 5 18335707126499662575
10693767 8 17821719525164374035
10740516 88 18341347634083782247
117890 112 9655570812212044820
125118 31 9295297144532747119
13288520 33 18410294679735007925
13533116 47 18340485668089825785
13540713 4 15721107078857401177
13540713 5 15193569087805012945
13668630 136 18341897355357518398
13673619 4 18413669123981127937
13685833 64 18342739615354971169
13862211 1 18408604751647684971
14123256 34 18202004321960079031
14178184 131 18129380574652277471
14341114 176 14692563287772933656
15183329 4 16805601452261137355
15238133 3 10663808707244067922
15475509 35 18272923921231501514
15510800 12 18341066167728394639
1768 4 7997694234275954303
1813 80 17845376558056914016
18222031 100 17749105608355106021
18335252 114 12396294863846516006
18335252 98 17989207041166215678
200 152 18114748110499674664
20028762 73 18272932730357586159
2026 5 18410571765435159343
20526848 3 9295291651517436815
21150785 3 17022904566550869677
21267235 1 18343023294008548799
21304304 249 18341614845700339263
21521239 73 17821447967055730539
21637258 2 18412258437445407777
22224240 67 13973964299212452373
22956985 138 17769388119296926198
23522609 53 18047223832256552508
23559900 14 18261113031771819161
23576562 1 14924521874344159599
2838139 119 8358253709915842227
3004659 81 18186798102202544945
3009799 131 14129064715786286367
312425 54 14620788310392373863
406291 66 18341609378507911375
465052 167 18202566180844257244
5104073 3 14763762239684502255
5718773 13 18335979792219387723
5937810 71 13768192876171765519
59682541 35 17560795541921479770
59682541 52 17095248037817329278
636775 8 18202292381427869966

>  <PUBCHEM_SHAPE_MULTIPOLES>  (1) 
421.32
22.36
2.19
1.14
24.76
0.61
-0.04
22.44
-3.02
1.18
0.07
-1.02
-0.15
-0.78

>  <PUBCHEM_SHAPE_SELFOVERLAP>  (1) 
844.511

>  <PUBCHEM_SHAPE_VOLUME>  (1) 
248.3

>  <PUBCHEM_COORDINATE_TYPE>  (1) 
2
5
10

$$$$
