46246
     RDKit          3D

 15 15  0  0  1  0  0  0  0  0999 V2000
    0.9501    2.3683    0.3913 O   0  0  0  0  0  0  0  0  0  0  0  0
    1.4735   -1.8514    0.0851 O   0  0  0  0  0  0  0  0  0  0  0  0
   -3.4885    0.5407   -0.1431 O   0  0  0  0  0  0  0  0  0  0  0  0
    3.4595    1.6497   -0.9295 N   0  0  0  0  0  0  0  0  0  0  0  0
    1.3517    0.9966    0.2696 C   0  0  0  0  0  0  0  0  0  0  0  0
    0.1069    0.1170    0.1120 C   0  0  0  0  0  0  0  0  0  0  0  0
    2.2280    0.8650   -0.9984 C   0  0  0  0  0  0  0  0  0  0  0  0
    2.1183    0.6446    1.5564 C   0  0  0  0  0  0  0  0  0  0  0  0
    0.2532   -1.2480    0.0305 C   0  0  0  0  0  0  0  0  0  0  0  0
   -1.1184    0.7408    0.0575 C   0  0  0  0  0  0  0  0  0  0  0  0
   -2.2616   -0.0456   -0.0865 C   0  0  0  0  0  0  0  0  0  0  0  0
   -0.8901   -2.0343   -0.1134 C   0  0  0  0  0  0  0  0  0  0  0  0
   -2.1474   -1.4330   -0.1720 C   0  0  0  0  0  0  0  0  0  0  0  0
    1.4978   -3.2741   -0.0099 C   0  0  0  0  0  0  0  0  0  0  0  0
   -3.5330    1.9638   -0.0497 C   0  0  0  0  0  0  0  0  0  0  0  0
  1  5  1  0
  2  9  1  0
  2 14  1  0
  3 11  1  0
  3 15  1  0
  4  7  1  0
  5  6  1  0
  5  7  1  0
  5  8  1  0
  6  9  2  0
  6 10  1  0
  9 12  1  0
 10 11  2  0
 11 13  1  0
 12 13  2  0
M  END
>  <PUBCHEM_COMPOUND_CID>  (1) 
46246

>  <PUBCHEM_CONFORMER_RMSD>  (1) 
0.6

>  <PUBCHEM_CONFORMER_DIVERSEORDER>  (1) 
17
2
7
28
9
23
27
22
6
19
5
4
24
29
20
21
18
26
16
15
1
8
11
25
10
14
12
13
3

>  <PUBCHEM_MMFF94_PARTIAL_CHARGES>  (1) 
20
1 -0.68
10 -0.15
11 0.08
12 -0.15
13 -0.15
14 0.28
15 0.28
2 -0.36
21 0.15
22 0.4
23 0.15
24 0.36
25 0.36
26 0.15
3 -0.36
4 -0.99
5 0.42
6 -0.14
7 0.27
9 0.08

>  <PUBCHEM_EFFECTIVE_ROTOR_COUNT>  (1) 
4

>  <PUBCHEM_PHARMACOPHORE_FEATURES>  (1) 
7
1 1 acceptor
1 1 donor
1 2 acceptor
1 3 acceptor
1 4 cation
1 4 donor
6 6 9 10 11 12 13 rings

>  <PUBCHEM_HEAVY_ATOM_COUNT>  (1) 
15

>  <PUBCHEM_ATOM_DEF_STEREO_COUNT>  (1) 
0

>  <PUBCHEM_ATOM_UDEF_STEREO_COUNT>  (1) 
1

>  <PUBCHEM_BOND_DEF_STEREO_COUNT>  (1) 
0

>  <PUBCHEM_BOND_UDEF_STEREO_COUNT>  (1) 
0

>  <PUBCHEM_ISOTOPIC_ATOM_COUNT>  (1) 
0

>  <PUBCHEM_COMPONENT_COUNT>  (1) 
1

>  <PUBCHEM_CACTVS_TAUTO_COUNT>  (1) 
1

>  <PUBCHEM_CONFORMER_ID>  (1) 
0000B4A600000011

>  <PUBCHEM_MMFF94_ENERGY>  (1) 
64.2568

>  <PUBCHEM_FEATURE_SELFOVERLAP>  (1) 
35.523

>  <PUBCHEM_SHAPE_FINGERPRINT>  (1) 
10726558 24 18335715961136757468
10967382 1 18339640014935729251
10980938 120 18411417272263409409
11680986 33 18340200787356997747
12173636 292 18120939661558591924
12423570 1 16245210843944583762
13132413 78 17547572578503629869
13380535 21 18409739451990093731
13380535 220 17761778360195941292
13380535 76 18337099142453928691
14648413 74 18335987458867782395
15490181 7 18199743828958734103
15490181 8 18335132150337535003
15775835 57 18187364388755120676
16945 1 18268141140387700243
193761 8 18411416211486173603
20510252 161 17983016948987847065
20511035 2 18271233933368505367
20645476 183 17970915681284254934
20671657 1 18341609274573237779
20711985 344 17617375525555172566
21029758 27 17831592971893447903
21501502 16 18410006629010347399
21524375 3 18188484791145639095
22802520 49 17406289088499710414
2334 1 18411979144306860715
23419403 2 17476322069340416032
23526113 38 17844548766927984020
23552423 10 18409164389976047391
25 1 18409173198821687093
2748010 2 18411417268074216455
305870 269 18411971477331191202
3071541 12 18266182738063259463
3071541 158 17975413512390790783
3071541 250 18052549776323090071
5084963 1 17771639119660104394
53812653 166 18343299271010532256
53812653 8 18046626982146336210
57177213 63 18335139834028590399
7364860 26 18271238313997659954
81228 2 17189533603477523691

>  <PUBCHEM_SHAPE_MULTIPOLES>  (1) 
286.1
4.75
3.02
0.9
2.52
1.75
0.14
-2.7
-0.62
-1.14
-0.1
-0.7
-0.3
-0.27

>  <PUBCHEM_SHAPE_SELFOVERLAP>  (1) 
589.137

>  <PUBCHEM_SHAPE_VOLUME>  (1) 
164.6

>  <PUBCHEM_COORDINATE_TYPE>  (1) 
2
5
10

$$$$
