4625
     RDKit          3D

 16 18  0  0  0  0  0  0  0  0999 V2000
   -1.0478    2.0057   -0.0375 O   0  0  0  0  0  0  0  0  0  0  0  0
    1.3082    1.8401    0.0173 N   0  0  0  0  0  0  0  0  0  0  0  0
   -2.9344   -0.5073    1.0710 N   0  0  0  0  0  0  0  0  0  0  0  0
    1.5554   -0.4459   -0.0235 C   0  0  0  0  0  0  0  0  0  0  0  0
    0.1331   -0.1228   -0.0522 C   0  0  0  0  0  0  0  0  0  0  0  0
    2.2234    0.7815    0.0181 C   0  0  0  0  0  0  0  0  0  0  0  0
   -0.0090    1.3715   -0.0250 C   0  0  0  0  0  0  0  0  0  0  0  0
   -0.9081   -0.9563   -0.0955 C   0  0  0  0  0  0  0  0  0  0  0  0
    2.2619   -1.6337   -0.0312 C   0  0  0  0  0  0  0  0  0  0  0  0
   -2.3132   -0.6235   -0.1235 C   0  0  0  0  0  0  0  0  0  0  0  0
    3.6010    0.8728    0.0537 C   0  0  0  0  0  0  0  0  0  0  0  0
    3.6588   -1.5642    0.0042 C   0  0  0  0  0  0  0  0  0  0  0  0
    4.3217   -0.3231    0.0463 C   0  0  0  0  0  0  0  0  0  0  0  0
   -3.1775   -0.3927   -1.1335 C   0  0  0  0  0  0  0  0  0  0  0  0
   -4.2471   -0.1897    0.8374 C   0  0  0  0  0  0  0  0  0  0  0  0
   -4.4264   -0.1124   -0.5259 C   0  0  0  0  0  0  0  0  0  0  0  0
  1  7  2  0
  2  6  1  0
  2  7  1  0
  3 10  1  0
  3 15  1  0
  4  5  1  0
  4  6  2  0
  4  9  1  0
  5  7  1  0
  5  8  2  0
  6 11  1  0
  8 10  1  0
  9 12  2  0
 10 14  2  0
 11 13  2  0
 12 13  1  0
 14 16  1  0
 15 16  2  0
M  END
>  <PUBCHEM_COMPOUND_CID>  (1) 
4625

>  <PUBCHEM_CONFORMER_RMSD>  (1) 
0.6

>  <PUBCHEM_CONFORMER_DIVERSEORDER>  (1) 
2
1

>  <PUBCHEM_MMFF94_PARTIAL_CHARGES>  (1) 
26
1 -0.57
10 -0.2
11 -0.15
12 -0.15
13 -0.15
14 -0.15
15 -0.3
16 -0.15
17 0.37
18 0.15
19 0.15
2 -0.55
20 0.15
21 0.15
22 0.15
23 0.27
24 0.15
25 0.15
26 0.15
3 0.03
4 0.03
5 -0.01
6 0.12
7 0.62
8 -0.11
9 -0.15

>  <PUBCHEM_EFFECTIVE_ROTOR_COUNT>  (1) 
1.2

>  <PUBCHEM_PHARMACOPHORE_FEATURES>  (1) 
7
1 1 acceptor
1 2 donor
1 3 cation
1 3 donor
5 2 4 5 6 7 rings
5 3 10 14 15 16 rings
6 4 6 9 11 12 13 rings

>  <PUBCHEM_HEAVY_ATOM_COUNT>  (1) 
16

>  <PUBCHEM_ATOM_DEF_STEREO_COUNT>  (1) 
0

>  <PUBCHEM_ATOM_UDEF_STEREO_COUNT>  (1) 
0

>  <PUBCHEM_BOND_DEF_STEREO_COUNT>  (1) 
0

>  <PUBCHEM_BOND_UDEF_STEREO_COUNT>  (1) 
1

>  <PUBCHEM_ISOTOPIC_ATOM_COUNT>  (1) 
0

>  <PUBCHEM_COMPONENT_COUNT>  (1) 
1

>  <PUBCHEM_CACTVS_TAUTO_COUNT>  (1) 
2

>  <PUBCHEM_CONFORMER_ID>  (1) 
0000121100000002

>  <PUBCHEM_MMFF94_ENERGY>  (1) 
49.557

>  <PUBCHEM_FEATURE_SELFOVERLAP>  (1) 
35.609

>  <PUBCHEM_SHAPE_FINGERPRINT>  (1) 
10618630 7 18408886217781246948
11471102 20 18409726283403950030
11578080 2 17487585633864802273
12032990 46 18334860510687946666
12236239 1 17775286080145677215
124424 183 18260265261436092551
12670546 56 17561079207020028345
13140716 1 18194678409328537106
13296908 3 18186802495616621427
13571099 22 18409444804084825263
13675066 3 18261392277823403161
13760787 5 18410856576840797020
14115302 16 17676779737632315942
14144814 61 18343023297976663387
14251717 144 18341891900638490374
14252887 29 18272660025846083126
14289901 80 14979960297665063823
14576447 43 18057308690529395511
15196674 1 18410855425826647101
15375358 24 18260264174477122474
15375462 189 18272651255221768794
15653759 3 17385723621197823859
15848700 24 18412536617802329524
16945 1 18411135878912299700
18186145 218 17458059365559602707
200 152 18201994421933828661
20279233 1 17967533484485334035
20281475 54 18342174487848024974
20645477 70 18410569561399031238
20871998 22 18199757946801131430
21267235 1 18411427185143224822
21501502 16 18267587914387884696
21501925 9 18409721834218745090
22094290 60 16081084875008505567
23175994 123 18186805777240674077
23184049 59 18343024397520024175
23402539 116 18342730810603533759
23559900 14 18113899356168668474
26918003 58 18113616789668780554
2748010 2 18267578010230171644
2871803 45 18334294223988203926
34934 24 18340197596364724830
5104073 3 18338232665785252264
7364860 26 18341611585593249296
77492 1 17703792552430823239
83771 10 18413106139155875340
8809292 202 18114186370951681595

>  <PUBCHEM_SHAPE_MULTIPOLES>  (1) 
313.44
8.48
1.64
0.81
2.59
0.44
0
-1.82
-0.22
-1.08
0.01
0.71
-0.08
0.01

>  <PUBCHEM_SHAPE_SELFOVERLAP>  (1) 
704.392

>  <PUBCHEM_SHAPE_VOLUME>  (1) 
167.9

>  <PUBCHEM_COORDINATE_TYPE>  (1) 
2
5
10

$$$$
