46258
     RDKit          3D

 12 12  0  0  1  0  0  0  0  0999 V2000
    1.6052    0.1050   -1.8861 O   0  0  0  0  0  0  0  0  0  0  0  0
    3.6797    0.4657    0.0412 N   0  0  0  0  0  0  0  0  0  0  0  0
    1.4513   -0.3978   -0.5559 C   0  0  0  0  0  0  0  0  0  0  0  0
    2.2648    0.4667    0.4336 C   0  0  0  0  0  0  0  0  0  0  0  0
   -0.0343   -0.4186   -0.2660 C   0  0  0  0  0  0  0  0  0  0  0  0
    2.1736   -0.0446    1.8726 C   0  0  0  0  0  0  0  0  0  0  0  0
   -0.7294    0.7767   -0.2153 C   0  0  0  0  0  0  0  0  0  0  0  0
   -0.6640   -1.6332   -0.0585 C   0  0  0  0  0  0  0  0  0  0  0  0
   -2.0983    0.7569    0.0517 C   0  0  0  0  0  0  0  0  0  0  0  0
   -2.0330   -1.6531    0.2084 C   0  0  0  0  0  0  0  0  0  0  0  0
   -2.7501   -0.4580    0.2636 C   0  0  0  0  0  0  0  0  0  0  0  0
   -2.8654    2.0344    0.1108 C   0  0  0  0  0  0  0  0  0  0  0  0
  1  3  1  0
  2  4  1  0
  3  4  1  0
  3  5  1  0
  4  6  1  0
  5  7  2  0
  5  8  1  0
  7  9  1  0
  8 10  2  0
  9 11  2  0
  9 12  1  0
 10 11  1  0
M  END
>  <PUBCHEM_COMPOUND_CID>  (1) 
46258

>  <PUBCHEM_CONFORMER_RMSD>  (1) 
0.6

>  <PUBCHEM_CONFORMER_DIVERSEORDER>  (1) 
1
17
9
4
21
15
8
13
5
14
3
11
16
18
10
19
6
12
7
2
20

>  <PUBCHEM_MMFF94_PARTIAL_CHARGES>  (1) 
18
1 -0.68
10 -0.15
11 -0.15
12 0.14
18 0.15
19 0.15
2 -0.99
20 0.36
21 0.36
22 0.15
23 0.15
24 0.4
3 0.42
4 0.27
5 -0.14
7 -0.15
8 -0.15
9 -0.14

>  <PUBCHEM_EFFECTIVE_ROTOR_COUNT>  (1) 
2

>  <PUBCHEM_PHARMACOPHORE_FEATURES>  (1) 
5
1 1 acceptor
1 1 donor
1 2 cation
1 2 donor
6 5 7 8 9 10 11 rings

>  <PUBCHEM_HEAVY_ATOM_COUNT>  (1) 
12

>  <PUBCHEM_ATOM_DEF_STEREO_COUNT>  (1) 
0

>  <PUBCHEM_ATOM_UDEF_STEREO_COUNT>  (1) 
2

>  <PUBCHEM_BOND_DEF_STEREO_COUNT>  (1) 
0

>  <PUBCHEM_BOND_UDEF_STEREO_COUNT>  (1) 
0

>  <PUBCHEM_ISOTOPIC_ATOM_COUNT>  (1) 
0

>  <PUBCHEM_COMPONENT_COUNT>  (1) 
1

>  <PUBCHEM_CACTVS_TAUTO_COUNT>  (1) 
1

>  <PUBCHEM_CONFORMER_ID>  (1) 
0000B4B200000001

>  <PUBCHEM_MMFF94_ENERGY>  (1) 
24.7484

>  <PUBCHEM_FEATURE_SELFOVERLAP>  (1) 
25.374

>  <PUBCHEM_SHAPE_FINGERPRINT>  (1) 
10857977 72 18270679891192716451
11031198 65 16702030798214190836
12138202 97 18060412512880039295
124424 183 17845930741417127106
12716758 59 18341342097585087415
12932764 1 17561079232821564838
13024252 1 13118271573623525959
13538477 17 17823145681871112775
13764800 53 18341622477535100513
13839132 238 18271808977749021373
15219456 202 17988651770012842086
15310529 11 14692584203762797263
15775835 57 18187927244229720248
16945 1 18337964479685196487
20510252 161 18342179977127394473
20645464 45 18060424611845161711
20871998 184 18271249446895880207
21040471 1 18337400318492832591
22445834 79 17676478445660456762
23211744 41 17846492651508577311
23236772 104 17749669691973684672
23402539 116 18342163510476041175
23559900 14 18128267692785241926
25610 171 18342170107118410017
2748010 2 18193290593868714831
305870 269 18263641753986116731
3071541 236 18260822696841507531
369184 2 17095794486443134227
5084963 1 18130802169285200079
6333449 129 18272088301342586671
77492 1 17603587456279078462
81228 2 18340497771840220859

>  <PUBCHEM_SHAPE_MULTIPOLES>  (1) 
236.1
4.89
1.62
1.19
1.65
0
-0.04
-1.49
-0.76
-1.63
-0.07
1.06
-0.01
0.09

>  <PUBCHEM_SHAPE_SELFOVERLAP>  (1) 
479.909

>  <PUBCHEM_SHAPE_VOLUME>  (1) 
139

>  <PUBCHEM_COORDINATE_TYPE>  (1) 
2
5
10

$$$$
