46251
     RDKit          3D

 18 18  0  0  1  0  0  0  0  0999 V2000
    2.2080    1.1103    0.2044 O   0  0  0  0  0  0  0  0  0  0  0  0
   -3.0482   -0.9827   -0.6806 O   0  0  0  0  0  0  0  0  0  0  0  0
    0.2519    2.1970   -0.3693 O   0  0  0  0  0  0  0  0  0  0  0  0
   -3.4608    1.2148    0.0123 O   0  0  0  0  0  0  0  0  0  0  0  0
    4.0855   -0.6945   -1.0267 N   0  0  0  0  0  0  0  0  0  0  0  0
    1.7484   -0.0750   -0.4589 C   0  0  0  0  0  0  0  0  0  0  0  0
    2.8476   -1.1545   -0.4015 C   0  0  0  0  0  0  0  0  0  0  0  0
    0.4788   -0.5280    0.1787 C   0  0  0  0  0  0  0  0  0  0  0  0
   -0.7052   -0.5440   -0.5585 C   0  0  0  0  0  0  0  0  0  0  0  0
    0.4753   -0.9353    1.5128 C   0  0  0  0  0  0  0  0  0  0  0  0
   -1.8927   -0.9675    0.0382 C   0  0  0  0  0  0  0  0  0  0  0  0
   -0.7121   -1.3589    2.1096 C   0  0  0  0  0  0  0  0  0  0  0  0
   -1.8961   -1.3750    1.3722 C   0  0  0  0  0  0  0  0  0  0  0  0
    5.1178   -1.7164   -0.9409 C   0  0  0  0  0  0  0  0  0  0  0  0
    1.3514    2.1688    0.1670 C   0  0  0  0  0  0  0  0  0  0  0  0
    1.9597    3.3285    0.8957 C   0  0  0  0  0  0  0  0  0  0  0  0
   -3.7798    0.2146   -0.6168 C   0  0  0  0  0  0  0  0  0  0  0  0
   -5.0297    0.0976   -1.4377 C   0  0  0  0  0  0  0  0  0  0  0  0
  1  6  1  0
  1 15  1  0
  2 11  1  0
  2 17  1  0
  3 15  2  0
  4 17  2  0
  5  7  1  0
  5 14  1  0
  6  7  1  0
  6  8  1  0
  8  9  2  0
  8 10  1  0
  9 11  1  0
 10 12  2  0
 11 13  2  0
 12 13  1  0
 15 16  1  0
 17 18  1  0
M  END
>  <PUBCHEM_COMPOUND_CID>  (1) 
46251

>  <PUBCHEM_CONFORMER_RMSD>  (1) 
0.8

>  <PUBCHEM_CONFORMER_DIVERSEORDER>  (1) 
1
233
166
212
12
99
60
234
252
210
159
135
223
164
120
94
137
46
104
79
232
219
141
87
247
160
18
105
246
169
175
157
170
112
149
39
17
84
64
25
242
143
236
178
121
123
113
31
187
165
182
82
161
110
136
202
33
36
171
142
250
260
37
81
70
243
152
154
130
197
215
208
237
167
239
21
255
200
256
66
190
249
127
78
125
5
117
227
73
147
53
95
198
172
14
158
109
102
207
80
111
173
211
228
224
156
27
241
76
62
24
106
23
40
244
72
257
199
146
145
213
181
139
50
49
194
177
115
68
184
231
29
217
128
13
47
52
196
191
245
4
188
101
162
35
205
132
216
150
251
100
131
58
51
88
209
55
7
96
176
218
222
45
41
42
153
77
148
240
138
254
28
19
89
44
98
34
10
204
214
129
259
183
38
179
71
144
93
189
30
124
11
20
174
69
248
119
186
122
26
258
107
155
108
6
56
65
16
238
133
185
180
103
3
32
203
195
235
226
206
48
221
75
15
118
43
151
201
63
59
83
229
9
85
67
92
230
97
86
163
91
253
57
126
74
22
225
116
220
8
140
193
134
54
90
168
61
114
2
192

>  <PUBCHEM_MMFF94_PARTIAL_CHARGES>  (1) 
23
1 -0.43
10 -0.15
11 0.08
12 -0.15
13 -0.15
14 0.27
15 0.66
16 0.06
17 0.66
18 0.06
2 -0.23
22 0.15
23 0.15
24 0.36
25 0.15
26 0.15
3 -0.57
4 -0.57
5 -0.9
6 0.42
7 0.27
8 -0.14
9 -0.15

>  <PUBCHEM_EFFECTIVE_ROTOR_COUNT>  (1) 
7

>  <PUBCHEM_PHARMACOPHORE_FEATURES>  (1) 
5
1 3 acceptor
1 4 acceptor
1 5 cation
1 5 donor
6 8 9 10 11 12 13 rings

>  <PUBCHEM_HEAVY_ATOM_COUNT>  (1) 
18

>  <PUBCHEM_ATOM_DEF_STEREO_COUNT>  (1) 
0

>  <PUBCHEM_ATOM_UDEF_STEREO_COUNT>  (1) 
1

>  <PUBCHEM_BOND_DEF_STEREO_COUNT>  (1) 
0

>  <PUBCHEM_BOND_UDEF_STEREO_COUNT>  (1) 
0

>  <PUBCHEM_ISOTOPIC_ATOM_COUNT>  (1) 
0

>  <PUBCHEM_COMPONENT_COUNT>  (1) 
1

>  <PUBCHEM_CACTVS_TAUTO_COUNT>  (1) 
1

>  <PUBCHEM_CONFORMER_ID>  (1) 
0000B4AB00000001

>  <PUBCHEM_MMFF94_ENERGY>  (1) 
43.4739

>  <PUBCHEM_FEATURE_SELFOVERLAP>  (1) 
25.372

>  <PUBCHEM_SHAPE_FINGERPRINT>  (1) 
10610426 29 17131548336999467650
11315181 36 17749974180598958086
124424 183 18335428949815502150
12596602 18 13190623764212050373
12788726 201 18120096079069524338
12916754 54 18199754803127904007
13083527 12 13829835924838132402
13134695 92 18271533065198291652
13294875 104 17896016858536355664
14863182 85 15195293040157999508
15099037 37 12751241367630009235
15295992 7 18335718156007542217
15848700 24 18342736282929796052
16945 1 18408319973704168715
17041 50 18411697686071968094
18186145 218 18187638129080864951
187816 3 18114468859894049790
19049666 15 18115877467121643128
200 152 16916785149982570654
20671657 53 18059863843893350110
21029758 11 18413111641420496636
21069387 34 17704360973782462646
21947302 44 18191296276758933769
221357 26 18410567358608069485
22224240 67 8502357924038650519
23175994 123 18336847319952424598
23402539 116 18129380401855377438
23493267 7 15213023738971543953
23559900 14 18272079535008718159
25 1 18040716922611367059
2748010 2 18043254749871573611
57100710 210 14261075299027295102
6049 1 18043547211427557035
621550 34 17545054056936692419
7615 1 16988020390916381298
81228 2 18050028605446606544
9981440 41 17549245382382504896

>  <PUBCHEM_SHAPE_MULTIPOLES>  (1) 
341.97
7.97
2.56
1.48
1.08
2.75
-0.58
-2.16
5.11
-2.32
-0.77
0.45
-0.59
1.42

>  <PUBCHEM_SHAPE_SELFOVERLAP>  (1) 
697.386

>  <PUBCHEM_SHAPE_VOLUME>  (1) 
196.3

>  <PUBCHEM_COORDINATE_TYPE>  (1) 
2
5
10

$$$$
