46269
     RDKit          3D

 20 20  0  0  0  0  0  0  0  0999 V2000
   -0.0902   -1.1415   -0.6977 O   0  0  0  0  0  0  0  0  0  0  0  0
   -1.0269    1.0523    0.7293 O   0  0  0  0  0  0  0  0  0  0  0  0
    5.1389    0.0137    0.3959 O   0  0  0  0  0  0  0  0  0  0  0  0
    0.3655   -2.2126    1.3022 O   0  0  0  0  0  0  0  0  0  0  0  0
   -1.3649    2.1575   -1.2766 O   0  0  0  0  0  0  0  0  0  0  0  0
   -1.1174   -3.2007   -0.1924 N   0  0  0  0  0  0  0  0  0  0  0  0
   -3.1579    1.7849    0.1571 N   0  0  0  0  0  0  0  0  0  0  0  0
    2.9912    0.7801   -0.2799 C   0  0  0  0  0  0  0  0  0  0  0  0
    0.7600   -0.1453   -0.3224 C   0  0  0  0  0  0  0  0  0  0  0  0
    0.3252    0.9528    0.3850 C   0  0  0  0  0  0  0  0  0  0  0  0
    2.1106   -0.2329   -0.6593 C   0  0  0  0  0  0  0  0  0  0  0  0
    2.5211    1.8808    0.4365 C   0  0  0  0  0  0  0  0  0  0  0  0
    1.1704    1.9685    0.7734 C   0  0  0  0  0  0  0  0  0  0  0  0
    4.4353    0.6870   -0.6408 C   0  0  0  0  0  0  0  0  0  0  0  0
   -0.2368   -2.1983    0.2293 C   0  0  0  0  0  0  0  0  0  0  0  0
   -1.8138    1.7058   -0.2237 C   0  0  0  0  0  0  0  0  0  0  0  0
   -1.3716   -4.3560    0.6563 C   0  0  0  0  0  0  0  0  0  0  0  0
   -1.8299   -3.1724   -1.4658 C   0  0  0  0  0  0  0  0  0  0  0  0
   -4.1281    2.4335   -0.7134 C   0  0  0  0  0  0  0  0  0  0  0  0
   -3.6809    1.2426    1.4070 C   0  0  0  0  0  0  0  0  0  0  0  0
  1  9  1  0
  1 15  1  0
  2 10  1  0
  2 16  1  0
  3 14  1  0
  4 15  2  0
  5 16  2  0
  6 15  1  0
  6 17  1  0
  6 18  1  0
  7 16  1  0
  7 19  1  0
  7 20  1  0
  8 11  2  0
  8 12  1  0
  8 14  1  0
  9 10  2  0
  9 11  1  0
 10 13  1  0
 12 13  2  0
M  END
>  <PUBCHEM_COMPOUND_CID>  (1) 
46269

>  <PUBCHEM_CONFORMER_RMSD>  (1) 
0.8

>  <PUBCHEM_CONFORMER_DIVERSEORDER>  (1) 
1
51
74
103
37
94
92
5
99
71
53
57
93
79
100
18
32
67
91
104
16
61
59
24
69
35
46
41
4
70
60
81
84
26
82
86
58
88
78
95
101
98
6
44
85
62
105
19
29
64
30
83
31
27
38
10
25
97
80
63
68
45
66
56
17
3
52
15
9
36
22
48
75
65
76
7
2
89
28
77
49
73
96
50
39
72
42
14
90
40
102
11
23
106
43
20
87
55
33
34
12
8
21
54
47
13

>  <PUBCHEM_MMFF94_PARTIAL_CHARGES>  (1) 
24
1 -0.23
10 0.08
11 -0.15
12 -0.15
13 -0.15
14 0.42
15 0.78
16 0.78
17 0.3
18 0.3
19 0.3
2 -0.23
20 0.3
21 0.15
22 0.15
23 0.15
3 -0.68
38 0.4
4 -0.57
5 -0.57
6 -0.66
7 -0.66
8 -0.14
9 0.08

>  <PUBCHEM_EFFECTIVE_ROTOR_COUNT>  (1) 
7

>  <PUBCHEM_PHARMACOPHORE_FEATURES>  (1) 
5
1 3 acceptor
1 3 donor
1 4 acceptor
1 5 acceptor
6 8 9 10 11 12 13 rings

>  <PUBCHEM_HEAVY_ATOM_COUNT>  (1) 
20

>  <PUBCHEM_ATOM_DEF_STEREO_COUNT>  (1) 
0

>  <PUBCHEM_ATOM_UDEF_STEREO_COUNT>  (1) 
0

>  <PUBCHEM_BOND_DEF_STEREO_COUNT>  (1) 
0

>  <PUBCHEM_BOND_UDEF_STEREO_COUNT>  (1) 
0

>  <PUBCHEM_ISOTOPIC_ATOM_COUNT>  (1) 
0

>  <PUBCHEM_COMPONENT_COUNT>  (1) 
1

>  <PUBCHEM_CACTVS_TAUTO_COUNT>  (1) 
1

>  <PUBCHEM_CONFORMER_ID>  (1) 
0000B4BD00000001

>  <PUBCHEM_MMFF94_ENERGY>  (1) 
58.1885

>  <PUBCHEM_FEATURE_SELFOVERLAP>  (1) 
25.373

>  <PUBCHEM_SHAPE_FINGERPRINT>  (1) 
10064457 181 18270699630989373489
104564 63 17837223931647690700
116883 192 18052535770386914309
121448 382 18268970099103682917
12293681 25 17774185447246731286
12715332 25 18411984624700811904
12730499 353 18192717748538022793
12788726 201 17831285469762882280
13052359 8 18410011052510001698
14866123 147 18409163312219169106
15042514 8 18409737291484413378
15309172 13 18410862018712664641
17138139 8 17771026580863500007
17357779 13 17838890791285818975
19591789 44 18410296873998962155
20344682 1 17968667016465036093
20600515 1 17105341743401742916
20645477 70 18048875191979597189
21041028 32 17690009255143742747
21452121 199 17256797898449535443
21501502 16 18195251246360470708
21524375 3 18335424521619706856
23419403 2 16552899642302921437
23558518 356 18044938115454538224
3060560 45 18264486195938109405
3250762 1 17983288515470198776
3759504 43 18334861605999650348
53917941 68 18339344340739356396
58779409 54 18270677683732364300
59755656 520 18409725123947474860
6025842 7 18049995607271303285
6438718 38 17988086706962248767
6669772 16 18269843004236729310
7364860 26 17905327325621829033
81228 2 17975685400884608105
81539 233 18117279159726865069
8272917 22 17981609261025764269
9925002 15 17899715723200943621

>  <PUBCHEM_SHAPE_MULTIPOLES>  (1) 
372.28
6.68
4.58
1.16
4.73
5.55
0.02
-4.34
0.23
-5.4
-0.04
-0.61
0.16
0.06

>  <PUBCHEM_SHAPE_SELFOVERLAP>  (1) 
760.816

>  <PUBCHEM_SHAPE_VOLUME>  (1) 
215.3

>  <PUBCHEM_COORDINATE_TYPE>  (1) 
2
5
10

$$$$
