46271
     RDKit          3D

 15 15  0  0  1  0  0  0  0  0999 V2000
   -0.6210    1.7163   -1.1120 O   0  0  0  0  0  0  0  0  0  0  0  0
    1.7254    0.1338   -0.5294 N   0  0  0  0  0  0  0  0  0  0  0  0
    0.4272   -0.1415    0.0697 C   0  0  0  0  0  0  0  0  0  0  0  0
   -0.6938    0.3043   -0.8960 C   0  0  0  0  0  0  0  0  0  0  0  0
    2.8054   -0.3325    0.3321 C   0  0  0  0  0  0  0  0  0  0  0  0
    4.1606   -0.0273   -0.3036 C   0  0  0  0  0  0  0  0  0  0  0  0
    0.3656    0.5823    1.4161 C   0  0  0  0  0  0  0  0  0  0  0  0
   -2.0886    0.0121   -0.3853 C   0  0  0  0  0  0  0  0  0  0  0  0
    5.3088   -0.4894    0.5945 C   0  0  0  0  0  0  0  0  0  0  0  0
   -2.6796   -1.2011   -0.6926 C   0  0  0  0  0  0  0  0  0  0  0  0
   -2.7416    0.9640    0.3779 C   0  0  0  0  0  0  0  0  0  0  0  0
    6.6609   -0.2213   -0.0470 C   0  0  0  0  0  0  0  0  0  0  0  0
   -3.9646   -1.4707   -0.2219 C   0  0  0  0  0  0  0  0  0  0  0  0
   -4.0266    0.6942    0.8487 C   0  0  0  0  0  0  0  0  0  0  0  0
   -4.6381   -0.5232    0.5487 C   0  0  0  0  0  0  0  0  0  0  0  0
  1  4  1  0
  2  3  1  0
  2  5  1  0
  3  4  1  0
  3  7  1  0
  4  8  1  0
  5  6  1  0
  6  9  1  0
  8 10  2  0
  8 11  1  0
  9 12  1  0
 10 13  1  0
 11 14  2  0
 13 15  2  0
 14 15  1  0
M  END
>  <PUBCHEM_COMPOUND_CID>  (1) 
46271

>  <PUBCHEM_CONFORMER_RMSD>  (1) 
0.6

>  <PUBCHEM_CONFORMER_DIVERSEORDER>  (1) 
5
67
42
123
124
90
119
130
79
61
89
6
118
50
83
63
38
110
14
135
9
58
74
51
100
45
30
107
93
23
48
66
80
34
19
112
1
127
65
109
111
95
120
87
105
73
4
77
104
21
125
84
7
92
132
56
122
53
26
108
2
60
114
33
43
86
17
72
37
85
27
131
106
94
10
54
55
28
8
88
117
78
97
31
115
82
91
41
29
59
40
99
129
16
12
44
47
18
52
126
68
70
134
3
116
35
133
11
32
46
20
121
71
128
25
15
64
57
101
75
13
39
113
102
24
69
49
98
103
22
76
96
81
36
62

>  <PUBCHEM_MMFF94_PARTIAL_CHARGES>  (1) 
18
1 -0.68
10 -0.15
11 -0.15
13 -0.15
14 -0.15
15 -0.15
18 0.36
2 -0.9
28 0.15
29 0.15
3 0.27
30 0.4
34 0.15
35 0.15
36 0.15
4 0.42
5 0.27
8 -0.14

>  <PUBCHEM_EFFECTIVE_ROTOR_COUNT>  (1) 
6

>  <PUBCHEM_PHARMACOPHORE_FEATURES>  (1) 
6
1 1 acceptor
1 1 donor
1 12 hydrophobe
1 2 cation
1 2 donor
6 8 10 11 13 14 15 rings

>  <PUBCHEM_HEAVY_ATOM_COUNT>  (1) 
15

>  <PUBCHEM_ATOM_DEF_STEREO_COUNT>  (1) 
0

>  <PUBCHEM_ATOM_UDEF_STEREO_COUNT>  (1) 
2

>  <PUBCHEM_BOND_DEF_STEREO_COUNT>  (1) 
0

>  <PUBCHEM_BOND_UDEF_STEREO_COUNT>  (1) 
0

>  <PUBCHEM_ISOTOPIC_ATOM_COUNT>  (1) 
0

>  <PUBCHEM_COMPONENT_COUNT>  (1) 
1

>  <PUBCHEM_CACTVS_TAUTO_COUNT>  (1) 
1

>  <PUBCHEM_CONFORMER_ID>  (1) 
0000B4BF00000005

>  <PUBCHEM_MMFF94_ENERGY>  (1) 
24.0758

>  <PUBCHEM_FEATURE_SELFOVERLAP>  (1) 
30.448

>  <PUBCHEM_SHAPE_FINGERPRINT>  (1) 
10465860 250 17703791422522082793
11089746 13 10015577299478792854
11315181 36 18413107281437847608
11401426 45 8718827591688093362
12091667 2 17530964670599617788
12251169 10 18131071549939824013
124424 183 17275102834464272737
13214271 11 16917345930882282588
13288520 33 18333449841606707966
13675066 3 16774076280502203872
14123238 8 18040715862128698890
1420 363 17095245809119744290
14251718 22 12757154584677922178
14251731 8 17846498119307692472
14350574 20 16443069417124692590
15048467 5 18272935990068425945
17804303 29 18131071571472741099
17834072 33 18410295839491969092
17834076 25 11815896756156233346
1813 80 17967827015287272846
187816 3 16370725932999796296
19784866 170 16630249134434389140
200 152 17022618667641779892
20281389 69 13686295769038904594
20645477 56 15051729781408036080
20645477 70 13190605115479576392
20828058 44 18273496779616166006
2297311 6 18130516270893159804
23402539 116 17603583011051243700
23466295 7 16227757651785361099
23557571 272 18410294666770874708
23559900 14 18201429315806780249
351380 180 7853572405294298398
42788 4 17918274255838916138
542803 24 18060416920302429144

>  <PUBCHEM_SHAPE_MULTIPOLES>  (1) 
297.84
12.6
1.19
1.03
18.98
0.06
0.07
2.54
-2.37
-1.35
0.04
-0.12
-0.24
-0.13

>  <PUBCHEM_SHAPE_SELFOVERLAP>  (1) 
591.04

>  <PUBCHEM_SHAPE_VOLUME>  (1) 
177.8

>  <PUBCHEM_COORDINATE_TYPE>  (1) 
2
5
10

$$$$
