46273
     RDKit          3D

 14 14  0  0  1  0  0  0  0  0999 V2000
    0.5727    1.9853    0.5561 O   0  0  0  0  0  0  0  0  0  0  0  0
   -1.7417    0.2765    0.4285 N   0  0  0  0  0  0  0  0  0  0  0  0
   -0.4266   -0.1518   -0.0267 C   0  0  0  0  0  0  0  0  0  0  0  0
    0.6813    0.5751    0.7453 C   0  0  0  0  0  0  0  0  0  0  0  0
   -2.7960   -0.3928   -0.3243 C   0  0  0  0  0  0  0  0  0  0  0  0
   -4.1693    0.0576    0.1707 C   0  0  0  0  0  0  0  0  0  0  0  0
   -5.2905   -0.6169   -0.6206 C   0  0  0  0  0  0  0  0  0  0  0  0
    2.0550    0.1405    0.2838 C   0  0  0  0  0  0  0  0  0  0  0  0
   -6.6610   -0.2008   -0.1106 C   0  0  0  0  0  0  0  0  0  0  0  0
    2.6686   -0.9335    0.9054 C   0  0  0  0  0  0  0  0  0  0  0  0
    2.6690    0.8259   -0.7505 C   0  0  0  0  0  0  0  0  0  0  0  0
    3.9349   -1.3344    0.4798 C   0  0  0  0  0  0  0  0  0  0  0  0
    3.9354    0.4248   -1.1761 C   0  0  0  0  0  0  0  0  0  0  0  0
    4.5683   -0.6554   -0.5609 C   0  0  0  0  0  0  0  0  0  0  0  0
  1  4  1  0
  2  3  1  0
  2  5  1  0
  3  4  1  0
  4  8  1  0
  5  6  1  0
  6  7  1  0
  7  9  1  0
  8 10  2  0
  8 11  1  0
 10 12  1  0
 11 13  2  0
 12 14  2  0
 13 14  1  0
M  END
>  <PUBCHEM_COMPOUND_CID>  (1) 
46273

>  <PUBCHEM_CONFORMER_RMSD>  (1) 
0.6

>  <PUBCHEM_CONFORMER_DIVERSEORDER>  (1) 
1
57
70
107
87
89
31
98
80
55
112
43
115
126
117
71
101
119
114
123
118
76
73
39
110
34
122
40
60
11
69
44
3
121
4
86
81
7
124
22
97
92
63
19
90
111
38
116
56
103
85
46
75
26
54
32
14
74
120
58
42
104
79
23
59
47
113
15
53
51
2
100
5
65
28
91
49
82
102
20
41
50
13
72
93
99
109
10
16
108
9
62
66
24
30
33
77
105
125
94
8
64
61
106
68
84
25
67
6
36
48
95
18
96
52
17
37
29
83
45
78
27
88
12
35
21

>  <PUBCHEM_MMFF94_PARTIAL_CHARGES>  (1) 
18
1 -0.68
10 -0.15
11 -0.15
12 -0.15
13 -0.15
14 -0.15
2 -0.9
22 0.36
28 0.15
29 0.15
3 0.27
30 0.4
31 0.15
32 0.15
33 0.15
4 0.42
5 0.27
8 -0.14

>  <PUBCHEM_EFFECTIVE_ROTOR_COUNT>  (1) 
6

>  <PUBCHEM_PHARMACOPHORE_FEATURES>  (1) 
6
1 1 acceptor
1 1 donor
1 2 cation
1 2 donor
1 9 hydrophobe
6 8 10 11 12 13 14 rings

>  <PUBCHEM_HEAVY_ATOM_COUNT>  (1) 
14

>  <PUBCHEM_ATOM_DEF_STEREO_COUNT>  (1) 
0

>  <PUBCHEM_ATOM_UDEF_STEREO_COUNT>  (1) 
1

>  <PUBCHEM_BOND_DEF_STEREO_COUNT>  (1) 
0

>  <PUBCHEM_BOND_UDEF_STEREO_COUNT>  (1) 
0

>  <PUBCHEM_ISOTOPIC_ATOM_COUNT>  (1) 
0

>  <PUBCHEM_COMPONENT_COUNT>  (1) 
1

>  <PUBCHEM_CACTVS_TAUTO_COUNT>  (1) 
1

>  <PUBCHEM_CONFORMER_ID>  (1) 
0000B4C100000001

>  <PUBCHEM_MMFF94_ENERGY>  (1) 
19.634

>  <PUBCHEM_FEATURE_SELFOVERLAP>  (1) 
30.448

>  <PUBCHEM_SHAPE_FINGERPRINT>  (1) 
10354089 29 11095881571128869478
10498660 4 14852149699051314383
11287383 113 16443353095588398827
11471102 20 17749112192792574172
117890 112 9223239546463602503
12251169 10 11959728265894996728
12730499 353 16008754593264794481
12916748 109 15719109145959344989
13675066 3 15554446306037328933
13690532 89 18202845457029632203
13836976 161 18187086152563754270
14123238 8 8214144058368971639
14251718 22 15719395053658874587
14252887 29 15482677866256376358
14366163 111 16298102090489414117
15242433 33 18260550043358500431
17834072 33 17967250923166597639
17834076 25 12251901495286774343
20369508 70 18343014514816106944
20645477 70 17822007567077540594
221357 26 17458058253279313229
22224240 67 15195272132869345726
22289505 5 16805597066719714004
23402539 116 12823292382563711529
23402655 69 17603871108751558046
23590187 302 18113617897796657932
29717793 49 18411141307439719382
3004659 81 18260547792980390130
3060560 45 17240203231639929954
351380 3 18201717358258036591
4047638 21 15140680293485411904
42 15 15123512514639592471
42788 4 17167861963675583447
465052 167 18272655670775554135
4990 188 16443345364357232675
522135 26 18186518804325944722
5374978 207 11959732667962434807
7164475 11 18190461554603203908

>  <PUBCHEM_SHAPE_MULTIPOLES>  (1) 
277.26
13.3
1.18
0.96
21.31
0.17
0.06
-3.16
3.16
-1.09
-0.18
-0.55
0.07
-0.59

>  <PUBCHEM_SHAPE_SELFOVERLAP>  (1) 
547.682

>  <PUBCHEM_SHAPE_VOLUME>  (1) 
165.8

>  <PUBCHEM_COORDINATE_TYPE>  (1) 
2
5
10

$$$$
