46281
     RDKit          3D

 17 19  0  0  0  0  0  0  0  0999 V2000
   -0.5582    1.0323    0.2310 N   0  0  0  0  0  0  0  0  0  0  0  0
   -0.3051   -1.0941   -0.3641 N   0  0  0  0  0  0  0  0  0  0  0  0
   -5.4924    0.7867    0.3461 N   0  0  0  0  0  0  0  0  0  0  0  0
    4.8455   -1.7015    0.5393 N   0  0  0  0  0  0  0  0  0  0  0  0
   -1.8286    0.5245    0.1383 C   0  0  0  0  0  0  0  0  0  0  0  0
    0.3164    0.0280   -0.0781 C   0  0  0  0  0  0  0  0  0  0  0  0
   -1.6439   -0.8039   -0.2344 C   0  0  0  0  0  0  0  0  0  0  0  0
    1.7448    0.2308   -0.0752 C   0  0  0  0  0  0  0  0  0  0  0  0
   -3.0851    1.0958    0.3422 C   0  0  0  0  0  0  0  0  0  0  0  0
   -2.7683   -1.6260   -0.4191 C   0  0  0  0  0  0  0  0  0  0  0  0
   -4.1932    0.2632    0.1539 C   0  0  0  0  0  0  0  0  0  0  0  0
    2.5999   -0.8285    0.2280 C   0  0  0  0  0  0  0  0  0  0  0  0
   -4.0399   -1.0738   -0.2199 C   0  0  0  0  0  0  0  0  0  0  0  0
    2.2701    1.4874   -0.3759 C   0  0  0  0  0  0  0  0  0  0  0  0
    3.9807   -0.6311    0.2307 C   0  0  0  0  0  0  0  0  0  0  0  0
    3.6509    1.6847   -0.3731 C   0  0  0  0  0  0  0  0  0  0  0  0
    4.5062    0.6254   -0.0698 C   0  0  0  0  0  0  0  0  0  0  0  0
  1  5  1  0
  1  6  1  0
  2  6  2  0
  2  7  1  0
  3 11  1  0
  4 15  1  0
  5  7  2  0
  5  9  1  0
  6  8  1  0
  7 10  1  0
  8 12  2  0
  8 14  1  0
  9 11  2  0
 10 13  2  0
 11 13  1  0
 12 15  1  0
 14 16  2  0
 15 17  2  0
 16 17  1  0
M  END
>  <PUBCHEM_COMPOUND_CID>  (1) 
46281

>  <PUBCHEM_CONFORMER_RMSD>  (1) 
0.6

>  <PUBCHEM_CONFORMER_DIVERSEORDER>  (1) 
1
2
3

>  <PUBCHEM_MMFF94_PARTIAL_CHARGES>  (1) 
29
1 0.03
10 -0.15
11 0.1
12 -0.15
13 -0.15
14 -0.15
15 0.1
16 -0.15
17 -0.15
18 0.27
19 0.15
2 -0.57
20 0.15
21 0.15
22 0.15
23 0.15
24 0.15
25 0.15
26 0.4
27 0.4
28 0.4
29 0.4
3 -0.9
4 -0.9
5 -0.15
6 0.13
7 0.23
8 0.05
9 -0.15

>  <PUBCHEM_EFFECTIVE_ROTOR_COUNT>  (1) 
1

>  <PUBCHEM_PHARMACOPHORE_FEATURES>  (1) 
9
1 1 donor
1 3 cation
1 3 donor
1 4 cation
1 4 donor
3 1 2 6 cation
5 1 2 5 6 7 rings
6 5 7 9 10 11 13 rings
6 8 12 14 15 16 17 rings

>  <PUBCHEM_HEAVY_ATOM_COUNT>  (1) 
17

>  <PUBCHEM_ATOM_DEF_STEREO_COUNT>  (1) 
0

>  <PUBCHEM_ATOM_UDEF_STEREO_COUNT>  (1) 
0

>  <PUBCHEM_BOND_DEF_STEREO_COUNT>  (1) 
0

>  <PUBCHEM_BOND_UDEF_STEREO_COUNT>  (1) 
0

>  <PUBCHEM_ISOTOPIC_ATOM_COUNT>  (1) 
0

>  <PUBCHEM_COMPONENT_COUNT>  (1) 
1

>  <PUBCHEM_CACTVS_TAUTO_COUNT>  (1) 
2

>  <PUBCHEM_CONFORMER_ID>  (1) 
0000B4C900000001

>  <PUBCHEM_MMFF94_ENERGY>  (1) 
59.4025

>  <PUBCHEM_FEATURE_SELFOVERLAP>  (1) 
45.779

>  <PUBCHEM_SHAPE_FINGERPRINT>  (1) 
10062212 137 18271518771293942479
10616163 171 18269557302606095078
11471102 20 18333730230447192668
12107183 9 17834113043932790360
12236239 1 18410293622571270160
12251169 10 18411138017436631078
13167823 11 18409165527978642674
13675066 3 17967536783041088901
13760787 19 18411703222480127934
13760787 5 18409163329308496893
15196674 1 18411418444451890487
15242433 33 18410013255896614486
15442244 35 18410012092266601216
15536298 74 18412262857014078720
17834072 33 18410574023848452382
1813 80 16950284000984483644
18186145 218 17531238487153916914
19050596 39 18411698802821571706
19422 9 18410292540434833294
200 152 18343579668198345303
20279233 1 15769779060782189012
20281475 54 18340198695465019495
20645477 70 18335420154028571342
21267235 1 18410301297778360218
212847 35 18272652346159617592
2255824 54 18113338635345224714
22646028 1 18411416228317415502
23402539 116 18131343099453037005
23402655 69 18411419548648966844
23463225 33 18411138039191062022
23557571 272 16773248292328076648
23559900 14 18272649078164115976
26918003 58 17967814963561567072
2838139 119 18116140083810334021
300161 21 18412538838342749300
3004659 81 18410859841728117822
335352 9 18411418367168872847
3545911 37 18411703201052829060
42 15 18407760330775169334
4214541 1 18410855456039078749
474 4 17751081534082674964
5104073 3 18411419543989977355
522135 26 18259987072283358764
5374978 207 18273492373396478056
542803 24 17458065979735450700
573450 72 18343578547117046059
633830 44 17530682125669732729
67856867 119 18339355392196805936
69090 78 18411135852852443071
77779 3 18409167739875964726
8272917 22 18410859828463797606
9709674 26 18411989082634837214
9971528 1 18040434408574330900
9981440 41 17254555414172833680

>  <PUBCHEM_SHAPE_MULTIPOLES>  (1) 
329.93
10.74
1.65
0.68
0.83
0.11
-0.01
0.08
0.89
-0.63
-0.05
-0.04
0.01
-0.9

>  <PUBCHEM_SHAPE_SELFOVERLAP>  (1) 
738.744

>  <PUBCHEM_SHAPE_VOLUME>  (1) 
176.1

>  <PUBCHEM_COORDINATE_TYPE>  (1) 
2
5
10

$$$$
