46297
     RDKit          3D

 21 22  0  0  0  0  0  0  0  0999 V2000
   -5.5003    1.7682   -0.4094 O   0  0  0  0  0  0  0  0  0  0  0  0
    5.8420   -1.3877   -0.6153 O   0  0  0  0  0  0  0  0  0  0  0  0
   -4.7281   -0.4208    0.0010 N   0  0  0  0  0  0  0  0  0  0  0  0
    5.0268    0.6830    0.1632 N   0  0  0  0  0  0  0  0  0  0  0  0
   -0.5672    0.0374    0.0705 C   0  0  0  0  0  0  0  0  0  0  0  0
    0.8699    0.2034    0.0940 C   0  0  0  0  0  0  0  0  0  0  0  0
   -2.5127   -1.3840    0.2472 C   0  0  0  0  0  0  0  0  0  0  0  0
   -1.1272   -1.2245    0.2692 C   0  0  0  0  0  0  0  0  0  0  0  0
   -3.3382   -0.2816    0.0266 C   0  0  0  0  0  0  0  0  0  0  0  0
   -1.3926    1.1398   -0.1502 C   0  0  0  0  0  0  0  0  0  0  0  0
   -2.7782    0.9804   -0.1722 C   0  0  0  0  0  0  0  0  0  0  0  0
    1.4259    1.4101    0.5188 C   0  0  0  0  0  0  0  0  0  0  0  0
    1.6996   -0.8433   -0.3080 C   0  0  0  0  0  0  0  0  0  0  0  0
   -3.0855   -2.7473    0.4632 C   0  0  0  0  0  0  0  0  0  0  0  0
    3.6410    0.5234    0.1393 C   0  0  0  0  0  0  0  0  0  0  0  0
    2.8113    1.5702    0.5414 C   0  0  0  0  0  0  0  0  0  0  0  0
    3.0851   -0.6834   -0.2854 C   0  0  0  0  0  0  0  0  0  0  0  0
   -5.6917    0.5737   -0.2058 C   0  0  0  0  0  0  0  0  0  0  0  0
    6.0111   -0.2459   -0.1999 C   0  0  0  0  0  0  0  0  0  0  0  0
   -7.0910    0.0130   -0.1585 C   0  0  0  0  0  0  0  0  0  0  0  0
    7.4002    0.3159   -0.0295 C   0  0  0  0  0  0  0  0  0  0  0  0
  1 18  2  0
  2 19  2  0
  3  9  1  0
  3 18  1  0
  4 15  1  0
  4 19  1  0
  5  6  1  0
  5  8  1  0
  5 10  2  0
  6 12  2  0
  6 13  1  0
  7  8  2  0
  7  9  1  0
  7 14  1  0
  9 11  2  0
 10 11  1  0
 12 16  1  0
 13 17  2  0
 15 16  2  0
 15 17  1  0
 18 20  1  0
 19 21  1  0
M  END
>  <PUBCHEM_COMPOUND_CID>  (1) 
46297

>  <PUBCHEM_CONFORMER_RMSD>  (1) 
0.8

>  <PUBCHEM_CONFORMER_DIVERSEORDER>  (1) 
2
4
3
1

>  <PUBCHEM_MMFF94_PARTIAL_CHARGES>  (1) 
28
1 -0.57
10 -0.15
11 -0.15
12 -0.15
13 -0.15
14 0.14
15 0.12
16 -0.15
17 -0.15
18 0.57
19 0.57
2 -0.57
20 0.06
21 0.06
22 0.15
23 0.15
24 0.15
25 0.15
26 0.15
3 -0.55
30 0.15
31 0.15
32 0.37
33 0.37
4 -0.55
7 -0.14
8 -0.15
9 0.12

>  <PUBCHEM_EFFECTIVE_ROTOR_COUNT>  (1) 
5

>  <PUBCHEM_PHARMACOPHORE_FEATURES>  (1) 
6
1 1 acceptor
1 2 acceptor
1 3 donor
1 4 donor
6 5 7 8 9 10 11 rings
6 6 12 13 15 16 17 rings

>  <PUBCHEM_HEAVY_ATOM_COUNT>  (1) 
21

>  <PUBCHEM_ATOM_DEF_STEREO_COUNT>  (1) 
0

>  <PUBCHEM_ATOM_UDEF_STEREO_COUNT>  (1) 
0

>  <PUBCHEM_BOND_DEF_STEREO_COUNT>  (1) 
0

>  <PUBCHEM_BOND_UDEF_STEREO_COUNT>  (1) 
0

>  <PUBCHEM_ISOTOPIC_ATOM_COUNT>  (1) 
0

>  <PUBCHEM_COMPONENT_COUNT>  (1) 
1

>  <PUBCHEM_CACTVS_TAUTO_COUNT>  (1) 
4

>  <PUBCHEM_CONFORMER_ID>  (1) 
0000B4D900000002

>  <PUBCHEM_MMFF94_ENERGY>  (1) 
72.9515

>  <PUBCHEM_FEATURE_SELFOVERLAP>  (1) 
30.446

>  <PUBCHEM_SHAPE_FINGERPRINT>  (1) 
10411042 1 17975417125493015075
10835480 77 18341890853067643808
10968037 39 18412545414143161103
11089746 13 16702302360084544913
11315181 36 17775569762028618688
11524674 6 17560799948257473135
11719270 70 18201717328467988054
11796584 16 18408042931598249482
12236239 1 16950564389176218612
12516196 113 17918272052468140880
12788726 201 18059292042049502465
13533116 47 18337102359506045378
13914758 101 16200161954063050979
14251764 18 18410572877055163555
14251764 46 18040715870460079669
14341114 176 18410578409268790808
14617045 38 18333450928165141538
15183329 4 18411136909345637979
15196674 1 18339079418640171480
17834072 8 18411418414376556897
18006028 8 17632858620674823360
200 152 17489869345042155883
20281389 69 18186799179680634661
20645477 56 18333166163870813725
20645477 70 17775290417382372695
20681677 155 18040152933027862650
21267235 1 18411987965768695193
21279426 13 18195809570596801557
2215653 11 18272651238247712398
22224240 67 15985097514757752014
23035841 295 18186518808536444640
23402539 116 18342451560847111405
23557571 272 18340489976174112868
23559900 14 18340481257237202840
26918003 58 18201721773114891946
3004659 81 18334296453592902894
335352 9 18410855485940241901
350125 39 18408884005762696381
3545911 37 18410292510180028233
4073 2 18114465677613317250
4214541 1 18410012156200376881
4463277 17 18410293618804070376
5104073 3 18339641268897323624
542803 24 16443063906623642596
559249 180 18410571816362382379
59755656 215 18410294679418419054
59755656 520 17967809466594797963
633830 44 17749947898701751064
8209 1 18412825785381991284

>  <PUBCHEM_SHAPE_MULTIPOLES>  (1) 
410.47
17.16
1.79
0.68
6.54
0.66
-0.02
-1.12
1.96
-1.28
-0.18
0.08
0.01
0.94

>  <PUBCHEM_SHAPE_SELFOVERLAP>  (1) 
875.188

>  <PUBCHEM_SHAPE_VOLUME>  (1) 
228.9

>  <PUBCHEM_COORDINATE_TYPE>  (1) 
2
5
10

$$$$
