46294
     RDKit          3D

 19 19  0  0  0  0  0  0  0  0999 V2000
    0.0901    0.5107   -0.0144 N   0  0  0  0  0  0  0  0  0  0  0  0
   -4.8158   -0.3256    0.0488 C   0  0  0  0  0  0  0  0  0  0  0  0
   -3.7115    0.7208   -0.1174 C   0  0  0  0  0  0  0  0  0  0  0  0
   -6.2281    0.2553   -0.0769 C   0  0  0  0  0  0  0  0  0  0  0  0
   -2.3244    0.0924    0.0404 C   0  0  0  0  0  0  0  0  0  0  0  0
   -7.3304   -0.7978    0.0638 C   0  0  0  0  0  0  0  0  0  0  0  0
   -1.2217    1.1306   -0.1601 C   0  0  0  0  0  0  0  0  0  0  0  0
   -8.7409   -0.2059   -0.0011 C   0  0  0  0  0  0  0  0  0  0  0  0
    1.1513    1.4848   -0.2272 C   0  0  0  0  0  0  0  0  0  0  0  0
    2.5168    0.8692   -0.0738 C   0  0  0  0  0  0  0  0  0  0  0  0
    6.4001   -0.8789    0.3634 C   0  0  0  0  0  0  0  0  0  0  0  0
    5.0470   -0.2706    0.2110 C   0  0  0  0  0  0  0  0  0  0  0  0
   -9.8416   -1.2494    0.1115 C   0  0  0  0  0  0  0  0  0  0  0  0
    3.1383    0.8539    1.1749 C   0  0  0  0  0  0  0  0  0  0  0  0
    3.1604    0.3147   -1.1801 C   0  0  0  0  0  0  0  0  0  0  0  0
    4.4033    0.2839    1.3173 C   0  0  0  0  0  0  0  0  0  0  0  0
    4.4255   -0.2553   -1.0378 C   0  0  0  0  0  0  0  0  0  0  0  0
    6.4111   -2.3826    0.0289 C   0  0  0  0  0  0  0  0  0  0  0  0
    7.4706   -0.1504   -0.4712 C   0  0  0  0  0  0  0  0  0  0  0  0
  1  7  1  0
  1  9  1  0
  2  3  1  0
  2  4  1  0
  3  5  1  0
  4  6  1  0
  5  7  1  0
  6  8  1  0
  8 13  1  0
  9 10  1  0
 10 14  2  0
 10 15  1  0
 11 12  1  0
 11 18  1  0
 11 19  1  0
 12 16  2  0
 12 17  1  0
 14 16  1  0
 15 17  2  0
M  END
>  <PUBCHEM_COMPOUND_CID>  (1) 
46294

>  <PUBCHEM_CONFORMER_RMSD>  (1) 
1

>  <PUBCHEM_CONFORMER_DIVERSEORDER>  (1) 
1
105
93
49
89
90
63
62
36
39
101
83
100
27
95
75
88
13
82
67
91
17
10
113
80
106
23
96
14
86
79
64
114
99
45
43
87
74
73
3
60
54
103
9
52
24
47
71
6
50
20
12
109
19
112
85
66
41
97
33
72
16
104
57
92
21
98
44
11
4
15
38
35
22
28
5
40
46
56
18
32
102
51
53
110
61
84
2
76
81
70
48
34
29
37
107
94
78
42
31
65
55
108
26
8
111
59
77
30
68
7
25
58
69

>  <PUBCHEM_MMFF94_PARTIAL_CHARGES>  (1) 
15
1 -0.9
10 -0.14
11 0.14
12 -0.14
14 -0.15
15 -0.15
16 -0.15
17 -0.15
34 0.36
41 0.15
42 0.15
43 0.15
44 0.15
7 0.27
9 0.41

>  <PUBCHEM_EFFECTIVE_ROTOR_COUNT>  (1) 
10

>  <PUBCHEM_PHARMACOPHORE_FEATURES>  (1) 
7
1 1 cation
1 1 donor
1 13 hydrophobe
3 11 18 19 hydrophobe
3 2 3 5 hydrophobe
3 4 6 8 hydrophobe
6 10 12 14 15 16 17 rings

>  <PUBCHEM_HEAVY_ATOM_COUNT>  (1) 
19

>  <PUBCHEM_ATOM_DEF_STEREO_COUNT>  (1) 
0

>  <PUBCHEM_ATOM_UDEF_STEREO_COUNT>  (1) 
0

>  <PUBCHEM_BOND_DEF_STEREO_COUNT>  (1) 
0

>  <PUBCHEM_BOND_UDEF_STEREO_COUNT>  (1) 
0

>  <PUBCHEM_ISOTOPIC_ATOM_COUNT>  (1) 
0

>  <PUBCHEM_COMPONENT_COUNT>  (1) 
1

>  <PUBCHEM_CACTVS_TAUTO_COUNT>  (1) 
1

>  <PUBCHEM_CONFORMER_ID>  (1) 
0000B4D600000001

>  <PUBCHEM_MMFF94_ENERGY>  (1) 
20.1759

>  <PUBCHEM_FEATURE_SELFOVERLAP>  (1) 
35.533

>  <PUBCHEM_SHAPE_FINGERPRINT>  (1) 
10299344 5 17385723591502343913
10354089 29 14836402524136867080
106641 1 18060414725553139568
11135609 127 13335033741642200262
11638347 137 16056886814087235230
12592606 108 18334857243077872403
13073987 5 15195018098259035713
13668630 136 17967533458520214895
13685833 64 18413671301049206568
13885169 127 18409729526832713405
14026016 60 15069173465259605354
14123256 10 12684808914024301591
14216079 64 18410292493169314891
14251764 18 18202849854728230569
14251764 46 18410292518764675072
14344974 52 13262691369301240639
15183329 4 16008745797477999581
15188451 53 18273497862259317201
15475509 35 18198892640447200242
155225 1 9439400233511819114
15690457 1 18413668024464056375
16120349 18 18113902706285695556
1818759 1 18260271858980866603
20281389 69 11600009838196220403
20721686 124 11097850779755221104
20735858 18 16988844977862064749
21130983 4 9799692602011200909
21130990 3 17987523603160723246
21130991 4 17749944441945104058
21150785 3 13623529056855751859
21267235 1 18334576845963938141
21315763 28 18411419523491345865
221357 26 14634866444574099606
22224240 67 12967127212127857845
246663 6 18410577279401923183
28498 318 18334010580332323975
29717793 49 17603872178667841996
3004659 81 17530683220923589220
33532 11 18410290289856548779
33684 2 14345791656287635633
4325135 7 15357695293222248555
5104073 3 16127505199693169166
5758199 1 11024112049628081573
59682541 35 17417807365827002507
59682541 52 15068338991288155368
8209 1 14273453687190702805

>  <PUBCHEM_SHAPE_MULTIPOLES>  (1) 
386.03
29.37
1.41
0.94
59.11
0.53
0.06
15.53
0.53
-1.32
0.03
-1.26
-0.09
0.24

>  <PUBCHEM_SHAPE_SELFOVERLAP>  (1) 
747.98

>  <PUBCHEM_SHAPE_VOLUME>  (1) 
234.1

>  <PUBCHEM_COORDINATE_TYPE>  (1) 
2
5
10

$$$$
