46295
     RDKit          3D

 17 17  0  0  1  0  0  0  0  0999 V2000
    1.7089   -1.8548   -0.2110 N   0  0  0  0  0  0  0  0  0  0  0  0
   -1.7058   -0.2755    0.3833 C   0  0  0  0  0  0  0  0  0  0  0  0
   -3.0723   -0.4739   -0.2763 C   0  0  0  0  0  0  0  0  0  0  0  0
   -0.6522   -1.1974   -0.2364 C   0  0  0  0  0  0  0  0  0  0  0  0
   -4.1712    0.4097    0.3232 C   0  0  0  0  0  0  0  0  0  0  0  0
    0.7193   -0.9743    0.3986 C   0  0  0  0  0  0  0  0  0  0  0  0
   -5.5314    0.2284   -0.3556 C   0  0  0  0  0  0  0  0  0  0  0  0
    3.0413   -1.5880    0.3336 C   0  0  0  0  0  0  0  0  0  0  0  0
   -6.6408    1.0669    0.2846 C   0  0  0  0  0  0  0  0  0  0  0  0
    1.3475   -3.2581   -0.0036 C   0  0  0  0  0  0  0  0  0  0  0  0
    3.4496   -0.1519    0.1391 C   0  0  0  0  0  0  0  0  0  0  0  0
   -7.9895    0.9121   -0.4010 C   0  0  0  0  0  0  0  0  0  0  0  0
    4.1270    0.2157   -1.0152 C   0  0  0  0  0  0  0  0  0  0  0  0
    3.1424    0.7844    1.1166 C   0  0  0  0  0  0  0  0  0  0  0  0
    4.5050    1.5461   -1.1956 C   0  0  0  0  0  0  0  0  0  0  0  0
    3.5204    2.1149    0.9360 C   0  0  0  0  0  0  0  0  0  0  0  0
    4.2017    2.4957   -0.2202 C   0  0  0  0  0  0  0  0  0  0  0  0
  1  6  1  0
  1  8  1  0
  1 10  1  0
  2  3  1  0
  2  4  1  0
  3  5  1  0
  4  6  1  0
  5  7  1  0
  7  9  1  0
  8 11  1  0
  9 12  1  0
 11 13  2  0
 11 14  1  0
 13 15  1  0
 14 16  2  0
 15 17  2  0
 16 17  1  0
M  END
>  <PUBCHEM_COMPOUND_CID>  (1) 
46295

>  <PUBCHEM_CONFORMER_RMSD>  (1) 
0.8

>  <PUBCHEM_CONFORMER_DIVERSEORDER>  (1) 
1
294
136
258
124
341
95
62
160
268
3
273
84
309
303
146
234
120
206
251
48
281
13
9
55
128
291
112
194
330
211
47
326
4
212
25
148
29
139
68
328
23
82
70
69
250
289
106
244
324
157
325
240
180
61
317
71
35
132
276
96
173
266
14
163
339
196
349
138
16
102
296
18
193
94
58
286
293
134
11
67
142
45
319
66
350
188
221
38
245
83
179
187
203
274
50
295
42
190
298
26
215
183
32
59
321
122
24
64
21
141
156
237
60
217
334
329
198
290
235
77
90
164
147
182
133
272
210
219
337
117
51
57
236
65
313
165
264
2
108
73
292
307
17
53
39
30
322
151
207
37
167
197
261
107
310
267
243
239
86
8
155
34
166
201
241
311
223
33
312
126
6
89
31
27
278
205
97
154
7
308
336
271
323
275
92
316
333
43
46
93
269
348
15
129
270
200
285
248
22
10
300
131
204
220
158
28
257
178
209
189
5
232
344
79
242
283
145
299
181
304
177
175
152
20
85
351
171
342
19
185
247
186
202
224
195
54
113
119
140
287
256
88
109
78
297
265
159
338
280
230
231
101
255
282
279
110
301
228
213
225
302
314
103
208
149
137
320
105
36
331
41
246
262
104
305
80
81
44
233
162
222
340
127
12
327
56
229
343
318
40
288
161
346
100
115
192
249
184
335
174
172
125
123
143
345
199
227
238
76
253
153
216
218
284
277
91
252
135
72
170
99
75
150
87
111
144
306
226
118
121
49
254
74
116
168
114
176
98
169
315
191
260
259
52
347
63
130
332
263
214

>  <PUBCHEM_MMFF94_PARTIAL_CHARGES>  (1) 
15
1 -0.81
10 0.27
11 -0.14
13 -0.15
14 -0.15
15 -0.15
16 -0.15
17 -0.15
40 0.15
41 0.15
42 0.15
43 0.15
44 0.15
6 0.27
8 0.41

>  <PUBCHEM_EFFECTIVE_ROTOR_COUNT>  (1) 
9

>  <PUBCHEM_PHARMACOPHORE_FEATURES>  (1) 
5
1 1 cation
1 12 hydrophobe
3 2 3 4 hydrophobe
3 5 7 9 hydrophobe
6 11 13 14 15 16 17 rings

>  <PUBCHEM_HEAVY_ATOM_COUNT>  (1) 
17

>  <PUBCHEM_ATOM_DEF_STEREO_COUNT>  (1) 
0

>  <PUBCHEM_ATOM_UDEF_STEREO_COUNT>  (1) 
0

>  <PUBCHEM_BOND_DEF_STEREO_COUNT>  (1) 
0

>  <PUBCHEM_BOND_UDEF_STEREO_COUNT>  (1) 
0

>  <PUBCHEM_ISOTOPIC_ATOM_COUNT>  (1) 
0

>  <PUBCHEM_COMPONENT_COUNT>  (1) 
1

>  <PUBCHEM_CACTVS_TAUTO_COUNT>  (1) 
1

>  <PUBCHEM_CONFORMER_ID>  (1) 
0000B4D700000001

>  <PUBCHEM_MMFF94_ENERGY>  (1) 
28.0566

>  <PUBCHEM_FEATURE_SELFOVERLAP>  (1) 
25.383

>  <PUBCHEM_SHAPE_FINGERPRINT>  (1) 
10411042 1 17834113044450923658
10498660 4 18269279122153565352
10638233 991 17988646286004588025
125118 31 18188771644450741301
12616971 3 18270948073420083319
12617007 42 14189564252215142683
12730499 353 18409456881628249155
13533116 47 18339643331009385803
13551218 46 8142087563864063073
13878862 14 18190721090807508117
13955234 65 18261952925606568659
14170010 4 18340202999866496314
1420 369 8502384333671266325
14251732 16 18335985346492829035
14251764 75 17461737373842364612
14252887 29 8430323424599074646
14429380 56 18337095823077212197
14461889 52 17967821578645010499
14528608 73 18272086123831097415
14774955 27 18335699472535683909
15210252 30 18337392755161900424
15342168 16 18334858363241248350
155225 6 17897456209505318765
15885798 251 9367079860426471030
16079462 125 17748819688793547949
17810953 82 18261395589190980412
17834072 33 18273209799256337903
17844677 252 18267870476371038401
18335252 114 18341330015868288996
19427546 62 18409167710239319083
20157964 124 18409729535158442619
21049683 118 18115570677560692107
212847 35 18410292519250004384
21344244 78 18123732176681103066
220451 1 10954037944411946827
22061861 79 11167940234935362521
221357 26 18131358479451673652
23081809 10 17774432782319370955
23532345 1 18410013213037021763
270888 7 18264209295618728348
328310 630 18271810069900420497
3472631 163 18272373117640531725
44555599 121 18056483851446971705
445580 126 18341602737802234592
474 4 18409450297290124138
5312510 48 18342176704410411193
6025842 7 18341332189180457911
621550 34 17968372347649186831
633830 44 18271802475448207942
7808743 9 17974291233817060092
960060 61 12967130548831805768

>  <PUBCHEM_SHAPE_MULTIPOLES>  (1) 
344.87
16.82
2.66
0.95
40.04
1.07
-0.03
-11.66
-2.28
-3.84
0.04
-0.9
-0.3
-0.16

>  <PUBCHEM_SHAPE_SELFOVERLAP>  (1) 
670.249

>  <PUBCHEM_SHAPE_VOLUME>  (1) 
209.3

>  <PUBCHEM_COORDINATE_TYPE>  (1) 
2
5
10

$$$$
