46301
     RDKit          3D

 16 17  0  0  1  0  0  0  0  0999 V2000
   -2.7057    1.3023    1.4334 O   0  0  0  0  0  0  0  0  0  0  0  0
   -1.6147   -0.3293    0.2231 N   0  0  0  0  0  0  0  0  0  0  0  0
    1.1482   -0.3526   -0.4780 N   0  0  0  0  0  0  0  0  0  0  0  0
   -0.6437   -0.7194    1.2290 C   0  0  0  0  0  0  0  0  0  0  0  0
   -1.2094   -1.0144   -0.9953 C   0  0  0  0  0  0  0  0  0  0  0  0
   -0.5399   -2.2343    1.0039 C   0  0  0  0  0  0  0  0  0  0  0  0
   -0.9145   -2.4312   -0.4797 C   0  0  0  0  0  0  0  0  0  0  0  0
    0.6759    0.0044    0.8762 C   0  0  0  0  0  0  0  0  0  0  0  0
    0.0741   -0.3095   -1.4925 C   0  0  0  0  0  0  0  0  0  0  0  0
    2.2927    0.4593   -0.8764 C   0  0  0  0  0  0  0  0  0  0  0  0
   -2.5699    0.6483    0.3983 C   0  0  0  0  0  0  0  0  0  0  0  0
    3.4642    0.2291    0.0768 C   0  0  0  0  0  0  0  0  0  0  0  0
   -3.4838    0.8835   -0.7758 C   0  0  0  0  0  0  0  0  0  0  0  0
    4.6828    1.0555   -0.3357 C   0  0  0  0  0  0  0  0  0  0  0  0
   -4.4981    1.9491   -0.4360 C   0  0  0  0  0  0  0  0  0  0  0  0
    5.8418    0.8592    0.6285 C   0  0  0  0  0  0  0  0  0  0  0  0
  1 11  2  0
  2  4  1  0
  2  5  1  0
  2 11  1  0
  3  8  1  0
  3  9  1  0
  3 10  1  0
  4  6  1  0
  4  8  1  0
  5  7  1  0
  5  9  1  0
  6  7  1  0
 10 12  1  0
 11 13  1  0
 12 14  1  0
 13 15  1  0
 14 16  1  0
M  END
>  <PUBCHEM_COMPOUND_CID>  (1) 
46301

>  <PUBCHEM_CONFORMER_RMSD>  (1) 
0.8

>  <PUBCHEM_CONFORMER_DIVERSEORDER>  (1) 
1
8
18
28
25
24
29
30
15
22
21
16
19
26
3
17
20
10
6
23
7
13
27
5
12
14
11
4
2
9

>  <PUBCHEM_MMFF94_PARTIAL_CHARGES>  (1) 
10
1 -0.57
10 0.27
11 0.57
13 0.06
2 -0.66
3 -0.81
4 0.3
5 0.3
8 0.27
9 0.27

>  <PUBCHEM_EFFECTIVE_ROTOR_COUNT>  (1) 
6.2

>  <PUBCHEM_PHARMACOPHORE_FEATURES>  (1) 
5
1 1 acceptor
1 15 hydrophobe
1 16 hydrophobe
1 3 cation
8 2 3 4 5 6 7 8 9 rings

>  <PUBCHEM_HEAVY_ATOM_COUNT>  (1) 
16

>  <PUBCHEM_ATOM_DEF_STEREO_COUNT>  (1) 
0

>  <PUBCHEM_ATOM_UDEF_STEREO_COUNT>  (1) 
2

>  <PUBCHEM_BOND_DEF_STEREO_COUNT>  (1) 
0

>  <PUBCHEM_BOND_UDEF_STEREO_COUNT>  (1) 
0

>  <PUBCHEM_ISOTOPIC_ATOM_COUNT>  (1) 
0

>  <PUBCHEM_COMPONENT_COUNT>  (1) 
1

>  <PUBCHEM_CACTVS_TAUTO_COUNT>  (1) 
1

>  <PUBCHEM_CONFORMER_ID>  (1) 
0000B4DD00000001

>  <PUBCHEM_MMFF94_ENERGY>  (1) 
34.1114

>  <PUBCHEM_FEATURE_SELFOVERLAP>  (1) 
25.371

>  <PUBCHEM_SHAPE_FINGERPRINT>  (1) 
10014705 185 18341330084825414952
11315181 36 18115580612769190132
12119455 92 17894625929209126877
12138202 97 18130790078963058575
12251169 10 14707216500189161085
12423570 1 12440842273431185091
124424 183 17846501452582141632
12500047 106 18341328985450800826
12633257 1 14924235897561143317
13024252 1 12757693379160777455
13675066 3 17530687610865280536
14178000 22 18334011679353581639
14943859 89 18412545405215661794
15061688 2 18262518087736568173
15534591 1 18335698364407935943
15775835 57 18335417929145587973
16945 1 16988838359191068647
17093844 174 18271241733983578736
18186145 218 18198360480058691039
187816 3 14549017688762739788
20112054 13 17749106673364096428
20645477 56 18342184405170026560
20645477 70 16486707887682021908
20671657 53 12823291299530313706
212916 134 18338220627244894840
21524375 3 18334297552492646549
23402539 116 18343295994166795837
23419403 2 16341722057763596747
23559900 14 18059863857527305654
2838139 119 18272362045083642356
328317 168 17418093213323188788
3286 77 15213881435134550465
4175511 318 18060424646415974724
5706482 22 18334298686163870963

>  <PUBCHEM_SHAPE_MULTIPOLES>  (1) 
313.44
8.74
1.98
1.3
11.11
0.92
-0.03
-7.39
-0.54
-1.77
-0.08
-0.34
0.11
-0.01

>  <PUBCHEM_SHAPE_SELFOVERLAP>  (1) 
629.189

>  <PUBCHEM_SHAPE_VOLUME>  (1) 
184.2

>  <PUBCHEM_COORDINATE_TYPE>  (1) 
2
5
10

$$$$
