46309
     RDKit          3D

 20 21  0  0  0  0  0  0  0  0999 V2000
    4.8637   -0.3327   -0.5401 O   0  0  0  0  0  0  0  0  0  0  0  0
   -4.8636    0.3328   -0.5401 O   0  0  0  0  0  0  0  0  0  0  0  0
    0.7235   -0.0414   -0.4845 C   0  0  0  0  0  0  0  0  0  0  0  0
   -0.7235    0.0413   -0.4844 C   0  0  0  0  0  0  0  0  0  0  0  0
    1.4905    0.7613    0.3599 C   0  0  0  0  0  0  0  0  0  0  0  0
   -1.4905   -0.7613    0.3599 C   0  0  0  0  0  0  0  0  0  0  0  0
    0.8568    1.7375    1.2984 C   0  0  0  0  0  0  0  0  0  0  0  0
   -0.8568   -1.7375    1.2984 C   0  0  0  0  0  0  0  0  0  0  0  0
    0.6687    3.1175    0.6563 C   0  0  0  0  0  0  0  0  0  0  0  0
   -0.6688   -3.1175    0.6564 C   0  0  0  0  0  0  0  0  0  0  0  0
    1.3479   -0.9417   -1.3477 C   0  0  0  0  0  0  0  0  0  0  0  0
   -1.3479    0.9417   -1.3477 C   0  0  0  0  0  0  0  0  0  0  0  0
    2.8818    0.6636    0.3411 C   0  0  0  0  0  0  0  0  0  0  0  0
   -2.8818   -0.6636    0.3411 C   0  0  0  0  0  0  0  0  0  0  0  0
    3.5062   -0.2368   -0.5220 C   0  0  0  0  0  0  0  0  0  0  0  0
   -3.5062    0.2368   -0.5221 C   0  0  0  0  0  0  0  0  0  0  0  0
    2.7392   -1.0394   -1.3665 C   0  0  0  0  0  0  0  0  0  0  0  0
   -2.7391    1.0395   -1.3665 C   0  0  0  0  0  0  0  0  0  0  0  0
   -0.0063    4.0953    1.6051 C   0  0  0  0  0  0  0  0  0  0  0  0
    0.0063   -4.0953    1.6050 C   0  0  0  0  0  0  0  0  0  0  0  0
  1 15  1  0
  2 16  1  0
  3  4  1  0
  3  5  2  0
  3 11  1  0
  4  6  2  0
  4 12  1  0
  5  7  1  0
  5 13  1  0
  6  8  1  0
  6 14  1  0
  7  9  1  0
  8 10  1  0
  9 19  1  0
 10 20  1  0
 11 17  2  0
 12 18  2  0
 13 15  2  0
 14 16  2  0
 15 17  1  0
 16 18  1  0
M  END
>  <PUBCHEM_COMPOUND_CID>  (1) 
46309

>  <PUBCHEM_CONFORMER_RMSD>  (1) 
0.8

>  <PUBCHEM_CONFORMER_DIVERSEORDER>  (1) 
1
4
3
2

>  <PUBCHEM_MMFF94_PARTIAL_CHARGES>  (1) 
22
1 -0.53
11 -0.15
12 -0.15
13 -0.15
14 -0.15
15 0.08
16 0.08
17 -0.15
18 -0.15
2 -0.53
29 0.15
30 0.15
31 0.15
32 0.15
33 0.15
34 0.15
41 0.45
42 0.45
5 -0.14
6 -0.14
7 0.14
8 0.14

>  <PUBCHEM_EFFECTIVE_ROTOR_COUNT>  (1) 
5

>  <PUBCHEM_PHARMACOPHORE_FEATURES>  (1) 
6
1 1 donor
1 19 hydrophobe
1 2 donor
1 20 hydrophobe
6 3 5 11 13 15 17 rings
6 4 6 12 14 16 18 rings

>  <PUBCHEM_HEAVY_ATOM_COUNT>  (1) 
20

>  <PUBCHEM_ATOM_DEF_STEREO_COUNT>  (1) 
0

>  <PUBCHEM_ATOM_UDEF_STEREO_COUNT>  (1) 
0

>  <PUBCHEM_BOND_DEF_STEREO_COUNT>  (1) 
0

>  <PUBCHEM_BOND_UDEF_STEREO_COUNT>  (1) 
0

>  <PUBCHEM_ISOTOPIC_ATOM_COUNT>  (1) 
0

>  <PUBCHEM_COMPONENT_COUNT>  (1) 
1

>  <PUBCHEM_CACTVS_TAUTO_COUNT>  (1) 
17

>  <PUBCHEM_CONFORMER_ID>  (1) 
0000B4E500000001

>  <PUBCHEM_MMFF94_ENERGY>  (1) 
51.0236

>  <PUBCHEM_FEATURE_SELFOVERLAP>  (1) 
30.446

>  <PUBCHEM_SHAPE_FINGERPRINT>  (1) 
10006869 2 17622170062299820129
104564 63 17916310437577325168
10906281 52 18200896031604136544
12035758 1 18338797930514743976
12293681 4 18343027678901353785
12403259 226 18337388365567361615
12507560 18 18410012126140861424
12592029 89 16806172038413443882
12633257 1 18122343742143726465
12788726 201 18270122301806977704
14115302 16 18187656816452019118
14223421 5 17618224352404465218
14648413 74 18053940933447095960
14943834 7 17473825026435186890
15279308 132 18334577957664155058
16945 1 17917418835143809509
20510252 161 18335987462946354996
20600515 1 18336279993290309124
21421861 104 17834121840105122003
23175994 123 18272095993402595940
23526113 38 18412265008328762783
23558518 356 17909003014769001180
2748010 2 17617941773584171223
298252 57 16950289489815491726
3084891 72 18411136896803971674
3250762 1 17906171007274582258
350125 39 17193185060498313288
7226269 152 18411411783696079970
7364860 26 17900247620762444595
77492 1 15769779060787450846
81228 2 18056779653832993384

>  <PUBCHEM_SHAPE_MULTIPOLES>  (1) 
399.85
5.83
3.97
1.57
0
0
-0.11
0
2.45
0
-3.48
0
0
1.28

>  <PUBCHEM_SHAPE_SELFOVERLAP>  (1) 
845.518

>  <PUBCHEM_SHAPE_VOLUME>  (1) 
225.4

>  <PUBCHEM_COORDINATE_TYPE>  (1) 
2
5
10

$$$$
