46316
     RDKit          3D

 23 24  0  0  0  0  0  0  0  0999 V2000
    2.3466    0.2813   -0.1750 O   0  0  0  0  0  0  0  0  0  0  0  0
    1.9224    2.4138   -0.9311 O   0  0  0  0  0  0  0  0  0  0  0  0
    5.9249   -0.5698    0.0632 N   0  0  0  0  0  0  0  0  0  0  0  0
   -7.9958   -1.0908    0.4529 N   0  0  0  0  0  0  0  0  0  0  0  0
    4.4774   -0.7508    0.1656 C   0  0  0  0  0  0  0  0  0  0  0  0
    6.6219   -1.7967    0.4474 C   0  0  0  0  0  0  0  0  0  0  0  0
    6.3606    0.5486    0.8988 C   0  0  0  0  0  0  0  0  0  0  0  0
    3.7465    0.5076   -0.2743 C   0  0  0  0  0  0  0  0  0  0  0  0
    6.1813   -2.9701   -0.4111 C   0  0  0  0  0  0  0  0  0  0  0  0
    7.8538    0.7903    0.7577 C   0  0  0  0  0  0  0  0  0  0  0  0
   -2.5487    0.2868   -0.1116 C   0  0  0  0  0  0  0  0  0  0  0  0
    0.1133    0.9594   -0.3864 C   0  0  0  0  0  0  0  0  0  0  0  0
   -3.9443   -0.0663    0.0340 C   0  0  0  0  0  0  0  0  0  0  0  0
    1.5453    1.3215   -0.5360 C   0  0  0  0  0  0  0  0  0  0  0  0
   -2.1433    1.6113    0.0529 C   0  0  0  0  0  0  0  0  0  0  0  0
   -1.6082   -0.6976   -0.4150 C   0  0  0  0  0  0  0  0  0  0  0  0
   -0.7977    1.9513   -0.0860 C   0  0  0  0  0  0  0  0  0  0  0  0
   -0.2626   -0.3577   -0.5539 C   0  0  0  0  0  0  0  0  0  0  0  0
   -4.7619    0.6632    0.8968 C   0  0  0  0  0  0  0  0  0  0  0  0
   -4.4718   -1.1359   -0.6891 C   0  0  0  0  0  0  0  0  0  0  0  0
   -6.1074    0.3232    1.0365 C   0  0  0  0  0  0  0  0  0  0  0  0
   -5.8173   -1.4761   -0.5495 C   0  0  0  0  0  0  0  0  0  0  0  0
   -6.6351   -0.7465    0.3134 C   0  0  0  0  0  0  0  0  0  0  0  0
  1  8  1  0
  1 14  1  0
  2 14  2  0
  3  5  1  0
  3  6  1  0
  3  7  1  0
  4 23  1  0
  5  8  1  0
  6  9  1  0
  7 10  1  0
 11 13  1  0
 11 15  2  0
 11 16  1  0
 12 14  1  0
 12 17  2  0
 12 18  1  0
 13 19  2  0
 13 20  1  0
 15 17  1  0
 16 18  2  0
 19 21  1  0
 20 22  2  0
 21 23  2  0
 22 23  1  0
M  END
>  <PUBCHEM_COMPOUND_CID>  (1) 
46316

>  <PUBCHEM_CONFORMER_RMSD>  (1) 
0.8

>  <PUBCHEM_CONFORMER_DIVERSEORDER>  (1) 
1
70
61
41
32
2
50
66
48
43
63
37
29
21
49
20
46
4
62
59
31
13
58
18
65
34
26
23
14
45
7
24
9
64
19
69
5
44
3
11
15
60
22
47
6
57
8
10
30
52
68
25
40
16
28
51
38
42
12
56
17
53
33
74
55
67
36
27
72
39
35
54
71
73

>  <PUBCHEM_MMFF94_PARTIAL_CHARGES>  (1) 
29
1 -0.43
12 0.09
14 0.63
15 -0.15
16 -0.15
17 -0.15
18 -0.15
19 -0.15
2 -0.57
20 -0.15
21 -0.15
22 -0.15
23 0.1
3 -0.81
38 0.15
39 0.15
4 -0.9
40 0.15
41 0.15
42 0.15
43 0.15
44 0.15
45 0.15
46 0.4
47 0.4
5 0.27
6 0.27
7 0.27
8 0.28

>  <PUBCHEM_EFFECTIVE_ROTOR_COUNT>  (1) 
8

>  <PUBCHEM_PHARMACOPHORE_FEATURES>  (1) 
6
1 2 acceptor
1 3 cation
1 4 cation
1 4 donor
6 11 12 15 16 17 18 rings
6 13 19 20 21 22 23 rings

>  <PUBCHEM_HEAVY_ATOM_COUNT>  (1) 
23

>  <PUBCHEM_ATOM_DEF_STEREO_COUNT>  (1) 
0

>  <PUBCHEM_ATOM_UDEF_STEREO_COUNT>  (1) 
0

>  <PUBCHEM_BOND_DEF_STEREO_COUNT>  (1) 
0

>  <PUBCHEM_BOND_UDEF_STEREO_COUNT>  (1) 
0

>  <PUBCHEM_ISOTOPIC_ATOM_COUNT>  (1) 
0

>  <PUBCHEM_COMPONENT_COUNT>  (1) 
1

>  <PUBCHEM_CACTVS_TAUTO_COUNT>  (1) 
2

>  <PUBCHEM_CONFORMER_ID>  (1) 
0000B4EC00000001

>  <PUBCHEM_MMFF94_ENERGY>  (1) 
74.022

>  <PUBCHEM_FEATURE_SELFOVERLAP>  (1) 
30.446

>  <PUBCHEM_SHAPE_FINGERPRINT>  (1) 
10 15 16630525146065084096
10299344 5 18272933830279923186
106641 1 18201998863299408008
10670039 82 12540680523330085991
10753850 27 18040995146123611752
11135609 127 11891627849425516542
11315181 36 18060419136537215633
11524674 6 16487253274823463375
12236239 1 18413109463302482417
12516196 113 18411417311256023936
12596602 18 18060137613936180474
12760667 363 18333733511733641545
13073987 5 18271241626250823688
13533116 47 18409730686188916736
13551218 46 18341331102695812582
13668630 136 17821730546292905291
13673619 4 17385722495526321188
13685833 64 18334294266932335810
13862211 1 18409451392828375495
13885169 127 18260263015416513117
13968360 50 14201387271401129128
14216079 64 18408040688907772527
14251752 14 13984658161545375856
14251764 18 18273215317561222076
14598715 104 13254520799854310779
14849402 71 17987797556853009680
15048467 5 10447930564134004505
15461852 350 16415471658895202965
15690457 1 18411416241825114875
15716309 27 18272931622075967279
1768 124 18272369767756535958
18335252 98 18411418411031162074
21130935 74 18272653415886328314
21150785 3 12324241672460939265
21267235 1 18408889512448417942
21365058 113 16660652872920794837
21585482 111 10879176621298906731
21792934 111 18342170090493104249
221357 26 11314307244342275742
22224240 67 16343702149197310543
23522609 53 18121251785480630916
23559900 14 17241333610886627237
28498 318 18261108561417057159
3383291 50 18113340825104021643
3472631 163 8934990487087829466
34797466 226 15647340800789076805
3663271 9 18060421292178236450
406291 66 17315341546117778122
4340502 62 15051740784924462037
465052 167 18336272313698671663
5104073 3 17702109071095147602
54076057 255 15051445081723147082
543368 44 9295287236333137571
559249 180 18411419497657835893
59682541 35 18343300404966411706
59682541 52 13623527940417469194
59755656 520 10807932652299882297

>  <PUBCHEM_SHAPE_MULTIPOLES>  (1) 
451.63
22.93
2.13
0.89
11.18
0.52
-0.07
11.14
-6.72
2.48
0.37
-0.14
-0.09
-0.2

>  <PUBCHEM_SHAPE_SELFOVERLAP>  (1) 
947.266

>  <PUBCHEM_SHAPE_VOLUME>  (1) 
257.5

>  <PUBCHEM_COORDINATE_TYPE>  (1) 
2
5
10

$$$$
