46319
     RDKit          3D

 20 21  0  0  0  0  0  0  0  0999 V2000
    4.8750    0.0014   -0.4322 O   0  0  0  0  0  0  0  0  0  0  0  0
   -4.8750   -0.0014   -0.4322 O   0  0  0  0  0  0  0  0  0  0  0  0
    0.7246   -0.0081   -0.3778 C   0  0  0  0  0  0  0  0  0  0  0  0
   -0.7246    0.0081   -0.3778 C   0  0  0  0  0  0  0  0  0  0  0  0
    1.4351   -0.8604    0.4673 C   0  0  0  0  0  0  0  0  0  0  0  0
   -1.4351    0.8604    0.4673 C   0  0  0  0  0  0  0  0  0  0  0  0
    0.7363   -1.7912    1.4057 C   0  0  0  0  0  0  0  0  0  0  0  0
   -0.7363    1.7912    1.4057 C   0  0  0  0  0  0  0  0  0  0  0  0
    1.4090    0.8476   -1.2410 C   0  0  0  0  0  0  0  0  0  0  0  0
   -1.4090   -0.8476   -1.2410 C   0  0  0  0  0  0  0  0  0  0  0  0
    2.8298   -0.8572    0.4492 C   0  0  0  0  0  0  0  0  0  0  0  0
   -2.8299    0.8572    0.4493 C   0  0  0  0  0  0  0  0  0  0  0  0
    2.8037    0.8509   -1.2591 C   0  0  0  0  0  0  0  0  0  0  0  0
   -2.8037   -0.8509   -1.2591 C   0  0  0  0  0  0  0  0  0  0  0  0
    3.5142   -0.0015   -0.4140 C   0  0  0  0  0  0  0  0  0  0  0  0
   -3.5142    0.0015   -0.4140 C   0  0  0  0  0  0  0  0  0  0  0  0
    0.4519   -3.1366    0.7933 C   0  0  0  0  0  0  0  0  0  0  0  0
   -0.4519    3.1366    0.7933 C   0  0  0  0  0  0  0  0  0  0  0  0
   -0.7766   -3.6330    0.6086 C   0  0  0  0  0  0  0  0  0  0  0  0
    0.7766    3.6329    0.6086 C   0  0  0  0  0  0  0  0  0  0  0  0
  1 15  1  0
  2 16  1  0
  3  4  1  0
  3  5  2  0
  3  9  1  0
  4  6  2  0
  4 10  1  0
  5  7  1  0
  5 11  1  0
  6  8  1  0
  6 12  1  0
  7 17  1  0
  8 18  1  0
  9 13  2  0
 10 14  2  0
 11 15  2  0
 12 16  2  0
 13 15  1  0
 14 16  1  0
 17 19  2  0
 18 20  2  0
M  END
>  <PUBCHEM_COMPOUND_CID>  (1) 
46319

>  <PUBCHEM_CONFORMER_RMSD>  (1) 
0.8

>  <PUBCHEM_CONFORMER_DIVERSEORDER>  (1) 
1
8
5
2
9
7
6
3
4

>  <PUBCHEM_MMFF94_PARTIAL_CHARGES>  (1) 
32
1 -0.53
10 -0.15
11 -0.15
12 -0.15
13 -0.15
14 -0.15
15 0.08
16 0.08
17 -0.29
18 -0.29
19 -0.3
2 -0.53
20 -0.3
25 0.15
26 0.15
27 0.15
28 0.15
29 0.15
30 0.15
31 0.15
32 0.15
33 0.45
34 0.45
35 0.15
36 0.15
37 0.15
38 0.15
5 -0.14
6 -0.14
7 0.28
8 0.28
9 -0.15

>  <PUBCHEM_EFFECTIVE_ROTOR_COUNT>  (1) 
5

>  <PUBCHEM_PHARMACOPHORE_FEATURES>  (1) 
6
1 1 donor
1 19 hydrophobe
1 2 donor
1 20 hydrophobe
6 3 5 9 11 13 15 rings
6 4 6 10 12 14 16 rings

>  <PUBCHEM_HEAVY_ATOM_COUNT>  (1) 
20

>  <PUBCHEM_ATOM_DEF_STEREO_COUNT>  (1) 
0

>  <PUBCHEM_ATOM_UDEF_STEREO_COUNT>  (1) 
0

>  <PUBCHEM_BOND_DEF_STEREO_COUNT>  (1) 
0

>  <PUBCHEM_BOND_UDEF_STEREO_COUNT>  (1) 
0

>  <PUBCHEM_ISOTOPIC_ATOM_COUNT>  (1) 
0

>  <PUBCHEM_COMPONENT_COUNT>  (1) 
1

>  <PUBCHEM_CACTVS_TAUTO_COUNT>  (1) 
17

>  <PUBCHEM_CONFORMER_ID>  (1) 
0000B4EF00000001

>  <PUBCHEM_MMFF94_ENERGY>  (1) 
54.1137

>  <PUBCHEM_FEATURE_SELFOVERLAP>  (1) 
30.447

>  <PUBCHEM_SHAPE_FINGERPRINT>  (1) 
10871710 139 18338532832671222036
1100329 8 18338517559344627986
11578080 2 17976219574636936628
12236239 1 18410575067483210061
12592029 89 17313097532087457546
12788726 201 18341901749367531296
13149001 5 18194965368477408932
13965767 371 17339866074731759233
14178342 30 17544736946838100434
14787075 74 18410574032406660393
14943834 7 17762056540753232034
15420108 30 14811329947766233577
1601671 61 17988365845977910073
16945 1 18338797930514743349
200 152 18333730191270358133
20600515 1 17057770071746563051
20691752 17 18193253390693308573
21421861 104 17905619804642323763
22112679 90 18200875063330970513
23388829 49 18192428576119379625
23402539 116 18131630063002332700
23419403 2 17826815907487640697
23557571 272 17632302237742267116
23559900 14 18339361985366912804
2748010 2 16825589804337987599
3250762 1 17690280829713907930
34934 24 18270121184873049745
352729 6 18262254290919380138
394222 165 17603861174581828264
4340502 62 18114754771993957371
5845 1 8026532288703094376
6992083 37 16969138134040254690
7097593 13 17401485948904778883
77492 1 18410575058893275397
81228 2 17987258680016734192
8272917 22 18116432536401179623

>  <PUBCHEM_SHAPE_MULTIPOLES>  (1) 
399.85
5.87
3.61
1.32
0
0
-0.06
0
-2.04
0
1.94
0
0
-0.76

>  <PUBCHEM_SHAPE_SELFOVERLAP>  (1) 
855.663

>  <PUBCHEM_SHAPE_VOLUME>  (1) 
221.8

>  <PUBCHEM_COORDINATE_TYPE>  (1) 
2
5
10

$$$$
