4633
     RDKit          3D

 22 22  0  0  0  0  0  0  0  0999 V2000
   -1.3674    0.9308   -0.1987 O   0  0  0  0  0  0  0  0  0  0  0  0
    3.2497   -0.4193    0.9026 O   0  0  0  0  0  0  0  0  0  0  0  0
   -1.3658    3.2175    0.0652 O   0  0  0  0  0  0  0  0  0  0  0  0
   -4.7331   -0.5658   -0.3900 N   0  0  0  0  0  0  0  0  0  0  0  0
    4.8795    1.6679   -0.0606 N   0  0  0  0  0  0  0  0  0  0  0  0
   -3.2790   -0.5084   -0.3853 C   0  0  0  0  0  0  0  0  0  0  0  0
   -5.2012   -1.8001   -1.0252 C   0  0  0  0  0  0  0  0  0  0  0  0
   -5.2599   -0.4682    0.9736 C   0  0  0  0  0  0  0  0  0  0  0  0
   -2.7989    0.9241   -0.2149 C   0  0  0  0  0  0  0  0  0  0  0  0
   -4.7438   -3.0241   -0.2499 C   0  0  0  0  0  0  0  0  0  0  0  0
   -6.7792   -0.4577    0.9757 C   0  0  0  0  0  0  0  0  0  0  0  0
    4.0619   -2.6043    0.3559 C   0  0  0  0  0  0  0  0  0  0  0  0
    2.9009   -1.6268    0.2399 C   0  0  0  0  0  0  0  0  0  0  0  0
    3.7608   -3.9232   -0.3505 C   0  0  0  0  0  0  0  0  0  0  0  0
    2.6809    0.7338    0.4270 C   0  0  0  0  0  0  0  0  0  0  0  0
    0.6925    2.0197   -0.0523 C   0  0  0  0  0  0  0  0  0  0  0  0
   -0.7564    2.1461   -0.0520 C   0  0  0  0  0  0  0  0  0  0  0  0
    1.2913    0.8550    0.4277 C   0  0  0  0  0  0  0  0  0  0  0  0
    3.4718    1.7775   -0.0533 C   0  0  0  0  0  0  0  0  0  0  0  0
    4.9391   -4.8804   -0.2692 C   0  0  0  0  0  0  0  0  0  0  0  0
    1.4834    3.0635   -0.5328 C   0  0  0  0  0  0  0  0  0  0  0  0
    2.8730    2.9424   -0.5331 C   0  0  0  0  0  0  0  0  0  0  0  0
  1  9  1  0
  1 17  1  0
  2 13  1  0
  2 15  1  0
  3 17  2  0
  4  6  1  0
  4  7  1  0
  4  8  1  0
  5 19  1  0
  6  9  1  0
  7 10  1  0
  8 11  1  0
 12 13  1  0
 12 14  1  0
 14 20  1  0
 15 18  2  0
 15 19  1  0
 16 17  1  0
 16 18  1  0
 16 21  2  0
 19 22  2  0
 21 22  1  0
M  END
>  <PUBCHEM_COMPOUND_CID>  (1) 
4633

>  <PUBCHEM_CONFORMER_RMSD>  (1) 
1

>  <PUBCHEM_CONFORMER_DIVERSEORDER>  (1) 
1
106
44
94
110
98
38
42
120
101
14
3
97
103
104
83
87
62
43
99
71
113
91
60
30
114
92
96
50
121
33
37
32
122
109
52
23
73
85
80
45
56
20
58
117
88
116
81
54
40
78
35
6
25
55
72
29
112
63
7
108
90
61
64
13
95
21
18
68
15
107
66
47
53
69
84
111
10
9
34
36
46
74
102
124
49
48
26
4
57
28
119
16
100
82
75
86
39
89
118
59
41
11
19
17
79
123
2
51
27
31
5
8
22
76
12
24
65
115
70
105
77
93
67

>  <PUBCHEM_MMFF94_PARTIAL_CHARGES>  (1) 
22
1 -0.43
13 0.28
15 0.08
16 0.09
17 0.63
18 -0.15
19 0.1
2 -0.36
21 -0.15
22 -0.15
3 -0.57
4 -0.81
43 0.15
47 0.15
48 0.15
49 0.4
5 -0.9
50 0.4
6 0.27
7 0.27
8 0.27
9 0.28

>  <PUBCHEM_EFFECTIVE_ROTOR_COUNT>  (1) 
11

>  <PUBCHEM_PHARMACOPHORE_FEATURES>  (1) 
7
1 2 acceptor
1 20 hydrophobe
1 3 acceptor
1 4 cation
1 5 cation
1 5 donor
6 15 16 18 19 21 22 rings

>  <PUBCHEM_HEAVY_ATOM_COUNT>  (1) 
22

>  <PUBCHEM_ATOM_DEF_STEREO_COUNT>  (1) 
0

>  <PUBCHEM_ATOM_UDEF_STEREO_COUNT>  (1) 
0

>  <PUBCHEM_BOND_DEF_STEREO_COUNT>  (1) 
0

>  <PUBCHEM_BOND_UDEF_STEREO_COUNT>  (1) 
0

>  <PUBCHEM_ISOTOPIC_ATOM_COUNT>  (1) 
0

>  <PUBCHEM_COMPONENT_COUNT>  (1) 
1

>  <PUBCHEM_CACTVS_TAUTO_COUNT>  (1) 
2

>  <PUBCHEM_CONFORMER_ID>  (1) 
0000121900000001

>  <PUBCHEM_MMFF94_ENERGY>  (1) 
60.5613

>  <PUBCHEM_FEATURE_SELFOVERLAP>  (1) 
35.52

>  <PUBCHEM_SHAPE_FINGERPRINT>  (1) 
10622 236 17843660370487504855
11059845 2 17199403481663341065
11135926 11 18337664334454008500
11756154 67 18050010982557565742
12107183 9 18126013672236035785
12293681 25 17968961746037363786
12596602 18 17273421784111936769
12969540 37 18336259025792641710
12990986 174 17978508633755865390
13533116 47 18412828001817114609
13690498 29 18043538204907381342
13785724 45 18268721519228757695
13911852 28 18412539899743055479
13955234 65 18341893047553137784
14863182 85 18336264656500229908
14866123 147 17908703930511071977
15250474 111 18126557049865460695
15537594 2 18340210794809632253
16120349 21 17982460304347070745
17492 89 18410571738883568335
17859628 70 18410575110865730720
20028762 73 18269271438836679518
20286276 3 18266458707351482068
20645477 70 18187357791901586417
20775530 9 18268419136346202578
21049683 118 13038898890066265301
21315763 178 18271242849936844205
21521721 280 18196937893119309696
23379529 103 18196370312842554598
23559900 14 18266728108768649477
239999 70 17604426422095359056
314194 84 18267303312843690289
325973 47 18410012152101770667
3421961 26 18411697660645146618
3737641 26 18410012139147147263
56633871 153 18342739581723850067
7970288 3 18194117404896022142
88748 71 18337111159540112911

>  <PUBCHEM_SHAPE_MULTIPOLES>  (1) 
425.18
14.29
5.64
0.85
17.81
5.04
0.04
13.59
1.24
-9.39
-1.08
0.62
0.13
-0.5

>  <PUBCHEM_SHAPE_SELFOVERLAP>  (1) 
846.624

>  <PUBCHEM_SHAPE_VOLUME>  (1) 
254.5

>  <PUBCHEM_COORDINATE_TYPE>  (1) 
2
5
10

$$$$
