46347
     RDKit          3D

 19 19  0  0  0  0  0  0  0  0999 V2000
    3.1769   -0.6127    0.4437 P   0  0  0  0  0  0  0  0  0  0  0  0
   -1.5888   -0.0667   -0.8382 O   0  0  0  0  0  0  0  0  0  0  0  0
   -1.2542    2.1721   -0.3851 O   0  0  0  0  0  0  0  0  0  0  0  0
    2.7574    0.9311    0.5705 O   0  0  0  0  0  0  0  0  0  0  0  0
    4.7759   -0.5950    0.7052 O   0  0  0  0  0  0  0  0  0  0  0  0
    3.0659   -0.8747   -1.1513 O   0  0  0  0  0  0  0  0  0  0  0  0
    2.3984   -1.5682    1.3025 O   0  0  0  0  0  0  0  0  0  0  0  0
   -2.9824   -0.0068   -0.5544 C   0  0  0  0  0  0  0  0  0  0  0  0
   -3.6657   -1.2723   -1.0712 C   0  0  0  0  0  0  0  0  0  0  0  0
   -3.1925    0.1725    0.9483 C   0  0  0  0  0  0  0  0  0  0  0  0
   -5.1459   -1.3004   -0.7044 C   0  0  0  0  0  0  0  0  0  0  0  0
   -4.6727    0.1445    1.3153 C   0  0  0  0  0  0  0  0  0  0  0  0
   -5.3562   -1.1188    0.7970 C   0  0  0  0  0  0  0  0  0  0  0  0
   -0.8579    1.0202   -0.4549 C   0  0  0  0  0  0  0  0  0  0  0  0
    0.5121    0.5529   -0.1353 C   0  0  0  0  0  0  0  0  0  0  0  0
    1.4854    1.3798    0.2769 C   0  0  0  0  0  0  0  0  0  0  0  0
    1.2680    2.8520    0.4495 C   0  0  0  0  0  0  0  0  0  0  0  0
    5.5036   -1.7956    0.5132 C   0  0  0  0  0  0  0  0  0  0  0  0
    3.7729   -0.0139   -2.0272 C   0  0  0  0  0  0  0  0  0  0  0  0
  1  4  1  0
  1  5  1  0
  1  6  1  0
  1  7  2  0
  2  8  1  0
  2 14  1  0
  3 14  2  0
  4 16  1  0
  5 18  1  0
  6 19  1  0
  8  9  1  0
  8 10  1  0
  9 11  1  0
 10 12  1  0
 11 13  1  0
 12 13  1  0
 14 15  1  0
 15 16  2  0
 16 17  1  0
M  END
>  <PUBCHEM_COMPOUND_CID>  (1) 
46347

>  <PUBCHEM_CONFORMER_RMSD>  (1) 
1

>  <PUBCHEM_CONFORMER_DIVERSEORDER>  (1) 
21
144
108
143
50
65
38
105
134
115
107
54
70
16
67
101
85
43
136
57
127
29
97
76
11
100
89
42
138
106
140
104
24
10
69
1
6
141
119
146
19
66
114
8
102
23
124
34
28
103
72
142
92
46
90
117
81
22
130
12
83
139
82
79
9
14
35
111
51
121
113
62
48
122
4
77
47
63
30
58
41
131
60
110
73
88
147
126
17
99
61
49
135
56
123
74
84
44
36
125
39
133
78
145
86
40
109
7
20
2
55
27
93
132
87
98
68
45
91
128
71
129
137
118
64
31
80
59
94
26
15
3
116
33
25
112
75
53
13
96
18
95
120
5
37
32
52

>  <PUBCHEM_MMFF94_PARTIAL_CHARGES>  (1) 
15
1 1.51
14 0.71
15 -0.14
16 -0.06
17 0.14
18 0.28
19 0.28
2 -0.43
3 -0.57
31 0.15
4 -0.35
5 -0.55
6 -0.55
7 -0.7
8 0.28

>  <PUBCHEM_EFFECTIVE_ROTOR_COUNT>  (1) 
8.2

>  <PUBCHEM_PHARMACOPHORE_FEATURES>  (1) 
3
1 3 acceptor
1 7 acceptor
6 8 9 10 11 12 13 rings

>  <PUBCHEM_HEAVY_ATOM_COUNT>  (1) 
19

>  <PUBCHEM_ATOM_DEF_STEREO_COUNT>  (1) 
0

>  <PUBCHEM_ATOM_UDEF_STEREO_COUNT>  (1) 
0

>  <PUBCHEM_BOND_DEF_STEREO_COUNT>  (1) 
0

>  <PUBCHEM_BOND_UDEF_STEREO_COUNT>  (1) 
1

>  <PUBCHEM_ISOTOPIC_ATOM_COUNT>  (1) 
0

>  <PUBCHEM_COMPONENT_COUNT>  (1) 
1

>  <PUBCHEM_CACTVS_TAUTO_COUNT>  (1) 
1

>  <PUBCHEM_CONFORMER_ID>  (1) 
0000B50B00000015

>  <PUBCHEM_MMFF94_ENERGY>  (1) 
34.0747

>  <PUBCHEM_FEATURE_SELFOVERLAP>  (1) 
15.223

>  <PUBCHEM_SHAPE_FINGERPRINT>  (1) 
11140007 195 16845305907661090092
11543360 7 14995999960743742269
12107183 9 18200320901323898569
12553582 1 18412546500527404495
12596599 1 18059584615021414035
12596602 18 17704067417136653835
12633257 1 18343865536805612087
12670546 177 15068340120558845615
12892183 10 15985109578366077932
13103583 49 18342187656808390819
13167823 11 18201441436837381435
13464513 79 18343017809477918450
13533116 47 18268428126334732283
13675066 3 16487259859034356605
13914758 101 18202562857620796597
13955234 65 18265330806000455408
14123255 352 10591754394297279818
14123256 34 18408329869219498570
14251758 9 18131078104471647133
14251764 30 17988088781800678942
14252887 29 18060136527314559722
14528608 73 11746937607128307451
14739800 52 16557332963212149000
15188451 53 17346303939162292215
15375462 189 18408882919220015962
15527383 91 18272370879720100529
15885798 251 18272092686109005305
17870717 6 16370438965377281083
17959699 21 8790346416834401335
1813 80 18410865364349620845
193927 3 18187652353875672010
200 152 17821729407809761634
20281475 54 18408324401699380205
20645477 70 18339913943876460325
20871999 31 15068618284447879049
21065198 48 18059295482645314609
2255824 54 18338518676173703644
22950370 63 18410017628036197680
23402655 69 11674872290839161313
23503953 91 17561082535914919081
235170 7 15864067672122855175
23559900 14 17240762929954825229
23596394 208 17022899072960747733
23598288 3 17975394842057230619
2838139 119 9871747988162113034
314173 85 18202565064289942653
314194 84 18408040723446800746
328317 168 8790884081782165741
351380 3 18408601457049469099
3737641 26 18196655099139103154
42 15 17417816153535597343
4259306 186 17967530164396356603
465052 167 18411142471624094535
5104073 3 17916311705109220691
573450 72 17632016442413169275
5924683 9 15841257251612019239
59682541 35 18338786919379218192
7970288 3 18411132519969169842
8863177 126 18042978768760051851
960060 61 17749387096258475167
9841814 1 18341895220853944976

>  <PUBCHEM_SHAPE_MULTIPOLES>  (1) 
359.64
12.38
2.09
1.37
2.55
1.14
0.29
-8.17
-1.74
-1.17
-0.22
-0.32
-0.31
-0.73

>  <PUBCHEM_SHAPE_SELFOVERLAP>  (1) 
695.728

>  <PUBCHEM_SHAPE_VOLUME>  (1) 
218.4

>  <PUBCHEM_COORDINATE_TYPE>  (1) 
2
5
10

$$$$
