46354
     RDKit          3D

 24 24  0  0  0  0  0  0  0  0999 V2000
   -4.1699    0.8461    0.7861 P   0  0  0  0  0  0  0  0  0  0  0  0
    0.3946   -1.2610   -0.1880 O   0  0  0  0  0  0  0  0  0  0  0  0
   -4.1759   -0.6424    0.1861 O   0  0  0  0  0  0  0  0  0  0  0  0
   -5.6851    1.0452    1.3244 O   0  0  0  0  0  0  0  0  0  0  0  0
   -4.1288    1.7610   -0.5504 O   0  0  0  0  0  0  0  0  0  0  0  0
    5.5934    2.8232   -0.0693 O   0  0  0  0  0  0  0  0  0  0  0  0
    4.0610    2.6593   -1.6326 O   0  0  0  0  0  0  0  0  0  0  0  0
   -0.7762   -2.6875   -1.5749 O   0  0  0  0  0  0  0  0  0  0  0  0
   -3.0909    1.1353    1.7904 O   0  0  0  0  0  0  0  0  0  0  0  0
    4.6460    2.2098   -0.6177 N   0  0  0  0  0  0  0  0  0  0  0  0
    2.7612   -0.9467   -0.1254 C   0  0  0  0  0  0  0  0  0  0  0  0
    3.3920   -1.4693    0.9992 C   0  0  0  0  0  0  0  0  0  0  0  0
    1.6285   -1.6821   -0.7794 C   0  0  0  0  0  0  0  0  0  0  0  0
    3.1715    0.2686   -0.6646 C   0  0  0  0  0  0  0  0  0  0  0  0
    4.4436   -0.7695    1.5907 C   0  0  0  0  0  0  0  0  0  0  0  0
    4.2231    0.9684   -0.0730 C   0  0  0  0  0  0  0  0  0  0  0  0
    4.8592    0.4493    1.0547 C   0  0  0  0  0  0  0  0  0  0  0  0
    2.9654   -2.7727    1.5903 C   0  0  0  0  0  0  0  0  0  0  0  0
   -0.7255   -1.8508   -0.6882 C   0  0  0  0  0  0  0  0  0  0  0  0
   -3.1033   -1.1660   -0.5075 C   0  0  0  0  0  0  0  0  0  0  0  0
   -1.8864   -1.2912    0.0442 C   0  0  0  0  0  0  0  0  0  0  0  0
   -3.3922   -1.5834   -1.9170 C   0  0  0  0  0  0  0  0  0  0  0  0
   -6.7562    0.7905    0.4321 C   0  0  0  0  0  0  0  0  0  0  0  0
   -4.2492    3.1658   -0.4103 C   0  0  0  0  0  0  0  0  0  0  0  0
  1  3  1  0
  1  4  1  0
  1  5  1  0
  1  9  2  0
  2 13  1  0
  2 19  1  0
  3 20  1  0
  4 23  1  0
  5 24  1  0
  6 10  1  0
  7 10  2  0
  8 19  2  0
 10 16  1  0
 11 12  2  0
 11 13  1  0
 11 14  1  0
 12 15  1  0
 12 18  1  0
 14 16  2  0
 15 17  2  0
 16 17  1  0
 19 21  1  0
 20 21  2  0
 20 22  1  0
M  CHG  2   6  -1  10   1
M  END
>  <PUBCHEM_COMPOUND_CID>  (1) 
46354

>  <PUBCHEM_CONFORMER_RMSD>  (1) 
1

>  <PUBCHEM_CONFORMER_DIVERSEORDER>  (1) 
15
114
113
202
116
87
139
148
243
280
71
341
325
59
103
6
219
106
256
23
200
64
180
342
172
286
92
343
183
217
347
283
302
250
228
204
88
307
21
100
126
232
51
75
194
249
128
24
178
348
163
136
216
140
29
14
221
82
267
207
203
28
225
338
104
108
229
352
331
177
99
335
107
195
138
236
68
73
247
208
313
42
241
39
336
144
211
270
91
122
196
186
349
254
145
60
354
137
231
238
350
170
300
61
360
259
50
314
165
143
49
85
45
235
334
197
175
77
356
226
205
57
119
190
326
161
309
93
294
316
5
152
264
168
95
295
315
329
251
79
70
287
246
76
240
244
35
230
86
273
210
277
10
62
233
333
296
272
189
357
269
298
40
282
199
239
18
157
223
65
22
36
187
339
53
131
263
43
162
32
291
276
188
288
34
80
31
118
260
37
96
167
281
248
84
25
124
47
158
16
56
63
26
324
142
146
266
155
97
265
171
27
58
358
110
292
328
351
222
169
227
359
159
7
11
275
279
304
218
123
173
212
271
141
192
54
1
174
234
78
48
340
44
109
327
346
38
17
150
127
245
74
176
317
320
285
9
156
133
81
41
312
237
149
117
274
206
215
105
20
261
303
151
111
19
164
121
160
262
153
323
299
181
306
253
8
4
147
55
90
305
179
66
154
293
182
52
242
12
284
290
101
67
94
214
268
185
132
33
120
115
330
318
289
258
193
301
112
2
166
201
310
134
322
345
332
125
3
344
255
30
257
321
209
220
278
98
69
308
83
184
191
355
337
89
213
13
129
224
252
102
46
135
311
72
353
198
319
130
297

>  <PUBCHEM_MMFF94_PARTIAL_CHARGES>  (1) 
28
1 1.51
10 0.91
11 -0.14
12 -0.14
13 0.42
14 -0.15
15 -0.15
16 0.13
17 -0.15
18 0.14
19 0.71
2 -0.43
20 -0.06
21 -0.14
22 0.14
23 0.28
24 0.28
27 0.15
28 0.15
29 0.15
3 -0.35
33 0.15
4 -0.55
5 -0.55
6 -0.52
7 -0.52
8 -0.57
9 -0.7

>  <PUBCHEM_EFFECTIVE_ROTOR_COUNT>  (1) 
9

>  <PUBCHEM_PHARMACOPHORE_FEATURES>  (1) 
6
1 6 acceptor
1 6 anion
1 7 acceptor
1 8 acceptor
1 9 acceptor
6 11 12 14 15 16 17 rings

>  <PUBCHEM_HEAVY_ATOM_COUNT>  (1) 
24

>  <PUBCHEM_ATOM_DEF_STEREO_COUNT>  (1) 
0

>  <PUBCHEM_ATOM_UDEF_STEREO_COUNT>  (1) 
0

>  <PUBCHEM_BOND_DEF_STEREO_COUNT>  (1) 
0

>  <PUBCHEM_BOND_UDEF_STEREO_COUNT>  (1) 
1

>  <PUBCHEM_ISOTOPIC_ATOM_COUNT>  (1) 
0

>  <PUBCHEM_COMPONENT_COUNT>  (1) 
1

>  <PUBCHEM_CACTVS_TAUTO_COUNT>  (1) 
1

>  <PUBCHEM_CONFORMER_ID>  (1) 
0000B5120000000F

>  <PUBCHEM_MMFF94_ENERGY>  (1) 
61.6432

>  <PUBCHEM_FEATURE_SELFOVERLAP>  (1) 
30.53

>  <PUBCHEM_SHAPE_FINGERPRINT>  (1) 
10498660 4 17274824674902043786
10670039 82 17774738454266543608
10763959 59 18195533584350983182
12107183 9 18048301263541427314
12596602 18 18186802508702243843
12788726 201 17982441895654088295
12892183 10 18040723567010351859
12978246 48 18412546483516866393
14251764 38 18192151490779308257
14251764 75 18189905395056569692
14739800 52 17914032447595849584
14848178 5 9079118821573262116
14950920 106 17458060447843947553
15142526 21 18043531827244839650
15163728 17 17846513525160523095
15238133 3 18201712986208059482
193927 3 11747228913464617195
20715895 44 18050841122680159273
21302155 148 18413108355322603053
21315764 268 18114741513113449157
21503847 285 18408045104920038890
21864079 5 18410576175621845198
235170 7 14476953480570179741
23559900 14 17488746666683422582
268830 7 18335410270770818182
341906 21 17989479736554624610
3472631 163 18202005459846863893
34797466 226 15338827716386130059
38570 142 18116452486756112196
474 4 18115016541576363330
5104073 3 17895186770687573490
57724786 102 18410012122141611350
633830 44 18411981355941374598
7808743 9 18271807990144030510
7970288 3 9798599683375385556
960060 61 11672060848123390026

>  <PUBCHEM_SHAPE_MULTIPOLES>  (1) 
445.82
15.23
3.38
1.57
8.45
1.51
-0.05
10.6
-3.61
-1.59
0.95
-0.04
-0.37
-2.81

>  <PUBCHEM_SHAPE_SELFOVERLAP>  (1) 
896.62

>  <PUBCHEM_SHAPE_VOLUME>  (1) 
263.6

>  <PUBCHEM_COORDINATE_TYPE>  (1) 
2
5
10

$$$$
