46365
     RDKit          3D

 26 26  0  0  1  0  0  0  0  0999 V2000
    2.6257   -1.8131   -1.3400 O   0  0  0  0  0  0  0  0  0  0  0  0
   -2.0575   -1.1858    1.7053 O   0  0  0  0  0  0  0  0  0  0  0  0
    1.7330    0.0761   -0.3476 N   0  0  0  0  0  0  0  0  0  0  0  0
   -1.7330    0.2747   -0.0603 N   0  0  0  0  0  0  0  0  0  0  0  0
    0.7709   -2.0924    0.2245 C   0  0  0  0  0  0  0  0  0  0  0  0
   -0.7092   -1.9472   -0.1866 C   0  0  0  0  0  0  0  0  0  0  0  0
    0.6352   -3.5937   -0.1051 C   0  0  0  0  0  0  0  0  0  0  0  0
   -0.8751   -3.4391    0.1697 C   0  0  0  0  0  0  0  0  0  0  0  0
    1.8128   -1.2858   -0.5737 C   0  0  0  0  0  0  0  0  0  0  0  0
   -1.5710   -0.9356    0.5977 C   0  0  0  0  0  0  0  0  0  0  0  0
    2.6082    1.0377   -0.9966 C   0  0  0  0  0  0  0  0  0  0  0  0
   -2.4930    1.3767    0.4849 C   0  0  0  0  0  0  0  0  0  0  0  0
    4.1015    0.6624   -0.7678 C   0  0  0  0  0  0  0  0  0  0  0  0
   -3.9304    0.9168    0.8659 C   0  0  0  0  0  0  0  0  0  0  0  0
    4.7583    0.7170    0.6480 C   0  0  0  0  0  0  0  0  0  0  0  0
   -4.9678    0.4724   -0.2137 C   0  0  0  0  0  0  0  0  0  0  0  0
    2.3302    0.9591   -2.5118 C   0  0  0  0  0  0  0  0  0  0  0  0
    2.2498    2.4488   -0.5230 C   0  0  0  0  0  0  0  0  0  0  0  0
   -1.7839    1.8250    1.7794 C   0  0  0  0  0  0  0  0  0  0  0  0
   -2.4636    2.5484   -0.5001 C   0  0  0  0  0  0  0  0  0  0  0  0
    5.9327   -0.2704    0.7770 C   0  0  0  0  0  0  0  0  0  0  0  0
    3.6822    0.2715    1.6682 C   0  0  0  0  0  0  0  0  0  0  0  0
    5.2267    2.1233    1.0457 C   0  0  0  0  0  0  0  0  0  0  0  0
   -5.7012    1.6492   -0.8710 C   0  0  0  0  0  0  0  0  0  0  0  0
   -4.1835   -0.2732   -1.3210 C   0  0  0  0  0  0  0  0  0  0  0  0
   -5.9978   -0.5227    0.3519 C   0  0  0  0  0  0  0  0  0  0  0  0
  1  9  2  0
  2 10  2  0
  3  9  1  0
  3 11  1  0
  4 10  1  0
  4 12  1  0
  5  6  1  0
  5  7  1  0
  5  9  1  0
  6  8  1  0
  6 10  1  0
  7  8  1  0
 11 13  1  0
 11 17  1  0
 11 18  1  0
 12 14  1  0
 12 19  1  0
 12 20  1  0
 13 15  1  0
 14 16  1  0
 15 21  1  0
 15 22  1  0
 15 23  1  0
 16 24  1  0
 16 25  1  0
 16 26  1  0
M  END
>  <PUBCHEM_COMPOUND_CID>  (1) 
46365

>  <PUBCHEM_CONFORMER_RMSD>  (1) 
1.2

>  <PUBCHEM_CONFORMER_DIVERSEORDER>  (1) 
1
63
17
99
30
61
65
57
86
94
97
42
109
89
78
69
80
104
83
41
26
52
53
40
87
45
107
12
19
29
79
62
32
27
64
11
103
110
5
95
114
74
16
72
91
56
34
105
14
54
111
92
90
93
7
106
82
39
28
20
101
96
47
102
49
21
108
60
48
36
75
23
58
85
25
9
67
100
55
88
81
3
76
77
59
50
13
66
70
68
38
15
33
113
112
8
22
35
71
24
10
98
43
18
37
73
46
84
31
51
44
6
2
4

>  <PUBCHEM_MMFF94_PARTIAL_CHARGES>  (1) 
12
1 -0.57
10 0.58
11 0.3
12 0.3
2 -0.57
3 -0.73
37 0.37
38 0.37
4 -0.73
5 0.05
6 0.05
9 0.58

>  <PUBCHEM_EFFECTIVE_ROTOR_COUNT>  (1) 
10.8

>  <PUBCHEM_PHARMACOPHORE_FEATURES>  (1) 
9
1 1 acceptor
1 2 acceptor
1 3 donor
1 4 donor
3 11 17 18 hydrophobe
3 12 19 20 hydrophobe
4 15 21 22 23 hydrophobe
4 16 24 25 26 hydrophobe
4 5 6 7 8 rings

>  <PUBCHEM_HEAVY_ATOM_COUNT>  (1) 
26

>  <PUBCHEM_ATOM_DEF_STEREO_COUNT>  (1) 
0

>  <PUBCHEM_ATOM_UDEF_STEREO_COUNT>  (1) 
2

>  <PUBCHEM_BOND_DEF_STEREO_COUNT>  (1) 
0

>  <PUBCHEM_BOND_UDEF_STEREO_COUNT>  (1) 
0

>  <PUBCHEM_ISOTOPIC_ATOM_COUNT>  (1) 
0

>  <PUBCHEM_COMPONENT_COUNT>  (1) 
1

>  <PUBCHEM_CACTVS_TAUTO_COUNT>  (1) 
3

>  <PUBCHEM_CONFORMER_ID>  (1) 
0000B51D00000001

>  <PUBCHEM_MMFF94_ENERGY>  (1) 
88.3187

>  <PUBCHEM_FEATURE_SELFOVERLAP>  (1) 
45.672

>  <PUBCHEM_SHAPE_FINGERPRINT>  (1) 
10090160 65 18334855009478698063
10366900 7 17418102052635072184
11140007 195 13623527943878999460
11370993 70 18410573985257219008
11646440 116 18201727270583743737
11725454 13 17417804076483251806
12107183 9 18336535059330742354
12166972 35 18408885135692731080
12596602 18 17168148978843803096
12633257 1 18335420201157089420
12788726 201 17611479909715904962
13402501 40 18412822499410704944
13583140 156 16732991950462089617
14117953 113 18261673688354837501
14787075 74 18059565910491314761
15238133 3 16732987483627322158
15403338 16 16734090267814547296
15537594 2 10231755578317428237
17349148 13 18334574650602536837
173720 79 18259978301422486139
192875 21 18334577944763649893
19319366 153 18341039745395493119
20567600 254 18411693270845724106
20642791 105 18264202693911044523
20715895 44 18261669290630053085
21304304 249 18335136454390553174
22113638 7 18262799686961661413
22149856 69 18267048127931667387
22393880 68 18125167034727599373
22950370 63 9079119981130068272
23559900 14 18189345567343892723
23598288 3 17971199372042733802
23622692 88 17821443569452324350
238 59 18337125474924664219
329604 57 10447932780643142840
4098825 35 15051190990371257232
4340502 62 18413109463529179831
437815 12 11674873381565831499
469060 322 18193574469743109683
474 4 18336268959656228407
508706 21 18042699316190418461
5104073 3 18263652762604248171
513202 73 16734654270868450826
57527585 21 15983159186831248664
59755656 215 18341614780922025006
6328613 192 18334867164726724084
67856867 119 18192988227997353915
8509985 295 18040432196581621108
9981440 41 18334017181491856363

>  <PUBCHEM_SHAPE_MULTIPOLES>  (1) 
513.37
12.43
3.34
1.58
2.3
2.42
-0.24
-6.28
1.24
-0.07
-0.04
-0.74
-0.52
0.41

>  <PUBCHEM_SHAPE_SELFOVERLAP>  (1) 
1012.916

>  <PUBCHEM_SHAPE_VOLUME>  (1) 
311.7

>  <PUBCHEM_COORDINATE_TYPE>  (1) 
2
5
10

$$$$
