46370
     RDKit          3D

 16 17  0  0  0  0  0  0  0  0999 V2000
    2.0873    2.0588   -0.0025 S   0  0  0  0  0  0  0  0  0  0  0  0
   -0.9262    1.7210   -0.0004 S   0  0  0  0  0  0  0  0  0  0  0  0
   -4.0577   -0.6992    0.0003 O   0  0  0  0  0  0  0  0  0  0  0  0
   -3.8996    1.5995    0.0027 O   0  0  0  0  0  0  0  0  0  0  0  0
    0.9030   -0.2323    0.0009 N   0  0  0  0  0  0  0  0  0  0  0  0
    3.0824    0.6506   -0.0012 C   0  0  0  0  0  0  0  0  0  0  0  0
    2.2671   -0.4852    0.0005 C   0  0  0  0  0  0  0  0  0  0  0  0
    0.6961    1.0638   -0.0005 C   0  0  0  0  0  0  0  0  0  0  0  0
    4.4835    0.5578   -0.0017 C   0  0  0  0  0  0  0  0  0  0  0  0
    2.8782   -1.7578    0.0017 C   0  0  0  0  0  0  0  0  0  0  0  0
   -1.9038    0.1957    0.0018 C   0  0  0  0  0  0  0  0  0  0  0  0
    5.0627   -0.7135   -0.0004 C   0  0  0  0  0  0  0  0  0  0  0  0
    4.2724   -1.8576    0.0013 C   0  0  0  0  0  0  0  0  0  0  0  0
   -5.4857   -0.5996   -0.0014 C   0  0  0  0  0  0  0  0  0  0  0  0
   -3.3825    0.4912    0.0023 C   0  0  0  0  0  0  0  0  0  0  0  0
   -6.0772   -1.9931   -0.0035 C   0  0  0  0  0  0  0  0  0  0  0  0
  1  6  1  0
  1  8  1  0
  2  8  1  0
  2 11  1  0
  3 14  1  0
  3 15  1  0
  4 15  2  0
  5  7  1  0
  5  8  2  0
  6  7  2  0
  6  9  1  0
  7 10  1  0
  9 12  2  0
 10 13  2  0
 11 15  1  0
 12 13  1  0
 14 16  1  0
M  END
>  <PUBCHEM_COMPOUND_CID>  (1) 
46370

>  <PUBCHEM_CONFORMER_RMSD>  (1) 
0.6

>  <PUBCHEM_CONFORMER_DIVERSEORDER>  (1) 
1
91
133
83
210
207
20
154
16
257
13
77
88
108
152
75
246
89
280
278
132
302
271
253
85
235
151
242
216
96
2
99
155
162
97
288
299
179
69
137
199
194
292
252
82
30
294
193
203
52
215
103
234
121
248
277
139
273
301
14
221
218
42
274
237
36
192
129
148
9
196
4
19
146
38
56
109
240
213
131
149
209
226
117
40
169
258
153
54
67
243
298
76
11
8
32
232
160
130
138
10
295
168
110
220
285
289
184
51
65
227
70
12
101
197
120
58
185
272
47
293
265
217
48
50
156
15
123
170
200
266
254
17
228
264
268
127
238
104
128
122
71
90
114
105
201
178
64
275
18
157
297
164
249
28
34
57
291
198
46
260
86
230
55
255
60
126
74
191
251
159
31
270
145
87
112
23
7
118
223
68
143
43
93
5
290
195
92
45
63
72
115
35
3
135
94
208
125
27
6
229
111
81
98
41
189
245
113
165
107
182
224
303
188
279
177
142
250
186
147
141
233
84
100
66
166
61
284
263
49
181
29
44
161
211
176
24
247
222
296
39
124
241
236
267
225
26
167
136
276
187
102
259
212
116
231
22
172
173
300
206
33
256
73
59
239
78
287
25
262
175
283
119
214
281
261
62
163
80
21
150
174
219
205
144
286
106
158
282
171
183
79
37
95
204
190
134
140
53
180
269
202
244

>  <PUBCHEM_MMFF94_PARTIAL_CHARGES>  (1) 
19
1 -0.08
10 -0.15
11 0.29
12 -0.15
13 -0.15
14 0.28
15 0.66
17 0.15
18 0.15
2 -0.29
21 0.15
22 0.15
3 -0.43
4 -0.57
5 -0.57
6 0.04
7 0.23
8 0.43
9 -0.15

>  <PUBCHEM_EFFECTIVE_ROTOR_COUNT>  (1) 
5

>  <PUBCHEM_PHARMACOPHORE_FEATURES>  (1) 
4
1 4 acceptor
1 5 acceptor
5 1 5 6 7 8 rings
6 6 7 9 10 12 13 rings

>  <PUBCHEM_HEAVY_ATOM_COUNT>  (1) 
16

>  <PUBCHEM_ATOM_DEF_STEREO_COUNT>  (1) 
0

>  <PUBCHEM_ATOM_UDEF_STEREO_COUNT>  (1) 
0

>  <PUBCHEM_BOND_DEF_STEREO_COUNT>  (1) 
0

>  <PUBCHEM_BOND_UDEF_STEREO_COUNT>  (1) 
0

>  <PUBCHEM_ISOTOPIC_ATOM_COUNT>  (1) 
0

>  <PUBCHEM_COMPONENT_COUNT>  (1) 
1

>  <PUBCHEM_CACTVS_TAUTO_COUNT>  (1) 
1

>  <PUBCHEM_CONFORMER_ID>  (1) 
0000B52200000001

>  <PUBCHEM_MMFF94_ENERGY>  (1) 
21.1947

>  <PUBCHEM_FEATURE_SELFOVERLAP>  (1) 
20.369

>  <PUBCHEM_SHAPE_FINGERPRINT>  (1) 
11806522 49 18408605838285122640
12107183 9 17692537710827443177
12596602 18 17346602992960013187
12916754 54 18409730673283006785
13167823 11 18412543210877841567
13533116 47 18341613784642586385
13862211 1 18335137566697418786
13955234 65 18126846233897141265
1420 369 18413673504420183431
14252887 29 17775291521747727316
14576447 43 18408324363461256362
15188451 53 15553870214069473799
15196674 1 18410573955155336293
15352361 1 18409730677382386027
15477762 27 18408887330542013756
17834072 33 18411138056144181829
17857418 61 18341891918234980503
200 152 18343863299037817505
20028762 73 18343861121537696398
20261772 1 17989201559922912966
20281475 54 18410296878188655225
20374829 77 18260544498645210225
20621476 66 9871455539944835618
20645477 70 18334575758904422728
21267235 1 18412270540193808079
221490 88 18263088858419052272
23402539 116 18261388910342417229
23557571 272 17458054976398893709
23559900 14 18336819888360464481
2871803 45 18113615672818897995
314194 84 18272366494848622015
33824 294 18409164416146388178
351380 3 18343300383845165151
4214541 1 18410856525871258657
465052 167 18272656761396489086
5104073 3 18272084959420499624
57483677 66 18411417315313432511
59682541 35 18271232920520582632
7495541 125 17774718761814708521
76465 3 18115582639534863730
77779 3 18410575054646137925
9709674 26 18334582355794822091

>  <PUBCHEM_SHAPE_MULTIPOLES>  (1) 
320.25
13.37
2.19
0.61
15.39
0.07
0
7.7
-0.01
-0.07
0
-0.05
-0.02
-0.01

>  <PUBCHEM_SHAPE_SELFOVERLAP>  (1) 
645.059

>  <PUBCHEM_SHAPE_VOLUME>  (1) 
189.1

>  <PUBCHEM_COORDINATE_TYPE>  (1) 
2
5
10

$$$$
