46387
     RDKit          3D

 12 13  0  0  0  0  0  0  0  0999 V2000
   -2.1429   -0.8694   -0.0001 O   0  0  0  0  0  0  0  0  0  0  0  0
    3.2182    0.0773   -0.0003 O   0  0  0  0  0  0  0  0  0  0  0  0
   -1.5297    1.3124    0.0001 N   0  0  0  0  0  0  0  0  0  0  0  0
   -3.8481    0.6706   -0.0003 N   0  0  0  0  0  0  0  0  0  0  0  0
   -0.4070    0.5205    0.0001 C   0  0  0  0  0  0  0  0  0  0  0  0
   -0.7785   -0.8159    0.0000 C   0  0  0  0  0  0  0  0  0  0  0  0
    0.9572    0.8446    0.0003 C   0  0  0  0  0  0  0  0  0  0  0  0
    1.8845   -0.2076    0.0002 C   0  0  0  0  0  0  0  0  0  0  0  0
    0.1094   -1.8845   -0.0001 C   0  0  0  0  0  0  0  0  0  0  0  0
    1.4665   -1.5441    0.0001 C   0  0  0  0  0  0  0  0  0  0  0  0
   -2.5146    0.4413    0.0002 C   0  0  0  0  0  0  0  0  0  0  0  0
    3.5851    1.4548   -0.0002 C   0  0  0  0  0  0  0  0  0  0  0  0
  1  6  1  0
  1 11  1  0
  2  8  1  0
  2 12  1  0
  3  5  1  0
  3 11  2  0
  4 11  1  0
  5  6  2  0
  5  7  1  0
  6  9  1  0
  7  8  2  0
  8 10  1  0
  9 10  2  0
M  END
>  <PUBCHEM_COMPOUND_CID>  (1) 
46387

>  <PUBCHEM_CONFORMER_RMSD>  (1) 
0.4

>  <PUBCHEM_CONFORMER_DIVERSEORDER>  (1) 
1
2

>  <PUBCHEM_MMFF94_PARTIAL_CHARGES>  (1) 
17
1 -0.28
10 -0.15
11 0.56
12 0.28
13 0.15
14 0.15
15 0.15
16 0.4
17 0.4
2 -0.36
3 -0.57
4 -0.88
5 0.23
6 0.14
7 -0.15
8 0.08
9 -0.15

>  <PUBCHEM_EFFECTIVE_ROTOR_COUNT>  (1) 
1

>  <PUBCHEM_PHARMACOPHORE_FEATURES>  (1) 
5
1 2 acceptor
1 4 donor
3 3 4 11 cation
5 1 3 5 6 11 rings
6 5 6 7 8 9 10 rings

>  <PUBCHEM_HEAVY_ATOM_COUNT>  (1) 
12

>  <PUBCHEM_ATOM_DEF_STEREO_COUNT>  (1) 
0

>  <PUBCHEM_ATOM_UDEF_STEREO_COUNT>  (1) 
0

>  <PUBCHEM_BOND_DEF_STEREO_COUNT>  (1) 
0

>  <PUBCHEM_BOND_UDEF_STEREO_COUNT>  (1) 
0

>  <PUBCHEM_ISOTOPIC_ATOM_COUNT>  (1) 
0

>  <PUBCHEM_COMPONENT_COUNT>  (1) 
1

>  <PUBCHEM_CACTVS_TAUTO_COUNT>  (1) 
2

>  <PUBCHEM_CONFORMER_ID>  (1) 
0000B53300000001

>  <PUBCHEM_MMFF94_ENERGY>  (1) 
30.454

>  <PUBCHEM_FEATURE_SELFOVERLAP>  (1) 
25.49

>  <PUBCHEM_SHAPE_FINGERPRINT>  (1) 
10219947 1 18260268529457902941
10608611 8 18263641775471665101
11471102 20 18338793412668200909
11543360 7 15697710523294574380
13380535 76 18410009940066135690
14325111 11 18410573998199974272
14897335 6 18411695487022462166
15775835 57 18413390946905933868
16945 1 18338516331047440487
17846911 113 18341043090625753664
193761 8 17762336912108119684
20645477 70 18268423526277383631
20871998 184 18055923335674234094
21040471 1 18410855481882813474
23235685 24 18409724071279592580
23402539 116 18272361001759329004
23402655 69 18269541777084797085
23463225 33 18334571300939405186
23552423 10 18265052418703946211
23559900 14 18200879578286000052
2748010 2 18409454648034024614
369184 2 16588018022060883592
449060 62 18341052934564032953
528886 8 18411132545658878099
53812653 166 18343015618680652920
7364860 26 18269836415730308462

>  <PUBCHEM_SHAPE_MULTIPOLES>  (1) 
225.25
5.17
1.69
0.59
0.02
0.48
0
-2.42
0
-0.47
0
-0.03
0.01
0

>  <PUBCHEM_SHAPE_SELFOVERLAP>  (1) 
493.1

>  <PUBCHEM_SHAPE_VOLUME>  (1) 
124.1

>  <PUBCHEM_COORDINATE_TYPE>  (1) 
2
5
10

$$$$
