46390
     RDKit          3D

 19 21  0  0  0  0  0  0  0  0999 V2000
    1.6082    1.2347    0.4953 O   0  0  0  0  0  0  0  0  0  0  0  0
   -4.3899    2.0505    0.1253 O   0  0  0  0  0  0  0  0  0  0  0  0
   -2.3029    2.4287   -0.6920 O   0  0  0  0  0  0  0  0  0  0  0  0
   -0.5651    0.5120    0.3217 N   0  0  0  0  0  0  0  0  0  0  0  0
    1.3079   -0.8792   -0.2654 N   0  0  0  0  0  0  0  0  0  0  0  0
   -1.7065   -0.3299    0.2006 C   0  0  0  0  0  0  0  0  0  0  0  0
    2.8391    0.6981    0.2464 C   0  0  0  0  0  0  0  0  0  0  0  0
    2.6514   -0.5952   -0.2186 C   0  0  0  0  0  0  0  0  0  0  0  0
    0.7487    0.2307    0.1643 C   0  0  0  0  0  0  0  0  0  0  0  0
   -2.9559    0.2108   -0.0770 C   0  0  0  0  0  0  0  0  0  0  0  0
   -1.5456   -1.7005    0.3645 C   0  0  0  0  0  0  0  0  0  0  0  0
    4.0765    1.3067    0.4164 C   0  0  0  0  0  0  0  0  0  0  0  0
    3.7752   -1.3664   -0.5484 C   0  0  0  0  0  0  0  0  0  0  0  0
   -4.0616   -0.6318   -0.1925 C   0  0  0  0  0  0  0  0  0  0  0  0
   -2.6513   -2.5431    0.2488 C   0  0  0  0  0  0  0  0  0  0  0  0
    5.1870    0.5238    0.0829 C   0  0  0  0  0  0  0  0  0  0  0  0
    5.0421   -0.7863   -0.3900 C   0  0  0  0  0  0  0  0  0  0  0  0
   -3.9092   -2.0087   -0.0296 C   0  0  0  0  0  0  0  0  0  0  0  0
   -3.1480    1.6450   -0.2527 C   0  0  0  0  0  0  0  0  0  0  0  0
  1  7  1  0
  1  9  1  0
  2 19  1  0
  3 19  2  0
  4  6  1  0
  4  9  1  0
  5  8  1  0
  5  9  2  0
  6 10  2  0
  6 11  1  0
  7  8  2  0
  7 12  1  0
  8 13  1  0
 10 14  1  0
 10 19  1  0
 11 15  2  0
 12 16  2  0
 13 17  2  0
 14 18  2  0
 15 18  1  0
 16 17  1  0
M  END
>  <PUBCHEM_COMPOUND_CID>  (1) 
46390

>  <PUBCHEM_CONFORMER_RMSD>  (1) 
0.6

>  <PUBCHEM_CONFORMER_DIVERSEORDER>  (1) 
1
12
22
15
7
10
17
8
3
19
18
4
14
6
2
5
16
21
9
20
11
13

>  <PUBCHEM_MMFF94_PARTIAL_CHARGES>  (1) 
29
1 -0.28
10 0.09
11 -0.15
12 -0.15
13 -0.15
14 -0.15
15 -0.15
16 -0.15
17 -0.15
18 -0.15
19 0.63
2 -0.65
20 0.4
21 0.15
22 0.15
23 0.15
24 0.15
25 0.15
26 0.15
27 0.15
28 0.15
29 0.5
3 -0.57
4 -0.58
5 -0.57
6 0.1
7 0.14
8 0.23
9 0.56

>  <PUBCHEM_EFFECTIVE_ROTOR_COUNT>  (1) 
3

>  <PUBCHEM_PHARMACOPHORE_FEATURES>  (1) 
8
1 2 acceptor
1 3 acceptor
1 4 donor
3 2 3 19 anion
3 4 5 9 cation
5 1 5 7 8 9 rings
6 6 10 11 14 15 18 rings
6 7 8 12 13 16 17 rings

>  <PUBCHEM_HEAVY_ATOM_COUNT>  (1) 
19

>  <PUBCHEM_ATOM_DEF_STEREO_COUNT>  (1) 
0

>  <PUBCHEM_ATOM_UDEF_STEREO_COUNT>  (1) 
0

>  <PUBCHEM_BOND_DEF_STEREO_COUNT>  (1) 
0

>  <PUBCHEM_BOND_UDEF_STEREO_COUNT>  (1) 
0

>  <PUBCHEM_ISOTOPIC_ATOM_COUNT>  (1) 
0

>  <PUBCHEM_COMPONENT_COUNT>  (1) 
1

>  <PUBCHEM_CACTVS_TAUTO_COUNT>  (1) 
3

>  <PUBCHEM_CONFORMER_ID>  (1) 
0000B53600000001

>  <PUBCHEM_MMFF94_ENERGY>  (1) 
56.355

>  <PUBCHEM_FEATURE_SELFOVERLAP>  (1) 
40.77

>  <PUBCHEM_SHAPE_FINGERPRINT>  (1) 
10014705 185 18334575728734319077
10608611 8 18412541037334336952
10616163 171 18410576201355199575
10646746 165 18409728456836710774
10680689 15 18334301971644800618
11405975 8 18411981330386952176
12107183 9 17901938639538579986
12173636 292 18335978654348193797
12236239 1 17167858677345132979
12403259 226 18269832176222742305
12403259 415 18131348657088074600
12500047 106 18409727331138658335
12507560 40 18271804657433817200
13167823 11 18334572451980409418
13544592 145 18196380225558151590
13675066 3 18131064965897351506
14508225 48 18266164214792458909
14790565 3 17908430151921207049
15042514 8 18192156108528651451
15196674 1 18412545413816132810
15375358 24 18272370849966481230
15788980 27 18187367627692945554
15961568 22 17897160445773683892
17844677 252 18411989091409063216
19141452 34 18201163277628722951
1986462 14 18408886239118900943
200 152 17489587887435491203
20510252 161 18413108368597291289
20645477 56 18336267855876175901
20645477 70 17632302237953121294
21033648 29 17774989215963477120
21065198 57 18412544314668482426
21065201 7 18335415773056148890
21267235 1 18337962280277072387
21709351 56 18410290337649419396
221357 26 18343017817767107715
221490 88 18340210812021117416
2306618 200 18272378576876098987
23402539 116 18334006211659552519
23557571 272 18341620329655761373
23559900 14 18270961233537351626
2871803 45 18336823186214956610
3004659 81 18262523585833127926
3268164 11 17676758834084190695
3545911 37 18412546491911186760
4028521 119 18187917370611336877
4214541 1 18411419501172172328
4921388 177 17240773929239671571
5104073 3 18413387635797392442
5281201 14 18412549820964470076
5283173 99 18411698747177238864
559249 180 18336541608533648858
573450 72 18187633705011531306
633830 44 17095532794502435890
77779 3 18411420626653966486
9709674 26 18413112761990671414

>  <PUBCHEM_SHAPE_MULTIPOLES>  (1) 
363.44
10.93
2.34
0.69
6.66
0.11
-0.01
-0.02
-0.62
-2.75
-0.09
0.1
0.01
0.81

>  <PUBCHEM_SHAPE_SELFOVERLAP>  (1) 
810.301

>  <PUBCHEM_SHAPE_VOLUME>  (1) 
193.1

>  <PUBCHEM_COORDINATE_TYPE>  (1) 
2
5
10

$$$$
