4639
     RDKit          3D

 22 26  0  0  1  0  0  0  0  0999 V2000
    1.4503   -1.8468   -0.4357 O   0  0  0  0  0  0  0  0  0  0  0  0
   -0.9957   -0.0881    2.2202 O   0  0  0  0  0  0  0  0  0  0  0  0
   -0.9264   -3.7227   -0.7674 O   0  0  0  0  0  0  0  0  0  0  0  0
    4.2697   -0.9076   -0.4164 O   0  0  0  0  0  0  0  0  0  0  0  0
   -2.1858    1.7747   -0.7663 N   0  0  0  0  0  0  0  0  0  0  0  0
   -0.3943   -0.3977   -0.1233 C   0  0  0  0  0  0  0  0  0  0  0  0
   -1.4496    0.0729    0.8687 C   0  0  0  0  0  0  0  0  0  0  0  0
   -1.6212    1.5995    0.5890 C   0  0  0  0  0  0  0  0  0  0  0  0
    0.1563   -1.7852    0.1856 C   0  0  0  0  0  0  0  0  0  0  0  0
   -0.8539   -0.1700   -1.5926 C   0  0  0  0  0  0  0  0  0  0  0  0
    0.8804    0.3124    0.0653 C   0  0  0  0  0  0  0  0  0  0  0  0
   -2.6762   -0.8581    0.7044 C   0  0  0  0  0  0  0  0  0  0  0  0
   -0.2485    2.3760    0.8452 C   0  0  0  0  0  0  0  0  0  0  0  0
   -1.3171    1.2774   -1.8375 C   0  0  0  0  0  0  0  0  0  0  0  0
    1.0076    1.6264    0.4569 C   0  0  0  0  0  0  0  0  0  0  0  0
   -2.2944   -2.3660    0.7223 C   0  0  0  0  0  0  0  0  0  0  0  0
   -1.0173   -2.7215   -0.0640 C   0  0  0  0  0  0  0  0  0  0  0  0
    1.9226   -0.5621   -0.1942 C   0  0  0  0  0  0  0  0  0  0  0  0
   -2.6339    3.1372   -1.0340 C   0  0  0  0  0  0  0  0  0  0  0  0
    2.3123    2.1027    0.5235 C   0  0  0  0  0  0  0  0  0  0  0  0
    3.2137   -0.1017   -0.1544 C   0  0  0  0  0  0  0  0  0  0  0  0
    3.4014    1.2483    0.2046 C   0  0  0  0  0  0  0  0  0  0  0  0
  1  9  1  0
  1 18  1  0
  2  7  1  0
  3 17  2  0
  4 21  1  0
  5  8  1  0
  5 14  1  0
  5 19  1  0
  6  7  1  0
  6  9  1  0
  6 10  1  0
  6 11  1  0
  7  8  1  0
  7 12  1  0
  8 13  1  0
  9 17  1  0
 10 14  1  0
 11 15  2  0
 11 18  1  0
 12 16  1  0
 13 15  1  0
 15 20  1  0
 16 17  1  0
 18 21  2  0
 20 22  2  0
 21 22  1  0
M  END
>  <PUBCHEM_COMPOUND_CID>  (1) 
4639

>  <PUBCHEM_CONFORMER_RMSD>  (1) 
0.6

>  <PUBCHEM_CONFORMER_DIVERSEORDER>  (1) 
1
3
4
5
6
7
2
8

>  <PUBCHEM_MMFF94_PARTIAL_CHARGES>  (1) 
24
1 -0.36
11 -0.14
13 0.14
14 0.27
15 -0.14
16 0.06
17 0.45
18 0.08
19 0.27
2 -0.68
20 -0.15
21 0.08
22 -0.15
3 -0.57
35 0.4
39 0.15
4 -0.53
40 0.15
41 0.45
5 -0.81
6 0.14
7 0.28
8 0.27
9 0.34

>  <PUBCHEM_EFFECTIVE_ROTOR_COUNT>  (1) 
1.4

>  <PUBCHEM_PHARMACOPHORE_FEATURES>  (1) 
11
1 1 acceptor
1 2 acceptor
1 2 donor
1 3 acceptor
1 4 donor
1 5 cation
5 1 6 9 11 18 rings
6 11 15 18 20 21 22 rings
6 5 6 7 8 10 14 rings
6 6 7 8 11 13 15 rings
6 6 7 9 12 16 17 rings

>  <PUBCHEM_HEAVY_ATOM_COUNT>  (1) 
22

>  <PUBCHEM_ATOM_DEF_STEREO_COUNT>  (1) 
0

>  <PUBCHEM_ATOM_UDEF_STEREO_COUNT>  (1) 
4

>  <PUBCHEM_BOND_DEF_STEREO_COUNT>  (1) 
0

>  <PUBCHEM_BOND_UDEF_STEREO_COUNT>  (1) 
0

>  <PUBCHEM_ISOTOPIC_ATOM_COUNT>  (1) 
0

>  <PUBCHEM_COMPONENT_COUNT>  (1) 
1

>  <PUBCHEM_CACTVS_TAUTO_COUNT>  (1) 
9

>  <PUBCHEM_CONFORMER_ID>  (1) 
0000121F00000001

>  <PUBCHEM_MMFF94_ENERGY>  (1) 
91.1427

>  <PUBCHEM_FEATURE_SELFOVERLAP>  (1) 
57.739

>  <PUBCHEM_SHAPE_FINGERPRINT>  (1) 
10863032 1 18116710720842013257
10948715 1 18117555132961323797
10967382 1 17981611781675350626
1100329 8 15960622015738833328
11132069 177 18126568061807627578
12403814 3 18188775083669161584
12423570 1 15093629265970626917
12730499 353 17829609466540762149
13027679 85 18052543462873905257
13132413 78 17619359035851776375
13140716 1 18124320655751144250
13464514 151 17760645863114363285
14181834 199 16460505777455452559
14223421 5 18268429221161171384
14817 1 16734419034887228129
16945 1 17840883085112601515
17357779 13 18049142656377226383
19591789 44 18411985745402575891
20739085 24 17832176039758527339
21330990 113 18334863839788709023
21524375 3 17897151430050935069
22907989 373 18187650236061222012
2334 1 18339930290279577298
23388829 49 17188979454033151075
23419403 2 16240070124463151917
23493267 7 17750241309577473128
23559900 14 18271529690192539702
238 59 17321513044073908093
25 1 17975406915226572261
2748010 2 18267597805412750234
350125 39 18337401512446508324
46194498 28 16391793971801043855
5845 1 17754448276940262381
6992083 37 17979369868966123219
81228 2 18042399308392733201

>  <PUBCHEM_SHAPE_MULTIPOLES>  (1) 
424.29
4.49
3.55
1.33
4.34
0.45
0.05
0.05
0.04
-2.31
0.64
-0.73
-0.36
0.97

>  <PUBCHEM_SHAPE_SELFOVERLAP>  (1) 
966.605

>  <PUBCHEM_SHAPE_VOLUME>  (1) 
220.2

>  <PUBCHEM_COORDINATE_TYPE>  (1) 
2
5
10

$$$$
