46399
     RDKit          3D

 11 12  0  0  0  0  0  0  0  0999 V2000
   -1.6824   -1.0160   -0.0006 O   0  0  0  0  0  0  0  0  0  0  0  0
   -1.4207    1.2353   -0.0007 N   0  0  0  0  0  0  0  0  0  0  0  0
    3.5088    0.7821    0.0013 N   0  0  0  0  0  0  0  0  0  0  0  0
   -3.6086    0.2355    0.0017 N   0  0  0  0  0  0  0  0  0  0  0  0
   -0.1871    0.6302   -0.0004 C   0  0  0  0  0  0  0  0  0  0  0  0
   -0.3434   -0.7480   -0.0002 C   0  0  0  0  0  0  0  0  0  0  0  0
    1.1089    1.1654   -0.0006 C   0  0  0  0  0  0  0  0  0  0  0  0
    2.1904    0.2724   -0.0004 C   0  0  0  0  0  0  0  0  0  0  0  0
    0.7019   -1.6633    0.0001 C   0  0  0  0  0  0  0  0  0  0  0  0
    1.9883   -1.1133    0.0000 C   0  0  0  0  0  0  0  0  0  0  0  0
   -2.2560    0.2198   -0.0003 C   0  0  0  0  0  0  0  0  0  0  0  0
  1  6  1  0
  1 11  1  0
  2  5  1  0
  2 11  2  0
  3  8  1  0
  4 11  1  0
  5  6  2  0
  5  7  1  0
  6  9  1  0
  7  8  2  0
  8 10  1  0
  9 10  2  0
M  END
>  <PUBCHEM_COMPOUND_CID>  (1) 
46399

>  <PUBCHEM_CONFORMER_RMSD>  (1) 
0.4

>  <PUBCHEM_CONFORMER_DIVERSEORDER>  (1) 
1

>  <PUBCHEM_MMFF94_PARTIAL_CHARGES>  (1) 
18
1 -0.28
10 -0.15
11 0.56
12 0.15
13 0.15
14 0.15
15 0.4
16 0.4
17 0.4
18 0.4
2 -0.57
3 -0.9
4 -0.88
5 0.23
6 0.14
7 -0.15
8 0.1
9 -0.15

>  <PUBCHEM_EFFECTIVE_ROTOR_COUNT>  (1) 
0

>  <PUBCHEM_PHARMACOPHORE_FEATURES>  (1) 
6
1 3 cation
1 3 donor
1 4 donor
3 2 4 11 cation
5 1 2 5 6 11 rings
6 5 6 7 8 9 10 rings

>  <PUBCHEM_HEAVY_ATOM_COUNT>  (1) 
11

>  <PUBCHEM_ATOM_DEF_STEREO_COUNT>  (1) 
0

>  <PUBCHEM_ATOM_UDEF_STEREO_COUNT>  (1) 
0

>  <PUBCHEM_BOND_DEF_STEREO_COUNT>  (1) 
0

>  <PUBCHEM_BOND_UDEF_STEREO_COUNT>  (1) 
0

>  <PUBCHEM_ISOTOPIC_ATOM_COUNT>  (1) 
0

>  <PUBCHEM_COMPONENT_COUNT>  (1) 
1

>  <PUBCHEM_CACTVS_TAUTO_COUNT>  (1) 
2

>  <PUBCHEM_CONFORMER_ID>  (1) 
0000B53F00000001

>  <PUBCHEM_MMFF94_ENERGY>  (1) 
28.9471

>  <PUBCHEM_FEATURE_SELFOVERLAP>  (1) 
30.564

>  <PUBCHEM_SHAPE_FINGERPRINT>  (1) 
10219947 1 18260550021603913765
11471102 20 18410569548909280885
12897270 3 18411138030347919796
12932764 1 17060043827211330857
13380535 76 18409728477974385410
14325111 11 18410856546776136097
15775835 57 18342459261343645180
16945 1 18410575088963340452
193761 8 17762336916508536548
20645477 70 18339636721149812527
21040471 1 18338799017484477474
23235685 24 18409442609324966336
23402655 69 18341037533507785125
23463225 33 18334289834621135922
23552423 10 18263084305759226862
2748010 2 18193555558400230996
29004967 10 18259992552012788616
369184 2 18410008823289878923
5084963 1 18272088253707608360
528886 8 18411695512823836570
53812653 166 18271519892412106784
7364860 26 18270961220420510078

>  <PUBCHEM_SHAPE_MULTIPOLES>  (1) 
205.56
4.43
1.47
0.58
0.93
0.29
0
-0.87
0
-0.42
0
-0.03
0.01
0

>  <PUBCHEM_SHAPE_SELFOVERLAP>  (1) 
454.641

>  <PUBCHEM_SHAPE_VOLUME>  (1) 
111.9

>  <PUBCHEM_COORDINATE_TYPE>  (1) 
2
5
10

$$$$
