46395
     RDKit          3D

 12 13  0  0  0  0  0  0  0  0999 V2000
    4.0401    1.1435    0.0147 Cl  0  0  0  0  0  0  0  0  0  0  0  0
   -1.2402   -1.2660   -0.0125 O   0  0  0  0  0  0  0  0  0  0  0  0
   -1.1878    0.9994   -0.0554 N   0  0  0  0  0  0  0  0  0  0  0  0
   -3.2740   -0.1982   -0.0636 N   0  0  0  0  0  0  0  0  0  0  0  0
   -4.0272    0.9467    0.1367 N   0  0  0  0  0  0  0  0  0  0  0  0
    0.0962    0.5114   -0.0276 C   0  0  0  0  0  0  0  0  0  0  0  0
    0.0681   -0.8752   -0.0012 C   0  0  0  0  0  0  0  0  0  0  0  0
    1.3372    1.1642   -0.0221 C   0  0  0  0  0  0  0  0  0  0  0  0
    1.1934   -1.6895    0.0307 C   0  0  0  0  0  0  0  0  0  0  0  0
   -1.9256   -0.0890   -0.0450 C   0  0  0  0  0  0  0  0  0  0  0  0
    2.4965    0.3755    0.0098 C   0  0  0  0  0  0  0  0  0  0  0  0
    2.4233   -1.0227    0.0356 C   0  0  0  0  0  0  0  0  0  0  0  0
  1 11  1  0
  2  7  1  0
  2 10  1  0
  3  6  1  0
  3 10  2  0
  4  5  1  0
  4 10  1  0
  6  7  2  0
  6  8  1  0
  7  9  1  0
  8 11  2  0
  9 12  2  0
 11 12  1  0
M  END
>  <PUBCHEM_COMPOUND_CID>  (1) 
46395

>  <PUBCHEM_CONFORMER_RMSD>  (1) 
0.4

>  <PUBCHEM_CONFORMER_DIVERSEORDER>  (1) 
1
3
2

>  <PUBCHEM_MMFF94_PARTIAL_CHARGES>  (1) 
18
1 -0.18
10 0.56
11 0.18
12 -0.15
13 0.15
14 0.15
15 0.15
16 0.4
17 0.36
18 0.36
2 -0.28
3 -0.57
4 -0.5
5 -0.71
6 0.23
7 0.14
8 -0.15
9 -0.15

>  <PUBCHEM_EFFECTIVE_ROTOR_COUNT>  (1) 
1

>  <PUBCHEM_PHARMACOPHORE_FEATURES>  (1) 
5
1 4 donor
1 5 donor
3 3 4 10 cation
5 2 3 6 7 10 rings
6 6 7 8 9 11 12 rings

>  <PUBCHEM_HEAVY_ATOM_COUNT>  (1) 
12

>  <PUBCHEM_ATOM_DEF_STEREO_COUNT>  (1) 
0

>  <PUBCHEM_ATOM_UDEF_STEREO_COUNT>  (1) 
0

>  <PUBCHEM_BOND_DEF_STEREO_COUNT>  (1) 
0

>  <PUBCHEM_BOND_UDEF_STEREO_COUNT>  (1) 
0

>  <PUBCHEM_ISOTOPIC_ATOM_COUNT>  (1) 
0

>  <PUBCHEM_COMPONENT_COUNT>  (1) 
1

>  <PUBCHEM_CACTVS_TAUTO_COUNT>  (1) 
2

>  <PUBCHEM_CONFORMER_ID>  (1) 
0000B53B00000001

>  <PUBCHEM_MMFF94_ENERGY>  (1) 
21.3113

>  <PUBCHEM_FEATURE_SELFOVERLAP>  (1) 
26.98

>  <PUBCHEM_SHAPE_FINGERPRINT>  (1) 
10219947 1 18260548922092253524
10608611 8 18335697196192863733
11062470 55 18343301478618512388
11471102 20 18410569557230151157
11543360 7 15625935503776600904
12346645 44 18341897385116399160
12932764 1 17274810355427973649
13380535 76 18409166644902306666
14325111 11 18410573985341420173
14897335 6 18412259558020350494
15219456 202 18187639146603245829
15775835 57 18413390959917397372
16945 1 18410291423722146406
193761 8 17906170646914170988
20645477 70 18340483353376656015
20871998 22 17909548359572978470
21040471 1 18266177408494219630
23235685 24 18409160047869203372
23402539 116 18130217246743407308
23402655 69 18342164541426486797
23463225 33 18334007281686690266
23552423 10 18263363599098331430
23559900 14 18200317749340278468
2748010 2 18192707835072372300
449060 62 18412827966908808064
4990 188 17917722305112110988
528886 8 18411132571692445450
53812653 166 18342452690455295136
7364860 26 18270399387300945606

>  <PUBCHEM_SHAPE_MULTIPOLES>  (1) 
228.01
5.89
1.53
0.59
1.78
0.33
0
-2.32
0.13
-0.54
0.01
-0.08
0
-0.05

>  <PUBCHEM_SHAPE_SELFOVERLAP>  (1) 
489.668

>  <PUBCHEM_SHAPE_VOLUME>  (1) 
129.4

>  <PUBCHEM_COORDINATE_TYPE>  (1) 
2
5
10

$$$$
