46416
     RDKit          3D

 11 10  0  0  1  0  0  0  0  0999 V2000
   -2.6554    0.4472   -0.8476 O   0  0  0  0  0  0  0  0  0  0  0  0
    0.6964   -0.1816    0.6592 N   0  0  0  0  0  0  0  0  0  0  0  0
   -0.5982   -0.5389    0.0616 C   0  0  0  0  0  0  0  0  0  0  0  0
   -1.3958    0.7588   -0.2490 C   0  0  0  0  0  0  0  0  0  0  0  0
    1.4160    0.7418   -0.2128 C   0  0  0  0  0  0  0  0  0  0  0  0
   -1.3404   -1.4590    1.0440 C   0  0  0  0  0  0  0  0  0  0  0  0
   -0.3227   -1.3251   -1.2342 C   0  0  0  0  0  0  0  0  0  0  0  0
    1.4870   -1.3842    0.9040 C   0  0  0  0  0  0  0  0  0  0  0  0
   -1.6947    1.6333    0.9680 C   0  0  0  0  0  0  0  0  0  0  0  0
    1.7133    0.0817   -1.5529 C   0  0  0  0  0  0  0  0  0  0  0  0
    2.6945    1.2260    0.4598 C   0  0  0  0  0  0  0  0  0  0  0  0
  1  4  1  0
  2  3  1  0
  2  5  1  0
  2  8  1  0
  3  4  1  0
  3  6  1  0
  3  7  1  0
  4  9  1  0
  5 10  1  0
  5 11  1  0
M  END
>  <PUBCHEM_COMPOUND_CID>  (1) 
46416

>  <PUBCHEM_CONFORMER_RMSD>  (1) 
0.6

>  <PUBCHEM_CONFORMER_DIVERSEORDER>  (1) 
1
2

>  <PUBCHEM_MMFF94_PARTIAL_CHARGES>  (1) 
7
1 -0.68
2 -0.81
3 0.27
32 0.4
4 0.28
5 0.27
8 0.27

>  <PUBCHEM_EFFECTIVE_ROTOR_COUNT>  (1) 
3

>  <PUBCHEM_PHARMACOPHORE_FEATURES>  (1) 
5
1 1 acceptor
1 1 donor
1 2 cation
3 3 6 7 hydrophobe
3 5 10 11 hydrophobe

>  <PUBCHEM_HEAVY_ATOM_COUNT>  (1) 
11

>  <PUBCHEM_ATOM_DEF_STEREO_COUNT>  (1) 
0

>  <PUBCHEM_ATOM_UDEF_STEREO_COUNT>  (1) 
1

>  <PUBCHEM_BOND_DEF_STEREO_COUNT>  (1) 
0

>  <PUBCHEM_BOND_UDEF_STEREO_COUNT>  (1) 
0

>  <PUBCHEM_ISOTOPIC_ATOM_COUNT>  (1) 
0

>  <PUBCHEM_COMPONENT_COUNT>  (1) 
1

>  <PUBCHEM_CACTVS_TAUTO_COUNT>  (1) 
1

>  <PUBCHEM_CONFORMER_ID>  (1) 
0000B55000000001

>  <PUBCHEM_MMFF94_ENERGY>  (1) 
63.0783

>  <PUBCHEM_FEATURE_SELFOVERLAP>  (1) 
25.371

>  <PUBCHEM_SHAPE_FINGERPRINT>  (1) 
12423570 1 14353377478870318350
12897270 3 17203039785253837725
13024252 1 17825374443490499010
137420 1 10872963606884398295
14817 1 14202509773376754007
15775835 57 18336541616791157077
16945 1 17823704263895470171
19837323 101 17987817261930224353
20653085 51 17488760964349410577
21028194 46 18336829697522235141
21040471 1 18113903744870636948
23211744 41 18055918942370582840
23402539 116 17845636140487818053
241688 4 16543571046155241546
369184 2 18116425045534941224
5084963 1 18191011314432087981

>  <PUBCHEM_SHAPE_MULTIPOLES>  (1) 
215.52
3.17
1.7
1.36
0.41
0.02
0.25
-1.24
0.02
-0.28
-0.42
0.1
0.29
-0.01

>  <PUBCHEM_SHAPE_SELFOVERLAP>  (1) 
408.471

>  <PUBCHEM_SHAPE_VOLUME>  (1) 
136.7

>  <PUBCHEM_COORDINATE_TYPE>  (1) 
2
5
10

$$$$
