46418
     RDKit          3D

 12 11  0  0  0  0  0  0  0  0999 V2000
    2.9575    3.3217   -0.1357 Cl  0  0  0  0  0  0  0  0  0  0  0  0
    2.5236   -3.5960   -0.3370 Cl  0  0  0  0  0  0  0  0  0  0  0  0
   -3.2352    1.1064   -0.7213 O   0  0  0  0  0  0  0  0  0  0  0  0
    0.7171   -0.0259    0.3048 N   0  0  0  0  0  0  0  0  0  0  0  0
   -0.5754    0.4904   -0.1284 C   0  0  0  0  0  0  0  0  0  0  0  0
    1.8004    0.8469   -0.1512 C   0  0  0  0  0  0  0  0  0  0  0  0
    0.9206   -1.3886   -0.1908 C   0  0  0  0  0  0  0  0  0  0  0  0
   -1.6986   -0.4235    0.3501 C   0  0  0  0  0  0  0  0  0  0  0  0
    1.6386    2.2531    0.4043 C   0  0  0  0  0  0  0  0  0  0  0  0
    2.2693   -1.9342    0.2516 C   0  0  0  0  0  0  0  0  0  0  0  0
   -3.0714    0.0859   -0.0544 C   0  0  0  0  0  0  0  0  0  0  0  0
   -4.2464   -0.7362    0.4079 C   0  0  0  0  0  0  0  0  0  0  0  0
  1  9  1  0
  2 10  1  0
  3 11  2  0
  4  5  1  0
  4  6  1  0
  4  7  1  0
  5  8  1  0
  6  9  1  0
  7 10  1  0
  8 11  1  0
 11 12  1  0
M  END
>  <PUBCHEM_COMPOUND_CID>  (1) 
46418

>  <PUBCHEM_CONFORMER_RMSD>  (1) 
0.8

>  <PUBCHEM_CONFORMER_DIVERSEORDER>  (1) 
1
17
28
41
23
7
35
13
40
39
27
30
31
21
49
5
45
34
8
22
25
43
11
15
18
3
38
20
42
12
2
29
51
16
50
14
46
44
48
26
37
6
4
36
24
19
33
53
9
47
10
32
52

>  <PUBCHEM_MMFF94_PARTIAL_CHARGES>  (1) 
12
1 -0.29
10 0.29
11 0.45
12 0.06
2 -0.29
3 -0.57
4 -0.81
5 0.27
6 0.27
7 0.27
8 0.06
9 0.29

>  <PUBCHEM_EFFECTIVE_ROTOR_COUNT>  (1) 
7

>  <PUBCHEM_PHARMACOPHORE_FEATURES>  (1) 
2
1 3 acceptor
1 4 cation

>  <PUBCHEM_HEAVY_ATOM_COUNT>  (1) 
12

>  <PUBCHEM_ATOM_DEF_STEREO_COUNT>  (1) 
0

>  <PUBCHEM_ATOM_UDEF_STEREO_COUNT>  (1) 
0

>  <PUBCHEM_BOND_DEF_STEREO_COUNT>  (1) 
0

>  <PUBCHEM_BOND_UDEF_STEREO_COUNT>  (1) 
0

>  <PUBCHEM_ISOTOPIC_ATOM_COUNT>  (1) 
0

>  <PUBCHEM_COMPONENT_COUNT>  (1) 
1

>  <PUBCHEM_CACTVS_TAUTO_COUNT>  (1) 
3

>  <PUBCHEM_CONFORMER_ID>  (1) 
0000B55200000001

>  <PUBCHEM_MMFF94_ENERGY>  (1) 
16.2171

>  <PUBCHEM_FEATURE_SELFOVERLAP>  (1) 
10.148

>  <PUBCHEM_SHAPE_FINGERPRINT>  (1) 
1 1 18339080505324997700
12532896 13 17908989043150736108
14648413 74 18336261262916571993
17041 50 18119522142172852895
170605 34 18188485903674323657
19021347 4 17906450283655350554
20339313 130 18270120089281758314
20645477 56 17762904668500028992
20645477 70 18409158905861960231
20671657 1 18412552023802592926
20671657 53 18197502818008067794
20711985 344 17328301347069533178
20871998 22 18196370316995006138
21426921 1 17330559744475672678
21499 59 18194395830171081093
21524375 3 18055916747378816732
22943178 12 18186517701136437151
23526113 38 18115035099560428682
23530152 11 18123190370756233214
23532345 88 18341880888442362599
23557571 272 17313099766029374085
23598291 2 17988921206211962189
305870 269 18265608969398722096
3071541 12 18411141320498804656
458136 41 18267036122395462729
474229 33 17832144196781154731
58734987 43 18339646616553917638
7364860 26 18411419518394181074
81228 2 17477772277748170218
81539 233 18263077880503898452

>  <PUBCHEM_SHAPE_MULTIPOLES>  (1) 
239.84
6.35
3.99
0.71
7.34
1.29
-0.01
-0.92
-0.03
-6.95
-0.33
0.08
-0.02
0.42

>  <PUBCHEM_SHAPE_SELFOVERLAP>  (1) 
424.947

>  <PUBCHEM_SHAPE_VOLUME>  (1) 
158.7

>  <PUBCHEM_COORDINATE_TYPE>  (1) 
2
5
10

$$$$
