46428
     RDKit          3D

 12 11  0  0  0  0  0  0  0  0999 V2000
    0.7725   -0.1770    1.1690 S   0  0  0  0  0  0  0  0  0  0  0  0
   -1.0836    1.5064   -1.5998 O   0  0  0  0  0  0  0  0  0  0  0  0
   -1.1173    2.2325    0.5620 N   0  0  0  0  0  0  0  0  0  0  0  0
   -0.7806   -0.1696    0.1664 C   0  0  0  0  0  0  0  0  0  0  0  0
   -1.9613   -0.5896    1.0849 C   0  0  0  0  0  0  0  0  0  0  0  0
   -0.6489   -1.2098   -0.9797 C   0  0  0  0  0  0  0  0  0  0  0  0
   -1.0060    1.2487   -0.3992 C   0  0  0  0  0  0  0  0  0  0  0  0
   -3.3442   -0.5946    0.4358 C   0  0  0  0  0  0  0  0  0  0  0  0
   -0.3448   -2.6447   -0.5542 C   0  0  0  0  0  0  0  0  0  0  0  0
    1.8991    0.3153   -0.1497 C   0  0  0  0  0  0  0  0  0  0  0  0
    3.2972    0.4012    0.3721 C   0  0  0  0  0  0  0  0  0  0  0  0
    4.3179   -0.3187   -0.1076 C   0  0  0  0  0  0  0  0  0  0  0  0
  1  4  1  0
  1 10  1  0
  2  7  2  0
  3  7  1  0
  4  5  1  0
  4  6  1  0
  4  7  1  0
  5  8  1  0
  6  9  1  0
 10 11  1  0
 11 12  2  0
M  END
>  <PUBCHEM_COMPOUND_CID>  (1) 
46428

>  <PUBCHEM_CONFORMER_RMSD>  (1) 
0.6

>  <PUBCHEM_CONFORMER_DIVERSEORDER>  (1) 
1
44
32
39
23
21
19
43
31
37
36
41
16
38
27
40
42
4
24
22
6
35
15
7
3
34
18
25
13
29
2
30
8
11
28
9
17
12
14
20
26
33
5
10

>  <PUBCHEM_MMFF94_PARTIAL_CHARGES>  (1) 
13
1 -0.46
10 0.37
11 -0.29
12 -0.3
2 -0.57
25 0.37
26 0.37
27 0.15
28 0.15
29 0.15
3 -0.8
4 0.29
7 0.57

>  <PUBCHEM_EFFECTIVE_ROTOR_COUNT>  (1) 
6

>  <PUBCHEM_PHARMACOPHORE_FEATURES>  (1) 
6
1 12 hydrophobe
1 2 acceptor
1 3 donor
1 8 hydrophobe
1 9 hydrophobe
6 1 4 5 6 10 11 hydrophobe

>  <PUBCHEM_HEAVY_ATOM_COUNT>  (1) 
12

>  <PUBCHEM_ATOM_DEF_STEREO_COUNT>  (1) 
0

>  <PUBCHEM_ATOM_UDEF_STEREO_COUNT>  (1) 
0

>  <PUBCHEM_BOND_DEF_STEREO_COUNT>  (1) 
0

>  <PUBCHEM_BOND_UDEF_STEREO_COUNT>  (1) 
0

>  <PUBCHEM_ISOTOPIC_ATOM_COUNT>  (1) 
0

>  <PUBCHEM_COMPONENT_COUNT>  (1) 
1

>  <PUBCHEM_CACTVS_TAUTO_COUNT>  (1) 
2

>  <PUBCHEM_CONFORMER_ID>  (1) 
0000B55C00000001

>  <PUBCHEM_MMFF94_ENERGY>  (1) 
26.4136

>  <PUBCHEM_FEATURE_SELFOVERLAP>  (1) 
30.456

>  <PUBCHEM_SHAPE_FINGERPRINT>  (1) 
10219947 1 18340497758881329667
12186901 62 18113620036732472190
12423570 1 16187981783246381629
12716758 59 18201143391755400386
12932764 1 18411128165557088410
13024252 1 16153423956549252377
13380536 53 18335152968265278871
14993402 34 18340199816920975631
15219456 202 18267028241362563451
15310529 11 18187077330753305746
15775835 57 18343585153014312506
16945 1 18269577046522638707
19837323 101 18200309897079647928
20645477 56 18342167887179681816
20871998 184 18408041797114472844
21501502 16 18052819148440429395
21524375 3 17829588587992241884
23402539 116 18272923929905487484
2748010 2 18195811769388032798
3250762 1 17835251051711337211
5084963 1 18040157301294406360
68250623 7 17898565384813914555

>  <PUBCHEM_SHAPE_MULTIPOLES>  (1) 
239.95
5.14
2.02
1.18
5.63
0.36
0.1
0.35
-0.7
-1.02
0.53
-0.39
-0.11
0.2

>  <PUBCHEM_SHAPE_SELFOVERLAP>  (1) 
437.15

>  <PUBCHEM_SHAPE_VOLUME>  (1) 
154.2

>  <PUBCHEM_COORDINATE_TYPE>  (1) 
2
5
10

$$$$
