46420
     RDKit          3D

 11 10  0  0  1  0  0  0  0  0999 V2000
   -0.6885   -1.2401    1.2229 O   0  0  0  0  0  0  0  0  0  0  0  0
    0.7363    0.8232    0.1160 N   0  0  0  0  0  0  0  0  0  0  0  0
   -0.6965    0.7375   -0.1914 C   0  0  0  0  0  0  0  0  0  0  0  0
    1.4761   -0.1876   -0.6349 C   0  0  0  0  0  0  0  0  0  0  0  0
   -0.8794    0.8761   -1.7033 C   0  0  0  0  0  0  0  0  0  0  0  0
   -1.4066    1.8685    0.5540 C   0  0  0  0  0  0  0  0  0  0  0  0
   -1.1892   -0.6460    0.2651 C   0  0  0  0  0  0  0  0  0  0  0  0
    0.9561    0.6631    1.5509 C   0  0  0  0  0  0  0  0  0  0  0  0
    1.0220   -1.5844   -0.2315 C   0  0  0  0  0  0  0  0  0  0  0  0
    2.9760   -0.0142   -0.4307 C   0  0  0  0  0  0  0  0  0  0  0  0
   -2.3062   -1.2960   -0.5171 C   0  0  0  0  0  0  0  0  0  0  0  0
  1  7  2  0
  2  3  1  0
  2  4  1  0
  2  8  1  0
  3  5  1  0
  3  6  1  0
  3  7  1  0
  4  9  1  0
  4 10  1  0
  7 11  1  0
M  END
>  <PUBCHEM_COMPOUND_CID>  (1) 
46420

>  <PUBCHEM_CONFORMER_RMSD>  (1) 
0.6

>  <PUBCHEM_CONFORMER_DIVERSEORDER>  (1) 
2
1

>  <PUBCHEM_MMFF94_PARTIAL_CHARGES>  (1) 
7
1 -0.57
11 0.06
2 -0.81
3 0.33
4 0.27
7 0.45
8 0.27

>  <PUBCHEM_EFFECTIVE_ROTOR_COUNT>  (1) 
3

>  <PUBCHEM_PHARMACOPHORE_FEATURES>  (1) 
4
1 1 acceptor
1 2 cation
3 3 5 6 hydrophobe
3 4 9 10 hydrophobe

>  <PUBCHEM_HEAVY_ATOM_COUNT>  (1) 
11

>  <PUBCHEM_ATOM_DEF_STEREO_COUNT>  (1) 
0

>  <PUBCHEM_ATOM_UDEF_STEREO_COUNT>  (1) 
0

>  <PUBCHEM_BOND_DEF_STEREO_COUNT>  (1) 
0

>  <PUBCHEM_BOND_UDEF_STEREO_COUNT>  (1) 
0

>  <PUBCHEM_ISOTOPIC_ATOM_COUNT>  (1) 
0

>  <PUBCHEM_COMPONENT_COUNT>  (1) 
1

>  <PUBCHEM_CACTVS_TAUTO_COUNT>  (1) 
2

>  <PUBCHEM_CONFORMER_ID>  (1) 
0000B55400000002

>  <PUBCHEM_MMFF94_ENERGY>  (1) 
74.4592

>  <PUBCHEM_FEATURE_SELFOVERLAP>  (1) 
20.297

>  <PUBCHEM_SHAPE_FINGERPRINT>  (1) 
10702982 57 17837492951451318973
12423570 1 11615303924769125800
13024252 1 13479426010283261116
137420 1 15330732166530824890
14817 1 14753312172036694337
16945 1 18339940250155476559
21040471 1 18123753045499464216
21922407 69 14979093938289413318
21930827 45 18270109111318904785
23552423 10 18261965029003295094
241688 4 18189048711851340105
2748010 2 17836648891445863542
29004967 10 17986380312038773819
369184 2 17988648450071589870
5084963 1 18114449089948316774
68250623 7 17914060789499381791

>  <PUBCHEM_SHAPE_MULTIPOLES>  (1) 
215.52
2.87
1.7
1.33
1.33
0.01
-0.05
-0.45
-0.51
-0.73
0.22
-0.11
0.22
0.15

>  <PUBCHEM_SHAPE_SELFOVERLAP>  (1) 
419.727

>  <PUBCHEM_SHAPE_VOLUME>  (1) 
133

>  <PUBCHEM_COORDINATE_TYPE>  (1) 
2
5
10

$$$$
