4643
     RDKit          3D

 26 27  0  0  1  0  0  0  0  0999 V2000
   -2.8076    0.0548    1.8854 O   0  0  0  0  0  0  0  0  0  0  0  0
    0.4004    0.0194    0.2754 O   0  0  0  0  0  0  0  0  0  0  0  0
   -0.2294    0.3915    2.4608 O   0  0  0  0  0  0  0  0  0  0  0  0
    4.0786    0.1007   -0.1718 N   0  0  0  0  0  0  0  0  0  0  0  0
   -2.2632    1.1806   -0.1411 C   0  0  0  0  0  0  0  0  0  0  0  0
   -1.9928    2.5022    0.5905 C   0  0  0  0  0  0  0  0  0  0  0  0
   -3.7202    1.1082   -0.6176 C   0  0  0  0  0  0  0  0  0  0  0  0
   -1.9290   -0.0104    0.7551 C   0  0  0  0  0  0  0  0  0  0  0  0
   -2.3699    3.7084   -0.2663 C   0  0  0  0  0  0  0  0  0  0  0  0
   -4.0944    2.3167   -1.4727 C   0  0  0  0  0  0  0  0  0  0  0  0
   -3.8160    3.6286   -0.7454 C   0  0  0  0  0  0  0  0  0  0  0  0
    2.6537   -0.0140   -0.5729 C   0  0  0  0  0  0  0  0  0  0  0  0
    5.0028   -0.1060   -1.3794 C   0  0  0  0  0  0  0  0  0  0  0  0
    4.4326   -0.9528    0.8865 C   0  0  0  0  0  0  0  0  0  0  0  0
    4.3681    1.4873    0.4190 C   0  0  0  0  0  0  0  0  0  0  0  0
   -2.1140   -1.3942    0.1389 C   0  0  0  0  0  0  0  0  0  0  0  0
   -0.5047    0.1582    1.2901 C   0  0  0  0  0  0  0  0  0  0  0  0
    1.7741    0.1649    0.6487 C   0  0  0  0  0  0  0  0  0  0  0  0
    4.7275    0.9694   -2.4075 C   0  0  0  0  0  0  0  0  0  0  0  0
    4.1560   -2.3318    0.3287 C   0  0  0  0  0  0  0  0  0  0  0  0
    5.8348    1.5791    0.7793 C   0  0  0  0  0  0  0  0  0  0  0  0
   -2.5505   -2.4571    0.9300 C   0  0  0  0  0  0  0  0  0  0  0  0
   -1.8472   -1.5963   -1.2153 C   0  0  0  0  0  0  0  0  0  0  0  0
   -2.7199   -3.7220    0.3669 C   0  0  0  0  0  0  0  0  0  0  0  0
   -2.0167   -2.8612   -1.7782 C   0  0  0  0  0  0  0  0  0  0  0  0
   -2.4531   -3.9241   -0.9871 C   0  0  0  0  0  0  0  0  0  0  0  0
  1  8  1  0
  2 17  1  0
  2 18  1  0
  3 17  2  0
  4 12  1  0
  4 13  1  0
  4 14  1  0
  4 15  1  0
  5  6  1  0
  5  7  1  0
  5  8  1  0
  6  9  1  0
  7 10  1  0
  8 16  1  0
  8 17  1  0
  9 11  1  0
 10 11  1  0
 12 18  1  0
 13 19  1  0
 14 20  1  0
 15 21  1  0
 16 22  2  0
 16 23  1  0
 22 24  1  0
 23 25  2  0
 24 26  2  0
 25 26  1  0
M  CHG  1   4   1
M  END
>  <PUBCHEM_COMPOUND_CID>  (1) 
4643

>  <PUBCHEM_CONFORMER_RMSD>  (1) 
1.4

>  <PUBCHEM_CONFORMER_DIVERSEORDER>  (1) 
1
23
16
5
15
3
18
6
10
21
11
7
8
13
9
4
2
12
17
22
14
24
19
20

>  <PUBCHEM_MMFF94_PARTIAL_CHARGES>  (1) 
23
1 -0.68
12 0.5
13 0.5
14 0.5
15 0.5
16 -0.14
17 0.66
18 0.28
2 -0.43
22 -0.15
23 -0.15
24 -0.15
25 -0.15
26 -0.15
3 -0.57
4 -1.01
48 0.4
58 0.15
59 0.15
60 0.15
61 0.15
62 0.15
8 0.48

>  <PUBCHEM_EFFECTIVE_ROTOR_COUNT>  (1) 
11.2

>  <PUBCHEM_PHARMACOPHORE_FEATURES>  (1) 
6
1 1 acceptor
1 1 donor
1 3 acceptor
1 4 cation
6 16 22 23 24 25 26 rings
6 5 6 7 9 10 11 rings

>  <PUBCHEM_HEAVY_ATOM_COUNT>  (1) 
26

>  <PUBCHEM_ATOM_DEF_STEREO_COUNT>  (1) 
0

>  <PUBCHEM_ATOM_UDEF_STEREO_COUNT>  (1) 
1

>  <PUBCHEM_BOND_DEF_STEREO_COUNT>  (1) 
0

>  <PUBCHEM_BOND_UDEF_STEREO_COUNT>  (1) 
0

>  <PUBCHEM_ISOTOPIC_ATOM_COUNT>  (1) 
0

>  <PUBCHEM_COMPONENT_COUNT>  (1) 
1

>  <PUBCHEM_CACTVS_TAUTO_COUNT>  (1) 
1

>  <PUBCHEM_CONFORMER_ID>  (1) 
0000122300000001

>  <PUBCHEM_MMFF94_ENERGY>  (1) 
83.3233

>  <PUBCHEM_FEATURE_SELFOVERLAP>  (1) 
30.454

>  <PUBCHEM_SHAPE_FINGERPRINT>  (1) 
105312 117 18340207388663397853
11101153 10 17902231440698276660
11578080 2 18058154193269738456
12714826 92 18130511932501625626
12788726 201 18261660567556918803
13224815 77 17560805463538396562
13257819 37 18337392639460579365
13583140 156 18131059472681815264
13631057 29 17985825071974122746
13690498 29 18269009729088826158
14251757 5 18411138052028543277
15131766 46 15070059821195350972
15163728 17 18050296868840612701
15463212 79 18261663801271224947
15475509 35 11739274084762597645
15775530 1 17699820077065282617
17818456 19 18118676626690539848
1813 80 17909276019854277119
19315092 285 12893641236431408326
20101258 96 18193000545815313729
20775438 99 17479968342188448589
22393880 68 18412552016051454510
22907989 373 18342182188930089373
23557571 272 18270390719518898248
23559900 14 18272928290025241378
23598288 3 18114475508423938939
249057 3 18192147093296864194
25265897 201 18122659126008747044
268830 7 16370730352969770972
32027 91 17914907440030383686
3298306 158 18126001564058648103
340366 18 18118688721270966030
376196 1 17608926478812696353
4015057 19 16988549200380599152
4017518 198 17698708217655528654
437795 70 17913744345558766439
44062 13 18412547604735049470
469060 322 18122641701221483667
497634 4 17702123532260654424
531348 171 18336558127399557198
633830 44 17167585969050781986
9981440 41 18120373160305364193

>  <PUBCHEM_SHAPE_MULTIPOLES>  (1) 
512.48
11.11
4.67
1.78
17.91
1.22
0.21
-4
2.52
-7.44
1.24
0.43
0.07
0.16

>  <PUBCHEM_SHAPE_SELFOVERLAP>  (1) 
1043.804

>  <PUBCHEM_SHAPE_VOLUME>  (1) 
296.4

>  <PUBCHEM_COORDINATE_TYPE>  (1) 
2
5
10

$$$$
