46430
     RDKit          3D

  9  8  0  0  1  0  0  0  0  0999 V2000
   -2.1885    0.5226   -1.1409 O   0  0  0  0  0  0  0  0  0  0  0  0
    1.8261   -0.2559    0.2754 N   0  0  0  0  0  0  0  0  0  0  0  0
   -2.9391   -0.5095    0.7699 N   0  0  0  0  0  0  0  0  0  0  0  0
    0.5438    0.3201   -0.1356 C   0  0  0  0  0  0  0  0  0  0  0  0
   -0.5860   -0.6345    0.2701 C   0  0  0  0  0  0  0  0  0  0  0  0
    0.3955    1.6917    0.5232 C   0  0  0  0  0  0  0  0  0  0  0  0
    2.9290    0.6080   -0.1413 C   0  0  0  0  0  0  0  0  0  0  0  0
    1.9848   -1.5966   -0.2849 C   0  0  0  0  0  0  0  0  0  0  0  0
   -1.9657   -0.1459   -0.1360 C   0  0  0  0  0  0  0  0  0  0  0  0
  1  9  2  0
  2  4  1  0
  2  7  1  0
  2  8  1  0
  3  9  1  0
  4  5  1  0
  4  6  1  0
  5  9  1  0
M  END
>  <PUBCHEM_COMPOUND_CID>  (1) 
46430

>  <PUBCHEM_CONFORMER_RMSD>  (1) 
0.6

>  <PUBCHEM_CONFORMER_DIVERSEORDER>  (1) 
6
21
24
13
15
23
2
17
16
1
12
9
5
22
20
8
14
11
7
25
18
4
19
10
3

>  <PUBCHEM_MMFF94_PARTIAL_CHARGES>  (1) 
10
1 -0.57
2 -0.81
22 0.37
23 0.37
3 -0.8
4 0.27
5 0.06
7 0.27
8 0.27
9 0.57

>  <PUBCHEM_EFFECTIVE_ROTOR_COUNT>  (1) 
3

>  <PUBCHEM_PHARMACOPHORE_FEATURES>  (1) 
3
1 1 acceptor
1 2 cation
1 3 donor

>  <PUBCHEM_HEAVY_ATOM_COUNT>  (1) 
9

>  <PUBCHEM_ATOM_DEF_STEREO_COUNT>  (1) 
0

>  <PUBCHEM_ATOM_UDEF_STEREO_COUNT>  (1) 
1

>  <PUBCHEM_BOND_DEF_STEREO_COUNT>  (1) 
0

>  <PUBCHEM_BOND_UDEF_STEREO_COUNT>  (1) 
0

>  <PUBCHEM_ISOTOPIC_ATOM_COUNT>  (1) 
0

>  <PUBCHEM_COMPONENT_COUNT>  (1) 
1

>  <PUBCHEM_CACTVS_TAUTO_COUNT>  (1) 
2

>  <PUBCHEM_CONFORMER_ID>  (1) 
0000B55E00000006

>  <PUBCHEM_MMFF94_ENERGY>  (1) 
20.0058

>  <PUBCHEM_FEATURE_SELFOVERLAP>  (1) 
15.223

>  <PUBCHEM_SHAPE_FINGERPRINT>  (1) 
10857977 72 17386285510204632857
12897270 3 18410857650994103548
12932764 1 17131828759360706425
14390081 3 17676480636035696733
15310529 11 17675922109830057290
20201158 50 18407476665254497898
20653085 51 16589162523529250748
23552423 10 18191874431118102786
29004967 10 18412262839443858578
5084963 1 17967816084790630617

>  <PUBCHEM_SHAPE_MULTIPOLES>  (1) 
169.38
4.18
1.41
0.82
0.66
0.1
0.09
-0.47
0.1
-0.73
-0.09
0.39
0.06
0.26

>  <PUBCHEM_SHAPE_SELFOVERLAP>  (1) 
312.685

>  <PUBCHEM_SHAPE_VOLUME>  (1) 
108.6

>  <PUBCHEM_COORDINATE_TYPE>  (1) 
2
5
10

$$$$
