46439
     RDKit          3D

 11 10  0  0  1  0  0  0  0  0999 V2000
   -2.8221   -1.3174   -0.9581 Cl  0  0  0  0  0  0  0  0  0  0  0  0
    2.3983    0.6555    0.4125 O   0  0  0  0  0  0  0  0  0  0  0  0
   -2.4199    1.0527    1.0234 O   0  0  0  0  0  0  0  0  0  0  0  0
    1.9135   -1.2558   -0.7842 O   0  0  0  0  0  0  0  0  0  0  0  0
   -0.6311   -1.3367    0.6535 C   0  0  0  0  0  0  0  0  0  0  0  0
   -1.3139   -0.5131   -0.4423 C   0  0  0  0  0  0  0  0  0  0  0  0
    0.6376   -0.6776    1.2030 C   0  0  0  0  0  0  0  0  0  0  0  0
   -1.7196    0.8738    0.0269 C   0  0  0  0  0  0  0  0  0  0  0  0
    1.7143   -0.4985    0.1558 C   0  0  0  0  0  0  0  0  0  0  0  0
   -1.1910    2.0386   -0.7696 C   0  0  0  0  0  0  0  0  0  0  0  0
    3.4339    0.9785   -0.5210 C   0  0  0  0  0  0  0  0  0  0  0  0
  1  6  1  0
  2  9  1  0
  2 11  1  0
  3  8  2  0
  4  9  2  0
  5  6  1  0
  5  7  1  0
  6  8  1  0
  7  9  1  0
  8 10  1  0
M  END
>  <PUBCHEM_COMPOUND_CID>  (1) 
46439

>  <PUBCHEM_CONFORMER_RMSD>  (1) 
0.6

>  <PUBCHEM_CONFORMER_DIVERSEORDER>  (1) 
3
57
142
9
139
71
88
129
134
63
41
69
148
109
36
32
147
102
92
22
137
94
83
100
95
126
111
25
39
53
86
108
113
93
34
143
81
5
135
33
115
38
43
141
52
117
62
132
98
65
48
103
30
28
116
78
75
55
119
20
124
122
128
12
2
21
72
80
37
54
107
112
106
4
68
31
51
40
99
87
23
14
1
61
44
29
16
125
66
46
133
27
146
73
82
121
140
58
50
130
127
19
6
105
118
18
24
17
45
76
149
42
74
7
136
84
26
90
35
150
60
145
131
110
138
77
49
79
56
70
8
144
11
85
13
10
47
64
101
59
91
114
96
120
15
89
67
123
104
97

>  <PUBCHEM_MMFF94_PARTIAL_CHARGES>  (1) 
10
1 -0.29
10 0.06
11 0.28
2 -0.43
3 -0.57
4 -0.57
6 0.35
7 0.06
8 0.45
9 0.66

>  <PUBCHEM_EFFECTIVE_ROTOR_COUNT>  (1) 
5

>  <PUBCHEM_PHARMACOPHORE_FEATURES>  (1) 
2
1 3 acceptor
1 4 acceptor

>  <PUBCHEM_HEAVY_ATOM_COUNT>  (1) 
11

>  <PUBCHEM_ATOM_DEF_STEREO_COUNT>  (1) 
0

>  <PUBCHEM_ATOM_UDEF_STEREO_COUNT>  (1) 
1

>  <PUBCHEM_BOND_DEF_STEREO_COUNT>  (1) 
0

>  <PUBCHEM_BOND_UDEF_STEREO_COUNT>  (1) 
0

>  <PUBCHEM_ISOTOPIC_ATOM_COUNT>  (1) 
0

>  <PUBCHEM_COMPONENT_COUNT>  (1) 
1

>  <PUBCHEM_CACTVS_TAUTO_COUNT>  (1) 
3

>  <PUBCHEM_CONFORMER_ID>  (1) 
0000B56700000003

>  <PUBCHEM_MMFF94_ENERGY>  (1) 
12.8597

>  <PUBCHEM_FEATURE_SELFOVERLAP>  (1) 
10.149

>  <PUBCHEM_SHAPE_FINGERPRINT>  (1) 
10857977 72 17023772038259856705
12897270 3 18200586024779662614
12932764 1 18263367997086690350
15310529 11 17632574959121772542
15775835 57 18336267846917034688
16945 1 17916295211722757307
18342897 96 18261391113634246972
20653085 51 18269287763274233042
20711983 171 17274550823697764873
20828058 34 18041277772404570566
21501502 16 18342739589733178750
21922407 69 17897141577490851659
22802520 49 18266760020581335158
228727 97 18335971069198591283
23235687 12 18272087141379845278
23402539 116 18266443485723361758
23552423 10 18340198575306454191
305870 269 17822846456016010306
369184 2 12035454930224257119
5084963 1 18269541763371648291
66348 1 17757842499442591516
9939556 21 18200314295141918142

>  <PUBCHEM_SHAPE_MULTIPOLES>  (1) 
210.64
4.63
1.84
1.1
2.48
0.64
0.09
0.6
-1.05
-0.69
-0.23
-0.27
-0.13
-0.44

>  <PUBCHEM_SHAPE_SELFOVERLAP>  (1) 
388.238

>  <PUBCHEM_SHAPE_VOLUME>  (1) 
133.9

>  <PUBCHEM_COORDINATE_TYPE>  (1) 
2
5
10

$$$$
