46469
     RDKit          3D

 19 20  0  0  1  0  0  0  0  0999 V2000
   -3.7591   -0.6668   -0.2434 O   0  0  0  0  0  0  0  0  0  0  0  0
    2.3616   -1.4474    1.2206 O   0  0  0  0  0  0  0  0  0  0  0  0
    1.9007    1.2934    0.6193 N   0  0  0  0  0  0  0  0  0  0  0  0
    0.8133    1.2594   -0.3647 C   0  0  0  0  0  0  0  0  0  0  0  0
    0.1188    2.6298   -0.3100 C   0  0  0  0  0  0  0  0  0  0  0  0
   -0.1497    0.0958   -0.1807 C   0  0  0  0  0  0  0  0  0  0  0  0
   -1.1475    2.6255   -1.1542 C   0  0  0  0  0  0  0  0  0  0  0  0
   -2.1489    1.6310   -0.5776 C   0  0  0  0  0  0  0  0  0  0  0  0
   -1.5428    0.2757   -0.3106 C   0  0  0  0  0  0  0  0  0  0  0  0
    0.3410   -1.2045    0.0386 C   0  0  0  0  0  0  0  0  0  0  0  0
   -2.4060   -0.8213   -0.1515 C   0  0  0  0  0  0  0  0  0  0  0  0
   -0.5267   -2.2883    0.1816 C   0  0  0  0  0  0  0  0  0  0  0  0
    1.3563    1.4064    1.9693 C   0  0  0  0  0  0  0  0  0  0  0  0
    2.8060    2.4028    0.3328 C   0  0  0  0  0  0  0  0  0  0  0  0
   -1.9003   -2.0957    0.0940 C   0  0  0  0  0  0  0  0  0  0  0  0
    1.7716   -1.4881    0.1242 C   0  0  0  0  0  0  0  0  0  0  0  0
    2.5577   -1.8409   -1.1483 C   0  0  0  0  0  0  0  0  0  0  0  0
    4.0123   -1.4002   -1.1011 C   0  0  0  0  0  0  0  0  0  0  0  0
   -4.4582   -0.3665    0.9615 C   0  0  0  0  0  0  0  0  0  0  0  0
  1 11  1  0
  1 19  1  0
  2 16  2  0
  3  4  1  0
  3 13  1  0
  3 14  1  0
  4  5  1  0
  4  6  1  0
  5  7  1  0
  6  9  2  0
  6 10  1  0
  7  8  1  0
  8  9  1  0
  9 11  1  0
 10 12  2  0
 10 16  1  0
 11 15  2  0
 12 15  1  0
 16 17  1  0
 17 18  1  0
M  END
>  <PUBCHEM_COMPOUND_CID>  (1) 
46469

>  <PUBCHEM_CONFORMER_RMSD>  (1) 
0.6

>  <PUBCHEM_CONFORMER_DIVERSEORDER>  (1) 
1
12
8
7
10
4
11
9
5
2
6
3

>  <PUBCHEM_MMFF94_PARTIAL_CHARGES>  (1) 
18
1 -0.36
10 0.09
11 0.08
12 -0.15
13 0.27
14 0.27
15 -0.15
16 0.42
17 0.06
19 0.28
2 -0.57
27 0.15
3 -0.81
34 0.15
4 0.41
6 -0.14
8 0.14
9 -0.14

>  <PUBCHEM_EFFECTIVE_ROTOR_COUNT>  (1) 
4.8

>  <PUBCHEM_PHARMACOPHORE_FEATURES>  (1) 
6
1 1 acceptor
1 18 hydrophobe
1 2 acceptor
1 3 cation
6 4 5 6 7 8 9 rings
6 6 9 10 11 12 15 rings

>  <PUBCHEM_HEAVY_ATOM_COUNT>  (1) 
19

>  <PUBCHEM_ATOM_DEF_STEREO_COUNT>  (1) 
0

>  <PUBCHEM_ATOM_UDEF_STEREO_COUNT>  (1) 
1

>  <PUBCHEM_BOND_DEF_STEREO_COUNT>  (1) 
0

>  <PUBCHEM_BOND_UDEF_STEREO_COUNT>  (1) 
0

>  <PUBCHEM_ISOTOPIC_ATOM_COUNT>  (1) 
0

>  <PUBCHEM_COMPONENT_COUNT>  (1) 
1

>  <PUBCHEM_CACTVS_TAUTO_COUNT>  (1) 
2

>  <PUBCHEM_CONFORMER_ID>  (1) 
0000B58500000001

>  <PUBCHEM_MMFF94_ENERGY>  (1) 
72.0551

>  <PUBCHEM_FEATURE_SELFOVERLAP>  (1) 
30.466

>  <PUBCHEM_SHAPE_FINGERPRINT>  (1) 
10382601 240 18263080071026936152
10967382 1 18264202685383906717
11578080 2 16952221285023061598
11680986 33 18265624362651298771
12382932 28 18191859244213737323
12553582 1 18408319960909398551
12716301 132 17973984194434919913
13140716 1 18264481793976400001
13172582 1 17974558410340980169
14022347 108 17967254212942592073
14178342 30 17979911932477642819
14251745 187 18338519763216809988
14790565 3 18265071149293935005
15490181 8 17615410693659596735
15536298 74 18271247222007634751
161256 15 18410292510253952876
16945 1 17905038162448060253
17357779 13 18339349774067840119
19591789 44 18337399240334760935
20510252 161 18194691362554743374
20588541 1 18266456696889594901
20691752 17 17968089884650623571
20739085 24 18191612829356121033
20871999 31 18195254321282495150
20905425 154 18339926017039961956
21029758 27 18261972772866116663
21041028 32 18059583433889486241
22182313 1 18334844009756204037
2334 1 18336537270505624237
23352939 185 18200049373264240618
23388829 49 17475779322765877895
23419403 2 17702082713160245248
23493267 7 17022907818046782397
23526113 38 17840014153072678974
23557571 272 18057054514892449270
23559900 14 18124043588065442348
23566358 2 18412548678555956132
2748010 2 18336249168389088237
350125 39 18338526235638021241
352729 6 17329422848829780671
59554788 170 18410300206977928165
7364860 26 18200878482087891382
81228 2 17912105862373903610
84936 31 16988559126456247110
90525 40 17615404100805513788

>  <PUBCHEM_SHAPE_MULTIPOLES>  (1) 
374.29
5.61
3.26
1.2
1.88
1.16
-0.34
-2.05
0
-1.07
0.36
-0.54
0.29
1.17

>  <PUBCHEM_SHAPE_SELFOVERLAP>  (1) 
782.269

>  <PUBCHEM_SHAPE_VOLUME>  (1) 
212.7

>  <PUBCHEM_COORDINATE_TYPE>  (1) 
2
5
10

$$$$
