46468
     RDKit          3D

 18 19  0  0  1  0  0  0  0  0999 V2000
    3.6124    0.0528   -0.0729 O   0  0  0  0  0  0  0  0  0  0  0  0
   -2.1202    2.2040   -1.3464 O   0  0  0  0  0  0  0  0  0  0  0  0
   -2.2788    2.0412    0.8370 O   0  0  0  0  0  0  0  0  0  0  0  0
   -2.3649   -0.7376    0.4468 N   0  0  0  0  0  0  0  0  0  0  0  0
   -1.6405    1.8983   -0.2308 N   0  0  0  0  0  0  0  0  0  0  0  0
   -1.2257   -0.9909   -0.4420 C   0  0  0  0  0  0  0  0  0  0  0  0
   -0.8132   -2.4568   -0.2322 C   0  0  0  0  0  0  0  0  0  0  0  0
   -0.0718   -0.0157   -0.2598 C   0  0  0  0  0  0  0  0  0  0  0  0
    0.4857   -2.7608   -0.9649 C   0  0  0  0  0  0  0  0  0  0  0  0
    1.6173   -1.9247   -0.3777 C   0  0  0  0  0  0  0  0  0  0  0  0
    1.2661   -0.4625   -0.2591 C   0  0  0  0  0  0  0  0  0  0  0  0
   -0.3172    1.3671   -0.1743 C   0  0  0  0  0  0  0  0  0  0  0  0
    2.3112    0.4640   -0.1058 C   0  0  0  0  0  0  0  0  0  0  0  0
   -1.9473   -0.8348    1.8425 C   0  0  0  0  0  0  0  0  0  0  0  0
   -3.4445   -1.6792    0.1637 C   0  0  0  0  0  0  0  0  0  0  0  0
    0.7308    2.2784   -0.0351 C   0  0  0  0  0  0  0  0  0  0  0  0
    2.0444    1.8264    0.0065 C   0  0  0  0  0  0  0  0  0  0  0  0
    4.1561   -0.2691    1.2045 C   0  0  0  0  0  0  0  0  0  0  0  0
  1 13  1  0
  1 18  1  0
  2  5  1  0
  3  5  2  0
  4  6  1  0
  4 14  1  0
  4 15  1  0
  5 12  1  0
  6  7  1  0
  6  8  1  0
  7  9  1  0
  8 11  2  0
  8 12  1  0
  9 10  1  0
 10 11  1  0
 11 13  1  0
 12 16  2  0
 13 17  2  0
 16 17  1  0
M  CHG  2   2  -1   5   1
M  END
>  <PUBCHEM_COMPOUND_CID>  (1) 
46468

>  <PUBCHEM_CONFORMER_RMSD>  (1) 
0.6

>  <PUBCHEM_CONFORMER_DIVERSEORDER>  (1) 
1
6
5
2
4
3

>  <PUBCHEM_MMFF94_PARTIAL_CHARGES>  (1) 
18
1 -0.36
10 0.14
11 -0.14
12 0.13
13 0.08
14 0.27
15 0.27
16 -0.15
17 -0.15
18 0.28
2 -0.52
3 -0.52
32 0.15
33 0.15
4 -0.81
5 0.91
6 0.41
8 -0.14

>  <PUBCHEM_EFFECTIVE_ROTOR_COUNT>  (1) 
3.8

>  <PUBCHEM_PHARMACOPHORE_FEATURES>  (1) 
7
1 1 acceptor
1 2 acceptor
1 2 anion
1 3 acceptor
1 4 cation
6 6 7 8 9 10 11 rings
6 8 11 12 13 16 17 rings

>  <PUBCHEM_HEAVY_ATOM_COUNT>  (1) 
18

>  <PUBCHEM_ATOM_DEF_STEREO_COUNT>  (1) 
0

>  <PUBCHEM_ATOM_UDEF_STEREO_COUNT>  (1) 
1

>  <PUBCHEM_BOND_DEF_STEREO_COUNT>  (1) 
0

>  <PUBCHEM_BOND_UDEF_STEREO_COUNT>  (1) 
0

>  <PUBCHEM_ISOTOPIC_ATOM_COUNT>  (1) 
0

>  <PUBCHEM_COMPONENT_COUNT>  (1) 
1

>  <PUBCHEM_CACTVS_TAUTO_COUNT>  (1) 
1

>  <PUBCHEM_CONFORMER_ID>  (1) 
0000B58400000001

>  <PUBCHEM_MMFF94_ENERGY>  (1) 
74.407

>  <PUBCHEM_FEATURE_SELFOVERLAP>  (1) 
35.623

>  <PUBCHEM_SHAPE_FINGERPRINT>  (1) 
10967382 1 18051697641878864166
11086676 242 18263649618282050576
11132069 177 18202003286699218586
11578080 2 17200764930772957225
11680986 33 18124034533603832334
12382932 28 18339075965634210704
12730499 353 17177426374919313205
13140716 1 18051691341410170106
13172582 1 18197221557869275794
13380535 76 18265321807684630788
13544592 271 18267851801162268840
14178342 30 18270405970921197888
15852999 172 18046048381231978596
16945 1 18340781441012339886
193761 8 18267871570775621119
20510252 161 18202002153107323728
20588541 1 18194119616671817276
20871998 184 18411134732040006684
21501502 16 18337958865725110151
22112679 90 17911510218891989838
22182313 1 18269841921661955086
23184049 59 18194974165008476067
2334 1 18339927008919262574
23402539 116 18271232936930831207
23419403 2 15895824574420481842
23463225 33 18121781891834028270
23559900 14 18200882773899534670
2748010 2 18268719303036221510
2897 32 16610542935073970741
568465 68 18273497870880835568
6992083 37 17981336890714751587
81228 2 18115325396747799633

>  <PUBCHEM_SHAPE_MULTIPOLES>  (1) 
342.86
4.94
3.11
1.09
2.23
0.26
0.34
-0.67
1.62
-0.97
-0.79
-0.3
-0.08
0.19

>  <PUBCHEM_SHAPE_SELFOVERLAP>  (1) 
723.587

>  <PUBCHEM_SHAPE_VOLUME>  (1) 
192.7

>  <PUBCHEM_COORDINATE_TYPE>  (1) 
2
5
10

$$$$
