46476
     RDKit          3D

 19 22  0  0  1  0  0  0  0  0999 V2000
    1.3537   -0.5977   -2.2914 O   0  0  0  0  0  0  0  0  0  0  0  0
    1.2223    0.0564    2.3212 O   0  0  0  0  0  0  0  0  0  0  0  0
    0.9033   -0.3797    0.0194 N   0  0  0  0  0  0  0  0  0  0  0  0
    2.8930    0.5566   -0.7184 C   0  0  0  0  0  0  0  0  0  0  0  0
    3.1038   -0.1289    0.7086 C   0  0  0  0  0  0  0  0  0  0  0  0
    4.4073    0.4528   -0.8015 C   0  0  0  0  0  0  0  0  0  0  0  0
    4.3401    0.7540    0.7598 C   0  0  0  0  0  0  0  0  0  0  0  0
    1.6550   -0.2246   -1.1645 C   0  0  0  0  0  0  0  0  0  0  0  0
    1.6499   -0.1103    1.1859 C   0  0  0  0  0  0  0  0  0  0  0  0
   -0.4438   -0.7610    0.0353 C   0  0  0  0  0  0  0  0  0  0  0  0
   -1.4811    0.1847   -0.0117 C   0  0  0  0  0  0  0  0  0  0  0  0
   -0.7268   -2.1257    0.1009 C   0  0  0  0  0  0  0  0  0  0  0  0
   -2.8244   -0.2602    0.0079 C   0  0  0  0  0  0  0  0  0  0  0  0
   -1.2148    1.5620   -0.0777 C   0  0  0  0  0  0  0  0  0  0  0  0
   -2.0479   -2.5632    0.1197 C   0  0  0  0  0  0  0  0  0  0  0  0
   -3.0909   -1.6376    0.0736 C   0  0  0  0  0  0  0  0  0  0  0  0
   -3.8618    0.6852   -0.0393 C   0  0  0  0  0  0  0  0  0  0  0  0
   -2.2579    2.4874   -0.1236 C   0  0  0  0  0  0  0  0  0  0  0  0
   -3.5790    2.0498   -0.1043 C   0  0  0  0  0  0  0  0  0  0  0  0
  1  8  2  0
  2  9  2  0
  3  8  1  0
  3  9  1  0
  3 10  1  0
  4  5  1  0
  4  6  1  0
  4  8  1  0
  5  7  1  0
  5  9  1  0
  6  7  1  0
 10 11  1  0
 10 12  2  0
 11 13  2  0
 11 14  1  0
 12 15  1  0
 13 16  1  0
 13 17  1  0
 14 18  2  0
 15 16  2  0
 17 19  2  0
 18 19  1  0
M  END
>  <PUBCHEM_COMPOUND_CID>  (1) 
46476

>  <PUBCHEM_CONFORMER_RMSD>  (1) 
0.6

>  <PUBCHEM_CONFORMER_DIVERSEORDER>  (1) 
1
2
3

>  <PUBCHEM_MMFF94_PARTIAL_CHARGES>  (1) 
22
1 -0.57
10 0.12
12 -0.15
14 -0.15
15 -0.15
16 -0.15
17 -0.15
18 -0.15
19 -0.15
2 -0.57
26 0.15
27 0.15
28 0.15
29 0.15
3 -0.24
30 0.15
31 0.15
32 0.15
4 0.05
5 0.05
8 0.58
9 0.58

>  <PUBCHEM_EFFECTIVE_ROTOR_COUNT>  (1) 
1.6

>  <PUBCHEM_PHARMACOPHORE_FEATURES>  (1) 
6
1 1 acceptor
1 2 acceptor
4 4 5 6 7 rings
6 10 11 12 13 15 16 rings
6 11 13 14 17 18 19 rings
7 3 4 5 6 7 8 9 rings

>  <PUBCHEM_HEAVY_ATOM_COUNT>  (1) 
19

>  <PUBCHEM_ATOM_DEF_STEREO_COUNT>  (1) 
0

>  <PUBCHEM_ATOM_UDEF_STEREO_COUNT>  (1) 
2

>  <PUBCHEM_BOND_DEF_STEREO_COUNT>  (1) 
0

>  <PUBCHEM_BOND_UDEF_STEREO_COUNT>  (1) 
0

>  <PUBCHEM_ISOTOPIC_ATOM_COUNT>  (1) 
0

>  <PUBCHEM_COMPONENT_COUNT>  (1) 
1

>  <PUBCHEM_CACTVS_TAUTO_COUNT>  (1) 
1

>  <PUBCHEM_CONFORMER_ID>  (1) 
0000B58C00000001

>  <PUBCHEM_MMFF94_ENERGY>  (1) 
111.227

>  <PUBCHEM_FEATURE_SELFOVERLAP>  (1) 
34.083

>  <PUBCHEM_SHAPE_FINGERPRINT>  (1) 
10319926 262 18269252691515507824
10366900 7 17847055580150718313
10498660 4 18338513032892813645
10646746 165 18411135844721483308
11640471 11 17676775300830729533
12173636 292 18337666430218668213
12236239 1 17603583049415902786
12491281 212 18114186345571813000
12670546 56 18335969935596153234
12788726 201 17245290839429894578
13140716 1 18193285311185320571
13538477 17 18113893883773515939
13583140 156 17987778809779061666
13764800 53 18410017602683158057
13911987 19 16630247025975238112
13965767 371 17535751780602304173
14420673 8 18046901581561798058
14739800 52 18119522387741278744
14787075 74 16669097358207898922
15219456 202 17989212529401138638
15669948 3 18335976540960533203
15775835 57 18040719134245211220
16752209 62 18335967753774015067
16945 1 18409731768435993463
17357779 13 17915161632878535543
1741750 31 18339925913755141689
18186145 218 18058465217626037630
19049666 15 17916315951987856998
200 152 15864065524828786419
20510252 161 18413393133434541577
20645477 70 16702311122471839750
22149856 69 17758132410959716945
23175994 123 17131845282421842656
23402539 116 18412536634881894207
23493267 7 18343022168584803082
23526113 38 17631739270234241798
23557571 272 18270975629544710270
23559900 14 18343308029261310238
2748010 2 18048606924048030983
350125 39 17905332827712318553
474 4 17096376218679314884
7097593 13 17970047981847497930
7364860 26 17764586521757749807
77492 1 17603301583166322234
7808743 9 18409731733517722633
81228 2 18339375157541077235
9709674 26 18342745108787467862

>  <PUBCHEM_SHAPE_MULTIPOLES>  (1) 
374.29
7.4
2.21
1.3
3.96
0.17
-0.01
-2.45
0.06
-2.95
0.03
1.27
0.1
0.11

>  <PUBCHEM_SHAPE_SELFOVERLAP>  (1) 
839.691

>  <PUBCHEM_SHAPE_VOLUME>  (1) 
196

>  <PUBCHEM_COORDINATE_TYPE>  (1) 
2
5
10

$$$$
