46478
     RDKit          3D

 19 20  0  0  1  0  0  0  0  0999 V2000
    1.4271   -0.3824   -0.0544 O   0  0  0  0  0  0  0  0  0  0  0  0
    2.6760   -2.2949    0.2329 O   0  0  0  0  0  0  0  0  0  0  0  0
   -3.3975   -0.0272   -0.3301 N   0  0  0  0  0  0  0  0  0  0  0  0
    6.1377    0.0679    0.0840 N   0  0  0  0  0  0  0  0  0  0  0  0
   -4.6859   -0.7091   -0.5583 C   0  0  0  0  0  0  0  0  0  0  0  0
   -5.7794    0.3357   -0.8525 C   0  0  0  0  0  0  0  0  0  0  0  0
   -3.4445    0.9601    0.7542 C   0  0  0  0  0  0  0  0  0  0  0  0
   -5.8777    1.4010    0.2354 C   0  0  0  0  0  0  0  0  0  0  0  0
   -4.5112    2.0235    0.4924 C   0  0  0  0  0  0  0  0  0  0  0  0
   -2.2828   -0.9529   -0.1492 C   0  0  0  0  0  0  0  0  0  0  0  0
   -5.1270   -1.6670    0.5593 C   0  0  0  0  0  0  0  0  0  0  0  0
   -0.9579   -0.1973   -0.1736 C   0  0  0  0  0  0  0  0  0  0  0  0
    0.2262   -1.1404   -0.0090 C   0  0  0  0  0  0  0  0  0  0  0  0
    2.5852   -1.0867    0.0796 C   0  0  0  0  0  0  0  0  0  0  0  0
    3.7618   -0.1832    0.0165 C   0  0  0  0  0  0  0  0  0  0  0  0
    3.5792    1.1675   -0.1583 C   0  0  0  0  0  0  0  0  0  0  0  0
    5.0250   -0.6984    0.1328 C   0  0  0  0  0  0  0  0  0  0  0  0
    4.7000    1.9887   -0.2136 C   0  0  0  0  0  0  0  0  0  0  0  0
    5.9457    1.3950   -0.0882 C   0  0  0  0  0  0  0  0  0  0  0  0
  1 13  1  0
  1 14  1  0
  2 14  2  0
  3  5  1  0
  3  7  1  0
  3 10  1  0
  4 17  2  0
  4 19  1  0
  5  6  1  0
  5 11  1  0
  6  8  1  0
  7  9  1  0
  8  9  1  0
 10 12  1  0
 12 13  1  0
 14 15  1  0
 15 16  2  0
 15 17  1  0
 16 18  1  0
 18 19  2  0
M  END
>  <PUBCHEM_COMPOUND_CID>  (1) 
46478

>  <PUBCHEM_CONFORMER_RMSD>  (1) 
1

>  <PUBCHEM_CONFORMER_DIVERSEORDER>  (1) 
1
430
206
202
335
264
12
238
425
34
404
177
682
275
191
354
306
251
160
32
589
195
382
454
37
618
2
651
503
180
121
613
14
204
103
416
183
7
641
220
610
291
207
470
564
258
456
532
725
188
96
11
709
19
726
326
140
52
184
298
17
371
680
50
318
164
628
108
444
533
185
78
654
86
95
94
360
212
314
662
242
558
147
605
13
313
115
18
642
169
488
154
466
700
88
150
6
131
98
116
149
696
10
46
231
304
248
171
3
351
68
328
439
54
210
348
135
695
45
42
585
111
21
174
15
300
380
51
458
460
71
492
413
451
568
577
5
405
677
24
20
53
287
4
612
28
254
567
80
420
717
392
325
385
59
292
9
299
219
27
124
8
173
513
145
126
23
199
36
117
25

>  <PUBCHEM_MMFF94_PARTIAL_CHARGES>  (1) 
18
1 -0.43
10 0.27
13 0.28
14 0.63
15 0.09
16 -0.15
17 0.16
18 -0.15
19 0.16
2 -0.57
3 -0.81
38 0.15
39 0.15
4 -0.62
40 0.15
41 0.15
5 0.27
7 0.27

>  <PUBCHEM_EFFECTIVE_ROTOR_COUNT>  (1) 
7.2

>  <PUBCHEM_PHARMACOPHORE_FEATURES>  (1) 
5
1 2 acceptor
1 3 cation
1 4 acceptor
6 3 5 6 7 8 9 rings
6 4 15 16 17 18 19 rings

>  <PUBCHEM_HEAVY_ATOM_COUNT>  (1) 
19

>  <PUBCHEM_ATOM_DEF_STEREO_COUNT>  (1) 
0

>  <PUBCHEM_ATOM_UDEF_STEREO_COUNT>  (1) 
1

>  <PUBCHEM_BOND_DEF_STEREO_COUNT>  (1) 
0

>  <PUBCHEM_BOND_UDEF_STEREO_COUNT>  (1) 
0

>  <PUBCHEM_ISOTOPIC_ATOM_COUNT>  (1) 
0

>  <PUBCHEM_COMPONENT_COUNT>  (1) 
1

>  <PUBCHEM_CACTVS_TAUTO_COUNT>  (1) 
1

>  <PUBCHEM_CONFORMER_ID>  (1) 
0000B58E00000001

>  <PUBCHEM_MMFF94_ENERGY>  (1) 
34.096

>  <PUBCHEM_FEATURE_SELFOVERLAP>  (1) 
25.372

>  <PUBCHEM_SHAPE_FINGERPRINT>  (1) 
10595046 47 18413105057024778231
10730089 173 18131070428547515609
10912923 1 18341045238236093171
11089746 13 18343298171831246188
11315181 36 18187365459029860087
11796584 16 11241963776510713272
12091667 2 18201999945488839103
12107183 9 17691407408426193275
12236239 1 18343017787507261926
12596602 18 18040151838006101779
13073987 5 18335423448268474635
13167372 99 18411981326102845912
13288520 33 9007054669747974987
13533116 47 17023172783338182058
13631057 29 18189052161512718499
13785724 45 17835237845041304482
14251732 16 18334858372058224315
14528608 73 18342455958640395236
14933364 13 18410859866769882253
15183329 4 18341895181988255776
15348495 7 15647063701967607572
17834072 33 18341891909122715519
17844677 252 18341341010937242967
19489759 90 15357689795542667311
20281389 69 18186799154142725181
21150785 3 16056591084377884277
21315763 28 18411697694667547686
23272321 79 18410857680921698421
23402655 69 18343580750656860470
23559900 14 18341323492203603265
245318 6 17534359013092539788
29717793 49 17775289339994102798
300161 21 18186798059200319151
34797466 226 17704080619934556677
3545911 37 18408323293555567751
4073 2 18041285438705514170
4214541 1 18411136935542735335
4325135 7 18343862238771498967
441001 317 18412263930845586641
5104073 3 18114184103583470155
542803 24 18343018887092651703
543368 44 18342173397364246497
54446538 1 18341893004418562132
59682541 52 17632311034230467926
90127 26 18339656550491513475

>  <PUBCHEM_SHAPE_MULTIPOLES>  (1) 
369.31
18.13
2.01
0.74
2.01
0.23
-0.01
5.84
-0.33
-0.05
0.23
-0.59
0.04
-0.53

>  <PUBCHEM_SHAPE_SELFOVERLAP>  (1) 
754.859

>  <PUBCHEM_SHAPE_VOLUME>  (1) 
213.2

>  <PUBCHEM_COORDINATE_TYPE>  (1) 
2
5
10

$$$$
