46479
     RDKit          3D

 12 12  0  0  0  0  0  0  0  0999 V2000
   -0.3625   -2.2879    0.0002 O   0  0  0  0  0  0  0  0  0  0  0  0
    1.3583   -0.7126    0.0000 N   0  0  0  0  0  0  0  0  0  0  0  0
   -3.5178   -0.6892    0.0001 N   0  0  0  0  0  0  0  0  0  0  0  0
    1.7288    0.6334    0.0003 C   0  0  0  0  0  0  0  0  0  0  0  0
   -0.6251    1.2675   -0.0001 C   0  0  0  0  0  0  0  0  0  0  0  0
    0.7863    1.5891    0.0002 C   0  0  0  0  0  0  0  0  0  0  0  0
    0.0122   -1.1139   -0.0002 C   0  0  0  0  0  0  0  0  0  0  0  0
   -1.0209   -0.0187    0.0000 C   0  0  0  0  0  0  0  0  0  0  0  0
    3.1861    1.0044    0.0001 C   0  0  0  0  0  0  0  0  0  0  0  0
    2.3936   -1.7460   -0.0003 C   0  0  0  0  0  0  0  0  0  0  0  0
   -1.5415    2.4621   -0.0003 C   0  0  0  0  0  0  0  0  0  0  0  0
   -2.3974   -0.3882    0.0001 C   0  0  0  0  0  0  0  0  0  0  0  0
  1  7  2  0
  2  4  1  0
  2  7  1  0
  2 10  1  0
  3 12  3  0
  4  6  2  0
  4  9  1  0
  5  6  1  0
  5  8  2  0
  5 11  1  0
  7  8  1  0
  8 12  1  0
M  END
>  <PUBCHEM_COMPOUND_CID>  (1) 
46479

>  <PUBCHEM_CONFORMER_RMSD>  (1) 
0.4

>  <PUBCHEM_CONFORMER_DIVERSEORDER>  (1) 
1

>  <PUBCHEM_MMFF94_PARTIAL_CHARGES>  (1) 
13
1 -0.57
10 0.3
11 0.14
12 0.49
13 0.15
2 -0.47
3 -0.56
4 -0.03
5 -0.14
6 -0.15
7 0.62
8 0.08
9 0.14

>  <PUBCHEM_EFFECTIVE_ROTOR_COUNT>  (1) 
0

>  <PUBCHEM_PHARMACOPHORE_FEATURES>  (1) 
3
1 1 acceptor
1 3 acceptor
6 2 4 5 6 7 8 rings

>  <PUBCHEM_HEAVY_ATOM_COUNT>  (1) 
12

>  <PUBCHEM_ATOM_DEF_STEREO_COUNT>  (1) 
0

>  <PUBCHEM_ATOM_UDEF_STEREO_COUNT>  (1) 
0

>  <PUBCHEM_BOND_DEF_STEREO_COUNT>  (1) 
0

>  <PUBCHEM_BOND_UDEF_STEREO_COUNT>  (1) 
0

>  <PUBCHEM_ISOTOPIC_ATOM_COUNT>  (1) 
0

>  <PUBCHEM_COMPONENT_COUNT>  (1) 
1

>  <PUBCHEM_CACTVS_TAUTO_COUNT>  (1) 
1

>  <PUBCHEM_CONFORMER_ID>  (1) 
0000B58F00000001

>  <PUBCHEM_MMFF94_ENERGY>  (1) 
26.3545

>  <PUBCHEM_FEATURE_SELFOVERLAP>  (1) 
15.223

>  <PUBCHEM_SHAPE_FINGERPRINT>  (1) 
10967382 1 18338517559355196709
11206711 2 18265059041506230095
12423570 1 13504791253915232142
13140716 1 17978507860307934736
13380535 76 18338514265495465618
161256 15 18413112744852512980
16945 1 18338799025900403716
193761 8 18194683653019563365
19973954 147 18338797788902323740
20201158 50 18334856172918696851
20588541 1 18339364192035662410
21040471 1 18410575063615763680
21501502 16 18338238141731358264
23235685 24 18338229491751555156
2334 1 18410855417358122732
23402539 116 18270107028412584684
23402655 69 18340188723569083365
23552423 10 18261959518343580116
23559900 14 17766846023107719430
241688 4 18192714449264102792
2748010 2 18338514119271216972
5084963 1 18130223753086052242
528886 8 18267861859817277787
53812653 166 18198902706942667208
53812653 8 18336552697996554900
63268167 104 18341614845272466843

>  <PUBCHEM_SHAPE_MULTIPOLES>  (1) 
231.12
4.15
2.41
0.59
0.34
0.17
0
-0.33
0
0.06
0
-0.02
0.03
0

>  <PUBCHEM_SHAPE_SELFOVERLAP>  (1) 
476.848

>  <PUBCHEM_SHAPE_VOLUME>  (1) 
132.4

>  <PUBCHEM_COORDINATE_TYPE>  (1) 
2
5
10

$$$$
