46485
     RDKit          3D

 27 28  0  0  1  0  0  0  0  0999 V2000
    0.6396    1.5651   -2.0715 O   0  0  0  0  0  0  0  0  0  0  0  0
   -2.1253   -0.8740    0.5650 O   0  0  0  0  0  0  0  0  0  0  0  0
    3.5056    1.9548    1.4692 O   0  0  0  0  0  0  0  0  0  0  0  0
   -4.4202    0.5063   -0.2299 O   0  0  0  0  0  0  0  0  0  0  0  0
   -0.9397    1.2832    2.2892 O   0  0  0  0  0  0  0  0  0  0  0  0
   -1.7905   -2.8215   -0.6161 O   0  0  0  0  0  0  0  0  0  0  0  0
   -0.2115    1.2477    0.0715 N   0  0  0  0  0  0  0  0  0  0  0  0
    1.2957    1.4989    1.8699 N   0  0  0  0  0  0  0  0  0  0  0  0
   -1.9346   -2.8209    1.6788 N   0  0  0  0  0  0  0  0  0  0  0  0
    2.2111    0.9416   -0.3314 C   0  0  0  0  0  0  0  0  0  0  0  0
    3.2685    1.5454   -1.2843 C   0  0  0  0  0  0  0  0  0  0  0  0
    0.8207    1.3038   -0.8805 C   0  0  0  0  0  0  0  0  0  0  0  0
    2.4317   -0.5882   -0.2942 C   0  0  0  0  0  0  0  0  0  0  0  0
    2.4231    1.5311    1.0662 C   0  0  0  0  0  0  0  0  0  0  0  0
   -1.5850    1.2644   -0.4177 C   0  0  0  0  0  0  0  0  0  0  0  0
   -2.1476   -0.1354   -0.6570 C   0  0  0  0  0  0  0  0  0  0  0  0
   -0.0231    1.3164    1.4643 C   0  0  0  0  0  0  0  0  0  0  0  0
    3.1217    3.0486   -1.3782 C   0  0  0  0  0  0  0  0  0  0  0  0
    3.3246   -1.1419    0.6233 C   0  0  0  0  0  0  0  0  0  0  0  0
    1.7375   -1.4149   -1.1777 C   0  0  0  0  0  0  0  0  0  0  0  0
   -3.5769   -0.1237   -1.1894 C   0  0  0  0  0  0  0  0  0  0  0  0
    3.5236   -2.5221    0.6572 C   0  0  0  0  0  0  0  0  0  0  0  0
    1.9365   -2.7951   -1.1436 C   0  0  0  0  0  0  0  0  0  0  0  0
    2.8295   -3.3486   -0.2262 C   0  0  0  0  0  0  0  0  0  0  0  0
   -5.7662    0.5614   -0.6790 C   0  0  0  0  0  0  0  0  0  0  0  0
   -1.9373   -2.2216    0.4435 C   0  0  0  0  0  0  0  0  0  0  0  0
   -6.6115    1.2389    0.3784 C   0  0  0  0  0  0  0  0  0  0  0  0
  1 12  2  0
  2 16  1  0
  2 26  1  0
  3 14  2  0
  4 21  1  0
  4 25  1  0
  5 17  2  0
  6 26  2  0
  7 12  1  0
  7 15  1  0
  7 17  1  0
  8 14  1  0
  8 17  1  0
  9 26  1  0
 10 11  1  0
 10 12  1  0
 10 13  1  0
 10 14  1  0
 11 18  1  0
 13 19  2  0
 13 20  1  0
 15 16  1  0
 16 21  1  0
 19 22  1  0
 20 23  2  0
 22 24  2  0
 23 24  1  0
 25 27  1  0
M  END
>  <PUBCHEM_COMPOUND_CID>  (1) 
46485

>  <PUBCHEM_CONFORMER_RMSD>  (1) 
1

>  <PUBCHEM_CONFORMER_DIVERSEORDER>  (1) 
2
126
15
177
100
35
62
141
91
103
54
155
128
172
44
96
17
130
82
25
47
53
113
89
116
75
160
36
101
92
51
108
78
135
10
142
79
87
88
127
150
188
97
65
84
24
140
183
106
14
80
39
13
27
182
58
137
77
157
95
178
21
169
50
133
111
123
173
85
117
23
125
98
32
136
22
174
170
4
28
40
18
145
163
34
164
46
186
124
175
158
156
104
181
179
146
64
11
129
57
70
154
69
43
105
76
9
68
168
118
12
52
16
110
19
72
144
26
93
20
119
161
66
184
132
166
42
1
134
115
29
121
86
90
109
102
38
180
122
74
45
71
8
99
107
112
139
56
31
83
3
73
153
138
165
143
48
49
41
120
162
81
176
61
5
114
94
167
171
151
37
59
152
147
185
30
33
60
67
187
7
63
55
131
6
149
148
159

>  <PUBCHEM_MMFF94_PARTIAL_CHARGES>  (1) 
32
1 -0.57
10 0.27
12 0.57
13 -0.14
14 0.57
15 0.3
16 0.28
17 0.69
19 -0.15
2 -0.43
20 -0.15
21 0.28
22 -0.15
23 -0.15
24 -0.15
25 0.28
26 0.78
3 -0.57
33 0.37
37 0.15
38 0.15
4 -0.56
41 0.15
42 0.15
43 0.15
49 0.37
5 -0.57
50 0.37
6 -0.57
7 -0.42
8 -0.49
9 -0.8

>  <PUBCHEM_EFFECTIVE_ROTOR_COUNT>  (1) 
9.6

>  <PUBCHEM_PHARMACOPHORE_FEATURES>  (1) 
10
1 1 acceptor
1 18 hydrophobe
1 3 acceptor
1 4 acceptor
1 5 acceptor
1 6 acceptor
1 8 donor
1 9 donor
6 13 19 20 22 23 24 rings
6 7 8 10 12 14 17 rings

>  <PUBCHEM_HEAVY_ATOM_COUNT>  (1) 
27

>  <PUBCHEM_ATOM_DEF_STEREO_COUNT>  (1) 
0

>  <PUBCHEM_ATOM_UDEF_STEREO_COUNT>  (1) 
2

>  <PUBCHEM_BOND_DEF_STEREO_COUNT>  (1) 
0

>  <PUBCHEM_BOND_UDEF_STEREO_COUNT>  (1) 
0

>  <PUBCHEM_ISOTOPIC_ATOM_COUNT>  (1) 
0

>  <PUBCHEM_COMPONENT_COUNT>  (1) 
1

>  <PUBCHEM_CACTVS_TAUTO_COUNT>  (1) 
6

>  <PUBCHEM_CONFORMER_ID>  (1) 
0000B59500000002

>  <PUBCHEM_MMFF94_ENERGY>  (1) 
68.3614

>  <PUBCHEM_FEATURE_SELFOVERLAP>  (1) 
50.748

>  <PUBCHEM_SHAPE_FINGERPRINT>  (1) 
12633257 1 17604972866599666190
12788726 201 17702960153398973953
13140716 1 18340476859386182054
13533116 47 18343302531528928765
15183329 4 17132116806803756361
17093844 170 18334288764636169941
17980427 23 17170665855586667724
20600515 1 18193837038205120286
20691752 17 17603852413023071983
20775530 9 17838043815277807038
20832881 197 18198059167118669875
20905425 154 18268713990299190086
21421861 104 17917429787400130609
22393880 68 18059012928946030302
23419403 2 17838016400780332108
23559900 14 18409446998881678924
338550 245 18126291839819013217
35225 105 15693816942362531858
394222 165 15982255379329840896
495365 180 17988911306132951009

>  <PUBCHEM_SHAPE_MULTIPOLES>  (1) 
505.49
9.14
3.7
1.72
17.03
2.14
0.44
-1.23
-0.61
-3.57
-0.16
-0.52
-0.68
0

>  <PUBCHEM_SHAPE_SELFOVERLAP>  (1) 
1057.823

>  <PUBCHEM_SHAPE_VOLUME>  (1) 
282.3

>  <PUBCHEM_COORDINATE_TYPE>  (1) 
2
5
10

$$$$
