46486
     RDKit          3D

 19 20  0  0  1  0  0  0  0  0999 V2000
   -1.4774    0.0261    2.2998 O   0  0  0  0  0  0  0  0  0  0  0  0
   -0.9270    2.0472   -1.8266 O   0  0  0  0  0  0  0  0  0  0  0  0
   -2.6132   -2.1896   -1.6263 O   0  0  0  0  0  0  0  0  0  0  0  0
   -1.9428   -1.1908    0.3735 N   0  0  0  0  0  0  0  0  0  0  0  0
   -1.6646   -0.1154   -1.7085 N   0  0  0  0  0  0  0  0  0  0  0  0
    4.9292   -1.0054   -0.1211 N   0  0  0  0  0  0  0  0  0  0  0  0
   -0.4951    0.8205    0.2326 C   0  0  0  0  0  0  0  0  0  0  0  0
   -0.5048    2.1974    0.9425 C   0  0  0  0  0  0  0  0  0  0  0  0
    0.9674    0.3283    0.1370 C   0  0  0  0  0  0  0  0  0  0  0  0
   -1.3631   -0.1241    1.0808 C   0  0  0  0  0  0  0  0  0  0  0  0
   -1.0528    1.0073   -1.1803 C   0  0  0  0  0  0  0  0  0  0  0  0
   -1.9164    2.7204    1.0969 C   0  0  0  0  0  0  0  0  0  0  0  0
    1.9142    1.1129   -0.5088 C   0  0  0  0  0  0  0  0  0  0  0  0
    1.3172   -0.8929    0.6982 C   0  0  0  0  0  0  0  0  0  0  0  0
   -2.0931   -1.2471   -1.0236 C   0  0  0  0  0  0  0  0  0  0  0  0
   -2.5426   -2.2689    1.1518 C   0  0  0  0  0  0  0  0  0  0  0  0
    3.2335    0.6684   -0.5952 C   0  0  0  0  0  0  0  0  0  0  0  0
    2.6366   -1.3374    0.6121 C   0  0  0  0  0  0  0  0  0  0  0  0
    3.5948   -0.5568   -0.0347 C   0  0  0  0  0  0  0  0  0  0  0  0
  1 10  2  0
  2 11  2  0
  3 15  2  0
  4 10  1  0
  4 15  1  0
  4 16  1  0
  5 11  1  0
  5 15  1  0
  6 19  1  0
  7  8  1  0
  7  9  1  0
  7 10  1  0
  7 11  1  0
  8 12  1  0
  9 13  2  0
  9 14  1  0
 13 17  1  0
 14 18  2  0
 17 19  2  0
 18 19  1  0
M  END
>  <PUBCHEM_COMPOUND_CID>  (1) 
46486

>  <PUBCHEM_CONFORMER_RMSD>  (1) 
0.6

>  <PUBCHEM_CONFORMER_DIVERSEORDER>  (1) 
1
6
10
5
2
3
4
9
8
7

>  <PUBCHEM_MMFF94_PARTIAL_CHARGES>  (1) 
24
1 -0.57
10 0.57
11 0.57
13 -0.15
14 -0.15
15 0.69
16 0.3
17 -0.15
18 -0.15
19 0.1
2 -0.57
25 0.37
26 0.15
27 0.15
3 -0.57
31 0.15
32 0.15
33 0.4
34 0.4
4 -0.42
5 -0.49
6 -0.9
7 0.27
9 -0.14

>  <PUBCHEM_EFFECTIVE_ROTOR_COUNT>  (1) 
2.6

>  <PUBCHEM_PHARMACOPHORE_FEATURES>  (1) 
9
1 1 acceptor
1 12 hydrophobe
1 2 acceptor
1 3 acceptor
1 5 donor
1 6 cation
1 6 donor
6 4 5 7 10 11 15 rings
6 9 13 14 17 18 19 rings

>  <PUBCHEM_HEAVY_ATOM_COUNT>  (1) 
19

>  <PUBCHEM_ATOM_DEF_STEREO_COUNT>  (1) 
0

>  <PUBCHEM_ATOM_UDEF_STEREO_COUNT>  (1) 
1

>  <PUBCHEM_BOND_DEF_STEREO_COUNT>  (1) 
0

>  <PUBCHEM_BOND_UDEF_STEREO_COUNT>  (1) 
0

>  <PUBCHEM_ISOTOPIC_ATOM_COUNT>  (1) 
0

>  <PUBCHEM_COMPONENT_COUNT>  (1) 
1

>  <PUBCHEM_CACTVS_TAUTO_COUNT>  (1) 
3

>  <PUBCHEM_CONFORMER_ID>  (1) 
0000B59600000001

>  <PUBCHEM_MMFF94_ENERGY>  (1) 
67.2122

>  <PUBCHEM_FEATURE_SELFOVERLAP>  (1) 
45.671

>  <PUBCHEM_SHAPE_FINGERPRINT>  (1) 
11578080 2 17916004932327185401
12423570 1 10364609976745254653
12592029 89 17322375009634658365
13024252 1 16153998949759965017
13299463 15 18114452435643372958
13583140 156 16987983996207825914
14817 1 12059610741119765977
15906896 17 18270405962594987713
16945 1 18122939497215850065
19765921 60 13624624161599221277
200 152 18409162242660905638
20361792 2 17916577790463670335
20525323 117 18410296878578493400
21524375 3 17838058100286116977
21731516 1 18059574766608318966
22112679 90 17843989141015538177
22802520 49 17896023494413834285
2306618 200 18114178610240871280
23557571 272 18198032920336063192
23559900 14 17772737292355674570
23728640 28 18056194666085520858
2748010 2 17033606357921091704
298252 57 17174587499650374605
427121 178 15550839869302086707
5845 1 11199033203491805265
81228 2 18411691067696534121

>  <PUBCHEM_SHAPE_MULTIPOLES>  (1) 
358.46
5.47
2.52
1.67
7.17
0.56
-0.16
-2.7
-0.28
-2.1
0.23
-1.47
0.07
-0.63

>  <PUBCHEM_SHAPE_SELFOVERLAP>  (1) 
769.829

>  <PUBCHEM_SHAPE_VOLUME>  (1) 
195.6

>  <PUBCHEM_COORDINATE_TYPE>  (1) 
2
5
10

$$$$
