46481
     RDKit          3D

 16 16  0  0  0  0  0  0  0  0999 V2000
   -0.1926    1.9786    0.2890 O   0  0  0  0  0  0  0  0  0  0  0  0
    2.5321   -1.7346    0.7729 O   0  0  0  0  0  0  0  0  0  0  0  0
   -1.7994   -2.2901   -0.5966 O   0  0  0  0  0  0  0  0  0  0  0  0
   -1.0161   -0.1048   -0.3440 N   0  0  0  0  0  0  0  0  0  0  0  0
    0.3778   -1.9791    0.0233 N   0  0  0  0  0  0  0  0  0  0  0  0
    1.4162    0.2247   -0.1144 C   0  0  0  0  0  0  0  0  0  0  0  0
    1.8396    0.3142   -1.5919 C   0  0  0  0  0  0  0  0  0  0  0  0
    2.3845    1.0620    0.7360 C   0  0  0  0  0  0  0  0  0  0  0  0
    0.0048    0.7995   -0.0099 C   0  0  0  0  0  0  0  0  0  0  0  0
    1.5129   -1.2347    0.2990 C   0  0  0  0  0  0  0  0  0  0  0  0
   -2.3546    0.4341   -0.5545 C   0  0  0  0  0  0  0  0  0  0  0  0
    1.8038    1.7451   -2.0789 C   0  0  0  0  0  0  0  0  0  0  0  0
    2.0706    0.9255    2.2096 C   0  0  0  0  0  0  0  0  0  0  0  0
   -0.8801   -1.5066   -0.3447 C   0  0  0  0  0  0  0  0  0  0  0  0
   -3.1452    0.4142    0.7512 C   0  0  0  0  0  0  0  0  0  0  0  0
   -4.5541    0.9521    0.5538 C   0  0  0  0  0  0  0  0  0  0  0  0
  1  9  2  0
  2 10  2  0
  3 14  2  0
  4  9  1  0
  4 11  1  0
  4 14  1  0
  5 10  1  0
  5 14  1  0
  6  7  1  0
  6  8  1  0
  6  9  1  0
  6 10  1  0
  7 12  1  0
  8 13  1  0
 11 15  1  0
 15 16  1  0
M  END
>  <PUBCHEM_COMPOUND_CID>  (1) 
46481

>  <PUBCHEM_CONFORMER_RMSD>  (1) 
0.6

>  <PUBCHEM_CONFORMER_DIVERSEORDER>  (1) 
1
16
15
9
7
23
19
26
20
10
14
22
8
21
17
18
2
12
11
24
25
5
6
3
4
13

>  <PUBCHEM_MMFF94_PARTIAL_CHARGES>  (1) 
11
1 -0.57
10 0.57
11 0.3
14 0.69
2 -0.57
23 0.37
3 -0.57
4 -0.42
5 -0.49
6 0.12
9 0.57

>  <PUBCHEM_EFFECTIVE_ROTOR_COUNT>  (1) 
4.6

>  <PUBCHEM_PHARMACOPHORE_FEATURES>  (1) 
8
1 1 acceptor
1 12 hydrophobe
1 13 hydrophobe
1 16 hydrophobe
1 2 acceptor
1 3 acceptor
1 5 donor
6 4 5 6 9 10 14 rings

>  <PUBCHEM_HEAVY_ATOM_COUNT>  (1) 
16

>  <PUBCHEM_ATOM_DEF_STEREO_COUNT>  (1) 
0

>  <PUBCHEM_ATOM_UDEF_STEREO_COUNT>  (1) 
0

>  <PUBCHEM_BOND_DEF_STEREO_COUNT>  (1) 
0

>  <PUBCHEM_BOND_UDEF_STEREO_COUNT>  (1) 
0

>  <PUBCHEM_ISOTOPIC_ATOM_COUNT>  (1) 
0

>  <PUBCHEM_COMPONENT_COUNT>  (1) 
1

>  <PUBCHEM_CACTVS_TAUTO_COUNT>  (1) 
3

>  <PUBCHEM_CONFORMER_ID>  (1) 
0000B59100000001

>  <PUBCHEM_MMFF94_ENERGY>  (1) 
32.5037

>  <PUBCHEM_FEATURE_SELFOVERLAP>  (1) 
40.597

>  <PUBCHEM_SHAPE_FINGERPRINT>  (1) 
10980938 120 18410582768913439963
12202030 40 13190875620276271776
12382932 28 18341880939749764137
12423570 1 16818286251607102756
13140716 1 18340194241605351170
13538477 17 18337117855488969149
14115302 16 18340219530572645844
14178342 30 18268414901560962659
14344429 50 18060419071326768056
14817 1 14170824253783233684
15775835 57 18342739619776532585
16945 1 18197478650511832426
18186145 218 17918281930966839545
20233049 118 18200887170706686276
20511035 2 18410854373602208454
20559304 39 18260274022911277493
21029758 27 17972041336257142422
21524375 3 16736661158145188964
2334 1 18339630265123019255
23526113 38 16772701851959545797
23557571 272 17200509916794585231
2748010 2 18341040908487162974
276578 36 18411429405430034481
430814 3 17606420974916229316
5337951 7 17775289352430702328
53812653 166 18272367606981147856
81228 2 17982733275267741215

>  <PUBCHEM_SHAPE_MULTIPOLES>  (1) 
301.7
5.07
2.12
1.58
6.29
0.88
0.05
-1.52
1.19
-0.31
-0.25
-1.43
-0.77
-0.67

>  <PUBCHEM_SHAPE_SELFOVERLAP>  (1) 
611.571

>  <PUBCHEM_SHAPE_VOLUME>  (1) 
175

>  <PUBCHEM_COORDINATE_TYPE>  (1) 
2
5
10

$$$$
