4649
     RDKit          3D

 11 11  0  0  0  0  0  0  0  0999 V2000
    0.6705   -2.1801   -0.1869 O   0  0  0  0  0  0  0  0  0  0  0  0
    2.5574    1.4370   -0.4767 O   0  0  0  0  0  0  0  0  0  0  0  0
    2.8355   -0.6088    0.4742 O   0  0  0  0  0  0  0  0  0  0  0  0
   -3.5675    0.0822    0.0040 N   0  0  0  0  0  0  0  0  0  0  0  0
    0.6306    0.2081    0.0328 C   0  0  0  0  0  0  0  0  0  0  0  0
   -0.0296   -1.0154   -0.0820 C   0  0  0  0  0  0  0  0  0  0  0  0
   -2.1578    0.1243    0.0136 C   0  0  0  0  0  0  0  0  0  0  0  0
   -1.4239   -1.0573   -0.0916 C   0  0  0  0  0  0  0  0  0  0  0  0
   -0.1033    1.3895    0.1380 C   0  0  0  0  0  0  0  0  0  0  0  0
   -1.4974    1.3476    0.1284 C   0  0  0  0  0  0  0  0  0  0  0  0
    2.0857    0.2729    0.0462 C   0  0  0  0  0  0  0  0  0  0  0  0
  1  6  1  0
  2 11  1  0
  3 11  2  0
  4  7  1  0
  5  6  2  0
  5  9  1  0
  5 11  1  0
  6  8  1  0
  7  8  2  0
  7 10  1  0
  9 10  2  0
M  END
>  <PUBCHEM_COMPOUND_CID>  (1) 
4649

>  <PUBCHEM_CONFORMER_RMSD>  (1) 
0.4

>  <PUBCHEM_CONFORMER_DIVERSEORDER>  (1) 
1
3
2

>  <PUBCHEM_MMFF94_PARTIAL_CHARGES>  (1) 
18
1 -0.53
10 -0.15
11 0.63
12 0.15
13 0.15
14 0.15
15 0.4
16 0.4
17 0.45
18 0.5
2 -0.65
3 -0.57
4 -0.9
5 0.09
6 0.08
7 0.1
8 -0.15
9 -0.15

>  <PUBCHEM_EFFECTIVE_ROTOR_COUNT>  (1) 
1

>  <PUBCHEM_PHARMACOPHORE_FEATURES>  (1) 
7
1 1 donor
1 2 acceptor
1 3 acceptor
1 4 cation
1 4 donor
3 2 3 11 anion
6 5 6 7 8 9 10 rings

>  <PUBCHEM_HEAVY_ATOM_COUNT>  (1) 
11

>  <PUBCHEM_ATOM_DEF_STEREO_COUNT>  (1) 
0

>  <PUBCHEM_ATOM_UDEF_STEREO_COUNT>  (1) 
0

>  <PUBCHEM_BOND_DEF_STEREO_COUNT>  (1) 
0

>  <PUBCHEM_BOND_UDEF_STEREO_COUNT>  (1) 
0

>  <PUBCHEM_ISOTOPIC_ATOM_COUNT>  (1) 
0

>  <PUBCHEM_COMPONENT_COUNT>  (1) 
1

>  <PUBCHEM_CACTVS_TAUTO_COUNT>  (1) 
12

>  <PUBCHEM_CONFORMER_ID>  (1) 
0000122900000001

>  <PUBCHEM_MMFF94_ENERGY>  (1) 
41.6702

>  <PUBCHEM_FEATURE_SELFOVERLAP>  (1) 
35.578

>  <PUBCHEM_SHAPE_FINGERPRINT>  (1) 
10219947 1 18335423478153605001
12897270 3 18410575067631091293
14325111 11 18410012156337676257
16945 1 18410578344601291863
193761 8 17763465015370114937
20645476 183 17823996712555885518
21040471 1 18340485672505540482
23235685 24 18410570704060317513
23402655 69 18197198267285380365
23463225 33 18335979783623788466
23552423 10 18265056825361348055
241688 4 17473267578456347074
2748010 2 18051691337172880581
369184 2 17240196646911473321
5084963 1 18201157663530876120
528886 8 18411696629615521345

>  <PUBCHEM_SHAPE_MULTIPOLES>  (1) 
203.79
4.02
1.71
0.62
0.49
0.34
0
-0.5
0.06
-0.31
-0.09
-0.07
-0.03
-0.21

>  <PUBCHEM_SHAPE_SELFOVERLAP>  (1) 
432.534

>  <PUBCHEM_SHAPE_VOLUME>  (1) 
113.6

>  <PUBCHEM_COORDINATE_TYPE>  (1) 
2
5
10

$$$$
