46490
     RDKit          3D

 28 29  0  0  1  0  0  0  0  0999 V2000
   -0.6232   -0.4097   -1.9987 O   0  0  0  0  0  0  0  0  0  0  0  0
    2.8143    0.9699    0.6993 O   0  0  0  0  0  0  0  0  0  0  0  0
   -3.2278    2.5760    0.3922 O   0  0  0  0  0  0  0  0  0  0  0  0
    4.0068   -1.4597    0.0080 O   0  0  0  0  0  0  0  0  0  0  0  0
    0.4597    0.7530    2.3705 O   0  0  0  0  0  0  0  0  0  0  0  0
    3.3314    2.6747   -0.7588 O   0  0  0  0  0  0  0  0  0  0  0  0
   -0.0954    0.0231    0.2244 N   0  0  0  0  0  0  0  0  0  0  0  0
   -1.4400    1.5650    1.4005 N   0  0  0  0  0  0  0  0  0  0  0  0
    3.7531    2.8551    1.4943 N   0  0  0  0  0  0  0  0  0  0  0  0
   -2.3763    0.5283   -0.6145 C   0  0  0  0  0  0  0  0  0  0  0  0
   -2.9263    1.0723   -1.9566 C   0  0  0  0  0  0  0  0  0  0  0  0
   -0.9509    0.0208   -0.8901 C   0  0  0  0  0  0  0  0  0  0  0  0
   -3.3070   -0.6057   -0.1267 C   0  0  0  0  0  0  0  0  0  0  0  0
   -2.3980    1.6671    0.4078 C   0  0  0  0  0  0  0  0  0  0  0  0
    1.1688   -0.6946    0.1055 C   0  0  0  0  0  0  0  0  0  0  0  0
    2.3112    0.1918   -0.3874 C   0  0  0  0  0  0  0  0  0  0  0  0
   -0.3083    0.7571    1.4049 C   0  0  0  0  0  0  0  0  0  0  0  0
   -2.0555    2.1898   -2.4889 C   0  0  0  0  0  0  0  0  0  0  0  0
    3.4666   -0.6003   -0.9911 C   0  0  0  0  0  0  0  0  0  0  0  0
   -4.6638   -0.3546    0.0787 C   0  0  0  0  0  0  0  0  0  0  0  0
   -2.7904   -1.8801    0.1076 C   0  0  0  0  0  0  0  0  0  0  0  0
   -5.5036   -1.3777    0.5186 C   0  0  0  0  0  0  0  0  0  0  0  0
   -3.6304   -2.9032    0.5475 C   0  0  0  0  0  0  0  0  0  0  0  0
    5.0799   -2.2375   -0.5020 C   0  0  0  0  0  0  0  0  0  0  0  0
   -4.9870   -2.6519    0.7529 C   0  0  0  0  0  0  0  0  0  0  0  0
    6.3436   -1.3913   -0.5276 C   0  0  0  0  0  0  0  0  0  0  0  0
    5.2485   -3.4821    0.3562 C   0  0  0  0  0  0  0  0  0  0  0  0
    3.3000    2.2044    0.3734 C   0  0  0  0  0  0  0  0  0  0  0  0
  1 12  2  0
  2 16  1  0
  2 28  1  0
  3 14  2  0
  4 19  1  0
  4 24  1  0
  5 17  2  0
  6 28  2  0
  7 12  1  0
  7 15  1  0
  7 17  1  0
  8 14  1  0
  8 17  1  0
  9 28  1  0
 10 11  1  0
 10 12  1  0
 10 13  1  0
 10 14  1  0
 11 18  1  0
 13 20  2  0
 13 21  1  0
 15 16  1  0
 16 19  1  0
 20 22  1  0
 21 23  2  0
 22 25  2  0
 23 25  1  0
 24 26  1  0
 24 27  1  0
M  END
>  <PUBCHEM_COMPOUND_CID>  (1) 
46490

>  <PUBCHEM_CONFORMER_RMSD>  (1) 
1

>  <PUBCHEM_CONFORMER_DIVERSEORDER>  (1) 
1
156
9
154
119
73
85
13
164
76
6
83
152
75
26
109
14
65
167
67
88
157
115
172
25
102
3
29
91
63
104
92
64
96
122
141
55
23
40
173
86
162
106
98
93
24
18
78
42
90
123
37
28
126
69
70
117
87
58
11
145
36
118
80
50
99
77
120
143
39
21
81
52
82
101
132
111
53
128
48
168
47
130
44
84
43
54
112
170
147
137
133
134
138
60
22
8
16
108
31
105
129
20
12
15
19
38
151
68
71
103
34
155
30
61
45
166
57
79
94
139
27
161
142
107
125
51
169
153
66
17
62
89
144
2
46
135
150
56
160
116
124
100
131
10
114
121
171
97
49
110
35
148
165
158
33
146
159
59
149
72
163
32
127
7
74
136
140
95
4
41
5
113

>  <PUBCHEM_MMFF94_PARTIAL_CHARGES>  (1) 
32
1 -0.57
10 0.27
12 0.57
13 -0.14
14 0.57
15 0.3
16 0.28
17 0.69
19 0.28
2 -0.43
20 -0.15
21 -0.15
22 -0.15
23 -0.15
24 0.28
25 -0.15
28 0.78
3 -0.57
34 0.37
4 -0.56
40 0.15
41 0.15
42 0.15
43 0.15
45 0.15
5 -0.57
52 0.37
53 0.37
6 -0.57
7 -0.42
8 -0.49
9 -0.8

>  <PUBCHEM_EFFECTIVE_ROTOR_COUNT>  (1) 
9.6

>  <PUBCHEM_PHARMACOPHORE_FEATURES>  (1) 
11
1 1 acceptor
1 18 hydrophobe
1 3 acceptor
1 4 acceptor
1 5 acceptor
1 6 acceptor
1 8 donor
1 9 donor
3 24 26 27 hydrophobe
6 13 20 21 22 23 25 rings
6 7 8 10 12 14 17 rings

>  <PUBCHEM_HEAVY_ATOM_COUNT>  (1) 
28

>  <PUBCHEM_ATOM_DEF_STEREO_COUNT>  (1) 
0

>  <PUBCHEM_ATOM_UDEF_STEREO_COUNT>  (1) 
2

>  <PUBCHEM_BOND_DEF_STEREO_COUNT>  (1) 
0

>  <PUBCHEM_BOND_UDEF_STEREO_COUNT>  (1) 
0

>  <PUBCHEM_ISOTOPIC_ATOM_COUNT>  (1) 
0

>  <PUBCHEM_COMPONENT_COUNT>  (1) 
1

>  <PUBCHEM_CACTVS_TAUTO_COUNT>  (1) 
6

>  <PUBCHEM_CONFORMER_ID>  (1) 
0000B59A00000001

>  <PUBCHEM_MMFF94_ENERGY>  (1) 
73.0165

>  <PUBCHEM_FEATURE_SELFOVERLAP>  (1) 
55.823

>  <PUBCHEM_SHAPE_FINGERPRINT>  (1) 
10369192 42 17908415098250712448
11135609 12 18342170081638685394
11405975 8 18412547587064427000
12633257 1 18059030418485733323
12760667 363 18342740715400024471
12788726 201 15912505600163953640
12916754 54 18334579035700777709
13533116 47 18410859892772177962
13544653 18 18265901439845079963
13583140 156 18337942407705968086
13782708 43 18408884044475736278
14251740 79 18260553290401652291
14251751 18 18409451379901925054
14251764 30 18264216962219910515
14347332 77 18260829289031082182
14910302 57 18261105292155777415
17349148 13 17489580122556373094
17492 89 18411419527089968146
1813 80 17750795639763334581
21033648 29 16629102270982670330
21033650 10 17095519548301692468
22393880 68 18040989610005849186
23557571 272 18040988596272371549
23559900 14 18409724062763485195
312423 11 18271820024647603864
3286 77 18408890624744798982
350125 39 18410580604128915438
46194498 28 18186521042668700644
497634 4 18335147457495100084
5104073 3 18131075926073753425
531348 171 17388254533661800630
59755656 520 18118120269622733229
7495541 125 18410016537673875358

>  <PUBCHEM_SHAPE_MULTIPOLES>  (1) 
526.07
12.41
3.57
1.65
9.98
0.68
0.28
9.59
0.07
1.53
-0.45
-0.46
-1.16
1.95

>  <PUBCHEM_SHAPE_SELFOVERLAP>  (1) 
1098.957

>  <PUBCHEM_SHAPE_VOLUME>  (1) 
294.5

>  <PUBCHEM_COORDINATE_TYPE>  (1) 
2
5
10

$$$$
