46496
     RDKit          3D

 19 19  0  0  1  0  0  0  0  0999 V2000
   -0.3904    1.0964   -1.4968 O   0  0  0  0  0  0  0  0  0  0  0  0
    1.4516   -1.8657    1.5495 O   0  0  0  0  0  0  0  0  0  0  0  0
   -3.0651   -1.1282    1.5826 O   0  0  0  0  0  0  0  0  0  0  0  0
   -1.8152   -0.1119   -0.1077 N   0  0  0  0  0  0  0  0  0  0  0  0
   -0.8172   -1.5299    1.4997 N   0  0  0  0  0  0  0  0  0  0  0  0
    0.4982   -0.8907   -0.4534 C   0  0  0  0  0  0  0  0  0  0  0  0
    1.8844   -0.2833   -0.7203 C   0  0  0  0  0  0  0  0  0  0  0  0
    2.1664    0.8666    0.2409 C   0  0  0  0  0  0  0  0  0  0  0  0
    0.2697   -2.0651   -1.4223 C   0  0  0  0  0  0  0  0  0  0  0  0
   -0.5856    0.1484   -0.7341 C   0  0  0  0  0  0  0  0  0  0  0  0
    0.4554   -1.4510    0.9587 C   0  0  0  0  0  0  0  0  0  0  0  0
    3.5723    1.4685    0.0605 C   0  0  0  0  0  0  0  0  0  0  0  0
    0.3294   -1.5997   -2.8596 C   0  0  0  0  0  0  0  0  0  0  0  0
   -2.9742    0.6548   -0.5491 C   0  0  0  0  0  0  0  0  0  0  0  0
   -1.9852   -0.9462    1.0140 C   0  0  0  0  0  0  0  0  0  0  0  0
    4.6308    0.3775    0.2405 C   0  0  0  0  0  0  0  0  0  0  0  0
    3.8454    2.6170    1.0327 C   0  0  0  0  0  0  0  0  0  0  0  0
   -3.1274    1.9173    0.2954 C   0  0  0  0  0  0  0  0  0  0  0  0
   -4.3433    2.7251   -0.1313 C   0  0  0  0  0  0  0  0  0  0  0  0
  1 10  2  0
  2 11  2  0
  3 15  2  0
  4 10  1  0
  4 14  1  0
  4 15  1  0
  5 11  1  0
  5 15  1  0
  6  7  1  0
  6  9  1  0
  6 10  1  0
  6 11  1  0
  7  8  1  0
  8 12  1  0
  9 13  1  0
 12 16  1  0
 12 17  1  0
 14 18  1  0
 18 19  1  0
M  END
>  <PUBCHEM_COMPOUND_CID>  (1) 
46496

>  <PUBCHEM_CONFORMER_RMSD>  (1) 
0.8

>  <PUBCHEM_CONFORMER_DIVERSEORDER>  (1) 
2
20
15
10
24
21
26
25
4
18
12
8
13
19
6
11
16
9
22
14
17
23
5
7
1
3

>  <PUBCHEM_MMFF94_PARTIAL_CHARGES>  (1) 
11
1 -0.57
10 0.57
11 0.57
14 0.3
15 0.69
2 -0.57
3 -0.57
30 0.37
4 -0.42
5 -0.49
6 0.12

>  <PUBCHEM_EFFECTIVE_ROTOR_COUNT>  (1) 
6.6

>  <PUBCHEM_PHARMACOPHORE_FEATURES>  (1) 
8
1 1 acceptor
1 13 hydrophobe
1 19 hydrophobe
1 2 acceptor
1 3 acceptor
1 5 donor
3 12 16 17 hydrophobe
6 4 5 6 10 11 15 rings

>  <PUBCHEM_HEAVY_ATOM_COUNT>  (1) 
19

>  <PUBCHEM_ATOM_DEF_STEREO_COUNT>  (1) 
0

>  <PUBCHEM_ATOM_UDEF_STEREO_COUNT>  (1) 
1

>  <PUBCHEM_BOND_DEF_STEREO_COUNT>  (1) 
0

>  <PUBCHEM_BOND_UDEF_STEREO_COUNT>  (1) 
0

>  <PUBCHEM_ISOTOPIC_ATOM_COUNT>  (1) 
0

>  <PUBCHEM_COMPONENT_COUNT>  (1) 
1

>  <PUBCHEM_CACTVS_TAUTO_COUNT>  (1) 
3

>  <PUBCHEM_CONFORMER_ID>  (1) 
0000B5A000000002

>  <PUBCHEM_MMFF94_ENERGY>  (1) 
38.5773

>  <PUBCHEM_FEATURE_SELFOVERLAP>  (1) 
40.597

>  <PUBCHEM_SHAPE_FINGERPRINT>  (1) 
10948715 1 18412821386923913036
11221954 11 18340492175039197073
11725454 13 18338784650597560565
12119455 92 18273496784222343806
122479 349 18338231665316509620
12423570 1 14952735552232534815
12592029 89 18131635577867285534
12633257 1 17677878059706924544
12892183 10 18114746061378008976
12930653 34 18186804698940229995
13140716 1 17749952129371483083
13464514 151 18268435620235369424
14142880 1 18191568938410349884
14178342 30 17676501531531509929
14817 1 17971495123453657270
15163728 17 17916886658631538060
15295992 7 18410004460241812824
15534591 1 18270388494714886652
16945 1 18192726754208353159
1813 80 14707213193011744970
18186145 218 17203063940640157276
18915476 22 17701840820386103607
21296965 67 11169909481081385460
21475661 188 18410290294167606592
21524375 3 18412256238158609708
23382010 3 16200145543024602562
23402539 116 18189895490956813395
23419403 2 17838660765780706950
23526113 38 17551253778157451855
23557571 272 18117301292289570339
23559900 14 17897184450461594966
27216 239 18195803196580893752
2748010 2 17677062239380711915
298252 57 17988634207812362894
427121 178 17896612695270912673
474 4 18340202986406730769
58807428 26 17458058235914606898
5895379 119 17196005947557616393
633830 44 18407755946035592612

>  <PUBCHEM_SHAPE_MULTIPOLES>  (1) 
363.44
6.87
2.77
1.81
1.46
1.07
-0.33
7.23
1.03
-0.19
-0.3
-0.36
-1.42
1.04

>  <PUBCHEM_SHAPE_SELFOVERLAP>  (1) 
728.673

>  <PUBCHEM_SHAPE_VOLUME>  (1) 
213

>  <PUBCHEM_COORDINATE_TYPE>  (1) 
2
5
10

$$$$
