46502
     RDKit          3D

 17 17  0  0  1  0  0  0  0  0999 V2000
   -0.6714    0.0445    1.7681 O   0  0  0  0  0  0  0  0  0  0  0  0
    2.6606   -1.7764   -0.8850 O   0  0  0  0  0  0  0  0  0  0  0  0
    2.2495    2.7726   -0.6002 O   0  0  0  0  0  0  0  0  0  0  0  0
    0.6353    1.4714    0.4736 N   0  0  0  0  0  0  0  0  0  0  0  0
    2.3895    0.4989   -0.7785 N   0  0  0  0  0  0  0  0  0  0  0  0
    0.5383   -0.9290   -0.0799 C   0  0  0  0  0  0  0  0  0  0  0  0
    0.3735   -2.2687    0.6551 C   0  0  0  0  0  0  0  0  0  0  0  0
   -0.3943   -0.9100   -1.3046 C   0  0  0  0  0  0  0  0  0  0  0  0
    0.1128    0.2188    0.8337 C   0  0  0  0  0  0  0  0  0  0  0  0
    1.9639   -0.8059   -0.5920 C   0  0  0  0  0  0  0  0  0  0  0  0
    1.2980   -2.3502    1.8499 C   0  0  0  0  0  0  0  0  0  0  0  0
   -1.8253   -0.9528   -0.8797 C   0  0  0  0  0  0  0  0  0  0  0  0
    1.7738    1.6661   -0.3323 C   0  0  0  0  0  0  0  0  0  0  0  0
    0.0560    2.6529    1.1018 C   0  0  0  0  0  0  0  0  0  0  0  0
   -2.7093    0.0160   -1.1600 C   0  0  0  0  0  0  0  0  0  0  0  0
   -4.1412   -0.0069   -0.7135 C   0  0  0  0  0  0  0  0  0  0  0  0
   -4.3098    0.6587    0.6434 C   0  0  0  0  0  0  0  0  0  0  0  0
  1  9  2  0
  2 10  2  0
  3 13  2  0
  4  9  1  0
  4 13  1  0
  4 14  1  0
  5 10  1  0
  5 13  1  0
  6  7  1  0
  6  8  1  0
  6  9  1  0
  6 10  1  0
  7 11  1  0
  8 12  1  0
 12 15  2  0
 15 16  1  0
 16 17  1  0
M  END
>  <PUBCHEM_COMPOUND_CID>  (1) 
46502

>  <PUBCHEM_CONFORMER_RMSD>  (1) 
0.6

>  <PUBCHEM_CONFORMER_DIVERSEORDER>  (1) 
1
47
57
14
29
51
43
45
27
48
34
58
56
49
53
7
11
9
46
18
37
19
50
10
54
42
44
12
28
17
41
26
8
39
40
16
20
35
38
33
15
22
55
30
21
25
32
3
6
23
36
4
24
2
5
13
31
52

>  <PUBCHEM_MMFF94_PARTIAL_CHARGES>  (1) 
17
1 -0.57
10 0.57
12 -0.29
13 0.69
14 0.3
15 -0.29
16 0.14
2 -0.57
25 0.37
26 0.15
3 -0.57
30 0.15
4 -0.42
5 -0.49
6 0.12
8 0.14
9 0.57

>  <PUBCHEM_EFFECTIVE_ROTOR_COUNT>  (1) 
4.6

>  <PUBCHEM_PHARMACOPHORE_FEATURES>  (1) 
7
1 1 acceptor
1 11 hydrophobe
1 17 hydrophobe
1 2 acceptor
1 3 acceptor
1 5 donor
6 4 5 6 9 10 13 rings

>  <PUBCHEM_HEAVY_ATOM_COUNT>  (1) 
17

>  <PUBCHEM_ATOM_DEF_STEREO_COUNT>  (1) 
0

>  <PUBCHEM_ATOM_UDEF_STEREO_COUNT>  (1) 
1

>  <PUBCHEM_BOND_DEF_STEREO_COUNT>  (1) 
0

>  <PUBCHEM_BOND_UDEF_STEREO_COUNT>  (1) 
1

>  <PUBCHEM_ISOTOPIC_ATOM_COUNT>  (1) 
0

>  <PUBCHEM_COMPONENT_COUNT>  (1) 
1

>  <PUBCHEM_CACTVS_TAUTO_COUNT>  (1) 
3

>  <PUBCHEM_CONFORMER_ID>  (1) 
0000B5A600000001

>  <PUBCHEM_MMFF94_ENERGY>  (1) 
34.9733

>  <PUBCHEM_FEATURE_SELFOVERLAP>  (1) 
35.522

>  <PUBCHEM_SHAPE_FINGERPRINT>  (1) 
13132413 78 18047998966668084642
13464514 151 18270121356407906596
14713325 29 17105669436770049948
14817 1 15595339097283576770
16945 1 18041830731942522423
18186145 218 18408605876681229463
19765921 60 18266173022852530209
19837323 101 17402312167436647357
20233049 118 17346031178441765465
20820808 20 18337105769313925901
21524375 3 17977364346555360925
22112679 90 17833268619208639594
23419403 2 17754496526529077514
25 1 18267306606492990084
2748010 2 16324003625128176260
430814 3 17391038767311294108
549884 4 18059003008009289629
6442390 28 17897455118973287587
7832392 63 17988920123933009421
81228 2 16895643508538646203

>  <PUBCHEM_SHAPE_MULTIPOLES>  (1) 
322.28
5.01
2.74
1.52
6.94
1.09
-0.43
0.46
1.07
-2.31
-0.77
-0.04
-0.4
-0.72

>  <PUBCHEM_SHAPE_SELFOVERLAP>  (1) 
654.919

>  <PUBCHEM_SHAPE_VOLUME>  (1) 
185.6

>  <PUBCHEM_COORDINATE_TYPE>  (1) 
2
5
10

$$$$
