4651
     RDKit          3D

 21 21  0  0  0  0  0  0  0  0999 V2000
    1.8342    0.4966   -0.1732 O   0  0  0  0  0  0  0  0  0  0  0  0
    1.5786    2.7827   -0.0849 O   0  0  0  0  0  0  0  0  0  0  0  0
    5.3439   -0.6265   -0.3311 N   0  0  0  0  0  0  0  0  0  0  0  0
   -4.4267    0.5366    0.0104 N   0  0  0  0  0  0  0  0  0  0  0  0
    3.8935   -0.7317   -0.2756 C   0  0  0  0  0  0  0  0  0  0  0  0
    5.8968   -0.3750    1.0021 C   0  0  0  0  0  0  0  0  0  0  0  0
    5.9304   -1.8424   -0.9001 C   0  0  0  0  0  0  0  0  0  0  0  0
    3.2574    0.6476   -0.2086 C   0  0  0  0  0  0  0  0  0  0  0  0
   -6.4992   -0.7570    0.0867 C   0  0  0  0  0  0  0  0  0  0  0  0
   -4.9772   -0.7969   -0.0215 C   0  0  0  0  0  0  0  0  0  0  0  0
   -7.1264   -2.1532    0.1040 C   0  0  0  0  0  0  0  0  0  0  0  0
    7.4042   -0.1947    0.9462 C   0  0  0  0  0  0  0  0  0  0  0  0
    5.6390   -3.0522   -0.0285 C   0  0  0  0  0  0  0  0  0  0  0  0
   -3.0680    0.8095   -0.0185 C   0  0  0  0  0  0  0  0  0  0  0  0
   -0.3335    1.3584   -0.0792 C   0  0  0  0  0  0  0  0  0  0  0  0
   -8.6356   -2.0819    0.2786 C   0  0  0  0  0  0  0  0  0  0  0  0
   -2.6209    2.1304    0.0160 C   0  0  0  0  0  0  0  0  0  0  0  0
   -2.1480   -0.2369   -0.0834 C   0  0  0  0  0  0  0  0  0  0  0  0
    1.0920    1.6444   -0.1113 C   0  0  0  0  0  0  0  0  0  0  0  0
   -1.2537    2.4047   -0.0144 C   0  0  0  0  0  0  0  0  0  0  0  0
   -0.7807    0.0375   -0.1138 C   0  0  0  0  0  0  0  0  0  0  0  0
  1  8  1  0
  1 19  1  0
  2 19  2  0
  3  5  1  0
  3  6  1  0
  3  7  1  0
  4 10  1  0
  4 14  1  0
  5  8  1  0
  6 12  1  0
  7 13  1  0
  9 10  1  0
  9 11  1  0
 11 16  1  0
 14 17  2  0
 14 18  1  0
 15 19  1  0
 15 20  2  0
 15 21  1  0
 17 20  1  0
 18 21  2  0
M  END
>  <PUBCHEM_COMPOUND_CID>  (1) 
4651

>  <PUBCHEM_CONFORMER_RMSD>  (1) 
1

>  <PUBCHEM_CONFORMER_DIVERSEORDER>  (1) 
2
53
73
9
24
60
48
37
26
52
63
46
65
30
78
59
39
58
62
6
35
40
72
47
50
25
4
44
69
75
76
36
56
15
29
71
19
70
16
23
22
33
21
31
67
7
49
43
77
8
57
45
74
61
28
1
18
27
3
42
54
20
34
13
11
51
14
55
17
32
10
68
79
41
66
38
5
64
12

>  <PUBCHEM_MMFF94_PARTIAL_CHARGES>  (1) 
21
1 -0.43
10 0.37
14 0.1
15 0.09
17 -0.15
18 -0.15
19 0.63
2 -0.57
20 -0.15
21 -0.15
3 -0.81
4 -0.87
42 0.4
46 0.15
47 0.15
48 0.15
49 0.15
5 0.27
6 0.27
7 0.27
8 0.28

>  <PUBCHEM_EFFECTIVE_ROTOR_COUNT>  (1) 
11

>  <PUBCHEM_PHARMACOPHORE_FEATURES>  (1) 
6
1 16 hydrophobe
1 2 acceptor
1 3 cation
1 4 cation
1 4 donor
6 14 15 17 18 20 21 rings

>  <PUBCHEM_HEAVY_ATOM_COUNT>  (1) 
21

>  <PUBCHEM_ATOM_DEF_STEREO_COUNT>  (1) 
0

>  <PUBCHEM_ATOM_UDEF_STEREO_COUNT>  (1) 
0

>  <PUBCHEM_BOND_DEF_STEREO_COUNT>  (1) 
0

>  <PUBCHEM_BOND_UDEF_STEREO_COUNT>  (1) 
0

>  <PUBCHEM_ISOTOPIC_ATOM_COUNT>  (1) 
0

>  <PUBCHEM_COMPONENT_COUNT>  (1) 
1

>  <PUBCHEM_CACTVS_TAUTO_COUNT>  (1) 
2

>  <PUBCHEM_CONFORMER_ID>  (1) 
0000122B00000002

>  <PUBCHEM_MMFF94_ENERGY>  (1) 
47.5436

>  <PUBCHEM_FEATURE_SELFOVERLAP>  (1) 
30.446

>  <PUBCHEM_SHAPE_FINGERPRINT>  (1) 
10 15 11671789282490520415
10411042 1 18410576193271751613
106641 1 17988921206433436520
10753850 27 18408040727984036145
12516196 113 18343581824678343712
12596602 18 17703792475200631338
12760667 363 18408609162921937579
13073987 5 18130505224411328472
13533116 47 18342176721162739505
13668630 136 18334012787581913487
13685833 64 18411982472436821915
13862211 1 18410578405353319751
14123256 34 18410015446662478643
14216079 64 18410856573210883439
1768 124 18060701692944449815
18335252 98 18342738516619037210
190975 80 18343581858837303888
20028762 73 18343303686527771143
20281389 69 11024112027251164703
20526848 3 9295291642753402943
20721686 124 11530751597143747784
21095086 4 17844260527668751830
21130935 74 18200315412092008098
21150785 3 14201396101959149915
21197605 99 18342176636107925646
21267235 1 18412549811857408301
21585483 132 17533206476173372730
21682296 61 18409736175325757259
21792934 111 18201715181163506345
23522609 53 18050043005834738037
23524908 199 12468902192497471672
23559900 14 18411409609826242121
33532 11 18411139178006800495
3383291 50 18335139817049902995
4340502 62 14620524432345282093
465052 167 18343025518706669527
5104073 3 17988642948176669664
5718773 13 18410011057306245839
59682541 35 18272079531599604584
59682541 52 14129050405487941178
636775 8 18411429397114887758
6438161 24 18187079589784751459
77188 2 18411139177680383061

>  <PUBCHEM_SHAPE_MULTIPOLES>  (1) 
410.47
22.64
2.9
0.75
11.7
0.15
0.06
22.99
3.33
0.37
-0.15
-0.85
0.12
0.75

>  <PUBCHEM_SHAPE_SELFOVERLAP>  (1) 
812.816

>  <PUBCHEM_SHAPE_VOLUME>  (1) 
246.3

>  <PUBCHEM_COORDINATE_TYPE>  (1) 
2
5
10

$$$$
