46533
     RDKit          3D

 13 13  0  0  0  0  0  0  0  0999 V2000
    0.8375    0.2587   -0.7018 O   0  0  0  0  0  0  0  0  0  0  0  0
    4.0456    0.6637    0.8502 O   0  0  0  0  0  0  0  0  0  0  0  0
   -1.4819   -2.9661    0.2165 O   0  0  0  0  0  0  0  0  0  0  0  0
    3.2510   -0.9888   -0.5010 O   0  0  0  0  0  0  0  0  0  0  0  0
   -0.4657    0.4556   -0.3554 C   0  0  0  0  0  0  0  0  0  0  0  0
   -1.2924   -0.6211   -0.0344 C   0  0  0  0  0  0  0  0  0  0  0  0
   -0.9699    1.7558   -0.3239 C   0  0  0  0  0  0  0  0  0  0  0  0
   -2.6235   -0.3975    0.3180 C   0  0  0  0  0  0  0  0  0  0  0  0
   -2.3012    1.9794    0.0282 C   0  0  0  0  0  0  0  0  0  0  0  0
   -3.1281    0.9027    0.3490 C   0  0  0  0  0  0  0  0  0  0  0  0
    1.8261    0.8800    0.1167 C   0  0  0  0  0  0  0  0  0  0  0  0
   -0.7863   -1.9863   -0.0604 C   0  0  0  0  0  0  0  0  0  0  0  0
    3.0887    0.0637    0.0982 C   0  0  0  0  0  0  0  0  0  0  0  0
  1  5  1  0
  1 11  1  0
  2 13  1  0
  3 12  2  0
  4 13  2  0
  5  6  2  0
  5  7  1  0
  6  8  1  0
  6 12  1  0
  7  9  2  0
  8 10  2  0
  9 10  1  0
 11 13  1  0
M  END
>  <PUBCHEM_COMPOUND_CID>  (1) 
46533

>  <PUBCHEM_CONFORMER_RMSD>  (1) 
0.6

>  <PUBCHEM_CONFORMER_DIVERSEORDER>  (1) 
1
24
19
23
27
31
9
32
2
17
35
28
3
10
34
11
5
30
25
4
18
16
21
33
26
15
13
20
29
12
8
22
7
14
6

>  <PUBCHEM_MMFF94_PARTIAL_CHARGES>  (1) 
19
1 -0.36
10 -0.15
11 0.34
12 0.42
13 0.66
14 0.15
15 0.15
16 0.15
19 0.15
2 -0.65
20 0.06
21 0.5
3 -0.57
4 -0.57
5 0.08
6 0.09
7 -0.15
8 -0.15
9 -0.15

>  <PUBCHEM_EFFECTIVE_ROTOR_COUNT>  (1) 
4

>  <PUBCHEM_PHARMACOPHORE_FEATURES>  (1) 
6
1 1 acceptor
1 2 acceptor
1 3 acceptor
1 4 acceptor
3 2 4 13 anion
6 5 6 7 8 9 10 rings

>  <PUBCHEM_HEAVY_ATOM_COUNT>  (1) 
13

>  <PUBCHEM_ATOM_DEF_STEREO_COUNT>  (1) 
0

>  <PUBCHEM_ATOM_UDEF_STEREO_COUNT>  (1) 
0

>  <PUBCHEM_BOND_DEF_STEREO_COUNT>  (1) 
0

>  <PUBCHEM_BOND_UDEF_STEREO_COUNT>  (1) 
0

>  <PUBCHEM_ISOTOPIC_ATOM_COUNT>  (1) 
0

>  <PUBCHEM_COMPONENT_COUNT>  (1) 
1

>  <PUBCHEM_CACTVS_TAUTO_COUNT>  (1) 
1

>  <PUBCHEM_CONFORMER_ID>  (1) 
0000B5C500000001

>  <PUBCHEM_MMFF94_ENERGY>  (1) 
34.7221

>  <PUBCHEM_FEATURE_SELFOVERLAP>  (1) 
30.51

>  <PUBCHEM_SHAPE_FINGERPRINT>  (1) 
12251169 10 18409729594918985968
12382932 28 18340769338052826258
12500047 106 18411976949567951528
13024252 1 14418129608837715141
13380535 76 18342174436308482527
14144814 61 18408885109811676800
14325111 11 18339924814085485604
15669948 3 18335989778112809292
16945 1 18338245945866179357
17804303 29 18339932511083410222
193761 8 17833837444972746741
20361792 2 16515677871057456036
20510252 161 18271808986497562649
20528008 55 18342451551893413440
20645464 45 18201722833840094588
20871998 184 18199754798342209639
21501502 16 18194122043265042316
21650355 55 18337663238820713801
23402539 116 18270952540428339559
23552423 10 17540265662581347629
23559900 14 18343021065469167852
257057 1 17692524933300068311
2748010 2 18192164689471583239
305870 269 18120938308891423193
43471831 8 18261956220025462107
5706482 22 18410567354091276387
58807428 26 18265057938042610915
6333449 129 18411132537142932821
6338986 31 17694495245178431135
69090 78 18343015588621071951
7364860 26 17692254036922499871
75552 356 18410011073937241980
81228 2 18265327485763271323
9709674 26 18343585157346235758

>  <PUBCHEM_SHAPE_MULTIPOLES>  (1) 
244.06
5.59
2.32
0.72
5.6
1.5
-0.01
-1.16
-1.07
-1.61
-0.04
0.16
-0.06
0.3

>  <PUBCHEM_SHAPE_SELFOVERLAP>  (1) 
507.16

>  <PUBCHEM_SHAPE_VOLUME>  (1) 
138.2

>  <PUBCHEM_COORDINATE_TYPE>  (1) 
2
5
10

$$$$
