46538
     RDKit          3D

 10 10  0  0  1  0  0  0  0  0999 V2000
    0.6529   -0.0888   -0.1929 N   0  0  0  0  0  0  0  0  0  0  0  0
   -1.3480   -1.2700    0.2526 N   0  0  0  0  0  0  0  0  0  0  0  0
   -1.6478    0.1486   -0.0211 C   0  0  0  0  0  0  0  0  0  0  0  0
   -0.3345    0.8528    0.3308 C   0  0  0  0  0  0  0  0  0  0  0  0
    0.1143   -1.3982    0.1718 C   0  0  0  0  0  0  0  0  0  0  0  0
    1.9897    0.1444    0.3303 C   0  0  0  0  0  0  0  0  0  0  0  0
   -2.0339    0.3403   -1.4980 C   0  0  0  0  0  0  0  0  0  0  0  0
   -2.7929    0.6168    0.8773 C   0  0  0  0  0  0  0  0  0  0  0  0
    2.4548    1.5559   -0.0164 C   0  0  0  0  0  0  0  0  0  0  0  0
    2.9455   -0.9017   -0.2344 C   0  0  0  0  0  0  0  0  0  0  0  0
  1  4  1  0
  1  5  1  0
  1  6  1  0
  2  3  1  0
  2  5  1  0
  3  4  1  0
  3  7  1  0
  3  8  1  0
  6  9  1  0
  6 10  1  0
M  END
>  <PUBCHEM_COMPOUND_CID>  (1) 
46538

>  <PUBCHEM_CONFORMER_RMSD>  (1) 
0.4

>  <PUBCHEM_CONFORMER_DIVERSEORDER>  (1) 
1
5
7
6
9
11
8
4
10
2
3

>  <PUBCHEM_MMFF94_PARTIAL_CHARGES>  (1) 
7
1 -0.81
15 0.36
2 -0.9
3 0.27
4 0.27
5 0.54
6 0.27

>  <PUBCHEM_EFFECTIVE_ROTOR_COUNT>  (1) 
2

>  <PUBCHEM_PHARMACOPHORE_FEATURES>  (1) 
6
1 1 cation
1 2 cation
1 2 donor
3 3 7 8 hydrophobe
3 6 9 10 hydrophobe
5 1 2 3 4 5 rings

>  <PUBCHEM_HEAVY_ATOM_COUNT>  (1) 
10

>  <PUBCHEM_ATOM_DEF_STEREO_COUNT>  (1) 
0

>  <PUBCHEM_ATOM_UDEF_STEREO_COUNT>  (1) 
0

>  <PUBCHEM_BOND_DEF_STEREO_COUNT>  (1) 
0

>  <PUBCHEM_BOND_UDEF_STEREO_COUNT>  (1) 
0

>  <PUBCHEM_ISOTOPIC_ATOM_COUNT>  (1) 
0

>  <PUBCHEM_COMPONENT_COUNT>  (1) 
1

>  <PUBCHEM_CACTVS_TAUTO_COUNT>  (1) 
1

>  <PUBCHEM_CONFORMER_ID>  (1) 
0000B5CA00000001

>  <PUBCHEM_MMFF94_ENERGY>  (1) 
13.6744

>  <PUBCHEM_FEATURE_SELFOVERLAP>  (1) 
30.483

>  <PUBCHEM_SHAPE_FINGERPRINT>  (1) 
10857977 72 16805333205641390321
12932741 1 18040431092421422828
12932764 1 17676485047093664706
13380535 21 18263661712957350592
14325111 11 18411985775314236321
14390081 3 18201718521882976488
15310529 11 17417812889138912903
16945 1 18336820888496766802
17844478 74 17821740420174688289
19973954 147 18411421756140902480
20645464 45 18334852853051304456
20653085 51 18261380123108329173
20715346 28 17749387074525169060
21040471 1 18411701027725348938
23235685 24 18411420583345642977
23552423 10 18334858363552601242
2748010 2 18337392759213345382
29004967 10 16008746918121371184
3248919 1 18272080626098878680
369184 2 18410291432201265793
5084963 1 17603596204921718984
8030462 33 17917145099935581836

>  <PUBCHEM_SHAPE_MULTIPOLES>  (1) 
195.83
4.29
1.41
0.96
1.04
0.06
0.27
-0.63
0.01
0.58
-0.09
-0.68
-0.11
0.02

>  <PUBCHEM_SHAPE_SELFOVERLAP>  (1) 
378.537

>  <PUBCHEM_SHAPE_VOLUME>  (1) 
122

>  <PUBCHEM_COORDINATE_TYPE>  (1) 
2
5
10

$$$$
