46530
     RDKit          3D

 21 24  0  0  0  0  0  0  0  0999 V2000
   -4.8681   -1.8332   -0.0002 F   0  0  0  0  0  0  0  0  0  0  0  0
   -0.7555    1.8228    0.0001 N   0  0  0  0  0  0  0  0  0  0  0  0
    0.9158    0.0669   -0.0002 C   0  0  0  0  0  0  0  0  0  0  0  0
   -0.1468   -0.8619   -0.0004 C   0  0  0  0  0  0  0  0  0  0  0  0
   -1.4881   -0.4562   -0.0003 C   0  0  0  0  0  0  0  0  0  0  0  0
    2.3118   -0.2911   -0.0002 C   0  0  0  0  0  0  0  0  0  0  0  0
    0.5299    1.4219   -0.0001 C   0  0  0  0  0  0  0  0  0  0  0  0
   -1.7496    0.9190    0.0000 C   0  0  0  0  0  0  0  0  0  0  0  0
    3.2823    0.7396   -0.0001 C   0  0  0  0  0  0  0  0  0  0  0  0
    1.5143    2.3963    0.0000 C   0  0  0  0  0  0  0  0  0  0  0  0
   -2.5475   -1.3814   -0.0004 C   0  0  0  0  0  0  0  0  0  0  0  0
    0.0489   -2.3495    0.0010 C   0  0  0  0  0  0  0  0  0  0  0  0
    2.8688    2.0719    0.0000 C   0  0  0  0  0  0  0  0  0  0  0  0
   -3.0783    1.3367    0.0003 C   0  0  0  0  0  0  0  0  0  0  0  0
    2.7964   -1.6233   -0.0001 C   0  0  0  0  0  0  0  0  0  0  0  0
   -4.1335    0.4217    0.0002 C   0  0  0  0  0  0  0  0  0  0  0  0
   -3.8679   -0.9414   -0.0001 C   0  0  0  0  0  0  0  0  0  0  0  0
    4.6542    0.4332    0.0001 C   0  0  0  0  0  0  0  0  0  0  0  0
    4.1628   -1.9165    0.0000 C   0  0  0  0  0  0  0  0  0  0  0  0
    5.0921   -0.8875    0.0001 C   0  0  0  0  0  0  0  0  0  0  0  0
   -5.5419    0.9119    0.0002 C   0  0  0  0  0  0  0  0  0  0  0  0
  1 17  1  0
  2  7  2  0
  2  8  1  0
  3  4  2  0
  3  6  1  0
  3  7  1  0
  4  5  1  0
  4 12  1  0
  5  8  2  0
  5 11  1  0
  6  9  2  0
  6 15  1  0
  7 10  1  0
  8 14  1  0
  9 13  1  0
  9 18  1  0
 10 13  2  0
 11 17  2  0
 14 16  2  0
 15 19  2  0
 16 17  1  0
 16 21  1  0
 18 20  2  0
 19 20  1  0
M  END
>  <PUBCHEM_COMPOUND_CID>  (1) 
46530

>  <PUBCHEM_CONFORMER_RMSD>  (1) 
0.6

>  <PUBCHEM_CONFORMER_DIVERSEORDER>  (1) 
1

>  <PUBCHEM_MMFF94_PARTIAL_CHARGES>  (1) 
25
1 -0.19
10 -0.15
11 -0.15
12 0.14
13 -0.15
14 -0.15
15 -0.15
16 -0.14
17 0.19
18 -0.15
19 -0.15
2 -0.62
20 -0.15
21 0.14
22 0.15
23 0.15
27 0.15
28 0.15
29 0.15
30 0.15
31 0.15
32 0.15
4 -0.14
7 0.31
8 0.31

>  <PUBCHEM_EFFECTIVE_ROTOR_COUNT>  (1) 
0

>  <PUBCHEM_PHARMACOPHORE_FEATURES>  (1) 
5
1 2 acceptor
6 2 3 4 5 7 8 rings
6 3 6 7 9 10 13 rings
6 5 8 11 14 16 17 rings
6 6 9 15 18 19 20 rings

>  <PUBCHEM_HEAVY_ATOM_COUNT>  (1) 
21

>  <PUBCHEM_ATOM_DEF_STEREO_COUNT>  (1) 
0

>  <PUBCHEM_ATOM_UDEF_STEREO_COUNT>  (1) 
0

>  <PUBCHEM_BOND_DEF_STEREO_COUNT>  (1) 
0

>  <PUBCHEM_BOND_UDEF_STEREO_COUNT>  (1) 
0

>  <PUBCHEM_ISOTOPIC_ATOM_COUNT>  (1) 
0

>  <PUBCHEM_COMPONENT_COUNT>  (1) 
1

>  <PUBCHEM_CACTVS_TAUTO_COUNT>  (1) 
1

>  <PUBCHEM_CONFORMER_ID>  (1) 
0000B5C200000001

>  <PUBCHEM_MMFF94_ENERGY>  (1) 
94.0127

>  <PUBCHEM_FEATURE_SELFOVERLAP>  (1) 
25.454

>  <PUBCHEM_SHAPE_FINGERPRINT>  (1) 
10062212 137 18272365391131528863
10411042 1 18050568435565401222
10616163 171 18340770446028197383
10967382 1 18338797926330578276
11471102 20 18410291410984950620
11578080 2 16842747516065776946
11806522 49 18408886235135189332
12011746 2 18412268311712254782
12107183 9 17763466110423115915
12236239 1 17846777395356209813
12403259 226 18409442592019035893
12788726 201 17846233141237783688
12838862 33 18338497687253888984
13140716 1 18411987966043125489
13862211 1 18410569565894269922
14115302 16 17822303396061391854
14341114 176 18411143519574736361
14790565 3 18338524044819649897
14866123 147 17478618906080934122
15099037 51 18410573972403835855
15196674 1 18410856581177981541
15230672 131 13362580386448674571
15442244 35 18411702058480752064
15536298 74 18341893017398338168
15788980 27 18186523198198807865
17349148 13 17917712404859019989
17492 89 18338797939390397967
17804303 29 18411421713017117237
1813 80 17385441025124165572
18186145 218 17821720654708662383
19141452 34 18413670210349027151
19591789 44 18410009957267097363
200 152 18131067147482320457
20028762 73 18202278147616847775
20645477 70 18411419527100322774
21029758 11 18341611499282199992
21033648 29 17821996602326772853
21267235 1 18410864260537549122
21279426 13 18120933910713121701
21421861 104 17752763533063595506
221490 88 18335708298561614890
23402539 116 18342733018274863111
23558518 356 17827356893025925378
23559900 14 18412541037603524792
3004659 81 18259988141999305878
335352 9 18338798918784600157
34934 24 18340200886662958506
350125 39 18410014325248993341
3545911 37 18411138026037290540
3680242 22 18191024504129234450
3886686 26 16749840558068218290
4214541 1 18410856547150669477
5104073 3 18411420635207030713
59755656 215 18337391513556739951
6138700 20 18337392622122973738
633830 44 17458343078430792809
7364860 26 18341330106453290784
77779 3 18410293618286858853
9709674 26 18335705013027931307
9981440 41 17545596120680957496

>  <PUBCHEM_SHAPE_MULTIPOLES>  (1) 
419.92
10.42
2.45
0.61
3.82
0.06
0
-1.67
0
-0.7
0
-0.03
0
0

>  <PUBCHEM_SHAPE_SELFOVERLAP>  (1) 
963.048

>  <PUBCHEM_SHAPE_VOLUME>  (1) 
220.3

>  <PUBCHEM_COORDINATE_TYPE>  (1) 
2
5
10

$$$$
