46551
     RDKit          3D

 18 19  0  0  0  0  0  0  0  0999 V2000
    1.6391    2.3785    0.6117 O   0  0  0  0  0  0  0  0  0  0  0  0
    4.9445   -1.2084   -1.5472 O   0  0  0  0  0  0  0  0  0  0  0  0
   -0.4596    0.5249    0.8941 N   0  0  0  0  0  0  0  0  0  0  0  0
   -1.4943   -0.2988    1.1061 N   0  0  0  0  0  0  0  0  0  0  0  0
    4.7138   -1.1512   -0.3302 N   0  0  0  0  0  0  0  0  0  0  0  0
    0.8540    0.1116    0.5828 C   0  0  0  0  0  0  0  0  0  0  0  0
    1.8801    1.0469    0.4477 C   0  0  0  0  0  0  0  0  0  0  0  0
    1.1212   -1.2467    0.4123 C   0  0  0  0  0  0  0  0  0  0  0  0
   -2.7069   -0.2736    0.3982 C   0  0  0  0  0  0  0  0  0  0  0  0
    3.1737    0.6236    0.1420 C   0  0  0  0  0  0  0  0  0  0  0  0
    3.4409   -0.7348   -0.0286 C   0  0  0  0  0  0  0  0  0  0  0  0
    2.4147   -1.6699    0.1066 C   0  0  0  0  0  0  0  0  0  0  0  0
   -3.7476   -1.1366    0.7539 C   0  0  0  0  0  0  0  0  0  0  0  0
   -2.8812    0.6146   -0.6673 C   0  0  0  0  0  0  0  0  0  0  0  0
   -4.9517   -1.1119    0.0503 C   0  0  0  0  0  0  0  0  0  0  0  0
   -4.0854    0.6394   -1.3708 C   0  0  0  0  0  0  0  0  0  0  0  0
   -5.1206   -0.2239   -1.0119 C   0  0  0  0  0  0  0  0  0  0  0  0
    1.2653    3.1165   -0.5497 C   0  0  0  0  0  0  0  0  0  0  0  0
  1  7  1  0
  1 18  1  0
  2  5  2  0
  3  4  1  0
  3  6  1  0
  4  9  1  0
  5 11  1  0
  6  7  2  0
  6  8  1  0
  7 10  1  0
  8 12  2  0
  9 13  2  0
  9 14  1  0
 10 11  2  0
 11 12  1  0
 13 15  1  0
 14 16  2  0
 15 17  2  0
 16 17  1  0
M  END
>  <PUBCHEM_COMPOUND_CID>  (1) 
46551

>  <PUBCHEM_CONFORMER_RMSD>  (1) 
0.6

>  <PUBCHEM_CONFORMER_DIVERSEORDER>  (1) 
2
46
54
42
31
45
35
6
55
36
11
20
52
14
56
4
18
51
26
50
38
10
32
25
53
27
43
15
41
7
23
30
22
16
19
5
47
37
49
33
39
21
1
24
40
44
34
12
3
9
48
13
28
29
8
17

>  <PUBCHEM_MMFF94_PARTIAL_CHARGES>  (1) 
28
1 -0.36
10 -0.15
11 0.3
12 -0.15
13 -0.15
14 -0.15
15 -0.15
16 -0.15
17 -0.15
18 0.28
19 0.4
2 -0.16
20 0.15
21 0.4
22 0.15
23 0.15
24 0.15
25 0.15
26 0.15
27 0.15
28 0.15
3 -0.5
4 -0.5
5 -0.14
6 0.1
7 0.08
8 -0.15
9 0.1

>  <PUBCHEM_EFFECTIVE_ROTOR_COUNT>  (1) 
5

>  <PUBCHEM_PHARMACOPHORE_FEATURES>  (1) 
5
1 1 acceptor
1 3 donor
1 4 donor
6 6 7 8 10 11 12 rings
6 9 13 14 15 16 17 rings

>  <PUBCHEM_HEAVY_ATOM_COUNT>  (1) 
18

>  <PUBCHEM_ATOM_DEF_STEREO_COUNT>  (1) 
0

>  <PUBCHEM_ATOM_UDEF_STEREO_COUNT>  (1) 
0

>  <PUBCHEM_BOND_DEF_STEREO_COUNT>  (1) 
0

>  <PUBCHEM_BOND_UDEF_STEREO_COUNT>  (1) 
0

>  <PUBCHEM_ISOTOPIC_ATOM_COUNT>  (1) 
0

>  <PUBCHEM_COMPONENT_COUNT>  (1) 
1

>  <PUBCHEM_CACTVS_TAUTO_COUNT>  (1) 
4

>  <PUBCHEM_CONFORMER_ID>  (1) 
0000B5D700000002

>  <PUBCHEM_MMFF94_ENERGY>  (1) 
69.7071

>  <PUBCHEM_FEATURE_SELFOVERLAP>  (1) 
27.059

>  <PUBCHEM_SHAPE_FINGERPRINT>  (1) 
10366900 7 17821727243468244923
10498660 4 16733250280092040509
11089746 13 13695868155634851550
11471102 20 18411416241302440424
12236239 1 17203610398019479491
12916754 54 18339364179773369883
13134695 92 17988638627218211864
14350574 20 18335708260403002283
14576447 43 18343301436043665122
15188451 53 13398331492155050285
15848700 24 18413109433854746824
15961568 22 16879346929497010525
17041 50 18261107482599855737
17357779 13 18409724024230514692
1813 80 17775016652283297916
18186145 218 18260824912975943825
18222031 100 18202281369126428130
18915474 69 17703500108086676263
193927 3 17846510209482660966
19784866 240 17489587861876502375
200 152 18060698386172344779
20645477 70 18343021124617729562
20671657 53 18412830152999656624
20871999 31 18187650145829822332
21637258 2 16773514353120615350
221357 26 18335132077771380125
221490 88 18264495159540085419
22289505 5 18261099747469205485
22620623 9 17911818877017403940
22646028 1 17274820264091689851
23402539 116 18200318710616062570
23557571 272 17530970224272270403
23559900 14 18336539512573297017
2838139 119 15864652664354628398
2871803 45 18409727339807772746
29717793 49 17704072880550980709
3060560 45 18411412925751601358
312423 11 18130519608045962185
46194498 28 18188490288962462237
5281201 14 18334292102274346861
542803 24 14779263103490155003
5924683 9 9871166359918199765
6049 1 17823147868299500417
7471813 234 17704069607475191529
9709674 26 18116713109329269667
9971528 1 18272647961240653552

>  <PUBCHEM_SHAPE_MULTIPOLES>  (1) 
343.75
10.75
2.15
1.11
5.23
1.75
0.23
-4.1
4.01
-1.86
0.11
0.17
-0.03
1.17

>  <PUBCHEM_SHAPE_SELFOVERLAP>  (1) 
731.335

>  <PUBCHEM_SHAPE_VOLUME>  (1) 
191.1

>  <PUBCHEM_COORDINATE_TYPE>  (1) 
2
5
10

$$$$
