46558
     RDKit          3D

 17 17  0  0  0  0  0  0  0  0999 V2000
   -2.8035   -0.1908   -0.8532 O   0  0  0  0  0  0  0  0  0  0  0  0
   -2.7966    0.9405    1.1781 O   0  0  0  0  0  0  0  0  0  0  0  0
    3.9638    0.9422    0.0965 N   0  0  0  0  0  0  0  0  0  0  0  0
   -4.4174    1.3821   -0.4221 N   0  0  0  0  0  0  0  0  0  0  0  0
    2.6056    0.3864    0.4997 C   0  0  0  0  0  0  0  0  0  0  0  0
    2.0646   -0.5297   -0.5928 C   0  0  0  0  0  0  0  0  0  0  0  0
    4.4880    1.8506    1.1994 C   0  0  0  0  0  0  0  0  0  0  0  0
    4.9380   -0.2069   -0.1200 C   0  0  0  0  0  0  0  0  0  0  0  0
    3.8239    1.7386   -1.1928 C   0  0  0  0  0  0  0  0  0  0  0  0
    0.6891   -1.0753   -0.2980 C   0  0  0  0  0  0  0  0  0  0  0  0
   -0.4270   -0.3686   -0.7183 C   0  0  0  0  0  0  0  0  0  0  0  0
    0.5655   -2.2739    0.3873 C   0  0  0  0  0  0  0  0  0  0  0  0
   -1.6986   -0.8734   -0.4462 C   0  0  0  0  0  0  0  0  0  0  0  0
   -0.7059   -2.7787    0.6592 C   0  0  0  0  0  0  0  0  0  0  0  0
   -1.8380   -2.0785    0.2423 C   0  0  0  0  0  0  0  0  0  0  0  0
   -3.3016    0.7421    0.0769 C   0  0  0  0  0  0  0  0  0  0  0  0
   -5.1496    2.3934    0.3040 C   0  0  0  0  0  0  0  0  0  0  0  0
  1 13  1  0
  1 16  1  0
  2 16  2  0
  3  5  1  0
  3  7  1  0
  3  8  1  0
  3  9  1  0
  4 16  1  0
  4 17  1  0
  5  6  1  0
  6 10  1  0
 10 11  2  0
 10 12  1  0
 11 13  1  0
 12 14  2  0
 13 15  2  0
 14 15  1  0
M  CHG  1   3   1
M  END
>  <PUBCHEM_COMPOUND_CID>  (1) 
46558

>  <PUBCHEM_CONFORMER_RMSD>  (1) 
0.8

>  <PUBCHEM_CONFORMER_DIVERSEORDER>  (1) 
1
7
21
17
16
23
26
10
15
6
2
11
14
9
12
20
5
19
8
13
27
4
3
25
24
22
18

>  <PUBCHEM_MMFF94_PARTIAL_CHARGES>  (1) 
22
1 -0.23
10 -0.14
11 -0.15
12 -0.15
13 0.08
14 -0.15
15 -0.15
16 0.78
17 0.3
2 -0.57
3 -1.01
31 0.15
32 0.15
33 0.15
34 0.15
35 0.37
4 -0.73
5 0.5
6 0.14
7 0.5
8 0.5
9 0.5

>  <PUBCHEM_EFFECTIVE_ROTOR_COUNT>  (1) 
6

>  <PUBCHEM_PHARMACOPHORE_FEATURES>  (1) 
4
1 2 acceptor
1 3 cation
1 4 donor
6 10 11 12 13 14 15 rings

>  <PUBCHEM_HEAVY_ATOM_COUNT>  (1) 
17

>  <PUBCHEM_ATOM_DEF_STEREO_COUNT>  (1) 
0

>  <PUBCHEM_ATOM_UDEF_STEREO_COUNT>  (1) 
0

>  <PUBCHEM_BOND_DEF_STEREO_COUNT>  (1) 
0

>  <PUBCHEM_BOND_UDEF_STEREO_COUNT>  (1) 
0

>  <PUBCHEM_ISOTOPIC_ATOM_COUNT>  (1) 
0

>  <PUBCHEM_COMPONENT_COUNT>  (1) 
1

>  <PUBCHEM_CACTVS_TAUTO_COUNT>  (1) 
2

>  <PUBCHEM_CONFORMER_ID>  (1) 
0000B5DE00000001

>  <PUBCHEM_MMFF94_ENERGY>  (1) 
53.0108

>  <PUBCHEM_FEATURE_SELFOVERLAP>  (1) 
20.297

>  <PUBCHEM_SHAPE_FINGERPRINT>  (1) 
10042902 136 12036032177923730872
10498660 4 18202001023299004513
11405975 8 18335135440957567730
12173636 292 18266454498188365830
122479 349 18410856594247662326
12390115 104 18339096950786279491
12403259 327 15575012658045001777
12633257 1 17968646216396909204
12769317 202 18268979891703418729
12788726 201 17682400604425150578
13955234 65 17975137539942881099
14123255 52 18409448051196184473
14251764 38 18055342798067391872
14576447 43 10375864178277124124
15209294 21 18408039615223672095
15342168 16 18334017172769740901
15342816 4 10159702404306977168
15534591 1 18341609339103749119
1741750 31 18410293639857017698
17834072 32 18409171034105850972
18186145 218 18407757032646617662
19784866 34 18340483379256911017
20374829 77 9871750174405578317
20388580 30 10591745594025406419
204376 136 18334580127028574599
20510252 161 18194124242156578770
20621476 66 18409454695943543468
20645477 56 18200042848750404358
20645477 70 16773252776879958878
20671657 53 10447920672734936807
212916 134 18338503214333207584
21524375 3 18341892965552925014
22079108 93 18410578396721245611
22182937 141 18339929319648305329
23500284 214 18408605872307224939
23559900 14 18412267242687644574
27216 239 18187933931852340419
283562 15 18118959428628223651
2838139 119 18059568053727831785
351380 3 8286193955103305865
4028521 119 18131632283416132313
474 4 18408887300255462741
5104073 3 18041551559891033904
58807428 26 17967805042403819970
59124914 9 18340206271966716928
59755656 520 18408318874287804903
6328613 192 18336836368514151692
633830 44 18411978040146961790
7808743 9 18261962963176955396
90316 7 17313927740997398620

>  <PUBCHEM_SHAPE_MULTIPOLES>  (1) 
328.15
10.2
2.8
1.01
1.11
0.65
-0.04
-9.99
-0.72
-1.66
-0.6
0.45
-0.27
0.02

>  <PUBCHEM_SHAPE_SELFOVERLAP>  (1) 
657.041

>  <PUBCHEM_SHAPE_VOLUME>  (1) 
194.1

>  <PUBCHEM_COORDINATE_TYPE>  (1) 
2
5
10

$$$$
