46570
     RDKit          3D

 17 17  0  0  0  0  0  0  0  0999 V2000
   -2.7199   -0.8621   -0.4084 O   0  0  0  0  0  0  0  0  0  0  0  0
   -2.8666    1.2488    0.5554 O   0  0  0  0  0  0  0  0  0  0  0  0
    2.8475   -0.5883    0.0954 N   0  0  0  0  0  0  0  0  0  0  0  0
   -4.7767    0.1076   -0.1015 N   0  0  0  0  0  0  0  0  0  0  0  0
    3.4405    0.5862   -0.6801 C   0  0  0  0  0  0  0  0  0  0  0  0
    1.3249   -0.6629   -0.0424 C   0  0  0  0  0  0  0  0  0  0  0  0
    3.4537   -1.8760   -0.4548 C   0  0  0  0  0  0  0  0  0  0  0  0
    3.1988   -0.4094    1.5698 C   0  0  0  0  0  0  0  0  0  0  0  0
    0.6408   -1.1962    0.9980 C   0  0  0  0  0  0  0  0  0  0  0  0
    0.7894   -0.1894   -1.1932 C   0  0  0  0  0  0  0  0  0  0  0  0
    2.8983    1.9055   -0.2388 C   0  0  0  0  0  0  0  0  0  0  0  0
   -0.7468   -1.2642    0.8725 C   0  0  0  0  0  0  0  0  0  0  0  0
   -0.5982   -0.2574   -1.3187 C   0  0  0  0  0  0  0  0  0  0  0  0
   -1.3664   -0.7947   -0.2857 C   0  0  0  0  0  0  0  0  0  0  0  0
    3.6476    2.8850    0.2792 C   0  0  0  0  0  0  0  0  0  0  0  0
   -3.4163    0.2674    0.0641 C   0  0  0  0  0  0  0  0  0  0  0  0
   -5.7507    1.1001    0.2892 C   0  0  0  0  0  0  0  0  0  0  0  0
  1 14  1  0
  1 16  1  0
  2 16  2  0
  3  5  1  0
  3  6  1  0
  3  7  1  0
  3  8  1  0
  4 16  1  0
  4 17  1  0
  5 11  1  0
  6  9  2  0
  6 10  1  0
  9 12  1  0
 10 13  2  0
 11 15  2  0
 12 14  2  0
 13 14  1  0
M  CHG  1   3   1
M  END
>  <PUBCHEM_COMPOUND_CID>  (1) 
46570

>  <PUBCHEM_CONFORMER_RMSD>  (1) 
0.8

>  <PUBCHEM_CONFORMER_DIVERSEORDER>  (1) 
1
12
46
18
52
23
16
34
13
35
37
31
41
7
48
49
2
50
33
22
53
45
42
44
38
17
8
43
11
51
4
47
5
21
40
14
26
9
28
36
10
27
15
19
32
3
6
25
29
20
39
24
30

>  <PUBCHEM_MMFF94_PARTIAL_CHARGES>  (1) 
25
1 -0.23
10 -0.15
11 -0.29
12 -0.15
13 -0.15
14 0.08
15 -0.3
16 0.78
17 0.3
2 -0.57
26 0.15
27 0.15
28 0.15
29 0.15
3 -0.87
30 0.15
31 0.15
32 0.15
33 0.37
4 -0.73
5 0.64
6 0.36
7 0.5
8 0.5
9 -0.15

>  <PUBCHEM_EFFECTIVE_ROTOR_COUNT>  (1) 
6

>  <PUBCHEM_PHARMACOPHORE_FEATURES>  (1) 
5
1 15 hydrophobe
1 2 acceptor
1 3 cation
1 4 donor
6 6 9 10 12 13 14 rings

>  <PUBCHEM_HEAVY_ATOM_COUNT>  (1) 
17

>  <PUBCHEM_ATOM_DEF_STEREO_COUNT>  (1) 
0

>  <PUBCHEM_ATOM_UDEF_STEREO_COUNT>  (1) 
0

>  <PUBCHEM_BOND_DEF_STEREO_COUNT>  (1) 
0

>  <PUBCHEM_BOND_UDEF_STEREO_COUNT>  (1) 
0

>  <PUBCHEM_ISOTOPIC_ATOM_COUNT>  (1) 
0

>  <PUBCHEM_COMPONENT_COUNT>  (1) 
1

>  <PUBCHEM_CACTVS_TAUTO_COUNT>  (1) 
2

>  <PUBCHEM_CONFORMER_ID>  (1) 
0000B5EA00000001

>  <PUBCHEM_MMFF94_ENERGY>  (1) 
65.1907

>  <PUBCHEM_FEATURE_SELFOVERLAP>  (1) 
25.371

>  <PUBCHEM_SHAPE_FINGERPRINT>  (1) 
10366900 7 17531538568039756393
11089746 13 18188476991980876109
11132069 177 17167859802980180783
11543360 7 17988077914974107967
11769659 78 8358269128484022148
11796584 16 12107790692488871457
12403259 415 17822006480629857677
12616999 72 16486981699503308637
12633257 1 17242153864015130568
12670546 177 13901609879335896641
13533116 47 17531242795591684435
13675066 3 17822015302693000359
14115302 16 17060336318942998302
14178342 30 16951690388052270370
14289901 80 18271524307290723435
15342168 16 18042127724636236324
15342816 4 10809347719569336187
15375462 189 12324247195272079465
16945 1 18041827429413572878
17834072 33 18412822517144111319
18186145 218 18040711472118448974
19026448 5 18272644675474699039
193927 3 9222962507602806101
200 152 9007060153851649326
20645476 183 17632013169205251566
212847 35 18060419092769949601
21452121 103 18409161126027521912
21503847 285 18409732833155444144
21652331 79 18410012147990789613
22079108 93 18187087295372721083
22485316 2 8070020056745885243
22854114 59 17313105246085844383
23402539 116 17917701363136431639
23557571 272 15553305107003368830
23559900 14 18272091569655041174
2748010 2 16662024990381183566
3286 77 17604420787403682506
351380 180 18411700954827163721
4047638 21 18411140225092194602
4072396 5 14779533596377739243
4463277 69 9151185241695377313
465052 167 12251908079297819537
474 4 18188491405411534612
5104073 3 18186803599739624451
633830 44 18410570691233691527
7364860 26 18411419523295874902
7495541 125 17417804076441365715
76465 3 11095348277956620228
8272917 22 18343588417237001974

>  <PUBCHEM_SHAPE_MULTIPOLES>  (1) 
328.15
9.4
2.06
1.14
11.9
1.31
-0.07
4.56
-0.96
-2.5
-0.24
-0.54
-0.21
-0.16

>  <PUBCHEM_SHAPE_SELFOVERLAP>  (1) 
666.35

>  <PUBCHEM_SHAPE_VOLUME>  (1) 
191.3

>  <PUBCHEM_COORDINATE_TYPE>  (1) 
2
5
10

$$$$
