46595
     RDKit          3D

 21 21  0  0  0  0  0  0  0  0999 V2000
    0.3157    2.0006   -0.8446 O   0  0  0  0  0  0  0  0  0  0  0  0
   -0.4063    3.1760    1.0270 O   0  0  0  0  0  0  0  0  0  0  0  0
   -3.6604   -1.8112    0.1566 N   0  0  0  0  0  0  0  0  0  0  0  0
    1.3534    3.9615   -0.2646 N   0  0  0  0  0  0  0  0  0  0  0  0
   -2.6300   -0.8290   -0.0994 C   0  0  0  0  0  0  0  0  0  0  0  0
    0.9786   -0.2144    0.8322 C   0  0  0  0  0  0  0  0  0  0  0  0
   -0.3837   -0.0327    0.2135 C   0  0  0  0  0  0  0  0  0  0  0  0
    1.9095   -1.0201   -0.0765 C   0  0  0  0  0  0  0  0  0  0  0  0
   -1.3641   -0.9820    0.4663 C   0  0  0  0  0  0  0  0  0  0  0  0
    3.2999   -1.1678    0.5444 C   0  0  0  0  0  0  0  0  0  0  0  0
   -3.1441   -3.2649    0.3959 C   0  0  0  0  0  0  0  0  0  0  0  0
   -4.6529   -1.9272   -1.0350 C   0  0  0  0  0  0  0  0  0  0  0  0
   -4.4842   -1.4626    1.4289 C   0  0  0  0  0  0  0  0  0  0  0  0
   -2.9025    0.2713   -0.9121 C   0  0  0  0  0  0  0  0  0  0  0  0
    4.2214   -2.0014   -0.3472 C   0  0  0  0  0  0  0  0  0  0  0  0
   -0.6431    1.0660   -0.5933 C   0  0  0  0  0  0  0  0  0  0  0  0
   -1.9090    1.2188   -1.1591 C   0  0  0  0  0  0  0  0  0  0  0  0
    5.6003   -2.1775    0.2884 C   0  0  0  0  0  0  0  0  0  0  0  0
    6.5081   -3.0341   -0.5795 C   0  0  0  0  0  0  0  0  0  0  0  0
    0.3552    3.0699    0.0701 C   0  0  0  0  0  0  0  0  0  0  0  0
    1.6383    5.1609    0.4880 C   0  0  0  0  0  0  0  0  0  0  0  0
  1 16  1  0
  1 20  1  0
  2 20  2  0
  3  5  1  0
  3 11  1  0
  3 12  1  0
  3 13  1  0
  4 20  1  0
  4 21  1  0
  5  9  2  0
  5 14  1  0
  6  7  1  0
  6  8  1  0
  7  9  1  0
  7 16  2  0
  8 10  1  0
 10 15  1  0
 14 17  2  0
 15 18  1  0
 16 17  1  0
 18 19  1  0
M  CHG  1   3   1
M  END
>  <PUBCHEM_COMPOUND_CID>  (1) 
46595

>  <PUBCHEM_CONFORMER_RMSD>  (1) 
0.8

>  <PUBCHEM_CONFORMER_DIVERSEORDER>  (1) 
1
198
21
113
234
87
86
55
160
164
107
118
233
279
36
209
249
104
218
98
143
114
131
227
212
20
253
89
222
215
228
96
127
266
224
59
259
256
110
267
161
245
79
29
69
202
19
250
152
200
226
103
71
166
82
119
220
8
241
246
88
65
45
273
67
268
206
201
126
169
196
231
10
48
272
28
235
11
141
278
230
176
115
34
51
181
46
9
57
38
183
100
203
16
145
27
139
243
39
66
78
213
159
144
180
90
7
191
199
258
237
22
23
177
168
43
95
244
210
247
214
269
52
262
197
242
151
44
105
30
47
271
217
99
167
129
121
32
185
186
147
33
138
12
184
124
274
61
133
26
261
257
173
156
221
155
111
216
18
205
14
134
150
154
74
137
248
252
140
106
85
192
187
232
50
207
195
72
4
263
136
101
117
174
142
182
60
157
270
97
130
229
92
251
194
193
70
165
75
13
211
76
25
264
179
146
162
77
148
6
188
5
276
17
189
219
3
120
37
132
225
153
170
24
93
94
171
109
255
64
80
158
63
54
84
123
53
275
236
172
91
239
42
81
83
49
128
41
254
122
108
190
62
73
31
260
102
178
238
135
223
116
240
35
58
277
163
125
204
68
2
175
149
208
112
56
15
265
40

>  <PUBCHEM_MMFF94_PARTIAL_CHARGES>  (1) 
20
1 -0.23
11 0.5
12 0.5
13 0.5
14 -0.15
16 0.08
17 -0.15
2 -0.57
20 0.78
21 0.3
26 0.15
3 -0.87
4 -0.73
40 0.15
41 0.15
47 0.37
5 0.36
6 0.14
7 -0.14
9 -0.15

>  <PUBCHEM_EFFECTIVE_ROTOR_COUNT>  (1) 
9

>  <PUBCHEM_PHARMACOPHORE_FEATURES>  (1) 
6
1 19 hydrophobe
1 2 acceptor
1 3 cation
1 4 donor
5 6 8 10 15 18 hydrophobe
6 5 7 9 14 16 17 rings

>  <PUBCHEM_HEAVY_ATOM_COUNT>  (1) 
21

>  <PUBCHEM_ATOM_DEF_STEREO_COUNT>  (1) 
0

>  <PUBCHEM_ATOM_UDEF_STEREO_COUNT>  (1) 
0

>  <PUBCHEM_BOND_DEF_STEREO_COUNT>  (1) 
0

>  <PUBCHEM_BOND_UDEF_STEREO_COUNT>  (1) 
0

>  <PUBCHEM_ISOTOPIC_ATOM_COUNT>  (1) 
0

>  <PUBCHEM_COMPONENT_COUNT>  (1) 
1

>  <PUBCHEM_CACTVS_TAUTO_COUNT>  (1) 
2

>  <PUBCHEM_CONFORMER_ID>  (1) 
0000B60300000001

>  <PUBCHEM_MMFF94_ENERGY>  (1) 
59.8839

>  <PUBCHEM_FEATURE_SELFOVERLAP>  (1) 
30.446

>  <PUBCHEM_SHAPE_FINGERPRINT>  (1) 
10411042 1 18410855455970812270
10937287 8 16897360916238166172
1100329 8 18338518517587390041
11036077 51 17472974004757366570
11045515 52 18260268516979339084
11056379 131 18122913027960418446
12293681 160 17688281526949709925
12553582 1 18261384546956896883
12839892 36 17401190669850216962
13533116 47 18125157397723528003
13540713 4 17969773263355217631
14508225 48 18340195315420521372
14713325 29 18053948342787784370
14739800 52 17558559251546035105
1813 80 18202294601430070094
19784866 34 8286208266161215655
20101258 96 18339367349163867864
20600515 1 18129112121076787317
20603629 256 18121513598523256819
21120745 212 18268724822549562852
21304253 13 18340493266287678321
21304303 172 18200595779104267449
21307412 95 18410004447442106207
21426921 1 18122627154958016130
21796203 349 18049196442137077914
22849341 161 18267327415999793371
2297311 6 18337959978691754894
23402539 116 18187646843411922126
23419403 2 17971163023702281749
23557571 272 18267584615821561006
23559900 14 18337942502158279267
238078 22 18334857160903749066
458136 41 17832433368429001985
5486654 36 18334869307366629307
59554788 248 17470970007187231320
7364860 26 18194399128837638137
77188 2 18411700997787672012
81228 2 18054780689821708145

>  <PUBCHEM_SHAPE_MULTIPOLES>  (1) 
410.47
10.36
5.69
1.06
13.87
9.05
0.03
-16.49
-0.82
3.38
0.69
-0.75
-0.04
0.99

>  <PUBCHEM_SHAPE_SELFOVERLAP>  (1) 
813.682

>  <PUBCHEM_SHAPE_VOLUME>  (1) 
245.5

>  <PUBCHEM_COORDINATE_TYPE>  (1) 
2
5
10

$$$$
