46591
     RDKit          3D

 15 15  0  0  0  0  0  0  0  0999 V2000
   -0.1973    0.1088    0.2023 O   0  0  0  0  0  0  0  0  0  0  0  0
    0.5953   -2.0135   -0.1001 O   0  0  0  0  0  0  0  0  0  0  0  0
   -3.8914    0.2578   -0.0761 N   0  0  0  0  0  0  0  0  0  0  0  0
    2.0699   -0.2732    0.3468 N   0  0  0  0  0  0  0  0  0  0  0  0
   -2.5109    0.7734    0.1048 C   0  0  0  0  0  0  0  0  0  0  0  0
    4.6242    0.9154   -0.2869 C   0  0  0  0  0  0  0  0  0  0  0  0
    4.3145   -0.5406   -0.6320 C   0  0  0  0  0  0  0  0  0  0  0  0
    3.3452    1.7508   -0.2489 C   0  0  0  0  0  0  0  0  0  0  0  0
    3.2624   -1.1198    0.3093 C   0  0  0  0  0  0  0  0  0  0  0  0
    2.3067    1.1343    0.6851 C   0  0  0  0  0  0  0  0  0  0  0  0
   -1.5288   -0.3759   -0.0075 C   0  0  0  0  0  0  0  0  0  0  0  0
   -4.2155   -0.8117    0.9759 C   0  0  0  0  0  0  0  0  0  0  0  0
   -4.9179    1.3902    0.0622 C   0  0  0  0  0  0  0  0  0  0  0  0
   -4.0598   -0.3724   -1.4652 C   0  0  0  0  0  0  0  0  0  0  0  0
    0.8034   -0.8236    0.1302 C   0  0  0  0  0  0  0  0  0  0  0  0
  1 11  1  0
  1 15  1  0
  2 15  2  0
  3  5  1  0
  3 12  1  0
  3 13  1  0
  3 14  1  0
  4  9  1  0
  4 10  1  0
  4 15  1  0
  5 11  1  0
  6  7  1  0
  6  8  1  0
  7  9  1  0
  8 10  1  0
M  CHG  1   3   1
M  END
>  <PUBCHEM_COMPOUND_CID>  (1) 
46591

>  <PUBCHEM_CONFORMER_RMSD>  (1) 
0.8

>  <PUBCHEM_CONFORMER_DIVERSEORDER>  (1) 
1
11
8
19
20
6
16
18
7
14
15
12
3
17
2
4
9
13
5
10

>  <PUBCHEM_MMFF94_PARTIAL_CHARGES>  (1) 
12
1 -0.43
10 0.3
11 0.28
12 0.5
13 0.5
14 0.5
15 0.78
2 -0.57
3 -1.01
4 -0.66
5 0.5
9 0.3

>  <PUBCHEM_EFFECTIVE_ROTOR_COUNT>  (1) 
6.2

>  <PUBCHEM_PHARMACOPHORE_FEATURES>  (1) 
3
1 2 acceptor
1 3 cation
6 4 6 7 8 9 10 rings

>  <PUBCHEM_HEAVY_ATOM_COUNT>  (1) 
15

>  <PUBCHEM_ATOM_DEF_STEREO_COUNT>  (1) 
0

>  <PUBCHEM_ATOM_UDEF_STEREO_COUNT>  (1) 
0

>  <PUBCHEM_BOND_DEF_STEREO_COUNT>  (1) 
0

>  <PUBCHEM_BOND_UDEF_STEREO_COUNT>  (1) 
0

>  <PUBCHEM_ISOTOPIC_ATOM_COUNT>  (1) 
0

>  <PUBCHEM_COMPONENT_COUNT>  (1) 
1

>  <PUBCHEM_CACTVS_TAUTO_COUNT>  (1) 
1

>  <PUBCHEM_CONFORMER_ID>  (1) 
0000B5FF00000001

>  <PUBCHEM_MMFF94_ENERGY>  (1) 
31.6171

>  <PUBCHEM_FEATURE_SELFOVERLAP>  (1) 
15.223

>  <PUBCHEM_SHAPE_FINGERPRINT>  (1) 
10014705 185 18114455683482947013
10680689 15 17989487429210004859
11471102 20 18411138035302276456
11615757 297 18060422421543651489
12596602 18 12829495839345982053
13081056 2 18407761438718716588
14252887 29 11025790973286174280
14415576 193 18411138004620450429
14528608 73 18412820304998505565
17834072 33 18201995547626691111
18186145 218 18040431083857855513
200 152 18131346402187753513
20432913 95 10087641515607049357
20645477 70 18410577254075802698
212847 35 18410572868908581104
231179 274 17822004316018977020
23402539 116 18060696191217339500
23402655 69 18272932713092631996
23557571 272 17095526154472557671
23559900 14 17313105216126932410
3060560 45 18272091578645603894
4047638 21 18335704953541596914
449060 62 18334575737355739760
4990 188 17847066588204360020
5104073 3 18334013882724442449
522135 26 18410855443491637562
542803 24 18113338596289618437
633830 44 18410008823479971583
77779 3 18409169913266573147

>  <PUBCHEM_SHAPE_MULTIPOLES>  (1) 
286.99
11.34
1.59
0.91
4.55
0.06
0.16
2.59
1.22
-0.68
-0.04
0.64
-0.08
0.01

>  <PUBCHEM_SHAPE_SELFOVERLAP>  (1) 
550.738

>  <PUBCHEM_SHAPE_VOLUME>  (1) 
175.7

>  <PUBCHEM_COORDINATE_TYPE>  (1) 
2
5
10

$$$$
