46604
     RDKit          3D

 17 17  0  0  0  0  0  0  0  0999 V2000
    1.3012    0.4192    0.7847 O   0  0  0  0  0  0  0  0  0  0  0  0
    2.0257    1.5481   -1.1145 O   0  0  0  0  0  0  0  0  0  0  0  0
   -0.4318   -2.5437    0.0451 N   0  0  0  0  0  0  0  0  0  0  0  0
    3.5404    0.5016    0.2972 N   0  0  0  0  0  0  0  0  0  0  0  0
   -0.1938   -1.3578   -0.8786 C   0  0  0  0  0  0  0  0  0  0  0  0
   -1.9279   -2.7413    0.2418 C   0  0  0  0  0  0  0  0  0  0  0  0
    0.1684   -3.7975   -0.5745 C   0  0  0  0  0  0  0  0  0  0  0  0
    0.2261   -2.2783    1.3915 C   0  0  0  0  0  0  0  0  0  0  0  0
   -0.7555   -0.0737   -0.3435 C   0  0  0  0  0  0  0  0  0  0  0  0
    0.0207    0.7540    0.4615 C   0  0  0  0  0  0  0  0  0  0  0  0
   -2.0628    0.2776   -0.6653 C   0  0  0  0  0  0  0  0  0  0  0  0
   -2.5992    1.4690   -0.1770 C   0  0  0  0  0  0  0  0  0  0  0  0
   -0.5159    1.9455    0.9496 C   0  0  0  0  0  0  0  0  0  0  0  0
   -1.8258    2.3028    0.6305 C   0  0  0  0  0  0  0  0  0  0  0  0
   -3.9997    1.8522   -0.5174 C   0  0  0  0  0  0  0  0  0  0  0  0
    2.2805    0.8883   -0.1112 C   0  0  0  0  0  0  0  0  0  0  0  0
    4.7493    0.8341   -0.4199 C   0  0  0  0  0  0  0  0  0  0  0  0
  1 10  1  0
  1 16  1  0
  2 16  2  0
  3  5  1  0
  3  6  1  0
  3  7  1  0
  3  8  1  0
  4 16  1  0
  4 17  1  0
  5  9  1  0
  9 10  2  0
  9 11  1  0
 10 13  1  0
 11 12  2  0
 12 14  1  0
 12 15  1  0
 13 14  2  0
M  CHG  1   3   1
M  END
>  <PUBCHEM_COMPOUND_CID>  (1) 
46604

>  <PUBCHEM_CONFORMER_RMSD>  (1) 
0.6

>  <PUBCHEM_CONFORMER_DIVERSEORDER>  (1) 
1
19
17
15
21
20
16
2
18
8
12
5
7
10
14
13
9
4
6
11
3

>  <PUBCHEM_MMFF94_PARTIAL_CHARGES>  (1) 
21
1 -0.23
10 0.08
11 -0.15
12 -0.14
13 -0.15
14 -0.15
15 0.14
16 0.78
17 0.3
2 -0.57
29 0.15
3 -1.01
30 0.15
31 0.15
35 0.37
4 -0.73
5 0.65
6 0.5
7 0.5
8 0.5
9 -0.14

>  <PUBCHEM_EFFECTIVE_ROTOR_COUNT>  (1) 
5

>  <PUBCHEM_PHARMACOPHORE_FEATURES>  (1) 
4
1 2 acceptor
1 3 cation
1 4 donor
6 9 10 11 12 13 14 rings

>  <PUBCHEM_HEAVY_ATOM_COUNT>  (1) 
17

>  <PUBCHEM_ATOM_DEF_STEREO_COUNT>  (1) 
0

>  <PUBCHEM_ATOM_UDEF_STEREO_COUNT>  (1) 
0

>  <PUBCHEM_BOND_DEF_STEREO_COUNT>  (1) 
0

>  <PUBCHEM_BOND_UDEF_STEREO_COUNT>  (1) 
0

>  <PUBCHEM_ISOTOPIC_ATOM_COUNT>  (1) 
0

>  <PUBCHEM_COMPONENT_COUNT>  (1) 
1

>  <PUBCHEM_CACTVS_TAUTO_COUNT>  (1) 
2

>  <PUBCHEM_CONFORMER_ID>  (1) 
0000B60C00000001

>  <PUBCHEM_MMFF94_ENERGY>  (1) 
55.3201

>  <PUBCHEM_FEATURE_SELFOVERLAP>  (1) 
20.297

>  <PUBCHEM_SHAPE_FINGERPRINT>  (1) 
10922049 32 18335989692034206049
12500047 106 18411976997060687020
12553582 1 17547012287530980350
12592029 89 18115869602983945536
12644460 14 17765169271563303097
12716301 132 18268414901529074003
12788726 201 18046346598423790858
15906896 17 18188216527478015634
16752209 62 18265884929342045115
16945 1 18124022696636800815
19591789 44 18339922735785388595
20510252 161 18270121356391770576
20645476 183 18334292084704185020
20645477 70 17976248051145276125
20871999 31 18268425905198694092
21501502 16 17696184812688759793
21524375 3 18334013865265341724
23366157 5 17758123600624758793
23388829 49 17622698952766087281
23402539 116 18272642454955683420
23419403 2 17124291573025075111
23526113 38 17632301134019639224
23552423 10 17836926703253339985
23557571 272 18055081119053702268
23728640 28 18340479050046285202
25147074 1 17484794914904089209
2748010 2 18340221720879658359
298252 57 18260548905192271384
305870 269 18193559960736778804
3071541 37 18195241118695653045
3250762 1 17767110278515833969
3759504 43 18334574646360291093
43471831 8 18268144266844096099
528862 383 18119521034071258017
559249 180 18334855014137486882
576247 118 17326342519680395586
6138700 20 17908147582139058790
7364860 26 17908983210342385909
81228 2 17903348548236527257
81539 233 18190457160582478933
8272917 22 18049157770609941461
9709674 26 18202006551522749262

>  <PUBCHEM_SHAPE_MULTIPOLES>  (1) 
328.15
5.39
3.89
1.04
3.88
4.56
-0.12
-4.99
1.2
-0.86
-0.15
0.05
0.1
-0.2

>  <PUBCHEM_SHAPE_SELFOVERLAP>  (1) 
663.823

>  <PUBCHEM_SHAPE_VOLUME>  (1) 
193

>  <PUBCHEM_COORDINATE_TYPE>  (1) 
2
5
10

$$$$
