4660
     RDKit          3D

 21 21  0  0  1  0  0  0  0  0999 V2000
   -3.8421    1.1127    0.7182 P   0  0  0  0  0  0  0  0  0  0  0  0
   -3.9678   -1.6224   -0.3574 P   0  0  0  0  0  0  0  0  0  0  0  0
   -2.2586    1.2718    0.4254 O   0  0  0  0  0  0  0  0  0  0  0  0
   -4.3283   -0.0483   -0.2963 O   0  0  0  0  0  0  0  0  0  0  0  0
   -4.5040    2.4509    0.0947 O   0  0  0  0  0  0  0  0  0  0  0  0
   -4.1934    0.8604    2.1558 O   0  0  0  0  0  0  0  0  0  0  0  0
   -4.9424   -2.1768   -1.5214 O   0  0  0  0  0  0  0  0  0  0  0  0
   -4.6254   -2.2088    0.9976 O   0  0  0  0  0  0  0  0  0  0  0  0
   -2.5104   -1.9239   -0.5458 O   0  0  0  0  0  0  0  0  0  0  0  0
    6.6098    0.5356   -0.0835 O   0  0  0  0  0  0  0  0  0  0  0  0
    6.2341   -1.4751    0.7133 O   0  0  0  0  0  0  0  0  0  0  0  0
    0.2945    0.4058   -0.3741 N   0  0  0  0  0  0  0  0  0  0  0  0
    5.8237   -0.3845    0.2480 N   0  0  0  0  0  0  0  0  0  0  0  0
   -0.2875    1.6209   -0.8949 C   0  0  0  0  0  0  0  0  0  0  0  0
   -1.8029    1.5130   -0.8946 C   0  0  0  0  0  0  0  0  0  0  0  0
    1.6576    0.2102   -0.2224 C   0  0  0  0  0  0  0  0  0  0  0  0
    2.5757    1.2157   -0.5785 C   0  0  0  0  0  0  0  0  0  0  0  0
    2.1605   -0.9982    0.2951 C   0  0  0  0  0  0  0  0  0  0  0  0
    4.4264   -0.1850    0.0923 C   0  0  0  0  0  0  0  0  0  0  0  0
    3.9479    1.0198   -0.4226 C   0  0  0  0  0  0  0  0  0  0  0  0
    3.5327   -1.1940    0.4511 C   0  0  0  0  0  0  0  0  0  0  0  0
  1  3  1  0
  1  4  1  0
  1  5  1  0
  1  6  2  0
  2  4  1  0
  2  7  1  0
  2  8  1  0
  2  9  2  0
  3 15  1  0
 10 13  1  0
 11 13  2  0
 12 14  1  0
 12 16  1  0
 13 19  1  0
 14 15  1  0
 16 17  2  0
 16 18  1  0
 17 20  1  0
 18 21  2  0
 19 20  2  0
 19 21  1  0
M  CHG  2  10  -1  13   1
M  END
>  <PUBCHEM_COMPOUND_CID>  (1) 
4660

>  <PUBCHEM_CONFORMER_RMSD>  (1) 
0.8

>  <PUBCHEM_CONFORMER_DIVERSEORDER>  (1) 
1
65
14
22
24
72
46
54
20
60
40
80
81
11
9
41
17
88
58
43
2
23
4
78
32
77
21
26
57
87
56
64
35
45
3
71
63
30
47
84
5
55
8
27
6
37
69
48
38
67
59
34
19
82
91
31
90
10
42
51
75
61
44
83
79
86
12
70
25
13
18
7
73
50
36
85
28
52
74
76
39
68
29
49
16
33
15
92
53
62
89
66

>  <PUBCHEM_MMFF94_PARTIAL_CHARGES>  (1) 
29
1 1.51
10 -0.52
11 -0.52
12 -0.87
13 0.91
14 0.37
15 0.28
16 0.1
17 -0.15
18 -0.15
19 0.13
2 1.51
20 -0.15
21 -0.15
26 0.4
27 0.15
28 0.15
29 0.15
3 -0.55
30 0.15
31 0.5
32 0.5
33 0.5
4 -0.54
5 -0.77
6 -0.7
7 -0.77
8 -0.77
9 -0.7

>  <PUBCHEM_EFFECTIVE_ROTOR_COUNT>  (1) 
8

>  <PUBCHEM_PHARMACOPHORE_FEATURES>  (1) 
12
1 10 acceptor
1 10 anion
1 11 acceptor
1 12 cation
1 12 donor
1 5 acceptor
1 6 acceptor
1 7 acceptor
1 8 acceptor
1 9 acceptor
4 2 7 8 9 anion
6 16 17 18 19 20 21 rings

>  <PUBCHEM_HEAVY_ATOM_COUNT>  (1) 
21

>  <PUBCHEM_ATOM_DEF_STEREO_COUNT>  (1) 
0

>  <PUBCHEM_ATOM_UDEF_STEREO_COUNT>  (1) 
0

>  <PUBCHEM_BOND_DEF_STEREO_COUNT>  (1) 
0

>  <PUBCHEM_BOND_UDEF_STEREO_COUNT>  (1) 
0

>  <PUBCHEM_ISOTOPIC_ATOM_COUNT>  (1) 
0

>  <PUBCHEM_COMPONENT_COUNT>  (1) 
1

>  <PUBCHEM_CACTVS_TAUTO_COUNT>  (1) 
1

>  <PUBCHEM_CONFORMER_ID>  (1) 
0000123400000001

>  <PUBCHEM_MMFF94_ENERGY>  (1) 
0.8816

>  <PUBCHEM_FEATURE_SELFOVERLAP>  (1) 
61.027

>  <PUBCHEM_SHAPE_FINGERPRINT>  (1) 
10803635 8 13984663658993043904
11045977 3 17988916782116436088
11315181 36 18202843270907349633
11552529 35 17917988408416894631
12596602 18 18060135449357156624
12616971 3 17822303378549440764
12633257 1 18059584576720110673
13167823 11 18408041818573445868
13583140 156 17346590850987123049
14251732 16 18340766048567079616
15415430 10 18408322215782449229
15880784 105 18413389856153254024
17780758 139 18343867714717787649
17834072 33 18408605872824248164
17857418 61 18335134297905221750
18927931 339 17603595097047055513
200 152 18187080663320840604
21236236 1 18411980269129408374
21315759 148 17203337710377058110
21673915 165 18408603647598775982
21709351 56 17749106669201290844
23402539 116 17894631439647184984
23559900 14 18270104851344700609
23622692 118 18341607179077824461
4214541 1 18410855447475660901
5104073 3 18341612641954575792
559249 180 18408038495002040405
5924683 9 18343580759505017565
6431902 208 18187930611637288579
7062679 117 18408886247861842294
7495541 125 18131064965982144088

>  <PUBCHEM_SHAPE_MULTIPOLES>  (1) 
377.08
15.16
2.32
1.11
10.98
0.43
-0.24
4.35
-2.22
-3.25
0.24
-1.54
0.03
-1.62

>  <PUBCHEM_SHAPE_SELFOVERLAP>  (1) 
738.561

>  <PUBCHEM_SHAPE_VOLUME>  (1) 
227.3

>  <PUBCHEM_COORDINATE_TYPE>  (1) 
2
5
10

$$$$
