46606
     RDKit          3D

 18 18  0  0  1  0  0  0  0  0999 V2000
    2.9956    0.3160    0.8209 O   0  0  0  0  0  0  0  0  0  0  0  0
    2.9424   -0.9258   -1.1441 O   0  0  0  0  0  0  0  0  0  0  0  0
   -3.9520   -0.6421   -0.1131 N   0  0  0  0  0  0  0  0  0  0  0  0
    4.6508   -1.2158    0.3984 N   0  0  0  0  0  0  0  0  0  0  0  0
   -2.4405   -0.5455   -0.2621 C   0  0  0  0  0  0  0  0  0  0  0  0
   -1.8888    0.4530    0.7629 C   0  0  0  0  0  0  0  0  0  0  0  0
   -4.2928   -1.1532    1.2794 C   0  0  0  0  0  0  0  0  0  0  0  0
   -4.5702    0.7340   -0.3137 C   0  0  0  0  0  0  0  0  0  0  0  0
   -4.5043   -1.6035   -1.1555 C   0  0  0  0  0  0  0  0  0  0  0  0
   -1.8615   -1.9389   -0.0547 C   0  0  0  0  0  0  0  0  0  0  0  0
   -0.5498    1.0355    0.3794 C   0  0  0  0  0  0  0  0  0  0  0  0
    0.6103    0.3955    0.7853 C   0  0  0  0  0  0  0  0  0  0  0  0
   -0.5057    2.1991   -0.3720 C   0  0  0  0  0  0  0  0  0  0  0  0
    1.8475    0.9334    0.4303 C   0  0  0  0  0  0  0  0  0  0  0  0
    0.7313    2.7369   -0.7269 C   0  0  0  0  0  0  0  0  0  0  0  0
    1.9078    2.1040   -0.3259 C   0  0  0  0  0  0  0  0  0  0  0  0
    3.4894   -0.6462   -0.0814 C   0  0  0  0  0  0  0  0  0  0  0  0
    5.3904   -2.2364   -0.3071 C   0  0  0  0  0  0  0  0  0  0  0  0
  1 14  1  0
  1 17  1  0
  2 17  2  0
  3  5  1  0
  3  7  1  0
  3  8  1  0
  3  9  1  0
  4 17  1  0
  4 18  1  0
  5  6  1  0
  5 10  1  0
  6 11  1  0
 11 12  2  0
 11 13  1  0
 12 14  1  0
 13 15  2  0
 14 16  2  0
 15 16  1  0
M  CHG  1   3   1
M  END
>  <PUBCHEM_COMPOUND_CID>  (1) 
46606

>  <PUBCHEM_CONFORMER_RMSD>  (1) 
0.8

>  <PUBCHEM_CONFORMER_DIVERSEORDER>  (1) 
2
85
15
120
84
42
77
117
60
118
89
101
119
79
24
68
54
90
86
37
49
92
80
91
27
29
123
53
111
115
36
113
108
55
31
19
83
63
97
5
20
114
34
10
30
52
66
121
26
75
41
48
62
22
17
56
95
14
50
43
32
7
47
110
112
33
76
71
104
16
109
38
39
100
73
59
58
40
122
3
70
57
72
51
21
116
4
13
1
35
106
65
45
28
102
105
44
9
74
88
11
82
78
99
23
94
93
25
6
61
64
46
69
67
107
81
103
12
96
98
8
18
87

>  <PUBCHEM_MMFF94_PARTIAL_CHARGES>  (1) 
22
1 -0.23
11 -0.14
12 -0.15
13 -0.15
14 0.08
15 -0.15
16 -0.15
17 0.78
18 0.3
2 -0.57
3 -1.01
34 0.15
35 0.15
36 0.15
37 0.15
38 0.37
4 -0.73
5 0.5
6 0.14
7 0.5
8 0.5
9 0.5

>  <PUBCHEM_EFFECTIVE_ROTOR_COUNT>  (1) 
6

>  <PUBCHEM_PHARMACOPHORE_FEATURES>  (1) 
4
1 2 acceptor
1 3 cation
1 4 donor
6 11 12 13 14 15 16 rings

>  <PUBCHEM_HEAVY_ATOM_COUNT>  (1) 
18

>  <PUBCHEM_ATOM_DEF_STEREO_COUNT>  (1) 
0

>  <PUBCHEM_ATOM_UDEF_STEREO_COUNT>  (1) 
1

>  <PUBCHEM_BOND_DEF_STEREO_COUNT>  (1) 
0

>  <PUBCHEM_BOND_UDEF_STEREO_COUNT>  (1) 
0

>  <PUBCHEM_ISOTOPIC_ATOM_COUNT>  (1) 
0

>  <PUBCHEM_COMPONENT_COUNT>  (1) 
1

>  <PUBCHEM_CACTVS_TAUTO_COUNT>  (1) 
2

>  <PUBCHEM_CONFORMER_ID>  (1) 
0000B60E00000002

>  <PUBCHEM_MMFF94_ENERGY>  (1) 
64.9418

>  <PUBCHEM_FEATURE_SELFOVERLAP>  (1) 
20.297

>  <PUBCHEM_SHAPE_FINGERPRINT>  (1) 
10062212 137 17988922319041352559
11543360 7 14490475322039939521
116883 192 18410575058914972053
12363563 72 18335428954215730570
12403259 118 13830127286913844323
12553582 1 18337409166093924162
12633257 1 16056879160455604347
12892183 10 14908187408656746770
13296908 3 18041840743980703433
13533116 47 18127124393686093211
13583140 156 15338546142382292683
13675066 3 18341891948199401657
14178000 29 18410009944561407260
14251752 14 17604705547698032708
14251764 30 17894642460802519803
14252887 29 18337950198808317352
15052358 14 18189041011439436605
15352361 1 18411699859689825950
15442244 35 18410575119471710441
15848700 24 18409158926803624336
17492 89 18194681699232099527
17539 30 18118113685000421428
17834072 8 18334569119275418997
1813 80 18339376200806634740
18186145 218 17313376877166538569
19141452 34 18199753548480248633
193927 3 18341624706296033706
20281475 54 18200595920737610545
20374829 77 18410289177438556266
20388580 30 18335985349943823076
20403669 9 18342178804733626518
20621476 91 18266719339389735786
20645477 70 18189889997381918267
20671657 53 18335425681118640341
20871998 22 18409727378805726992
20871999 31 18041280967823523420
21728266 224 17897996942483558098
221490 88 18044102473252355531
22854114 59 11240006667546454409
23402539 116 18339636754950245046
23557571 272 18268993077579590868
23559900 14 18130496513632414832
2871803 45 18334573504315819242
2916195 48 7853560310603063454
3004659 81 18113618959165432430
328317 168 9151169839926640923
3286 77 17561077021029205458
335352 9 18410010992923837349
4325135 7 18410014330651158612
4463277 69 18202846543503423148
5104073 3 18129950082587074123
5207 123 18412540994511121941
5281201 14 17968095395346735781
633830 44 17822002164530499041
7364860 26 18196935693584097624
76465 3 18336823083831807610
7808743 9 9871163052613936142
7970288 3 18410008827865525490
9709674 26 18191585465882023387
9971528 1 18339070583629069849

>  <PUBCHEM_SHAPE_MULTIPOLES>  (1) 
348.73
10.22
2.67
1.01
1.97
0.74
0.02
-8.43
-0.79
1.5
-0.65
-0.49
-0.15
0.06

>  <PUBCHEM_SHAPE_SELFOVERLAP>  (1) 
700.95

>  <PUBCHEM_SHAPE_VOLUME>  (1) 
206

>  <PUBCHEM_COORDINATE_TYPE>  (1) 
2
5
10

$$$$
