46600
     RDKit          3D

 19 19  0  0  1  0  0  0  0  0999 V2000
    2.1676    0.1931   -0.8930 O   0  0  0  0  0  0  0  0  0  0  0  0
    2.3246   -2.1188    0.6412 O   0  0  0  0  0  0  0  0  0  0  0  0
    2.1251    1.4565    1.0584 O   0  0  0  0  0  0  0  0  0  0  0  0
   -3.1920    1.0694    0.2004 N   0  0  0  0  0  0  0  0  0  0  0  0
    3.8029    1.7559   -0.5155 N   0  0  0  0  0  0  0  0  0  0  0  0
   -2.7083    0.0051   -0.7741 C   0  0  0  0  0  0  0  0  0  0  0  0
   -2.1959    2.2196    0.2310 C   0  0  0  0  0  0  0  0  0  0  0  0
   -4.5512    1.5871   -0.2479 C   0  0  0  0  0  0  0  0  0  0  0  0
   -3.3128    0.4658    1.5922 C   0  0  0  0  0  0  0  0  0  0  0  0
   -1.3590   -0.5612   -0.3966 C   0  0  0  0  0  0  0  0  0  0  0  0
   -3.7885   -1.0685   -0.8786 C   0  0  0  0  0  0  0  0  0  0  0  0
   -0.2102    0.0840   -0.8237 C   0  0  0  0  0  0  0  0  0  0  0  0
   -1.2979   -1.7142    0.3682 C   0  0  0  0  0  0  0  0  0  0  0  0
    1.0353   -0.4390   -0.4758 C   0  0  0  0  0  0  0  0  0  0  0  0
   -0.0526   -2.2371    0.7160 C   0  0  0  0  0  0  0  0  0  0  0  0
    1.1140   -1.5995    0.2941 C   0  0  0  0  0  0  0  0  0  0  0  0
    2.6591    1.1733   -0.0099 C   0  0  0  0  0  0  0  0  0  0  0  0
    2.9029   -3.0681   -0.2523 C   0  0  0  0  0  0  0  0  0  0  0  0
    4.5369    2.7969    0.1657 C   0  0  0  0  0  0  0  0  0  0  0  0
  1 14  1  0
  1 17  1  0
  2 16  1  0
  2 18  1  0
  3 17  2  0
  4  6  1  0
  4  7  1  0
  4  8  1  0
  4  9  1  0
  5 17  1  0
  5 19  1  0
  6 10  1  0
  6 11  1  0
 10 12  2  0
 10 13  1  0
 12 14  1  0
 13 15  2  0
 14 16  2  0
 15 16  1  0
M  CHG  1   4   1
M  END
>  <PUBCHEM_COMPOUND_CID>  (1) 
46600

>  <PUBCHEM_CONFORMER_RMSD>  (1) 
0.8

>  <PUBCHEM_CONFORMER_DIVERSEORDER>  (1) 
1
35
6
59
8
53
33
47
60
44
51
7
62
39
15
48
9
10
64
34
12
49
24
36
40
54
55
61
52
5
32
58
21
14
23
30
31
57
63
17
22
56
45
18
20
38
37
11
29
13
50
41
46
19
43
42
28
3
4
27
16
26
25
2

>  <PUBCHEM_MMFF94_PARTIAL_CHARGES>  (1) 
22
1 -0.23
10 -0.14
12 -0.15
13 -0.15
14 0.08
15 -0.15
16 0.08
17 0.78
18 0.28
19 0.3
2 -0.36
3 -0.57
33 0.15
34 0.15
35 0.15
39 0.37
4 -1.01
5 -0.73
6 0.65
7 0.5
8 0.5
9 0.5

>  <PUBCHEM_EFFECTIVE_ROTOR_COUNT>  (1) 
6

>  <PUBCHEM_PHARMACOPHORE_FEATURES>  (1) 
5
1 2 acceptor
1 3 acceptor
1 4 cation
1 5 donor
6 10 12 13 14 15 16 rings

>  <PUBCHEM_HEAVY_ATOM_COUNT>  (1) 
19

>  <PUBCHEM_ATOM_DEF_STEREO_COUNT>  (1) 
0

>  <PUBCHEM_ATOM_UDEF_STEREO_COUNT>  (1) 
1

>  <PUBCHEM_BOND_DEF_STEREO_COUNT>  (1) 
0

>  <PUBCHEM_BOND_UDEF_STEREO_COUNT>  (1) 
0

>  <PUBCHEM_ISOTOPIC_ATOM_COUNT>  (1) 
0

>  <PUBCHEM_COMPONENT_COUNT>  (1) 
1

>  <PUBCHEM_CACTVS_TAUTO_COUNT>  (1) 
2

>  <PUBCHEM_CONFORMER_ID>  (1) 
0000B60800000001

>  <PUBCHEM_MMFF94_ENERGY>  (1) 
80.589

>  <PUBCHEM_FEATURE_SELFOVERLAP>  (1) 
25.371

>  <PUBCHEM_SHAPE_FINGERPRINT>  (1) 
10382601 240 17895186702052102400
10498660 4 18412823607739198469
12173636 292 17905325479113186636
12346645 44 18410009983115723740
12390115 104 18120673576056422340
13132413 78 17835236745048563270
13140716 1 18187645778022623651
13464514 151 18341059557783307662
14178342 30 18041568064574970187
14250199 8 18339077065072108775
14251764 75 18199762362234071905
14466204 15 18270388503959572968
14787075 74 18126849532774408565
15295992 7 18117013086908722411
15442244 35 18196088841796496022
15536298 74 18411696543621528719
15775835 57 18342179942836344377
16945 1 18189064255512337111
1813 80 17769100042833843230
18186145 218 18340489971767920999
18785283 64 18260552230018801218
201361 129 18411140221145341456
20510252 161 17906176500769907850
20671657 1 18409731720964714390
212916 134 18054771031088930880
21501502 16 18341889680140313847
21524375 3 18199467838903031076
2255824 54 18336824174215820130
22854114 111 18335986350813361289
23366157 5 18186518774699335306
23402539 116 18053094313751668231
23419403 2 13845547851610302827
23559900 14 18200583692586332850
2748010 2 17895189957168081047
283562 15 17904478854717076970
3071541 12 18410013196094451262
3091708 16 9260806512762689210
312423 11 18202280282410096655
350125 39 18191307074327996893
4175511 71 17908430156004410942
474 4 18336257981429572089
5104073 3 18261118422693682801
7364860 26 18340204090323829438
7615 1 18059276691841582879
84936 182 18342453742563949192
9981440 41 18265607865660517650

>  <PUBCHEM_SHAPE_MULTIPOLES>  (1) 
363.44
7.9
3.22
1.03
0.01
0.39
-0.18
-5.37
0.25
3.41
-0.39
-0.49
0.01
-0.25

>  <PUBCHEM_SHAPE_SELFOVERLAP>  (1) 
737.089

>  <PUBCHEM_SHAPE_VOLUME>  (1) 
214

>  <PUBCHEM_COORDINATE_TYPE>  (1) 
2
5
10

$$$$
