4661
     RDKit          3D

 13 13  0  0  0  0  0  0  0  0999 V2000
   -4.6077    0.0424    0.0588 O   0  0  0  0  0  0  0  0  0  0  0  0
   -2.8624   -0.0678    1.5067 O   0  0  0  0  0  0  0  0  0  0  0  0
    3.7664    1.0970    0.3601 O   0  0  0  0  0  0  0  0  0  0  0  0
    3.7696   -1.0980    0.3274 O   0  0  0  0  0  0  0  0  0  0  0  0
    3.1716    0.0004    0.2247 N   0  0  0  0  0  0  0  0  0  0  0  0
   -0.9571    0.0068   -0.5969 C   0  0  0  0  0  0  0  0  0  0  0  0
   -2.4199    0.0089   -0.8868 C   0  0  0  0  0  0  0  0  0  0  0  0
   -0.2748    1.2136   -0.4430 C   0  0  0  0  0  0  0  0  0  0  0  0
   -0.2714   -1.2022   -0.4789 C   0  0  0  0  0  0  0  0  0  0  0  0
    1.7791    0.0025   -0.0532 C   0  0  0  0  0  0  0  0  0  0  0  0
    1.0933    1.2114   -0.1712 C   0  0  0  0  0  0  0  0  0  0  0  0
    1.0967   -1.2044   -0.2070 C   0  0  0  0  0  0  0  0  0  0  0  0
   -3.2832   -0.0105    0.3594 C   0  0  0  0  0  0  0  0  0  0  0  0
  1 13  1  0
  2 13  2  0
  3  5  1  0
  4  5  2  0
  5 10  1  0
  6  7  1  0
  6  8  2  0
  6  9  1  0
  7 13  1  0
  8 11  1  0
  9 12  2  0
 10 11  2  0
 10 12  1  0
M  CHG  2   3  -1   5   1
M  END
>  <PUBCHEM_COMPOUND_CID>  (1) 
4661

>  <PUBCHEM_CONFORMER_RMSD>  (1) 
0.6

>  <PUBCHEM_CONFORMER_DIVERSEORDER>  (1) 
1
3
2

>  <PUBCHEM_MMFF94_PARTIAL_CHARGES>  (1) 
18
1 -0.65
10 0.13
11 -0.15
12 -0.15
13 0.66
16 0.15
17 0.15
18 0.15
19 0.15
2 -0.57
20 0.5
3 -0.52
4 -0.52
5 0.91
6 -0.14
7 0.2
8 -0.15
9 -0.15

>  <PUBCHEM_EFFECTIVE_ROTOR_COUNT>  (1) 
3

>  <PUBCHEM_PHARMACOPHORE_FEATURES>  (1) 
7
1 1 acceptor
1 2 acceptor
1 3 acceptor
1 3 anion
1 4 acceptor
3 1 2 13 anion
6 6 8 9 10 11 12 rings

>  <PUBCHEM_HEAVY_ATOM_COUNT>  (1) 
13

>  <PUBCHEM_ATOM_DEF_STEREO_COUNT>  (1) 
0

>  <PUBCHEM_ATOM_UDEF_STEREO_COUNT>  (1) 
0

>  <PUBCHEM_BOND_DEF_STEREO_COUNT>  (1) 
0

>  <PUBCHEM_BOND_UDEF_STEREO_COUNT>  (1) 
0

>  <PUBCHEM_ISOTOPIC_ATOM_COUNT>  (1) 
0

>  <PUBCHEM_COMPONENT_COUNT>  (1) 
1

>  <PUBCHEM_CACTVS_TAUTO_COUNT>  (1) 
1

>  <PUBCHEM_CONFORMER_ID>  (1) 
0000123500000001

>  <PUBCHEM_MMFF94_ENERGY>  (1) 
31.0641

>  <PUBCHEM_FEATURE_SELFOVERLAP>  (1) 
35.663

>  <PUBCHEM_SHAPE_FINGERPRINT>  (1) 
10219947 1 18410575084689465788
11062470 55 12031786972086783271
11132069 177 18410006663000619230
11471102 22 18334585637260514977
11769659 78 14996278145458980320
12032990 46 18261956250058285710
12251169 10 18409171043059321167
124424 183 17821726131071487717
14252887 29 18335712615199147027
14943859 89 15123505904452958391
15309172 13 18341892982875244983
15775835 57 17417817227451514353
16945 1 18411138039032793668
17844478 74 18040431075130946532
18186145 218 17989201568881995364
19026448 4 16732974315268148470
19026448 5 16702293572871464532
200 152 18272359911249040631
20201158 50 17967535653617697059
20279233 1 17894634742872538099
20281407 28 17240488000355058939
20645477 70 18337095766324966694
21119208 17 12612751324444838667
22485316 2 17530679926820544123
23402539 116 15267052632686370021
2748010 2 18051122606203918436

>  <PUBCHEM_SHAPE_MULTIPOLES>  (1) 
239.08
6.79
1.23
0.89
1.22
0
-0.13
0.02
-1.72
-0.78
0.1
0.58
-0.01
0.03

>  <PUBCHEM_SHAPE_SELFOVERLAP>  (1) 
499.586

>  <PUBCHEM_SHAPE_VOLUME>  (1) 
135.8

>  <PUBCHEM_COORDINATE_TYPE>  (1) 
2
5
10

$$$$
