46628
     RDKit          3D

 16 15  0  0  0  0  0  0  0  0999 V2000
    6.4225   -1.9857   -0.1053 Cl  0  0  0  0  0  0  0  0  0  0  0  0
   -6.4138   -2.0295   -0.0388 Cl  0  0  0  0  0  0  0  0  0  0  0  0
    2.9751   -0.1787   -0.5059 O   0  0  0  0  0  0  0  0  0  0  0  0
   -3.3535    0.3974   -0.2741 O   0  0  0  0  0  0  0  0  0  0  0  0
    4.4827   -0.2743    1.2349 O   0  0  0  0  0  0  0  0  0  0  0  0
   -3.6736   -1.5901    0.8482 O   0  0  0  0  0  0  0  0  0  0  0  0
   -0.0074    1.8684    0.2006 N   0  0  0  0  0  0  0  0  0  0  0  0
    0.9015    1.0124   -0.5608 C   0  0  0  0  0  0  0  0  0  0  0  0
   -1.3739    1.7397   -0.3043 C   0  0  0  0  0  0  0  0  0  0  0  0
    2.1303    0.6658    0.2648 C   0  0  0  0  0  0  0  0  0  0  0  0
   -2.0252    0.4726    0.2266 C   0  0  0  0  0  0  0  0  0  0  0  0
    0.4311    3.2622    0.1388 C   0  0  0  0  0  0  0  0  0  0  0  0
    4.1356   -0.5832    0.1035 C   0  0  0  0  0  0  0  0  0  0  0  0
   -4.0806   -0.6980    0.1172 C   0  0  0  0  0  0  0  0  0  0  0  0
    4.8999   -1.4643   -0.8468 C   0  0  0  0  0  0  0  0  0  0  0  0
   -5.4509   -0.6148   -0.4985 C   0  0  0  0  0  0  0  0  0  0  0  0
  1 15  1  0
  2 16  1  0
  3 10  1  0
  3 13  1  0
  4 11  1  0
  4 14  1  0
  5 13  2  0
  6 14  2  0
  7  8  1  0
  7  9  1  0
  7 12  1  0
  8 10  1  0
  9 11  1  0
 13 15  1  0
 14 16  1  0
M  END
>  <PUBCHEM_COMPOUND_CID>  (1) 
46628

>  <PUBCHEM_CONFORMER_RMSD>  (1) 
0.8

>  <PUBCHEM_CONFORMER_DIVERSEORDER>  (1) 
1
85
26
17
3
174
51
2
120
189
152
188
52
183
104
186
101
4
82
172
122
106
193
192
200
156
8
141
45
11
61
54
40
191
134
205
108
93
48
19
137
130
41
153
176
177
206
180
94
34
131
86
67
56
179
133
126
71
165
159
72
77
184
140
88
128
168
90
119
195
33
109
196
167
123
28
143
207
80
99
46
44
29
194
7
148
113
69
25
139
32
125
112
9
124
157
55
121
102
170
164
197
202
30
103
115
57
14
64
162
107
83
89
15
60
79
169
160
78
76
21
63
20
23
6
116
16
66
53
12
13
114
129
187
178
136
87
49
37
22
142
198
110
158
18
117
127
204
138
70
65
118
181
58
84
149
201
35
105
24
175
203
75
43
38
135
96
10
74
144
111
150
166
132
173
171
182
199
42
81
91
27
47
50
161
151
145
59
31
185
147
68
146
95
163
98
73
5
190
97
155
154
36
62
39
100
92

>  <PUBCHEM_MMFF94_PARTIAL_CHARGES>  (1) 
16
1 -0.29
10 0.28
11 0.28
12 0.27
13 0.66
14 0.66
15 0.35
16 0.35
2 -0.29
3 -0.43
4 -0.43
5 -0.57
6 -0.57
7 -0.81
8 0.27
9 0.27

>  <PUBCHEM_EFFECTIVE_ROTOR_COUNT>  (1) 
10

>  <PUBCHEM_PHARMACOPHORE_FEATURES>  (1) 
3
1 5 acceptor
1 6 acceptor
1 7 cation

>  <PUBCHEM_HEAVY_ATOM_COUNT>  (1) 
16

>  <PUBCHEM_ATOM_DEF_STEREO_COUNT>  (1) 
0

>  <PUBCHEM_ATOM_UDEF_STEREO_COUNT>  (1) 
0

>  <PUBCHEM_BOND_DEF_STEREO_COUNT>  (1) 
0

>  <PUBCHEM_BOND_UDEF_STEREO_COUNT>  (1) 
0

>  <PUBCHEM_ISOTOPIC_ATOM_COUNT>  (1) 
0

>  <PUBCHEM_COMPONENT_COUNT>  (1) 
1

>  <PUBCHEM_CACTVS_TAUTO_COUNT>  (1) 
1

>  <PUBCHEM_CONFORMER_ID>  (1) 
0000B62400000001

>  <PUBCHEM_MMFF94_ENERGY>  (1) 
19.7275

>  <PUBCHEM_FEATURE_SELFOVERLAP>  (1) 
15.223

>  <PUBCHEM_SHAPE_FINGERPRINT>  (1) 
100836 57 9655576326749482366
10753850 27 18334292067603346283
12555020 224 18335132146876277407
12596602 18 16272205310253217995
13533116 47 18198624531144444129
13862211 1 18410292510196287799
13955234 65 17982452908334902441
14123255 352 9583517607424874091
14123255 52 9295287227115604948
14123256 34 18408328800009921099
1420 369 18412265029808731054
14251752 14 17676478416270957845
15352361 1 18410857659288814295
18222031 100 18413673525821192988
193927 3 18408895026732758184
19784866 240 18410016550595518329
19784866 34 8646774382727593133
20374829 77 18260261958732842485
20388580 30 18261116300421149676
20403669 9 18411985753918820023
20621476 38 18339080523312572887
20645477 56 8285897100328515908
20645477 70 18263358269449956093
21054139 6 17968099660719044946
23402655 69 12396302556248727928
23403322 49 18407760322343379869
23559900 14 18260828258307541781
23590187 49 9367343725915552549
2916195 48 8142074360448520030
293599 30 9079111163831137574
3004659 81 17967814955182628838
3014063 24 18060412547751922607
3421961 26 18341330105894310057
351380 3 18409166605973372351
465052 167 18343025522695896095
5283384 27 11671788122712583995
5352402 22 17131841911025411822
559249 180 18411982434705210757
59682541 35 18271795870574250128
7062679 13 18410009893169694058
7062679 6 10735861886351163930
77188 2 18412545431023499584
7808743 9 9655568600177170111
7970288 3 18411417306286414687

>  <PUBCHEM_SHAPE_MULTIPOLES>  (1) 
304.55
15.95
2.76
0.82
0.77
1.6
-0.05
-17.44
0.42
-0.01
-0.01
-0.37
-0.12
0.56

>  <PUBCHEM_SHAPE_SELFOVERLAP>  (1) 
559.113

>  <PUBCHEM_SHAPE_VOLUME>  (1) 
193.9

>  <PUBCHEM_COORDINATE_TYPE>  (1) 
2
5
10

$$$$
