46625
     RDKit          3D

 14 14  0  0  0  0  0  0  0  0999 V2000
    1.1221    0.3248   -0.7019 O   0  0  0  0  0  0  0  0  0  0  0  0
    4.3113    0.0281    0.9118 O   0  0  0  0  0  0  0  0  0  0  0  0
    3.2459   -1.3727   -0.5340 O   0  0  0  0  0  0  0  0  0  0  0  0
   -3.0081   -2.5179    0.3327 O   0  0  0  0  0  0  0  0  0  0  0  0
   -0.9228   -1.5329   -0.1985 N   0  0  0  0  0  0  0  0  0  0  0  0
   -0.1271    0.7527   -0.3631 C   0  0  0  0  0  0  0  0  0  0  0  0
   -1.1530   -0.1581   -0.1102 C   0  0  0  0  0  0  0  0  0  0  0  0
   -0.3723    2.1228   -0.2708 C   0  0  0  0  0  0  0  0  0  0  0  0
   -2.4240    0.3015    0.2350 C   0  0  0  0  0  0  0  0  0  0  0  0
   -1.6433    2.5822    0.0745 C   0  0  0  0  0  0  0  0  0  0  0  0
   -2.6691    1.6716    0.3273 C   0  0  0  0  0  0  0  0  0  0  0  0
    2.1922    0.7034    0.1608 C   0  0  0  0  0  0  0  0  0  0  0  0
    3.2748   -0.3390    0.1168 C   0  0  0  0  0  0  0  0  0  0  0  0
   -1.8268   -2.5667    0.0196 C   0  0  0  0  0  0  0  0  0  0  0  0
  1  6  1  0
  1 12  1  0
  2 13  1  0
  3 13  2  0
  4 14  2  0
  5  7  1  0
  5 14  1  0
  6  7  2  0
  6  8  1  0
  7  9  1  0
  8 10  2  0
  9 11  2  0
 10 11  1  0
 12 13  1  0
M  END
>  <PUBCHEM_COMPOUND_CID>  (1) 
46625

>  <PUBCHEM_CONFORMER_RMSD>  (1) 
0.6

>  <PUBCHEM_CONFORMER_DIVERSEORDER>  (1) 
1
38
35
30
53
23
32
52
59
49
8
48
13
34
57
28
51
31
24
50
61
29
55
17
56
43
15
3
65
20
45
14
11
54
33
60
64
26
25
58
39
41
10
36
27
44
22
19
47
63
46
18
5
7
37
9
42
4
12
40
62
2
21
16
6

>  <PUBCHEM_MMFF94_PARTIAL_CHARGES>  (1) 
21
1 -0.36
10 -0.15
11 -0.15
12 0.34
13 0.66
14 0.57
15 0.15
16 0.15
17 0.15
18 0.15
2 -0.65
21 0.37
22 0.06
23 0.5
3 -0.57
4 -0.57
5 -0.55
6 0.08
7 0.12
8 -0.15
9 -0.15

>  <PUBCHEM_EFFECTIVE_ROTOR_COUNT>  (1) 
5

>  <PUBCHEM_PHARMACOPHORE_FEATURES>  (1) 
7
1 1 acceptor
1 2 acceptor
1 3 acceptor
1 4 acceptor
1 5 donor
3 2 3 13 anion
6 6 7 8 9 10 11 rings

>  <PUBCHEM_HEAVY_ATOM_COUNT>  (1) 
14

>  <PUBCHEM_ATOM_DEF_STEREO_COUNT>  (1) 
0

>  <PUBCHEM_ATOM_UDEF_STEREO_COUNT>  (1) 
0

>  <PUBCHEM_BOND_DEF_STEREO_COUNT>  (1) 
0

>  <PUBCHEM_BOND_UDEF_STEREO_COUNT>  (1) 
0

>  <PUBCHEM_ISOTOPIC_ATOM_COUNT>  (1) 
0

>  <PUBCHEM_COMPONENT_COUNT>  (1) 
1

>  <PUBCHEM_CACTVS_TAUTO_COUNT>  (1) 
2

>  <PUBCHEM_CONFORMER_ID>  (1) 
0000B62100000001

>  <PUBCHEM_MMFF94_ENERGY>  (1) 
39.7274

>  <PUBCHEM_FEATURE_SELFOVERLAP>  (1) 
35.584

>  <PUBCHEM_SHAPE_FINGERPRINT>  (1) 
11265709 11 18194964273487991559
11322862 65 18266183833354059111
11357001 24 18408604777322640795
12251169 10 18410855443381238032
12500047 106 18339356341210160552
12553582 1 18051421965145550134
13380535 76 18198621042860756023
14178342 30 18335972096112435274
15042514 8 18408329869519659291
15669948 3 18335710442119599740
16945 1 18338808835611138629
20361792 2 16732702740396906892
20510252 161 18200310992159359993
20524608 308 18339925909206882199
20645477 70 17255388848672018855
20711985 365 18337109072201772919
20871998 184 18272934950665105023
21501502 16 18336832008415353756
21650355 55 18410285926069438928
23402539 116 18343008979093821029
23419403 2 17487032704396642561
23500284 5 18261954158077104667
23559900 14 18340760537786656160
257057 1 18052250997223596751
2748010 2 18268707401681753229
3086196 2 18339070592461259794
43471831 8 18046910377184470395
54173680 148 18410015463647058551
5706482 22 18267296539347974585
58807428 26 18050293565846855097
6338986 31 18053097608228980375
69090 78 18341607058280611165
7364860 26 17546448237870252145
81228 2 18409447011682230145
9709674 26 18272088254124684286

>  <PUBCHEM_SHAPE_MULTIPOLES>  (1) 
259.66
5.72
2.91
0.72
6.73
1.03
-0.02
1.29
-1.2
-3.15
-0.04
0.22
-0.04
0.17

>  <PUBCHEM_SHAPE_SELFOVERLAP>  (1) 
536.341

>  <PUBCHEM_SHAPE_VOLUME>  (1) 
145.7

>  <PUBCHEM_COORDINATE_TYPE>  (1) 
2
5
10

$$$$
