46632
     RDKit          3D

 14 14  0  0  0  0  0  0  0  0999 V2000
    6.3587    0.6352   -0.1501 Cl  0  0  0  0  0  0  0  0  0  0  0  0
    2.4560    0.3586   -0.0742 O   0  0  0  0  0  0  0  0  0  0  0  0
    4.1275   -1.1950    0.2500 O   0  0  0  0  0  0  0  0  0  0  0  0
   -1.0289   -1.0283    0.2851 C   0  0  0  0  0  0  0  0  0  0  0  0
    0.0925   -0.0130    0.0333 C   0  0  0  0  0  0  0  0  0  0  0  0
   -2.3834   -0.4269    0.1175 C   0  0  0  0  0  0  0  0  0  0  0  0
    1.4734   -0.6416    0.1568 C   0  0  0  0  0  0  0  0  0  0  0  0
   -3.0273    0.1565    1.2087 C   0  0  0  0  0  0  0  0  0  0  0  0
   -3.0062   -0.4475   -1.1306 C   0  0  0  0  0  0  0  0  0  0  0  0
   -4.2940    0.7192    1.0520 C   0  0  0  0  0  0  0  0  0  0  0  0
   -4.2730    0.1153   -1.2871 C   0  0  0  0  0  0  0  0  0  0  0  0
   -4.9168    0.6987   -0.1958 C   0  0  0  0  0  0  0  0  0  0  0  0
    3.7622   -0.0542    0.0026 C   0  0  0  0  0  0  0  0  0  0  0  0
    4.6593    1.1229   -0.2683 C   0  0  0  0  0  0  0  0  0  0  0  0
  1 14  1  0
  2  7  1  0
  2 13  1  0
  3 13  2  0
  4  5  1  0
  4  6  1  0
  5  7  1  0
  6  8  2  0
  6  9  1  0
  8 10  1  0
  9 11  2  0
 10 12  2  0
 11 12  1  0
 13 14  1  0
M  END
>  <PUBCHEM_COMPOUND_CID>  (1) 
46632

>  <PUBCHEM_CONFORMER_RMSD>  (1) 
0.6

>  <PUBCHEM_CONFORMER_DIVERSEORDER>  (1) 
1
281
230
122
113
241
139
170
222
66
198
263
242
287
136
142
191
204
94
117
249
166
67
248
291
196
224
272
9
80
282
177
36
186
153
107
290
200
247
141
237
116
74
260
148
133
262
71
270
220
158
19
115
41
159
132
205
128
251
151
286
70
137
210
252
174
176
104
62
240
190
56
60
164
234
207
238
255
179
256
283
150
120
51
236
169
78
206
160
100
129
225
28
43
138
235
37
121
130
144
216
65
181
161
157
218
72
3
147
143
95
29
77
277
82
92
90
17
232
11
154
184
64
2
46
192
217
131
61
172
221
69
162
109
231
203
285
253
40
38
108
86
31
212
149
173
245
57
22
163
106
289
146
152
12
49
257
215
4
243
118
68
171
182
110
96
83
187
188
280
81
111
264
273
44
20
24
98
50
269
275
185
39
53
54
211
76
197
21
101
183
135
254
5
79
193
266
246
27
87
278
261
15
47
97
180
195
105
124
119
239
34
8
209
89
219
178
268
288
140
55
73
102
267
208
244
30
75
250
156
112
194
201
7
233
189
10
165
127
33
85
126
265
259
13
271
213
84
228
223
258
175
125
167
48
155
16
45
32
229
202
145
276
52
26
199
168
227
99
274
59
88
35
279
6
123
42
58
284
134
91
63
103
226
114
93
18
214
25
14
23

>  <PUBCHEM_MMFF94_PARTIAL_CHARGES>  (1) 
18
1 -0.29
10 -0.15
11 -0.15
12 -0.15
13 0.66
14 0.35
2 -0.43
21 0.15
22 0.15
23 0.15
24 0.15
25 0.15
3 -0.57
4 0.14
6 -0.14
7 0.28
8 -0.15
9 -0.15

>  <PUBCHEM_EFFECTIVE_ROTOR_COUNT>  (1) 
6

>  <PUBCHEM_PHARMACOPHORE_FEATURES>  (1) 
2
1 3 acceptor
6 6 8 9 10 11 12 rings

>  <PUBCHEM_HEAVY_ATOM_COUNT>  (1) 
14

>  <PUBCHEM_ATOM_DEF_STEREO_COUNT>  (1) 
0

>  <PUBCHEM_ATOM_UDEF_STEREO_COUNT>  (1) 
0

>  <PUBCHEM_BOND_DEF_STEREO_COUNT>  (1) 
0

>  <PUBCHEM_BOND_UDEF_STEREO_COUNT>  (1) 
0

>  <PUBCHEM_ISOTOPIC_ATOM_COUNT>  (1) 
0

>  <PUBCHEM_COMPONENT_COUNT>  (1) 
1

>  <PUBCHEM_CACTVS_TAUTO_COUNT>  (1) 
1

>  <PUBCHEM_CONFORMER_ID>  (1) 
0000B62800000001

>  <PUBCHEM_MMFF94_ENERGY>  (1) 
23.2299

>  <PUBCHEM_FEATURE_SELFOVERLAP>  (1) 
10.148

>  <PUBCHEM_SHAPE_FINGERPRINT>  (1) 
10014705 185 18187080697664683231
10680689 15 17095525106189450099
10912923 1 18202560670411837242
11089746 13 18060698420985893656
11315181 36 14333411163922490890
12091667 2 16950280732677913978
12596602 18 14201398304982285708
13214271 11 16443344282537313287
13288520 33 14979954792213212061
13675066 3 17022906752436177938
1420 363 11815897872974350428
14251718 22 15770056155446223332
14528608 73 17561079250470919400
15242439 84 14764629707277727074
15501527 16 17749391498763431620
15716309 27 10809338945436544236
17834072 33 17418371419797930760
17834076 25 18342458149247756892
17870717 6 15123514718037144701
19489759 90 16128375964913727546
200 152 10735878361275713083
20281389 69 17894908547011524892
20300324 65 17203608186079563121
20325693 3 16415480454776663085
20432913 95 9007064573325576108
20645477 56 17531242881032100358
20645477 70 18335419020262966578
20828058 44 14056719053996789617
23402539 116 17489587857323175896
23402655 69 17989489602025593744
23559900 14 15123498225035823514
2916195 48 17458624562044975788
300161 21 18273209803287398658
351380 3 8574716788905916952
42 15 13117999998129623146
42788 4 18334013899914756196
49783359 22 12179840619545893672
542803 24 18202002127136760698
573450 72 17131264662878311979
5924683 9 16733554947797431667

>  <PUBCHEM_SHAPE_MULTIPOLES>  (1) 
278.24
14.24
1.04
1.02
15.32
0.05
0.04
1.07
-4.31
-1.42
-0.05
0.41
-0.05
-0.53

>  <PUBCHEM_SHAPE_SELFOVERLAP>  (1) 
549.585

>  <PUBCHEM_SHAPE_VOLUME>  (1) 
165.8

>  <PUBCHEM_COORDINATE_TYPE>  (1) 
2
5
10

$$$$
