46638
     RDKit          3D

 18 18  0  0  0  0  0  0  0  0999 V2000
   -2.4024    2.5748   -0.4545 Cl  0  0  0  0  0  0  0  0  0  0  0  0
   -6.4213   -0.9384   -1.1754 Cl  0  0  0  0  0  0  0  0  0  0  0  0
    2.2732   -0.4693    0.2620 O   0  0  0  0  0  0  0  0  0  0  0  0
   -1.1257    0.3019    1.0422 O   0  0  0  0  0  0  0  0  0  0  0  0
    1.2892    1.4751    1.0232 O   0  0  0  0  0  0  0  0  0  0  0  0
    5.9185   -0.2261   -0.2258 N   0  0  0  0  0  0  0  0  0  0  0  0
    4.5906   -0.8383   -0.2015 C   0  0  0  0  0  0  0  0  0  0  0  0
    3.5471    0.1616    0.2704 C   0  0  0  0  0  0  0  0  0  0  0  0
    5.9251    0.9458   -1.1007 C   0  0  0  0  0  0  0  0  0  0  0  0
    6.9209   -1.1966   -0.6638 C   0  0  0  0  0  0  0  0  0  0  0  0
   -0.0495   -0.5013    0.6004 C   0  0  0  0  0  0  0  0  0  0  0  0
    1.2193    0.3073    0.6649 C   0  0  0  0  0  0  0  0  0  0  0  0
   -2.3652    0.0329    0.5139 C   0  0  0  0  0  0  0  0  0  0  0  0
   -3.0609    1.0007   -0.2002 C   0  0  0  0  0  0  0  0  0  0  0  0
   -2.9071   -1.2313    0.7120 C   0  0  0  0  0  0  0  0  0  0  0  0
   -4.3179    0.6998   -0.7245 C   0  0  0  0  0  0  0  0  0  0  0  0
   -4.1641   -1.5321    0.1877 C   0  0  0  0  0  0  0  0  0  0  0  0
   -4.8696   -0.5666   -0.5304 C   0  0  0  0  0  0  0  0  0  0  0  0
  1 14  1  0
  2 18  1  0
  3  8  1  0
  3 12  1  0
  4 11  1  0
  4 13  1  0
  5 12  2  0
  6  7  1  0
  6  9  1  0
  6 10  1  0
  7  8  1  0
 11 12  1  0
 13 14  2  0
 13 15  1  0
 14 16  1  0
 15 17  2  0
 16 18  2  0
 17 18  1  0
M  END
>  <PUBCHEM_COMPOUND_CID>  (1) 
46638

>  <PUBCHEM_CONFORMER_RMSD>  (1) 
0.8

>  <PUBCHEM_CONFORMER_DIVERSEORDER>  (1) 
1
117
174
74
350
100
107
196
116
343
303
301
361
305
94
280
215
139
378
54
364
99
33
57
241
362
9
257
160
226
238
306
77
318
308
171
67
150
122
165
135
216
112
26
86
324
255
382
209
24
202
281
278
124
168
249
70
183
166
363
141
219
38
51
95
71
275
282
39
299
200
115
73
47
335
286
52
180
28
142
40
60
130
292
199
269
146
63
175
239
80
331
68
2
321
127
323
35
214
272
246
290
204
347
106
82
164
46
4
194
211
158
279
262
277
374
355
45
83
237
369
85
148
6
105
379
325
184
89
222
345
186
173
64
131
136
97
358
390
203
182
62
143
66
22
248
56
295
75
293
253
120
18
252
198
134
163
50
29
121
268
351
366
232
27
267
91
78
368
13
287
341
377
140
285
157
87
296
336
227
229
123
317
151
190
3
289
129
207
31
19
389
92
102
310
126
84
108
21
187
258
270
332
12
359
110
218
69
48
96
144
388
5
294
304
61
381
162
119
328
274
273
167
357
14
298
234
297
191
385
44
384
348
133
41
154
36
337
312
373
34
72
338
260
353
153
55
284
32
315
264
178
65
88
43
93
109
370
188
208
307
346
228
220
236
245
152
231
217
179
265
354
356
176
230
376
302
23
372
193
103
261
177
185
170
244
360
210
235
352
125
149
7
233
11
79
276
156
330
128
271
342
225
172
17
247
254
243
386
251
37
111
58
138
221
114
322
224
197
169
316
320
250
242
49
20
155
256
53
367
309
334
98
10
283
159
147
15
383
259
344
59
319
340
104
201
118
205
213
327
329
161
300
333
371
291
339
76
16
30
181
240
8
349
288
113
313
25
266
195
206
90
311
132
212
42
387
314
380
145
137
375
192
326
365
81
263
101
223
189

>  <PUBCHEM_MMFF94_PARTIAL_CHARGES>  (1) 
21
1 -0.18
10 0.27
11 0.34
12 0.66
13 0.08
14 0.18
15 -0.15
16 -0.15
17 -0.15
18 0.18
2 -0.18
3 -0.43
31 0.15
32 0.15
33 0.15
4 -0.36
5 -0.57
6 -0.81
7 0.27
8 0.28
9 0.27

>  <PUBCHEM_EFFECTIVE_ROTOR_COUNT>  (1) 
7

>  <PUBCHEM_PHARMACOPHORE_FEATURES>  (1) 
4
1 4 acceptor
1 5 acceptor
1 6 cation
6 13 14 15 16 17 18 rings

>  <PUBCHEM_HEAVY_ATOM_COUNT>  (1) 
18

>  <PUBCHEM_ATOM_DEF_STEREO_COUNT>  (1) 
0

>  <PUBCHEM_ATOM_UDEF_STEREO_COUNT>  (1) 
0

>  <PUBCHEM_BOND_DEF_STEREO_COUNT>  (1) 
0

>  <PUBCHEM_BOND_UDEF_STEREO_COUNT>  (1) 
0

>  <PUBCHEM_ISOTOPIC_ATOM_COUNT>  (1) 
0

>  <PUBCHEM_COMPONENT_COUNT>  (1) 
1

>  <PUBCHEM_CACTVS_TAUTO_COUNT>  (1) 
1

>  <PUBCHEM_CONFORMER_ID>  (1) 
0000B62E00000001

>  <PUBCHEM_MMFF94_ENERGY>  (1) 
43.0854

>  <PUBCHEM_FEATURE_SELFOVERLAP>  (1) 
20.305

>  <PUBCHEM_SHAPE_FINGERPRINT>  (1) 
10 15 9799689315971108782
10595046 47 18260268534338192270
106641 1 10809349919446991063
10968037 39 18187364346469897623
11315181 36 18334581256188216128
11524674 6 16128654171995638783
12954195 1 18342732971832316281
13288520 33 18131913763104203777
13551218 46 12966861116964953629
13668630 136 17346601867968679838
13685833 64 16988842791486496282
13862211 1 17632860819819326518
1420 363 16343705434952981422
14251718 22 18407761447688231854
14350574 20 17989203767651835513
14528608 73 18040438806815708606
14849402 71 12534760783408713338
15048467 5 13479131293869843814
15183329 4 17967813817390965186
15348495 7 8862646985788221966
15716309 27 14117799107369930606
17780758 139 12103837965055305077
17834072 33 18334296487546478972
17844677 252 17203611484577803032
17870717 6 18411140225403489427
1813 80 15554178033885565024
18222031 100 17775283868200395536
19489759 90 18187649081131386208
19784866 240 17060339656290387739
200 152 17561360686708333651
20281389 69 8286204941998849270
20300324 65 18261112954562296521
20871999 31 18335702723710096912
21150785 3 18060420257360376892
21267235 1 18336266829964366323
21637258 2 16415468394582472631
221357 26 18411976974916093496
22224240 67 9295286136257130845
2297311 6 18409449189626268521
23035841 295 17275105037366134519
23198884 109 17676205762423830219
23402539 116 18040998440516346302
23557571 272 18341615884454508061
23559900 14 18263639726835549017
2767999 5 15140959573844584910
300161 21 16298100999720636930
3004659 81 18333733482244266786
351380 3 16702302347537350318

>  <PUBCHEM_SHAPE_MULTIPOLES>  (1) 
351.58
17.25
1.72
1.04
20.6
0.88
-0.07
-5.28
-8.03
-1.24
-0.15
-0.2
0.02
0.09

>  <PUBCHEM_SHAPE_SELFOVERLAP>  (1) 
692.637

>  <PUBCHEM_SHAPE_VOLUME>  (1) 
212.8

>  <PUBCHEM_COORDINATE_TYPE>  (1) 
2
5
10

$$$$
