46642
     RDKit          3D

 22 23  0  0  0  0  0  0  0  0999 V2000
   -1.9160    0.0750   -1.1640 O   0  0  0  0  0  0  0  0  0  0  0  0
    2.6587   -1.7083    0.1799 O   0  0  0  0  0  0  0  0  0  0  0  0
    4.0913    0.6435    0.0087 N   0  0  0  0  0  0  0  0  0  0  0  0
    0.7552   -0.5584   -0.5725 N   0  0  0  0  0  0  0  0  0  0  0  0
    2.8958    0.4761   -0.8168 C   0  0  0  0  0  0  0  0  0  0  0  0
    3.7215    0.8378    1.4102 C   0  0  0  0  0  0  0  0  0  0  0  0
    4.8893    1.7716   -0.4706 C   0  0  0  0  0  0  0  0  0  0  0  0
    2.1170   -0.7371   -0.3382 C   0  0  0  0  0  0  0  0  0  0  0  0
    4.9523    1.0138    2.2834 C   0  0  0  0  0  0  0  0  0  0  0  0
    5.3342    1.5580   -1.9074 C   0  0  0  0  0  0  0  0  0  0  0  0
   -0.2976   -1.4551   -0.2716 C   0  0  0  0  0  0  0  0  0  0  0  0
   -1.6061   -1.1146   -0.5753 C   0  0  0  0  0  0  0  0  0  0  0  0
    0.0110   -2.6665    0.3268 C   0  0  0  0  0  0  0  0  0  0  0  0
   -2.6330   -2.0090   -0.2727 C   0  0  0  0  0  0  0  0  0  0  0  0
   -1.0160   -3.5607    0.6295 C   0  0  0  0  0  0  0  0  0  0  0  0
   -2.3379   -3.2319    0.3298 C   0  0  0  0  0  0  0  0  0  0  0  0
   -2.7619    0.9291   -0.4783 C   0  0  0  0  0  0  0  0  0  0  0  0
   -2.5544    1.1430    0.8728 C   0  0  0  0  0  0  0  0  0  0  0  0
   -3.7943    1.5474   -1.1610 C   0  0  0  0  0  0  0  0  0  0  0  0
   -3.4076    2.0032    1.5641 C   0  0  0  0  0  0  0  0  0  0  0  0
   -4.6474    2.4077   -0.4697 C   0  0  0  0  0  0  0  0  0  0  0  0
   -4.4539    2.6356    0.8929 C   0  0  0  0  0  0  0  0  0  0  0  0
  1 12  1  0
  1 17  1  0
  2  8  2  0
  3  5  1  0
  3  6  1  0
  3  7  1  0
  4  8  1  0
  4 11  1  0
  5  8  1  0
  6  9  1  0
  7 10  1  0
 11 12  2  0
 11 13  1  0
 12 14  1  0
 13 15  2  0
 14 16  2  0
 15 16  1  0
 17 18  2  0
 17 19  1  0
 18 20  1  0
 19 21  2  0
 20 22  2  0
 21 22  1  0
M  END
>  <PUBCHEM_COMPOUND_CID>  (1) 
46642

>  <PUBCHEM_CONFORMER_RMSD>  (1) 
0.8

>  <PUBCHEM_CONFORMER_DIVERSEORDER>  (1) 
1
29
33
17
67
50
18
53
65
56
6
34
36
23
39
26
59
70
77
60
54
3
68
52
71
2
44
47
4
73
37
31
63
43
74
5
61
32
72
76
24
12
42
46
75
66
58
28
55
69
38
22
41
35
10
62
20
21
25
7
15
40
64
9
49
48
45
16
78
19
13
27
8
11
57
51
30
14

>  <PUBCHEM_MMFF94_PARTIAL_CHARGES>  (1) 
30
1 -0.17
11 0.12
12 0.08
13 -0.15
14 -0.15
15 -0.15
16 -0.15
17 0.08
18 -0.15
19 -0.15
2 -0.57
20 -0.15
21 -0.15
22 -0.15
3 -0.81
35 0.37
36 0.15
37 0.15
38 0.15
39 0.15
4 -0.55
40 0.15
41 0.15
42 0.15
43 0.15
44 0.15
5 0.33
6 0.27
7 0.27
8 0.57

>  <PUBCHEM_EFFECTIVE_ROTOR_COUNT>  (1) 
8

>  <PUBCHEM_PHARMACOPHORE_FEATURES>  (1) 
6
1 1 acceptor
1 2 acceptor
1 3 cation
1 4 donor
6 11 12 13 14 15 16 rings
6 17 18 19 20 21 22 rings

>  <PUBCHEM_HEAVY_ATOM_COUNT>  (1) 
22

>  <PUBCHEM_ATOM_DEF_STEREO_COUNT>  (1) 
0

>  <PUBCHEM_ATOM_UDEF_STEREO_COUNT>  (1) 
0

>  <PUBCHEM_BOND_DEF_STEREO_COUNT>  (1) 
0

>  <PUBCHEM_BOND_UDEF_STEREO_COUNT>  (1) 
0

>  <PUBCHEM_ISOTOPIC_ATOM_COUNT>  (1) 
0

>  <PUBCHEM_COMPONENT_COUNT>  (1) 
1

>  <PUBCHEM_CACTVS_TAUTO_COUNT>  (1) 
2

>  <PUBCHEM_CONFORMER_ID>  (1) 
0000B63200000001

>  <PUBCHEM_MMFF94_ENERGY>  (1) 
69.0418

>  <PUBCHEM_FEATURE_SELFOVERLAP>  (1) 
30.446

>  <PUBCHEM_SHAPE_FINGERPRINT>  (1) 
10042902 136 12252485283984017592
10615611 76 17242470523395235036
10937287 8 18338798905862774651
12107183 9 18188756251123928826
12390115 104 18338532892478095047
12633257 1 18188196663808380420
12788726 201 18044937019774102682
13140716 1 18262801744282793755
13965767 371 18042955476608507856
14142880 1 18261387884325210295
14178342 30 18334288807934470274
14251764 38 17985815154752556440
14251764 75 18267597827030674425
14468879 13 17704072901767354783
14787075 74 18272366461184813023
14848178 96 18341331102542831524
14950920 106 16153421727783745856
15342168 16 18338239237433465125
15806764 133 17630623408262205384
1741750 31 18412542115344871322
204376 136 18336270033545693541
20510252 161 18338517546903513155
21033648 29 18189608341732479140
21401589 2 18272931626740102889
21524375 3 18127406757494233063
22182937 141 18341335569239948825
23503958 25 18058169617008331720
23557571 272 18199482110931597990
23558518 356 18260271879533160283
23559900 14 18341613673337687094
23845131 108 18262806147388877707
283562 15 18264207079452728051
341906 21 18341040921983799736
469060 322 18190193441496351635
474 4 18195807375778855083
5048184 11 18335425659786131388
5104073 3 18187920716707293890
6034566 193 18187937187411502085
633830 44 18056484946082707701
7808743 9 18335429001619042332
7970288 3 9727339226044898685
9981440 41 18058712689384238962

>  <PUBCHEM_SHAPE_MULTIPOLES>  (1) 
431.05
11.2
3.93
1.55
10.78
2.84
-0.42
-11.59
-0.25
-4.34
-0.71
1.59
-0.98
-0.59

>  <PUBCHEM_SHAPE_SELFOVERLAP>  (1) 
902.256

>  <PUBCHEM_SHAPE_VOLUME>  (1) 
244.5

>  <PUBCHEM_COORDINATE_TYPE>  (1) 
2
5
10

$$$$
