46651
     RDKit          3D

 10  9  0  0  0  0  0  0  0  0999 V2000
    0.0810   -0.3275   -0.0166 O   0  0  0  0  0  0  0  0  0  0  0  0
   -3.4625    0.1213    0.0204 O   0  0  0  0  0  0  0  0  0  0  0  0
   -1.2115    1.5848    0.0061 O   0  0  0  0  0  0  0  0  0  0  0  0
   -4.5572   -0.8397    0.0121 N   0  0  0  0  0  0  0  0  0  0  0  0
    2.4714   -0.4655   -0.0220 C   0  0  0  0  0  0  0  0  0  0  0  0
    3.7814    0.3170    0.0003 C   0  0  0  0  0  0  0  0  0  0  0  0
    1.2634    0.4603   -0.0101 C   0  0  0  0  0  0  0  0  0  0  0  0
    4.9846   -0.6117    0.0319 C   0  0  0  0  0  0  0  0  0  0  0  0
   -1.1001    0.3664   -0.0071 C   0  0  0  0  0  0  0  0  0  0  0  0
   -2.2504   -0.6054   -0.0150 C   0  0  0  0  0  0  0  0  0  0  0  0
  1  7  1  0
  1  9  1  0
  2  4  1  0
  2 10  1  0
  3  9  2  0
  5  6  1  0
  5  7  1  0
  6  8  1  0
  9 10  1  0
M  END
>  <PUBCHEM_COMPOUND_CID>  (1) 
46651

>  <PUBCHEM_CONFORMER_RMSD>  (1) 
0.6

>  <PUBCHEM_CONFORMER_DIVERSEORDER>  (1) 
1
55
242
320
149
291
160
162
40
318
24
139
304
179
198
35
96
16
287
36
268
248
303
120
75
121
218
216
123
245
95
33
247
148
237
112
256
42
142
140
109
156
131
138
13
200
201
323
7
32
316
155
166
8
196
275
143
64
293
29
9
244
210
48
199
309
297
50
187
90
267
146
135
111
229
182
283
167
27
110
63
266
70
126
125
3
183
2
132
226
197
184
93
292
254
209
289
72
97
319
101
279
49
104
124
186
302
114
151
181
224
271
130
119
76
57
238
115
185
177
231
158
137
175
251
59
28
262
211
38
105
265
221
321
308
236
47
165
56
220
208
282
257
228
84
99
45
133
307
141
284
278
270
285
222
102
52
10
223
232
159
5
136
30
252
310
288
235
87
261
269
192
174
129
217
51
264
295
68
46
85
194
173
170
53
83
300
299
128
272
79
4
58
61
263
100
207
322
276
67
280
258
73
106
21
296
20
152
315
17
122
74
195
204
89
176
18
157
219
153
274
314
19
294
92
161
227
169
113
23
37
118
88
277
41
86
290
233
66
243
281
190
171
43
305
81
214
206
145
15
172
134
82
312
78
108
154
77
191
213
259
150
180
311
253
147
117
250
306
163
34
168
80
178
25
6
317
91
11
26
225
103
54
298
65
94
39
107
286
202
301
116
313
12
127
144
193
189
98
44
22
246
239
205
249
234
188
164
60
212
260
69
203
14
273
215
230
31
62
255
241
240
71

>  <PUBCHEM_MMFF94_PARTIAL_CHARGES>  (1) 
9
1 -0.43
10 0.34
2 -0.18
22 0.36
23 0.36
3 -0.57
4 -0.82
7 0.28
9 0.66

>  <PUBCHEM_EFFECTIVE_ROTOR_COUNT>  (1) 
6

>  <PUBCHEM_PHARMACOPHORE_FEATURES>  (1) 
2
1 3 acceptor
1 8 hydrophobe

>  <PUBCHEM_HEAVY_ATOM_COUNT>  (1) 
10

>  <PUBCHEM_ATOM_DEF_STEREO_COUNT>  (1) 
0

>  <PUBCHEM_ATOM_UDEF_STEREO_COUNT>  (1) 
0

>  <PUBCHEM_BOND_DEF_STEREO_COUNT>  (1) 
0

>  <PUBCHEM_BOND_UDEF_STEREO_COUNT>  (1) 
0

>  <PUBCHEM_ISOTOPIC_ATOM_COUNT>  (1) 
0

>  <PUBCHEM_COMPONENT_COUNT>  (1) 
1

>  <PUBCHEM_CACTVS_TAUTO_COUNT>  (1) 
1

>  <PUBCHEM_CONFORMER_ID>  (1) 
0000B63B00000001

>  <PUBCHEM_MMFF94_ENERGY>  (1) 
1.0964

>  <PUBCHEM_FEATURE_SELFOVERLAP>  (1) 
10.148

>  <PUBCHEM_SHAPE_FINGERPRINT>  (1) 
11062470 55 11818992985142250834
12932764 1 16844712158850402478
13690532 89 18260547827118264050
14123238 8 17917992789330749222
14325111 11 18410855417790392556
17834076 25 16515402958627158543
18342897 14 10015867582631613342
187816 3 17168143446904579721
20211469 26 18187083949091998348
20719005 15 18410856564230292386
21119208 17 16298385772915816846
21293036 1 16153426155688539346
22485316 2 18343016696501224591
23402539 116 18410848854547601671
42788 4 18410575088958052710

>  <PUBCHEM_SHAPE_MULTIPOLES>  (1) 
183.21
9.32
1.01
0.58
2.13
0.23
0
-2.71
0.11
-0.32
0
0.1
-0.01
-0.01

>  <PUBCHEM_SHAPE_SELFOVERLAP>  (1) 
331.864

>  <PUBCHEM_SHAPE_VOLUME>  (1) 
117.6

>  <PUBCHEM_COORDINATE_TYPE>  (1) 
2
5
10

$$$$
