46668
     RDKit          3D

 21 24  0  0  0  0  0  0  0  0999 V2000
    0.9905    0.4116   -0.9816 N   0  0  0  0  0  0  0  0  0  0  0  0
   -2.8290   -0.5727    0.4366 N   0  0  0  0  0  0  0  0  0  0  0  0
    2.1963    0.1168   -0.2379 C   0  0  0  0  0  0  0  0  0  0  0  0
    3.3966    0.0982   -1.1875 C   0  0  0  0  0  0  0  0  0  0  0  0
    2.3779    1.1566    0.8700 C   0  0  0  0  0  0  0  0  0  0  0  0
    4.7057   -0.1109   -0.4304 C   0  0  0  0  0  0  0  0  0  0  0  0
    3.6887    0.9479    1.6245 C   0  0  0  0  0  0  0  0  0  0  0  0
    4.8854    0.9233    0.6775 C   0  0  0  0  0  0  0  0  0  0  0  0
   -0.3048    0.0777   -0.5008 C   0  0  0  0  0  0  0  0  0  0  0  0
   -0.6252   -1.2590   -0.2425 C   0  0  0  0  0  0  0  0  0  0  0  0
   -1.2476    1.0889   -0.2897 C   0  0  0  0  0  0  0  0  0  0  0  0
   -1.9171   -1.5428    0.2317 C   0  0  0  0  0  0  0  0  0  0  0  0
   -2.5152    0.7131    0.1864 C   0  0  0  0  0  0  0  0  0  0  0  0
    0.3027   -2.2953   -0.4454 C   0  0  0  0  0  0  0  0  0  0  0  0
   -0.9527    2.4402   -0.5406 C   0  0  0  0  0  0  0  0  0  0  0  0
   -2.2422   -2.8716    0.4906 C   0  0  0  0  0  0  0  0  0  0  0  0
   -3.4583    1.7152    0.3983 C   0  0  0  0  0  0  0  0  0  0  0  0
   -0.0472   -3.6155   -0.1788 C   0  0  0  0  0  0  0  0  0  0  0  0
   -1.9134    3.4229   -0.3205 C   0  0  0  0  0  0  0  0  0  0  0  0
   -1.3224   -3.9040    0.2902 C   0  0  0  0  0  0  0  0  0  0  0  0
   -3.1686    3.0593    0.1500 C   0  0  0  0  0  0  0  0  0  0  0  0
  1  3  1  0
  1  9  1  0
  2 12  2  0
  2 13  1  0
  3  4  1  0
  3  5  1  0
  4  6  1  0
  5  7  1  0
  6  8  1  0
  7  8  1  0
  9 10  2  0
  9 11  1  0
 10 12  1  0
 10 14  1  0
 11 13  2  0
 11 15  1  0
 12 16  1  0
 13 17  1  0
 14 18  2  0
 15 19  2  0
 16 20  2  0
 17 21  2  0
 18 20  1  0
 19 21  1  0
M  END
>  <PUBCHEM_COMPOUND_CID>  (1) 
46668

>  <PUBCHEM_CONFORMER_RMSD>  (1) 
0.6

>  <PUBCHEM_CONFORMER_DIVERSEORDER>  (1) 
1
5
2
6
7
3
4

>  <PUBCHEM_MMFF94_PARTIAL_CHARGES>  (1) 
23
1 -0.87
12 0.31
13 0.31
14 -0.15
15 -0.15
16 -0.15
17 -0.15
18 -0.15
19 -0.15
2 -0.62
20 -0.15
21 -0.15
3 0.37
33 0.4
34 0.15
35 0.15
36 0.15
37 0.15
38 0.15
39 0.15
40 0.15
41 0.15
9 0.1

>  <PUBCHEM_EFFECTIVE_ROTOR_COUNT>  (1) 
3.2

>  <PUBCHEM_PHARMACOPHORE_FEATURES>  (1) 
7
1 1 cation
1 1 donor
1 2 acceptor
6 10 12 14 16 18 20 rings
6 11 13 15 17 19 21 rings
6 2 9 10 11 12 13 rings
6 3 4 5 6 7 8 rings

>  <PUBCHEM_HEAVY_ATOM_COUNT>  (1) 
21

>  <PUBCHEM_ATOM_DEF_STEREO_COUNT>  (1) 
0

>  <PUBCHEM_ATOM_UDEF_STEREO_COUNT>  (1) 
0

>  <PUBCHEM_BOND_DEF_STEREO_COUNT>  (1) 
0

>  <PUBCHEM_BOND_UDEF_STEREO_COUNT>  (1) 
0

>  <PUBCHEM_ISOTOPIC_ATOM_COUNT>  (1) 
0

>  <PUBCHEM_COMPONENT_COUNT>  (1) 
1

>  <PUBCHEM_CACTVS_TAUTO_COUNT>  (1) 
2

>  <PUBCHEM_CONFORMER_ID>  (1) 
0000B64C00000001

>  <PUBCHEM_MMFF94_ENERGY>  (1) 
76.1193

>  <PUBCHEM_FEATURE_SELFOVERLAP>  (1) 
35.583

>  <PUBCHEM_SHAPE_FINGERPRINT>  (1) 
10165383 225 18196390129436646928
10319926 262 18269257085435882480
10369192 42 16481633895029427304
10411042 1 17905897229001533638
10967382 1 17183351612688643247
1100329 8 18120658182919675811
11370993 70 18339075965396931080
11582403 64 17486176004122943724
11725454 13 17846489301644855948
12173636 292 18410289173159498020
12500047 106 18411698768883774464
12553582 1 17833563666160972150
12788726 201 17972049290515241802
13004483 165 17979342385175107162
13140716 1 18121509221999106611
138480 1 17040918659869993927
13878862 14 17183338418697991829
14081887 123 18268137829115472042
14178342 30 18335971065452217866
14420673 8 18192144894548428834
15042514 8 18263933292150589483
15230672 131 18192154803312300126
16752209 62 18336260231955791270
16945 1 18337401529731606343
18785283 64 17686913717246338585
19049666 15 18201445748884384974
19591789 44 18194126213509358374
20510252 161 18342741818752562345
20600515 1 18054805141333975851
21033648 29 18341604868154031808
212916 134 18268978822219301328
21524375 3 18199749137580282949
21650355 55 18193550292712290691
22149856 69 17830762871956687193
22182313 1 18192171329807715623
23184049 29 17976822308802932844
23402539 116 18270955868970296487
23557571 272 18200041758519716924
23559900 14 18271253733937405988
23845131 108 18122639258239322961
2748010 2 18191890937104721823
3091708 16 9198875446232707091
3298306 158 18126570020587437118
350125 39 18120944901465788511
352729 6 18336278919743371365
43471831 8 18263927640052365839
5265222 85 18337973242146702134
57124632 79 17832416501929127657
58807428 26 18337398127990862139
602551 16 18410011053116591760
7097593 13 18115571691863595472
7364860 26 17690281504408830205
7808743 9 18409453613680532020
81228 2 18196082463791082503
84936 182 17838335177147458793
90316 7 18194123151229370363
9709674 26 18272092716759183238
9981440 41 18263924332991066457

>  <PUBCHEM_SHAPE_MULTIPOLES>  (1) 
422.21
7.14
4.56
1
9.15
2.85
-0.11
-4.18
-1.35
-5.03
-0.14
0.85
-0.19
0.8

>  <PUBCHEM_SHAPE_SELFOVERLAP>  (1) 
934.386

>  <PUBCHEM_SHAPE_VOLUME>  (1) 
223.7

>  <PUBCHEM_COORDINATE_TYPE>  (1) 
2
5
10

$$$$
