46663
     RDKit          3D

 19 21  0  0  0  0  0  0  0  0999 V2000
    4.7175    0.5316   -0.0005 O   0  0  0  0  0  0  0  0  0  0  0  0
    4.0579   -1.6737    0.0006 O   0  0  0  0  0  0  0  0  0  0  0  0
   -1.4324    1.6368    0.0000 N   0  0  0  0  0  0  0  0  0  0  0  0
   -0.9212   -2.5233    0.0002 N   0  0  0  0  0  0  0  0  0  0  0  0
    0.0266   -0.2763    0.0001 C   0  0  0  0  0  0  0  0  0  0  0  0
   -1.0943   -1.1125   -0.0001 C   0  0  0  0  0  0  0  0  0  0  0  0
   -2.3845   -0.5728   -0.0002 C   0  0  0  0  0  0  0  0  0  0  0  0
   -0.1919    1.1118    0.0002 C   0  0  0  0  0  0  0  0  0  0  0  0
   -2.5087    0.8268   -0.0002 C   0  0  0  0  0  0  0  0  0  0  0  0
    1.3347   -0.7915    0.0003 C   0  0  0  0  0  0  0  0  0  0  0  0
    2.4295    0.0677    0.0006 C   0  0  0  0  0  0  0  0  0  0  0  0
    0.9201    1.9496    0.0006 C   0  0  0  0  0  0  0  0  0  0  0  0
   -3.5286   -1.3896   -0.0003 C   0  0  0  0  0  0  0  0  0  0  0  0
    2.2213    1.4411    0.0007 C   0  0  0  0  0  0  0  0  0  0  0  0
   -3.7906    1.3702   -0.0003 C   0  0  0  0  0  0  0  0  0  0  0  0
   -4.7990   -0.8212   -0.0003 C   0  0  0  0  0  0  0  0  0  0  0  0
   -4.9299    0.5615   -0.0003 C   0  0  0  0  0  0  0  0  0  0  0  0
    3.7818   -0.4667    0.0007 C   0  0  0  0  0  0  0  0  0  0  0  0
    6.0918    0.1306   -0.0019 C   0  0  0  0  0  0  0  0  0  0  0  0
  1 18  1  0
  1 19  1  0
  2 18  2  0
  3  8  2  0
  3  9  1  0
  4  6  1  0
  5  6  2  0
  5  8  1  0
  5 10  1  0
  6  7  1  0
  7  9  2  0
  7 13  1  0
  8 12  1  0
  9 15  1  0
 10 11  2  0
 11 14  1  0
 11 18  1  0
 12 14  2  0
 13 16  2  0
 15 17  2  0
 16 17  1  0
M  END
>  <PUBCHEM_COMPOUND_CID>  (1) 
46663

>  <PUBCHEM_CONFORMER_RMSD>  (1) 
0.6

>  <PUBCHEM_CONFORMER_DIVERSEORDER>  (1) 
1
3
2

>  <PUBCHEM_MMFF94_PARTIAL_CHARGES>  (1) 
26
1 -0.43
10 -0.15
11 0.09
12 -0.15
13 -0.15
14 -0.15
15 -0.15
16 -0.15
17 -0.15
18 0.63
19 0.28
2 -0.57
20 0.15
21 0.15
22 0.15
23 0.15
24 0.15
25 0.15
26 0.4
27 0.4
28 0.15
3 -0.62
4 -0.9
6 0.1
8 0.31
9 0.31

>  <PUBCHEM_EFFECTIVE_ROTOR_COUNT>  (1) 
2

>  <PUBCHEM_PHARMACOPHORE_FEATURES>  (1) 
7
1 2 acceptor
1 3 acceptor
1 4 cation
1 4 donor
6 3 5 6 7 8 9 rings
6 5 8 10 11 12 14 rings
6 7 9 13 15 16 17 rings

>  <PUBCHEM_HEAVY_ATOM_COUNT>  (1) 
19

>  <PUBCHEM_ATOM_DEF_STEREO_COUNT>  (1) 
0

>  <PUBCHEM_ATOM_UDEF_STEREO_COUNT>  (1) 
0

>  <PUBCHEM_BOND_DEF_STEREO_COUNT>  (1) 
0

>  <PUBCHEM_BOND_UDEF_STEREO_COUNT>  (1) 
0

>  <PUBCHEM_ISOTOPIC_ATOM_COUNT>  (1) 
0

>  <PUBCHEM_COMPONENT_COUNT>  (1) 
1

>  <PUBCHEM_CACTVS_TAUTO_COUNT>  (1) 
3

>  <PUBCHEM_CONFORMER_ID>  (1) 
0000B64700000001

>  <PUBCHEM_MMFF94_ENERGY>  (1) 
79.3046

>  <PUBCHEM_FEATURE_SELFOVERLAP>  (1) 
35.581

>  <PUBCHEM_SHAPE_FINGERPRINT>  (1) 
10062212 137 18342451552362879519
10906281 52 18268451121104403108
10967382 1 18410855417489900579
10968037 39 18408606980762098380
11315181 36 17988929985483928040
11401426 45 18411698785594216725
11578080 2 16914524743059693107
12011746 2 18411698781272817469
12107183 9 17616248087933597912
12236239 1 17822009805103082896
12403259 226 18339918320670148361
12403259 415 18411128143703125593
12715332 25 18130787901688926479
13140716 1 18195532716635883011
13288520 33 18412546513311994909
13690532 89 18410011022318409193
13862211 1 18410569587115853318
14115302 16 17968105256253920358
14790565 3 18409455773426511636
15042514 8 18193841664043374203
15099037 51 18410293618350246951
15196674 1 18410856529617287974
15442244 35 18411138064871331269
15536298 74 18342174513581028897
16945 1 17978510059695063269
17804303 29 18412828009837615825
1813 80 17313105237596137108
18186145 218 17749380503531044269
18522853 276 18341895190351181072
19141452 34 18272932756010819087
19591789 44 18409729595051036739
200 152 17988921176326499605
20028762 73 18058447772150422679
20510252 161 18200594692029161864
20645477 70 18200315412392792566
21029758 11 18343300370527740105
21267235 1 18410018766603587699
21279426 13 18194683670199355071
221490 88 18191030199440244473
23175994 123 17275389815045972136
23402539 116 18343295981239611511
23463225 33 18408886243751608165
23559900 14 18270675480383032240
2748010 2 18409728504350623333
3004659 81 18260832549807961118
335352 9 18410855465109048661
34934 24 18409162177877687082
350125 39 18410295809290489673
3545911 37 18412263938834153912
4214541 1 18410855460297304645
4463277 17 18410575102470961924
474 4 17024037154033555108
5104073 3 18411418410113271560
6138700 20 18337674088351604718
69090 78 18341610434182960551
7364860 26 18197216056338325864
8809292 202 18261678168195461771
9709674 26 18265616674559423731

>  <PUBCHEM_SHAPE_MULTIPOLES>  (1) 
369.31
10.74
1.94
0.6
7.01
0.21
0
0.71
0
-0.51
0
-0.03
-0.01
0

>  <PUBCHEM_SHAPE_SELFOVERLAP>  (1) 
828.976

>  <PUBCHEM_SHAPE_VOLUME>  (1) 
195.6

>  <PUBCHEM_COORDINATE_TYPE>  (1) 
2
5
10

$$$$
