46670
     RDKit          3D

 19 21  0  0  0  0  0  0  0  0999 V2000
    4.4367   -0.3722    0.0837 S   0  0  0  0  0  0  0  0  0  0  0  0
    5.2456    0.6993    0.6485 O   0  0  0  0  0  0  0  0  0  0  0  0
    4.4967   -1.7062    0.6654 O   0  0  0  0  0  0  0  0  0  0  0  0
   -1.1958    1.4265   -0.0011 N   0  0  0  0  0  0  0  0  0  0  0  0
    4.7677   -0.4888   -1.5888 N   0  0  0  0  0  0  0  0  0  0  0  0
   -5.9259    0.5856   -0.0457 N   0  0  0  0  0  0  0  0  0  0  0  0
    0.4009   -0.3730    0.0375 C   0  0  0  0  0  0  0  0  0  0  0  0
    0.0800    0.9949    0.0182 C   0  0  0  0  0  0  0  0  0  0  0  0
   -1.9815   -0.8476    0.0155 C   0  0  0  0  0  0  0  0  0  0  0  0
   -0.6550   -1.2902    0.0359 C   0  0  0  0  0  0  0  0  0  0  0  0
   -2.2091    0.5388   -0.0027 C   0  0  0  0  0  0  0  0  0  0  0  0
    2.7714    0.1484    0.0586 C   0  0  0  0  0  0  0  0  0  0  0  0
    1.7434   -0.7896    0.0577 C   0  0  0  0  0  0  0  0  0  0  0  0
    1.1269    1.9129    0.0196 C   0  0  0  0  0  0  0  0  0  0  0  0
    2.4621    1.5025    0.0395 C   0  0  0  0  0  0  0  0  0  0  0  0
   -3.0619   -1.7470    0.0131 C   0  0  0  0  0  0  0  0  0  0  0  0
   -3.5276    0.9856   -0.0227 C   0  0  0  0  0  0  0  0  0  0  0  0
   -4.6038    0.0946   -0.0250 C   0  0  0  0  0  0  0  0  0  0  0  0
   -4.3708   -1.2746   -0.0072 C   0  0  0  0  0  0  0  0  0  0  0  0
  1  2  2  0
  1  3  2  0
  1  5  1  0
  1 12  1  0
  4  8  2  0
  4 11  1  0
  6 18  1  0
  7  8  1  0
  7 10  2  0
  7 13  1  0
  8 14  1  0
  9 10  1  0
  9 11  2  0
  9 16  1  0
 11 17  1  0
 12 13  2  0
 12 15  1  0
 14 15  2  0
 16 19  2  0
 17 18  2  0
 18 19  1  0
M  END
>  <PUBCHEM_COMPOUND_CID>  (1) 
46670

>  <PUBCHEM_CONFORMER_RMSD>  (1) 
0.6

>  <PUBCHEM_CONFORMER_DIVERSEORDER>  (1) 
1
2

>  <PUBCHEM_MMFF94_PARTIAL_CHARGES>  (1) 
28
1 1.45
10 -0.15
11 0.31
12 -0.01
13 -0.15
14 -0.15
15 -0.15
16 -0.15
17 -0.15
18 0.1
19 -0.15
2 -0.65
20 0.15
21 0.15
22 0.15
23 0.15
24 0.15
25 0.15
26 0.15
27 0.42
28 0.42
29 0.4
3 -0.65
30 0.4
4 -0.62
5 -0.98
6 -0.9
8 0.31

>  <PUBCHEM_EFFECTIVE_ROTOR_COUNT>  (1) 
1

>  <PUBCHEM_PHARMACOPHORE_FEATURES>  (1) 
9
1 2 acceptor
1 3 acceptor
1 4 acceptor
1 5 donor
1 6 cation
1 6 donor
6 4 7 8 9 10 11 rings
6 7 8 12 13 14 15 rings
6 9 11 16 17 18 19 rings

>  <PUBCHEM_HEAVY_ATOM_COUNT>  (1) 
19

>  <PUBCHEM_ATOM_DEF_STEREO_COUNT>  (1) 
0

>  <PUBCHEM_ATOM_UDEF_STEREO_COUNT>  (1) 
0

>  <PUBCHEM_BOND_DEF_STEREO_COUNT>  (1) 
0

>  <PUBCHEM_BOND_UDEF_STEREO_COUNT>  (1) 
0

>  <PUBCHEM_ISOTOPIC_ATOM_COUNT>  (1) 
0

>  <PUBCHEM_COMPONENT_COUNT>  (1) 
1

>  <PUBCHEM_CACTVS_TAUTO_COUNT>  (1) 
3

>  <PUBCHEM_CONFORMER_ID>  (1) 
0000B64E00000001

>  <PUBCHEM_MMFF94_ENERGY>  (1) 
49.5244

>  <PUBCHEM_FEATURE_SELFOVERLAP>  (1) 
45.748

>  <PUBCHEM_SHAPE_FINGERPRINT>  (1) 
10062212 137 18341888628026365615
11401426 45 18413386553296743435
12236239 1 17676488345401779046
13140716 1 18339082700248425969
13288520 33 18412266124983076678
13533116 47 14548747166427316710
13583140 156 15051439553071834910
13675066 3 18130784602852998882
13690532 89 18409165502235011280
13862211 1 18411132528600639863
14115302 16 17822019734687884126
15099037 51 18411136939779777967
15196674 1 18338516451633494465
15536298 74 18341611576644345784
17804303 29 18411702110083598109
17834072 8 18410855460529108253
1813 80 17312820472579551596
18186145 218 17749379416867401599
18522853 276 18342455949918747792
19141452 34 18272087227537751687
200 152 17989484143465077831
20374829 77 18409165519478144959
20645477 70 18342741853375778502
21267235 1 18410301336971097123
21279426 13 18265893545172801461
221490 88 18190747633431070867
2215653 11 18273215278975030143
23175994 123 17418096520342375697
23402539 116 18201431493813894733
23559900 14 18342452690160110392
239999 70 18273501182975639350
3004659 81 18114464466617350426
335352 9 18410292497875440421
34934 24 18411693288015316643
350125 39 18408886213908876829
3545911 37 18411138035323368979
4214541 1 18410291411048455449
4463277 17 18409730681688045704
4921388 177 15719684254854529019
5104073 3 18339926025571881273
542803 24 16877944940470134255
633830 44 17458902755613671449
7364860 26 18197779010702733024
77779 3 18409167752929684673
8809292 202 18261114122877751915
9709674 26 18192713573280691331
9981440 41 17254555422604525760

>  <PUBCHEM_SHAPE_MULTIPOLES>  (1) 
368.18
11.33
1.75
0.74
0.43
0.06
-0.14
-1.49
-0.25
-0.03
0.09
0.67
-0.08
0.07

>  <PUBCHEM_SHAPE_SELFOVERLAP>  (1) 
811.83

>  <PUBCHEM_SHAPE_VOLUME>  (1) 
199.2

>  <PUBCHEM_COORDINATE_TYPE>  (1) 
2
5
10

$$$$
