46680
     RDKit          3D

 23 26  0  0  1  0  0  0  0  0999 V2000
   -0.2512    1.4876    2.3553 O   0  0  0  0  0  0  0  0  0  0  0  0
    2.5056   -3.5395    0.5365 O   0  0  0  0  0  0  0  0  0  0  0  0
   -2.6807    1.0299    0.9093 N   0  0  0  0  0  0  0  0  0  0  0  0
    3.5388    1.7294   -0.7803 N   0  0  0  0  0  0  0  0  0  0  0  0
   -2.7415    0.0213   -1.4996 C   0  0  0  0  0  0  0  0  0  0  0  0
   -1.3696    1.2438    0.2331 C   0  0  0  0  0  0  0  0  0  0  0  0
   -1.3407    0.5607   -1.1580 C   0  0  0  0  0  0  0  0  0  0  0  0
   -3.7559    1.1679   -1.3466 C   0  0  0  0  0  0  0  0  0  0  0  0
   -3.7229    1.7100    0.0977 C   0  0  0  0  0  0  0  0  0  0  0  0
   -3.0167   -0.4213    0.9541 C   0  0  0  0  0  0  0  0  0  0  0  0
   -3.0704   -1.0059   -0.4387 C   0  0  0  0  0  0  0  0  0  0  0  0
   -0.1895    0.8085    1.1050 C   0  0  0  0  0  0  0  0  0  0  0  0
   -3.3749   -2.2840   -0.6944 C   0  0  0  0  0  0  0  0  0  0  0  0
    1.1340    1.0961    0.4419 C   0  0  0  0  0  0  0  0  0  0  0  0
    2.0567    0.0849    0.1717 C   0  0  0  0  0  0  0  0  0  0  0  0
   -3.6986   -3.2904    0.3573 C   0  0  0  0  0  0  0  0  0  0  0  0
    1.4002    2.4109    0.1093 C   0  0  0  0  0  0  0  0  0  0  0  0
    3.2677    0.4521   -0.4514 C   0  0  0  0  0  0  0  0  0  0  0  0
    1.8068   -1.2582    0.5011 C   0  0  0  0  0  0  0  0  0  0  0  0
    2.6118    2.6732   -0.4974 C   0  0  0  0  0  0  0  0  0  0  0  0
    4.1941   -0.5506   -0.7246 C   0  0  0  0  0  0  0  0  0  0  0  0
    2.7509   -2.2405    0.2163 C   0  0  0  0  0  0  0  0  0  0  0  0
    3.9459   -1.8859   -0.3973 C   0  0  0  0  0  0  0  0  0  0  0  0
  1 12  1  0
  2 22  1  0
  3  6  1  0
  3  9  1  0
  3 10  1  0
  4 18  2  0
  4 20  1  0
  5  7  1  0
  5  8  1  0
  5 11  1  0
  6  7  1  0
  6 12  1  0
  8  9  1  0
 10 11  1  0
 11 13  2  0
 12 14  1  0
 13 16  1  0
 14 15  2  0
 14 17  1  0
 15 18  1  0
 15 19  1  0
 17 20  2  0
 18 21  1  0
 19 22  2  0
 21 23  2  0
 22 23  1  0
M  END
>  <PUBCHEM_COMPOUND_CID>  (1) 
46680

>  <PUBCHEM_CONFORMER_RMSD>  (1) 
0.6

>  <PUBCHEM_CONFORMER_DIVERSEORDER>  (1) 
2
23
20
24
1
14
12
21
8
10
19
4
17
11
18
15
22
16
6
9
7
3
5
13

>  <PUBCHEM_MMFF94_PARTIAL_CHARGES>  (1) 
28
1 -0.68
10 0.41
11 -0.28
12 0.42
13 -0.29
14 -0.14
16 0.14
17 -0.15
18 0.31
19 -0.15
2 -0.53
20 0.16
21 -0.15
22 0.08
23 -0.15
3 -0.81
35 0.15
36 0.4
4 -0.62
40 0.15
41 0.15
42 0.15
43 0.15
44 0.15
45 0.45
5 0.14
6 0.27
9 0.27

>  <PUBCHEM_EFFECTIVE_ROTOR_COUNT>  (1) 
3

>  <PUBCHEM_PHARMACOPHORE_FEATURES>  (1) 
9
1 1 acceptor
1 1 donor
1 16 hydrophobe
1 2 donor
1 3 cation
1 4 acceptor
6 15 18 19 21 22 23 rings
6 4 14 15 17 18 20 rings
8 3 5 6 7 8 9 10 11 rings

>  <PUBCHEM_HEAVY_ATOM_COUNT>  (1) 
23

>  <PUBCHEM_ATOM_DEF_STEREO_COUNT>  (1) 
0

>  <PUBCHEM_ATOM_UDEF_STEREO_COUNT>  (1) 
3

>  <PUBCHEM_BOND_DEF_STEREO_COUNT>  (1) 
0

>  <PUBCHEM_BOND_UDEF_STEREO_COUNT>  (1) 
1

>  <PUBCHEM_ISOTOPIC_ATOM_COUNT>  (1) 
0

>  <PUBCHEM_COMPONENT_COUNT>  (1) 
1

>  <PUBCHEM_CACTVS_TAUTO_COUNT>  (1) 
3

>  <PUBCHEM_CONFORMER_ID>  (1) 
0000B65800000002

>  <PUBCHEM_MMFF94_ENERGY>  (1) 
72.2578

>  <PUBCHEM_FEATURE_SELFOVERLAP>  (1) 
45.702

>  <PUBCHEM_SHAPE_FINGERPRINT>  (1) 
10616163 171 18413109476324865799
11578080 2 17843096153197036072
12363563 72 16486960778918329345
12553582 1 18194683657641812162
12596599 1 18129117653263332774
12633257 1 18265610983575016255
12788726 201 17559964207946294961
13004483 165 17758666755464459210
13224815 77 18410570725276554744
13533116 47 18341888628421718951
13583140 156 17917137416213079497
13944108 23 16239528606587293469
14787075 74 17557701662351268712
15664445 248 17461988058572289981
16752209 62 17274541993029064113
17349148 13 17346307155887081517
17492 89 18411420643528731702
18186145 218 17313106328170085848
19930381 70 18047192139850793085
20291156 8 18271244911425817438
21634736 98 18412545422833705742
221490 88 18337396036373677486
22393880 68 18410580604229038636
23379529 103 18201733816604955102
235170 7 17677877114803881687
23557571 272 16805619091518002025
23559900 14 18411407423581945088
23566358 27 18263378017282393229
23598288 3 17846509114524632105
238 59 18043256936416258412
2838139 119 16154290411284525102
2871803 45 18192988438350329639
3323516 105 18260552233617494792
339767 52 18200864072720695638
3737641 26 18122919873742961131
4280585 95 18122063105546332006
46194498 28 17821732749157435021
463206 1 18190745232813962370
4921388 177 17385450929439978275
6287921 2 17969514894353442325
633830 44 16660648448719714404
9709674 26 18261956357226856707

>  <PUBCHEM_SHAPE_MULTIPOLES>  (1) 
451.63
8.4
3.45
1.3
0.13
2.27
0.24
2.9
-2.08
-0.56
0.28
0.68
-0.4
-0.2

>  <PUBCHEM_SHAPE_SELFOVERLAP>  (1) 
993.289

>  <PUBCHEM_SHAPE_VOLUME>  (1) 
240.1

>  <PUBCHEM_COORDINATE_TYPE>  (1) 
2
5
10

$$$$
