46695
     RDKit          3D

 14 15  0  0  1  0  0  0  0  0999 V2000
    2.9384    0.9673    0.4625 O   0  0  0  0  0  0  0  0  0  0  0  0
    2.8779   -1.7500   -0.1068 O   0  0  0  0  0  0  0  0  0  0  0  0
   -3.1688    0.3474    0.5457 N   0  0  0  0  0  0  0  0  0  0  0  0
   -1.9670    1.1868    0.3802 C   0  0  0  0  0  0  0  0  0  0  0  0
   -0.6789    0.3939    0.2570 C   0  0  0  0  0  0  0  0  0  0  0  0
   -0.7050   -0.9811   -0.0398 C   0  0  0  0  0  0  0  0  0  0  0  0
   -2.0167   -1.7109   -0.1684 C   0  0  0  0  0  0  0  0  0  0  0  0
   -3.1918   -0.7645   -0.4062 C   0  0  0  0  0  0  0  0  0  0  0  0
   -2.1505    2.1501   -0.7988 C   0  0  0  0  0  0  0  0  0  0  0  0
    0.5589    1.0349    0.4223 C   0  0  0  0  0  0  0  0  0  0  0  0
    0.4984   -1.6913   -0.1533 C   0  0  0  0  0  0  0  0  0  0  0  0
    1.7509    0.3212    0.2975 C   0  0  0  0  0  0  0  0  0  0  0  0
    1.7206   -1.0407    0.0097 C   0  0  0  0  0  0  0  0  0  0  0  0
    3.5337    1.5368   -0.7016 C   0  0  0  0  0  0  0  0  0  0  0  0
  1 12  1  0
  1 14  1  0
  2 13  1  0
  3  4  1  0
  3  8  1  0
  4  5  1  0
  4  9  1  0
  5  6  2  0
  5 10  1  0
  6  7  1  0
  6 11  1  0
  7  8  1  0
 10 12  2  0
 11 13  2  0
 12 13  1  0
M  END
>  <PUBCHEM_COMPOUND_CID>  (1) 
46695

>  <PUBCHEM_CONFORMER_RMSD>  (1) 
0.6

>  <PUBCHEM_CONFORMER_DIVERSEORDER>  (1) 
1
2

>  <PUBCHEM_MMFF94_PARTIAL_CHARGES>  (1) 
17
1 -0.36
10 -0.15
11 -0.15
12 0.08
13 0.08
14 0.28
2 -0.53
20 0.36
24 0.15
25 0.15
26 0.45
3 -0.9
4 0.41
5 -0.14
6 -0.14
7 0.14
8 0.27

>  <PUBCHEM_EFFECTIVE_ROTOR_COUNT>  (1) 
1.8

>  <PUBCHEM_PHARMACOPHORE_FEATURES>  (1) 
6
1 1 acceptor
1 2 donor
1 3 cation
1 3 donor
6 3 4 5 6 7 8 rings
6 5 6 10 11 12 13 rings

>  <PUBCHEM_HEAVY_ATOM_COUNT>  (1) 
14

>  <PUBCHEM_ATOM_DEF_STEREO_COUNT>  (1) 
0

>  <PUBCHEM_ATOM_UDEF_STEREO_COUNT>  (1) 
1

>  <PUBCHEM_BOND_DEF_STEREO_COUNT>  (1) 
0

>  <PUBCHEM_BOND_UDEF_STEREO_COUNT>  (1) 
0

>  <PUBCHEM_ISOTOPIC_ATOM_COUNT>  (1) 
0

>  <PUBCHEM_COMPONENT_COUNT>  (1) 
1

>  <PUBCHEM_CACTVS_TAUTO_COUNT>  (1) 
9

>  <PUBCHEM_CONFORMER_ID>  (1) 
0000B66700000001

>  <PUBCHEM_MMFF94_ENERGY>  (1) 
39.8529

>  <PUBCHEM_FEATURE_SELFOVERLAP>  (1) 
30.467

>  <PUBCHEM_SHAPE_FINGERPRINT>  (1) 
10608611 8 18410289177312085616
10967382 1 18339922731026067723
11132069 177 18341889757222787544
11206711 2 18269831068026227941
12932764 1 17969507013151328323
13140716 1 18268427945107420514
13380535 21 18341623623958857386
13380535 76 18410572933275139714
14325111 11 18412262817890030697
14614273 12 18408877451811219557
15219456 202 18337951190660730709
15279308 100 18120088381939568588
15536298 74 18272934912648656930
15775835 57 18341901800474563705
16945 1 18268986664549716347
17844478 74 18261122854799147425
18186145 218 18271250413162976556
21501502 16 18413388717802160971
21524375 3 18337952410985200896
2334 1 18412542111070756250
23402655 69 18272359872546725733
23463225 33 18410853231383208570
23552423 10 18336544932474111642
23559900 14 18056195766447065694
2748010 2 18341047428247089430
3071541 158 18192998106484976998
353137 74 18335692871355559627
5084963 1 18343016649467470643
5255222 1 18271235127300582185
528886 8 18340481287254442587
53812653 166 18130783520727163888
57096353 35 18270114746368569511
57177213 63 18261674860928023918
58051976 378 18412543249427312284
63268167 104 18342459231305202763
7364860 26 18272371936872853286

>  <PUBCHEM_SHAPE_MULTIPOLES>  (1) 
271.39
5.33
2.19
0.76
1.49
0.04
-0.04
1.05
-0.54
-0.03
-0.38
-0.05
0.19
-0.09

>  <PUBCHEM_SHAPE_SELFOVERLAP>  (1) 
571.847

>  <PUBCHEM_SHAPE_VOLUME>  (1) 
153.3

>  <PUBCHEM_COORDINATE_TYPE>  (1) 
2
5
10

$$$$
