46698
     RDKit          3D

 22 22  0  0  0  0  0  0  0  0999 V2000
    8.1174    3.3285    0.6137 S   0  0  0  0  0  0  0  0  0  0  0  0
    3.0024   -1.6471    0.1934 O   0  0  0  0  0  0  0  0  0  0  0  0
    8.0197    0.7008   -0.2714 N   0  0  0  0  0  0  0  0  0  0  0  0
   -4.3932   -0.4354    0.3600 C   0  0  0  0  0  0  0  0  0  0  0  0
   -5.6192    0.1734   -0.3294 C   0  0  0  0  0  0  0  0  0  0  0  0
   -3.0877   -0.1942   -0.4016 C   0  0  0  0  0  0  0  0  0  0  0  0
   -6.9465    0.0443    0.4263 C   0  0  0  0  0  0  0  0  0  0  0  0
   -1.8645   -0.8138    0.2818 C   0  0  0  0  0  0  0  0  0  0  0  0
   -8.1413    0.6181   -0.3396 C   0  0  0  0  0  0  0  0  0  0  0  0
   -0.5617   -0.5941   -0.4913 C   0  0  0  0  0  0  0  0  0  0  0  0
   -9.4792    0.4095    0.3775 C   0  0  0  0  0  0  0  0  0  0  0  0
    0.6225   -1.2569    0.2205 C   0  0  0  0  0  0  0  0  0  0  0  0
  -10.6785    0.9576   -0.3970 C   0  0  0  0  0  0  0  0  0  0  0  0
    1.9374   -1.0307   -0.5159 C   0  0  0  0  0  0  0  0  0  0  0  0
  -11.9691    0.7930    0.3916 C   0  0  0  0  0  0  0  0  0  0  0  0
    4.2397   -1.0679    0.0785 C   0  0  0  0  0  0  0  0  0  0  0  0
    4.5863   -0.3881   -1.0892 C   0  0  0  0  0  0  0  0  0  0  0  0
    5.1521   -1.1583    1.1299 C   0  0  0  0  0  0  0  0  0  0  0  0
    5.8452    0.2011   -1.2055 C   0  0  0  0  0  0  0  0  0  0  0  0
    6.4109   -0.5691    1.0135 C   0  0  0  0  0  0  0  0  0  0  0  0
    6.7574    0.1108   -0.1542 C   0  0  0  0  0  0  0  0  0  0  0  0
    8.0497    1.8182    0.1083 C   0  0  0  0  0  0  0  0  0  0  0  0
  1 22  2  0
  2 14  1  0
  2 16  1  0
  3 21  1  0
  3 22  2  0
  4  5  1  0
  4  6  1  0
  5  7  1  0
  6  8  1  0
  7  9  1  0
  8 10  1  0
  9 11  1  0
 10 12  1  0
 11 13  1  0
 12 14  1  0
 13 15  1  0
 16 17  2  0
 16 18  1  0
 17 19  1  0
 18 20  2  0
 19 21  2  0
 20 21  1  0
M  END
>  <PUBCHEM_COMPOUND_CID>  (1) 
46698

>  <PUBCHEM_CONFORMER_RMSD>  (1) 
1.4

>  <PUBCHEM_CONFORMER_DIVERSEORDER>  (1) 
1
28
44
6
15
25
13
16
49
24
30
38
3
21
10
33
22
51
23
11
5
4
53
29
26
52
32
48
34
45
9
37
35
40
36
7
17
31
18
46
20
27
2
42
19
43
39
50
47
14
8
12
41

>  <PUBCHEM_MMFF94_PARTIAL_CHARGES>  (1) 
15
1 -0.27
14 0.28
16 0.08
17 -0.15
18 -0.15
19 -0.15
2 -0.36
20 -0.15
21 0.18
22 0.57
3 -0.48
48 0.15
49 0.15
50 0.15
51 0.15

>  <PUBCHEM_EFFECTIVE_ROTOR_COUNT>  (1) 
13

>  <PUBCHEM_PHARMACOPHORE_FEATURES>  (1) 
5
1 1 acceptor
1 15 hydrophobe
1 2 acceptor
1 3 acceptor
6 16 17 18 19 20 21 rings

>  <PUBCHEM_HEAVY_ATOM_COUNT>  (1) 
22

>  <PUBCHEM_ATOM_DEF_STEREO_COUNT>  (1) 
0

>  <PUBCHEM_ATOM_UDEF_STEREO_COUNT>  (1) 
0

>  <PUBCHEM_BOND_DEF_STEREO_COUNT>  (1) 
0

>  <PUBCHEM_BOND_UDEF_STEREO_COUNT>  (1) 
0

>  <PUBCHEM_ISOTOPIC_ATOM_COUNT>  (1) 
0

>  <PUBCHEM_COMPONENT_COUNT>  (1) 
1

>  <PUBCHEM_CACTVS_TAUTO_COUNT>  (1) 
1

>  <PUBCHEM_CONFORMER_ID>  (1) 
0000B66A00000001

>  <PUBCHEM_MMFF94_ENERGY>  (1) 
32.8994

>  <PUBCHEM_FEATURE_SELFOVERLAP>  (1) 
25.376

>  <PUBCHEM_SHAPE_FINGERPRINT>  (1) 
11211813 74 17774717662752156144
11315181 36 18273218587366080795
11408170 108 10665218242544059449
11638347 137 12612751319691162825
12559415 86 14045476514635648131
12592606 108 9799695900034641255
12838862 33 16877936149526959427
13668630 136 10807942565853703102
14202775 3 9727627329131878485
14251764 46 16877946023482472163
14344974 52 18343018930954843767
14428016 248 18060704979606689673
14617042 71 18411421751899306252
15183329 4 13254802330359478182
15247644 1 8286190649461278313
155225 1 18413671327262277880
15690457 1 7997970163178130652
15773216 30 14979409356930898525
15840311 113 18408888451945183932
1818759 1 10663817486420951885
2026 5 9006797375300855040
20812841 46 18040992939544052514
21095086 128 10303813181593656415
21130991 4 10879730762733138396
21150785 3 16988844973060798967
21362267 2 18339065069445774813
21362267 313 18117555129515390587
21792934 111 17313101955771864940
21792961 116 8214147340352083979
22224240 67 17967250905459701698
232437 2 10159692496508326845
246663 6 11024107651011734639
28498 318 10303814276462280731
33532 11 8358264735355249872
33684 2 11314312746569492719
57816332 2 17704076183160351983
57828716 57 14564463552426139888
59521099 67 12391505396050899594
59521506 201 17057506327303233192
59682541 35 17894633664782830545
67123 10 18335421258404638191
9937071 3 9295289443250359780

>  <PUBCHEM_SHAPE_MULTIPOLES>  (1) 
445.75
42.84
1.89
0.95
98.32
1.74
0.02
27.72
-2.9
-6.01
-0.4
-1.04
-0.07
0.34

>  <PUBCHEM_SHAPE_SELFOVERLAP>  (1) 
860.383

>  <PUBCHEM_SHAPE_VOLUME>  (1) 
271.8

>  <PUBCHEM_COORDINATE_TYPE>  (1) 
2
5
10

$$$$
