46710
     RDKit          3D

 21 22  0  0  0  0  0  0  0  0999 V2000
   -4.2849   -1.9532   -0.1559 O   0  0  0  0  0  0  0  0  0  0  0  0
   -5.0445    0.6472   -0.7649 O   0  0  0  0  0  0  0  0  0  0  0  0
    5.5055   -0.4833   -0.5997 N   0  0  0  0  0  0  0  0  0  0  0  0
    1.0185    0.6290    1.0333 N   0  0  0  0  0  0  0  0  0  0  0  0
    4.7019   -0.2493    0.6231 C   0  0  0  0  0  0  0  0  0  0  0  0
    3.2525    0.0458    0.2628 C   0  0  0  0  0  0  0  0  0  0  0  0
    6.9664   -0.7957   -0.2432 C   0  0  0  0  0  0  0  0  0  0  0  0
    4.9484   -1.6681   -1.4023 C   0  0  0  0  0  0  0  0  0  0  0  0
    5.4927    0.7544   -1.5086 C   0  0  0  0  0  0  0  0  0  0  0  0
    2.3799    0.3455    1.4784 C   0  0  0  0  0  0  0  0  0  0  0  0
    0.1517   -0.3863    0.9264 C   0  0  0  0  0  0  0  0  0  0  0  0
    0.6857    1.8932    0.7477 C   0  0  0  0  0  0  0  0  0  0  0  0
   -1.1586   -0.1541    0.5035 C   0  0  0  0  0  0  0  0  0  0  0  0
   -1.5413    1.1692    0.1946 C   0  0  0  0  0  0  0  0  0  0  0  0
   -0.5993    2.1977    0.3219 C   0  0  0  0  0  0  0  0  0  0  0  0
   -2.0929   -1.1945    0.3804 C   0  0  0  0  0  0  0  0  0  0  0  0
   -2.8558    1.4195   -0.2316 C   0  0  0  0  0  0  0  0  0  0  0  0
   -3.3944   -0.9281   -0.0450 C   0  0  0  0  0  0  0  0  0  0  0  0
   -3.7752    0.3760   -0.3502 C   0  0  0  0  0  0  0  0  0  0  0  0
   -5.0644   -2.2623    0.9978 C   0  0  0  0  0  0  0  0  0  0  0  0
   -5.2920    0.5976   -2.1685 C   0  0  0  0  0  0  0  0  0  0  0  0
  1 18  1  0
  1 20  1  0
  2 19  1  0
  2 21  1  0
  3  5  1  0
  3  7  1  0
  3  8  1  0
  3  9  1  0
  4 10  1  0
  4 11  2  0
  4 12  1  0
  5  6  1  0
  6 10  1  0
 11 13  1  0
 12 15  2  0
 13 14  2  0
 13 16  1  0
 14 15  1  0
 14 17  1  0
 16 18  2  0
 17 19  2  0
 18 19  1  0
M  CHG  2   3   1   4   1
M  END
>  <PUBCHEM_COMPOUND_CID>  (1) 
46710

>  <PUBCHEM_CONFORMER_RMSD>  (1) 
0.8

>  <PUBCHEM_CONFORMER_DIVERSEORDER>  (1) 
2
5
7
3
10
9
1
6
8
4

>  <PUBCHEM_MMFF94_PARTIAL_CHARGES>  (1) 
23
1 -0.36
10 0.49
11 0.21
12 0.21
15 -0.15
16 -0.15
17 -0.15
18 0.08
19 0.08
2 -0.36
20 0.28
21 0.28
3 -1.01
37 0.15
38 0.15
39 0.15
4 -0.21
40 0.15
41 0.15
5 0.5
7 0.5
8 0.5
9 0.5

>  <PUBCHEM_EFFECTIVE_ROTOR_COUNT>  (1) 
6

>  <PUBCHEM_PHARMACOPHORE_FEATURES>  (1) 
5
1 1 acceptor
1 2 acceptor
1 3 cation
6 13 14 16 17 18 19 rings
6 4 11 12 13 14 15 rings

>  <PUBCHEM_HEAVY_ATOM_COUNT>  (1) 
21

>  <PUBCHEM_ATOM_DEF_STEREO_COUNT>  (1) 
0

>  <PUBCHEM_ATOM_UDEF_STEREO_COUNT>  (1) 
0

>  <PUBCHEM_BOND_DEF_STEREO_COUNT>  (1) 
0

>  <PUBCHEM_BOND_UDEF_STEREO_COUNT>  (1) 
0

>  <PUBCHEM_ISOTOPIC_ATOM_COUNT>  (1) 
0

>  <PUBCHEM_COMPONENT_COUNT>  (1) 
1

>  <PUBCHEM_CACTVS_TAUTO_COUNT>  (1) 
1

>  <PUBCHEM_CONFORMER_ID>  (1) 
0000B67600000002

>  <PUBCHEM_MMFF94_ENERGY>  (1) 
88.7407

>  <PUBCHEM_FEATURE_SELFOVERLAP>  (1) 
25.404

>  <PUBCHEM_SHAPE_FINGERPRINT>  (1) 
10 15 9943520838462788246
10692045 39 7925369415456725908
11089746 13 16660364784227119212
11128504 68 17748830735038015148
11315181 36 18408045104830244832
12236239 1 17313099748596342426
12403259 118 11815897890064835155
12633257 1 15195569034714150278
12670543 26 18339916018092664333
12670546 177 18259988167400007028
12760667 363 17561085769935765154
12892183 10 11600014240780564724
12954195 1 18341048502184651065
12969540 114 14056716868006142312
13103583 49 14908184165660967802
13288520 33 18342177769255702265
13402501 40 18131356306309154406
13533116 47 16128363913799887464
13631057 29 14707786141954721409
13685833 64 17988647427732502978
13690498 29 18114460175813231079
14251752 14 17822282449453011604
14251757 5 18260269693383932738
14366163 111 17167579384786945000
14528608 73 17240483628531993156
14790565 3 17262166826439528601
15183329 4 18040712541739190620
15209294 21 9511463312217423672
17834072 8 18409160004887934037
17844677 252 16988842770228133304
17870717 6 18410854352453880471
1813 80 15554457301454846352
18222031 100 17775556546762538296
193927 3 17561091302085809496
200 152 16702015361864300344
20374829 77 18341891887916748618
20567600 254 8142093022250401738
20645477 56 7853572409509878376
20871999 31 18336546032138759272
21267235 1 18335984264092466347
21307412 95 18201999919634841303
21637258 2 16343409648907759724
2215653 11 18201992218647371365
2297311 6 18409732876379222555
23175994 123 17489864955775867345
23198884 109 16732702752828205874
23379529 103 17905047302550689675
23402539 116 18333731308373175174
23559900 14 18340197596196400864
2838139 119 15213017150612966782
2916195 48 11241971486045477262
3004659 81 18333449825328892898
312425 54 13830143771299032558
335352 9 18410288108867458013
4259306 186 17988640770706975140
543368 44 16081369674215933535
56616090 284 18408609158331538850
8217 86 17896329197459694371

>  <PUBCHEM_SHAPE_MULTIPOLES>  (1) 
410.47
15.29
1.98
1.42
15.21
0.17
0.52
6.1
6.94
-1.78
-0.19
-0.05
-0.07
1.46

>  <PUBCHEM_SHAPE_SELFOVERLAP>  (1) 
850.31

>  <PUBCHEM_SHAPE_VOLUME>  (1) 
239.5

>  <PUBCHEM_COORDINATE_TYPE>  (1) 
2
5
10

$$$$
