46734
     RDKit          3D

 20 21  0  0  0  0  0  0  0  0999 V2000
    3.6467   -0.2046    0.1506 N   0  0  0  0  0  0  0  0  0  0  0  0
   -1.0703    0.6746   -0.8584 N   0  0  0  0  0  0  0  0  0  0  0  0
    2.7098    0.2072   -0.9209 C   0  0  0  0  0  0  0  0  0  0  0  0
    3.6187    0.7947    1.3164 C   0  0  0  0  0  0  0  0  0  0  0  0
    3.2733   -1.5885    0.7020 C   0  0  0  0  0  0  0  0  0  0  0  0
    5.0865   -0.2768   -0.3788 C   0  0  0  0  0  0  0  0  0  0  0  0
    1.2850    0.2765   -0.3889 C   0  0  0  0  0  0  0  0  0  0  0  0
    0.2613    0.6481   -1.4579 C   0  0  0  0  0  0  0  0  0  0  0  0
    4.6168    0.3617    2.3680 C   0  0  0  0  0  0  0  0  0  0  0  0
    3.2925   -2.5963   -0.4265 C   0  0  0  0  0  0  0  0  0  0  0  0
    5.5123    1.0955   -0.8531 C   0  0  0  0  0  0  0  0  0  0  0  0
   -1.7974   -0.4501   -0.8556 C   0  0  0  0  0  0  0  0  0  0  0  0
   -1.5162    1.8218   -0.3340 C   0  0  0  0  0  0  0  0  0  0  0  0
   -3.0749   -0.4631   -0.2923 C   0  0  0  0  0  0  0  0  0  0  0  0
   -3.5745    0.7318    0.2697 C   0  0  0  0  0  0  0  0  0  0  0  0
   -2.7767    1.8825    0.2428 C   0  0  0  0  0  0  0  0  0  0  0  0
   -3.8645   -1.6233   -0.2729 C   0  0  0  0  0  0  0  0  0  0  0  0
   -4.8581    0.7355    0.8398 C   0  0  0  0  0  0  0  0  0  0  0  0
   -5.1372   -1.6021    0.2975 C   0  0  0  0  0  0  0  0  0  0  0  0
   -5.6330   -0.4252    0.8528 C   0  0  0  0  0  0  0  0  0  0  0  0
  1  3  1  0
  1  4  1  0
  1  5  1  0
  1  6  1  0
  2  8  1  0
  2 12  2  0
  2 13  1  0
  3  7  1  0
  4  9  1  0
  5 10  1  0
  6 11  1  0
  7  8  1  0
 12 14  1  0
 13 16  2  0
 14 15  2  0
 14 17  1  0
 15 16  1  0
 15 18  1  0
 17 19  2  0
 18 20  2  0
 19 20  1  0
M  CHG  2   1   1   2   1
M  END
>  <PUBCHEM_COMPOUND_CID>  (1) 
46734

>  <PUBCHEM_CONFORMER_RMSD>  (1) 
0.8

>  <PUBCHEM_CONFORMER_DIVERSEORDER>  (1) 
1
37
55
28
2
57
20
9
56
22
11
34
8
50
41
29
10
44
17
60
33
26
30
59
24
7
38
45
39
21
58
3
18
4
14
27
6
5
19
47
31
43
49
23
61
12
36
25
32
15
54
40
35
13
53
16
48
51
46
52
42

>  <PUBCHEM_MMFF94_PARTIAL_CHARGES>  (1) 
21
1 -1.01
12 0.21
13 0.21
16 -0.15
17 -0.15
18 -0.15
19 -0.15
2 -0.21
20 -0.15
3 0.5
4 0.5
42 0.15
43 0.15
44 0.15
45 0.15
46 0.15
47 0.15
48 0.15
5 0.5
6 0.5
8 0.49

>  <PUBCHEM_EFFECTIVE_ROTOR_COUNT>  (1) 
7

>  <PUBCHEM_PHARMACOPHORE_FEATURES>  (1) 
3
1 1 cation
6 14 15 17 18 19 20 rings
6 2 12 13 14 15 16 rings

>  <PUBCHEM_HEAVY_ATOM_COUNT>  (1) 
20

>  <PUBCHEM_ATOM_DEF_STEREO_COUNT>  (1) 
0

>  <PUBCHEM_ATOM_UDEF_STEREO_COUNT>  (1) 
0

>  <PUBCHEM_BOND_DEF_STEREO_COUNT>  (1) 
0

>  <PUBCHEM_BOND_UDEF_STEREO_COUNT>  (1) 
0

>  <PUBCHEM_ISOTOPIC_ATOM_COUNT>  (1) 
0

>  <PUBCHEM_COMPONENT_COUNT>  (1) 
1

>  <PUBCHEM_CACTVS_TAUTO_COUNT>  (1) 
1

>  <PUBCHEM_CONFORMER_ID>  (1) 
0000B68E00000001

>  <PUBCHEM_MMFF94_ENERGY>  (1) 
73.003

>  <PUBCHEM_FEATURE_SELFOVERLAP>  (1) 
15.251

>  <PUBCHEM_SHAPE_FINGERPRINT>  (1) 
10319926 262 18198615550003753386
10366900 7 18408885178541599336
10447042 23 15864063282924202496
11045977 3 17846498157978287417
11089746 13 10735877244621100534
11552529 35 17560229340630479223
11796584 16 17240485831998091315
12107183 9 17761779459570419496
12236239 1 17968100827995055549
12553582 1 18335413599549366188
12596602 18 17203328957102184411
12670546 177 10881406439141961435
12892183 10 18272929401540835093
13167823 11 18335986380519540238
13533116 47 18201157642140935783
13583140 156 18129646522350696932
1420 369 18186241723338323595
14341114 176 18201726141117912712
14341114 328 18408605872391484592
14420673 8 17836372544687088958
146900 427 18114183098846160212
14848160 23 14562525193821789944
14849402 71 18265897042195045668
15342168 16 14836123281926225245
17349148 13 17385725785402450803
17857418 61 18040997371248831135
17870717 6 11963387415075697825
17959699 21 10015575099796212935
1813 80 17240491290426660823
18222031 100 17748825219930820324
18335252 114 10879449239983688531
19377110 9 18187357753679417096
193927 3 17676501544400756243
200 152 16443061703574659605
204376 136 15195570113136187549
20645477 56 17060341812169129757
20645477 70 14634862029595833768
21033648 29 15769493119155574257
21065198 48 18410015394611051309
21065199 12 18272083855750865392
212847 35 13039189217086343594
21503847 285 16415478259985097560
21673915 165 18335422356887962167
22061861 79 14201392781184396331
22079108 93 14189573053351692055
22646028 1 17240759575347827624
2297311 6 18201734941469206724
23366157 5 17902802091585984629
23559900 14 17986414229506352549
2838139 119 11311787124925924891
312425 54 18343867697469600403
351380 180 9511461108856957206
351380 3 17748827427354132107
5104073 3 18270678649762539178
542803 24 14836404739569839052
57724786 102 15195282071106898208
5924683 9 17703218637800851487
59755656 520 14189578529161045381
633830 44 15123499316305513924
6442390 28 18342454881189627598
90127 26 17132112437835196008
960060 61 13840270273132217162

>  <PUBCHEM_SHAPE_MULTIPOLES>  (1) 
401.63
14.15
1.94
1.39
0.29
0.72
-0.56
1.96
-3.89
-0.19
0.08
1.62
-0.26
0.03

>  <PUBCHEM_SHAPE_SELFOVERLAP>  (1) 
827.327

>  <PUBCHEM_SHAPE_VOLUME>  (1) 
230.8

>  <PUBCHEM_COORDINATE_TYPE>  (1) 
2
5
10

$$$$
