46732
     RDKit          3D

 17 18  0  0  1  0  0  0  0  0999 V2000
   -3.7494   -0.7066    0.3452 N   0  0  0  0  0  0  0  0  0  0  0  0
    0.0040    1.3313   -0.1226 N   0  0  0  0  0  0  0  0  0  0  0  0
   -2.6599    0.2868    0.5027 C   0  0  0  0  0  0  0  0  0  0  0  0
   -2.2817    0.8336   -0.8665 C   0  0  0  0  0  0  0  0  0  0  0  0
   -1.1917    1.8970   -0.7460 C   0  0  0  0  0  0  0  0  0  0  0  0
    1.0288    2.3644    0.0719 C   0  0  0  0  0  0  0  0  0  0  0  0
    0.5396    0.2314   -0.9441 C   0  0  0  0  0  0  0  0  0  0  0  0
    2.1819    1.8027    0.9098 C   0  0  0  0  0  0  0  0  0  0  0  0
    1.8554   -0.3105   -0.4340 C   0  0  0  0  0  0  0  0  0  0  0  0
   -4.9991   -0.0552   -0.2642 C   0  0  0  0  0  0  0  0  0  0  0  0
   -3.3131   -1.8541   -0.5770 C   0  0  0  0  0  0  0  0  0  0  0  0
   -4.1403   -1.3089    1.7023 C   0  0  0  0  0  0  0  0  0  0  0  0
    2.6626    0.4619    0.4189 C   0  0  0  0  0  0  0  0  0  0  0  0
    2.3077   -1.5654   -0.8633 C   0  0  0  0  0  0  0  0  0  0  0  0
    3.8913   -0.0469    0.8591 C   0  0  0  0  0  0  0  0  0  0  0  0
    3.5370   -2.0593   -0.4272 C   0  0  0  0  0  0  0  0  0  0  0  0
    4.3267   -1.3020    0.4350 C   0  0  0  0  0  0  0  0  0  0  0  0
  1  3  1  0
  1 10  1  0
  1 11  1  0
  1 12  1  0
  2  5  1  0
  2  6  1  0
  2  7  1  0
  3  4  1  0
  4  5  1  0
  6  8  1  0
  7  9  1  0
  8 13  1  0
  9 13  2  0
  9 14  1  0
 13 15  1  0
 14 16  2  0
 15 17  2  0
 16 17  1  0
M  CHG  1   1   1
M  END
>  <PUBCHEM_COMPOUND_CID>  (1) 
46732

>  <PUBCHEM_CONFORMER_RMSD>  (1) 
0.6

>  <PUBCHEM_CONFORMER_DIVERSEORDER>  (1) 
2
5
4
8
12
13
10
9
11
7
6
3
1

>  <PUBCHEM_MMFF94_PARTIAL_CHARGES>  (1) 
20
1 -1.01
10 0.5
11 0.5
12 0.5
13 -0.14
14 -0.15
15 -0.15
16 -0.15
17 -0.15
2 -0.81
3 0.5
39 0.15
40 0.15
41 0.15
42 0.15
5 0.27
6 0.27
7 0.41
8 0.14
9 -0.14

>  <PUBCHEM_EFFECTIVE_ROTOR_COUNT>  (1) 
4.8

>  <PUBCHEM_PHARMACOPHORE_FEATURES>  (1) 
4
1 1 cation
1 2 cation
6 2 6 7 8 9 13 rings
6 9 13 14 15 16 17 rings

>  <PUBCHEM_HEAVY_ATOM_COUNT>  (1) 
17

>  <PUBCHEM_ATOM_DEF_STEREO_COUNT>  (1) 
0

>  <PUBCHEM_ATOM_UDEF_STEREO_COUNT>  (1) 
0

>  <PUBCHEM_BOND_DEF_STEREO_COUNT>  (1) 
0

>  <PUBCHEM_BOND_UDEF_STEREO_COUNT>  (1) 
0

>  <PUBCHEM_ISOTOPIC_ATOM_COUNT>  (1) 
0

>  <PUBCHEM_COMPONENT_COUNT>  (1) 
1

>  <PUBCHEM_CACTVS_TAUTO_COUNT>  (1) 
1

>  <PUBCHEM_CONFORMER_ID>  (1) 
0000B68C00000002

>  <PUBCHEM_MMFF94_ENERGY>  (1) 
50.1086

>  <PUBCHEM_FEATURE_SELFOVERLAP>  (1) 
20.319

>  <PUBCHEM_SHAPE_FINGERPRINT>  (1) 
10618630 7 18334296469992108989
10764073 3 8064457455517047196
11471102 22 18273210889661111844
11543360 7 16877953702551487028
11552529 35 17345745434025619415
117890 22 18410859897093395499
11796584 16 17531242833692716283
12032990 46 18341047398746762412
12251169 10 17988922279658347757
12363563 72 18114472218447400147
12506688 2 18413389808887345552
12553582 1 18340781398183960599
12596599 1 17988938794177418151
12596602 18 16271915051957409427
12633257 1 17988934378966576243
12670546 177 12251910295469224313
13296908 3 18409444752381823924
13464514 151 8646501746819717516
13533116 47 18130223865504080283
13544653 18 18409450279994073773
14123255 352 11023819561474275298
14251764 30 16772131133122644590
14252887 29 17917149403825128526
14386348 63 18334856108568040359
14787075 74 18334857251525102928
14790565 3 17689997160468884156
15352361 1 18410009922970584575
15422964 175 18269553849689096796
15885798 251 18335704927503216045
1813 80 17749394753926870133
19141452 34 18413669119743981479
193927 3 18187093827305990483
19862831 5 14201116808192653877
20261772 1 18059849575975388046
20281475 54 18408892819098833005
20374829 77 18040713654314983715
20403669 9 18335981986973880667
20645477 70 18336536226965435613
20671657 53 16732984236431807213
20871998 22 18411419488287536884
21503847 285 14908175387396577330
221490 88 18409730625990452044
231179 274 10664101147108488284
23557571 272 17676756617734061652
23559900 14 18186236234085367420
26918003 58 18271519823486797633
2748010 2 17699271176335014340
2871803 45 18187078421316296011
31174 14 18271519879443081472
341906 21 14692301629400878091
5104073 3 18055903313348583786
5352402 22 18343590628744050571
9709674 26 18261955275364369163

>  <PUBCHEM_SHAPE_MULTIPOLES>  (1) 
339.89
9.43
2.35
1.15
5.61
0.34
-0.23
-5.3
-2.15
-0.82
0.12
0.49
-0.17
1.06

>  <PUBCHEM_SHAPE_SELFOVERLAP>  (1) 
690.188

>  <PUBCHEM_SHAPE_VOLUME>  (1) 
199

>  <PUBCHEM_COORDINATE_TYPE>  (1) 
2
5
10

$$$$
