46740
     RDKit          3D

 23 25  0  0  1  0  0  0  0  0999 V2000
    6.7177   -1.8106   -0.1009 Cl  0  0  0  0  0  0  0  0  0  0  0  0
   -4.3651   -2.3269   -0.5138 O   0  0  0  0  0  0  0  0  0  0  0  0
   -2.7568   -2.6471    1.7280 O   0  0  0  0  0  0  0  0  0  0  0  0
   -0.5703    2.8934    0.0228 N   0  0  0  0  0  0  0  0  0  0  0  0
   -0.6188    1.7260    0.9441 C   0  0  0  0  0  0  0  0  0  0  0  0
   -1.6277    0.6443    0.5490 C   0  0  0  0  0  0  0  0  0  0  0  0
    0.7934    1.1137    1.0155 C   0  0  0  0  0  0  0  0  0  0  0  0
   -1.8922    3.2347   -0.5157 C   0  0  0  0  0  0  0  0  0  0  0  0
   -2.4168    2.0794   -1.3622 C   0  0  0  0  0  0  0  0  0  0  0  0
   -2.4825    0.8166   -0.5535 C   0  0  0  0  0  0  0  0  0  0  0  0
    1.2156    0.5758   -0.3439 C   0  0  0  0  0  0  0  0  0  0  0  0
    0.0027    4.0768    0.6757 C   0  0  0  0  0  0  0  0  0  0  0  0
   -1.7553   -0.5255    1.3182 C   0  0  0  0  0  0  0  0  0  0  0  0
   -3.3852   -0.1952   -0.9120 C   0  0  0  0  0  0  0  0  0  0  0  0
   -2.6676   -1.5215    0.9658 C   0  0  0  0  0  0  0  0  0  0  0  0
   -3.4757   -1.3605   -0.1546 C   0  0  0  0  0  0  0  0  0  0  0  0
    2.5974   -0.0232   -0.2819 C   0  0  0  0  0  0  0  0  0  0  0  0
    3.7003    0.7800   -0.5315 C   0  0  0  0  0  0  0  0  0  0  0  0
    2.7442   -1.3684    0.0227 C   0  0  0  0  0  0  0  0  0  0  0  0
    4.9789    0.2253   -0.4753 C   0  0  0  0  0  0  0  0  0  0  0  0
    4.0228   -1.9231    0.0790 C   0  0  0  0  0  0  0  0  0  0  0  0
    5.1402   -1.1262   -0.1698 C   0  0  0  0  0  0  0  0  0  0  0  0
   -3.8992   -3.3381   -1.4058 C   0  0  0  0  0  0  0  0  0  0  0  0
  1 22  1  0
  2 16  1  0
  2 23  1  0
  3 15  1  0
  4  5  1  0
  4  8  1  0
  4 12  1  0
  5  6  1  0
  5  7  1  0
  6 10  2  0
  6 13  1  0
  7 11  1  0
  8  9  1  0
  9 10  1  0
 10 14  1  0
 11 17  1  0
 13 15  2  0
 14 16  2  0
 15 16  1  0
 17 18  2  0
 17 19  1  0
 18 20  1  0
 19 21  2  0
 20 22  2  0
 21 22  1  0
M  END
>  <PUBCHEM_COMPOUND_CID>  (1) 
46740

>  <PUBCHEM_CONFORMER_RMSD>  (1) 
0.8

>  <PUBCHEM_CONFORMER_DIVERSEORDER>  (1) 
1
12
17
9
11
14
15
16
4
2
3
6
8
7
13
10
5

>  <PUBCHEM_MMFF94_PARTIAL_CHARGES>  (1) 
29
1 -0.18
10 -0.14
11 0.14
12 0.27
13 -0.15
14 -0.15
15 0.08
16 0.08
17 -0.14
18 -0.15
19 -0.15
2 -0.36
20 -0.15
21 -0.15
22 0.18
23 0.28
3 -0.53
36 0.15
37 0.15
38 0.15
39 0.15
4 -0.81
40 0.45
41 0.15
42 0.15
5 0.41
6 -0.14
8 0.27
9 0.14

>  <PUBCHEM_EFFECTIVE_ROTOR_COUNT>  (1) 
4.8

>  <PUBCHEM_PHARMACOPHORE_FEATURES>  (1) 
6
1 2 acceptor
1 3 donor
1 4 cation
6 17 18 19 20 21 22 rings
6 4 5 6 8 9 10 rings
6 6 10 13 14 15 16 rings

>  <PUBCHEM_HEAVY_ATOM_COUNT>  (1) 
23

>  <PUBCHEM_ATOM_DEF_STEREO_COUNT>  (1) 
0

>  <PUBCHEM_ATOM_UDEF_STEREO_COUNT>  (1) 
1

>  <PUBCHEM_BOND_DEF_STEREO_COUNT>  (1) 
0

>  <PUBCHEM_BOND_UDEF_STEREO_COUNT>  (1) 
0

>  <PUBCHEM_ISOTOPIC_ATOM_COUNT>  (1) 
0

>  <PUBCHEM_COMPONENT_COUNT>  (1) 
1

>  <PUBCHEM_CACTVS_TAUTO_COUNT>  (1) 
3

>  <PUBCHEM_CONFORMER_ID>  (1) 
0000B69400000001

>  <PUBCHEM_MMFF94_ENERGY>  (1) 
69.9941

>  <PUBCHEM_FEATURE_SELFOVERLAP>  (1) 
30.467

>  <PUBCHEM_SHAPE_FINGERPRINT>  (1) 
10616163 171 18339362942427370534
10622 236 17198243857953872071
11045515 52 18334012795802966484
11578080 2 17703496796741271025
12363563 72 18341055202153862383
12553582 1 18337404845045646866
12788726 201 18263918839553587609
13544653 18 18337677515428895780
13583140 156 17845077486366446472
13631057 29 18411698773337250670
13911987 19 17395875609378721572
14251740 79 18114180791762543227
14790565 3 17979074886608157297
14866123 147 18410860924239283177
15064986 266 18114476594723630025
15250474 111 18117834405274277410
15352361 1 18411981403000891526
15463212 79 17678734527525166656
15475509 8 18335974360008560663
17349148 13 18040438768139917106
18927931 339 18341061718178484742
200 152 18408324372014144308
20775438 99 17331092397244894351
21709351 56 18114188480692850862
22393880 68 18188769445084178358
23557571 272 18339930311939062756
23559900 14 18409158905751307352
25122255 55 18200602376464360158
3004659 81 18186796985263387766
3178227 256 18264503784953390953
329604 57 18335707178160738974
4214541 1 18261958423607149596
463206 1 18337393871431241603
469060 322 17416944231918927869
70251023 43 18194958776341218507
9709674 26 18197220239704621878

>  <PUBCHEM_SHAPE_MULTIPOLES>  (1) 
458.48
11.08
4.14
1.22
18.29
1.72
0.15
-9.99
-2.47
-4.42
-0.13
-1.17
-0.28
0

>  <PUBCHEM_SHAPE_SELFOVERLAP>  (1) 
970.439

>  <PUBCHEM_SHAPE_VOLUME>  (1) 
258.7

>  <PUBCHEM_COORDINATE_TYPE>  (1) 
2
5
10

$$$$
