46751
     RDKit          3D

 17 16  0  0  1  0  0  0  0  0999 V2000
   -1.1645   -0.4598   -0.1481 O   0  0  0  0  0  0  0  0  0  0  0  0
    2.2487    0.8407    0.4236 N   0  0  0  0  0  0  0  0  0  0  0  0
   -4.8954   -0.4356   -0.0649 N   0  0  0  0  0  0  0  0  0  0  0  0
    3.5914    0.5614   -0.2651 C   0  0  0  0  0  0  0  0  0  0  0  0
    1.2072   -0.1061   -0.0486 C   0  0  0  0  0  0  0  0  0  0  0  0
    1.8466    2.2896    0.1165 C   0  0  0  0  0  0  0  0  0  0  0  0
    2.4539    0.7131    1.9392 C   0  0  0  0  0  0  0  0  0  0  0  0
    4.0341   -0.8568    0.0624 C   0  0  0  0  0  0  0  0  0  0  0  0
   -0.1634    0.4585    0.2690 C   0  0  0  0  0  0  0  0  0  0  0  0
    1.6377    2.4433   -1.3742 C   0  0  0  0  0  0  0  0  0  0  0  0
   -3.5002   -0.9823   -0.3310 C   0  0  0  0  0  0  0  0  0  0  0  0
    5.3926   -1.1663   -0.5657 C   0  0  0  0  0  0  0  0  0  0  0  0
   -2.4698    0.0293    0.1307 C   0  0  0  0  0  0  0  0  0  0  0  0
   -5.0726    0.8838   -0.8027 C   0  0  0  0  0  0  0  0  0  0  0  0
   -5.0752   -0.2092    1.4293 C   0  0  0  0  0  0  0  0  0  0  0  0
   -5.9335   -1.4345   -0.5553 C   0  0  0  0  0  0  0  0  0  0  0  0
    5.8624   -2.5690   -0.2151 C   0  0  0  0  0  0  0  0  0  0  0  0
  1  9  1  0
  1 13  1  0
  2  4  1  0
  2  5  1  0
  2  6  1  0
  2  7  1  0
  3 11  1  0
  3 14  1  0
  3 15  1  0
  3 16  1  0
  4  8  1  0
  5  9  1  0
  6 10  1  0
  8 12  1  0
 11 13  1  0
 12 17  1  0
M  CHG  2   2   1   3   1
M  END
>  <PUBCHEM_COMPOUND_CID>  (1) 
46751

>  <PUBCHEM_CONFORMER_RMSD>  (1) 
1

>  <PUBCHEM_CONFORMER_DIVERSEORDER>  (1) 
1
64
48
146
7
63
154
5
65
96
42
55
20
156
101
2
107
126
54
29
36
124
144
14
41
95
79
91
128
38
33
137
150
120
3
143
121
90
27
83
13
119
127
94
28
103
133
58
136
114
116
4
104
82
78
15
149
100
6
102
32
111
18
140
56
68
92
39
141
142
53
25
109
50
129
43
118
17
45
122
132
125
88
34
131
80
67
85
135
9
87
148
117
66
19
139
77
123
76
106
147
8
152
71
86
16
105
110
75
134
31
108
21
30
60
49
115
69
61
47
153
145
44
40
57
46
138
11
24
70
89
73
74
99
130
97
52
151
62
72
10
98
35
12
26
84
59
81
22
37
155
112
23
51
93
113

>  <PUBCHEM_MMFF94_PARTIAL_CHARGES>  (1) 
13
1 -0.56
11 0.5
13 0.28
14 0.5
15 0.5
16 0.5
2 -1.01
3 -1.01
4 0.5
5 0.5
6 0.5
7 0.5
9 0.28

>  <PUBCHEM_EFFECTIVE_ROTOR_COUNT>  (1) 
10

>  <PUBCHEM_PHARMACOPHORE_FEATURES>  (1) 
4
1 1 acceptor
1 17 hydrophobe
1 2 cation
1 3 cation

>  <PUBCHEM_HEAVY_ATOM_COUNT>  (1) 
17

>  <PUBCHEM_ATOM_DEF_STEREO_COUNT>  (1) 
0

>  <PUBCHEM_ATOM_UDEF_STEREO_COUNT>  (1) 
1

>  <PUBCHEM_BOND_DEF_STEREO_COUNT>  (1) 
0

>  <PUBCHEM_BOND_UDEF_STEREO_COUNT>  (1) 
0

>  <PUBCHEM_ISOTOPIC_ATOM_COUNT>  (1) 
0

>  <PUBCHEM_COMPONENT_COUNT>  (1) 
1

>  <PUBCHEM_CACTVS_TAUTO_COUNT>  (1) 
1

>  <PUBCHEM_CONFORMER_ID>  (1) 
0000B69F00000001

>  <PUBCHEM_MMFF94_ENERGY>  (1) 
61.7167

>  <PUBCHEM_FEATURE_SELFOVERLAP>  (1) 
20.297

>  <PUBCHEM_SHAPE_FINGERPRINT>  (1) 
10366900 7 16732697260113712489
10753850 27 18336263432545450298
12166972 35 18342176700215397833
12616971 3 15554446340623946793
12617007 42 18114186345856948692
13073987 5 17846217821436896905
13533116 47 18130786789234121338
13862211 1 18412544276093476214
13911852 28 18197497325209477406
13955234 65 18270399533345703888
14251718 22 12324246074675862603
14251752 14 17895752877088048246
14251764 30 18260264114564163646
14528608 73 12757156796175032126
146900 427 8646769988812480470
15806764 133 17676754444496064181
17834072 8 18335977593549137877
17844677 252 18333736831791107069
18186145 218 17749378326014371161
18222031 100 18335134293610293416
19784866 140 17749390317700153394
19784866 240 18272095980427743722
20369508 70 17489306416948764512
20388580 30 18334583438828285260
20621476 38 18343301496495188295
20645477 70 18261951946242384236
21054139 6 10015283707898576729
21150785 3 11602823540893575643
21503847 285 17895191138347500997
21709351 56 18408316688438991103
2297311 6 17095248008216833415
23402539 116 15554445180729673281
23532345 12 18412549807874093033
23559900 14 18335980960486973731
23590187 198 18202565072969554315
3004659 81 18113902620565580254
351380 3 18342174440920266070
465052 167 18273217487073971678
5104073 3 17131555050234013403
5281201 14 18259983807807930133
542803 24 16081083775544272431
543368 44 11746941988406666159
633830 44 17894904187540227663
77188 2 18343582915832710896
90127 26 17894347813382579905
9971528 1 18411132567440078856

>  <PUBCHEM_SHAPE_MULTIPOLES>  (1) 
334.02
15.03
2.18
1.18
9.27
0.37
-0.43
-9.99
1.54
-2.98
0.65
0.08
0.39
0.25

>  <PUBCHEM_SHAPE_SELFOVERLAP>  (1) 
609.875

>  <PUBCHEM_SHAPE_VOLUME>  (1) 
217.3

>  <PUBCHEM_COORDINATE_TYPE>  (1) 
2
5
10

$$$$
