46757
     RDKit          3D

 20 21  0  0  0  0  0  0  0  0999 V2000
   -4.8273    2.4839    1.3058 Cl  0  0  0  0  0  0  0  0  0  0  0  0
   -0.4583   -0.2719    0.6843 O   0  0  0  0  0  0  0  0  0  0  0  0
   -0.6663   -1.2874   -1.4031 O   0  0  0  0  0  0  0  0  0  0  0  0
    4.0687    1.0317   -0.4577 N   0  0  0  0  0  0  0  0  0  0  0  0
    3.0826    0.0238    0.1378 C   0  0  0  0  0  0  0  0  0  0  0  0
    4.8030    0.3710   -1.6210 C   0  0  0  0  0  0  0  0  0  0  0  0
    5.0494    1.4606    0.6301 C   0  0  0  0  0  0  0  0  0  0  0  0
    3.3683    2.2819   -0.9857 C   0  0  0  0  0  0  0  0  0  0  0  0
    1.7720    0.3665    0.1230 C   0  0  0  0  0  0  0  0  0  0  0  0
    3.6033   -1.1268    0.6280 C   0  0  0  0  0  0  0  0  0  0  0  0
    0.8732   -0.5525    0.6645 C   0  0  0  0  0  0  0  0  0  0  0  0
    2.7043   -2.0457    1.1698 C   0  0  0  0  0  0  0  0  0  0  0  0
    1.3392   -1.7584    1.1881 C   0  0  0  0  0  0  0  0  0  0  0  0
   -1.1539   -0.7000   -0.4491 C   0  0  0  0  0  0  0  0  0  0  0  0
   -2.5967   -0.3596   -0.3550 C   0  0  0  0  0  0  0  0  0  0  0  0
   -2.9716    0.7667    0.3481 C   0  0  0  0  0  0  0  0  0  0  0  0
   -3.5159   -1.1807   -0.9749 C   0  0  0  0  0  0  0  0  0  0  0  0
   -4.3266    1.0861    0.4356 C   0  0  0  0  0  0  0  0  0  0  0  0
   -4.8710   -0.8613   -0.8870 C   0  0  0  0  0  0  0  0  0  0  0  0
   -5.2764    0.2721   -0.1817 C   0  0  0  0  0  0  0  0  0  0  0  0
  1 18  1  0
  2 11  1  0
  2 14  1  0
  3 14  2  0
  4  5  1  0
  4  6  1  0
  4  7  1  0
  4  8  1  0
  5  9  2  0
  5 10  1  0
  9 11  1  0
 10 12  2  0
 11 13  2  0
 12 13  1  0
 14 15  1  0
 15 16  2  0
 15 17  1  0
 16 18  1  0
 17 19  2  0
 18 20  2  0
 19 20  1  0
M  CHG  1   4   1
M  END
>  <PUBCHEM_COMPOUND_CID>  (1) 
46757

>  <PUBCHEM_CONFORMER_RMSD>  (1) 
0.6

>  <PUBCHEM_CONFORMER_DIVERSEORDER>  (1) 
1
104
182
44
209
172
63
161
174
203
184
157
111
46
88
195
102
130
49
135
122
51
82
98
199
75
212
206
205
83
117
31
28
76
39
132
33
156
162
14
105
114
126
213
99
193
58
187
66
47
129
106
65
152
149
25
90
118
70
30
120
48
153
7
171
52
100
37
183
20
202
163
141
61
131
125
55
173
168
67
169
115
139
145
59
165
150
160
64
186
189
24
92
178
87
188
80
29
159
3
78
9
208
8
23
164
116
211
127
201
56
81
50
179
124
180
60
91
138
89
108
170
53
18
72
36
192
185
95
112
40
2
144
62
214
16
198
151
97
4
119
121
26
210
11
176
191
136
15
147
146
166
34
17
110
181
148
22
38
177
12
79
21
73
35
217
45
196
84
42
54
200
109
93
216
155
175
13
167
128
194
74
143
101
123
32
85
137
27
77
86
6
133
10
197
96
140
19
204
41
5
134
71
57
207
107
94
103
190
68
158
215
69
142
113
43
154

>  <PUBCHEM_MMFF94_PARTIAL_CHARGES>  (1) 
28
1 -0.18
10 -0.15
11 0.08
12 -0.15
13 -0.15
14 0.63
15 0.09
16 -0.15
17 -0.15
18 0.18
19 -0.15
2 -0.23
20 -0.15
3 -0.57
30 0.15
31 0.15
32 0.15
33 0.15
34 0.15
35 0.15
36 0.15
37 0.15
4 -0.87
5 0.36
6 0.5
7 0.5
8 0.5
9 -0.15

>  <PUBCHEM_EFFECTIVE_ROTOR_COUNT>  (1) 
4

>  <PUBCHEM_PHARMACOPHORE_FEATURES>  (1) 
4
1 3 acceptor
1 4 cation
6 15 16 17 18 19 20 rings
6 5 9 10 11 12 13 rings

>  <PUBCHEM_HEAVY_ATOM_COUNT>  (1) 
20

>  <PUBCHEM_ATOM_DEF_STEREO_COUNT>  (1) 
0

>  <PUBCHEM_ATOM_UDEF_STEREO_COUNT>  (1) 
0

>  <PUBCHEM_BOND_DEF_STEREO_COUNT>  (1) 
0

>  <PUBCHEM_BOND_UDEF_STEREO_COUNT>  (1) 
0

>  <PUBCHEM_ISOTOPIC_ATOM_COUNT>  (1) 
0

>  <PUBCHEM_COMPONENT_COUNT>  (1) 
1

>  <PUBCHEM_CACTVS_TAUTO_COUNT>  (1) 
1

>  <PUBCHEM_CONFORMER_ID>  (1) 
0000B6A500000001

>  <PUBCHEM_MMFF94_ENERGY>  (1) 
83.6812

>  <PUBCHEM_FEATURE_SELFOVERLAP>  (1) 
20.297

>  <PUBCHEM_SHAPE_FINGERPRINT>  (1) 
10498660 4 17704072863350292233
10595046 47 18341326777415598007
10615611 76 18338817649237880081
10670039 82 18130232562043280021
10912923 1 18409161091731028875
11056379 131 18060136579208108943
11796584 16 16702027448466897774
12107183 9 17834954166439396483
12236239 1 18341608209331840090
12596602 18 18186806851462351601
12616971 3 18334853862236912899
12644460 14 17749382646783158986
12670546 56 18409722946166927221
12730499 353 17821734944154904146
12916748 109 18059858402048414547
13167823 11 18411413991019652243
13631057 29 17971470947763587459
13675066 3 13262391163566035347
13760787 19 18411978078981183927
13955234 65 17895467043089239618
14251764 75 16736108069800826188
14528608 73 18334856147074988263
14573314 32 16056883515699999025
14739800 52 18057866095901486736
15183329 4 17916878936838833884
15238133 3 18130219342096416144
15239154 128 18334853896681085981
15342168 16 17603872264277024814
15375358 24 15647047158106783827
1601671 61 17989207006015199633
17349148 13 9079114483693300689
17834072 33 18335415790215107143
1813 80 17977099064297316522
18186145 218 18113896052974840238
20369508 70 14261632811926744166
204376 136 17385443245374395955
20612939 158 18114178610309683258
21065198 48 18409726232249581315
21065201 7 16845562132852407647
22079108 93 17894635885223010979
22854114 59 17167577193883995775
2297311 6 17489872665800916399
23366157 5 17983019947223835495
23402655 69 18412544305841171122
23557571 272 17131841962765647957
2637199 183 18412267246233583910
300161 21 18409719664991228607
3004659 81 17846504708236112622
32948 21 17203333273369788360
34797466 226 17203330064971533809
474 4 18041560342529551660
5104073 3 18186800274976144499
542803 24 18413107247500141283
543358 83 18409450250240539242
543368 44 18339922714173590369
633830 44 18338237063974440711
8272917 22 18335702689445602642
960060 61 13398633887569332440

>  <PUBCHEM_SHAPE_MULTIPOLES>  (1) 
396.74
12.71
2.15
1.32
4.5
0.68
0.14
5.48
0.93
-0.36
-0.48
-0.35
-0.06
-2.51

>  <PUBCHEM_SHAPE_SELFOVERLAP>  (1) 
835.644

>  <PUBCHEM_SHAPE_VOLUME>  (1) 
226.9

>  <PUBCHEM_COORDINATE_TYPE>  (1) 
2
5
10

$$$$
