46755
     RDKit          3D

 20 21  0  0  0  0  0  0  0  0999 V2000
   -6.8132    0.8782    0.4351 Cl  0  0  0  0  0  0  0  0  0  0  0  0
   -0.3374   -0.3764    0.6852 O   0  0  0  0  0  0  0  0  0  0  0  0
   -0.6307   -0.7688   -1.5933 O   0  0  0  0  0  0  0  0  0  0  0  0
    4.1941    1.0975   -0.2038 N   0  0  0  0  0  0  0  0  0  0  0  0
    3.1949   -0.0151    0.1228 C   0  0  0  0  0  0  0  0  0  0  0  0
    4.8774    0.7700   -1.5285 C   0  0  0  0  0  0  0  0  0  0  0  0
    5.2156    1.1874    0.9264 C   0  0  0  0  0  0  0  0  0  0  0  0
    3.5171    2.4595   -0.3417 C   0  0  0  0  0  0  0  0  0  0  0  0
    1.8951    0.3457    0.2474 C   0  0  0  0  0  0  0  0  0  0  0  0
    3.6943   -1.2671    0.2579 C   0  0  0  0  0  0  0  0  0  0  0  0
    0.9843   -0.6683    0.5438 C   0  0  0  0  0  0  0  0  0  0  0  0
    2.7833   -2.2812    0.5546 C   0  0  0  0  0  0  0  0  0  0  0  0
    1.4283   -1.9816    0.6976 C   0  0  0  0  0  0  0  0  0  0  0  0
   -1.0752   -0.4588   -0.4982 C   0  0  0  0  0  0  0  0  0  0  0  0
   -2.5043   -0.1276   -0.2651 C   0  0  0  0  0  0  0  0  0  0  0  0
   -3.4651   -0.7242   -1.0553 C   0  0  0  0  0  0  0  0  0  0  0  0
   -2.8260    0.7681    0.7340 C   0  0  0  0  0  0  0  0  0  0  0  0
   -4.8069   -0.4109   -0.8371 C   0  0  0  0  0  0  0  0  0  0  0  0
   -4.1677    1.0816    0.9519 C   0  0  0  0  0  0  0  0  0  0  0  0
   -5.1581    0.4921    0.1663 C   0  0  0  0  0  0  0  0  0  0  0  0
  1 20  1  0
  2 11  1  0
  2 14  1  0
  3 14  2  0
  4  5  1  0
  4  6  1  0
  4  7  1  0
  4  8  1  0
  5  9  2  0
  5 10  1  0
  9 11  1  0
 10 12  2  0
 11 13  2  0
 12 13  1  0
 14 15  1  0
 15 16  2  0
 15 17  1  0
 16 18  1  0
 17 19  2  0
 18 20  2  0
 19 20  1  0
M  CHG  1   4   1
M  END
>  <PUBCHEM_COMPOUND_CID>  (1) 
46755

>  <PUBCHEM_CONFORMER_RMSD>  (1) 
0.6

>  <PUBCHEM_CONFORMER_DIVERSEORDER>  (1) 
1
29
44
10
55
89
27
81
74
40
87
36
21
45
67
30
88
62
2
37
17
53
49
4
23
18
54
33
68
76
48
64
24
47
31
66
63
69
22
58
65
13
79
75
82
32
71
72
15
77
25
56
12
73
3
52
8
11
41
16
51
6
5
42
46
35
60
86
61
14
34
28
7
78
80
19
26
43
20
38
84
39
9
50
70
85
59
57
83

>  <PUBCHEM_MMFF94_PARTIAL_CHARGES>  (1) 
28
1 -0.18
10 -0.15
11 0.08
12 -0.15
13 -0.15
14 0.63
15 0.09
16 -0.15
17 -0.15
18 -0.15
19 -0.15
2 -0.23
20 0.18
3 -0.57
30 0.15
31 0.15
32 0.15
33 0.15
34 0.15
35 0.15
36 0.15
37 0.15
4 -0.87
5 0.36
6 0.5
7 0.5
8 0.5
9 -0.15

>  <PUBCHEM_EFFECTIVE_ROTOR_COUNT>  (1) 
4

>  <PUBCHEM_PHARMACOPHORE_FEATURES>  (1) 
4
1 3 acceptor
1 4 cation
6 15 16 17 18 19 20 rings
6 5 9 10 11 12 13 rings

>  <PUBCHEM_HEAVY_ATOM_COUNT>  (1) 
20

>  <PUBCHEM_ATOM_DEF_STEREO_COUNT>  (1) 
0

>  <PUBCHEM_ATOM_UDEF_STEREO_COUNT>  (1) 
0

>  <PUBCHEM_BOND_DEF_STEREO_COUNT>  (1) 
0

>  <PUBCHEM_BOND_UDEF_STEREO_COUNT>  (1) 
0

>  <PUBCHEM_ISOTOPIC_ATOM_COUNT>  (1) 
0

>  <PUBCHEM_COMPONENT_COUNT>  (1) 
1

>  <PUBCHEM_CACTVS_TAUTO_COUNT>  (1) 
1

>  <PUBCHEM_CONFORMER_ID>  (1) 
0000B6A300000001

>  <PUBCHEM_MMFF94_ENERGY>  (1) 
83.6902

>  <PUBCHEM_FEATURE_SELFOVERLAP>  (1) 
20.297

>  <PUBCHEM_SHAPE_FINGERPRINT>  (1) 
10354089 29 18409169913166547681
10411042 1 17831013534357643386
10554248 39 17843957045421371853
10670039 82 17131283354428330649
10912923 1 18342731902132076635
11796584 16 15841558466131704854
12107183 9 17620758284741628291
12236239 1 18201996629431058643
12596602 18 18408045092177406483
12616971 3 18338786836915352943
12730499 353 18113626676752321226
12788726 201 17560527205470995081
12839892 36 13117995604795136313
12916748 109 17274824666116579409
13533116 47 18261674766539360275
13631057 29 18192425497398851643
13668630 136 9511462229965098217
13760787 19 18272929432017426695
13760787 5 18340477890394260335
13955234 65 18187357684770329122
14170010 4 18335136459065426314
14251764 18 18202284694190439481
14251764 75 17098642355088904460
14341114 176 18336271163280250545
14366163 111 17775282789836634488
14528608 73 18411981381662880349
14573314 32 14548742789554941705
15183329 4 17131846339031224628
15342168 16 18041004002588750196
15375358 24 16515682234686284115
17349148 13 11458423509826714035
17834072 33 18412260645005895935
17844677 252 18262239898494137397
1813 80 17910115712168786062
204376 136 17894632573392087275
20612939 158 18335423435372880030
20645477 70 18335981961178014978
22079108 93 18113621209501286651
22854114 59 17676203567684836591
23366157 5 17628651747585245103
23402655 69 18342453763859606190
23559900 14 18335698308753190402
29717793 49 17774721969881179758
300161 21 18343294864780131851
3004659 81 17418382363807150630
3472631 163 17988924526222181700
34797466 226 16702303494072260633
3545911 37 18260833704288669179
42630746 31 18335136480033717594
4340502 62 17967816046067665563
449060 50 18040716965650541727
474 4 18334574693863400648
5104073 3 18186798106017854827
5374978 207 13840266991808721822
542803 24 18342737403969040119
543368 44 18272647991474261953
621550 34 17530678775553368751
633830 44 18413109446106990582
8272917 22 18340488872082629014
960060 61 12679463123034461584

>  <PUBCHEM_SHAPE_MULTIPOLES>  (1) 
396.74
14.11
1.88
1.15
11.6
0.09
-0.29
-5.98
0.27
-2.54
0.22
-0.13
-0.01
-1.25

>  <PUBCHEM_SHAPE_SELFOVERLAP>  (1) 
835.639

>  <PUBCHEM_SHAPE_VOLUME>  (1) 
227.1

>  <PUBCHEM_COORDINATE_TYPE>  (1) 
2
5
10

$$$$
