46761
     RDKit          3D

 16 15  0  0  1  0  0  0  0  0999 V2000
    5.0269    1.5079   -0.7054 Cl  0  0  0  0  0  0  0  0  0  0  0  0
   -0.9207    3.3754    1.5783 O   0  0  0  0  0  0  0  0  0  0  0  0
   -4.5019   -1.9515    0.0520 O   0  0  0  0  0  0  0  0  0  0  0  0
   -1.6075    0.3422   -0.4842 N   0  0  0  0  0  0  0  0  0  0  0  0
    1.9036   -0.9353    0.0099 N   0  0  0  0  0  0  0  0  0  0  0  0
   -0.1576    0.0497   -0.8426 C   0  0  0  0  0  0  0  0  0  0  0  0
   -1.6549    1.2512    0.7354 C   0  0  0  0  0  0  0  0  0  0  0  0
   -2.3263   -0.9627   -0.1729 C   0  0  0  0  0  0  0  0  0  0  0  0
    0.5245   -0.6040    0.3474 C   0  0  0  0  0  0  0  0  0  0  0  0
   -2.2911    1.0305   -1.6570 C   0  0  0  0  0  0  0  0  0  0  0  0
   -0.9112    2.5365    0.4308 C   0  0  0  0  0  0  0  0  0  0  0  0
   -3.8233   -0.7455   -0.2728 C   0  0  0  0  0  0  0  0  0  0  0  0
    2.7518    0.2561    0.0787 C   0  0  0  0  0  0  0  0  0  0  0  0
    2.4171   -1.9759    0.9026 C   0  0  0  0  0  0  0  0  0  0  0  0
    3.9804    0.0711   -0.7984 C   0  0  0  0  0  0  0  0  0  0  0  0
    1.5900   -3.2459    0.7982 C   0  0  0  0  0  0  0  0  0  0  0  0
  1 15  1  0
  2 11  1  0
  3 12  1  0
  4  6  1  0
  4  7  1  0
  4  8  1  0
  4 10  1  0
  5  9  1  0
  5 13  1  0
  5 14  1  0
  6  9  1  0
  7 11  1  0
  8 12  1  0
 13 15  1  0
 14 16  1  0
M  CHG  1   4   1
M  END
>  <PUBCHEM_COMPOUND_CID>  (1) 
46761

>  <PUBCHEM_CONFORMER_RMSD>  (1) 
0.8

>  <PUBCHEM_CONFORMER_DIVERSEORDER>  (1) 
4
128
246
241
227
25
292
33
192
197
247
139
268
224
238
188
245
119
272
200
236
171
81
173
92
174
137
152
131
282
275
111
190
160
161
222
244
267
94
209
289
219
158
121
91
156
213
264
76
255
265
65
242
287
243
221
270
276
228
54
290
129
263
203
225
207
201
145
146
115
278
269
36
234
120
266
196
125
216
258
61
153
168
240
250
179
16
141
230
253
187
97
155
143
149
136
59
229
117
39
99
232
210
296
170
79
279
90
271
101
259
248
231
260
215
218
112
130
114
193
181
69
157
262
151
127
58
175
291
110
178
12
85
204
281
50
166
107
165
237
182
133
21
150
257
57
159
176
251
132
180
256
48
191
252
51
122
93
19
274
106
162
72
148
10
55
280
75
89
118
100
95
163
123
27
116
124
195
140
14
189
212
126
206
11
41
6
277
35
22
167
261
177
217
108
169
56
283
233
78
147
144
42
294
47
77
34
17
288
18
185
202
223
186
113
46
226
88
40
273
68
28
295
31
142
87
84
82
74
184
254
239
83
70
104
24
235
109
23
15
7
164
45
249
96
154
198
297
67
293
135
8
38
102
105
194
103
73
172
64
285
1
52
62
138
211
53
60
71
286
86
205
98
208
26
49
66
220
32
5
134
2
44
3
284
43
63
37
183
13
30
199
20
9
214
29
80

>  <PUBCHEM_MMFF94_PARTIAL_CHARGES>  (1) 
17
1 -0.29
10 0.5
11 0.28
12 0.28
13 0.27
14 0.27
15 0.29
2 -0.68
3 -0.68
4 -1.01
41 0.4
42 0.4
5 -0.81
6 0.5
7 0.5
8 0.5
9 0.27

>  <PUBCHEM_EFFECTIVE_ROTOR_COUNT>  (1) 
10

>  <PUBCHEM_PHARMACOPHORE_FEATURES>  (1) 
6
1 2 acceptor
1 2 donor
1 3 acceptor
1 3 donor
1 4 cation
1 5 cation

>  <PUBCHEM_HEAVY_ATOM_COUNT>  (1) 
16

>  <PUBCHEM_ATOM_DEF_STEREO_COUNT>  (1) 
0

>  <PUBCHEM_ATOM_UDEF_STEREO_COUNT>  (1) 
0

>  <PUBCHEM_BOND_DEF_STEREO_COUNT>  (1) 
0

>  <PUBCHEM_BOND_UDEF_STEREO_COUNT>  (1) 
0

>  <PUBCHEM_ISOTOPIC_ATOM_COUNT>  (1) 
0

>  <PUBCHEM_COMPONENT_COUNT>  (1) 
1

>  <PUBCHEM_CACTVS_TAUTO_COUNT>  (1) 
1

>  <PUBCHEM_CONFORMER_ID>  (1) 
0000B6A900000004

>  <PUBCHEM_MMFF94_ENERGY>  (1) 
47.0644

>  <PUBCHEM_FEATURE_SELFOVERLAP>  (1) 
30.447

>  <PUBCHEM_SHAPE_FINGERPRINT>  (1) 
108231 29 18195250146278845058
12553582 1 18271793670886933975
12788726 201 17915454996267108369
12932764 1 16199856272629703846
14178342 30 17905591217061082946
14787075 74 18193838373564928694
15099037 8 18191016803289990499
15375462 189 18339074995061662175
18186145 218 18335711507783049324
18222031 100 17631719582679137887
200 152 18335701671500988647
201361 129 18193006915679133280
20449540 30 18334294227850823781
20510252 161 18410013229931592861
21501502 16 18264770948180380650
21524375 3 18040999583584386298
23557571 272 18271818929488959468
23558518 356 18121781621214425603
23559900 14 18119789349226346058
23566358 27 18121516669182663034
23598288 3 18129373809370871565
23598291 2 18122628245531627798
23598294 1 18130505228273584147
25610 137 18410855473050006517
312423 11 18339929190952559302
474229 33 18115026436848853298
53777708 50 18266463092417743202
5486654 2 18262805206089419662
58051976 378 18187365467071617022
6992083 37 17544189377140985922
7097593 13 17760648062264005266
74978 22 17903634086220761558
7615 1 18193551160733482536
8030462 33 18199734856935264836

>  <PUBCHEM_SHAPE_MULTIPOLES>  (1) 
309.44
7.78
3.23
1.19
3.44
0.11
0
0.38
2.12
0.17
-1.66
-0.24
-0.64
-1.14

>  <PUBCHEM_SHAPE_SELFOVERLAP>  (1) 
563.002

>  <PUBCHEM_SHAPE_VOLUME>  (1) 
201.5

>  <PUBCHEM_COORDINATE_TYPE>  (1) 
2
5
10

$$$$
