4676
     RDKit          2D

 23 25  0  0  1  0  0  0  0  0999 V2000
    0.0000    0.0000    0.0000 S   0  0  0  0  0  0  0  0  0  0  0  0
    0.0000    0.0000    0.0000 O   0  0  0  0  0  0  0  0  0  0  0  0
    0.0000    0.0000    0.0000 O   0  0  0  0  0  0  0  0  0  0  0  0
    0.0000    0.0000    0.0000 O   0  0  0  0  0  0  0  0  0  0  0  0
    0.0000    0.0000    0.0000 O   0  0  0  0  0  0  0  0  0  0  0  0
    0.0000    0.0000    0.0000 N   0  0  0  0  0  0  0  0  0  0  0  0
    0.0000    0.0000    0.0000 N   0  0  0  0  0  0  0  0  0  0  0  0
    0.0000    0.0000    0.0000 N   0  0  0  0  0  0  0  0  0  0  0  0
    0.0000    0.0000    0.0000 C   0  0  0  0  0  0  0  0  0  0  0  0
    0.0000    0.0000    0.0000 C   0  0  0  0  0  0  0  0  0  0  0  0
    0.0000    0.0000    0.0000 C   0  0  0  0  0  0  0  0  0  0  0  0
    0.0000    0.0000    0.0000 C   0  0  0  0  0  0  0  0  0  0  0  0
    0.0000    0.0000    0.0000 C   0  0  0  0  0  0  0  0  0  0  0  0
    0.0000    0.0000    0.0000 C   0  0  0  0  0  0  0  0  0  0  0  0
    0.0000    0.0000    0.0000 C   0  0  0  0  0  0  0  0  0  0  0  0
    0.0000    0.0000    0.0000 C   0  0  0  0  0  0  0  0  0  0  0  0
    0.0000    0.0000    0.0000 C   0  0  0  0  0  0  0  0  0  0  0  0
    0.0000    0.0000    0.0000 C   0  0  0  0  0  0  0  0  0  0  0  0
    0.0000    0.0000    0.0000 C   0  0  0  0  0  0  0  0  0  0  0  0
    0.0000    0.0000    0.0000 C   0  0  0  0  0  0  0  0  0  0  0  0
    0.0000    0.0000    0.0000 C   0  0  0  0  0  0  0  0  0  0  0  0
    0.0000    0.0000    0.0000 C   0  0  0  0  0  0  0  0  0  0  0  0
    0.0000    0.0000    0.0000 C   0  0  0  0  0  0  0  0  0  0  0  0
  1 13  1  0
  1 16  1  0
  2 12  2  0
  3 15  1  0
  4 21  1  0
  5 21  2  0
  6  9  1  0
  6 12  1  0
  6 14  1  0
  7 18  1  0
  7 19  1  0
  7 22  1  0
  8 22  2  3
  9 10  1  0
  9 11  1  0
 10 12  1  0
 10 15  1  0
 11 13  1  0
 13 14  2  0
 14 21  1  0
 15 20  1  0
 16 17  1  0
 16 18  1  0
 17 19  1  0
 22 23  1  0
M  END
>  <PUBCHEM_COMPOUND_CID>  (1) 
4676

>  <PUBCHEM_CONFORMER_RMSD>  (1) 
0.8

>  <PUBCHEM_CONFORMER_DIVERSEORDER>  (1) 
12
279
202
197
209
169
221
302
71
238
67
254
305
193
74
232
61
199
206
253
155
147
222
26
272
264
181
142
255
151
286
118
25
273
135
2
196
173
62
195
241
298
131
245
277
145
211
9
304
217
92
205
133
265
171
246
235
274
38
284
79
300
115
227
103
139
182
281
53
292
86
219
27
162
242
54
85
287
310
24
289
231
207
226
93
100
5
260
204
215
70
252
270
214
212
48
268
276
291
57
296
179
157
183
194
236
124
271
84
43
104
1
63
233
105
64
295
47
244
156
29
267
203
72
106
164
198
185
41
293
220
283
89
95
68
140
33
282
35
290
65
237
39
3
119
148
49
73
66
228
36
251
216
247
299
111
31
154
128
114
263
60
172
127
75
180
46
210
278
257
15
256
125
56
6
144
223
249
19
34
262
229
243
11
58
107
213
208
159
28
69
97
165
116
81
174
175
7
120
307
14
52
258
37
83
80
20
163
250
168
266
240
112
55
99
17
288
248
285
4
21
90
16
275
143
308
150
158
294
152
200
87
109
51
117
123
176
309
303
190
269
76
42
225
122
166
177
82
132
88
239
146
280
201
45
113
22
91
230
297
8
153
184
141
218
101
44
167
191
78
136
301
259
98
10
94
121
134
187
30
13
192
224
126
108
23
306
160
130
102
32
59
186
261
129
18
50
170
138
189
137
234
149
188
96
110
40
161
77
178

>  <PUBCHEM_MMFF94_PARTIAL_CHARGES>  (1) 
24
1 -0.33
10 0.05
11 0.14
12 0.58
13 -0.04
14 0.12
15 0.28
16 0.23
18 0.37
19 0.37
2 -0.57
21 0.71
22 0.44
23 0.06
3 -0.68
39 0.4
4 -0.65
40 0.5
44 0.4
5 -0.57
6 -0.39
7 -0.79
8 -0.85
9 0.22

>  <PUBCHEM_EFFECTIVE_ROTOR_COUNT>  (1) 
6.4

>  <PUBCHEM_PHARMACOPHORE_FEATURES>  (1) 
10
1 2 acceptor
1 3 acceptor
1 3 donor
1 4 acceptor
1 5 acceptor
1 8 donor
3 4 5 21 anion
3 7 8 22 cation
5 7 16 17 18 19 rings
7 6 9 10 11 12 13 14 rings

>  <PUBCHEM_HEAVY_ATOM_COUNT>  (1) 
23

>  <PUBCHEM_ATOM_DEF_STEREO_COUNT>  (1) 
0

>  <PUBCHEM_ATOM_UDEF_STEREO_COUNT>  (1) 
4

>  <PUBCHEM_BOND_DEF_STEREO_COUNT>  (1) 
0

>  <PUBCHEM_BOND_UDEF_STEREO_COUNT>  (1) 
0

>  <PUBCHEM_ISOTOPIC_ATOM_COUNT>  (1) 
0

>  <PUBCHEM_COMPONENT_COUNT>  (1) 
1

>  <PUBCHEM_CACTVS_TAUTO_COUNT>  (1) 
1

$$$$
