46767
     RDKit          3D

 25 26  0  0  0  0  0  0  0  0999 V2000
    0.4791    1.3035    1.4407 O   0  0  0  0  0  0  0  0  0  0  0  0
   -1.8397    0.4384    2.1266 O   0  0  0  0  0  0  0  0  0  0  0  0
   -0.6730    2.2848   -0.2907 O   0  0  0  0  0  0  0  0  0  0  0  0
    4.3017    0.2762   -0.1493 N   0  0  0  0  0  0  0  0  0  0  0  0
    3.2427    0.6614    0.8736 C   0  0  0  0  0  0  0  0  0  0  0  0
    3.6374    0.0122   -1.4928 C   0  0  0  0  0  0  0  0  0  0  0  0
    2.5506    1.9346    0.4181 C   0  0  0  0  0  0  0  0  0  0  0  0
    5.3045    1.4118   -0.2936 C   0  0  0  0  0  0  0  0  0  0  0  0
    5.0224   -0.9810    0.3160 C   0  0  0  0  0  0  0  0  0  0  0  0
    4.6949   -0.3702   -2.5050 C   0  0  0  0  0  0  0  0  0  0  0  0
    1.4471    2.3421    1.3837 C   0  0  0  0  0  0  0  0  0  0  0  0
   -1.5420    0.2371    0.7298 C   0  0  0  0  0  0  0  0  0  0  0  0
   -0.5517    1.3881    0.5354 C   0  0  0  0  0  0  0  0  0  0  0  0
   -2.8177    0.4094   -0.0979 C   0  0  0  0  0  0  0  0  0  0  0  0
   -0.9340   -1.1507    0.5127 C   0  0  0  0  0  0  0  0  0  0  0  0
   -2.7348    0.2965   -1.4667 C   0  0  0  0  0  0  0  0  0  0  0  0
   -0.0177   -1.3168   -0.5000 C   0  0  0  0  0  0  0  0  0  0  0  0
   -3.9985    0.6704    0.5583 C   0  0  0  0  0  0  0  0  0  0  0  0
   -1.3268   -2.1783    1.3390 C   0  0  0  0  0  0  0  0  0  0  0  0
   -3.8973    0.4533   -2.2213 C   0  0  0  0  0  0  0  0  0  0  0  0
    0.5368   -2.5813   -0.6978 C   0  0  0  0  0  0  0  0  0  0  0  0
   -5.1611    0.8271   -0.1965 C   0  0  0  0  0  0  0  0  0  0  0  0
   -0.7721   -3.4428    1.1411 C   0  0  0  0  0  0  0  0  0  0  0  0
   -5.1104    0.7186   -1.5862 C   0  0  0  0  0  0  0  0  0  0  0  0
    0.1596   -3.6443    0.1228 C   0  0  0  0  0  0  0  0  0  0  0  0
  1 11  1  0
  1 13  1  0
  2 12  1  0
  3 13  2  0
  4  5  1  0
  4  6  1  0
  4  8  1  0
  4  9  1  0
  5  7  1  0
  6 10  1  0
  7 11  1  0
 12 13  1  0
 12 14  1  0
 12 15  1  0
 14 16  2  0
 14 18  1  0
 15 17  2  0
 15 19  1  0
 16 20  1  0
 17 21  1  0
 18 22  2  0
 19 23  2  0
 20 24  2  0
 21 25  2  0
 22 24  1  0
 23 25  1  0
M  CHG  1   4   1
M  END
>  <PUBCHEM_COMPOUND_CID>  (1) 
46767

>  <PUBCHEM_CONFORMER_RMSD>  (1) 
1

>  <PUBCHEM_CONFORMER_DIVERSEORDER>  (1) 
1
19
16
22
57
15
84
136
34
24
63
64
101
20
106
56
140
82
52
38
85
109
105
126
111
53
86
31
51
47
40
87
92
97
143
17
96
61
94
71
54
132
44
121
79
141
5
77
4
129
18
93
104
138
91
27
137
21
117
142
33
112
6
45
108
37
144
119
14
60
62
59
65
83
123
130
55
13
146
48
11
80
69
3
42
114
76
32
98
99
7
68
46
35
120
2
25
125
75
145
9
128
74
43
67
103
30
8
89
28
88
81
72
134
122
115
70
23
118
116
58
124
41
113
12
90
36
102
39
50
49
131
10
29
135
139
127
78
73
133
100
110
26
66
107
95

>  <PUBCHEM_MMFF94_PARTIAL_CHARGES>  (1) 
34
1 -0.43
11 0.28
12 0.63
13 0.66
14 -0.14
15 -0.14
16 -0.15
17 -0.15
18 -0.15
19 -0.15
2 -0.68
20 -0.15
21 -0.15
22 -0.15
23 -0.15
24 -0.15
25 -0.15
3 -0.57
4 -1.01
43 0.15
44 0.15
45 0.15
46 0.15
47 0.4
48 0.15
49 0.15
5 0.5
50 0.15
51 0.15
52 0.15
53 0.15
6 0.5
8 0.5
9 0.5

>  <PUBCHEM_EFFECTIVE_ROTOR_COUNT>  (1) 
9

>  <PUBCHEM_PHARMACOPHORE_FEATURES>  (1) 
6
1 2 acceptor
1 2 donor
1 3 acceptor
1 4 cation
6 14 16 18 20 22 24 rings
6 15 17 19 21 23 25 rings

>  <PUBCHEM_HEAVY_ATOM_COUNT>  (1) 
25

>  <PUBCHEM_ATOM_DEF_STEREO_COUNT>  (1) 
0

>  <PUBCHEM_ATOM_UDEF_STEREO_COUNT>  (1) 
0

>  <PUBCHEM_BOND_DEF_STEREO_COUNT>  (1) 
0

>  <PUBCHEM_BOND_UDEF_STEREO_COUNT>  (1) 
0

>  <PUBCHEM_ISOTOPIC_ATOM_COUNT>  (1) 
0

>  <PUBCHEM_COMPONENT_COUNT>  (1) 
1

>  <PUBCHEM_CACTVS_TAUTO_COUNT>  (1) 
1

>  <PUBCHEM_CONFORMER_ID>  (1) 
0000B6AF00000001

>  <PUBCHEM_MMFF94_ENERGY>  (1) 
82.4897

>  <PUBCHEM_FEATURE_SELFOVERLAP>  (1) 
30.446

>  <PUBCHEM_SHAPE_FINGERPRINT>  (1) 
10366900 7 17561370612731501048
10498660 4 18336555996900346134
105312 117 18186236247012162087
10693767 8 17845355700935985831
107951 10 17530684324719746146
10906281 52 18059578048554618864
11135609 187 18343577451821680320
11578080 2 18045503264463299252
11796584 16 14477241591540804413
12035758 1 18337967799584121275
12035759 4 17846206731646682783
12467345 10 15140684678372961869
12596599 1 14835307380216603284
12788726 201 18060427880716799064
12895836 83 17822582706285057932
12969540 114 18261095396778078349
13149001 5 18268988859304540824
1361 2 17418374696947532294
13911987 19 18261405437613735173
14251757 17 17917138528641095719
14251764 3 18260819393494718525
15163728 17 17459749220727447445
15420108 30 16768195894754443729
15880784 105 15482399698948010292
16752209 62 18338795607423175016
17492 54 18341319029442393455
17909252 39 16769550853877974783
20832881 197 17989202633717659945
21315764 371 15195286456490137668
21521239 73 17987784315795038967
22182313 1 18196934598097788418
22393880 68 18200855337026195885
22907989 373 17974574903057361439
23227448 37 15936418874134963092
23559900 14 18340205297821705904
266924 87 18192986028842411317
3027735 51 18267586792974477464
3298306 158 18335413543651825219
340366 18 18041283278563687668
3729539 64 18263645065459013070
404807 14 14902879936964072765
59755656 215 18408881872092287227
6138700 20 18341609253415263282
633830 44 18272640277786974637
6669772 16 18268407183588958970
70251023 43 17696201305110014535
81228 2 17325746563472919539
9709674 26 17983287415931787920

>  <PUBCHEM_SHAPE_MULTIPOLES>  (1) 
491.9
10.24
3.18
1.91
4.35
3.25
0.74
-4.55
5.23
0.46
-1.1
-0.08
-0.17
1.12

>  <PUBCHEM_SHAPE_SELFOVERLAP>  (1) 
1027.355

>  <PUBCHEM_SHAPE_VOLUME>  (1) 
279.3

>  <PUBCHEM_COORDINATE_TYPE>  (1) 
2
5
10

$$$$
