46773
     RDKit          3D

 19 20  0  0  0  0  0  0  0  0999 V2000
    0.9297    0.5381   -0.4151 O   0  0  0  0  0  0  0  0  0  0  0  0
    1.2215   -1.2906    0.9999 O   0  0  0  0  0  0  0  0  0  0  0  0
   -4.6119   -0.0901    0.0582 N   0  0  0  0  0  0  0  0  0  0  0  0
   -3.0964    0.0815   -0.0709 C   0  0  0  0  0  0  0  0  0  0  0  0
   -4.9204   -1.5663    0.2910 C   0  0  0  0  0  0  0  0  0  0  0  0
   -5.2734    0.4073   -1.2241 C   0  0  0  0  0  0  0  0  0  0  0  0
   -5.1856    0.7062    1.2284 C   0  0  0  0  0  0  0  0  0  0  0  0
   -2.4867   -0.5920   -1.0757 C   0  0  0  0  0  0  0  0  0  0  0  0
   -2.4923    0.8931    0.8300 C   0  0  0  0  0  0  0  0  0  0  0  0
   -1.1055   -0.4353   -1.1937 C   0  0  0  0  0  0  0  0  0  0  0  0
   -1.1111    1.0497    0.7122 C   0  0  0  0  0  0  0  0  0  0  0  0
   -0.4178    0.3853   -0.2997 C   0  0  0  0  0  0  0  0  0  0  0  0
    1.6787   -0.3913    0.3107 C   0  0  0  0  0  0  0  0  0  0  0  0
    3.1357   -0.1618    0.1355 C   0  0  0  0  0  0  0  0  0  0  0  0
    3.9936   -1.2401    0.2021 C   0  0  0  0  0  0  0  0  0  0  0  0
    3.5849    1.1234   -0.0872 C   0  0  0  0  0  0  0  0  0  0  0  0
    5.3619   -1.0236    0.0382 C   0  0  0  0  0  0  0  0  0  0  0  0
    4.9531    1.3400   -0.2510 C   0  0  0  0  0  0  0  0  0  0  0  0
    5.8419    0.2664   -0.1887 C   0  0  0  0  0  0  0  0  0  0  0  0
  1 12  1  0
  1 13  1  0
  2 13  2  0
  3  4  1  0
  3  5  1  0
  3  6  1  0
  3  7  1  0
  4  8  2  0
  4  9  1  0
  8 10  1  0
  9 11  2  0
 10 12  2  0
 11 12  1  0
 13 14  1  0
 14 15  2  0
 14 16  1  0
 15 17  1  0
 16 18  2  0
 17 19  2  0
 18 19  1  0
M  CHG  1   3   1
M  END
>  <PUBCHEM_COMPOUND_CID>  (1) 
46773

>  <PUBCHEM_CONFORMER_RMSD>  (1) 
0.6

>  <PUBCHEM_CONFORMER_DIVERSEORDER>  (1) 
1
20
28
2
22
26
27
30
23
24
17
4
21
18
12
3
15
6
9
25
5
16
10
29
7
19
11
14
13
8

>  <PUBCHEM_MMFF94_PARTIAL_CHARGES>  (1) 
28
1 -0.23
10 -0.15
11 -0.15
12 0.08
13 0.63
14 0.09
15 -0.15
16 -0.15
17 -0.15
18 -0.15
19 -0.15
2 -0.57
29 0.15
3 -0.87
30 0.15
31 0.15
32 0.15
33 0.15
34 0.15
35 0.15
36 0.15
37 0.15
4 0.36
5 0.5
6 0.5
7 0.5
8 -0.15
9 -0.15

>  <PUBCHEM_EFFECTIVE_ROTOR_COUNT>  (1) 
4

>  <PUBCHEM_PHARMACOPHORE_FEATURES>  (1) 
4
1 2 acceptor
1 3 cation
6 14 15 16 17 18 19 rings
6 4 8 9 10 11 12 rings

>  <PUBCHEM_HEAVY_ATOM_COUNT>  (1) 
19

>  <PUBCHEM_ATOM_DEF_STEREO_COUNT>  (1) 
0

>  <PUBCHEM_ATOM_UDEF_STEREO_COUNT>  (1) 
0

>  <PUBCHEM_BOND_DEF_STEREO_COUNT>  (1) 
0

>  <PUBCHEM_BOND_UDEF_STEREO_COUNT>  (1) 
0

>  <PUBCHEM_ISOTOPIC_ATOM_COUNT>  (1) 
0

>  <PUBCHEM_COMPONENT_COUNT>  (1) 
1

>  <PUBCHEM_CACTVS_TAUTO_COUNT>  (1) 
1

>  <PUBCHEM_CONFORMER_ID>  (1) 
0000B6B500000001

>  <PUBCHEM_MMFF94_ENERGY>  (1) 
82.9413

>  <PUBCHEM_FEATURE_SELFOVERLAP>  (1) 
20.297

>  <PUBCHEM_SHAPE_FINGERPRINT>  (1) 
10366900 7 17203602692669042571
11045515 52 18186517704867837957
11287383 113 18113337535327097346
11315181 36 18272089413401675257
12091667 2 17240482511587321085
12107183 9 17549830984166894970
12236239 1 18343303669257561700
12390115 104 16056057735718888841
12596602 18 18412830209113865123
12916748 109 17846503634235630408
13167823 11 18341894074039459662
13533116 47 18342175527852797682
13760787 5 18343297071971491493
13862211 1 17418368108488792303
1420 363 17168148935587882450
14341114 176 18409454678230488912
14386348 63 16732988613193210208
15788980 27 17458346342484384727
17349148 13 13623533441432129991
17834072 33 18412261761386033182
17844677 252 18113902645385812133
19489759 90 14562526280042165013
200 152 18040714766495280953
20279233 1 16298390145482538360
20645477 70 18114740435388024010
21033648 29 17604133905037292388
21150785 3 18059846307826840933
21267235 1 18343027670886289030
220451 1 18260836989891353274
22854114 59 17603585227148860204
2297311 6 16773805796389300624
23035841 295 18410013230121783019
23402539 116 16774074055783302869
23557571 272 15792007814505118542
23559900 14 18337104661154536489
26918003 58 18334575750129755067
2838139 119 10519441671208777547
29717793 49 18131350774390725060
300161 21 18272642468167086972
3004659 81 17346607327346866814
34797466 226 16630250311540855888
351380 180 14490191617959338758
3545911 37 18408605881603781438
474 4 18263645233479715340
5104073 3 18272650172884866002
542803 24 18272370866945714752
7495541 125 17561359612850439312

>  <PUBCHEM_SHAPE_MULTIPOLES>  (1) 
374.29
14.36
1.32
1.04
3.25
0.1
0.07
0.29
-0.04
0.31
-0.17
-1.06
0.01
-0.65

>  <PUBCHEM_SHAPE_SELFOVERLAP>  (1) 
796.617

>  <PUBCHEM_SHAPE_VOLUME>  (1) 
209.8

>  <PUBCHEM_COORDINATE_TYPE>  (1) 
2
5
10

$$$$
