46786
     RDKit          3D

 25 26  0  0  0  0  0  0  0  0999 V2000
    2.3227    0.9600    0.0281 O   0  0  0  0  0  0  0  0  0  0  0  0
    0.7592   -0.7320   -0.0860 O   0  0  0  0  0  0  0  0  0  0  0  0
    5.8284   -0.3184   -0.0120 N   0  0  0  0  0  0  0  0  0  0  0  0
    4.7100    0.7112    0.0590 C   0  0  0  0  0  0  0  0  0  0  0  0
    5.4649   -1.5225    0.8447 C   0  0  0  0  0  0  0  0  0  0  0  0
    7.1200    0.2997    0.5037 C   0  0  0  0  0  0  0  0  0  0  0  0
    6.0191   -0.7618   -1.4553 C   0  0  0  0  0  0  0  0  0  0  0  0
    3.3718    0.0013   -0.0014 C   0  0  0  0  0  0  0  0  0  0  0  0
    5.2767   -1.0757    2.2781 C   0  0  0  0  0  0  0  0  0  0  0  0
    7.4762    1.4959   -0.3517 C   0  0  0  0  0  0  0  0  0  0  0  0
    7.1321   -1.7848   -1.5195 C   0  0  0  0  0  0  0  0  0  0  0  0
    1.0491    0.4549   -0.0207 C   0  0  0  0  0  0  0  0  0  0  0  0
    0.0616    1.5968    0.0177 C   0  0  0  0  0  0  0  0  0  0  0  0
   -1.3727    1.1345    0.0052 C   0  0  0  0  0  0  0  0  0  0  0  0
   -2.0386    0.9591   -1.2078 C   0  0  0  0  0  0  0  0  0  0  0  0
   -2.0342    0.8819    1.2071 C   0  0  0  0  0  0  0  0  0  0  0  0
   -4.0276    0.2781   -0.0173 C   0  0  0  0  0  0  0  0  0  0  0  0
   -3.3659    0.5309   -1.2190 C   0  0  0  0  0  0  0  0  0  0  0  0
   -3.3617    0.4536    1.1958 C   0  0  0  0  0  0  0  0  0  0  0  0
   -5.4042   -0.1659   -0.0293 C   0  0  0  0  0  0  0  0  0  0  0  0
   -6.4389    0.7692    0.0017 C   0  0  0  0  0  0  0  0  0  0  0  0
   -5.6974   -1.5290   -0.0727 C   0  0  0  0  0  0  0  0  0  0  0  0
   -7.7665    0.3414   -0.0102 C   0  0  0  0  0  0  0  0  0  0  0  0
   -7.0250   -1.9568   -0.0848 C   0  0  0  0  0  0  0  0  0  0  0  0
   -8.0594   -1.0215   -0.0535 C   0  0  0  0  0  0  0  0  0  0  0  0
  1  8  1  0
  1 12  1  0
  2 12  2  0
  3  4  1  0
  3  5  1  0
  3  6  1  0
  3  7  1  0
  4  8  1  0
  5  9  1  0
  6 10  1  0
  7 11  1  0
 12 13  1  0
 13 14  1  0
 14 15  2  0
 14 16  1  0
 15 18  1  0
 16 19  2  0
 17 18  2  0
 17 19  1  0
 17 20  1  0
 20 21  2  0
 20 22  1  0
 21 23  1  0
 22 24  2  0
 23 25  2  0
 24 25  1  0
M  CHG  1   3   1
M  END
>  <PUBCHEM_COMPOUND_CID>  (1) 
46786

>  <PUBCHEM_CONFORMER_RMSD>  (1) 
1

>  <PUBCHEM_CONFORMER_DIVERSEORDER>  (1) 
1
45
47
42
6
24
58
20
75
37
55
50
31
64
57
27
25
70
54
43
18
30
62
39
14
66
71
22
12
51
49
5
77
32
63
40
74
11
2
72
65
56
9
29
67
26
8
13
44
78
48
19
46
38
10
41
36
68
15
3
7
76
53
60
21
4
17
33
16
79
23
69
59
61
35
52
28
34
73

>  <PUBCHEM_MMFF94_PARTIAL_CHARGES>  (1) 
29
1 -0.43
12 0.66
13 0.2
14 -0.14
15 -0.15
16 -0.15
18 -0.15
19 -0.15
2 -0.57
21 -0.15
22 -0.15
23 -0.15
24 -0.15
25 -0.15
3 -1.01
4 0.5
47 0.15
48 0.15
49 0.15
5 0.5
50 0.15
51 0.15
52 0.15
53 0.15
54 0.15
55 0.15
6 0.5
7 0.5
8 0.28

>  <PUBCHEM_EFFECTIVE_ROTOR_COUNT>  (1) 
10

>  <PUBCHEM_PHARMACOPHORE_FEATURES>  (1) 
4
1 2 acceptor
1 3 cation
6 14 15 16 17 18 19 rings
6 20 21 22 23 24 25 rings

>  <PUBCHEM_HEAVY_ATOM_COUNT>  (1) 
25

>  <PUBCHEM_ATOM_DEF_STEREO_COUNT>  (1) 
0

>  <PUBCHEM_ATOM_UDEF_STEREO_COUNT>  (1) 
0

>  <PUBCHEM_BOND_DEF_STEREO_COUNT>  (1) 
0

>  <PUBCHEM_BOND_UDEF_STEREO_COUNT>  (1) 
0

>  <PUBCHEM_ISOTOPIC_ATOM_COUNT>  (1) 
0

>  <PUBCHEM_COMPONENT_COUNT>  (1) 
1

>  <PUBCHEM_CACTVS_TAUTO_COUNT>  (1) 
1

>  <PUBCHEM_CONFORMER_ID>  (1) 
0000B6C200000001

>  <PUBCHEM_MMFF94_ENERGY>  (1) 
86.4553

>  <PUBCHEM_FEATURE_SELFOVERLAP>  (1) 
20.297

>  <PUBCHEM_SHAPE_FINGERPRINT>  (1) 
10 15 15626503903932458865
10299344 5 18333732425011957049
10670039 82 14273724150040020551
11135609 127 15357990022842380590
11315181 36 18343587356933766393
11524674 6 17704069621188385567
11719270 70 18202282493843708479
12166972 35 18334015012021973724
125118 31 9943805595116682022
12516196 113 18186518795968495612
12664476 115 12031790254296457074
13288520 33 18408040732964890109
13533116 47 17385997335289931202
13540713 4 15070053263129260429
13668630 136 18412266125299711270
13685833 64 18342176669617610173
13885169 127 18412827958983972885
14123256 10 16877659071852701425
14251764 18 18409445912138960246
14251764 46 15719391737422031913
14556957 393 15791738460131722903
15183329 4 15140678072623465932
15301273 46 17846780689311276253
15352257 5 18334856121521936347
15419008 91 18270662217324107801
15510794 2 18342738494975188054
15716309 27 17703790314441593437
16994733 274 9871478612609377055
1818759 1 18409174333548043875
18335252 98 18131072645641761702
2026 5 17532922810857981346
20281389 69 8718828678035283510
21150785 3 17966971638670602924
21267235 1 18273219694159445885
21792934 111 16487254366425482489
23035841 295 18408884045013078811
23081809 10 17095804313497411284
23522609 53 17896907381330396509
23559900 14 16081378500247652405
249057 3 15430042084044545669
2838139 119 8646771075998550635
3004659 81 18334296478423917773
33532 11 18202284675934878278
34797466 226 18041000652920752924
3711267 37 11458699470789052367
397830 11 16127515146362835411
4325135 7 18113899368351755526
5104073 3 14117215292412703022
59682541 35 17632573889659091675
59682541 52 13768197260599664176

>  <PUBCHEM_SHAPE_MULTIPOLES>  (1) 
497.77
27.17
1.66
1.29
1.82
0.46
-0.24
9.23
1.97
0.34
0.11
1.99
0.33
0.07

>  <PUBCHEM_SHAPE_SELFOVERLAP>  (1) 
1028.849

>  <PUBCHEM_SHAPE_VOLUME>  (1) 
287.3

>  <PUBCHEM_COORDINATE_TYPE>  (1) 
2
5
10

$$$$
