46788
     RDKit          3D

 21 22  0  0  0  0  0  0  0  0999 V2000
    0.0907   -0.7628   -1.0194 O   0  0  0  0  0  0  0  0  0  0  0  0
   -3.3936    0.0768    0.0198 N   0  0  0  0  0  0  0  0  0  0  0  0
   -2.0373    0.2807   -0.6396 C   0  0  0  0  0  0  0  0  0  0  0  0
   -4.2360    1.3324   -0.1544 C   0  0  0  0  0  0  0  0  0  0  0  0
   -4.1017   -1.1032   -0.6302 C   0  0  0  0  0  0  0  0  0  0  0  0
   -3.1998   -0.2024    1.5032 C   0  0  0  0  0  0  0  0  0  0  0  0
   -1.1907   -0.9604   -0.4370 C   0  0  0  0  0  0  0  0  0  0  0  0
   -3.5273    2.5016    0.4936 C   0  0  0  0  0  0  0  0  0  0  0  0
   -5.4490   -1.3007    0.0293 C   0  0  0  0  0  0  0  0  0  0  0  0
    1.1434   -1.4162   -0.4335 C   0  0  0  0  0  0  0  0  0  0  0  0
    2.2212   -0.7110    0.0924 C   0  0  0  0  0  0  0  0  0  0  0  0
    1.1121   -2.8061   -0.3735 C   0  0  0  0  0  0  0  0  0  0  0  0
    2.2673    0.7364    0.0367 C   0  0  0  0  0  0  0  0  0  0  0  0
    3.2783   -1.4021    0.6841 C   0  0  0  0  0  0  0  0  0  0  0  0
    2.1692   -3.4974    0.2185 C   0  0  0  0  0  0  0  0  0  0  0  0
    3.2523   -2.7954    0.7472 C   0  0  0  0  0  0  0  0  0  0  0  0
    2.8492    1.3720   -1.0587 C   0  0  0  0  0  0  0  0  0  0  0  0
    1.7294    1.4895    1.0788 C   0  0  0  0  0  0  0  0  0  0  0  0
    2.8934    2.7652   -1.1122 C   0  0  0  0  0  0  0  0  0  0  0  0
    1.7735    2.8827    1.0253 C   0  0  0  0  0  0  0  0  0  0  0  0
    2.3555    3.5204   -0.0703 C   0  0  0  0  0  0  0  0  0  0  0  0
  1  7  1  0
  1 10  1  0
  2  3  1  0
  2  4  1  0
  2  5  1  0
  2  6  1  0
  3  7  1  0
  4  8  1  0
  5  9  1  0
 10 11  2  0
 10 12  1  0
 11 13  1  0
 11 14  1  0
 12 15  2  0
 13 17  2  0
 13 18  1  0
 14 16  2  0
 15 16  1  0
 17 19  1  0
 18 20  2  0
 19 21  2  0
 20 21  1  0
M  CHG  1   2   1
M  END
>  <PUBCHEM_COMPOUND_CID>  (1) 
46788

>  <PUBCHEM_CONFORMER_RMSD>  (1) 
0.8

>  <PUBCHEM_CONFORMER_DIVERSEORDER>  (1) 
1
89
98
97
16
106
15
101
99
111
103
58
77
79
8
102
50
96
13
11
48
108
85
107
63
44
73
100
68
114
87
30
82
54
91
20
3
95
22
67
93
74
88
64
10
12
41
51
104
69
27
49
4
34
70
38
5
28
23
24
42
53
94
59
80
9
36
19
45
105
115
116
72
25
29
26
33
6
81
21
113
18
90
112
39
7
52
71
62
31
109
46
55
2
78
43
14
56
40
86
76
32
110
83
66
60
92
65
75
47
84
37
57
61
35
17

>  <PUBCHEM_MMFF94_PARTIAL_CHARGES>  (1) 
26
1 -0.36
10 0.08
12 -0.15
14 -0.15
15 -0.15
16 -0.15
17 -0.15
18 -0.15
19 -0.15
2 -1.01
20 -0.15
21 -0.15
3 0.5
39 0.15
4 0.5
40 0.15
41 0.15
42 0.15
43 0.15
44 0.15
45 0.15
46 0.15
47 0.15
5 0.5
6 0.5
7 0.28

>  <PUBCHEM_EFFECTIVE_ROTOR_COUNT>  (1) 
7

>  <PUBCHEM_PHARMACOPHORE_FEATURES>  (1) 
4
1 1 acceptor
1 2 cation
6 10 11 12 14 15 16 rings
6 13 17 18 19 20 21 rings

>  <PUBCHEM_HEAVY_ATOM_COUNT>  (1) 
21

>  <PUBCHEM_ATOM_DEF_STEREO_COUNT>  (1) 
0

>  <PUBCHEM_ATOM_UDEF_STEREO_COUNT>  (1) 
0

>  <PUBCHEM_BOND_DEF_STEREO_COUNT>  (1) 
0

>  <PUBCHEM_BOND_UDEF_STEREO_COUNT>  (1) 
0

>  <PUBCHEM_ISOTOPIC_ATOM_COUNT>  (1) 
0

>  <PUBCHEM_COMPONENT_COUNT>  (1) 
1

>  <PUBCHEM_CACTVS_TAUTO_COUNT>  (1) 
1

>  <PUBCHEM_CONFORMER_ID>  (1) 
0000B6C400000001

>  <PUBCHEM_MMFF94_ENERGY>  (1) 
84.7562

>  <PUBCHEM_FEATURE_SELFOVERLAP>  (1) 
20.297

>  <PUBCHEM_SHAPE_FINGERPRINT>  (1) 
10006869 2 17834669779180349426
10090160 65 18121209042460985895
10165383 225 18117284863876133284
10366900 7 18260558835156548899
10498660 4 18051691337241777333
11405975 8 18337392635197143305
11582403 64 16267959142892496504
12035759 4 17977691735565877004
12403260 363 18411691072381865135
12507557 5 18342448202151069715
12633257 1 18195816167698469809
12730499 353 18264216983477877811
12788726 201 17397267131669347242
13004483 165 17542782006436602546
13009979 54 17845382041801437906
13134695 92 18265605499101914454
13140716 1 18193545899446283986
13533116 47 18408885153315438983
13583140 156 18335409124721425831
1361 2 17762614389129797377
138480 1 18338795611475496788
13878862 14 18263905697597597653
14289901 80 18410856573147417651
146900 427 18127704922919649451
14790565 3 18337393837878546812
14866123 147 15887146047575587819
14955137 171 18411133637409233650
15238133 3 17903650587405861781
1601671 61 18339922607068212550
17492 89 18411136914321879479
17868525 174 18191578645384318905
18785283 64 18261388992405504250
19078846 21 18269559329777105622
19930381 70 18267297815312301969
20465049 17 18268446783277176878
20600515 1 17839462189450369694
20671657 1 18412823620518027110
20681677 76 18408879612575161525
20739085 24 18339354159593835602
21524375 3 18127977618529214502
2255824 54 18410855477661829342
23557571 272 14333401234369383875
23558518 356 17835510893175473454
23559900 14 18338789027701932859
238 59 18338243772422732882
23845131 108 18046902959486345627
2637199 183 18198356232531493524
31174 14 18334568036279152159
312423 11 18342184349609810211
3286 77 18334290938132643719
350125 39 18265049330997000366
4409770 3 17179955233875712012
474 4 18337668736510552463
5104073 3 18410580578928597067
5312544 6 18267295624572980583
6442390 28 17904489849938466354
67856867 119 18411972577349260007
7097593 13 18267579118110616607
7808743 9 17472137748871531324
81228 2 17331129295323666898
84936 182 18341612680514198888
9709674 26 18335706018520127747
9981440 41 18192986256227174177

>  <PUBCHEM_SHAPE_MULTIPOLES>  (1) 
421.32
8.83
4.41
1.11
12.97
0.65
-0.12
-0.18
-0.38
-4.85
-0.29
-0.17
0.28
-0.99

>  <PUBCHEM_SHAPE_SELFOVERLAP>  (1) 
874.8

>  <PUBCHEM_SHAPE_VOLUME>  (1) 
243.7

>  <PUBCHEM_COORDINATE_TYPE>  (1) 
2
5
10

$$$$
