46790
     RDKit          3D

 32 33  0  0  0  0  0  0  0  0999 V2000
    7.0008    3.1116   -2.7063 O   0  0  0  0  0  0  0  0  0  0  0  0
   -7.0032    3.1097    2.7073 O   0  0  0  0  0  0  0  0  0  0  0  0
    5.4432   -2.0630    1.4735 O   0  0  0  0  0  0  0  0  0  0  0  0
   -5.4450   -2.0630   -1.4744 O   0  0  0  0  0  0  0  0  0  0  0  0
    7.5707    1.1953    0.4473 N   0  0  0  0  0  0  0  0  0  0  0  0
   -7.5723    1.1951   -0.4473 N   0  0  0  0  0  0  0  0  0  0  0  0
    5.6597   -0.3306   -0.0560 N   0  0  0  0  0  0  0  0  0  0  0  0
   -5.6618   -0.3314    0.0559 N   0  0  0  0  0  0  0  0  0  0  0  0
    6.9847    2.2731   -0.4572 C   0  0  0  0  0  0  0  0  0  0  0  0
   -6.9864    2.2724    0.4579 C   0  0  0  0  0  0  0  0  0  0  0  0
    7.1038   -0.2039    0.0088 C   0  0  0  0  0  0  0  0  0  0  0  0
   -7.1058   -0.2044   -0.0094 C   0  0  0  0  0  0  0  0  0  0  0  0
    7.0807    1.4359    1.8746 C   0  0  0  0  0  0  0  0  0  0  0  0
    9.0926    1.2887    0.4320 C   0  0  0  0  0  0  0  0  0  0  0  0
   -9.0941    1.2887   -0.4328 C   0  0  0  0  0  0  0  0  0  0  0  0
   -7.0817    1.4364   -1.8744 C   0  0  0  0  0  0  0  0  0  0  0  0
    7.5153    2.0877   -1.8652 C   0  0  0  0  0  0  0  0  0  0  0  0
   -7.5176    2.0864    1.8655 C   0  0  0  0  0  0  0  0  0  0  0  0
    4.9489   -1.2579    0.6891 C   0  0  0  0  0  0  0  0  0  0  0  0
   -4.9209   -1.2582   -0.6855 C   0  0  0  0  0  0  0  0  0  0  0  0
    3.4786   -1.2564    0.4839 C   0  0  0  0  0  0  0  0  0  0  0  0
   -3.4806   -1.2568   -0.4844 C   0  0  0  0  0  0  0  0  0  0  0  0
    0.7157   -1.2549    0.0988 C   0  0  0  0  0  0  0  0  0  0  0  0
   -0.7175   -1.2550   -0.0993 C   0  0  0  0  0  0  0  0  0  0  0  0
    2.8318   -0.0892    0.0776 C   0  0  0  0  0  0  0  0  0  0  0  0
   -2.8339   -0.0896   -0.0777 C   0  0  0  0  0  0  0  0  0  0  0  0
    2.7440   -2.4228    0.6976 C   0  0  0  0  0  0  0  0  0  0  0  0
   -2.7458   -2.4228   -0.6987 C   0  0  0  0  0  0  0  0  0  0  0  0
    1.4503   -0.0886   -0.1150 C   0  0  0  0  0  0  0  0  0  0  0  0
   -1.4524   -0.0888    0.1149 C   0  0  0  0  0  0  0  0  0  0  0  0
    1.3625   -2.4219    0.5051 C   0  0  0  0  0  0  0  0  0  0  0  0
   -1.3643   -2.4219   -0.5062 C   0  0  0  0  0  0  0  0  0  0  0  0
  1 17  1  0
  2 18  1  0
  3 19  2  0
  4 20  2  0
  5  9  1  0
  5 11  1  0
  5 13  1  0
  5 14  1  0
  6 10  1  0
  6 12  1  0
  6 15  1  0
  6 16  1  0
  7 11  1  0
  7 19  1  0
  8 12  1  0
  8 20  1  0
  9 17  1  0
 10 18  1  0
 19 21  1  0
 20 22  1  0
 21 25  2  0
 21 27  1  0
 22 26  2  0
 22 28  1  0
 23 24  1  0
 23 29  2  0
 23 31  1  0
 24 30  2  0
 24 32  1  0
 25 29  1  0
 26 30  1  0
 27 31  2  0
 28 32  2  0
M  CHG  2   5   1   6   1
M  END
>  <PUBCHEM_COMPOUND_CID>  (1) 
46790

>  <PUBCHEM_CONFORMER_RMSD>  (1) 
1.2

>  <PUBCHEM_CONFORMER_DIVERSEORDER>  (1) 
1
31
25
13
20
14
17
22
34
29
7
19
21
11
8
15
2
30
26
24
32
10
33
12
28
4
23
16
5
27
9
6
18
3

>  <PUBCHEM_MMFF94_PARTIAL_CHARGES>  (1) 
42
1 -0.68
10 0.5
11 0.8
12 0.8
13 0.5
14 0.5
15 0.5
16 0.5
17 0.28
18 0.28
19 0.54
2 -0.68
20 0.54
21 0.09
22 0.09
25 -0.15
26 -0.15
27 -0.15
28 -0.15
29 -0.15
3 -0.57
30 -0.15
31 -0.15
32 -0.15
4 -0.57
5 -1.01
57 0.37
58 0.37
59 0.4
6 -1.01
60 0.4
61 0.15
62 0.15
63 0.15
64 0.15
65 0.15
66 0.15
67 0.15
68 0.15
7 -0.73
8 -0.73
9 0.5

>  <PUBCHEM_EFFECTIVE_ROTOR_COUNT>  (1) 
13

>  <PUBCHEM_PHARMACOPHORE_FEATURES>  (1) 
12
1 1 acceptor
1 1 donor
1 2 acceptor
1 2 donor
1 3 acceptor
1 4 acceptor
1 5 cation
1 6 cation
1 7 donor
1 8 donor
6 21 23 25 27 29 31 rings
6 22 24 26 28 30 32 rings

>  <PUBCHEM_HEAVY_ATOM_COUNT>  (1) 
32

>  <PUBCHEM_ATOM_DEF_STEREO_COUNT>  (1) 
0

>  <PUBCHEM_ATOM_UDEF_STEREO_COUNT>  (1) 
0

>  <PUBCHEM_BOND_DEF_STEREO_COUNT>  (1) 
0

>  <PUBCHEM_BOND_UDEF_STEREO_COUNT>  (1) 
0

>  <PUBCHEM_ISOTOPIC_ATOM_COUNT>  (1) 
0

>  <PUBCHEM_COMPONENT_COUNT>  (1) 
1

>  <PUBCHEM_CACTVS_TAUTO_COUNT>  (1) 
3

>  <PUBCHEM_CONFORMER_ID>  (1) 
0000B6C600000001

>  <PUBCHEM_MMFF94_ENERGY>  (1) 
109.9914

>  <PUBCHEM_FEATURE_SELFOVERLAP>  (1) 
60.897

>  <PUBCHEM_SHAPE_FINGERPRINT>  (1) 
10 15 18113897131359654827
10066227 49 11600009846786324229
10533779 47 15647318725480420336
10906281 52 18410579482710440994
11181472 205 18059860502335285098
11386260 185 15123498247006461650
11408170 132 17846507989448578332
11408170 253 18201445744273894497
11578821 258 18187921738805081053
12013929 112 18270697415508533286
125118 31 18334856143402499996
12539765 74 18411987966391889662
12592606 108 10303817592340466150
13383665 225 18200610124363731372
14040221 8 18058465231550033822
14251757 52 18335135393301366802
14849402 71 18260550069091569725
15064981 194 18267311013176960302
15198563 99 16271662126235069016
15400415 2 18410845568819570439
15461852 350 17131823301385850951
15554971 5 18411127043811637634
1577012 14 18411409622605616423
15840311 113 18259705580264202294
16728433 281 17202777981802519121
16994733 274 18408879650718392162
1754908 1 14851606587251379321
195137 175 18343584031980141713
2026 5 9439136359527573344
21298829 104 18335700563626312236
21315759 40 9223230775423180035
23522609 53 18410582785539492610
23569943 247 11743302591980663356
23576562 1 16915639579600168321
24771293 8 18113895005155756094
25025965 108 10737287983124378057
34797466 226 16701462407359989002
3711267 37 18341338876655528056
4073 2 18260548931215912947
4169191 19 18410570665927870965
4340502 62 15864340368956546762
44389302 135 8573896554049988572
444735 82 18186521003723857572
44802255 64 16559027199868068199
5758199 1 18333446543051226034
5937810 71 17632582639193217985
6328613 192 18342173363051838243
9962374 69 9943803388130979602

>  <PUBCHEM_SHAPE_MULTIPOLES>  (1) 
615.14
31.98
3.33
1.65
0.02
0.78
0
30.18
-0.01
0
0
0
1.66
-5.23

>  <PUBCHEM_SHAPE_SELFOVERLAP>  (1) 
1263.426

>  <PUBCHEM_SHAPE_VOLUME>  (1) 
354.8

>  <PUBCHEM_COORDINATE_TYPE>  (1) 
2
5
10

$$$$
