46803
     RDKit          3D

 17 18  0  0  1  0  0  0  0  0999 V2000
    1.2545    1.0280    0.1939 N   0  0  0  0  0  0  0  0  0  0  0  0
   -3.8615   -0.4567    0.0334 N   0  0  0  0  0  0  0  0  0  0  0  0
    2.4991   -0.4433   -1.4215 C   0  0  0  0  0  0  0  0  0  0  0  0
    3.4848    0.0354    0.7967 C   0  0  0  0  0  0  0  0  0  0  0  0
    3.8044   -0.1348   -0.6884 C   0  0  0  0  0  0  0  0  0  0  0  0
    1.5164    0.7299   -1.2201 C   0  0  0  0  0  0  0  0  0  0  0  0
    2.4896    1.2025    0.9692 C   0  0  0  0  0  0  0  0  0  0  0  0
    1.9438   -1.7931   -0.9294 C   0  0  0  0  0  0  0  0  0  0  0  0
    2.9626   -1.2984    1.3627 C   0  0  0  0  0  0  0  0  0  0  0  0
    1.7833   -1.8939    0.5894 C   0  0  0  0  0  0  0  0  0  0  0  0
    0.3753    2.1857    0.3348 C   0  0  0  0  0  0  0  0  0  0  0  0
   -0.9592    1.9814   -0.3845 C   0  0  0  0  0  0  0  0  0  0  0  0
   -1.7660    0.8026    0.1675 C   0  0  0  0  0  0  0  0  0  0  0  0
   -3.0953    0.6649   -0.5612 C   0  0  0  0  0  0  0  0  0  0  0  0
   -5.1988   -0.6519   -0.6954 C   0  0  0  0  0  0  0  0  0  0  0  0
   -3.0711   -1.7695   -0.0622 C   0  0  0  0  0  0  0  0  0  0  0  0
   -4.1618   -0.1887    1.5151 C   0  0  0  0  0  0  0  0  0  0  0  0
  1  6  1  0
  1  7  1  0
  1 11  1  0
  2 14  1  0
  2 15  1  0
  2 16  1  0
  2 17  1  0
  3  5  1  0
  3  6  1  0
  3  8  1  0
  4  5  1  0
  4  7  1  0
  4  9  1  0
  8 10  1  0
  9 10  1  0
 11 12  1  0
 12 13  1  0
 13 14  1  0
M  CHG  1   2   1
M  END
>  <PUBCHEM_COMPOUND_CID>  (1) 
46803

>  <PUBCHEM_CONFORMER_RMSD>  (1) 
0.8

>  <PUBCHEM_CONFORMER_DIVERSEORDER>  (1) 
1
15
33
18
31
9
16
32
22
30
8
2
27
20
11
28
12
24
25
5
7
23
13
21
6
10
29
17
14
3
19
4
26

>  <PUBCHEM_MMFF94_PARTIAL_CHARGES>  (1) 
9
1 -0.81
11 0.27
14 0.5
15 0.5
16 0.5
17 0.5
2 -1.01
6 0.27
7 0.27

>  <PUBCHEM_EFFECTIVE_ROTOR_COUNT>  (1) 
6.4

>  <PUBCHEM_PHARMACOPHORE_FEATURES>  (1) 
4
1 1 cation
1 2 cation
6 1 3 4 5 6 7 rings
6 3 4 5 8 9 10 rings

>  <PUBCHEM_HEAVY_ATOM_COUNT>  (1) 
17

>  <PUBCHEM_ATOM_DEF_STEREO_COUNT>  (1) 
0

>  <PUBCHEM_ATOM_UDEF_STEREO_COUNT>  (1) 
2

>  <PUBCHEM_BOND_DEF_STEREO_COUNT>  (1) 
0

>  <PUBCHEM_BOND_UDEF_STEREO_COUNT>  (1) 
0

>  <PUBCHEM_ISOTOPIC_ATOM_COUNT>  (1) 
0

>  <PUBCHEM_COMPONENT_COUNT>  (1) 
1

>  <PUBCHEM_CACTVS_TAUTO_COUNT>  (1) 
1

>  <PUBCHEM_CONFORMER_ID>  (1) 
0000B6D300000001

>  <PUBCHEM_MMFF94_ENERGY>  (1) 
38.1459

>  <PUBCHEM_FEATURE_SELFOVERLAP>  (1) 
21.906

>  <PUBCHEM_SHAPE_FINGERPRINT>  (1) 
10064457 181 15769770282143362590
10366900 7 18272088318232409507
10447042 23 18262221279283453710
10618630 7 18409166580356348013
10759866 29 17822298993830923550
11067466 332 18410296917317737972
12363563 72 18407761430476889601
12506688 2 18341895199125836017
12553582 1 18410303510008154093
12596599 1 18130516313764049275
12596602 18 16845569859656477883
12633257 1 18272087188703724003
12707595 3 18410013255970779309
13464513 79 18273214222719094980
13705890 14 17167863054175400292
14178342 30 18125435315823479800
14252887 29 17988646285255221836
14289901 80 16343982528983811881
14350558 41 18259703384760466524
15183329 4 18340759374594012637
15375462 189 18408892832073100313
15635459 17 18341895177730153295
1798214 20 18186515501749249711
19107657 46 18410853252726039783
19862831 5 14490189401851413021
20261772 1 17988634216286513142
20281475 54 18338238167548836157
20369508 70 18339916112903704613
20442098 301 18060135436050020863
20645477 70 18339073912798287173
21069387 34 16153990128171478568
21250096 35 18410569587579797713
21503847 285 13398627268919026296
2255824 54 18266184022406752213
23402655 69 13479130185678454837
23559900 14 18197218049107634492
251288 83 17988918989776806292
2637199 183 10447648049437676016
2871803 45 18408323272043632748
314173 41 18336271240384134789
4921388 177 15357708500341545513
94968 8 18411704287447303540
9882013 296 17346873468599064893

>  <PUBCHEM_SHAPE_MULTIPOLES>  (1) 
339.89
8.91
2.12
1.34
9.86
0.11
-0.08
-3.02
-0.42
-0.31
-0.1
-0.49
-0.19
0.02

>  <PUBCHEM_SHAPE_SELFOVERLAP>  (1) 
668.102

>  <PUBCHEM_SHAPE_VOLUME>  (1) 
200.5

>  <PUBCHEM_COORDINATE_TYPE>  (1) 
2
5
10

$$$$
