46817
     RDKit          3D

 22 24  0  0  1  0  0  0  0  0999 V2000
    2.9530    1.2917    2.3613 Cl  0  0  0  0  0  0  0  0  0  0  0  0
    2.1073   -0.7343   -2.6592 Cl  0  0  0  0  0  0  0  0  0  0  0  0
   -0.1401    0.4133    0.2185 O   0  0  0  0  0  0  0  0  0  0  0  0
   -0.2511    2.5535   -0.6241 O   0  0  0  0  0  0  0  0  0  0  0  0
   -3.9396   -1.1504   -0.3922 N   0  0  0  0  0  0  0  0  0  0  0  0
   -3.4676   -1.1761    0.9972 C   0  0  0  0  0  0  0  0  0  0  0  0
   -3.7766    0.2524   -0.7913 C   0  0  0  0  0  0  0  0  0  0  0  0
   -4.2897   -0.0131    1.5685 C   0  0  0  0  0  0  0  0  0  0  0  0
   -4.4948    0.9369    0.3795 C   0  0  0  0  0  0  0  0  0  0  0  0
   -1.9545   -0.9045    1.1054 C   0  0  0  0  0  0  0  0  0  0  0  0
   -2.2950    0.6702   -0.8662 C   0  0  0  0  0  0  0  0  0  0  0  0
   -1.5442    0.4192    0.4484 C   0  0  0  0  0  0  0  0  0  0  0  0
   -3.3488   -2.1342   -1.2803 C   0  0  0  0  0  0  0  0  0  0  0  0
    0.3825    1.5511   -0.3256 C   0  0  0  0  0  0  0  0  0  0  0  0
    1.8573    1.4042   -0.4900 C   0  0  0  0  0  0  0  0  0  0  0  0
    2.5896    0.1807   -0.1196 C   0  0  0  0  0  0  0  0  0  0  0  0
    2.5227    2.4420   -1.0218 C   0  0  0  0  0  0  0  0  0  0  0  0
    3.1185    0.0569    1.1598 C   0  0  0  0  0  0  0  0  0  0  0  0
    2.7451   -0.8367   -1.0537 C   0  0  0  0  0  0  0  0  0  0  0  0
    3.8129   -1.1011    1.5101 C   0  0  0  0  0  0  0  0  0  0  0  0
    3.4397   -1.9946   -0.7033 C   0  0  0  0  0  0  0  0  0  0  0  0
    3.9734   -2.1267    0.5787 C   0  0  0  0  0  0  0  0  0  0  0  0
  1 18  1  0
  2 19  1  0
  3 12  1  0
  3 14  1  0
  4 14  2  0
  5  6  1  0
  5  7  1  0
  5 13  1  0
  6  8  1  0
  6 10  1  0
  7  9  1  0
  7 11  1  0
  8  9  1  0
 10 12  1  0
 11 12  1  0
 14 15  1  0
 15 16  1  0
 15 17  2  0
 16 18  2  0
 16 19  1  0
 18 20  1  0
 19 21  2  0
 20 22  2  0
 21 22  1  0
M  END
>  <PUBCHEM_COMPOUND_CID>  (1) 
46817

>  <PUBCHEM_CONFORMER_RMSD>  (1) 
0.8

>  <PUBCHEM_CONFORMER_DIVERSEORDER>  (1) 
1
18
24
30
11
19
6
34
16
33
4
21
31
15
10
25
8
3
12
13
22
28
29
32
20
27
17
23
2
5
7
9
14
26

>  <PUBCHEM_MMFF94_PARTIAL_CHARGES>  (1) 
23
1 -0.18
12 0.28
13 0.27
14 0.71
15 -0.01
16 0.03
17 -0.3
18 0.18
19 0.18
2 -0.18
20 -0.15
21 -0.15
22 -0.15
3 -0.43
37 0.15
38 0.15
39 0.15
4 -0.57
40 0.15
41 0.15
5 -0.81
6 0.27
7 0.27

>  <PUBCHEM_EFFECTIVE_ROTOR_COUNT>  (1) 
5.2

>  <PUBCHEM_PHARMACOPHORE_FEATURES>  (1) 
5
1 17 hydrophobe
1 4 acceptor
1 5 cation
6 16 18 19 20 21 22 rings
8 5 6 7 8 9 10 11 12 rings

>  <PUBCHEM_HEAVY_ATOM_COUNT>  (1) 
22

>  <PUBCHEM_ATOM_DEF_STEREO_COUNT>  (1) 
0

>  <PUBCHEM_ATOM_UDEF_STEREO_COUNT>  (1) 
2

>  <PUBCHEM_BOND_DEF_STEREO_COUNT>  (1) 
0

>  <PUBCHEM_BOND_UDEF_STEREO_COUNT>  (1) 
0

>  <PUBCHEM_ISOTOPIC_ATOM_COUNT>  (1) 
0

>  <PUBCHEM_COMPONENT_COUNT>  (1) 
1

>  <PUBCHEM_CACTVS_TAUTO_COUNT>  (1) 
1

>  <PUBCHEM_CONFORMER_ID>  (1) 
0000B6E100000001

>  <PUBCHEM_MMFF94_ENERGY>  (1) 
62.4725

>  <PUBCHEM_FEATURE_SELFOVERLAP>  (1) 
25.371

>  <PUBCHEM_SHAPE_FINGERPRINT>  (1) 
10498660 4 10663815278222342243
11370993 70 16917063339420167287
116883 192 18335421201605043828
12363563 72 18335423435019185846
12553582 1 18262246533849461454
12596599 1 18059586775516655391
12633257 1 17703498918439010866
12707595 3 18186526496638680744
12788726 201 18266474121641032344
13224815 77 18272652384903720923
13533116 47 18130787901994809971
13583140 156 17060047186123773881
13675066 3 18272936012033691025
14289901 80 18271528714259231681
14341114 328 15123496026133912818
15163728 17 11022673978534285754
16752209 62 17604702245005630881
17349148 13 17775562053021271255
17492 89 18338238288108945087
17818456 19 18128829555574048857
18186145 218 16153425056219142297
19141452 34 18343298146325199527
19862831 5 16877666733889611480
20281475 54 18411420643818102413
20626108 58 18270668878838742007
20645477 70 18041277772103870667
20775530 9 17172629278353299266
23559900 14 18261108560989957932
2637199 183 9367067817506555946
341906 21 13758352267490556195
3797600 57 15265925783201287146
463206 1 18040712511532833378
49207404 50 12391513109051500021
5161694 15 16660359285925318123
5281201 14 13262392241623977563
633830 44 17676204684798437225
6669772 16 18047770470920716180
7808743 9 11310615122750501626
8988823 20 17489009527171157945
9709674 26 18114184193519014635

>  <PUBCHEM_SHAPE_MULTIPOLES>  (1) 
439.77
9.49
2.36
1.97
5.74
0.13
0.02
-3.19
-2.36
-1.37
0.57
-1.3
-0.06
-0.06

>  <PUBCHEM_SHAPE_SELFOVERLAP>  (1) 
925.39

>  <PUBCHEM_SHAPE_VOLUME>  (1) 
250.4

>  <PUBCHEM_COORDINATE_TYPE>  (1) 
2
5
10

$$$$
