46828
     RDKit          3D

 16 18  0  0  0  0  0  0  0  0999 V2000
   -0.7977   -0.5544    0.3137 N   0  0  0  0  0  0  0  0  0  0  0  0
   -3.2596    0.1016   -0.7438 C   0  0  0  0  0  0  0  0  0  0  0  0
   -0.8861   -0.7536   -1.1978 C   0  0  0  0  0  0  0  0  0  0  0  0
   -1.9583   -1.2853    0.9949 C   0  0  0  0  0  0  0  0  0  0  0  0
    0.5126   -1.2115    0.7831 C   0  0  0  0  0  0  0  0  0  0  0  0
   -0.7132    0.9410    0.6820 C   0  0  0  0  0  0  0  0  0  0  0  0
   -2.1577   -0.1529   -1.7757 C   0  0  0  0  0  0  0  0  0  0  0  0
   -3.2937   -1.0191    0.2963 C   0  0  0  0  0  0  0  0  0  0  0  0
    1.6885   -0.5650    0.0544 C   0  0  0  0  0  0  0  0  0  0  0  0
   -3.1091    1.4892   -0.1083 C   0  0  0  0  0  0  0  0  0  0  0  0
   -2.0546    1.5971    0.9826 C   0  0  0  0  0  0  0  0  0  0  0  0
    1.7274    0.9509    0.3165 C   0  0  0  0  0  0  0  0  0  0  0  0
    3.0143   -1.2222    0.4457 C   0  0  0  0  0  0  0  0  0  0  0  0
    3.1188    1.5678    0.1484 C   0  0  0  0  0  0  0  0  0  0  0  0
    4.1872   -0.6634   -0.3649 C   0  0  0  0  0  0  0  0  0  0  0  0
    3.9812    0.7799   -0.8272 C   0  0  0  0  0  0  0  0  0  0  0  0
  1  3  1  0
  1  4  1  0
  1  5  1  0
  1  6  1  0
  2  7  1  0
  2  8  1  0
  2 10  1  0
  3  7  1  0
  4  8  1  0
  5  9  1  0
  6 11  1  0
  9 12  1  0
  9 13  1  0
 10 11  1  0
 12 14  1  0
 13 15  1  0
 14 16  1  0
 15 16  1  0
M  CHG  1   1   1
M  END
>  <PUBCHEM_COMPOUND_CID>  (1) 
46828

>  <PUBCHEM_CONFORMER_RMSD>  (1) 
0.6

>  <PUBCHEM_CONFORMER_DIVERSEORDER>  (1) 
1
2
3

>  <PUBCHEM_MMFF94_PARTIAL_CHARGES>  (1) 
5
1 -1.01
3 0.5
4 0.5
5 0.5
6 0.5

>  <PUBCHEM_EFFECTIVE_ROTOR_COUNT>  (1) 
4.6

>  <PUBCHEM_PHARMACOPHORE_FEATURES>  (1) 
3
1 1 cation
6 9 12 13 14 15 16 rings
9 1 2 3 4 6 7 8 10 11 rings

>  <PUBCHEM_HEAVY_ATOM_COUNT>  (1) 
16

>  <PUBCHEM_ATOM_DEF_STEREO_COUNT>  (1) 
0

>  <PUBCHEM_ATOM_UDEF_STEREO_COUNT>  (1) 
0

>  <PUBCHEM_BOND_DEF_STEREO_COUNT>  (1) 
0

>  <PUBCHEM_BOND_UDEF_STEREO_COUNT>  (1) 
0

>  <PUBCHEM_ISOTOPIC_ATOM_COUNT>  (1) 
0

>  <PUBCHEM_COMPONENT_COUNT>  (1) 
1

>  <PUBCHEM_CACTVS_TAUTO_COUNT>  (1) 
1

>  <PUBCHEM_CONFORMER_ID>  (1) 
0000B6EC00000001

>  <PUBCHEM_MMFF94_ENERGY>  (1) 
84.8741

>  <PUBCHEM_FEATURE_SELFOVERLAP>  (1) 
15.223

>  <PUBCHEM_SHAPE_FINGERPRINT>  (1) 
10062212 137 18200868470413720322
10498660 4 17313095367439563564
10608611 8 18334293201574958464
10751810 167 18272938206508648092
10922523 26 17774443772207031094
11132069 177 16588021324838168935
12173636 292 18334010575594245061
12491281 212 18271811172640924505
12507557 5 18187359956960586584
12592029 89 17775010050739378303
12932764 1 17561360712209105530
13024252 1 12468638331276658019
13221675 6 18273496779811201882
13296908 3 18412262865345524562
13581323 91 16988843882276171310
14144814 61 18411419497093398608
14250199 8 18271525398549877240
15309172 13 17022623056840043122
15442244 35 18122627154678272658
15775835 57 18335141947004826428
16752209 62 17631723872992672521
16945 1 18130215060066820955
18186145 218 18113898234844386038
19422 9 18412265008476260870
19862831 5 18412543197913720940
19868273 293 17703783700118046087
200 152 18272364282692323774
20449540 30 18260552276667414045
20645476 183 18131061606964297479
20645477 70 18411703167083818734
21524375 3 17841436929931073553
23402539 116 18272645728142158190
23402655 69 18342459214494949204
23557571 272 18262812893933329175
23559900 14 18338231566880376322
25 1 18187926136470873658
2748010 2 17332518485141628920
3082319 5 18272651242595407468
4028521 119 18261666000379155861
4175511 318 17632576037316657093
474 4 18115589382744664860
5104073 3 18408605859717697160
633830 44 18409169883423432766
74978 22 18408602574094030170
8030462 33 18342172271897912968
81228 2 16953113190321285466
90525 40 17917713465599969214
9981440 41 17765697411091698720

>  <PUBCHEM_SHAPE_MULTIPOLES>  (1) 
324.29
7.21
1.68
1.21
4.6
0.34
-0.34
0.64
-1.19
-0.07
0.38
-0.64
-0.09
-0.21

>  <PUBCHEM_SHAPE_SELFOVERLAP>  (1) 
662.614

>  <PUBCHEM_SHAPE_VOLUME>  (1) 
179.8

>  <PUBCHEM_COORDINATE_TYPE>  (1) 
2
5
10

$$$$
