46822
     RDKit          3D

 18 19  0  0  0  0  0  0  0  0999 V2000
   -0.2573    0.4205   -0.5829 O   0  0  0  0  0  0  0  0  0  0  0  0
   -0.3150    2.5747    0.2293 O   0  0  0  0  0  0  0  0  0  0  0  0
   -4.0970   -0.9161    0.4127 N   0  0  0  0  0  0  0  0  0  0  0  0
   -1.6784    0.3762   -0.5977 C   0  0  0  0  0  0  0  0  0  0  0  0
   -2.1977    0.6140    0.8168 C   0  0  0  0  0  0  0  0  0  0  0  0
   -2.1530   -0.9795   -1.1134 C   0  0  0  0  0  0  0  0  0  0  0  0
   -3.7114    0.4184    0.8938 C   0  0  0  0  0  0  0  0  0  0  0  0
   -3.6681   -1.1259   -0.9776 C   0  0  0  0  0  0  0  0  0  0  0  0
   -5.5419   -1.1070    0.5367 C   0  0  0  0  0  0  0  0  0  0  0  0
    0.3015    1.5867   -0.1440 C   0  0  0  0  0  0  0  0  0  0  0  0
    1.7886    1.4781   -0.1670 C   0  0  0  0  0  0  0  0  0  0  0  0
    2.5043    0.2027    0.0119 C   0  0  0  0  0  0  0  0  0  0  0  0
    2.4833    2.6064   -0.3832 C   0  0  0  0  0  0  0  0  0  0  0  0
    2.8859   -0.1885    1.2851 C   0  0  0  0  0  0  0  0  0  0  0  0
    2.7821   -0.5810   -1.0966 C   0  0  0  0  0  0  0  0  0  0  0  0
    3.5637   -1.3957    1.4546 C   0  0  0  0  0  0  0  0  0  0  0  0
    3.4599   -1.7884   -0.9270 C   0  0  0  0  0  0  0  0  0  0  0  0
    3.8506   -2.1956    0.3487 C   0  0  0  0  0  0  0  0  0  0  0  0
  1  4  1  0
  1 10  1  0
  2 10  2  0
  3  7  1  0
  3  8  1  0
  3  9  1  0
  4  5  1  0
  4  6  1  0
  5  7  1  0
  6  8  1  0
 10 11  1  0
 11 12  1  0
 11 13  2  0
 12 14  2  0
 12 15  1  0
 14 16  1  0
 15 17  2  0
 16 18  2  0
 17 18  1  0
M  END
>  <PUBCHEM_COMPOUND_CID>  (1) 
46822

>  <PUBCHEM_CONFORMER_RMSD>  (1) 
0.8

>  <PUBCHEM_CONFORMER_DIVERSEORDER>  (1) 
6
8
42
48
54
31
17
35
50
7
37
4
56
60
3
33
30
27
51
2
18
5
40
58
44
39
47
55
53
38
14
10
61
46
23
32
25
49
24
1
28
34
15
19
57
52
9
29
13
41
26
43
36
20
16
45
21
59
12
11
22

>  <PUBCHEM_MMFF94_PARTIAL_CHARGES>  (1) 
23
1 -0.43
10 0.71
11 -0.01
12 0.03
13 -0.3
14 -0.15
15 -0.15
16 -0.15
17 -0.15
18 -0.15
2 -0.57
3 -0.81
31 0.15
32 0.15
33 0.15
34 0.15
35 0.15
36 0.15
37 0.15
4 0.28
7 0.27
8 0.27
9 0.27

>  <PUBCHEM_EFFECTIVE_ROTOR_COUNT>  (1) 
5.2

>  <PUBCHEM_PHARMACOPHORE_FEATURES>  (1) 
5
1 13 hydrophobe
1 2 acceptor
1 3 cation
6 12 14 15 16 17 18 rings
6 3 4 5 6 7 8 rings

>  <PUBCHEM_HEAVY_ATOM_COUNT>  (1) 
18

>  <PUBCHEM_ATOM_DEF_STEREO_COUNT>  (1) 
0

>  <PUBCHEM_ATOM_UDEF_STEREO_COUNT>  (1) 
0

>  <PUBCHEM_BOND_DEF_STEREO_COUNT>  (1) 
0

>  <PUBCHEM_BOND_UDEF_STEREO_COUNT>  (1) 
0

>  <PUBCHEM_ISOTOPIC_ATOM_COUNT>  (1) 
0

>  <PUBCHEM_COMPONENT_COUNT>  (1) 
1

>  <PUBCHEM_CACTVS_TAUTO_COUNT>  (1) 
1

>  <PUBCHEM_CONFORMER_ID>  (1) 
0000B6E600000006

>  <PUBCHEM_MMFF94_ENERGY>  (1) 
45.7268

>  <PUBCHEM_FEATURE_SELFOVERLAP>  (1) 
25.371

>  <PUBCHEM_SHAPE_FINGERPRINT>  (1) 
10618630 7 18410009893042716740
11543360 7 14707217607900378827
12107183 9 18124606292878147649
12363563 72 18261390001559373114
12403259 327 15913321399042364502
12553582 1 18412824664327092078
12596599 1 18412270536173485563
12707595 3 18187079533965877298
12824470 246 17896311416320988178
12892183 10 17274819121324421386
13464513 79 18413109451050797494
13533116 47 18339364179794553371
13675066 3 17846497006926947953
13965767 371 11599430335977280826
14178342 30 17985551056801249690
1420 369 18412262826733406779
14251758 9 18341899533396554169
14252887 29 18411697703600088016
14848160 33 18334004004046635046
15239191 94 18186523180844975787
15375462 189 18341049713291341440
15885798 251 18410857638046073369
17349148 13 17632294584368684085
17818456 19 18129673984888922833
1798214 55 9799400144481640354
1813 80 18260836964205887388
193927 3 18334583421068277643
20291156 8 18410010996743790776
20361792 2 18188489077908284948
20559304 39 18131355249446272040
20645477 70 18261671566608960663
20671657 53 17967809427406945832
20871998 22 18411415086225574788
21421861 104 18411703209632467664
21731516 1 18334856065776629444
21756936 100 14618222137007390258
2255824 54 18336270162331668900
22646028 28 18410853252552122315
235170 7 15285649767372840979
23559900 14 15769513013481473605
312423 11 18335432256945750637
3286 77 17967245390705297482
3421961 26 18410011048357316424
4072396 5 17632584847064616815
465052 167 18337120033364961775
5104073 3 18343311392204710345
5374978 207 17275388720266992347
7097593 13 18200591526870054709
7808743 9 10518827104100833762
7970288 3 18263363607636311426
94968 8 18186805772845499306
960060 61 17313109656880354255

>  <PUBCHEM_SHAPE_MULTIPOLES>  (1) 
353.71
9.58
2.43
1.23
8.74
1.02
-0.11
-6.2
-1.77
-2.15
0.13
-0.33
-0.39
-0.58

>  <PUBCHEM_SHAPE_SELFOVERLAP>  (1) 
737.185

>  <PUBCHEM_SHAPE_VOLUME>  (1) 
200.4

>  <PUBCHEM_COORDINATE_TYPE>  (1) 
2
5
10

$$$$
