46826
     RDKit          3D

 17 19  0  0  0  0  0  0  0  0999 V2000
   -1.7426   -2.5868    0.0574 Cl  0  0  0  0  0  0  0  0  0  0  0  0
    0.8885   -0.0596    0.6077 N   0  0  0  0  0  0  0  0  0  0  0  0
    3.2529   -0.3996   -0.7721 C   0  0  0  0  0  0  0  0  0  0  0  0
    2.0715   -0.4017    1.5180 C   0  0  0  0  0  0  0  0  0  0  0  0
    0.7967   -1.0877   -0.5177 C   0  0  0  0  0  0  0  0  0  0  0  0
    0.9353    1.3797    0.0550 C   0  0  0  0  0  0  0  0  0  0  0  0
    3.3348   -0.7299    0.7190 C   0  0  0  0  0  0  0  0  0  0  0  0
    2.0302   -1.0676   -1.4065 C   0  0  0  0  0  0  0  0  0  0  0  0
    3.2571    1.1101   -1.0409 C   0  0  0  0  0  0  0  0  0  0  0  0
    2.3385    1.9346   -0.1519 C   0  0  0  0  0  0  0  0  0  0  0  0
   -0.3988   -0.1828    1.4424 C   0  0  0  0  0  0  0  0  0  0  0  0
   -1.6435    0.0727    0.6448 C   0  0  0  0  0  0  0  0  0  0  0  0
   -2.3101   -0.9582   -0.0111 C   0  0  0  0  0  0  0  0  0  0  0  0
   -2.1218    1.3782    0.5743 C   0  0  0  0  0  0  0  0  0  0  0  0
   -3.4646   -0.6815   -0.7434 C   0  0  0  0  0  0  0  0  0  0  0  0
   -3.2763    1.6548   -0.1581 C   0  0  0  0  0  0  0  0  0  0  0  0
   -3.9476    0.6250   -0.8170 C   0  0  0  0  0  0  0  0  0  0  0  0
  1 13  1  0
  2  4  1  0
  2  5  1  0
  2  6  1  0
  2 11  1  0
  3  7  1  0
  3  8  1  0
  3  9  1  0
  4  7  1  0
  5  8  1  0
  6 10  1  0
  9 10  1  0
 11 12  1  0
 12 13  2  0
 12 14  1  0
 13 15  1  0
 14 16  2  0
 15 17  2  0
 16 17  1  0
M  CHG  1   2   1
M  END
>  <PUBCHEM_COMPOUND_CID>  (1) 
46826

>  <PUBCHEM_CONFORMER_RMSD>  (1) 
0.6

>  <PUBCHEM_CONFORMER_DIVERSEORDER>  (1) 
1
4
2
3
5
6

>  <PUBCHEM_MMFF94_PARTIAL_CHARGES>  (1) 
16
1 -0.18
11 0.65
12 -0.14
13 0.18
14 -0.15
15 -0.15
16 -0.15
17 -0.15
2 -1.01
35 0.15
36 0.15
37 0.15
38 0.15
4 0.5
5 0.5
6 0.5

>  <PUBCHEM_EFFECTIVE_ROTOR_COUNT>  (1) 
3.4

>  <PUBCHEM_PHARMACOPHORE_FEATURES>  (1) 
3
1 2 cation
6 12 13 14 15 16 17 rings
9 2 3 4 5 6 7 8 9 10 rings

>  <PUBCHEM_HEAVY_ATOM_COUNT>  (1) 
17

>  <PUBCHEM_ATOM_DEF_STEREO_COUNT>  (1) 
0

>  <PUBCHEM_ATOM_UDEF_STEREO_COUNT>  (1) 
0

>  <PUBCHEM_BOND_DEF_STEREO_COUNT>  (1) 
0

>  <PUBCHEM_BOND_UDEF_STEREO_COUNT>  (1) 
0

>  <PUBCHEM_ISOTOPIC_ATOM_COUNT>  (1) 
0

>  <PUBCHEM_COMPONENT_COUNT>  (1) 
1

>  <PUBCHEM_CACTVS_TAUTO_COUNT>  (1) 
1

>  <PUBCHEM_CONFORMER_ID>  (1) 
0000B6EA00000001

>  <PUBCHEM_MMFF94_ENERGY>  (1) 
67.9427

>  <PUBCHEM_FEATURE_SELFOVERLAP>  (1) 
15.223

>  <PUBCHEM_SHAPE_FINGERPRINT>  (1) 
10498660 4 18187356611244587861
10618630 7 11312055452537951293
10871710 139 14952640027849801465
11640471 11 17676487267465279551
12173636 292 18408598163368345733
12491281 212 18186526513644483088
12932764 1 18113909281083475203
13134695 92 17168695337480659502
13224815 77 17561084743180047043
13583140 156 17385727997759020857
13705890 14 17775005674225368244
14289901 80 15357707370480407129
15375358 24 17774708818696568146
15775835 57 17749389247920909213
15852999 172 17988635255547421883
16945 1 18341339915530568178
1813 80 16881023418842251442
18186145 218 17603872182287575780
192875 21 18340752785027340853
19862831 5 18335138687288042541
19868273 293 18261109656100993475
200 152 15554157099861133083
20279233 1 17346873442528769090
20361792 2 14979959172610505257
20645476 183 18261387836980693659
20671657 53 15626221286557764043
20871999 31 18341047523448702103
21501502 16 18335984245973528596
21524375 3 17968375629077735395
22802520 49 18200314445681700731
22854114 111 17385443202313725600
22892500 29 17603580837913940540
23402539 116 18269261396396162708
23402655 69 18335985289619310021
23419403 2 14542270261218965584
23557571 272 18118693346602584003
23559900 14 18130504133342084838
25 1 17458628878180926096
2748010 2 17625529469294957595
3082319 5 18412547630140823821
4028521 119 18040711468187517757
474 4 17241334718929972980
5262128 65 18200329778414754308
74978 22 18335138708583466131
81228 2 17346046541102310961
93112 12 18410577300871504516
9709674 26 18272654566736915479
9981440 41 17537720276226231600

>  <PUBCHEM_SHAPE_MULTIPOLES>  (1) 
346.74
6.71
2.03
1.27
1.52
0.22
0.13
-1.05
-1.73
0.62
-0.17
-0.57
0.15
-0.18

>  <PUBCHEM_SHAPE_SELFOVERLAP>  (1) 
723.453

>  <PUBCHEM_SHAPE_VOLUME>  (1) 
193.7

>  <PUBCHEM_COORDINATE_TYPE>  (1) 
2
5
10

$$$$
