46829
     RDKit          3D

 11 12  0  0  1  0  0  0  0  0999 V2000
   -0.1227   -1.2888   -0.2720 N   0  0  0  0  0  0  0  0  0  0  0  0
   -0.0191    1.1310    0.3857 C   0  0  0  0  0  0  0  0  0  0  0  0
    1.9852   -0.0570    0.3378 C   0  0  0  0  0  0  0  0  0  0  0  0
    1.2078    0.8755    1.2580 C   0  0  0  0  0  0  0  0  0  0  0  0
   -0.8777   -0.1679    0.3324 C   0  0  0  0  0  0  0  0  0  0  0  0
    0.6254    1.4838   -0.9687 C   0  0  0  0  0  0  0  0  0  0  0  0
    1.9393    0.6883   -1.0047 C   0  0  0  0  0  0  0  0  0  0  0  0
    1.2462   -1.4079    0.2640 C   0  0  0  0  0  0  0  0  0  0  0  0
   -2.1889    0.1063   -0.4182 C   0  0  0  0  0  0  0  0  0  0  0  0
   -0.8160   -2.5725   -0.1662 C   0  0  0  0  0  0  0  0  0  0  0  0
   -2.9796    1.2091    0.2517 C   0  0  0  0  0  0  0  0  0  0  0  0
  1  5  1  0
  1  8  1  0
  1 10  1  0
  2  4  1  0
  2  5  1  0
  2  6  1  0
  3  4  1  0
  3  7  1  0
  3  8  1  0
  5  9  1  0
  6  7  1  0
  9 11  1  0
M  END
>  <PUBCHEM_COMPOUND_CID>  (1) 
46829

>  <PUBCHEM_CONFORMER_RMSD>  (1) 
0.6

>  <PUBCHEM_CONFORMER_DIVERSEORDER>  (1) 
1
7
3
6
2
4
5

>  <PUBCHEM_MMFF94_PARTIAL_CHARGES>  (1) 
4
1 -0.81
10 0.27
5 0.27
8 0.27

>  <PUBCHEM_EFFECTIVE_ROTOR_COUNT>  (1) 
2.2

>  <PUBCHEM_PHARMACOPHORE_FEATURES>  (1) 
3
1 1 cation
1 11 hydrophobe
8 1 2 3 4 5 6 7 8 rings

>  <PUBCHEM_HEAVY_ATOM_COUNT>  (1) 
11

>  <PUBCHEM_ATOM_DEF_STEREO_COUNT>  (1) 
0

>  <PUBCHEM_ATOM_UDEF_STEREO_COUNT>  (1) 
3

>  <PUBCHEM_BOND_DEF_STEREO_COUNT>  (1) 
0

>  <PUBCHEM_BOND_UDEF_STEREO_COUNT>  (1) 
0

>  <PUBCHEM_ISOTOPIC_ATOM_COUNT>  (1) 
0

>  <PUBCHEM_COMPONENT_COUNT>  (1) 
1

>  <PUBCHEM_CACTVS_TAUTO_COUNT>  (1) 
1

>  <PUBCHEM_CONFORMER_ID>  (1) 
0000B6ED00000001

>  <PUBCHEM_MMFF94_ENERGY>  (1) 
24.2855

>  <PUBCHEM_FEATURE_SELFOVERLAP>  (1) 
15.223

>  <PUBCHEM_SHAPE_FINGERPRINT>  (1) 
1 1 18339358544333178743
10219947 1 18261673653984347377
12423570 1 15309206550821211222
13024252 1 13351709720218758370
13380536 243 18333447625371909045
13839132 238 17985539189891448680
15219459 52 18334014981956591990
15775835 57 18201999898286403265
16945 1 18411697686261989072
18185500 45 18262794198082711650
20653085 51 17535217706056496172
21040471 1 18411697724731941971
21922407 69 15648442562583946561
23235685 24 18408324371560781997
23559900 14 18201167620278132756
241688 4 16894839735310304267
2748010 2 18410293575532611655
5084963 1 18187072971261026339
528886 8 18334300833483891140
68250623 7 17315095443472695226

>  <PUBCHEM_SHAPE_MULTIPOLES>  (1) 
221.39
3.05
2.1
1.01
1.8
1.4
0.02
-1
-0.02
0.38
-0.18
-0.37
-0.32
-0.24

>  <PUBCHEM_SHAPE_SELFOVERLAP>  (1) 
449.737

>  <PUBCHEM_SHAPE_VOLUME>  (1) 
129.6

>  <PUBCHEM_COORDINATE_TYPE>  (1) 
2
5
10

$$$$
