46824
     RDKit          3D

 24 26  0  0  1  0  0  0  0  0999 V2000
    5.1924    2.1544   -1.0504 F   0  0  0  0  0  0  0  0  0  0  0  0
    4.9229    2.2844    1.0978 F   0  0  0  0  0  0  0  0  0  0  0  0
    6.2226    0.7564    0.2584 F   0  0  0  0  0  0  0  0  0  0  0  0
   -0.9820   -0.5833    0.0338 O   0  0  0  0  0  0  0  0  0  0  0  0
   -1.5637   -2.7300    0.6317 O   0  0  0  0  0  0  0  0  0  0  0  0
   -4.4657    1.2348   -0.9153 N   0  0  0  0  0  0  0  0  0  0  0  0
   -4.7112   -0.1066   -0.3528 C   0  0  0  0  0  0  0  0  0  0  0  0
   -3.7864    1.9324    0.1929 C   0  0  0  0  0  0  0  0  0  0  0  0
   -5.1802    0.1592    1.0819 C   0  0  0  0  0  0  0  0  0  0  0  0
   -4.5660    1.5137    1.4445 C   0  0  0  0  0  0  0  0  0  0  0  0
   -3.3584   -0.8448   -0.3878 C   0  0  0  0  0  0  0  0  0  0  0  0
   -2.3385    1.4041    0.2141 C   0  0  0  0  0  0  0  0  0  0  0  0
   -2.2704   -0.1163    0.4152 C   0  0  0  0  0  0  0  0  0  0  0  0
   -5.6933    1.9046   -1.3375 C   0  0  0  0  0  0  0  0  0  0  0  0
   -0.7580   -1.9205    0.1943 C   0  0  0  0  0  0  0  0  0  0  0  0
    0.6196   -2.2629   -0.2622 C   0  0  0  0  0  0  0  0  0  0  0  0
    1.7517   -1.3238   -0.1764 C   0  0  0  0  0  0  0  0  0  0  0  0
    0.8159   -3.4976   -0.7513 C   0  0  0  0  0  0  0  0  0  0  0  0
    2.0248   -0.4904   -1.2488 C   0  0  0  0  0  0  0  0  0  0  0  0
    2.5220   -1.2928    0.9750 C   0  0  0  0  0  0  0  0  0  0  0  0
    3.0971    0.3979   -1.1680 C   0  0  0  0  0  0  0  0  0  0  0  0
    3.5943   -0.4044    1.0560 C   0  0  0  0  0  0  0  0  0  0  0  0
    3.8819    0.4411   -0.0156 C   0  0  0  0  0  0  0  0  0  0  0  0
    5.0287    1.3906    0.0703 C   0  0  0  0  0  0  0  0  0  0  0  0
  1 24  1  0
  2 24  1  0
  3 24  1  0
  4 13  1  0
  4 15  1  0
  5 15  2  0
  6  7  1  0
  6  8  1  0
  6 14  1  0
  7  9  1  0
  7 11  1  0
  8 10  1  0
  8 12  1  0
  9 10  1  0
 11 13  1  0
 12 13  1  0
 15 16  1  0
 16 17  1  0
 16 18  2  0
 17 19  2  0
 17 20  1  0
 19 21  1  0
 20 22  2  0
 21 23  2  0
 22 23  1  0
 23 24  1  0
M  END
>  <PUBCHEM_COMPOUND_CID>  (1) 
46824

>  <PUBCHEM_CONFORMER_RMSD>  (1) 
0.8

>  <PUBCHEM_CONFORMER_DIVERSEORDER>  (1) 
6
58
29
10
17
40
37
27
47
26
38
45
56
59
55
50
24
51
36
43
52
3
2
39
49
15
42
53
35
4
14
54
44
41
30
8
21
5
33
46
34
12
57
9
20
23
1
25
48
16
18
32
11
31
19
13
22
28
7

>  <PUBCHEM_MMFF94_PARTIAL_CHARGES>  (1) 
26
1 -0.34
13 0.28
14 0.27
15 0.71
16 -0.01
17 0.03
18 -0.3
19 -0.15
2 -0.34
20 -0.15
21 -0.15
22 -0.15
23 -0.14
24 1.16
3 -0.34
39 0.15
4 -0.43
40 0.15
41 0.15
42 0.15
43 0.15
44 0.15
5 -0.57
6 -0.81
7 0.27
8 0.27

>  <PUBCHEM_EFFECTIVE_ROTOR_COUNT>  (1) 
6.2

>  <PUBCHEM_PHARMACOPHORE_FEATURES>  (1) 
5
1 18 hydrophobe
1 5 acceptor
1 6 cation
6 17 19 20 21 22 23 rings
8 6 7 8 9 10 11 12 13 rings

>  <PUBCHEM_HEAVY_ATOM_COUNT>  (1) 
24

>  <PUBCHEM_ATOM_DEF_STEREO_COUNT>  (1) 
0

>  <PUBCHEM_ATOM_UDEF_STEREO_COUNT>  (1) 
2

>  <PUBCHEM_BOND_DEF_STEREO_COUNT>  (1) 
0

>  <PUBCHEM_BOND_UDEF_STEREO_COUNT>  (1) 
0

>  <PUBCHEM_ISOTOPIC_ATOM_COUNT>  (1) 
0

>  <PUBCHEM_COMPONENT_COUNT>  (1) 
1

>  <PUBCHEM_CACTVS_TAUTO_COUNT>  (1) 
1

>  <PUBCHEM_CONFORMER_ID>  (1) 
0000B6E800000006

>  <PUBCHEM_MMFF94_ENERGY>  (1) 
61.1819

>  <PUBCHEM_FEATURE_SELFOVERLAP>  (1) 
25.371

>  <PUBCHEM_SHAPE_FINGERPRINT>  (1) 
10498660 4 18342741810014752633
10670039 82 18340218384191502372
10692045 39 18337382739587979178
10928967 22 10735869552493546517
11796584 16 11887672849315856101
12403259 118 17313393326933324701
12403259 415 18261682463088846255
12422481 6 17676761007480203732
12523318 42 16805899463210033003
12596602 18 17167861980228127904
12633257 1 15647057100903157714
12760667 363 8574440811091505073
12769317 202 18201995517224452872
12788726 201 16414645826413850289
12892183 10 16732978687297156667
13103583 49 13767926788964843847
13224815 77 18338803295625423211
13402501 40 18272930557299150800
13583140 156 16443060621464381955
13631057 29 18130216181903131327
13914758 101 13767918032386506343
13965767 371 17968373455597586382
14123255 352 18409726257486466149
14123256 34 9151174294003211048
14251764 30 10879983688354941381
14251764 38 17974281032789742685
14257110 125 18410014359951116344
14528608 73 18272645736399958813
14576447 43 11600014254182067588
14739800 52 18269536386784764016
14767858 380 18270382993621670159
14848178 96 18341894056500706123
15163728 17 18341909505867718446
15188451 53 14490485230972655377
17834072 32 18341614862594806264
1813 80 8718541761425011059
18222031 100 8069741854165040979
193927 3 9511467731727987856
20567600 254 18409442574812188916
20715895 44 17753600253371342725
21033648 29 16443339824150380807
21401589 2 18335710463578748851
21756936 100 18271517719533110342
22149856 69 18193867919636943251
22950370 63 9799688229317996039
23227448 37 18340769350826880495
235170 7 15554442960041891345
23559900 14 18122063096587145011
245318 6 17823716341370433388
2838139 119 18271801354678053464
312425 83 16987449607227708597
3472631 163 18272652329280370349
351380 3 10159699096675815628
4371632 12 14617676869011918168
474 4 18337670815427990307
5104073 3 18115596937644347467
543368 44 17989488511689833593
59755656 520 18411133662952223342
6327066 14 18409162238302745644
6328613 192 18261683666471110124
633830 44 18057613062287776143
636775 72 17543918262581552772
67856867 119 18266170643668021091
7808743 9 18339924930355259026
7970288 3 8934993763626403297
960060 61 11671769464699195843
9981440 41 18335140920687562939

>  <PUBCHEM_SHAPE_MULTIPOLES>  (1) 
455.37
13.78
2.97
1.21
1.16
1.49
0.03
-11.76
-0.13
1.28
0.22
-0.35
-0.28
0.33

>  <PUBCHEM_SHAPE_SELFOVERLAP>  (1) 
979.213

>  <PUBCHEM_SHAPE_VOLUME>  (1) 
254.5

>  <PUBCHEM_COORDINATE_TYPE>  (1) 
2
5
10

$$$$
