46832
     RDKit          3D

 11 12  0  0  1  0  0  0  0  0999 V2000
   -0.1669    1.1703    0.5367 N   0  0  0  0  0  0  0  0  0  0  0  0
   -0.7680   -1.1102   -0.3220 C   0  0  0  0  0  0  0  0  0  0  0  0
    1.4449   -0.3980   -0.5739 C   0  0  0  0  0  0  0  0  0  0  0  0
   -1.2747    0.3190    0.0655 C   0  0  0  0  0  0  0  0  0  0  0  0
    0.3201   -1.0252   -1.3958 C   0  0  0  0  0  0  0  0  0  0  0  0
    0.0152   -1.8071    0.8114 C   0  0  0  0  0  0  0  0  0  0  0  0
    1.0633    1.0711   -0.2612 C   0  0  0  0  0  0  0  0  0  0  0  0
    1.4580   -1.2972    0.6754 C   0  0  0  0  0  0  0  0  0  0  0  0
   -1.9215    1.0120   -1.1535 C   0  0  0  0  0  0  0  0  0  0  0  0
   -2.3622    0.2525    1.1592 C   0  0  0  0  0  0  0  0  0  0  0  0
    2.1918    1.8128    0.4583 C   0  0  0  0  0  0  0  0  0  0  0  0
  1  4  1  0
  1  7  1  0
  2  4  1  0
  2  5  1  0
  2  6  1  0
  3  5  1  0
  3  7  1  0
  3  8  1  0
  4  9  1  0
  4 10  1  0
  6  8  1  0
  7 11  1  0
M  END
>  <PUBCHEM_COMPOUND_CID>  (1) 
46832

>  <PUBCHEM_CONFORMER_RMSD>  (1) 
0.4

>  <PUBCHEM_CONFORMER_DIVERSEORDER>  (1) 
4
2
6
3
5
1

>  <PUBCHEM_MMFF94_PARTIAL_CHARGES>  (1) 
4
1 -0.9
21 0.36
4 0.27
7 0.27

>  <PUBCHEM_EFFECTIVE_ROTOR_COUNT>  (1) 
1.2

>  <PUBCHEM_PHARMACOPHORE_FEATURES>  (1) 
4
1 1 cation
1 1 donor
3 4 9 10 hydrophobe
8 1 2 3 4 5 6 7 8 rings

>  <PUBCHEM_HEAVY_ATOM_COUNT>  (1) 
11

>  <PUBCHEM_ATOM_DEF_STEREO_COUNT>  (1) 
0

>  <PUBCHEM_ATOM_UDEF_STEREO_COUNT>  (1) 
3

>  <PUBCHEM_BOND_DEF_STEREO_COUNT>  (1) 
0

>  <PUBCHEM_BOND_UDEF_STEREO_COUNT>  (1) 
0

>  <PUBCHEM_ISOTOPIC_ATOM_COUNT>  (1) 
0

>  <PUBCHEM_COMPONENT_COUNT>  (1) 
1

>  <PUBCHEM_CACTVS_TAUTO_COUNT>  (1) 
1

>  <PUBCHEM_CONFORMER_ID>  (1) 
0000B6F000000004

>  <PUBCHEM_MMFF94_ENERGY>  (1) 
22.3339

>  <PUBCHEM_FEATURE_SELFOVERLAP>  (1) 
20.297

>  <PUBCHEM_SHAPE_FINGERPRINT>  (1) 
12423570 1 11166211857699756366
13024252 1 17542486680359004460
137420 1 12529656664782878095
15557651 10 18046379433031809895
16945 1 18270398283008735550
18185500 45 17833267528065263707
19837323 101 17130722762300866272
20653085 51 17415582040466172640
21040471 1 18265062490428388780
21922407 69 15910199752581982835
23419403 2 16018538979810578942
241688 4 17192374243412608634
2748010 2 18407761451592763711
369184 2 17538259028117200168
5084963 1 18337955713234822356
528886 8 17632030670848510766
68250623 7 18200037372804265142

>  <PUBCHEM_SHAPE_MULTIPOLES>  (1) 
221.39
2.63
1.91
1.23
0.45
0.06
-0.17
-1.09
0.43
-0.73
0.24
0.32
0.13
0.22

>  <PUBCHEM_SHAPE_SELFOVERLAP>  (1) 
453.712

>  <PUBCHEM_SHAPE_VOLUME>  (1) 
129

>  <PUBCHEM_COORDINATE_TYPE>  (1) 
2
5
10

$$$$
