46875
     RDKit          3D

 14 13  0  0  0  0  0  0  0  0999 V2000
   -4.3214   -1.9347    1.1799 Cl  0  0  0  0  0  0  0  0  0  0  0  0
    5.5560   -0.9274   -0.1309 Cl  0  0  0  0  0  0  0  0  0  0  0  0
   -0.1333    1.3605    1.4344 O   0  0  0  0  0  0  0  0  0  0  0  0
   -2.7773   -0.9806   -1.2951 O   0  0  0  0  0  0  0  0  0  0  0  0
    2.5956   -1.2066   -0.8916 O   0  0  0  0  0  0  0  0  0  0  0  0
   -2.5491    0.9961   -0.0981 N   0  0  0  0  0  0  0  0  0  0  0  0
    2.3637    0.8154    0.2262 N   0  0  0  0  0  0  0  0  0  0  0  0
   -0.0853    0.8799    0.0913 C   0  0  0  0  0  0  0  0  0  0  0  0
   -1.2978    1.4037   -0.6791 C   0  0  0  0  0  0  0  0  0  0  0  0
    1.2422    1.3023   -0.5348 C   0  0  0  0  0  0  0  0  0  0  0  0
   -3.1925   -0.1787   -0.4604 C   0  0  0  0  0  0  0  0  0  0  0  0
    2.9533   -0.4152   -0.0208 C   0  0  0  0  0  0  0  0  0  0  0  0
   -4.4769   -0.4097    0.2940 C   0  0  0  0  0  0  0  0  0  0  0  0
    4.1230   -0.7048    0.8849 C   0  0  0  0  0  0  0  0  0  0  0  0
  1 13  1  0
  2 14  1  0
  3  8  1  0
  4 11  2  0
  5 12  2  0
  6  9  1  0
  6 11  1  0
  7 10  1  0
  7 12  1  0
  8  9  1  0
  8 10  1  0
 11 13  1  0
 12 14  1  0
M  END
>  <PUBCHEM_COMPOUND_CID>  (1) 
46875

>  <PUBCHEM_CONFORMER_RMSD>  (1) 
0.8

>  <PUBCHEM_CONFORMER_DIVERSEORDER>  (1) 
2
149
70
79
153
201
105
152
198
125
195
17
145
13
50
40
208
163
86
103
77
209
139
158
62
206
170
207
81
30
203
171
101
130
35
114
67
167
150
69
3
175
84
99
133
47
7
187
31
22
57
151
146
134
115
205
20
176
44
36
200
169
197
202
18
148
59
42
33
204
132
181
110
16
196
160
37
172
106
38
156
91
117
74
43
141
80
54
88
12
194
193
96
21
166
162
190
90
179
180
140
192
168
11
25
131
107
199
75
138
165
68
24
85
178
111
32
1
9
71
26
174
184
34
142
161
66
177
189
137
5
60
126
159
73
124
27
92
45
144
120
41
10
155
52
95
118
143
113
61
64
129
51
188
173
112
53
127
102
185
108
4
89
6
136
55
19
97
56
191
128
14
186
98
104
29
119
48
147
8
182
121
154
49
135
109
87
122
76
164
116
65
39
93
72
78
82
46
83
183
157
100
58
28
123
63
94
15
23

>  <PUBCHEM_MMFF94_PARTIAL_CHARGES>  (1) 
17
1 -0.29
10 0.3
11 0.57
12 0.57
13 0.35
14 0.35
2 -0.29
20 0.37
21 0.37
22 0.4
3 -0.68
4 -0.57
5 -0.57
6 -0.73
7 -0.73
8 0.28
9 0.3

>  <PUBCHEM_EFFECTIVE_ROTOR_COUNT>  (1) 
8

>  <PUBCHEM_PHARMACOPHORE_FEATURES>  (1) 
6
1 3 acceptor
1 3 donor
1 4 acceptor
1 5 acceptor
1 6 donor
1 7 donor

>  <PUBCHEM_HEAVY_ATOM_COUNT>  (1) 
14

>  <PUBCHEM_ATOM_DEF_STEREO_COUNT>  (1) 
0

>  <PUBCHEM_ATOM_UDEF_STEREO_COUNT>  (1) 
0

>  <PUBCHEM_BOND_DEF_STEREO_COUNT>  (1) 
0

>  <PUBCHEM_BOND_UDEF_STEREO_COUNT>  (1) 
0

>  <PUBCHEM_ISOTOPIC_ATOM_COUNT>  (1) 
0

>  <PUBCHEM_COMPONENT_COUNT>  (1) 
1

>  <PUBCHEM_CACTVS_TAUTO_COUNT>  (1) 
3

>  <PUBCHEM_CONFORMER_ID>  (1) 
0000B71B00000002

>  <PUBCHEM_MMFF94_ENERGY>  (1) 
12.7744

>  <PUBCHEM_FEATURE_SELFOVERLAP>  (1) 
30.453

>  <PUBCHEM_SHAPE_FINGERPRINT>  (1) 
10498660 4 9007060158067755095
12596602 18 15985100851388736627
12670546 177 16008755731410197182
13740256 8 18260834829506855730
14123255 352 10087637100565460538
14123260 362 9295288374024620019
14251710 61 18408325488241651451
14251731 8 18260825965221877581
14251732 14 18269015141079941790
14252887 29 17560807606510650326
14350558 41 18413673508620328852
14350574 20 17167869676972720905
15375462 189 18202560700312850491
18186145 218 15791729715346406477
193927 3 18411147930337441726
20112054 13 13182744753516886129
20281389 69 10735869574353211938
20281475 54 18200308960998057221
20300324 65 14129055898461144215
20374829 77 18114178644669168419
20432913 95 17989208148671659511
20621476 21 18270976665160116094
20645477 56 8502363460388976109
20671657 53 17967816050141183940
20871999 31 16081090389545962521
21713013 43 17095516353336277143
231179 274 9799694805028723842
23402539 116 15719674260481338084
23402655 69 11314299560044110339
23403322 49 18113616789853422843
23557571 272 18337104545486130540
23590187 135 18113334249424200963
26918003 58 18343017766037680697
351380 3 18409445873653364978
4028521 119 8718830885885954351
548570 60 11240007737130701595
58051976 100 18188203209048382757

>  <PUBCHEM_SHAPE_MULTIPOLES>  (1) 
264.28
10.93
1.75
1.09
4.49
0.22
-0.06
7.24
-0.38
-1.04
-0.22
-0.27
0.11
0.57

>  <PUBCHEM_SHAPE_SELFOVERLAP>  (1) 
483.898

>  <PUBCHEM_SHAPE_VOLUME>  (1) 
167.7

>  <PUBCHEM_COORDINATE_TYPE>  (1) 
2
5
10

$$$$
