46874
     RDKit          3D

 17 17  0  0  0  0  0  0  0  0999 V2000
   -1.8404   -0.3535   -0.0464 S   0  0  0  0  0  0  0  0  0  0  0  0
    0.1597    1.9012   -0.0915 S   0  0  0  0  0  0  0  0  0  0  0  0
   -1.8104   -0.2630   -1.4929 O   0  0  0  0  0  0  0  0  0  0  0  0
   -1.3348   -1.5233    0.6443 O   0  0  0  0  0  0  0  0  0  0  0  0
    0.5585    2.9925    0.7765 O   0  0  0  0  0  0  0  0  0  0  0  0
   -0.1587    2.1519   -1.4840 O   0  0  0  0  0  0  0  0  0  0  0  0
   -1.1388    1.0510    0.6369 N   0  0  0  0  0  0  0  0  0  0  0  0
   -5.7898   -1.0439    0.4310 N   0  0  0  0  0  0  0  0  0  0  0  0
    4.5155   -2.1419    0.1027 N   0  0  0  0  0  0  0  0  0  0  0  0
   -3.5219   -0.1080    0.4671 C   0  0  0  0  0  0  0  0  0  0  0  0
    1.4539    0.6997   -0.0335 C   0  0  0  0  0  0  0  0  0  0  0  0
   -4.4150   -1.2403   -0.0123 C   0  0  0  0  0  0  0  0  0  0  0  0
    1.6129   -0.1749   -1.0951 C   0  0  0  0  0  0  0  0  0  0  0  0
    2.2859    0.6541    1.0722 C   0  0  0  0  0  0  0  0  0  0  0  0
    2.6344   -1.1237   -1.0495 C   0  0  0  0  0  0  0  0  0  0  0  0
    3.3074   -0.2946    1.1176 C   0  0  0  0  0  0  0  0  0  0  0  0
    3.4817   -1.1835    0.0568 C   0  0  0  0  0  0  0  0  0  0  0  0
  1  3  2  0
  1  4  2  0
  1  7  1  0
  1 10  1  0
  2  5  2  0
  2  6  2  0
  2  7  1  0
  2 11  1  0
  8 12  1  0
  9 17  1  0
 10 12  1  0
 11 13  2  0
 11 14  1  0
 13 15  1  0
 14 16  2  0
 15 17  2  0
 16 17  1  0
M  END
>  <PUBCHEM_COMPOUND_CID>  (1) 
46874

>  <PUBCHEM_CONFORMER_RMSD>  (1) 
0.6

>  <PUBCHEM_CONFORMER_DIVERSEORDER>  (1) 
1
52
17
39
29
42
21
28
10
33
3
27
30
51
18
25
5
54
4
34
2
15
19
57
16
11
20
40
56
9
12
43
22
46
45
26
44
6
7
35
31
49
53
41
32
13
8
14
24
38
23
36
37
48
50
47
55

>  <PUBCHEM_MMFF94_PARTIAL_CHARGES>  (1) 
26
1 1.33
10 0.11
11 -0.01
12 0.27
13 -0.15
14 -0.15
15 -0.15
16 -0.15
17 0.1
2 1.45
20 0.42
23 0.15
24 0.15
25 0.15
26 0.15
27 0.36
28 0.36
29 0.4
3 -0.65
30 0.4
4 -0.65
5 -0.65
6 -0.65
7 -0.7
8 -0.99
9 -0.9

>  <PUBCHEM_EFFECTIVE_ROTOR_COUNT>  (1) 
5

>  <PUBCHEM_PHARMACOPHORE_FEATURES>  (1) 
10
1 3 acceptor
1 4 acceptor
1 5 acceptor
1 6 acceptor
1 7 donor
1 8 cation
1 8 donor
1 9 cation
1 9 donor
6 11 13 14 15 16 17 rings

>  <PUBCHEM_HEAVY_ATOM_COUNT>  (1) 
17

>  <PUBCHEM_ATOM_DEF_STEREO_COUNT>  (1) 
0

>  <PUBCHEM_ATOM_UDEF_STEREO_COUNT>  (1) 
0

>  <PUBCHEM_BOND_DEF_STEREO_COUNT>  (1) 
0

>  <PUBCHEM_BOND_UDEF_STEREO_COUNT>  (1) 
0

>  <PUBCHEM_ISOTOPIC_ATOM_COUNT>  (1) 
0

>  <PUBCHEM_COMPONENT_COUNT>  (1) 
1

>  <PUBCHEM_CACTVS_TAUTO_COUNT>  (1) 
1

>  <PUBCHEM_CONFORMER_ID>  (1) 
0000B71A00000001

>  <PUBCHEM_MMFF94_ENERGY>  (1) 
17.7874

>  <PUBCHEM_FEATURE_SELFOVERLAP>  (1) 
50.783

>  <PUBCHEM_SHAPE_FINGERPRINT>  (1) 
10618630 7 18409732828918304250
12251169 10 17060335219251697310
12363563 72 18409454669434943059
12633257 1 16343694439425467866
13533116 47 18268151040862369771
13675066 3 18201718483718484939
14115302 16 17676493877409574059
14252887 29 18410571820651542704
15422964 175 18270968942302021903
15848700 24 18408602565113783295
15885798 251 18410295800547152137
17834072 32 9654991374064388202
18186145 218 11025796440673780576
20645477 70 18262234559865593299
20832881 197 18408045100482419843
20871998 22 18411134744772161648
21296965 67 18334855008813936405
23402539 116 18340482270686071095
276578 36 11887956536311604548
31174 14 17988632004837142144
328317 168 9655570795127186275
3286 77 18335701680576103015
465052 167 18262249918869545611
4990 188 12973600036758477427
6442390 28 9295279565047261073
7364860 26 18197501937545196440
81228 2 18195257619786022008

>  <PUBCHEM_SHAPE_MULTIPOLES>  (1) 
319.13
8.43
2.28
1.19
8.4
1.34
0.26
-6.84
-1.66
-0.9
-0.04
-0.38
0.18
0.37

>  <PUBCHEM_SHAPE_SELFOVERLAP>  (1) 
625.233

>  <PUBCHEM_SHAPE_VOLUME>  (1) 
190.9

>  <PUBCHEM_COORDINATE_TYPE>  (1) 
2
5
10

$$$$
