46882
     RDKit          3D

 20 20  0  0  0  0  0  0  0  0999 V2000
    2.6245    0.9879    0.8434 O   0  0  0  0  0  0  0  0  0  0  0  0
   -2.6206    0.9722   -0.8503 O   0  0  0  0  0  0  0  0  0  0  0  0
    5.7373   -0.8546   -0.0742 N   0  0  0  0  0  0  0  0  0  0  0  0
   -5.7178   -0.8396    0.0622 N   0  0  0  0  0  0  0  0  0  0  0  0
    4.7079   -0.2042    0.8389 C   0  0  0  0  0  0  0  0  0  0  0  0
   -4.7093   -0.2193   -0.8335 C   0  0  0  0  0  0  0  0  0  0  0  0
    6.2568    0.1749   -1.0675 C   0  0  0  0  0  0  0  0  0  0  0  0
    6.8948   -1.3822    0.7615 C   0  0  0  0  0  0  0  0  0  0  0  0
    5.0902   -2.0066   -0.8292 C   0  0  0  0  0  0  0  0  0  0  0  0
   -6.2647    0.1889    1.0614 C   0  0  0  0  0  0  0  0  0  0  0  0
   -6.8980   -1.3930   -0.7478 C   0  0  0  0  0  0  0  0  0  0  0  0
   -5.1003   -1.9973    0.8584 C   0  0  0  0  0  0  0  0  0  0  0  0
    3.5722    0.3472   -0.0004 C   0  0  0  0  0  0  0  0  0  0  0  0
   -3.5759    0.3424    0.0021 C   0  0  0  0  0  0  0  0  0  0  0  0
    1.3204    0.9847    0.4222 C   0  0  0  0  0  0  0  0  0  0  0  0
   -1.3253    0.9764   -0.4324 C   0  0  0  0  0  0  0  0  0  0  0  0
    1.0369    0.9746   -0.9387 C   0  0  0  0  0  0  0  0  0  0  0  0
   -0.2903    0.9705   -1.3674 C   0  0  0  0  0  0  0  0  0  0  0  0
    0.2944    0.9907    1.3601 C   0  0  0  0  0  0  0  0  0  0  0  0
   -1.0330    0.9865    0.9314 C   0  0  0  0  0  0  0  0  0  0  0  0
  1 13  1  0
  1 15  1  0
  2 14  1  0
  2 16  1  0
  3  5  1  0
  3  7  1  0
  3  8  1  0
  3  9  1  0
  4  6  1  0
  4 10  1  0
  4 11  1  0
  4 12  1  0
  5 13  1  0
  6 14  1  0
 15 17  2  0
 15 19  1  0
 16 18  2  0
 16 20  1  0
 17 18  1  0
 19 20  2  0
M  CHG  2   3   1   4   1
M  END
>  <PUBCHEM_COMPOUND_CID>  (1) 
46882

>  <PUBCHEM_CONFORMER_RMSD>  (1) 
0.8

>  <PUBCHEM_CONFORMER_DIVERSEORDER>  (1) 
2
51
37
12
58
27
24
55
25
8
23
48
44
3
5
15
13
20
19
28
42
18
10
4
40
54
21
1
16
49
7
52
53
38
45
33
36
56
47
9
17
34
14
6
30
39
22
35
32
29
50
11
31
26
41
46
57
43

>  <PUBCHEM_MMFF94_PARTIAL_CHARGES>  (1) 
24
1 -0.36
10 0.5
11 0.5
12 0.5
13 0.28
14 0.28
15 0.08
16 0.08
17 -0.15
18 -0.15
19 -0.15
2 -0.36
20 -0.15
3 -1.01
4 -1.01
47 0.15
48 0.15
49 0.15
5 0.5
50 0.15
6 0.5
7 0.5
8 0.5
9 0.5

>  <PUBCHEM_EFFECTIVE_ROTOR_COUNT>  (1) 
8

>  <PUBCHEM_PHARMACOPHORE_FEATURES>  (1) 
5
1 1 acceptor
1 2 acceptor
1 3 cation
1 4 cation
6 15 16 17 18 19 20 rings

>  <PUBCHEM_HEAVY_ATOM_COUNT>  (1) 
20

>  <PUBCHEM_ATOM_DEF_STEREO_COUNT>  (1) 
0

>  <PUBCHEM_ATOM_UDEF_STEREO_COUNT>  (1) 
0

>  <PUBCHEM_BOND_DEF_STEREO_COUNT>  (1) 
0

>  <PUBCHEM_BOND_UDEF_STEREO_COUNT>  (1) 
0

>  <PUBCHEM_ISOTOPIC_ATOM_COUNT>  (1) 
0

>  <PUBCHEM_COMPONENT_COUNT>  (1) 
1

>  <PUBCHEM_CACTVS_TAUTO_COUNT>  (1) 
1

>  <PUBCHEM_CONFORMER_ID>  (1) 
0000B72200000002

>  <PUBCHEM_MMFF94_ENERGY>  (1) 
88.0803

>  <PUBCHEM_FEATURE_SELFOVERLAP>  (1) 
25.371

>  <PUBCHEM_SHAPE_FINGERPRINT>  (1) 
10 15 15267340747276091731
10087517 78 10663827364745882923
106641 1 15913038854734581914
11089746 13 11239995646655137081
11524674 6 17703789236890716487
117890 112 10375869688651469544
12596602 18 15697991972390893354
12616971 3 16486966327800129025
12670543 26 15647047149115864149
12714333 28 11891330950070888469
13167372 99 11024113140143579538
13288520 33 18333730213299212381
13533116 47 18202002149086649896
13673619 4 18410853261105458400
13685833 64 18341891888069742256
13885169 127 18341610379034434753
13968360 50 13840255984161484024
14123256 10 15719391732884224608
14251764 18 15769768091457015116
14528608 73 14273454781943217700
14767858 380 15357697487285697266
15183329 4 17603581932935552235
15348495 7 15769482235587386214
15352257 5 18410575088963951083
15475509 35 18201709636038973858
15706992 2 10879707757901382658
18222031 100 17530959202637310252
18335252 114 11746932093028680970
19784866 240 18408327687460170257
20157964 124 11097848580372612408
20281389 69 11095887063964786122
20567600 247 18408037416158582299
21150785 3 17748831834570833172
21623969 137 18060138726248632134
21637258 2 18410567392376742724
22224240 67 14333125278267575165
23035841 295 18187082854075759155
23379529 103 17388834255705210747
23522609 53 18194433088881297388
23559900 14 17822856510376597029
25122255 55 18409456898765972043
2767999 5 8574713498565212390
2838139 119 8790886254946479571
2916195 48 10303812086092068525
29717793 49 17967532389263288741
328310 630 12035734167760760799
33382 64 18341049636229726722
351380 3 18410568487593552614
465052 167 18131071537197405604
5104073 3 15625361575760001579
5207 217 14201400490735328809
57724786 102 11815025952038779618
59682541 52 13335008349816008920
59755656 215 18114175320502014627

>  <PUBCHEM_SHAPE_MULTIPOLES>  (1) 
389.89
19.64
1.68
1.29
0.03
0.79
0
13
0.04
-0.01
0.01
0
-0.13
0.08

>  <PUBCHEM_SHAPE_SELFOVERLAP>  (1) 
765.965

>  <PUBCHEM_SHAPE_VOLUME>  (1) 
239.2

>  <PUBCHEM_COORDINATE_TYPE>  (1) 
2
5
10

$$$$
