46892
     RDKit          3D

 15 14  0  0  1  0  0  0  0  0999 V2000
    0.0030    0.3329    0.0001 O   0  0  0  0  0  0  0  0  0  0  0  0
   -2.6671   -0.6705    0.0994 N   0  0  0  0  0  0  0  0  0  0  0  0
    2.6556   -0.6528   -0.0789 N   0  0  0  0  0  0  0  0  0  0  0  0
   -2.1681    0.2292   -1.0221 C   0  0  0  0  0  0  0  0  0  0  0  0
    2.1696    0.2190    1.0194 C   0  0  0  0  0  0  0  0  0  0  0  0
   -1.0437    1.1382   -0.5368 C   0  0  0  0  0  0  0  0  0  0  0  0
    1.0457    1.1314    0.5390 C   0  0  0  0  0  0  0  0  0  0  0  0
   -3.1407    0.1864    1.2647 C   0  0  0  0  0  0  0  0  0  0  0  0
   -3.8232   -1.5200   -0.4083 C   0  0  0  0  0  0  0  0  0  0  0  0
   -1.5366   -1.5776    0.5635 C   0  0  0  0  0  0  0  0  0  0  0  0
    3.1421    0.1878   -1.2675 C   0  0  0  0  0  0  0  0  0  0  0  0
    3.8236   -1.5278    0.3964 C   0  0  0  0  0  0  0  0  0  0  0  0
    1.5370   -1.5789   -0.5757 C   0  0  0  0  0  0  0  0  0  0  0  0
   -0.4789    2.0574   -1.6119 C   0  0  0  0  0  0  0  0  0  0  0  0
    0.4815    2.0452    1.6189 C   0  0  0  0  0  0  0  0  0  0  0  0
  1  6  1  0
  1  7  1  0
  2  4  1  0
  2  8  1  0
  2  9  1  0
  2 10  1  0
  3  5  1  0
  3 11  1  0
  3 12  1  0
  3 13  1  0
  4  6  1  0
  5  7  1  0
  6 14  1  0
  7 15  1  0
M  CHG  2   2   1   3   1
M  END
>  <PUBCHEM_COMPOUND_CID>  (1) 
46892

>  <PUBCHEM_CONFORMER_RMSD>  (1) 
0.6

>  <PUBCHEM_CONFORMER_DIVERSEORDER>  (1) 
3
7
17
13
2
5
18
11
8
9
4
6
20
10
1
16
15
14
19
12

>  <PUBCHEM_MMFF94_PARTIAL_CHARGES>  (1) 
13
1 -0.56
10 0.5
11 0.5
12 0.5
13 0.5
2 -1.01
3 -1.01
4 0.5
5 0.5
6 0.28
7 0.28
8 0.5
9 0.5

>  <PUBCHEM_EFFECTIVE_ROTOR_COUNT>  (1) 
6

>  <PUBCHEM_PHARMACOPHORE_FEATURES>  (1) 
3
1 1 acceptor
1 2 cation
1 3 cation

>  <PUBCHEM_HEAVY_ATOM_COUNT>  (1) 
15

>  <PUBCHEM_ATOM_DEF_STEREO_COUNT>  (1) 
0

>  <PUBCHEM_ATOM_UDEF_STEREO_COUNT>  (1) 
2

>  <PUBCHEM_BOND_DEF_STEREO_COUNT>  (1) 
0

>  <PUBCHEM_BOND_UDEF_STEREO_COUNT>  (1) 
0

>  <PUBCHEM_ISOTOPIC_ATOM_COUNT>  (1) 
0

>  <PUBCHEM_COMPONENT_COUNT>  (1) 
1

>  <PUBCHEM_CACTVS_TAUTO_COUNT>  (1) 
1

>  <PUBCHEM_CONFORMER_ID>  (1) 
0000B72C00000003

>  <PUBCHEM_MMFF94_ENERGY>  (1) 
77.9221

>  <PUBCHEM_FEATURE_SELFOVERLAP>  (1) 
15.223

>  <PUBCHEM_SHAPE_FINGERPRINT>  (1) 
11715629 250 10953999504022481459
12202030 40 18338781373416005600
14115302 16 18122908629539192068
14817 1 13653761412661277032
15375462 189 18410863131008701442
15375462 478 16702023084531873393
15501101 241 18341047522831464865
16945 1 18410855460128317697
17841504 4 17988639756920815041
18511873 20 18131360674311493457
19766037 51 18341058466529272542
20201158 50 18340764858127961070
20281407 28 18408884031516247149
20281475 54 18410577287981568103
20361792 2 18040152950545081749
20645476 183 14923933570760635131
20711985 344 17604693474925129189
20871998 22 18261104231578521053
20871999 31 17821722832452182855
21061003 4 17988633074020196048
22721475 48 18410579482709784903
22802520 49 18261663779675270396
23402539 116 17168428169108629212
23557571 272 17822835546720418276
23559900 14 18050548661825783514
23598291 2 16083600424310596072
2748010 2 18115847737653730997
3286 77 18130217250600550491
7364860 26 17974011953104388173
81228 2 17823121363988258029

>  <PUBCHEM_SHAPE_MULTIPOLES>  (1) 
292.86
5.97
2.11
1.45
0.01
0.29
0
-3.58
0.01
0
0.01
0
0.76
0.17

>  <PUBCHEM_SHAPE_SELFOVERLAP>  (1) 
542.349

>  <PUBCHEM_SHAPE_VOLUME>  (1) 
189.8

>  <PUBCHEM_COORDINATE_TYPE>  (1) 
2
5
10

$$$$
