4690
     RDKit          3D

 16 17  0  0  0  0  0  0  0  0999 V2000
   -3.7125    2.2694    0.0020 Cl  0  0  0  0  0  0  0  0  0  0  0  0
   -4.9683   -0.7133    0.0006 Cl  0  0  0  0  0  0  0  0  0  0  0  0
    1.5611    1.3314   -0.0010 O   0  0  0  0  0  0  0  0  0  0  0  0
    1.6072   -2.1352    0.0050 O   0  0  0  0  0  0  0  0  0  0  0  0
    3.7718    1.9103    0.0032 O   0  0  0  0  0  0  0  0  0  0  0  0
    0.8898    0.0881   -0.0008 N   0  0  0  0  0  0  0  0  0  0  0  0
    3.0621   -0.3068   -0.0030 N   0  0  0  0  0  0  0  0  0  0  0  0
   -0.4946   -0.0850   -0.0009 C   0  0  0  0  0  0  0  0  0  0  0  0
    1.8268   -0.9304   -0.0004 C   0  0  0  0  0  0  0  0  0  0  0  0
    2.9042    1.0485   -0.0005 C   0  0  0  0  0  0  0  0  0  0  0  0
   -1.3370    1.0269   -0.0009 C   0  0  0  0  0  0  0  0  0  0  0  0
   -1.0362   -1.3704   -0.0006 C   0  0  0  0  0  0  0  0  0  0  0  0
    4.3293   -1.0097   -0.0007 C   0  0  0  0  0  0  0  0  0  0  0  0
   -2.7211    0.8530   -0.0007 C   0  0  0  0  0  0  0  0  0  0  0  0
   -2.4200   -1.5442   -0.0005 C   0  0  0  0  0  0  0  0  0  0  0  0
   -3.2625   -0.4325   -0.0005 C   0  0  0  0  0  0  0  0  0  0  0  0
  1 14  1  0
  2 16  1  0
  3  6  1  0
  3 10  1  0
  4  9  2  0
  5 10  2  0
  6  8  1  0
  6  9  1  0
  7  9  1  0
  7 10  1  0
  7 13  1  0
  8 11  2  0
  8 12  1  0
 11 14  1  0
 12 15  2  0
 14 16  2  0
 15 16  1  0
M  END
>  <PUBCHEM_COMPOUND_CID>  (1) 
4690

>  <PUBCHEM_CONFORMER_RMSD>  (1) 
0.6

>  <PUBCHEM_CONFORMER_DIVERSEORDER>  (1) 
1
3
2
4

>  <PUBCHEM_MMFF94_PARTIAL_CHARGES>  (1) 
19
1 -0.18
10 0.78
11 -0.15
12 -0.15
13 0.3
14 0.18
15 -0.15
16 0.18
17 0.15
18 0.15
2 -0.18
22 0.15
3 -0.19
4 -0.57
5 -0.57
6 -0.14
7 -0.42
8 0.12
9 0.69

>  <PUBCHEM_EFFECTIVE_ROTOR_COUNT>  (1) 
1

>  <PUBCHEM_PHARMACOPHORE_FEATURES>  (1) 
4
1 4 acceptor
1 5 acceptor
5 3 6 7 9 10 rings
6 8 11 12 14 15 16 rings

>  <PUBCHEM_HEAVY_ATOM_COUNT>  (1) 
16

>  <PUBCHEM_ATOM_DEF_STEREO_COUNT>  (1) 
0

>  <PUBCHEM_ATOM_UDEF_STEREO_COUNT>  (1) 
0

>  <PUBCHEM_BOND_DEF_STEREO_COUNT>  (1) 
0

>  <PUBCHEM_BOND_UDEF_STEREO_COUNT>  (1) 
0

>  <PUBCHEM_ISOTOPIC_ATOM_COUNT>  (1) 
0

>  <PUBCHEM_COMPONENT_COUNT>  (1) 
1

>  <PUBCHEM_CACTVS_TAUTO_COUNT>  (1) 
1

>  <PUBCHEM_CONFORMER_ID>  (1) 
0000125200000001

>  <PUBCHEM_MMFF94_ENERGY>  (1) 
38.8706

>  <PUBCHEM_FEATURE_SELFOVERLAP>  (1) 
20.297

>  <PUBCHEM_SHAPE_FINGERPRINT>  (1) 
10608611 8 18410853261147435557
10967382 1 18410856602594750279
11471102 20 18411134770457264062
12932764 1 17458336403861483340
13380535 76 18409448111046548098
14144814 61 18409448072549623809
14325111 11 18410856563961312517
14415576 193 18409732867673275884
15196674 1 18410855451570129061
15219456 202 18410855464428410373
15442244 35 18194682570745840186
15536298 74 18413389851931821044
16945 1 18338797935268672483
17802600 8 18411132537216668897
18186145 218 18199755747651112629
200 152 18131346410624804687
20510252 161 18342741806384605769
20645477 70 18342739611123723446
21267235 1 18410864251942469703
21501502 16 18410008827595402187
21652331 79 18410293648721102913
221490 88 18409456911861857514
23402539 116 18342730832938180935
23402655 69 18341891870447001933
23463225 33 18408602548255667446
23559900 14 18199746947558762566
2871803 45 18335134310911741687
335352 9 18266740173516023852
3545911 37 18338237167085005420
4214541 1 18410856525554565665
474 4 17531814687371928316
5104073 3 18410012130446515169
69090 78 18341891913755481303
7364860 26 18342177739512970278
77779 3 18410576184201112941
8809292 202 18260834833791708962
9709674 26 18411987940152391967

>  <PUBCHEM_SHAPE_MULTIPOLES>  (1) 
305.44
8.68
2.11
0.59
0.11
0.47
0
0.72
0
-0.29
0
-0.09
0
0

>  <PUBCHEM_SHAPE_SELFOVERLAP>  (1) 
639.291

>  <PUBCHEM_SHAPE_VOLUME>  (1) 
176.6

>  <PUBCHEM_COORDINATE_TYPE>  (1) 
2
5
10

$$$$
