46950
     RDKit          3D

 18 18  0  0  0  0  0  0  0  0999 V2000
   -2.1491   -0.0282    0.9677 O   0  0  0  0  0  0  0  0  0  0  0  0
   -2.4917   -0.8115   -1.1945 O   0  0  0  0  0  0  0  0  0  0  0  0
    2.6240   -0.1925    0.1849 N   0  0  0  0  0  0  0  0  0  0  0  0
   -3.9798   -1.3305    0.5080 N   0  0  0  0  0  0  0  0  0  0  0  0
    3.1740   -0.3095   -1.2339 C   0  0  0  0  0  0  0  0  0  0  0  0
    2.4671   -1.6022    0.7513 C   0  0  0  0  0  0  0  0  0  0  0  0
    1.2937    0.5630    0.1365 C   0  0  0  0  0  0  0  0  0  0  0  0
    3.5918    0.5749    1.0810 C   0  0  0  0  0  0  0  0  0  0  0  0
    2.1955   -1.0889   -2.0850 C   0  0  0  0  0  0  0  0  0  0  0  0
    3.8121   -2.2953    0.7423 C   0  0  0  0  0  0  0  0  0  0  0  0
    0.1968   -0.0981    0.5781 C   0  0  0  0  0  0  0  0  0  0  0  0
    1.3250    1.8293   -0.3436 C   0  0  0  0  0  0  0  0  0  0  0  0
   -1.0154    0.5906    0.5342 C   0  0  0  0  0  0  0  0  0  0  0  0
    0.1130    2.5180   -0.3874 C   0  0  0  0  0  0  0  0  0  0  0  0
   -1.0573    1.8988    0.0516 C   0  0  0  0  0  0  0  0  0  0  0  0
   -2.3457    2.6509   -0.0031 C   0  0  0  0  0  0  0  0  0  0  0  0
   -2.8513   -0.7404   -0.0231 C   0  0  0  0  0  0  0  0  0  0  0  0
   -4.9027   -2.1284   -0.2653 C   0  0  0  0  0  0  0  0  0  0  0  0
  1 13  1  0
  1 17  1  0
  2 17  2  0
  3  5  1  0
  3  6  1  0
  3  7  1  0
  3  8  1  0
  4 17  1  0
  4 18  1  0
  5  9  1  0
  6 10  1  0
  7 11  2  0
  7 12  1  0
 11 13  1  0
 12 14  2  0
 13 15  2  0
 14 15  1  0
 15 16  1  0
M  CHG  1   3   1
M  END
>  <PUBCHEM_COMPOUND_CID>  (1) 
46950

>  <PUBCHEM_CONFORMER_RMSD>  (1) 
0.8

>  <PUBCHEM_CONFORMER_DIVERSEORDER>  (1) 
1
63
33
22
38
51
61
56
64
47
43
15
9
23
24
50
53
46
37
20
57
26
62
44
8
30
39
60
19
18
12
36
11
5
45
27
34
16
48
28
29
35
55
7
32
54
14
58
59
10
41
49
4
21
2
25
40
52
3
6
31
42
17
13

>  <PUBCHEM_MMFF94_PARTIAL_CHARGES>  (1) 
20
1 -0.23
11 -0.15
12 -0.15
13 0.08
14 -0.15
15 -0.14
16 0.14
17 0.78
18 0.3
2 -0.57
3 -0.87
32 0.15
33 0.15
34 0.15
38 0.37
4 -0.73
5 0.5
6 0.5
7 0.36
8 0.5

>  <PUBCHEM_EFFECTIVE_ROTOR_COUNT>  (1) 
6

>  <PUBCHEM_PHARMACOPHORE_FEATURES>  (1) 
4
1 2 acceptor
1 3 cation
1 4 donor
6 7 11 12 13 14 15 rings

>  <PUBCHEM_HEAVY_ATOM_COUNT>  (1) 
18

>  <PUBCHEM_ATOM_DEF_STEREO_COUNT>  (1) 
0

>  <PUBCHEM_ATOM_UDEF_STEREO_COUNT>  (1) 
0

>  <PUBCHEM_BOND_DEF_STEREO_COUNT>  (1) 
0

>  <PUBCHEM_BOND_UDEF_STEREO_COUNT>  (1) 
0

>  <PUBCHEM_ISOTOPIC_ATOM_COUNT>  (1) 
0

>  <PUBCHEM_COMPONENT_COUNT>  (1) 
1

>  <PUBCHEM_CACTVS_TAUTO_COUNT>  (1) 
2

>  <PUBCHEM_CONFORMER_ID>  (1) 
0000B76600000001

>  <PUBCHEM_MMFF94_ENERGY>  (1) 
73.3185

>  <PUBCHEM_FEATURE_SELFOVERLAP>  (1) 
20.297

>  <PUBCHEM_SHAPE_FINGERPRINT>  (1) 
10062212 137 17897446086356110994
10064457 181 16200155447003364894
10618630 7 18411419522720842427
116883 192 18341338838111208725
12202030 40 17487625126162382870
12363563 72 18408044021923544771
12553582 1 18262816141081352259
13083527 12 18265316482073247168
13140716 1 18269270166962299416
13296908 3 18411982421155839608
13464513 79 18200601418111354126
14115302 16 17828773841686707620
14178342 30 18337663101650798968
14252887 29 18130515230983657354
14576447 43 18336829796248584010
15342816 4 18411143562271435695
16945 1 18261121810927220952
17980427 23 17676210152650793892
1813 80 18341061799745712743
20281475 54 18335987497237443545
20291156 8 18411418431820443023
20645476 183 17027445424803514820
20645477 70 18196937892981451359
20671657 53 18335701671843808361
20871998 22 18412829105101612681
21296965 67 18410570721398513825
21501502 16 18335144133544210624
23114952 82 17532090673295954517
232386 152 18118125767006506094
23419403 2 17903036200856278820
23557571 272 18342740676570803848
23559900 14 18122333589758929506
2748010 2 18340484474157391612
31174 14 17703782682337787680
314173 41 18193566785888178967
4463277 69 17988929985241218119
6338986 31 18408879646359984241
7164475 11 18260546701789600333
7364860 26 17985553487663627112
76465 3 18336823109211435666
81228 2 18335428919756298353
84936 182 10738376490686479343
8988823 20 17131539648575682833

>  <PUBCHEM_SHAPE_MULTIPOLES>  (1) 
348.73
7.47
2.8
1.25
4.12
0.8
0.54
-6.19
-0.36
1.35
0.03
-0.98
-0.41
-0.28

>  <PUBCHEM_SHAPE_SELFOVERLAP>  (1) 
707.942

>  <PUBCHEM_SHAPE_VOLUME>  (1) 
205

>  <PUBCHEM_COORDINATE_TYPE>  (1) 
2
5
10

$$$$
