46979
     RDKit          3D

 18 18  0  0  0  0  0  0  0  0999 V2000
   -1.3390    0.0470    0.5779 O   0  0  0  0  0  0  0  0  0  0  0  0
   -3.8489   -0.8311    1.1259 O   0  0  0  0  0  0  0  0  0  0  0  0
   -1.6128   -0.4929   -1.6623 O   0  0  0  0  0  0  0  0  0  0  0  0
    3.3836   -0.9200    0.1485 N   0  0  0  0  0  0  0  0  0  0  0  0
   -3.3354   -0.8807   -0.1845 N   0  0  0  0  0  0  0  0  0  0  0  0
    2.2151    0.0653    0.0669 C   0  0  0  0  0  0  0  0  0  0  0  0
    4.3850   -0.4093    1.1806 C   0  0  0  0  0  0  0  0  0  0  0  0
    4.0313   -1.0288   -1.2291 C   0  0  0  0  0  0  0  0  0  0  0  0
    2.9330   -2.3161    0.5732 C   0  0  0  0  0  0  0  0  0  0  0  0
    0.9845   -0.4173    0.3631 C   0  0  0  0  0  0  0  0  0  0  0  0
    2.5101    1.3372   -0.2944 C   0  0  0  0  0  0  0  0  0  0  0  0
   -0.0803    0.4809    0.2889 C   0  0  0  0  0  0  0  0  0  0  0  0
    0.1503    1.8072   -0.0768 C   0  0  0  0  0  0  0  0  0  0  0  0
    1.4454    2.2352   -0.3685 C   0  0  0  0  0  0  0  0  0  0  0  0
   -0.9772    2.7821   -0.1619 C   0  0  0  0  0  0  0  0  0  0  0  0
   -2.0713   -0.4541   -0.5217 C   0  0  0  0  0  0  0  0  0  0  0  0
   -4.2773   -1.4281   -1.1413 C   0  0  0  0  0  0  0  0  0  0  0  0
   -4.4961    0.4237    1.3155 C   0  0  0  0  0  0  0  0  0  0  0  0
  1 12  1  0
  1 16  1  0
  2  5  1  0
  2 18  1  0
  3 16  2  0
  4  6  1  0
  4  7  1  0
  4  8  1  0
  4  9  1  0
  5 16  1  0
  5 17  1  0
  6 10  2  0
  6 11  1  0
 10 12  1  0
 11 14  2  0
 12 13  2  0
 13 14  1  0
 13 15  1  0
M  CHG  1   4   1
M  END
>  <PUBCHEM_COMPOUND_CID>  (1) 
46979

>  <PUBCHEM_CONFORMER_RMSD>  (1) 
0.6

>  <PUBCHEM_CONFORMER_DIVERSEORDER>  (1) 
1
91
92
67
56
90
38
81
47
76
48
86
55
66
87
51
73
72
29
65
21
22
78
49
23
68
82
39
30
62
44
16
11
19
45
6
58
93
53
63
89
27
20
79
54
8
12
41
13
84
40
34
57
28
31
3
7
43
61
69
50
77
70
25
88
80
37
52
85
59
36
4
42
24
83
10
46
5
17
74
35
32
15
71
33
2
9
64
14
18
75
60
26

>  <PUBCHEM_MMFF94_PARTIAL_CHARGES>  (1) 
21
1 -0.23
10 -0.15
11 -0.15
12 0.08
13 -0.14
14 -0.15
15 0.14
16 0.78
17 0.3
18 0.28
2 -0.32
28 0.15
29 0.15
3 -0.57
30 0.15
4 -0.87
5 -0.32
6 0.36
7 0.5
8 0.5
9 0.5

>  <PUBCHEM_EFFECTIVE_ROTOR_COUNT>  (1) 
5

>  <PUBCHEM_PHARMACOPHORE_FEATURES>  (1) 
3
1 3 acceptor
1 4 cation
6 6 10 11 12 13 14 rings

>  <PUBCHEM_HEAVY_ATOM_COUNT>  (1) 
18

>  <PUBCHEM_ATOM_DEF_STEREO_COUNT>  (1) 
0

>  <PUBCHEM_ATOM_UDEF_STEREO_COUNT>  (1) 
0

>  <PUBCHEM_BOND_DEF_STEREO_COUNT>  (1) 
0

>  <PUBCHEM_BOND_UDEF_STEREO_COUNT>  (1) 
0

>  <PUBCHEM_ISOTOPIC_ATOM_COUNT>  (1) 
0

>  <PUBCHEM_COMPONENT_COUNT>  (1) 
1

>  <PUBCHEM_CACTVS_TAUTO_COUNT>  (1) 
1

>  <PUBCHEM_CONFORMER_ID>  (1) 
0000B78300000001

>  <PUBCHEM_MMFF94_ENERGY>  (1) 
75.3059

>  <PUBCHEM_FEATURE_SELFOVERLAP>  (1) 
15.223

>  <PUBCHEM_SHAPE_FINGERPRINT>  (1) 
10618630 7 18410007719762852196
11471102 20 18262232338813626300
11543360 7 14851892468943358242
11578080 2 17773568638377505377
12553582 1 18409169896081792898
12670546 56 17988640835179113185
12892183 10 16773794818136413383
13140716 1 18263924526428021018
13533116 47 18197499735060338899
13583140 156 14189565317461691239
13675066 3 17775570844582111467
13705890 14 16877659067689563914
14178342 30 18120643640213049056
14252887 29 18272932717873032378
15042514 8 17903922154151600272
15885798 251 18335988601302637921
16945 1 18334579040618061640
1813 80 18411709772178602148
18186145 218 17458341974666246489
19422 9 18200878490941583143
200 152 17968095296435757386
20281475 54 18342738524359483398
20339313 130 18411142471365332752
20645477 70 18261943163229715831
20871998 22 18341052922000838998
21296965 67 18411692184356258780
21501925 9 18410002252491173576
2255824 54 18337113496281916308
23402539 116 18336817624458797866
23557571 272 18271525283070667216
23559900 14 15357684289304858138
23598291 2 18201158874811893711
2748010 2 18337938018344596444
2838139 119 14780691481096492606
314173 85 18341612598820013048
4990 188 12685087064743733234
6049 1 17458619060291979853
77492 1 17988371489189981369
7970288 3 18411133602564900054
83771 10 18409165510814331380
84936 182 17698446864098959105

>  <PUBCHEM_SHAPE_MULTIPOLES>  (1) 
342.86
8.56
2.34
1.2
3.53
1.19
0.08
-4.81
-1.13
-0.54
0.24
0.47
-0.34
-0.69

>  <PUBCHEM_SHAPE_SELFOVERLAP>  (1) 
694.641

>  <PUBCHEM_SHAPE_VOLUME>  (1) 
203.7

>  <PUBCHEM_COORDINATE_TYPE>  (1) 
2
5
10

$$$$
