47000
     RDKit          3D

 20 21  0  0  1  0  0  0  0  0999 V2000
    1.6382   -0.6732   -0.9834 O   0  0  0  0  0  0  0  0  0  0  0  0
    2.4751   -2.0687    0.6448 O   0  0  0  0  0  0  0  0  0  0  0  0
   -3.3811   -0.1977    0.1847 N   0  0  0  0  0  0  0  0  0  0  0  0
   -4.4404    0.3195    1.0814 C   0  0  0  0  0  0  0  0  0  0  0  0
   -4.8253    1.7581    0.6808 C   0  0  0  0  0  0  0  0  0  0  0  0
   -3.8131   -0.1648   -1.2239 C   0  0  0  0  0  0  0  0  0  0  0  0
   -5.2474    1.8483   -0.7799 C   0  0  0  0  0  0  0  0  0  0  0  0
   -4.1732    1.2492   -1.6739 C   0  0  0  0  0  0  0  0  0  0  0  0
   -2.9699   -1.5619    0.5293 C   0  0  0  0  0  0  0  0  0  0  0  0
   -4.0136    0.3322    2.5562 C   0  0  0  0  0  0  0  0  0  0  0  0
   -1.8296   -2.0180   -0.3792 C   0  0  0  0  0  0  0  0  0  0  0  0
   -0.6098   -1.1099   -0.2326 C   0  0  0  0  0  0  0  0  0  0  0  0
    0.5189   -1.5302   -1.1649 C   0  0  0  0  0  0  0  0  0  0  0  0
    2.5435   -1.0623   -0.0434 C   0  0  0  0  0  0  0  0  0  0  0  0
    3.6585   -0.0862    0.0497 C   0  0  0  0  0  0  0  0  0  0  0  0
    4.3005    0.0814    1.2596 C   0  0  0  0  0  0  0  0  0  0  0  0
    4.0193    0.6224   -1.0781 C   0  0  0  0  0  0  0  0  0  0  0  0
    5.3489    0.9974    1.3455 C   0  0  0  0  0  0  0  0  0  0  0  0
    5.0678    1.5384   -0.9922 C   0  0  0  0  0  0  0  0  0  0  0  0
    5.7326    1.7259    0.2196 C   0  0  0  0  0  0  0  0  0  0  0  0
  1 13  1  0
  1 14  1  0
  2 14  2  0
  3  4  1  0
  3  6  1  0
  3  9  1  0
  4  5  1  0
  4 10  1  0
  5  7  1  0
  6  8  1  0
  7  8  1  0
  9 11  1  0
 11 12  1  0
 12 13  1  0
 14 15  1  0
 15 16  2  0
 15 17  1  0
 16 18  1  0
 17 19  2  0
 18 20  2  0
 19 20  1  0
M  END
>  <PUBCHEM_COMPOUND_CID>  (1) 
47000

>  <PUBCHEM_CONFORMER_RMSD>  (1) 
1

>  <PUBCHEM_CONFORMER_DIVERSEORDER>  (1) 
20
328
237
23
440
4
8
250
681
493
2
1
210
418
246
364
793
330
429
415
693
105
204
560
349
262
664
271
3
742
143
623
477
64
378
109
174
731
19
613
276
259
17
346
141
446
51
666
362
444
489
45
634
175
620
203
167
367
609
70
107
629
621
14
473
351
361
260
33
169
150
345
31
654
29
632
485
368
398
112
289
736
152
283
10
202
208
741
39
80
213
405
63
801
580
59
206
7
339
288
185
406
460
423
43
357
326
96
486
187
41
72
581
247
61
257
585
424
5
506
24
42
767
437
35
139
136
644
127
128
331
308
173
711
315
660
22
516
776
338
272
134
148
62
652
642
65
312
379
519
597
422
68
106
149
157
144
160
57
298

>  <PUBCHEM_MMFF94_PARTIAL_CHARGES>  (1) 
19
1 -0.43
13 0.28
14 0.63
15 0.09
16 -0.15
17 -0.15
18 -0.15
19 -0.15
2 -0.57
20 -0.15
3 -0.81
4 0.27
41 0.15
42 0.15
43 0.15
44 0.15
45 0.15
6 0.27
9 0.27

>  <PUBCHEM_EFFECTIVE_ROTOR_COUNT>  (1) 
8.2

>  <PUBCHEM_PHARMACOPHORE_FEATURES>  (1) 
4
1 2 acceptor
1 3 cation
6 15 16 17 18 19 20 rings
6 3 4 5 6 7 8 rings

>  <PUBCHEM_HEAVY_ATOM_COUNT>  (1) 
20

>  <PUBCHEM_ATOM_DEF_STEREO_COUNT>  (1) 
0

>  <PUBCHEM_ATOM_UDEF_STEREO_COUNT>  (1) 
1

>  <PUBCHEM_BOND_DEF_STEREO_COUNT>  (1) 
0

>  <PUBCHEM_BOND_UDEF_STEREO_COUNT>  (1) 
0

>  <PUBCHEM_ISOTOPIC_ATOM_COUNT>  (1) 
0

>  <PUBCHEM_COMPONENT_COUNT>  (1) 
1

>  <PUBCHEM_CACTVS_TAUTO_COUNT>  (1) 
1

>  <PUBCHEM_CONFORMER_ID>  (1) 
0000B79800000014

>  <PUBCHEM_MMFF94_ENERGY>  (1) 
33.8001

>  <PUBCHEM_FEATURE_SELFOVERLAP>  (1) 
20.297

>  <PUBCHEM_SHAPE_FINGERPRINT>  (1) 
10498660 4 17632297891113778178
105312 117 17775004626021506462
10670039 82 17346607352494249712
10928967 22 11530485540365938321
11089746 13 17418086620917466258
11796584 16 8285661787660127118
12523318 42 16805616892905956817
12596602 18 16515687762008871185
12892183 10 17240204317876330659
12969540 114 17418091044290656718
13103583 49 15285358396943908999
13675066 3 17385729054136716247
13887833 79 14907907050155118844
14123255 352 18412825780886466599
14187579 7 16056881329545841729
1420 369 11314309446968979604
14216079 64 8430304741829375665
14251751 18 8646775486676340204
14251764 30 11095299972707336261
14251764 38 18121215381321459909
14341114 328 17749388213139758938
14528608 73 16845568721031240708
14848178 5 8358259220094794508
14848178 96 18130790040376748910
14950920 106 16153426181374330492
15183329 4 15339125628234318084
15188451 53 15285647646402288891
15348495 7 16587744252435233344
1601671 61 18412826915201249636
16994733 274 18267013965841506469
17780758 139 14634864249851163645
17870717 6 13039182590199810181
19377110 9 13912617082068502302
193927 3 7997974591558581130
20281389 69 18411418436262915176
20621476 21 11675143823388984664
21033648 29 18114467764655965567
21054139 6 11240008862860649660
21315764 119 13038921984063061457
21401589 2 18410300203147223707
21968339 14 14979666737668475170
22393880 68 13830131650684843543
235170 7 14261354643463012449
23559900 14 17916308234196189110
25122255 55 10954000560684682808
2767999 5 18272364282845388932
2838139 119 17918269844617437560
3089732 80 7925913694527759592
312425 54 15791446011260576808
312425 83 15625118425061537261
341906 21 18272082816405846042
4259306 186 10303815375662535828
5104073 3 17968095291945884627
5219985 9 18050566550454956367
559249 180 11097842005041393703
57724786 102 18198916820221168819
5924683 9 16588314929556923779
6431902 208 8574720091503905816
7062679 13 9151168753373911117
90127 26 18113624439000467695
960060 61 14333414449946765158

>  <PUBCHEM_SHAPE_MULTIPOLES>  (1) 
394.87
15.61
2.15
1.72
6.06
0.22
-0.57
-10.72
-1.89
-0.51
0.25
-1.37
-0.42
0.2

>  <PUBCHEM_SHAPE_SELFOVERLAP>  (1) 
804.203

>  <PUBCHEM_SHAPE_VOLUME>  (1) 
228.8

>  <PUBCHEM_COORDINATE_TYPE>  (1) 
2
5
10

$$$$
