47002
     RDKit          3D

 22 23  0  0  1  0  0  0  0  0999 V2000
    3.3262    0.2631   -0.0576 O   0  0  0  0  0  0  0  0  0  0  0  0
    4.4719    2.2396   -0.3405 O   0  0  0  0  0  0  0  0  0  0  0  0
   -5.3745   -0.0602   -0.1600 N   0  0  0  0  0  0  0  0  0  0  0  0
   -6.4045   -0.9690   -0.6988 C   0  0  0  0  0  0  0  0  0  0  0  0
   -7.6942   -0.1769   -0.9871 C   0  0  0  0  0  0  0  0  0  0  0  0
   -5.8005    0.6512    1.0503 C   0  0  0  0  0  0  0  0  0  0  0  0
   -8.1901    0.5958    0.2314 C   0  0  0  0  0  0  0  0  0  0  0  0
   -7.0730    1.4609    0.8010 C   0  0  0  0  0  0  0  0  0  0  0  0
   -4.0831   -0.7115    0.0408 C   0  0  0  0  0  0  0  0  0  0  0  0
   -2.9167    0.2599   -0.1482 C   0  0  0  0  0  0  0  0  0  0  0  0
   -6.7005   -2.2072    0.1618 C   0  0  0  0  0  0  0  0  0  0  0  0
   -1.5470   -0.4058    0.0168 C   0  0  0  0  0  0  0  0  0  0  0  0
   -0.4137    0.6061   -0.1661 C   0  0  0  0  0  0  0  0  0  0  0  0
    0.9537   -0.0611   -0.0354 C   0  0  0  0  0  0  0  0  0  0  0  0
    2.0859    0.9468   -0.1736 C   0  0  0  0  0  0  0  0  0  0  0  0
    4.4457    1.0320   -0.1602 C   0  0  0  0  0  0  0  0  0  0  0  0
    5.6694    0.2022   -0.0241 C   0  0  0  0  0  0  0  0  0  0  0  0
    6.9283    0.7981   -0.1007 C   0  0  0  0  0  0  0  0  0  0  0  0
    5.5602   -1.1733    0.1810 C   0  0  0  0  0  0  0  0  0  0  0  0
    8.0779    0.0186    0.0274 C   0  0  0  0  0  0  0  0  0  0  0  0
    6.7099   -1.9527    0.3092 C   0  0  0  0  0  0  0  0  0  0  0  0
    7.9688   -1.3566    0.2324 C   0  0  0  0  0  0  0  0  0  0  0  0
  1 15  1  0
  1 16  1  0
  2 16  2  0
  3  4  1  0
  3  6  1  0
  3  9  1  0
  4  5  1  0
  4 11  1  0
  5  7  1  0
  6  8  1  0
  7  8  1  0
  9 10  1  0
 10 12  1  0
 12 13  1  0
 13 14  1  0
 14 15  1  0
 16 17  1  0
 17 18  2  0
 17 19  1  0
 18 20  1  0
 19 21  2  0
 20 22  2  0
 21 22  1  0
M  END
>  <PUBCHEM_COMPOUND_CID>  (1) 
47002

>  <PUBCHEM_CONFORMER_RMSD>  (1) 
1

>  <PUBCHEM_CONFORMER_DIVERSEORDER>  (1) 
1
367
23
324
87
298
11
262
328
6
132
239
161
207
382
176
308
344
383
36
219
295
235
216
27
378
46
222
141
25
150
186
155
240
208
15
384
174
30
164
257
160
251
40
167
267
264
137
165
274
18
192
291
238
306
177
281
278
290
381
205
233
83
84
168
217
232
13
359
354
268
270
330
81
148
33
313
385
225
347
377
51
55
90
189
71
285
106
159
322
312
62
261
91
104
360
121
44
218
64
231
351
227
365
182
122
214
259
282
236
93
247
32
138
74
157
202
333
319
54
153
4
128
92
120
69
5
386
286
289
253
280
88
20
366
242
209
277
310
265
356
315
201
255
362
206
56
31
358
111
248
2
211
86
301
297
94
299
183
229
185
26
215
193
294
374
58
22
65
107
7
73
323
151
135
131
47
342
123
76
113
380
103
163
283
213
224
307
169
24
263
325
346
105
352
266
17
172
329
288
200
355
99
61
60
369
318
95
38
361
230
203
226
269
149
388
142
170
379
43
339
245
326
75
309
97
12
37
154
287
126
166
327
53
373
194
59
210
311
96
145
35
292
370
134
114
50
49
112
173
139
317
14
41
221
109
67
228
199
223
249
28
179
9
21
181
8
136
190
63
350
321
29
250
197
296
303
10
66
332
371
180
146
108
375
314
119
364
171
256
78
376
196
293
39
195
252
363
45
260
110
89
102
156
320
3
284
48
331
246
98
187
52
353
127
220
337
188
341
368
348
178
316
272
237
305
276
125
57
152
144
338
349
273
100
68
335
184
389
19
158
334
80
162
130
79
101
304
340
34
198
175
117
300
258
244
133
118
129
16
147
241
271
302
212
124
204
82
116
42
70
191
77
254
140
279
387
345
357
336
115
372
85
143
275
72
234
243
343

>  <PUBCHEM_MMFF94_PARTIAL_CHARGES>  (1) 
19
1 -0.43
15 0.28
16 0.63
17 0.09
18 -0.15
19 -0.15
2 -0.57
20 -0.15
21 -0.15
22 -0.15
3 -0.81
4 0.27
47 0.15
48 0.15
49 0.15
50 0.15
51 0.15
6 0.27
9 0.27

>  <PUBCHEM_EFFECTIVE_ROTOR_COUNT>  (1) 
10.2

>  <PUBCHEM_PHARMACOPHORE_FEATURES>  (1) 
5
1 2 acceptor
1 3 cation
4 10 12 13 14 hydrophobe
6 17 18 19 20 21 22 rings
6 3 4 5 6 7 8 rings

>  <PUBCHEM_HEAVY_ATOM_COUNT>  (1) 
22

>  <PUBCHEM_ATOM_DEF_STEREO_COUNT>  (1) 
0

>  <PUBCHEM_ATOM_UDEF_STEREO_COUNT>  (1) 
1

>  <PUBCHEM_BOND_DEF_STEREO_COUNT>  (1) 
0

>  <PUBCHEM_BOND_UDEF_STEREO_COUNT>  (1) 
0

>  <PUBCHEM_ISOTOPIC_ATOM_COUNT>  (1) 
0

>  <PUBCHEM_COMPONENT_COUNT>  (1) 
1

>  <PUBCHEM_CACTVS_TAUTO_COUNT>  (1) 
1

>  <PUBCHEM_CONFORMER_ID>  (1) 
0000B79A00000001

>  <PUBCHEM_MMFF94_ENERGY>  (1) 
31.1019

>  <PUBCHEM_FEATURE_SELFOVERLAP>  (1) 
25.372

>  <PUBCHEM_SHAPE_FINGERPRINT>  (1) 
10066227 49 18410011005513924390
100830 39 18339361851833361505
10299344 5 18411981360066782874
10319688 140 17314216770980592746
11315181 36 18412828010829009545
11719270 70 17632580439853737094
12091667 2 16732980938846171021
12592606 108 18411980273429604975
13685833 64 18333449833718198444
13885169 127 18410855439144176073
13914758 101 18412267203210064641
14123256 10 11530482229372952830
14251764 18 18343865519825819420
14251764 46 17847061082277825887
15183329 4 18186516600965517803
15419008 47 16805315600286004909
15510794 2 17531250586118949291
16120349 18 18338795719773092084
17093844 174 13470694750773814883
19301679 30 17773882996277292286
20621476 8 18113898247876987597
21150785 3 10881403131748072708
21315759 40 18343586256572877181
21315763 28 18412825819937012373
220451 1 12901542468480115593
22224240 67 12967128315549344092
232437 2 18410574007855694735
246663 6 16805325483042226712
249057 25 18271540744125648112
2835820 82 18117556228906745002
28498 318 18334010575520431006
33532 11 18334292055230426498
33684 2 18410572881355412077
4073 2 17969507181103719010
59682541 35 12319731483884615102
59755656 215 17168139023104336122
67123 10 18412262857161888740
8209 1 18410011039814867508
99344 41 18343865502477899063

>  <PUBCHEM_SHAPE_MULTIPOLES>  (1) 
436.03
32.58
1.7
0.78
1.53
0.35
0.02
5.2
1.18
-0.57
0.11
0.94
-0.03
-1.34

>  <PUBCHEM_SHAPE_SELFOVERLAP>  (1) 
876.347

>  <PUBCHEM_SHAPE_VOLUME>  (1) 
255.7

>  <PUBCHEM_COORDINATE_TYPE>  (1) 
2
5
10

$$$$
