47014
     RDKit          3D

 17 17  0  0  0  0  0  0  0  0999 V2000
    1.4033    0.3219   -0.6531 O   0  0  0  0  0  0  0  0  0  0  0  0
    1.7002    0.5674    1.6284 O   0  0  0  0  0  0  0  0  0  0  0  0
   -3.1966   -0.9640    0.1753 N   0  0  0  0  0  0  0  0  0  0  0  0
    3.5136   -0.0724    0.3201 N   0  0  0  0  0  0  0  0  0  0  0  0
   -2.1418    0.1120   -0.0941 C   0  0  0  0  0  0  0  0  0  0  0  0
   -4.2335   -0.9256   -0.9437 C   0  0  0  0  0  0  0  0  0  0  0  0
   -3.8467   -0.6865    1.5279 C   0  0  0  0  0  0  0  0  0  0  0  0
   -2.5932   -2.3664    0.2171 C   0  0  0  0  0  0  0  0  0  0  0  0
   -0.8627   -0.3078   -0.2452 C   0  0  0  0  0  0  0  0  0  0  0  0
   -2.5762    1.3934   -0.1590 C   0  0  0  0  0  0  0  0  0  0  0  0
    0.0984    0.6729   -0.4910 C   0  0  0  0  0  0  0  0  0  0  0  0
   -1.6153    2.3739   -0.4046 C   0  0  0  0  0  0  0  0  0  0  0  0
   -0.2780    2.0138   -0.5708 C   0  0  0  0  0  0  0  0  0  0  0  0
    4.0707   -0.3999   -0.9883 C   0  0  0  0  0  0  0  0  0  0  0  0
    2.1789    0.2926    0.5287 C   0  0  0  0  0  0  0  0  0  0  0  0
    4.4361   -0.1468    1.4440 C   0  0  0  0  0  0  0  0  0  0  0  0
    3.9426   -1.8785   -1.2916 C   0  0  0  0  0  0  0  0  0  0  0  0
  1 11  1  0
  1 15  1  0
  2 15  2  0
  3  5  1  0
  3  6  1  0
  3  7  1  0
  3  8  1  0
  4 14  1  0
  4 15  1  0
  4 16  1  0
  5  9  2  0
  5 10  1  0
  9 11  1  0
 10 12  2  0
 11 13  2  0
 12 13  1  0
 14 17  1  0
M  CHG  1   3   1
M  END
>  <PUBCHEM_COMPOUND_CID>  (1) 
47014

>  <PUBCHEM_CONFORMER_RMSD>  (1) 
0.6

>  <PUBCHEM_CONFORMER_DIVERSEORDER>  (1) 
1
129
143
41
76
71
67
99
140
139
66
57
81
101
132
106
90
64
79
133
75
94
109
122
125
86
18
130
103
27
68
37
117
104
127
134
48
22
45
136
144
97
105
78
34
82
80
126
56
32
42
123
145
141
62
73
10
131
102
17
13
113
43
138
112
91
47
108
11
83
87
119
26
25
40
142
120
14
46
98
23
69
65
44
107
63
115
39
121
30
38
19
85
12
36
54
9
16
146
61
135
51
88
137
33
7
31
15
5
60
128
72
93
28
89
49
59
84
118
58
55
29
21
116
74
110
4
77
95
3
124
2
8
111
100
114
70
50
24
20
96
35
92
6
52
53

>  <PUBCHEM_MMFF94_PARTIAL_CHARGES>  (1) 
20
1 -0.23
10 -0.15
11 0.08
12 -0.15
13 -0.15
14 0.3
15 0.78
16 0.3
2 -0.57
27 0.15
28 0.15
29 0.15
3 -0.87
30 0.15
4 -0.66
5 0.36
6 0.5
7 0.5
8 0.5
9 -0.15

>  <PUBCHEM_EFFECTIVE_ROTOR_COUNT>  (1) 
5

>  <PUBCHEM_PHARMACOPHORE_FEATURES>  (1) 
3
1 2 acceptor
1 3 cation
6 5 9 10 11 12 13 rings

>  <PUBCHEM_HEAVY_ATOM_COUNT>  (1) 
17

>  <PUBCHEM_ATOM_DEF_STEREO_COUNT>  (1) 
0

>  <PUBCHEM_ATOM_UDEF_STEREO_COUNT>  (1) 
0

>  <PUBCHEM_BOND_DEF_STEREO_COUNT>  (1) 
0

>  <PUBCHEM_BOND_UDEF_STEREO_COUNT>  (1) 
0

>  <PUBCHEM_ISOTOPIC_ATOM_COUNT>  (1) 
0

>  <PUBCHEM_COMPONENT_COUNT>  (1) 
1

>  <PUBCHEM_CACTVS_TAUTO_COUNT>  (1) 
1

>  <PUBCHEM_CONFORMER_ID>  (1) 
0000B7A600000001

>  <PUBCHEM_MMFF94_ENERGY>  (1) 
64.8785

>  <PUBCHEM_FEATURE_SELFOVERLAP>  (1) 
15.223

>  <PUBCHEM_SHAPE_FINGERPRINT>  (1) 
10366900 7 18130220566373273426
11046707 91 18260263053353397593
11370993 144 17703801279424580411
11543360 7 14562816594098565507
11552529 35 17130983333819771927
12553582 1 18261397775265718451
12596602 18 15051726525765212678
12714826 92 17967250905918026981
12892183 10 16845575343833927170
13296908 3 18131348566793293908
13583140 156 14764343838565660655
14251751 18 18192431871267410554
14252887 29 18272368681303188018
14289901 80 17417804080298184368
15219456 202 17988638550214255220
15653759 3 18202562860881990528
16752209 62 18114166524345247093
16945 1 18337678611199470237
17804303 29 18412831278428982405
17834074 16 18341896247271923070
1813 80 17967823768313082821
18186145 218 10881396517719872670
19049666 15 17987513698289949712
19107657 162 18411699902528495302
19141452 34 18202288022073084775
19422 9 17531247214954684960
19862831 5 16805317795050714978
200 152 15719385123230346896
20281475 54 18271534164366716310
20645477 70 18117272764958145095
20671657 53 17313103085332445837
20871999 31 18187370904357425260
21634736 98 17823145669112688252
22094290 60 18335988592638661860
22943178 12 18201148846395683508
23402539 116 18340755006179450469
23557571 272 18411694366690378976
23559900 14 18340488846998023644
2748010 2 18193567662293148591
314173 85 18410857672141989737
3286 77 17131829910659900531
449060 23 18334297573761832654
474 4 14834399291086528138
57096353 35 17095249103164325580
6049 1 18201996599793873960
633830 44 15431175547874171084
7364860 26 18194686097093923004
77492 1 17168148888723303612
9709674 26 18412824664342994054

>  <PUBCHEM_SHAPE_MULTIPOLES>  (1) 
328.15
8.82
2.1
1.31
5.19
0.16
0.36
-4.37
0.49
-1.43
-0.47
0.74
-0.24
0.95

>  <PUBCHEM_SHAPE_SELFOVERLAP>  (1) 
661.525

>  <PUBCHEM_SHAPE_VOLUME>  (1) 
194.4

>  <PUBCHEM_COORDINATE_TYPE>  (1) 
2
5
10

$$$$
