47017
     RDKit          3D

 21 22  0  0  0  0  0  0  0  0999 V2000
    0.0757   -1.1797   -0.6526 O   0  0  0  0  0  0  0  0  0  0  0  0
   -0.7678    0.2958    0.8992 O   0  0  0  0  0  0  0  0  0  0  0  0
    4.3567    1.0785   -0.3822 N   0  0  0  0  0  0  0  0  0  0  0  0
   -2.2175   -0.5899   -0.7329 N   0  0  0  0  0  0  0  0  0  0  0  0
    3.3830    0.0051    0.1105 C   0  0  0  0  0  0  0  0  0  0  0  0
    5.6328    0.3974   -0.8684 C   0  0  0  0  0  0  0  0  0  0  0  0
    4.6563    2.0351    0.7686 C   0  0  0  0  0  0  0  0  0  0  0  0
    3.7813    1.8927   -1.5391 C   0  0  0  0  0  0  0  0  0  0  0  0
    2.1846   -0.0698   -0.5166 C   0  0  0  0  0  0  0  0  0  0  0  0
    3.8018   -0.7798    1.1321 C   0  0  0  0  0  0  0  0  0  0  0  0
    1.2975   -1.0482   -0.0676 C   0  0  0  0  0  0  0  0  0  0  0  0
    2.9148   -1.7579    1.5810 C   0  0  0  0  0  0  0  0  0  0  0  0
    1.6627   -1.8923    0.9812 C   0  0  0  0  0  0  0  0  0  0  0  0
   -0.9743   -0.4125   -0.0844 C   0  0  0  0  0  0  0  0  0  0  0  0
   -3.4374    0.0161   -0.2437 C   0  0  0  0  0  0  0  0  0  0  0  0
   -2.3286   -1.4694   -1.9053 C   0  0  0  0  0  0  0  0  0  0  0  0
   -3.3427    1.2068    0.4267 C   0  0  0  0  0  0  0  0  0  0  0  0
   -4.6201   -0.6335   -0.4782 C   0  0  0  0  0  0  0  0  0  0  0  0
   -4.5183    1.7911    0.8979 C   0  0  0  0  0  0  0  0  0  0  0  0
   -5.7958   -0.0489   -0.0070 C   0  0  0  0  0  0  0  0  0  0  0  0
   -5.7448    1.1634    0.6810 C   0  0  0  0  0  0  0  0  0  0  0  0
  1 11  1  0
  1 14  1  0
  2 14  2  0
  3  5  1  0
  3  6  1  0
  3  7  1  0
  3  8  1  0
  4 14  1  0
  4 15  1  0
  4 16  1  0
  5  9  2  0
  5 10  1  0
  9 11  1  0
 10 12  2  0
 11 13  2  0
 12 13  1  0
 15 17  2  0
 15 18  1  0
 17 19  1  0
 18 20  2  0
 19 21  2  0
 20 21  1  0
M  CHG  1   3   1
M  END
>  <PUBCHEM_COMPOUND_CID>  (1) 
47017

>  <PUBCHEM_CONFORMER_RMSD>  (1) 
0.8

>  <PUBCHEM_CONFORMER_DIVERSEORDER>  (1) 
2
43
23
11
56
64
58
21
29
10
61
38
50
63
47
3
24
7
25
19
65
51
59
15
6
33
57
53
20
39
12
8
27
55
9
1
35
46
45
28
48
49
54
52
17
26
44
40
14
42
32
30
18
36
34
22
16
5
31
37
60
41
4
13
62

>  <PUBCHEM_MMFF94_PARTIAL_CHARGES>  (1) 
30
1 -0.23
10 -0.15
11 0.08
12 -0.15
13 -0.15
14 0.78
15 0.12
16 0.3
17 -0.15
18 -0.15
19 -0.15
2 -0.57
20 -0.15
21 -0.15
3 -0.87
31 0.15
32 0.15
33 0.15
34 0.15
38 0.15
39 0.15
4 -0.48
40 0.15
41 0.15
42 0.15
5 0.36
6 0.5
7 0.5
8 0.5
9 -0.15

>  <PUBCHEM_EFFECTIVE_ROTOR_COUNT>  (1) 
5

>  <PUBCHEM_PHARMACOPHORE_FEATURES>  (1) 
4
1 2 acceptor
1 3 cation
6 15 17 18 19 20 21 rings
6 5 9 10 11 12 13 rings

>  <PUBCHEM_HEAVY_ATOM_COUNT>  (1) 
21

>  <PUBCHEM_ATOM_DEF_STEREO_COUNT>  (1) 
0

>  <PUBCHEM_ATOM_UDEF_STEREO_COUNT>  (1) 
0

>  <PUBCHEM_BOND_DEF_STEREO_COUNT>  (1) 
0

>  <PUBCHEM_BOND_UDEF_STEREO_COUNT>  (1) 
0

>  <PUBCHEM_ISOTOPIC_ATOM_COUNT>  (1) 
0

>  <PUBCHEM_COMPONENT_COUNT>  (1) 
1

>  <PUBCHEM_CACTVS_TAUTO_COUNT>  (1) 
1

>  <PUBCHEM_CONFORMER_ID>  (1) 
0000B7A900000002

>  <PUBCHEM_MMFF94_ENERGY>  (1) 
100.1842

>  <PUBCHEM_FEATURE_SELFOVERLAP>  (1) 
20.297

>  <PUBCHEM_SHAPE_FINGERPRINT>  (1) 
10 15 14924229378401902196
10354089 29 18186523206947036996
10378564 45 14261076419892310361
10498660 4 17561365080016856920
10554248 39 18127399061250228413
10670039 82 17560247920395251208
10730089 173 18060142032898553048
10906281 52 17987810601585961209
10912923 1 18408879621102084947
11796584 16 16988847185823843894
12107183 9 17614557034834381841
12236239 1 18412543210582494478
12403259 118 18264759966154804641
12403259 415 16515960372114963151
12596602 18 18259987059562085227
12616971 3 18338221700739175338
12633257 1 16443342135016800688
12644460 14 17749102275766024002
13533116 47 17895191047942055338
13544592 145 15195563511228186206
13631057 29 18116434945989174299
13675066 3 16081087056783449959
13955234 65 18041272176347586362
14251764 75 17461460292859810260
14252887 29 16298667196416288554
14341114 328 18408322168617008227
14528608 73 18413670227138623009
14573314 32 14908185235434742481
146900 427 18187363233456040368
14739800 52 18129362926171780728
14849402 71 18261107505098280192
15142526 21 18115869783678683040
15183329 4 17560253440034270854
15188451 53 11530756046022301309
15238133 3 18131061589647070482
15342168 16 18040723609774915124
15475509 35 14418676036595509104
15806764 133 16199582631700007227
15880784 105 17530965761648152443
1601671 61 17917993854129431825
17844677 252 17822851962132311741
17959699 21 18201720682225204608
18785283 64 16226909893474966189
19377110 9 18261399979185204795
20369508 70 11025808599615815686
21065198 48 18336262354197058723
21315764 119 17489040279247501380
22079108 93 18113338643413063115
221357 26 13614524030606874683
2303208 19 15338835413178488815
23557571 272 16917068905950457829
23559900 14 17131553838662696166
300161 21 18333726906221626783
312425 54 16588314835136487889
314173 85 14490478552156123951
3472631 163 18060137677902169300
34797466 226 16988848327652088941
38570 142 18116170990114739020
4340502 62 17676493847756162675
474 4 18113621222296536908
5104073 3 18113896078359607587
5281201 14 13542463150612899867
542803 24 18413670197295326555
543368 44 18271240625117385105
59682541 52 13182740291257232497
59755656 520 18260268572803702030
633830 44 18336547213692381982
7808743 9 17988637532064373863
8272917 22 18259987042102939442
960060 61 12607403321230317240

>  <PUBCHEM_SHAPE_MULTIPOLES>  (1) 
410.47
14.02
1.96
1.38
6.66
0.31
0.21
6.3
-0.68
-1.28
-0.26
-0.54
-0.22
-2.18

>  <PUBCHEM_SHAPE_SELFOVERLAP>  (1) 
866.037

>  <PUBCHEM_SHAPE_VOLUME>  (1) 
232.3

>  <PUBCHEM_COORDINATE_TYPE>  (1) 
2
5
10

$$$$
