47027
     RDKit          3D

 10  9  0  0  1  0  0  0  0  0999 V2000
    1.1526    0.1563    0.2485 O   0  0  0  0  0  0  0  0  0  0  0  0
   -1.6885    0.2622   -0.0009 N   0  0  0  0  0  0  0  0  0  0  0  0
   -0.9437   -1.0084    0.3825 C   0  0  0  0  0  0  0  0  0  0  0  0
    0.4676   -1.0124   -0.1956 C   0  0  0  0  0  0  0  0  0  0  0  0
   -1.7339    0.3858   -1.5172 C   0  0  0  0  0  0  0  0  0  0  0  0
   -3.1076    0.2029    0.5460 C   0  0  0  0  0  0  0  0  0  0  0  0
   -0.9691    1.4686    0.5849 C   0  0  0  0  0  0  0  0  0  0  0  0
    1.2831   -2.2480    0.1624 C   0  0  0  0  0  0  0  0  0  0  0  0
    2.4307    0.2692   -0.3591 C   0  0  0  0  0  0  0  0  0  0  0  0
    3.1088    1.5239    0.1485 C   0  0  0  0  0  0  0  0  0  0  0  0
  1  4  1  0
  1  9  1  0
  2  3  1  0
  2  5  1  0
  2  6  1  0
  2  7  1  0
  3  4  1  0
  4  8  1  0
  9 10  1  0
M  CHG  1   2   1
M  END
>  <PUBCHEM_COMPOUND_CID>  (1) 
47027

>  <PUBCHEM_CONFORMER_RMSD>  (1) 
0.6

>  <PUBCHEM_CONFORMER_DIVERSEORDER>  (1) 
1
6
4
5
7
3
2

>  <PUBCHEM_MMFF94_PARTIAL_CHARGES>  (1) 
8
1 -0.56
2 -1.01
3 0.5
4 0.28
5 0.5
6 0.5
7 0.5
9 0.28

>  <PUBCHEM_EFFECTIVE_ROTOR_COUNT>  (1) 
4

>  <PUBCHEM_PHARMACOPHORE_FEATURES>  (1) 
2
1 1 acceptor
1 2 cation

>  <PUBCHEM_HEAVY_ATOM_COUNT>  (1) 
10

>  <PUBCHEM_ATOM_DEF_STEREO_COUNT>  (1) 
0

>  <PUBCHEM_ATOM_UDEF_STEREO_COUNT>  (1) 
1

>  <PUBCHEM_BOND_DEF_STEREO_COUNT>  (1) 
0

>  <PUBCHEM_BOND_UDEF_STEREO_COUNT>  (1) 
0

>  <PUBCHEM_ISOTOPIC_ATOM_COUNT>  (1) 
0

>  <PUBCHEM_COMPONENT_COUNT>  (1) 
1

>  <PUBCHEM_CACTVS_TAUTO_COUNT>  (1) 
1

>  <PUBCHEM_CONFORMER_ID>  (1) 
0000B7B300000001

>  <PUBCHEM_MMFF94_ENERGY>  (1) 
37.6335

>  <PUBCHEM_FEATURE_SELFOVERLAP>  (1) 
10.148

>  <PUBCHEM_SHAPE_FINGERPRINT>  (1) 
10857977 72 17095820866374833427
12897270 3 18412826880203032340
12932741 1 17605555453265124591
12932764 1 17314234349996260787
14325111 11 18411140276879605128
14390081 3 18413673521468203344
15310529 11 18202002071397124835
15775835 57 18131635603473266328
18380122 1 17967538969200502591
19973954 147 18193840331917112561
20653085 51 17489041438735741720
20653091 64 18119250558469252674
21028194 46 18187365441364609780
21040471 1 18337956804599704978
23211744 41 17749383758725988043
23235685 24 18410292540276688256
23552423 10 18267864969547939619
369184 2 15357693123694025965
5084963 1 17387711413408594735
528862 383 18409729517350995051
81228 2 17615406295945512130

>  <PUBCHEM_SHAPE_MULTIPOLES>  (1) 
194.94
4.3
1.86
0.95
0.68
0.68
0.33
-1.81
-0.18
1.13
-0.26
-0.52
-0.14
0.04

>  <PUBCHEM_SHAPE_SELFOVERLAP>  (1) 
350.268

>  <PUBCHEM_SHAPE_VOLUME>  (1) 
128.9

>  <PUBCHEM_COORDINATE_TYPE>  (1) 
2
5
10

$$$$
