47029
     RDKit          3D

 11 10  0  0  0  0  0  0  0  0999 V2000
    2.0576   -0.4672    0.0042 O   0  0  0  0  0  0  0  0  0  0  0  0
    3.6296    1.2148   -0.0048 O   0  0  0  0  0  0  0  0  0  0  0  0
   -2.7931   -0.0100   -0.0031 N   0  0  0  0  0  0  0  0  0  0  0  0
    4.2514   -0.9989   -0.0069 N   0  0  0  0  0  0  0  0  0  0  0  0
   -1.4820    0.7618    0.0372 C   0  0  0  0  0  0  0  0  0  0  0  0
   -0.3245   -0.2218    0.0165 C   0  0  0  0  0  0  0  0  0  0  0  0
   -2.8648   -0.9510    1.1909 C   0  0  0  0  0  0  0  0  0  0  0  0
   -3.9586    0.9671    0.0503 C   0  0  0  0  0  0  0  0  0  0  0  0
   -2.8669   -0.8179   -1.2907 C   0  0  0  0  0  0  0  0  0  0  0  0
    1.0158    0.4991    0.0091 C   0  0  0  0  0  0  0  0  0  0  0  0
    3.3356    0.0240   -0.0027 C   0  0  0  0  0  0  0  0  0  0  0  0
  1 10  1  0
  1 11  1  0
  2 11  2  0
  3  5  1  0
  3  7  1  0
  3  8  1  0
  3  9  1  0
  4 11  1  0
  5  6  1  0
  6 10  1  0
M  CHG  1   3   1
M  END
>  <PUBCHEM_COMPOUND_CID>  (1) 
47029

>  <PUBCHEM_CONFORMER_RMSD>  (1) 
0.6

>  <PUBCHEM_CONFORMER_DIVERSEORDER>  (1) 
1
9
8
15
10
12
7
16
11
3
13
5
14
6
4
2

>  <PUBCHEM_MMFF94_PARTIAL_CHARGES>  (1) 
12
1 -0.43
10 0.28
11 0.78
2 -0.57
27 0.37
28 0.37
3 -1.01
4 -0.8
5 0.5
7 0.5
8 0.5
9 0.5

>  <PUBCHEM_EFFECTIVE_ROTOR_COUNT>  (1) 
5

>  <PUBCHEM_PHARMACOPHORE_FEATURES>  (1) 
3
1 2 acceptor
1 3 cation
1 4 donor

>  <PUBCHEM_HEAVY_ATOM_COUNT>  (1) 
11

>  <PUBCHEM_ATOM_DEF_STEREO_COUNT>  (1) 
0

>  <PUBCHEM_ATOM_UDEF_STEREO_COUNT>  (1) 
0

>  <PUBCHEM_BOND_DEF_STEREO_COUNT>  (1) 
0

>  <PUBCHEM_BOND_UDEF_STEREO_COUNT>  (1) 
0

>  <PUBCHEM_ISOTOPIC_ATOM_COUNT>  (1) 
0

>  <PUBCHEM_COMPONENT_COUNT>  (1) 
1

>  <PUBCHEM_CACTVS_TAUTO_COUNT>  (1) 
2

>  <PUBCHEM_CONFORMER_ID>  (1) 
0000B7B500000001

>  <PUBCHEM_MMFF94_ENERGY>  (1) 
27.9569

>  <PUBCHEM_FEATURE_SELFOVERLAP>  (1) 
15.223

>  <PUBCHEM_SHAPE_FINGERPRINT>  (1) 
11062470 55 18411419501130039245
12932764 1 17917709123472415808
14123238 8 9511453429423608016
14325111 11 18410293622761200216
14577589 140 18413671305628991167
18186145 218 17458060473845891840
190213 19 18113054952196115780
1986462 14 17240485814269654147
20279233 1 17489873713055570677
20645477 56 16515677819654894749
20645477 70 18271805666530040902
22169311 21 17530958098993914362
22485316 2 18059850662596481430
23402539 116 18343293756720832612
23402655 69 18342739602813246516
3248919 1 18113616806732442532

>  <PUBCHEM_SHAPE_MULTIPOLES>  (1) 
204.67
8.45
1.12
0.89
5.28
0.05
-0.05
-0.09
-0.02
-0.11
0.03
-0.9
-0.27
0

>  <PUBCHEM_SHAPE_SELFOVERLAP>  (1) 
375.367

>  <PUBCHEM_SHAPE_VOLUME>  (1) 
131.8

>  <PUBCHEM_COORDINATE_TYPE>  (1) 
2
5
10

$$$$
