47041
     RDKit          3D

 18 18  0  0  0  0  0  0  0  0999 V2000
   -1.9503    0.3759    0.9653 O   0  0  0  0  0  0  0  0  0  0  0  0
   -2.3288   -0.7265   -1.0467 O   0  0  0  0  0  0  0  0  0  0  0  0
    2.8026   -0.2885    0.3399 N   0  0  0  0  0  0  0  0  0  0  0  0
   -3.8746   -0.8380    0.6797 N   0  0  0  0  0  0  0  0  0  0  0  0
    1.5384    0.5493    0.1333 C   0  0  0  0  0  0  0  0  0  0  0  0
    2.4972   -1.7822    0.4301 C   0  0  0  0  0  0  0  0  0  0  0  0
    3.4676    0.1404    1.6447 C   0  0  0  0  0  0  0  0  0  0  0  0
    3.7382   -0.0660   -0.8451 C   0  0  0  0  0  0  0  0  0  0  0  0
    0.3868    0.0597    0.6523 C   0  0  0  0  0  0  0  0  0  0  0  0
    1.6782    1.7107   -0.5500 C   0  0  0  0  0  0  0  0  0  0  0  0
    1.8199   -2.3102   -0.7915 C   0  0  0  0  0  0  0  0  0  0  0  0
   -0.7648    0.8240    0.4647 C   0  0  0  0  0  0  0  0  0  0  0  0
   -0.6952    2.0313   -0.2303 C   0  0  0  0  0  0  0  0  0  0  0  0
    0.5263    2.4747   -0.7376 C   0  0  0  0  0  0  0  0  0  0  0  0
   -1.9176    2.8625   -0.4393 C   0  0  0  0  0  0  0  0  0  0  0  0
    0.6215   -2.9042   -0.7825 C   0  0  0  0  0  0  0  0  0  0  0  0
   -2.6957   -0.4341    0.0877 C   0  0  0  0  0  0  0  0  0  0  0  0
   -4.8497   -1.6788    0.0252 C   0  0  0  0  0  0  0  0  0  0  0  0
  1 12  1  0
  1 17  1  0
  2 17  2  0
  3  5  1  0
  3  6  1  0
  3  7  1  0
  3  8  1  0
  4 17  1  0
  4 18  1  0
  5  9  2  0
  5 10  1  0
  6 11  1  0
  9 12  1  0
 10 14  2  0
 11 16  2  0
 12 13  2  0
 13 14  1  0
 13 15  1  0
M  CHG  1   3   1
M  END
>  <PUBCHEM_COMPOUND_CID>  (1) 
47041

>  <PUBCHEM_CONFORMER_RMSD>  (1) 
0.8

>  <PUBCHEM_CONFORMER_DIVERSEORDER>  (1) 
1
91
12
27
38
43
85
90
57
58
81
39
41
18
71
44
83
96
23
52
77
50
80
11
64
48
54
88
86
31
97
21
9
26
75
84
40
92
61
47
78
82
55
94
69
37
59
74
29
67
2
65
62
63
15
46
13
73
89
66
51
68
56
53
70
79
24
42
19
76
14
17
49
45
8
60
87
20
7
36
3
33
34
25
32
28
35
16
4
6
22
93
72
95
5
10
30

>  <PUBCHEM_MMFF94_PARTIAL_CHARGES>  (1) 
25
1 -0.23
10 -0.15
11 -0.29
12 0.08
13 -0.14
14 -0.15
15 0.14
16 -0.3
17 0.78
18 0.3
2 -0.57
27 0.15
28 0.15
29 0.15
3 -0.87
30 0.15
34 0.15
35 0.15
36 0.37
4 -0.73
5 0.36
6 0.64
7 0.5
8 0.5
9 -0.15

>  <PUBCHEM_EFFECTIVE_ROTOR_COUNT>  (1) 
6

>  <PUBCHEM_PHARMACOPHORE_FEATURES>  (1) 
5
1 16 hydrophobe
1 2 acceptor
1 3 cation
1 4 donor
6 5 9 10 12 13 14 rings

>  <PUBCHEM_HEAVY_ATOM_COUNT>  (1) 
18

>  <PUBCHEM_ATOM_DEF_STEREO_COUNT>  (1) 
0

>  <PUBCHEM_ATOM_UDEF_STEREO_COUNT>  (1) 
0

>  <PUBCHEM_BOND_DEF_STEREO_COUNT>  (1) 
0

>  <PUBCHEM_BOND_UDEF_STEREO_COUNT>  (1) 
0

>  <PUBCHEM_ISOTOPIC_ATOM_COUNT>  (1) 
0

>  <PUBCHEM_COMPONENT_COUNT>  (1) 
1

>  <PUBCHEM_CACTVS_TAUTO_COUNT>  (1) 
2

>  <PUBCHEM_CONFORMER_ID>  (1) 
0000B7C100000001

>  <PUBCHEM_MMFF94_ENERGY>  (1) 
67.6498

>  <PUBCHEM_FEATURE_SELFOVERLAP>  (1) 
25.371

>  <PUBCHEM_SHAPE_FINGERPRINT>  (1) 
10616163 171 18338519608233964692
10618630 7 18410858741683720523
11322862 65 17831302696918884773
11578080 2 17988343954318944361
116883 192 18336828572652357781
12553582 1 18410572928874540999
13083527 12 18188474887194148160
13140716 1 18122899004448773674
13464513 79 18270689769538668414
13836976 161 18265338489438043319
14178342 30 18268987583968370544
14251705 54 18410858728799143487
16945 1 18259990392108618360
17492 54 18044401510925222900
17980427 23 17749392538467751900
20645477 70 18190460648544238091
20871998 184 18339916017955585636
20871998 22 18410015403390805539
21501502 16 18190465943975072464
2255824 54 18122069964054793261
22802520 49 18051409569885225192
2334 1 17762054741394160362
23388829 49 18411416232707529796
23402539 116 18187638081546165450
23557571 272 18266171739053012680
23559900 14 18122617250758020456
2748010 2 18196088837628025446
2871803 45 18411139108390375702
3060560 45 18265625461988470340
81228 2 18117283557937160017
8272917 22 18339092600496416867
9709674 26 18052811447163115111

>  <PUBCHEM_SHAPE_MULTIPOLES>  (1) 
348.73
6.55
3.16
1.1
4.78
0.12
-0.16
-3.48
-0.92
0.58
1.12
-0.59
-0.07
0.26

>  <PUBCHEM_SHAPE_SELFOVERLAP>  (1) 
710.124

>  <PUBCHEM_SHAPE_VOLUME>  (1) 
203.2

>  <PUBCHEM_COORDINATE_TYPE>  (1) 
2
5
10

$$$$
