47043
     RDKit          3D

 18 18  0  0  0  0  0  0  0  0999 V2000
   -2.6844   -1.0398   -0.0395 O   0  0  0  0  0  0  0  0  0  0  0  0
   -2.9046    1.2619    0.2053 O   0  0  0  0  0  0  0  0  0  0  0  0
    2.8732   -0.4312    0.2695 N   0  0  0  0  0  0  0  0  0  0  0  0
   -4.7742   -0.0932   -0.0187 N   0  0  0  0  0  0  0  0  0  0  0  0
    1.3548   -0.5956    0.1682 C   0  0  0  0  0  0  0  0  0  0  0  0
    3.3459    0.9147   -0.2764 C   0  0  0  0  0  0  0  0  0  0  0  0
    3.5418   -1.5355   -0.5441 C   0  0  0  0  0  0  0  0  0  0  0  0
    3.2794   -0.5169    1.7382 C   0  0  0  0  0  0  0  0  0  0  0  0
    0.7916   -0.5315   -1.0621 C   0  0  0  0  0  0  0  0  0  0  0  0
    0.6961   -0.7937    1.3377 C   0  0  0  0  0  0  0  0  0  0  0  0
    2.7338    2.0762    0.4349 C   0  0  0  0  0  0  0  0  0  0  0  0
   -0.5933   -0.6837   -1.1339 C   0  0  0  0  0  0  0  0  0  0  0  0
    1.5613   -0.3105   -2.3231 C   0  0  0  0  0  0  0  0  0  0  0  0
   -0.6887   -0.9457    1.2660 C   0  0  0  0  0  0  0  0  0  0  0  0
   -1.3333   -0.8909    0.0301 C   0  0  0  0  0  0  0  0  0  0  0  0
    2.0029    3.0199   -0.1684 C   0  0  0  0  0  0  0  0  0  0  0  0
   -3.4198    0.1570    0.0621 C   0  0  0  0  0  0  0  0  0  0  0  0
   -5.7826    0.9384    0.0541 C   0  0  0  0  0  0  0  0  0  0  0  0
  1 15  1  0
  1 17  1  0
  2 17  2  0
  3  5  1  0
  3  6  1  0
  3  7  1  0
  3  8  1  0
  4 17  1  0
  4 18  1  0
  5  9  2  0
  5 10  1  0
  6 11  1  0
  9 12  1  0
  9 13  1  0
 10 14  2  0
 11 16  2  0
 12 15  2  0
 14 15  1  0
M  CHG  1   3   1
M  END
>  <PUBCHEM_COMPOUND_CID>  (1) 
47043

>  <PUBCHEM_CONFORMER_RMSD>  (1) 
0.8

>  <PUBCHEM_CONFORMER_DIVERSEORDER>  (1) 
1
14
27
19
31
16
28
5
37
7
30
32
23
35
34
36
39
10
41
18
24
43
21
12
40
3
22
38
15
9
25
26
6
11
13
42
8
17
2
20
29
33
4

>  <PUBCHEM_MMFF94_PARTIAL_CHARGES>  (1) 
25
1 -0.23
10 -0.15
11 -0.29
12 -0.15
13 0.14
14 -0.15
15 0.08
16 -0.3
17 0.78
18 0.3
2 -0.57
27 0.15
28 0.15
29 0.15
3 -0.87
33 0.15
34 0.15
35 0.15
36 0.37
4 -0.73
5 0.36
6 0.64
7 0.5
8 0.5
9 -0.14

>  <PUBCHEM_EFFECTIVE_ROTOR_COUNT>  (1) 
6

>  <PUBCHEM_PHARMACOPHORE_FEATURES>  (1) 
5
1 16 hydrophobe
1 2 acceptor
1 3 cation
1 4 donor
6 5 9 10 12 14 15 rings

>  <PUBCHEM_HEAVY_ATOM_COUNT>  (1) 
18

>  <PUBCHEM_ATOM_DEF_STEREO_COUNT>  (1) 
0

>  <PUBCHEM_ATOM_UDEF_STEREO_COUNT>  (1) 
0

>  <PUBCHEM_BOND_DEF_STEREO_COUNT>  (1) 
0

>  <PUBCHEM_BOND_UDEF_STEREO_COUNT>  (1) 
0

>  <PUBCHEM_ISOTOPIC_ATOM_COUNT>  (1) 
0

>  <PUBCHEM_COMPONENT_COUNT>  (1) 
1

>  <PUBCHEM_CACTVS_TAUTO_COUNT>  (1) 
2

>  <PUBCHEM_CONFORMER_ID>  (1) 
0000B7C300000001

>  <PUBCHEM_MMFF94_ENERGY>  (1) 
86.0918

>  <PUBCHEM_FEATURE_SELFOVERLAP>  (1) 
25.371

>  <PUBCHEM_SHAPE_FINGERPRINT>  (1) 
10366900 7 17676494904202020745
11089746 13 18114726171611236279
12616999 72 16630812110031078919
12633257 1 17387952400040115744
13140716 1 15792590705922875910
13583140 156 18335432308611939587
13675066 3 17530965783043815031
14178342 30 16734106941088827226
14252887 29 14707205513578233428
14289901 80 18269835487526898723
15048467 5 17676496072960548612
15238133 3 18260547849047177468
15295992 7 18040722488878271313
15375462 189 12252179709903460881
16945 1 18115006538249423234
18186145 218 18040147431195855023
20231682 184 18272936058771812044
20645476 183 17702380839693845414
20645477 70 12391507598930141105
21033648 29 17458889501445271461
212847 35 18113057125238726908
21503847 285 18408886226218473489
22854114 59 17094958844926857339
22892500 29 18334012817604148596
23402539 116 18201991110951984471
23419403 2 15590452360756710802
23557571 272 18129108986188231839
23559900 14 18273218581794883174
2838139 119 18199743820453806180
29717793 49 11815894540564973817
3286 77 17677318442595227554
351380 180 18411135823104170081
4047638 21 18410857659267591971
474 4 18115868675366234093
5895379 119 17844822390267329633
5939293 188 18342173422849701040
633830 44 18409162225565555959
9999458 23 18410011022456020750

>  <PUBCHEM_SHAPE_MULTIPOLES>  (1) 
348.73
8.48
1.98
1.48
13.3
1.86
0.33
2.35
-0.72
-1.7
-0.06
-1.15
-0.45
0.03

>  <PUBCHEM_SHAPE_SELFOVERLAP>  (1) 
711.2

>  <PUBCHEM_SHAPE_VOLUME>  (1) 
203.4

>  <PUBCHEM_COORDINATE_TYPE>  (1) 
2
5
10

$$$$
