47060
     RDKit          3D

 21 22  0  0  0  0  0  0  0  0999 V2000
   -0.3066    1.5534   -0.9208 O   0  0  0  0  0  0  0  0  0  0  0  0
    0.5331    1.1030    1.2001 O   0  0  0  0  0  0  0  0  0  0  0  0
   -3.8254   -1.6833   -0.1214 N   0  0  0  0  0  0  0  0  0  0  0  0
    1.9455    1.7431   -0.5256 N   0  0  0  0  0  0  0  0  0  0  0  0
   -3.2901   -0.2513   -0.0456 C   0  0  0  0  0  0  0  0  0  0  0  0
   -5.0909   -1.6895   -0.9743 C   0  0  0  0  0  0  0  0  0  0  0  0
   -4.1218   -2.1722    1.2936 C   0  0  0  0  0  0  0  0  0  0  0  0
   -2.8201   -2.6428   -0.7547 C   0  0  0  0  0  0  0  0  0  0  0  0
   -2.0416   -0.0375   -0.5261 C   0  0  0  0  0  0  0  0  0  0  0  0
   -4.1105    0.6820    0.4939 C   0  0  0  0  0  0  0  0  0  0  0  0
   -1.5542    1.2677   -0.4583 C   0  0  0  0  0  0  0  0  0  0  0  0
   -3.6228    1.9872    0.5619 C   0  0  0  0  0  0  0  0  0  0  0  0
   -2.3446    2.2800    0.0859 C   0  0  0  0  0  0  0  0  0  0  0  0
    3.1895    1.7112    0.2078 C   0  0  0  0  0  0  0  0  0  0  0  0
    3.8479    0.3636    0.1390 C   0  0  0  0  0  0  0  0  0  0  0  0
    0.7224    1.4348    0.0335 C   0  0  0  0  0  0  0  0  0  0  0  0
    3.5550   -0.5952    1.1018 C   0  0  0  0  0  0  0  0  0  0  0  0
    4.7445    0.0884   -0.8871 C   0  0  0  0  0  0  0  0  0  0  0  0
    4.1668   -1.8472    1.0373 C   0  0  0  0  0  0  0  0  0  0  0  0
    5.3563   -1.1636   -0.9513 C   0  0  0  0  0  0  0  0  0  0  0  0
    5.0674   -2.1316    0.0106 C   0  0  0  0  0  0  0  0  0  0  0  0
  1 11  1  0
  1 16  1  0
  2 16  2  0
  3  5  1  0
  3  6  1  0
  3  7  1  0
  3  8  1  0
  4 14  1  0
  4 16  1  0
  5  9  2  0
  5 10  1  0
  9 11  1  0
 10 12  2  0
 11 13  2  0
 12 13  1  0
 14 15  1  0
 15 17  2  0
 15 18  1  0
 17 19  1  0
 18 20  2  0
 19 21  2  0
 20 21  1  0
M  CHG  1   3   1
M  END
>  <PUBCHEM_COMPOUND_CID>  (1) 
47060

>  <PUBCHEM_CONFORMER_RMSD>  (1) 
0.8

>  <PUBCHEM_CONFORMER_DIVERSEORDER>  (1) 
1
114
23
76
28
35
126
71
105
88
61
24
29
109
123
21
80
150
37
84
102
66
77
93
52
73
103
17
89
59
46
137
4
53
78
142
136
85
119
122
44
55
86
149
120
95
25
45
140
83
32
7
128
139
65
74
6
100
50
90
146
27
138
41
11
69
57
30
14
40
34
15
13
135
81
56
111
62
124
20
115
75
19
143
151
42
22
64
130
26
47
16
98
87
144
72
145
68
92
117
104
31
79
96
67
2
134
152
5
8
133
54
33
125
58
60
131
63
51
91
36
99
12
129
113
107
127
141
147
3
148
48
97
106
94
38
82
70
10
108
43
110
101
39
9
116
121
18
49
132
118
112

>  <PUBCHEM_MMFF94_PARTIAL_CHARGES>  (1) 
31
1 -0.23
10 -0.15
11 0.08
12 -0.15
13 -0.15
14 0.44
15 -0.14
16 0.78
17 -0.15
18 -0.15
19 -0.15
2 -0.57
20 -0.15
21 -0.15
3 -0.87
31 0.15
32 0.15
33 0.15
34 0.15
37 0.37
38 0.15
39 0.15
4 -0.73
40 0.15
41 0.15
42 0.15
5 0.36
6 0.5
7 0.5
8 0.5
9 -0.15

>  <PUBCHEM_EFFECTIVE_ROTOR_COUNT>  (1) 
6

>  <PUBCHEM_PHARMACOPHORE_FEATURES>  (1) 
5
1 2 acceptor
1 3 cation
1 4 donor
6 15 17 18 19 20 21 rings
6 5 9 10 11 12 13 rings

>  <PUBCHEM_HEAVY_ATOM_COUNT>  (1) 
21

>  <PUBCHEM_ATOM_DEF_STEREO_COUNT>  (1) 
0

>  <PUBCHEM_ATOM_UDEF_STEREO_COUNT>  (1) 
0

>  <PUBCHEM_BOND_DEF_STEREO_COUNT>  (1) 
0

>  <PUBCHEM_BOND_UDEF_STEREO_COUNT>  (1) 
0

>  <PUBCHEM_ISOTOPIC_ATOM_COUNT>  (1) 
0

>  <PUBCHEM_COMPONENT_COUNT>  (1) 
1

>  <PUBCHEM_CACTVS_TAUTO_COUNT>  (1) 
2

>  <PUBCHEM_CONFORMER_ID>  (1) 
0000B7D400000001

>  <PUBCHEM_MMFF94_ENERGY>  (1) 
76.7153

>  <PUBCHEM_FEATURE_SELFOVERLAP>  (1) 
25.372

>  <PUBCHEM_SHAPE_FINGERPRINT>  (1) 
10498660 4 11314030154173408726
10616163 171 18411139142739512430
10928967 22 18335138683173125106
11036077 51 18127698119607413929
11186622 123 18260823856098153586
11405975 8 18343303643409143744
11796584 16 18270685247338753044
12107183 9 18196376909485190217
12596602 18 15123501540634823614
12633257 1 17202779227342650755
13103583 49 17846232037145793345
13167823 11 18409732867652332588
13255334 9 18409731768267220906
13533116 47 18269551809616541153
13551218 46 18341054111828605919
13583140 156 17702929439866436872
13675066 3 17560794416634753760
1420 369 18410572928626588527
14251751 18 18339916031505054722
14420673 8 18197505017363756422
14576447 43 18260830397891754004
15042514 8 18409736171126014897
15250474 111 18408035204588034922
15537594 2 18114189583824277514
17492 89 18337955700355344530
17857418 61 18409161112883871318
17959699 21 8862949380923013628
1813 80 17603584157480841341
19141452 34 18337110055776138133
193927 3 18411142454380609878
19438510 23 15049787928426057217
20281475 54 18335699429813182492
20403669 9 18413389847336673967
21054139 6 18113901568335191178
21673915 165 18410007767081507898
22950370 63 18335989679550419172
23503958 8 18411698811643842553
235170 7 14345796015737593682
23559900 14 18340759429379327177
2838139 119 12246027831478901443
312423 11 18335432308258595957
4283 87 18261384534103260066
44062 13 18338798914067548324
5104073 3 18273496775463923096
5365585 94 18042133200988720083
5486654 36 18410019822833266025
559249 180 18337950091639589981
59755656 520 18265329509416334077
633830 44 16370731374776620972
6823239 73 17916602946741316334
7970288 3 18050568444371633278
960060 61 17822013112243744836
9709674 26 18262521506351038424

>  <PUBCHEM_SHAPE_MULTIPOLES>  (1) 
410.47
13.15
2.99
1.11
7.52
0.68
-0.12
7.76
0.51
-1.81
-0.06
0.1
0.34
-0.61

>  <PUBCHEM_SHAPE_SELFOVERLAP>  (1) 
861.989

>  <PUBCHEM_SHAPE_VOLUME>  (1) 
231.9

>  <PUBCHEM_COORDINATE_TYPE>  (1) 
2
5
10

$$$$
