47089
     RDKit          3D

 15 17  0  0  0  0  0  0  0  0999 V2000
   -0.5327    1.5101    0.0234 N   0  0  0  0  0  0  0  0  0  0  0  0
    4.0950   -1.5294   -0.0341 N   0  0  0  0  0  0  0  0  0  0  0  0
   -0.8648   -0.6928   -0.0076 C   0  0  0  0  0  0  0  0  0  0  0  0
   -1.4896    0.5368    0.0061 C   0  0  0  0  0  0  0  0  0  0  0  0
   -1.6274   -1.9733   -0.0437 C   0  0  0  0  0  0  0  0  0  0  0  0
   -2.9557    0.7808    0.0317 C   0  0  0  0  0  0  0  0  0  0  0  0
   -3.1040   -1.7529    0.3392 C   0  0  0  0  0  0  0  0  0  0  0  0
   -3.7036   -0.5110   -0.3474 C   0  0  0  0  0  0  0  0  0  0  0  0
    0.5387   -0.4563   -0.0067 C   0  0  0  0  0  0  0  0  0  0  0  0
    0.7186    0.9313    0.0140 C   0  0  0  0  0  0  0  0  0  0  0  0
    1.6782   -1.2859   -0.0237 C   0  0  0  0  0  0  0  0  0  0  0  0
   -0.7867    2.9355    0.0392 C   0  0  0  0  0  0  0  0  0  0  0  0
    1.9851    1.5269    0.0214 C   0  0  0  0  0  0  0  0  0  0  0  0
    2.9500   -0.7023   -0.0173 C   0  0  0  0  0  0  0  0  0  0  0  0
    3.0989    0.6825    0.0052 C   0  0  0  0  0  0  0  0  0  0  0  0
  1  4  1  0
  1 10  1  0
  1 12  1  0
  2 14  1  0
  3  4  2  0
  3  5  1  0
  3  9  1  0
  4  6  1  0
  5  7  1  0
  6  8  1  0
  7  8  1  0
  9 10  2  0
  9 11  1  0
 10 13  1  0
 11 14  2  0
 13 15  2  0
 14 15  1  0
M  END
>  <PUBCHEM_COMPOUND_CID>  (1) 
47089

>  <PUBCHEM_CONFORMER_RMSD>  (1) 
0.4

>  <PUBCHEM_CONFORMER_DIVERSEORDER>  (1) 
1

>  <PUBCHEM_MMFF94_PARTIAL_CHARGES>  (1) 
17
1 0.05
10 -0.15
11 -0.15
12 0.26
13 -0.15
14 0.1
15 -0.15
2 -0.9
24 0.15
28 0.15
29 0.15
3 -0.18
30 0.4
31 0.4
4 -0.33
5 0.18
6 0.18

>  <PUBCHEM_EFFECTIVE_ROTOR_COUNT>  (1) 
0.8

>  <PUBCHEM_PHARMACOPHORE_FEATURES>  (1) 
6
1 1 cation
1 2 cation
1 2 donor
5 1 3 4 9 10 rings
6 3 4 5 6 7 8 rings
6 9 10 11 13 14 15 rings

>  <PUBCHEM_HEAVY_ATOM_COUNT>  (1) 
15

>  <PUBCHEM_ATOM_DEF_STEREO_COUNT>  (1) 
0

>  <PUBCHEM_ATOM_UDEF_STEREO_COUNT>  (1) 
0

>  <PUBCHEM_BOND_DEF_STEREO_COUNT>  (1) 
0

>  <PUBCHEM_BOND_UDEF_STEREO_COUNT>  (1) 
0

>  <PUBCHEM_ISOTOPIC_ATOM_COUNT>  (1) 
0

>  <PUBCHEM_COMPONENT_COUNT>  (1) 
1

>  <PUBCHEM_CACTVS_TAUTO_COUNT>  (1) 
1

>  <PUBCHEM_CONFORMER_ID>  (1) 
0000B7F100000001

>  <PUBCHEM_MMFF94_ENERGY>  (1) 
36.4433

>  <PUBCHEM_FEATURE_SELFOVERLAP>  (1) 
30.621

>  <PUBCHEM_SHAPE_FINGERPRINT>  (1) 
10608611 8 18410569621575792485
10618630 7 18410012152032003654
10967382 1 18194683889216260963
11132069 177 18412256250874355810
11471102 20 18410568522158876591
11543360 7 15792023319231548462
11769659 78 18411134761888558326
12032990 46 18409733988528014059
12382932 28 18412261765644012401
13140716 1 18411422816781410707
13296908 3 18336828688104797707
13583140 156 14261064325285776383
14115302 16 18041288711343674678
14144814 61 18411702114325811523
14325111 11 18410575114738425477
15196674 1 18410855477318599983
15219456 202 18339640139252352074
15375462 189 18186522077080709163
15442244 35 18411702066917543472
15536298 74 18342738550603936888
16945 1 18338237050835843936
17804303 29 18341898446379340630
18186145 218 17676480666132291535
193761 8 17690279305327682199
19591789 44 16684021562065487988
200 152 17988916791196714551
20201158 50 18410855464507895439
20510252 161 18200027335497291168
20645477 70 18413103987340804911
20711985 365 18409448042321582253
20871998 184 18202000993054534735
21029758 11 18341886424987607077
21267235 1 18410302418712258827
21501502 16 18411987961489617056
21501925 9 18411127069950200058
221490 88 18191030212072276514
22721475 48 18413112748941706366
2334 1 18266459986792163723
23402539 116 18272359842181287255
23463225 33 18410576222871623454
23552423 10 18260831548309980132
23559900 14 18412538783125145112
2748010 2 18339639056920548037
3091708 16 9064873604616511496
3312278 4 18408606984619170242
335352 9 18266458706928761757
34934 24 18339915042934348574
5104073 3 18411418418682107162
528886 8 18339636840717449354
54173680 148 18410014329612220651
7364860 26 17980200008713806513
81228 2 18338246950688209529
8809292 202 18334017189559479523
9709674 26 18342178808733181774

>  <PUBCHEM_SHAPE_MULTIPOLES>  (1) 
298.73
5.92
2.44
0.62
0.99
1.03
0
-2.52
-0.12
-0.32
0.07
-0.07
-0.02
0.09

>  <PUBCHEM_SHAPE_SELFOVERLAP>  (1) 
656.026

>  <PUBCHEM_SHAPE_VOLUME>  (1) 
163.7

>  <PUBCHEM_COORDINATE_TYPE>  (1) 
2
5
10

$$$$
