471
     RDKit          3D

 22 24  0  0  1  0  0  0  0  0999 V2000
   -0.3484    0.9010    0.1785 O   0  0  0  0  0  0  0  0  0  0  0  0
    0.1914   -1.5038    1.7559 O   0  0  0  0  0  0  0  0  0  0  0  0
   -1.9617   -2.8735    0.1053 O   0  0  0  0  0  0  0  0  0  0  0  0
   -4.3241   -1.8544   -0.2716 O   0  0  0  0  0  0  0  0  0  0  0  0
   -4.6316    2.8819   -0.2795 O   0  0  0  0  0  0  0  0  0  0  0  0
    5.0928   -0.5989   -1.7652 O   0  0  0  0  0  0  0  0  0  0  0  0
    5.9435    0.8543    0.4465 O   0  0  0  0  0  0  0  0  0  0  0  0
    0.4279   -0.2037   -0.3116 C   0  0  0  0  0  0  0  0  0  0  0  0
    0.0059   -1.5188    0.3501 C   0  0  0  0  0  0  0  0  0  0  0  0
    1.9048    0.0782   -0.1121 C   0  0  0  0  0  0  0  0  0  0  0  0
   -1.4668   -1.7524    0.1143 C   0  0  0  0  0  0  0  0  0  0  0  0
   -2.3021   -0.5423   -0.0403 C   0  0  0  0  0  0  0  0  0  0  0  0
   -1.6980    0.7171    0.0208 C   0  0  0  0  0  0  0  0  0  0  0  0
   -3.6856   -0.6534   -0.2004 C   0  0  0  0  0  0  0  0  0  0  0  0
    2.8347   -0.3931   -1.0377 C   0  0  0  0  0  0  0  0  0  0  0  0
    2.3305    0.8074    0.9973 C   0  0  0  0  0  0  0  0  0  0  0  0
   -2.4843    1.8680   -0.0445 C   0  0  0  0  0  0  0  0  0  0  0  0
   -4.4643    0.5013   -0.2860 C   0  0  0  0  0  0  0  0  0  0  0  0
   -3.8660    1.7590   -0.2034 C   0  0  0  0  0  0  0  0  0  0  0  0
    4.1929   -0.1346   -0.8538 C   0  0  0  0  0  0  0  0  0  0  0  0
    3.6886    1.0659    1.1814 C   0  0  0  0  0  0  0  0  0  0  0  0
    4.6199    0.5949    0.2558 C   0  0  0  0  0  0  0  0  0  0  0  0
  1  8  1  0
  1 13  1  0
  2  9  1  0
  3 11  2  0
  4 14  1  0
  5 19  1  0
  6 20  1  0
  7 22  1  0
  8  9  1  0
  8 10  1  0
  9 11  1  0
 10 15  2  0
 10 16  1  0
 11 12  1  0
 12 13  2  0
 12 14  1  0
 13 17  1  0
 14 18  2  0
 15 20  1  0
 16 21  2  0
 17 19  2  0
 18 19  1  0
 20 22  2  0
 21 22  1  0
M  END
>  <PUBCHEM_COMPOUND_CID>  (1) 
471

>  <PUBCHEM_CONFORMER_RMSD>  (1) 
0.6

>  <PUBCHEM_CONFORMER_DIVERSEORDER>  (1) 
2
14
12
10
11
5
3
7
15
6
20
4
8
16
17
19
13
18
1
9

>  <PUBCHEM_MMFF94_PARTIAL_CHARGES>  (1) 
32
1 -0.36
10 -0.14
11 0.42
12 0.09
13 0.08
14 0.08
15 -0.15
16 -0.15
17 -0.15
18 -0.15
19 0.08
2 -0.68
20 0.08
21 -0.15
22 0.08
25 0.15
26 0.15
27 0.15
28 0.4
29 0.15
3 -0.57
30 0.15
31 0.45
32 0.45
33 0.45
34 0.45
4 -0.53
5 -0.53
6 -0.53
7 -0.53
8 0.42
9 0.34

>  <PUBCHEM_EFFECTIVE_ROTOR_COUNT>  (1) 
1.6

>  <PUBCHEM_PHARMACOPHORE_FEATURES>  (1) 
11
1 1 acceptor
1 2 acceptor
1 2 donor
1 3 acceptor
1 4 donor
1 5 donor
1 6 donor
1 7 donor
6 1 8 9 11 12 13 rings
6 10 15 16 20 21 22 rings
6 12 13 14 17 18 19 rings

>  <PUBCHEM_HEAVY_ATOM_COUNT>  (1) 
22

>  <PUBCHEM_ATOM_DEF_STEREO_COUNT>  (1) 
0

>  <PUBCHEM_ATOM_UDEF_STEREO_COUNT>  (1) 
2

>  <PUBCHEM_BOND_DEF_STEREO_COUNT>  (1) 
0

>  <PUBCHEM_BOND_UDEF_STEREO_COUNT>  (1) 
0

>  <PUBCHEM_ISOTOPIC_ATOM_COUNT>  (1) 
0

>  <PUBCHEM_COMPONENT_COUNT>  (1) 
1

>  <PUBCHEM_CACTVS_TAUTO_COUNT>  (1) 
998

>  <PUBCHEM_CONFORMER_ID>  (1) 
000001D700000002

>  <PUBCHEM_MMFF94_ENERGY>  (1) 
62.4622

>  <PUBCHEM_FEATURE_SELFOVERLAP>  (1) 
55.86

>  <PUBCHEM_SHAPE_FINGERPRINT>  (1) 
10319926 262 18268408257816028224
10411042 1 17832986431589910067
10498660 4 18337666421650228605
10646746 165 18411696590992568040
11315181 36 17895472630878276280
11796584 16 18410018702844255870
12107183 9 17973991865721297066
12173636 292 18337947892632139573
12236239 1 17313097579785472872
12390115 104 18270127808008032425
12403259 415 18273217503741949200
12788726 201 17099203118698230346
12916748 109 18335704969977856146
13140716 1 17974010853919619731
13544592 145 18271814488693124822
13583140 156 17775002453158301406
14251757 17 18202563973336458328
14386348 63 18060142076486172178
14573314 32 18343023289729458036
14790565 3 17909554956758991297
15042514 8 18192435397261441843
15196674 1 18410571751795038882
15375358 24 18273495680489471870
15961568 22 18118397582724218092
16752209 62 18334573581187419707
16945 1 18336267946191808451
17844677 252 18410296951477321488
18186145 218 18130791135440337977
19489759 90 18409163328928734004
200 152 15841838841290864210
20510252 161 18343581854647929233
20645477 56 18412265051283554585
20645477 70 17060348401076015558
21033648 29 17917700331938287272
21065201 7 18411417332414310466
21279426 13 18270684143300036518
22122407 14 15574720162229579709
22393880 68 18272937098539520134
23175994 123 17203613700485443953
23366157 5 17679015993812106059
23402539 116 18411410735048988908
23557571 272 18271524298911272376
23559900 14 18343586218593073630
25147074 1 18116695362593117243
2916195 48 18341886424808525680
3004659 81 18335989654413845702
3268164 11 18410001161479673573
4028521 119 18343581819919120201
4214541 1 18412261744285473552
474 4 17530970154829860059
495365 180 17632283554745091370
4990 188 18201439160188119052
5104073 3 18335704888405276123
5281201 14 18060143162886421628
5283173 99 18342457032556708360
542803 24 17312824874889524028
59755656 215 18410854361313334335
633830 44 18412255138615249124
69090 78 18130503119170620998
9709674 26 18272087265907367246
9981440 41 18333450932750500059

>  <PUBCHEM_SHAPE_MULTIPOLES>  (1) 
411.66
11.09
2.24
1.05
7.06
0.19
-0.03
-3.82
1.96
-3.27
-0.18
1.25
0.16
0.93

>  <PUBCHEM_SHAPE_SELFOVERLAP>  (1) 
916.477

>  <PUBCHEM_SHAPE_VOLUME>  (1) 
217.7

>  <PUBCHEM_COORDINATE_TYPE>  (1) 
2
5
10

$$$$
