47106
     RDKit          3D

 24 27  0  0  0  0  0  0  0  0999 V2000
   -0.7393    0.0988    0.1651 O   0  0  0  0  0  0  0  0  0  0  0  0
    0.1644    2.2186    0.2263 O   0  0  0  0  0  0  0  0  0  0  0  0
   -4.4283    0.0070    0.3537 N   0  0  0  0  0  0  0  0  0  0  0  0
    1.5280    0.3712    0.0696 N   0  0  0  0  0  0  0  0  0  0  0  0
   -4.7494    0.8651   -0.7955 C   0  0  0  0  0  0  0  0  0  0  0  0
   -5.3829   -1.1043    0.4699 C   0  0  0  0  0  0  0  0  0  0  0  0
   -6.1592    1.4453   -0.6740 C   0  0  0  0  0  0  0  0  0  0  0  0
   -6.8135   -0.5883    0.6331 C   0  0  0  0  0  0  0  0  0  0  0  0
   -7.2002    0.3438   -0.5094 C   0  0  0  0  0  0  0  0  0  0  0  0
   -3.0613   -0.5018    0.2460 C   0  0  0  0  0  0  0  0  0  0  0  0
   -2.0604    0.6425    0.2546 C   0  0  0  0  0  0  0  0  0  0  0  0
    1.8005   -1.0061   -0.0112 C   0  0  0  0  0  0  0  0  0  0  0  0
    2.7509    1.0623    0.0445 C   0  0  0  0  0  0  0  0  0  0  0  0
    3.1894   -1.1658   -0.0864 C   0  0  0  0  0  0  0  0  0  0  0  0
    3.7810    0.1249   -0.0518 C   0  0  0  0  0  0  0  0  0  0  0  0
    0.2658    1.0039    0.1618 C   0  0  0  0  0  0  0  0  0  0  0  0
    0.9638   -2.1440   -0.0260 C   0  0  0  0  0  0  0  0  0  0  0  0
    3.0489    2.4410    0.0977 C   0  0  0  0  0  0  0  0  0  0  0  0
    3.7418   -2.4645   -0.1770 C   0  0  0  0  0  0  0  0  0  0  0  0
    5.1236    0.5659   -0.0952 C   0  0  0  0  0  0  0  0  0  0  0  0
    1.5332   -3.4191   -0.1159 C   0  0  0  0  0  0  0  0  0  0  0  0
    4.3841    2.8548    0.0532 C   0  0  0  0  0  0  0  0  0  0  0  0
    2.9070   -3.5806   -0.1909 C   0  0  0  0  0  0  0  0  0  0  0  0
    5.4120    1.9295   -0.0422 C   0  0  0  0  0  0  0  0  0  0  0  0
  1 11  1  0
  1 16  1  0
  2 16  2  0
  3  5  1  0
  3  6  1  0
  3 10  1  0
  4 12  1  0
  4 13  1  0
  4 16  1  0
  5  7  1  0
  6  8  1  0
  7  9  1  0
  8  9  1  0
 10 11  1  0
 12 14  1  0
 12 17  2  0
 13 15  2  0
 13 18  1  0
 14 15  1  0
 14 19  2  0
 15 20  1  0
 17 21  1  0
 18 22  2  0
 19 23  1  0
 20 24  2  0
 21 23  2  0
 22 24  1  0
M  END
>  <PUBCHEM_COMPOUND_CID>  (1) 
47106

>  <PUBCHEM_CONFORMER_RMSD>  (1) 
0.8

>  <PUBCHEM_CONFORMER_DIVERSEORDER>  (1) 
1
20
6
37
4
34
17
28
2
27
26
23
24
47
22
5
21
46
39
40
3
15
11
9
19
43
13
32
42
18
38
30
25
31
33
8
10
7
12
49
29
14
48
35
45
41
36
44
16

>  <PUBCHEM_MMFF94_PARTIAL_CHARGES>  (1) 
27
1 -0.43
10 0.27
11 0.28
12 -0.15
13 -0.15
16 0.73
17 -0.15
18 -0.15
19 -0.15
2 -0.57
20 -0.15
21 -0.15
22 -0.15
23 -0.15
24 -0.15
3 -0.81
39 0.15
4 0.29
40 0.15
41 0.15
42 0.15
43 0.15
44 0.15
45 0.15
46 0.15
5 0.27
6 0.27

>  <PUBCHEM_EFFECTIVE_ROTOR_COUNT>  (1) 
6.2

>  <PUBCHEM_PHARMACOPHORE_FEATURES>  (1) 
6
1 2 acceptor
1 3 cation
5 4 12 13 14 15 rings
6 12 14 17 19 21 23 rings
6 13 15 18 20 22 24 rings
6 3 5 6 7 8 9 rings

>  <PUBCHEM_HEAVY_ATOM_COUNT>  (1) 
24

>  <PUBCHEM_ATOM_DEF_STEREO_COUNT>  (1) 
0

>  <PUBCHEM_ATOM_UDEF_STEREO_COUNT>  (1) 
0

>  <PUBCHEM_BOND_DEF_STEREO_COUNT>  (1) 
0

>  <PUBCHEM_BOND_UDEF_STEREO_COUNT>  (1) 
0

>  <PUBCHEM_ISOTOPIC_ATOM_COUNT>  (1) 
0

>  <PUBCHEM_COMPONENT_COUNT>  (1) 
1

>  <PUBCHEM_CACTVS_TAUTO_COUNT>  (1) 
1

>  <PUBCHEM_CONFORMER_ID>  (1) 
0000B80200000001

>  <PUBCHEM_MMFF94_ENERGY>  (1) 
49.8131

>  <PUBCHEM_FEATURE_SELFOVERLAP>  (1) 
30.615

>  <PUBCHEM_SHAPE_FINGERPRINT>  (1) 
10411042 1 17978792308014703542
10595046 47 18342737417175851245
10693767 8 17987524723909440550
10835480 77 18335978689056357901
11578080 2 13408229368521195020
11719270 70 18411412917388351426
12107183 9 17694795025574555753
12236239 1 17704077291640714217
12730499 353 18409452500639865434
12788726 201 17274829013240726841
12838862 33 18341034312166560512
13073987 5 18340774763171755049
13140716 1 18195239139290268560
13402501 40 18260547840256360577
13533116 47 18273213076068231267
13836976 161 18335144228223181028
13955234 65 18413103957407584474
14461889 52 18261673787313054571
14790565 3 18050006889696494636
15183329 4 18411417277123204025
15483637 11 18121780521782600821
15537594 2 17988639718593001087
16991971 28 18125164840781007134
16993427 108 17245530198100200418
16993438 75 18045785851800071187
17492 89 18196653990878778314
17844677 252 18339367353722650317
18335252 98 18335986467653392683
18608769 82 18263085586672630291
19427546 62 18264490753293633192
20028762 73 18202000980729581678
20157964 124 18411136931189784759
20554085 129 17916572268000937128
20645477 70 18335981986810188067
20775438 99 17468997161236253012
21033650 10 16227177977097159757
21049683 118 18053358167247528536
21197605 99 18266465493199629227
21279426 13 18191021210664680653
21285901 2 17894347748435779677
21521721 280 18271529817928878568
21623969 137 18335990847770896523
220451 1 17917711323302734431
22224240 67 18270956955586310336
23081809 10 17775564213906785585
23557571 272 17313101917370347429
23559900 14 18409727322606791643
23845131 108 18335700610950788298
239999 70 18272094863958221990
255183 451 17914060794175015358
3004659 81 18187647942548834595
335352 9 18411704301424046902
33824 294 18410294709678238946
3421961 26 18339359665013778803
3882209 13 16819926740389912675
4073 2 18186806915575975235
42630746 31 18413672413725259134
4340502 62 18412262869798721436
46194498 28 17894352181068915157
5104073 3 18261397707152682969
59755656 215 18408889529443787884
6025842 7 18412262826733218406
621550 34 18260823800120666684
6327066 14 18192715768579185644
8272917 22 18412545396905373694
9995097 60 18334858333772608269

>  <PUBCHEM_SHAPE_MULTIPOLES>  (1) 
472.21
16.44
3.51
0.71
31.71
2.16
-0.03
-4.87
-0.93
-6.03
-0.18
0.5
-0.02
0.94

>  <PUBCHEM_SHAPE_SELFOVERLAP>  (1) 
1026.547

>  <PUBCHEM_SHAPE_VOLUME>  (1) 
258.4

>  <PUBCHEM_COORDINATE_TYPE>  (1) 
2
5
10

$$$$
