47119
     RDKit          3D

 16 17  0  0  1  0  0  0  0  0999 V2000
   -0.2103   -0.8104   -0.0169 N   0  0  0  0  0  0  0  0  0  0  0  0
    3.4451    0.3265    0.0390 N   0  0  0  0  0  0  0  0  0  0  0  0
   -2.1409    0.2799   -1.3663 C   0  0  0  0  0  0  0  0  0  0  0  0
   -2.6865   -0.8358    0.7607 C   0  0  0  0  0  0  0  0  0  0  0  0
   -0.6306    0.2144   -1.0824 C   0  0  0  0  0  0  0  0  0  0  0  0
   -1.2027   -0.9545    1.1478 C   0  0  0  0  0  0  0  0  0  0  0  0
   -2.9273   -0.8627   -0.7412 C   0  0  0  0  0  0  0  0  0  0  0  0
   -2.7354    1.6135   -0.8627 C   0  0  0  0  0  0  0  0  0  0  0  0
   -3.2978    0.4639    1.3291 C   0  0  0  0  0  0  0  0  0  0  0  0
    1.1340   -0.3394    0.5749 C   0  0  0  0  0  0  0  0  0  0  0  0
   -2.7366    1.7219    0.6633 C   0  0  0  0  0  0  0  0  0  0  0  0
    0.0759   -2.1762   -0.6596 C   0  0  0  0  0  0  0  0  0  0  0  0
    2.1702   -0.1846   -0.5211 C   0  0  0  0  0  0  0  0  0  0  0  0
    4.0001   -0.6355    1.0990 C   0  0  0  0  0  0  0  0  0  0  0  0
    4.5021    0.4819   -1.0635 C   0  0  0  0  0  0  0  0  0  0  0  0
    3.2407    1.6969    0.6998 C   0  0  0  0  0  0  0  0  0  0  0  0
  1  5  1  0
  1  6  1  0
  1 10  1  0
  1 12  1  0
  2 13  1  0
  2 14  1  0
  2 15  1  0
  2 16  1  0
  3  5  1  0
  3  7  1  0
  3  8  1  0
  4  6  1  0
  4  7  1  0
  4  9  1  0
  8 11  1  0
  9 11  1  0
 10 13  1  0
M  CHG  2   1   1   2   1
M  END
>  <PUBCHEM_COMPOUND_CID>  (1) 
47119

>  <PUBCHEM_CONFORMER_RMSD>  (1) 
0.6

>  <PUBCHEM_CONFORMER_DIVERSEORDER>  (1) 
2
25
11
24
5
21
19
6
16
12
20
1
7
15
23
3
8
4
18
17
14
22
13
9
10

>  <PUBCHEM_MMFF94_PARTIAL_CHARGES>  (1) 
10
1 -1.01
10 0.5
12 0.5
13 0.5
14 0.5
15 0.5
16 0.5
2 -1.01
5 0.5
6 0.5

>  <PUBCHEM_EFFECTIVE_ROTOR_COUNT>  (1) 
4.4

>  <PUBCHEM_PHARMACOPHORE_FEATURES>  (1) 
4
1 1 cation
1 2 cation
6 1 3 4 5 6 7 rings
6 3 4 7 8 9 11 rings

>  <PUBCHEM_HEAVY_ATOM_COUNT>  (1) 
16

>  <PUBCHEM_ATOM_DEF_STEREO_COUNT>  (1) 
0

>  <PUBCHEM_ATOM_UDEF_STEREO_COUNT>  (1) 
2

>  <PUBCHEM_BOND_DEF_STEREO_COUNT>  (1) 
0

>  <PUBCHEM_BOND_UDEF_STEREO_COUNT>  (1) 
0

>  <PUBCHEM_ISOTOPIC_ATOM_COUNT>  (1) 
0

>  <PUBCHEM_COMPONENT_COUNT>  (1) 
1

>  <PUBCHEM_CACTVS_TAUTO_COUNT>  (1) 
1

>  <PUBCHEM_CONFORMER_ID>  (1) 
0000B80F00000002

>  <PUBCHEM_MMFF94_ENERGY>  (1) 
68.9179

>  <PUBCHEM_FEATURE_SELFOVERLAP>  (1) 
21.56

>  <PUBCHEM_SHAPE_FINGERPRINT>  (1) 
10366900 7 18041283278521054234
11127187 94 12751230398737092337
11132069 177 18113902649854482213
12173636 292 18130506430611219295
12251169 10 17603878813827870085
12491281 212 18341332206111757465
12916754 54 17917709166390440406
12932764 1 18335979874240146738
13024252 1 14923940155119442719
13296908 3 12967125038573368110
13296909 8 16225765207745069415
13693222 15 17167865257298223521
13764800 53 18261114036978431705
14004511 7 18201714025226024394
14144814 61 16732699458915181406
14289901 80 16950563298507700696
15219456 202 18261960617760691159
15309172 13 18410009939981681215
15375358 24 8286211517413898714
15534591 1 16773244989803564065
16945 1 17821736060840905135
18186145 218 17775568632874225638
19862831 5 15697999604758222798
200 152 17749667489225459535
20279233 1 8430322316217911152
20281407 28 11458419133413372814
20645464 45 18041845008782968803
20645476 183 16487256530603377799
20653085 51 17775568645310702085
20871999 31 13901895701230869849
21524375 3 18335973173542616807
21864079 5 18343584057723974624
22485316 2 10953733417834042348
2306618 200 17894904114489120373
23402539 116 18260545671567336683
23419403 2 10154697535052255483
23557571 272 17703803538846377421
23559900 14 16733253570000260402
25 1 18059863818060327030
27216 239 18408605881134601537
3082319 5 14979956956380883212
633830 44 17632583746951719240
74978 22 18200871894035229834
81228 2 17693647521687243042
90316 7 16298385725755657917
9882013 296 16732993045546822424

>  <PUBCHEM_SHAPE_MULTIPOLES>  (1) 
319.31
7.68
1.72
1.4
7.37
0.06
0
2.27
0.59
-0.5
0
-0.37
0.05
-0.02

>  <PUBCHEM_SHAPE_SELFOVERLAP>  (1) 
628.535

>  <PUBCHEM_SHAPE_VOLUME>  (1) 
189.1

>  <PUBCHEM_COORDINATE_TYPE>  (1) 
2
5
10

$$$$
