47111
     RDKit          3D

 18 18  0  0  1  0  0  0  0  0999 V2000
    0.1337    1.1885   -1.3980 O   0  0  0  0  0  0  0  0  0  0  0  0
   -1.7322   -1.8929    1.5140 O   0  0  0  0  0  0  0  0  0  0  0  0
    2.8050   -1.2965    1.4779 O   0  0  0  0  0  0  0  0  0  0  0  0
    1.5500   -0.1442   -0.1186 N   0  0  0  0  0  0  0  0  0  0  0  0
    0.5441   -1.6236    1.4275 N   0  0  0  0  0  0  0  0  0  0  0  0
   -0.7954   -0.8275   -0.4501 C   0  0  0  0  0  0  0  0  0  0  0  0
   -2.1666   -0.1609   -0.6439 C   0  0  0  0  0  0  0  0  0  0  0  0
   -0.6297   -1.9479   -1.4928 C   0  0  0  0  0  0  0  0  0  0  0  0
    0.3154    0.1915   -0.6971 C   0  0  0  0  0  0  0  0  0  0  0  0
   -2.3880    0.9368    0.3875 C   0  0  0  0  0  0  0  0  0  0  0  0
   -0.7376   -1.4732    0.9244 C   0  0  0  0  0  0  0  0  0  0  0  0
   -3.7399    1.6170    0.1727 C   0  0  0  0  0  0  0  0  0  0  0  0
   -0.6428   -1.3863   -2.8966 C   0  0  0  0  0  0  0  0  0  0  0  0
    2.7240    0.6090   -0.5432 C   0  0  0  0  0  0  0  0  0  0  0  0
    1.7187   -1.0484    0.9480 C   0  0  0  0  0  0  0  0  0  0  0  0
    2.8992    1.8517    0.3259 C   0  0  0  0  0  0  0  0  0  0  0  0
   -3.9641    2.7395    1.1733 C   0  0  0  0  0  0  0  0  0  0  0  0
    4.1063    2.6674   -0.1108 C   0  0  0  0  0  0  0  0  0  0  0  0
  1  9  2  0
  2 11  2  0
  3 15  2  0
  4  9  1  0
  4 14  1  0
  4 15  1  0
  5 11  1  0
  5 15  1  0
  6  7  1  0
  6  8  1  0
  6  9  1  0
  6 11  1  0
  7 10  1  0
  8 13  1  0
 10 12  1  0
 12 17  1  0
 14 16  1  0
 16 18  1  0
M  END
>  <PUBCHEM_COMPOUND_CID>  (1) 
47111

>  <PUBCHEM_CONFORMER_RMSD>  (1) 
0.8

>  <PUBCHEM_CONFORMER_DIVERSEORDER>  (1) 
1
14
10
29
32
42
21
11
31
36
34
4
24
17
35
39
30
13
3
28
19
33
18
26
25
6
38
37
20
22
15
27
41
16
9
5
23
8
12
7
2
40

>  <PUBCHEM_MMFF94_PARTIAL_CHARGES>  (1) 
11
1 -0.57
11 0.57
14 0.3
15 0.69
2 -0.57
3 -0.57
32 0.37
4 -0.42
5 -0.49
6 0.12
9 0.57

>  <PUBCHEM_EFFECTIVE_ROTOR_COUNT>  (1) 
6.6

>  <PUBCHEM_PHARMACOPHORE_FEATURES>  (1) 
8
1 1 acceptor
1 13 hydrophobe
1 17 hydrophobe
1 18 hydrophobe
1 2 acceptor
1 3 acceptor
1 5 donor
6 4 5 6 9 11 15 rings

>  <PUBCHEM_HEAVY_ATOM_COUNT>  (1) 
18

>  <PUBCHEM_ATOM_DEF_STEREO_COUNT>  (1) 
0

>  <PUBCHEM_ATOM_UDEF_STEREO_COUNT>  (1) 
1

>  <PUBCHEM_BOND_DEF_STEREO_COUNT>  (1) 
0

>  <PUBCHEM_BOND_UDEF_STEREO_COUNT>  (1) 
0

>  <PUBCHEM_ISOTOPIC_ATOM_COUNT>  (1) 
0

>  <PUBCHEM_COMPONENT_COUNT>  (1) 
1

>  <PUBCHEM_CACTVS_TAUTO_COUNT>  (1) 
3

>  <PUBCHEM_CONFORMER_ID>  (1) 
0000B80700000001

>  <PUBCHEM_MMFF94_ENERGY>  (1) 
32.1571

>  <PUBCHEM_FEATURE_SELFOVERLAP>  (1) 
40.597

>  <PUBCHEM_SHAPE_FINGERPRINT>  (1) 
10948715 1 18413112761816084709
11769659 78 8718831985154969456
122479 349 18411706512298846256
12382932 28 17677039265489440440
12390115 104 17971208147257070492
12423570 1 8892067605801869855
12491281 212 18343297102062642637
12788726 201 18055618754184986231
13024252 1 17753882024046389406
13140716 1 17967246490507284154
14004458 79 17056924633082648607
14142880 1 18044366356132939268
14178342 30 17822858713710144336
14614273 12 16879892283132682990
14617773 55 18123999520798223070
14817 1 11038001187167081015
15163728 17 17631751386448052705
15534591 1 18340487875649897980
15906896 17 18342733061588903159
16945 1 18120643648185973759
20510252 161 17683246133203529664
20723712 36 18053094030378466896
21041028 32 17397534312947241978
21524375 3 18341891857762644317
2306618 200 16954198408424026068
23419403 2 17479230427524424935
2748010 2 16807267156363548646
298252 57 17988923362148361749
474 4 18199474255705841505
88987 49 17417229048686168382
9999458 23 17897451592609601243

>  <PUBCHEM_SHAPE_MULTIPOLES>  (1) 
342.86
5.85
2.91
1.86
0.5
1.45
-0.5
6.99
1.02
-0.66
0
-0.11
-1.46
-1.23

>  <PUBCHEM_SHAPE_SELFOVERLAP>  (1) 
687.538

>  <PUBCHEM_SHAPE_VOLUME>  (1) 
200.3

>  <PUBCHEM_COORDINATE_TYPE>  (1) 
2
5
10

$$$$
