47127
     RDKit          3D

 18 20  0  0  1  0  0  0  0  0999 V2000
    0.7789    0.7298    0.0137 N   0  0  0  0  0  0  0  0  0  0  0  0
   -2.8512   -0.5888   -0.0860 N   0  0  0  0  0  0  0  0  0  0  0  0
    3.2497    0.9391   -0.7531 C   0  0  0  0  0  0  0  0  0  0  0  0
    2.7793   -0.2134    1.3722 C   0  0  0  0  0  0  0  0  0  0  0  0
    1.7628    0.9478   -1.1467 C   0  0  0  0  0  0  0  0  0  0  0  0
    1.2698   -0.2612    1.0811 C   0  0  0  0  0  0  0  0  0  0  0  0
    3.4812    0.9842    0.7499 C   0  0  0  0  0  0  0  0  0  0  0  0
   -0.5240    0.1599   -0.5836 C   0  0  0  0  0  0  0  0  0  0  0  0
    3.9583   -0.3117   -1.3179 C   0  0  0  0  0  0  0  0  0  0  0  0
    3.4738   -1.4993    0.8722 C   0  0  0  0  0  0  0  0  0  0  0  0
   -1.5452   -0.0860    0.5098 C   0  0  0  0  0  0  0  0  0  0  0  0
    3.4895   -1.6078   -0.6539 C   0  0  0  0  0  0  0  0  0  0  0  0
    0.3890    2.0704    0.6548 C   0  0  0  0  0  0  0  0  0  0  0  0
   -3.9163   -0.7672    1.0156 C   0  0  0  0  0  0  0  0  0  0  0  0
   -3.4303    0.4538   -1.0643 C   0  0  0  0  0  0  0  0  0  0  0  0
   -4.8704    0.3942    0.8187 C   0  0  0  0  0  0  0  0  0  0  0  0
   -4.8937    0.5655   -0.6844 C   0  0  0  0  0  0  0  0  0  0  0  0
   -2.6012   -1.9093   -0.7981 C   0  0  0  0  0  0  0  0  0  0  0  0
  1  5  1  0
  1  6  1  0
  1  8  1  0
  1 13  1  0
  2 11  1  0
  2 14  1  0
  2 15  1  0
  2 18  1  0
  3  5  1  0
  3  7  1  0
  3  9  1  0
  4  6  1  0
  4  7  1  0
  4 10  1  0
  8 11  1  0
  9 12  1  0
 10 12  1  0
 14 16  1  0
 15 17  1  0
 16 17  1  0
M  CHG  2   1   1   2   1
M  END
>  <PUBCHEM_COMPOUND_CID>  (1) 
47127

>  <PUBCHEM_CONFORMER_RMSD>  (1) 
0.8

>  <PUBCHEM_CONFORMER_DIVERSEORDER>  (1) 
3
7
13
10
9
4
12
11
2
6
1
5
8

>  <PUBCHEM_MMFF94_PARTIAL_CHARGES>  (1) 
10
1 -1.01
11 0.5
13 0.5
14 0.5
15 0.5
18 0.5
2 -1.01
5 0.5
6 0.5
8 0.5

>  <PUBCHEM_EFFECTIVE_ROTOR_COUNT>  (1) 
5.4

>  <PUBCHEM_PHARMACOPHORE_FEATURES>  (1) 
5
1 1 cation
1 2 cation
5 2 14 15 16 17 rings
6 1 3 4 5 6 7 rings
6 3 4 7 9 10 12 rings

>  <PUBCHEM_HEAVY_ATOM_COUNT>  (1) 
18

>  <PUBCHEM_ATOM_DEF_STEREO_COUNT>  (1) 
0

>  <PUBCHEM_ATOM_UDEF_STEREO_COUNT>  (1) 
2

>  <PUBCHEM_BOND_DEF_STEREO_COUNT>  (1) 
0

>  <PUBCHEM_BOND_UDEF_STEREO_COUNT>  (1) 
0

>  <PUBCHEM_ISOTOPIC_ATOM_COUNT>  (1) 
0

>  <PUBCHEM_COMPONENT_COUNT>  (1) 
1

>  <PUBCHEM_CACTVS_TAUTO_COUNT>  (1) 
1

>  <PUBCHEM_CONFORMER_ID>  (1) 
0000B81700000003

>  <PUBCHEM_MMFF94_ENERGY>  (1) 
70.1468

>  <PUBCHEM_FEATURE_SELFOVERLAP>  (1) 
26.635

>  <PUBCHEM_SHAPE_FINGERPRINT>  (1) 
10366900 7 15482677895999400314
11370993 70 14045739309771213333
12346177 29 17846207908642100967
12553582 1 18343585144017819116
12616999 72 16443070486956775274
12670545 47 14476961228701614534
12670546 56 17917990555700043681
128620 24 12251902603156338519
13224815 77 8142090866229430007
13296908 3 18187079568125175139
13533116 47 17131554955607478551
13583140 156 16558174038252086947
13675066 3 18333729135040660721
14004511 7 18060137639700656827
14252887 29 18411980269588156128
15239154 128 16732701627873763741
15375358 24 16988562424590028255
15788980 27 18408317791723430655
15848700 24 17846494820498827112
16752209 62 18268422452208492305
17349148 13 17060621118450794365
17834072 14 14405182863694293627
17834072 33 16660646289052355483
17834072 8 18261391109750463511
17844677 252 17386011658916568981
18186145 218 14056996101062658714
19784866 240 17532083891948633058
19862831 5 18040721354864284760
20281475 54 18408880763252012631
20645477 70 18342459227137167286
20775530 9 17482565092116473846
21250096 35 18341894082354931792
22485316 2 18343300396291853260
22646028 1 16343984706484725733
22854114 111 10015865379439718166
22854114 59 12175620676617066891
23402539 116 13398630516236289265
23402655 69 17894631448173653852
23559900 14 17275110548009388452
296302 2 16415478289496123481
300161 21 18272081729636623732
3060560 45 17167867469771130166
31174 14 16702009860602051112
312423 11 11242517891705688389
3323516 105 16732987517744467203
34934 24 18272085062911183596
351380 180 14764628590739224115
4047638 21 12540700314597095632
474 4 12829789452084848422
4990 188 17385729079726795162
522135 26 18040154002648564818
5281201 14 13479122467738469786
5374978 207 12391510888695884575
58051976 100 18337953514802624959
6333272 397 8142080957623723100
633830 44 17240480308132162539
7495541 125 14923951171077736120
74978 22 18201153381738567249
77779 3 17240483611236118337
90127 26 17967256382006857205
9971528 1 17561362885288860768

>  <PUBCHEM_SHAPE_MULTIPOLES>  (1) 
360.47
10.08
1.62
1.37
7.61
0.16
0.01
1.12
-0.41
-0.64
-0.03
-0.46
0.04
-0.03

>  <PUBCHEM_SHAPE_SELFOVERLAP>  (1) 
727.141

>  <PUBCHEM_SHAPE_VOLUME>  (1) 
208.4

>  <PUBCHEM_COORDINATE_TYPE>  (1) 
2
5
10

$$$$
