47125
     RDKit          3D

 20 22  0  0  1  0  0  0  0  0999 V2000
    1.9179   -0.8163    0.0195 N   0  0  0  0  0  0  0  0  0  0  0  0
   -4.2320    0.5850   -0.0522 N   0  0  0  0  0  0  0  0  0  0  0  0
    3.7279    0.5086    1.3253 C   0  0  0  0  0  0  0  0  0  0  0  0
    4.4392   -0.8594   -0.5954 C   0  0  0  0  0  0  0  0  0  0  0  0
    2.2414    0.3544    0.9613 C   0  0  0  0  0  0  0  0  0  0  0  0
    2.9873   -1.0792   -1.0526 C   0  0  0  0  0  0  0  0  0  0  0  0
    4.5826   -0.6789    0.9084 C   0  0  0  0  0  0  0  0  0  0  0  0
    4.3191    1.7835    0.6842 C   0  0  0  0  0  0  0  0  0  0  0  0
    5.0523    0.3738   -1.2948 C   0  0  0  0  0  0  0  0  0  0  0  0
    0.6032   -0.4742   -0.7110 C   0  0  0  0  0  0  0  0  0  0  0  0
    4.4167    1.6888   -0.8396 C   0  0  0  0  0  0  0  0  0  0  0  0
    1.6260   -2.0939    0.8211 C   0  0  0  0  0  0  0  0  0  0  0  0
   -0.5116   -0.3231    0.3134 C   0  0  0  0  0  0  0  0  0  0  0  0
   -2.9348    0.2488    0.6672 C   0  0  0  0  0  0  0  0  0  0  0  0
   -1.8287    0.0625   -0.3607 C   0  0  0  0  0  0  0  0  0  0  0  0
   -4.6437   -0.5658   -0.9933 C   0  0  0  0  0  0  0  0  0  0  0  0
   -5.3851    0.7301    0.9622 C   0  0  0  0  0  0  0  0  0  0  0  0
   -5.8076   -1.2376   -0.2919 C   0  0  0  0  0  0  0  0  0  0  0  0
   -6.5218   -0.0795    0.3697 C   0  0  0  0  0  0  0  0  0  0  0  0
   -4.0483    1.8726   -0.8407 C   0  0  0  0  0  0  0  0  0  0  0  0
  1  5  1  0
  1  6  1  0
  1 10  1  0
  1 12  1  0
  2 14  1  0
  2 16  1  0
  2 17  1  0
  2 20  1  0
  3  5  1  0
  3  7  1  0
  3  8  1  0
  4  6  1  0
  4  7  1  0
  4  9  1  0
  8 11  1  0
  9 11  1  0
 10 13  1  0
 13 15  1  0
 14 15  1  0
 16 18  1  0
 17 19  1  0
 18 19  1  0
M  CHG  2   1   1   2   1
M  END
>  <PUBCHEM_COMPOUND_CID>  (1) 
47125

>  <PUBCHEM_CONFORMER_RMSD>  (1) 
0.8

>  <PUBCHEM_CONFORMER_DIVERSEORDER>  (1) 
5
10
24
22
11
23
20
6
18
1
14
15
21
26
4
19
13
16
12
8
27
9
25
7
17
2
3

>  <PUBCHEM_MMFF94_PARTIAL_CHARGES>  (1) 
10
1 -1.01
10 0.5
12 0.5
14 0.5
16 0.5
17 0.5
2 -1.01
20 0.5
5 0.5
6 0.5

>  <PUBCHEM_EFFECTIVE_ROTOR_COUNT>  (1) 
7.4

>  <PUBCHEM_PHARMACOPHORE_FEATURES>  (1) 
5
1 1 cation
1 2 cation
5 2 16 17 18 19 rings
6 1 3 4 5 6 7 rings
6 3 4 7 8 9 11 rings

>  <PUBCHEM_HEAVY_ATOM_COUNT>  (1) 
20

>  <PUBCHEM_ATOM_DEF_STEREO_COUNT>  (1) 
0

>  <PUBCHEM_ATOM_UDEF_STEREO_COUNT>  (1) 
2

>  <PUBCHEM_BOND_DEF_STEREO_COUNT>  (1) 
0

>  <PUBCHEM_BOND_UDEF_STEREO_COUNT>  (1) 
0

>  <PUBCHEM_ISOTOPIC_ATOM_COUNT>  (1) 
0

>  <PUBCHEM_COMPONENT_COUNT>  (1) 
1

>  <PUBCHEM_CACTVS_TAUTO_COUNT>  (1) 
1

>  <PUBCHEM_CONFORMER_ID>  (1) 
0000B81500000005

>  <PUBCHEM_MMFF94_ENERGY>  (1) 
74.4189

>  <PUBCHEM_FEATURE_SELFOVERLAP>  (1) 
26.635

>  <PUBCHEM_SHAPE_FINGERPRINT>  (1) 
10366900 7 18113622282900362265
11287383 113 18201719565617902123
11724838 91 18261389017990724372
11796584 16 10303812094450544332
11858739 19 10881391037030580929
12107183 9 17550111359906381931
12166972 35 18334018289213746516
12236239 1 18273216396188727095
12596602 18 16588025714706448769
12616971 3 18059562585986167735
12730499 353 18272096006445896038
13073987 5 14707203293428346709
13533116 47 17022895718881382114
13675066 3 11458431223635502251
13914758 101 8502382110033657275
13955234 65 18187642467045865962
1420 363 18201721764984107443
14251718 22 18412547621840916143
14251732 16 18340487876303973707
14251758 9 9943811105770141269
14251764 75 17536326074034145636
14341114 176 17418096533485551761
14528608 73 18410855477376602845
14848160 23 15213017150676256753
14933364 13 17917998278346569393
15142383 8 11383844735478882194
15183329 4 10303819787095089153
17349148 13 17313108531720021221
17834072 33 18202846564946597847
17844677 252 18409451354047510877
17857418 61 8790891769763264661
18222031 100 13912322356906530398
19489759 90 17385438800663233113
20281389 69 9079122159464932311
20645477 70 17774728575894575350
220451 1 18411422795786901115
22061861 79 9655581790290950121
221357 26 17775570818775579632
23559900 14 16009320803320387666
239999 70 18202285779852262454
29717793 49 14405191655339439272
300161 21 18408879608512445471
3004659 81 16917073235383155918
34797466 226 18342749528213395757
3545911 37 18131633391359250663
4325135 7 18411419531558664645
5104073 3 17968938557661939249
5312625 73 18342176691329576617
5374978 207 15357693098245904308
53794403 172 18118408586076833692
542803 24 18130790053577928075
59755656 215 11599738246250708509
7495541 125 17775000210689468194
8509985 295 13840265900855445086
8988823 20 12829491475885893478
90127 26 18260274018494770073
960060 61 11527947893736216928

>  <PUBCHEM_SHAPE_MULTIPOLES>  (1) 
401.63
16.34
1.65
1.25
16.98
0.18
0
2.09
0.58
-0.81
0.04
-0.86
0.08
-0.11

>  <PUBCHEM_SHAPE_SELFOVERLAP>  (1) 
803.648

>  <PUBCHEM_SHAPE_VOLUME>  (1) 
235.2

>  <PUBCHEM_COORDINATE_TYPE>  (1) 
2
5
10

$$$$
