47143
     RDKit          3D

 17 17  0  0  0  0  0  0  0  0999 V2000
    0.1124   -1.8923    0.0558 O   0  0  0  0  0  0  0  0  0  0  0  0
   -2.9404    1.3581   -1.1929 O   0  0  0  0  0  0  0  0  0  0  0  0
    1.1101    2.6210    0.5228 O   0  0  0  0  0  0  0  0  0  0  0  0
    0.6137    0.3397    0.4878 N   0  0  0  0  0  0  0  0  0  0  0  0
   -0.9312    1.9634   -0.2658 N   0  0  0  0  0  0  0  0  0  0  0  0
   -1.7215   -0.3224    0.0566 C   0  0  0  0  0  0  0  0  0  0  0  0
   -2.4816   -1.3720   -0.7698 C   0  0  0  0  0  0  0  0  0  0  0  0
   -2.3026   -0.2882    1.4817 C   0  0  0  0  0  0  0  0  0  0  0  0
   -0.2514   -0.7208    0.1740 C   0  0  0  0  0  0  0  0  0  0  0  0
   -1.9340    1.0527   -0.5548 C   0  0  0  0  0  0  0  0  0  0  0  0
    1.9706    0.0053    0.9040 C   0  0  0  0  0  0  0  0  0  0  0  0
    0.3206    1.7025    0.2872 C   0  0  0  0  0  0  0  0  0  0  0  0
   -1.9675   -1.4171   -2.1910 C   0  0  0  0  0  0  0  0  0  0  0  0
   -2.1044   -1.6148    2.1814 C   0  0  0  0  0  0  0  0  0  0  0  0
    2.9202   -0.1506   -0.2790 C   0  0  0  0  0  0  0  0  0  0  0  0
    4.3392   -0.5285    0.1520 C   0  0  0  0  0  0  0  0  0  0  0  0
    5.2477   -0.7359   -1.0499 C   0  0  0  0  0  0  0  0  0  0  0  0
  1  9  2  0
  2 10  2  0
  3 12  2  0
  4  9  1  0
  4 11  1  0
  4 12  1  0
  5 10  1  0
  5 12  1  0
  6  7  1  0
  6  8  1  0
  6  9  1  0
  6 10  1  0
  7 13  1  0
  8 14  1  0
 11 15  1  0
 15 16  1  0
 16 17  1  0
M  END
>  <PUBCHEM_COMPOUND_CID>  (1) 
47143

>  <PUBCHEM_CONFORMER_RMSD>  (1) 
0.8

>  <PUBCHEM_CONFORMER_DIVERSEORDER>  (1) 
1
19
20
8
6
26
18
17
23
21
12
7
22
11
24
16
15
4
25
3
10
14
5
13
2
9

>  <PUBCHEM_MMFF94_PARTIAL_CHARGES>  (1) 
11
1 -0.57
10 0.57
11 0.3
12 0.69
2 -0.57
24 0.37
3 -0.57
4 -0.42
5 -0.49
6 0.12
9 0.57

>  <PUBCHEM_EFFECTIVE_ROTOR_COUNT>  (1) 
5.6

>  <PUBCHEM_PHARMACOPHORE_FEATURES>  (1) 
8
1 1 acceptor
1 13 hydrophobe
1 14 hydrophobe
1 17 hydrophobe
1 2 acceptor
1 3 acceptor
1 5 donor
6 4 5 6 9 10 12 rings

>  <PUBCHEM_HEAVY_ATOM_COUNT>  (1) 
17

>  <PUBCHEM_ATOM_DEF_STEREO_COUNT>  (1) 
0

>  <PUBCHEM_ATOM_UDEF_STEREO_COUNT>  (1) 
0

>  <PUBCHEM_BOND_DEF_STEREO_COUNT>  (1) 
0

>  <PUBCHEM_BOND_UDEF_STEREO_COUNT>  (1) 
0

>  <PUBCHEM_ISOTOPIC_ATOM_COUNT>  (1) 
0

>  <PUBCHEM_COMPONENT_COUNT>  (1) 
1

>  <PUBCHEM_CACTVS_TAUTO_COUNT>  (1) 
3

>  <PUBCHEM_CONFORMER_ID>  (1) 
0000B82700000001

>  <PUBCHEM_MMFF94_ENERGY>  (1) 
32.2819

>  <PUBCHEM_FEATURE_SELFOVERLAP>  (1) 
40.597

>  <PUBCHEM_SHAPE_FINGERPRINT>  (1) 
11206711 2 18262780935070656221
12173636 292 17385999512273951308
12423570 1 8988880717371897939
13024252 1 17749108876930239027
14617773 55 17343787264145947971
14817 1 17827961405799369443
16945 1 18195782138614541717
18927931 339 18342181008473608678
20281475 54 17560806528843175918
20602899 9 17131538445752822647
20645476 183 17677049036255202165
20871999 31 18409725162449102060
21061003 4 18340503230236920936
21339142 51 18187652388087600456
23236772 104 12612742532483441775
23402539 116 18409722942594731006
23493267 7 17894913984239265586
23559900 14 18342449306669639402
25 1 18044641028213658405
2748010 2 18191571141902548321
298252 57 18125702514581858973
3759504 43 17531526460859355485
4175511 318 18040714710734650484
53812654 72 17418379137790832307
6992083 37 17703241683830054603

>  <PUBCHEM_SHAPE_MULTIPOLES>  (1) 
322.28
6.56
2.11
1.62
11.18
0.99
0.05
-2.29
-1.6
-0.74
-0.1
-1.5
-0.82
0.6

>  <PUBCHEM_SHAPE_SELFOVERLAP>  (1) 
649.113

>  <PUBCHEM_SHAPE_VOLUME>  (1) 
187.7

>  <PUBCHEM_COORDINATE_TYPE>  (1) 
2
5
10

$$$$
