47150
     RDKit          3D

 20 21  0  0  0  0  0  0  0  0999 V2000
   -3.1992    0.1555   -0.6447 N   0  0  0  0  0  0  0  0  0  0  0  0
    3.5116    0.7931    0.4783 N   0  0  0  0  0  0  0  0  0  0  0  0
   -6.3003   -0.0310    0.0760 C   0  0  0  0  0  0  0  0  0  0  0  0
   -5.4807    0.2143    1.3426 C   0  0  0  0  0  0  0  0  0  0  0  0
   -5.5071   -0.5615   -1.1178 C   0  0  0  0  0  0  0  0  0  0  0  0
   -4.4657    1.3480    1.1923 C   0  0  0  0  0  0  0  0  0  0  0  0
   -4.3625    0.3417   -1.5596 C   0  0  0  0  0  0  0  0  0  0  0  0
   -3.1135    0.9216    0.6345 C   0  0  0  0  0  0  0  0  0  0  0  0
    6.1616   -0.0729   -0.6175 C   0  0  0  0  0  0  0  0  0  0  0  0
    5.2586   -1.3059   -0.5475 C   0  0  0  0  0  0  0  0  0  0  0  0
    5.4146    1.2000   -1.0344 C   0  0  0  0  0  0  0  0  0  0  0  0
    4.4453   -1.4761    0.7400 C   0  0  0  0  0  0  0  0  0  0  0  0
    4.4972    1.7759    0.0405 C   0  0  0  0  0  0  0  0  0  0  0  0
    3.9837   -0.1995    1.4357 C   0  0  0  0  0  0  0  0  0  0  0  0
   -2.2509   -0.6549   -0.9614 C   0  0  0  0  0  0  0  0  0  0  0  0
    2.2724    0.7295   -0.0629 C   0  0  0  0  0  0  0  0  0  0  0  0
   -1.0466   -0.9209   -0.1323 C   0  0  0  0  0  0  0  0  0  0  0  0
    1.2879   -0.1227    0.2540 C   0  0  0  0  0  0  0  0  0  0  0  0
   -0.0087   -0.1033   -0.3912 C   0  0  0  0  0  0  0  0  0  0  0  0
   -1.0978   -2.0310    0.8754 C   0  0  0  0  0  0  0  0  0  0  0  0
  1  7  1  0
  1  8  1  0
  1 15  2  0
  2 13  1  0
  2 14  1  0
  2 16  1  0
  3  4  1  0
  3  5  1  0
  4  6  1  0
  5  7  1  0
  6  8  1  0
  9 10  1  0
  9 11  1  0
 10 12  1  0
 11 13  1  0
 12 14  1  0
 15 17  1  0
 16 18  2  0
 17 19  2  0
 17 20  1  0
 18 19  1  0
M  CHG  1   1   1
M  END
>  <PUBCHEM_COMPOUND_CID>  (1) 
47150

>  <PUBCHEM_CONFORMER_RMSD>  (1) 
0.8

>  <PUBCHEM_CONFORMER_DIVERSEORDER>  (1) 
4
14
59
9
16
46
44
64
15
38
43
22
30
61
1
32
12
11
13
2
8
63
7
21
34
55
36
39
10
6
26
62
53
27
33
58
3
48
42
17
51
19
18
5
20
50
52
54
47
35
28
56
29
37
31
23
60
25
41
45
24
49
57
40

>  <PUBCHEM_MMFF94_PARTIAL_CHARGES>  (1) 
16
1 -0.09
13 0.37
14 0.37
15 0.33
16 -0.05
17 -0.12
18 -0.15
19 -0.15
2 -0.84
20 0.14
45 0.06
46 0.15
47 0.15
48 0.15
7 0.35
8 0.35

>  <PUBCHEM_EFFECTIVE_ROTOR_COUNT>  (1) 
5.6

>  <PUBCHEM_PHARMACOPHORE_FEATURES>  (1) 
4
1 2 cation
1 20 hydrophobe
7 1 3 4 5 6 7 8 rings
7 2 9 10 11 12 13 14 rings

>  <PUBCHEM_HEAVY_ATOM_COUNT>  (1) 
20

>  <PUBCHEM_ATOM_DEF_STEREO_COUNT>  (1) 
0

>  <PUBCHEM_ATOM_UDEF_STEREO_COUNT>  (1) 
0

>  <PUBCHEM_BOND_DEF_STEREO_COUNT>  (1) 
1

>  <PUBCHEM_BOND_UDEF_STEREO_COUNT>  (1) 
2

>  <PUBCHEM_ISOTOPIC_ATOM_COUNT>  (1) 
0

>  <PUBCHEM_COMPONENT_COUNT>  (1) 
1

>  <PUBCHEM_CACTVS_TAUTO_COUNT>  (1) 
1

>  <PUBCHEM_CONFORMER_ID>  (1) 
0000B82E00000004

>  <PUBCHEM_MMFF94_ENERGY>  (1) 
46.0432

>  <PUBCHEM_FEATURE_SELFOVERLAP>  (1) 
20.297

>  <PUBCHEM_SHAPE_FINGERPRINT>  (1) 
10 15 16660361536942173860
10613725 11 17847064376375355982
10638233 991 18411423938026993700
11724838 91 11241975906310493518
12166972 35 17918276471430696440
12236239 1 18343580746641338037
12516196 113 12973605538764694287
12596602 18 18113622287464426593
12730499 353 17458065959036132978
12916748 109 18040713658341101140
13533116 47 18341892961801367618
14251752 14 16128660730178330259
14251764 18 18272930523249901336
15183329 4 17703792513396322628
15788980 27 15482666888103618356
17349148 13 17989491818213076256
17844677 252 17458343013821751980
17857418 61 11097856302143243487
19489759 90 16056881325372185963
200 152 11815902249076513698
20281389 69 18060700585159001985
20567600 75 17022618641946121423
20645477 56 17749102331115172166
20645477 70 18343019983021748366
21033648 29 17750215015555981405
21150785 3 18040436615702068358
220451 1 18412543227815273791
23081809 10 17846213375702633557
23198884 109 17846500357128019869
23402539 116 17346875646353374529
23536379 177 17131834256929524615
23557571 272 16128384795767804441
23559900 14 18199741600202913232
29717793 49 17418382398341020644
300161 21 18260822744096534692
3004659 81 17632580453133939248
3009799 131 12895354365267055163
314173 85 9007062383024130339
34797466 226 15140971625222500854
3545911 37 18113619010525445132
5104073 3 18262231235582051466
5283173 99 13470419828999547691
542803 24 18344146998949765300
59755656 215 15984832510337076036
59755656 520 18411139147683488559
90127 26 17458340806240203580
9996256 80 18130788966898708191

>  <PUBCHEM_SHAPE_MULTIPOLES>  (1) 
401.63
17.56
1.54
1.33
0.4
0.17
-0.02
-2.05
1.29
1.27
-0.24
-0.95
-0.03
-0.91

>  <PUBCHEM_SHAPE_SELFOVERLAP>  (1) 
793.195

>  <PUBCHEM_SHAPE_VOLUME>  (1) 
231.9

>  <PUBCHEM_COORDINATE_TYPE>  (1) 
2
5
10

$$$$
