47156
     RDKit          3D

  9  9  0  0  0  0  0  0  0  0999 V2000
   -3.3573   -1.2324   -0.1669 Cl  0  0  0  0  0  0  0  0  0  0  0  0
    2.4930   -2.0166    0.0876 O   0  0  0  0  0  0  0  0  0  0  0  0
    0.1196    0.8181    0.0338 N   0  0  0  0  0  0  0  0  0  0  0  0
    0.8150    1.8485   -0.6952 C   0  0  0  0  0  0  0  0  0  0  0  0
    0.1943    2.1143    0.6589 C   0  0  0  0  0  0  0  0  0  0  0  0
    0.9658   -0.2461    0.6302 C   0  0  0  0  0  0  0  0  0  0  0  0
   -1.1824    0.3891   -0.4792 C   0  0  0  0  0  0  0  0  0  0  0  0
    1.7084   -0.9726   -0.4737 C   0  0  0  0  0  0  0  0  0  0  0  0
   -1.7564   -0.7024    0.4044 C   0  0  0  0  0  0  0  0  0  0  0  0
  1  9  1  0
  2  8  1  0
  3  4  1  0
  3  5  1  0
  3  6  1  0
  3  7  1  0
  4  5  1  0
  6  8  1  0
  7  9  1  0
M  CHG  1   3   1
M  END
>  <PUBCHEM_COMPOUND_CID>  (1) 
47156

>  <PUBCHEM_CONFORMER_RMSD>  (1) 
0.6

>  <PUBCHEM_CONFORMER_DIVERSEORDER>  (1) 
1
20
16
3
14
9
18
19
12
4
6
10
2
8
7
15
11
22
17
13
5
21

>  <PUBCHEM_MMFF94_PARTIAL_CHARGES>  (1) 
14
1 -0.29
10 0.1
11 0.1
12 0.1
13 0.1
2 -0.68
22 0.4
3 -0.8
4 0.2
5 0.2
6 0.5
7 0.5
8 0.28
9 0.29

>  <PUBCHEM_EFFECTIVE_ROTOR_COUNT>  (1) 
4.6

>  <PUBCHEM_PHARMACOPHORE_FEATURES>  (1) 
3
1 2 acceptor
1 2 donor
1 3 cation

>  <PUBCHEM_HEAVY_ATOM_COUNT>  (1) 
9

>  <PUBCHEM_ATOM_DEF_STEREO_COUNT>  (1) 
0

>  <PUBCHEM_ATOM_UDEF_STEREO_COUNT>  (1) 
0

>  <PUBCHEM_BOND_DEF_STEREO_COUNT>  (1) 
0

>  <PUBCHEM_BOND_UDEF_STEREO_COUNT>  (1) 
0

>  <PUBCHEM_ISOTOPIC_ATOM_COUNT>  (1) 
0

>  <PUBCHEM_COMPONENT_COUNT>  (1) 
1

>  <PUBCHEM_CACTVS_TAUTO_COUNT>  (1) 
1

>  <PUBCHEM_CONFORMER_ID>  (1) 
0000B83400000001

>  <PUBCHEM_MMFF94_ENERGY>  (1) 
27.1181

>  <PUBCHEM_FEATURE_SELFOVERLAP>  (1) 
15.223

>  <PUBCHEM_SHAPE_FINGERPRINT>  (1) 
1 1 17977664534688931252
137420 1 12227343189646607112
14128692 85 18335992999116761134
20645477 70 18264479771495547239
20653091 64 18340212985053094649
20711978 78 18268132340020602213
20711985 344 17975401430558018827
20871998 184 17985823718515962942
20871998 22 18412261718341680987
21040471 1 17257090896433396761
23552333 60 17915753169880785395
23552423 10 18336552732503667959
23552449 11 18264477546179592347
29004967 10 18412258454208402840

>  <PUBCHEM_SHAPE_MULTIPOLES>  (1) 
176.24
3.63
2.27
0.83
3.97
0.04
0
-2.28
0.25
-1.81
-0.05
-0.08
0.16
-0.02

>  <PUBCHEM_SHAPE_SELFOVERLAP>  (1) 
322.617

>  <PUBCHEM_SHAPE_VOLUME>  (1) 
115.9

>  <PUBCHEM_COORDINATE_TYPE>  (1) 
2
5
10

$$$$
