47191
     RDKit          3D

 18 18  0  0  1  0  0  0  0  0999 V2000
    1.9430    1.2487    0.9403 O   0  0  0  0  0  0  0  0  0  0  0  0
   -4.5252   -0.1340    0.6394 O   0  0  0  0  0  0  0  0  0  0  0  0
   -0.6024    1.0770   -0.4791 N   0  0  0  0  0  0  0  0  0  0  0  0
    0.8485    1.8710   -2.2226 N   0  0  0  0  0  0  0  0  0  0  0  0
    1.7582    0.6146   -0.3154 C   0  0  0  0  0  0  0  0  0  0  0  0
    1.5865   -0.8765   -0.1285 C   0  0  0  0  0  0  0  0  0  0  0  0
    0.5528    1.2203   -1.0451 C   0  0  0  0  0  0  0  0  0  0  0  0
   -1.7496    1.6618   -1.1601 C   0  0  0  0  0  0  0  0  0  0  0  0
   -3.0077    1.4446   -0.3312 C   0  0  0  0  0  0  0  0  0  0  0  0
    0.9661   -1.3477    1.0161 C   0  0  0  0  0  0  0  0  0  0  0  0
    2.0533   -1.7392   -1.1054 C   0  0  0  0  0  0  0  0  0  0  0  0
   -3.3315   -0.0301   -0.1253 C   0  0  0  0  0  0  0  0  0  0  0  0
    2.1078    2.6541    0.7984 C   0  0  0  0  0  0  0  0  0  0  0  0
    0.8076   -2.7227    1.1887 C   0  0  0  0  0  0  0  0  0  0  0  0
    1.8949   -3.1142   -0.9328 C   0  0  0  0  0  0  0  0  0  0  0  0
    1.2720   -3.6061    0.2142 C   0  0  0  0  0  0  0  0  0  0  0  0
    2.2997    3.2688    2.1685 C   0  0  0  0  0  0  0  0  0  0  0  0
   -4.8740   -1.4905    0.8802 C   0  0  0  0  0  0  0  0  0  0  0  0
  1  5  1  0
  1 13  1  0
  2 12  1  0
  2 18  1  0
  3  7  2  0
  3  8  1  0
  4  7  1  0
  5  6  1  0
  5  7  1  0
  6 10  2  0
  6 11  1  0
  8  9  1  0
  9 12  1  0
 10 14  1  0
 11 15  2  0
 13 17  1  0
 14 16  2  0
 15 16  1  0
M  END
>  <PUBCHEM_COMPOUND_CID>  (1) 
47191

>  <PUBCHEM_CONFORMER_RMSD>  (1) 
0.8

>  <PUBCHEM_CONFORMER_DIVERSEORDER>  (1) 
1
207
218
74
198
178
269
59
268
254
243
117
261
171
163
118
122
172
244
90
189
35
206
229
232
204
50
67
14
225
282
93
234
63
160
135
141
235
45
132
260
92
190
212
274
280
205
66
37
56
47
153
150
95
126
142
162
17
195
34
13
88
257
22
281
211
272
139
230
220
170
192
155
187
186
43
76
154
262
21
53
267
215
221
24
196
51
168
157
222
123
184
241
68
228
70
247
125
203
65
30
202
80
167
9
48
55
145
250
271
83
240
216
134
60
4
199
242
2
265
279
20
276
107
144
209
226
98
111
16
182
86
136
194
140
109
158
148
44
179
87
89
52
278
239
12
85
69
176
54
238
175
27
177
217
113
256
152
270
40
33
201
188
233
116
73
151
255
38
133
108
19
49
32
164
181
94
248
173
79
165
57
143
62
29
156
100
26
28
224
200
31
223
97
259
236
36
127
277
11
183
246
129
161
249
41
166
210
112
114
15
91
147
245
124
8
130
82
266
104
264
159
193
71
7
99
6
110
39
180
81
146
25
101
105
237
23
64
77
42
78
96
137
119
5
61
231
10
191
263
121
102
252
197
18
131
169
58
214
273
213
120
128
46
258
149
251
72
174
103
185
75
275
3
106
253
208
219
227
84
115
138

>  <PUBCHEM_MMFF94_PARTIAL_CHARGES>  (1) 
23
1 -0.56
10 -0.15
11 -0.15
12 0.28
13 0.28
14 -0.15
15 -0.15
16 -0.15
18 0.28
2 -0.56
24 0.15
25 0.15
3 -0.7
30 0.15
31 0.15
32 0.4
33 0.4
34 0.15
4 -0.85
5 0.48
6 -0.14
7 0.44
8 0.25

>  <PUBCHEM_EFFECTIVE_ROTOR_COUNT>  (1) 
8

>  <PUBCHEM_PHARMACOPHORE_FEATURES>  (1) 
5
1 1 acceptor
1 2 acceptor
1 4 donor
3 3 4 7 cation
6 6 10 11 14 15 16 rings

>  <PUBCHEM_HEAVY_ATOM_COUNT>  (1) 
18

>  <PUBCHEM_ATOM_DEF_STEREO_COUNT>  (1) 
0

>  <PUBCHEM_ATOM_UDEF_STEREO_COUNT>  (1) 
1

>  <PUBCHEM_BOND_DEF_STEREO_COUNT>  (1) 
0

>  <PUBCHEM_BOND_UDEF_STEREO_COUNT>  (1) 
0

>  <PUBCHEM_ISOTOPIC_ATOM_COUNT>  (1) 
0

>  <PUBCHEM_COMPONENT_COUNT>  (1) 
1

>  <PUBCHEM_CACTVS_TAUTO_COUNT>  (1) 
2

>  <PUBCHEM_CONFORMER_ID>  (1) 
0000B85700000001

>  <PUBCHEM_MMFF94_ENERGY>  (1) 
42.9902

>  <PUBCHEM_FEATURE_SELFOVERLAP>  (1) 
25.372

>  <PUBCHEM_SHAPE_FINGERPRINT>  (1) 
114674 6 18333454244460331403
12035758 1 18341320185305275266
12506688 2 17977380542866640334
12596602 18 17415865706615008131
12788726 201 16975324003865136880
13533116 47 18341054026393223929
13583140 156 18272649035452333013
14004458 79 10961709245080625232
14178342 30 18114452397406015709
14863182 85 18190189068961005639
15142526 21 17485922253382117345
19734167 9 17835541670683887163
20645477 70 18340190917938402645
21202864 24 17833258006334298048
21731228 192 18053362564724618920
23557571 272 17475498487934687554
238078 22 17689726263864137934
427121 178 18126286578030232609
6442390 28 18054509385174248753
7364860 26 18341890757950017949
81228 2 16471467281704574376

>  <PUBCHEM_SHAPE_MULTIPOLES>  (1) 
348.73
6.01
4.55
1.67
12.02
1.01
-0.01
1.25
1.73
-4.22
1.39
-0.75
-1.02
2.05

>  <PUBCHEM_SHAPE_SELFOVERLAP>  (1) 
694.146

>  <PUBCHEM_SHAPE_VOLUME>  (1) 
205.8

>  <PUBCHEM_COORDINATE_TYPE>  (1) 
2
5
10

$$$$
