47194
     RDKit          3D

 16 16  0  0  1  0  0  0  0  0999 V2000
   -0.4993   -1.9276    0.5540 O   0  0  0  0  0  0  0  0  0  0  0  0
   -1.3881    0.7737   -0.1187 N   0  0  0  0  0  0  0  0  0  0  0  0
   -1.5870   -0.3081   -2.2553 N   0  0  0  0  0  0  0  0  0  0  0  0
   -0.0363   -1.1743   -0.5558 C   0  0  0  0  0  0  0  0  0  0  0  0
    1.2754   -0.5011   -0.2186 C   0  0  0  0  0  0  0  0  0  0  0  0
   -1.0899   -0.1442   -0.9812 C   0  0  0  0  0  0  0  0  0  0  0  0
   -2.3782    1.7633   -0.5215 C   0  0  0  0  0  0  0  0  0  0  0  0
    2.2154   -0.3128   -1.2176 C   0  0  0  0  0  0  0  0  0  0  0  0
    1.5088   -0.0868    1.0818 C   0  0  0  0  0  0  0  0  0  0  0  0
   -2.6019    2.7605    0.6084 C   0  0  0  0  0  0  0  0  0  0  0  0
   -1.7334   -2.5748    0.2699 C   0  0  0  0  0  0  0  0  0  0  0  0
    3.4252    0.3082   -0.9069 C   0  0  0  0  0  0  0  0  0  0  0  0
    2.7185    0.5344    1.3923 C   0  0  0  0  0  0  0  0  0  0  0  0
   -1.3345    3.5159    0.9823 C   0  0  0  0  0  0  0  0  0  0  0  0
    3.6766    0.7318    0.3980 C   0  0  0  0  0  0  0  0  0  0  0  0
   -2.1713   -3.3582    1.4889 C   0  0  0  0  0  0  0  0  0  0  0  0
  1  4  1  0
  1 11  1  0
  2  6  2  0
  2  7  1  0
  3  6  1  0
  4  5  1  0
  4  6  1  0
  5  8  2  0
  5  9  1  0
  7 10  1  0
  8 12  1  0
  9 13  2  0
 10 14  1  0
 11 16  1  0
 12 15  2  0
 13 15  1  0
M  END
>  <PUBCHEM_COMPOUND_CID>  (1) 
47194

>  <PUBCHEM_CONFORMER_RMSD>  (1) 
0.8

>  <PUBCHEM_CONFORMER_DIVERSEORDER>  (1) 
1
56
17
21
52
48
40
53
24
2
38
19
12
58
36
57
9
37
54
34
45
50
46
14
42
55
32
18
5
41
16
51
27
22
31
6
33
43
3
29
26
35
47
23
20
28
15
30
39
11
49
7
13
25
44
8
10
4

>  <PUBCHEM_MMFF94_PARTIAL_CHARGES>  (1) 
20
1 -0.56
11 0.28
12 -0.15
13 -0.15
15 -0.15
2 -0.7
20 0.15
21 0.15
26 0.15
27 0.15
28 0.4
29 0.4
3 -0.85
33 0.15
4 0.48
5 -0.14
6 0.44
7 0.25
8 -0.15
9 -0.15

>  <PUBCHEM_EFFECTIVE_ROTOR_COUNT>  (1) 
6

>  <PUBCHEM_PHARMACOPHORE_FEATURES>  (1) 
5
1 1 acceptor
1 14 hydrophobe
1 3 donor
3 2 3 6 cation
6 5 8 9 12 13 15 rings

>  <PUBCHEM_HEAVY_ATOM_COUNT>  (1) 
16

>  <PUBCHEM_ATOM_DEF_STEREO_COUNT>  (1) 
0

>  <PUBCHEM_ATOM_UDEF_STEREO_COUNT>  (1) 
1

>  <PUBCHEM_BOND_DEF_STEREO_COUNT>  (1) 
0

>  <PUBCHEM_BOND_UDEF_STEREO_COUNT>  (1) 
0

>  <PUBCHEM_ISOTOPIC_ATOM_COUNT>  (1) 
0

>  <PUBCHEM_COMPONENT_COUNT>  (1) 
1

>  <PUBCHEM_CACTVS_TAUTO_COUNT>  (1) 
2

>  <PUBCHEM_CONFORMER_ID>  (1) 
0000B85A00000001

>  <PUBCHEM_MMFF94_ENERGY>  (1) 
34.6037

>  <PUBCHEM_FEATURE_SELFOVERLAP>  (1) 
25.371

>  <PUBCHEM_SHAPE_FINGERPRINT>  (1) 
10498660 4 17985255288316809477
12532896 13 18269552745571375520
13275264 69 18189617331193514075
13764800 53 18409729573132594881
14787075 74 18339066190673773605
14817 1 14648860135214187239
15775835 57 17914051997411858436
16945 1 18334297612253241950
17357990 137 18188772730565491244
17844478 74 18128827532517520058
19837323 101 18341889688577150774
201361 129 17619078230737294889
20510252 161 18044089279434698698
21524375 3 17983291530415518397
22802520 49 18131359591969042052
23419403 2 17325458482594083455
23557571 272 18265337403206709188
25 1 17842565045834961388
25610 171 18196915872261871802
298252 57 17272561729537091863
305870 269 17976250240655190592
4175511 376 11019820641920751979
430814 3 18192436259816054157
57672749 33 17257100792227749739
5845 1 8453792263585741043
6442390 28 18195551211155229081
7097593 13 16825027331901649833
81228 2 18335426811011459339
9981440 41 17914585407123134666

>  <PUBCHEM_SHAPE_MULTIPOLES>  (1) 
313.44
5.07
3.68
1.58
3.91
0.27
-0.31
1.7
0.36
-5.3
2.11
-0.11
-0.29
0.55

>  <PUBCHEM_SHAPE_SELFOVERLAP>  (1) 
627.079

>  <PUBCHEM_SHAPE_VOLUME>  (1) 
184

>  <PUBCHEM_COORDINATE_TYPE>  (1) 
2
5
10

$$$$
