47193
     RDKit          3D

 13 13  0  0  1  0  0  0  0  0999 V2000
    1.4541    0.9683   -0.2503 O   0  0  0  0  0  0  0  0  0  0  0  0
    1.8380   -2.4107   -0.2492 N   0  0  0  0  0  0  0  0  0  0  0  0
    1.1042   -1.2364    1.6589 N   0  0  0  0  0  0  0  0  0  0  0  0
    0.6915   -0.2109   -0.4992 C   0  0  0  0  0  0  0  0  0  0  0  0
   -0.7638    0.0251   -0.2740 C   0  0  0  0  0  0  0  0  0  0  0  0
    1.2278   -1.3511    0.3713 C   0  0  0  0  0  0  0  0  0  0  0  0
   -1.7079   -0.6559   -1.0426 C   0  0  0  0  0  0  0  0  0  0  0  0
   -1.1811    0.9267    0.7053 C   0  0  0  0  0  0  0  0  0  0  0  0
    2.8390    0.7432   -0.4647 C   0  0  0  0  0  0  0  0  0  0  0  0
   -3.0690   -0.4355   -0.8321 C   0  0  0  0  0  0  0  0  0  0  0  0
   -2.5423    1.1469    0.9159 C   0  0  0  0  0  0  0  0  0  0  0  0
   -3.4862    0.4658    0.1471 C   0  0  0  0  0  0  0  0  0  0  0  0
    3.5957    2.0245   -0.1864 C   0  0  0  0  0  0  0  0  0  0  0  0
  1  4  1  0
  1  9  1  0
  2  6  1  0
  3  6  2  0
  4  5  1  0
  4  6  1  0
  5  7  2  0
  5  8  1  0
  7 10  1  0
  8 11  2  0
  9 13  1  0
 10 12  2  0
 11 12  1  0
M  END
>  <PUBCHEM_COMPOUND_CID>  (1) 
47193

>  <PUBCHEM_CONFORMER_RMSD>  (1) 
0.6

>  <PUBCHEM_CONFORMER_DIVERSEORDER>  (1) 
1
10
6
12
18
15
3
16
19
11
9
17
5
14
4
13
8
7
2

>  <PUBCHEM_MMFF94_PARTIAL_CHARGES>  (1) 
20
1 -0.56
10 -0.15
11 -0.15
12 -0.15
15 0.15
16 0.15
19 0.15
2 -0.85
20 0.15
21 0.15
25 0.4
26 0.4
27 0.4
3 -0.85
4 0.48
5 -0.14
6 0.44
7 -0.15
8 -0.15
9 0.28

>  <PUBCHEM_EFFECTIVE_ROTOR_COUNT>  (1) 
4

>  <PUBCHEM_PHARMACOPHORE_FEATURES>  (1) 
5
1 1 acceptor
1 2 donor
1 3 donor
3 2 3 6 cation
6 5 7 8 10 11 12 rings

>  <PUBCHEM_HEAVY_ATOM_COUNT>  (1) 
13

>  <PUBCHEM_ATOM_DEF_STEREO_COUNT>  (1) 
0

>  <PUBCHEM_ATOM_UDEF_STEREO_COUNT>  (1) 
1

>  <PUBCHEM_BOND_DEF_STEREO_COUNT>  (1) 
0

>  <PUBCHEM_BOND_UDEF_STEREO_COUNT>  (1) 
0

>  <PUBCHEM_ISOTOPIC_ATOM_COUNT>  (1) 
0

>  <PUBCHEM_COMPONENT_COUNT>  (1) 
1

>  <PUBCHEM_CACTVS_TAUTO_COUNT>  (1) 
1

>  <PUBCHEM_CONFORMER_ID>  (1) 
0000B85900000001

>  <PUBCHEM_MMFF94_ENERGY>  (1) 
33.5077

>  <PUBCHEM_FEATURE_SELFOVERLAP>  (1) 
25.41

>  <PUBCHEM_SHAPE_FINGERPRINT>  (1) 
10219947 1 17530679944069193052
12326174 3 17968371243605045738
12346645 44 18412263973341832284
12932764 1 17604433968795502751
13538477 17 18131060533354082135
15219456 202 16732972103138516109
15279307 12 18343581845673301439
15669948 3 17632570561565579845
15775835 57 18342463650768982445
15852999 172 15574703695150477011
16945 1 18201707501154844993
170605 34 18408889546407314004
18186145 218 18410015476716843500
201361 129 18340494382630872432
20279233 1 16443063889913213323
204376 136 17895759637620032892
20645464 45 16081084887941016501
20645477 70 18262510399977353407
20711985 344 12893699561944992242
21499 59 18263363745142998580
21524375 3 18262516026226086444
228727 97 18059580234080698225
23236772 104 18341617057191290585
23552423 10 18270396071269604143
474 4 18335989773865899284
5084963 1 17843398488697137307
528862 383 18261390027007364971
7364860 26 18270964540255799430
77492 1 18343578521352322053
8030462 33 17988912371532766743
81228 2 17177438954571482602

>  <PUBCHEM_SHAPE_MULTIPOLES>  (1) 
251.7
5.57
1.88
1.09
0.21
0.5
-0.25
-2.51
0.68
1.72
-0.19
-0.19
0.2
-0.87

>  <PUBCHEM_SHAPE_SELFOVERLAP>  (1) 
512.252

>  <PUBCHEM_SHAPE_VOLUME>  (1) 
145.9

>  <PUBCHEM_COORDINATE_TYPE>  (1) 
2
5
10

$$$$
