47192
     RDKit          3D

 21 22  0  0  1  0  0  0  0  0999 V2000
    2.8560    0.4136    0.8252 O   0  0  0  0  0  0  0  0  0  0  0  0
    0.3703    1.3907   -0.3536 N   0  0  0  0  0  0  0  0  0  0  0  0
    1.8884    1.6386   -2.2000 N   0  0  0  0  0  0  0  0  0  0  0  0
    2.3354   -0.0044   -0.4268 C   0  0  0  0  0  0  0  0  0  0  0  0
    1.5783   -1.3045   -0.2711 C   0  0  0  0  0  0  0  0  0  0  0  0
    1.4373    1.0878   -1.0209 C   0  0  0  0  0  0  0  0  0  0  0  0
   -1.6886    2.6567    0.0002 C   0  0  0  0  0  0  0  0  0  0  0  0
   -0.4801    2.4367   -0.9054 C   0  0  0  0  0  0  0  0  0  0  0  0
   -2.5240    1.4130    0.1799 C   0  0  0  0  0  0  0  0  0  0  0  0
    0.9039   -1.5574    0.9114 C   0  0  0  0  0  0  0  0  0  0  0  0
    1.5757   -2.2149   -1.3141 C   0  0  0  0  0  0  0  0  0  0  0  0
    3.5747    1.6355    0.7124 C   0  0  0  0  0  0  0  0  0  0  0  0
   -3.5649    1.1598   -0.7000 C   0  0  0  0  0  0  0  0  0  0  0  0
   -2.2362    0.5452    1.2219 C   0  0  0  0  0  0  0  0  0  0  0  0
    0.2062   -2.7566    1.0552 C   0  0  0  0  0  0  0  0  0  0  0  0
    0.8778   -3.4141   -1.1705 C   0  0  0  0  0  0  0  0  0  0  0  0
    0.1930   -3.6849    0.0143 C   0  0  0  0  0  0  0  0  0  0  0  0
    4.1020    2.0250    2.0769 C   0  0  0  0  0  0  0  0  0  0  0  0
   -4.3374    0.0102   -0.5336 C   0  0  0  0  0  0  0  0  0  0  0  0
   -3.0086   -0.6043    1.3883 C   0  0  0  0  0  0  0  0  0  0  0  0
   -4.0592   -0.8718    0.5105 C   0  0  0  0  0  0  0  0  0  0  0  0
  1  4  1  0
  1 12  1  0
  2  6  2  0
  2  8  1  0
  3  6  1  0
  4  5  1  0
  4  6  1  0
  5 10  2  0
  5 11  1  0
  7  8  1  0
  7  9  1  0
  9 13  2  0
  9 14  1  0
 10 15  1  0
 11 16  2  0
 12 18  1  0
 13 19  1  0
 14 20  2  0
 15 17  2  0
 16 17  1  0
 19 21  2  0
 20 21  1  0
M  END
>  <PUBCHEM_COMPOUND_CID>  (1) 
47192

>  <PUBCHEM_CONFORMER_RMSD>  (1) 
0.8

>  <PUBCHEM_CONFORMER_DIVERSEORDER>  (1) 
1
52
143
159
50
156
49
97
100
96
155
170
57
45
18
68
84
117
149
115
91
67
83
107
73
87
32
14
98
61
153
150
48
29
34
99
136
163
167
10
82
25
131
92
161
28
125
110
140
108
145
146
72
121
114
26
19
166
7
23
81
9
116
109
104
47
80
124
171
169
76
60
120
119
65
93
101
40
33
151
118
46
36
56
79
69
103
16
127
39
122
172
139
62
128
42
75
21
38
6
106
130
132
37
152
160
86
164
123
11
27
59
17
63
70
53
111
41
113
102
137
44
5
133
112
129
147
13
66
162
22
138
165
54
74
157
2
141
85
43
95
24
144
55
77
3
58
168
88
15
4
158
94
148
78
64
8
105
89
126
51
90
154
142
12
134
20
35
135
71
31
30

>  <PUBCHEM_MMFF94_PARTIAL_CHARGES>  (1) 
32
1 -0.56
10 -0.15
11 -0.15
12 0.28
13 -0.15
14 -0.15
15 -0.15
16 -0.15
17 -0.15
19 -0.15
2 -0.7
20 -0.15
21 -0.15
27 0.15
28 0.15
3 -0.85
31 0.15
32 0.15
33 0.15
34 0.15
35 0.4
36 0.4
37 0.15
4 0.48
41 0.15
42 0.15
43 0.15
5 -0.14
6 0.44
7 0.14
8 0.25
9 -0.14

>  <PUBCHEM_EFFECTIVE_ROTOR_COUNT>  (1) 
7

>  <PUBCHEM_PHARMACOPHORE_FEATURES>  (1) 
5
1 1 acceptor
1 3 donor
3 2 3 6 cation
6 5 10 11 15 16 17 rings
6 9 13 14 19 20 21 rings

>  <PUBCHEM_HEAVY_ATOM_COUNT>  (1) 
21

>  <PUBCHEM_ATOM_DEF_STEREO_COUNT>  (1) 
0

>  <PUBCHEM_ATOM_UDEF_STEREO_COUNT>  (1) 
1

>  <PUBCHEM_BOND_DEF_STEREO_COUNT>  (1) 
0

>  <PUBCHEM_BOND_UDEF_STEREO_COUNT>  (1) 
0

>  <PUBCHEM_ISOTOPIC_ATOM_COUNT>  (1) 
0

>  <PUBCHEM_COMPONENT_COUNT>  (1) 
1

>  <PUBCHEM_CACTVS_TAUTO_COUNT>  (1) 
2

>  <PUBCHEM_CONFORMER_ID>  (1) 
0000B85800000001

>  <PUBCHEM_MMFF94_ENERGY>  (1) 
54.2666

>  <PUBCHEM_FEATURE_SELFOVERLAP>  (1) 
25.372

>  <PUBCHEM_SHAPE_FINGERPRINT>  (1) 
10074138 170 17764553867379738626
10759866 29 17097507637291857604
10871710 139 16822784937597259852
11370993 70 18340479049576494457
12054548 360 17617673050519031926
12553582 1 17613169472555947015
12596602 18 17203065057859487163
13032168 30 17772739701098740607
13533116 47 18055073160532115125
13544592 271 18334295392303542547
14081887 123 16749854829585503658
14178342 30 18337116670147262321
14223421 5 18267302028173890461
14251745 187 18044677303296391854
14787075 74 17558819822373576865
14863182 85 18408895048244511823
15338160 23 17477739739599234760
15475509 84 17250331073218705490
15635459 17 18263933155006742791
17492 54 17756155840421694151
17980427 26 15765326099536883782
19734167 9 17984445171373714802
21202864 24 18197207273325105280
21285901 2 17749665174417481501
23559900 14 18190744137264713309
238 59 18189331454450285831
2748010 2 18190483647556135571
463206 1 18339920541405500687
484985 159 14567820313040979592
5262128 65 18119262661971883623
6438718 38 17698732732689543758
7226269 152 15309006023020438652
9709674 26 18193837038078149237

>  <PUBCHEM_SHAPE_MULTIPOLES>  (1) 
416.34
6.73
4.12
1.63
3.59
3.02
0.03
-3.38
1.93
-2
-0.45
-1.02
-0.36
1.43

>  <PUBCHEM_SHAPE_SELFOVERLAP>  (1) 
868.407

>  <PUBCHEM_SHAPE_VOLUME>  (1) 
234.3

>  <PUBCHEM_COORDINATE_TYPE>  (1) 
2
5
10

$$$$
