47219
     RDKit          3D

 18 18  0  0  0  0  0  0  0  0999 V2000
    2.8606   -1.0880   -0.0531 O   0  0  0  0  0  0  0  0  0  0  0  0
    3.3576    1.1798    0.0731 O   0  0  0  0  0  0  0  0  0  0  0  0
   -2.5480    0.2045   -0.0030 N   0  0  0  0  0  0  0  0  0  0  0  0
    5.0503   -0.4046   -0.0068 N   0  0  0  0  0  0  0  0  0  0  0  0
   -1.1763   -0.1227   -0.0154 C   0  0  0  0  0  0  0  0  0  0  0  0
   -3.5106   -0.6419   -0.6798 C   0  0  0  0  0  0  0  0  0  0  0  0
   -3.0150    1.3837    0.6986 C   0  0  0  0  0  0  0  0  0  0  0  0
   -0.4929   -0.2175   -1.2277 C   0  0  0  0  0  0  0  0  0  0  0  0
   -0.5029   -0.3520    1.1844 C   0  0  0  0  0  0  0  0  0  0  0  0
    0.8638   -0.5417   -1.2401 C   0  0  0  0  0  0  0  0  0  0  0  0
    0.8537   -0.6763    1.1720 C   0  0  0  0  0  0  0  0  0  0  0  0
    1.5370   -0.7713   -0.0403 C   0  0  0  0  0  0  0  0  0  0  0  0
   -4.0017   -1.6803    0.2730 C   0  0  0  0  0  0  0  0  0  0  0  0
   -2.9986    2.5464   -0.2372 C   0  0  0  0  0  0  0  0  0  0  0  0
   -3.8886   -2.9970    0.0644 C   0  0  0  0  0  0  0  0  0  0  0  0
   -2.3003    3.6670   -0.0217 C   0  0  0  0  0  0  0  0  0  0  0  0
    3.7357    0.0137    0.0117 C   0  0  0  0  0  0  0  0  0  0  0  0
    6.1764    0.4983    0.0478 C   0  0  0  0  0  0  0  0  0  0  0  0
  1 12  1  0
  1 17  1  0
  2 17  2  0
  3  5  1  0
  3  6  1  0
  3  7  1  0
  4 17  1  0
  4 18  1  0
  5  8  2  0
  5  9  1  0
  6 13  1  0
  7 14  1  0
  8 10  1  0
  9 11  2  0
 10 12  2  0
 11 12  1  0
 13 15  2  0
 14 16  2  0
M  END
>  <PUBCHEM_COMPOUND_CID>  (1) 
47219

>  <PUBCHEM_CONFORMER_RMSD>  (1) 
0.8

>  <PUBCHEM_CONFORMER_DIVERSEORDER>  (1) 
1
21
32
30
33
26
7
17
28
19
13
18
6
25
24
36
27
20
16
4
37
22
12
31
34
10
35
8
23
14
15
5
2
3
9
11
29

>  <PUBCHEM_MMFF94_PARTIAL_CHARGES>  (1) 
29
1 -0.23
10 -0.15
11 -0.15
12 0.08
13 -0.29
14 -0.29
15 -0.3
16 -0.3
17 0.78
18 0.3
2 -0.57
23 0.15
24 0.15
25 0.15
26 0.15
27 0.15
28 0.15
29 0.15
3 -0.84
30 0.15
31 0.15
32 0.15
33 0.37
4 -0.73
5 0.1
6 0.51
7 0.51
8 -0.15
9 -0.15

>  <PUBCHEM_EFFECTIVE_ROTOR_COUNT>  (1) 
8

>  <PUBCHEM_PHARMACOPHORE_FEATURES>  (1) 
6
1 15 hydrophobe
1 16 hydrophobe
1 2 acceptor
1 3 cation
1 4 donor
6 5 8 9 10 11 12 rings

>  <PUBCHEM_HEAVY_ATOM_COUNT>  (1) 
18

>  <PUBCHEM_ATOM_DEF_STEREO_COUNT>  (1) 
0

>  <PUBCHEM_ATOM_UDEF_STEREO_COUNT>  (1) 
0

>  <PUBCHEM_BOND_DEF_STEREO_COUNT>  (1) 
0

>  <PUBCHEM_BOND_UDEF_STEREO_COUNT>  (1) 
0

>  <PUBCHEM_ISOTOPIC_ATOM_COUNT>  (1) 
0

>  <PUBCHEM_COMPONENT_COUNT>  (1) 
1

>  <PUBCHEM_CACTVS_TAUTO_COUNT>  (1) 
2

>  <PUBCHEM_CONFORMER_ID>  (1) 
0000B87300000001

>  <PUBCHEM_MMFF94_ENERGY>  (1) 
56.5131

>  <PUBCHEM_FEATURE_SELFOVERLAP>  (1) 
30.446

>  <PUBCHEM_SHAPE_FINGERPRINT>  (1) 
10912923 1 17967529065475364738
12107183 9 17758388579075366762
12403814 3 17917428761271984599
13583140 156 17988350499489795790
14289901 80 18407760326374876306
14787075 74 17826512459473696841
15209294 21 17895759469947561708
16945 1 15864362306668078255
17349148 13 17385725845600850402
200 152 17822006553560132411
20645477 56 18268154162939635753
20645477 70 16629686107061099278
21339142 149 18113627767916321731
21426921 1 18410855451960278857
23402539 116 18334572477449402807
23419403 2 16883312941527257449
23493267 7 18129941161591950603
23557571 272 18273218569083859557
23559900 14 18338227266852929555
3286 77 18335136552974269756
5104073 3 18343016649926640994
81228 2 18343306942866426331

>  <PUBCHEM_SHAPE_MULTIPOLES>  (1) 
348.73
10.19
2.83
1
14.93
2.16
-0.03
-0.84
0.18
-5.3
0.05
-0.14
-0.13
0.03

>  <PUBCHEM_SHAPE_SELFOVERLAP>  (1) 
704.378

>  <PUBCHEM_SHAPE_VOLUME>  (1) 
202.4

>  <PUBCHEM_COORDINATE_TYPE>  (1) 
2
5
10

$$$$
