47211
     RDKit          3D

 19 19  0  0  1  0  0  0  0  0999 V2000
   -1.3735    1.0996    0.4001 O   0  0  0  0  0  0  0  0  0  0  0  0
    1.0356   -1.1212   -0.7415 O   0  0  0  0  0  0  0  0  0  0  0  0
   -2.3594   -1.5164    0.4950 O   0  0  0  0  0  0  0  0  0  0  0  0
   -4.0322   -1.4102   -1.0830 O   0  0  0  0  0  0  0  0  0  0  0  0
   -4.4620   -1.0522    1.1472 N   0  0  0  0  0  0  0  0  0  0  0  0
   -1.3448   -1.1601   -0.4468 C   0  0  0  0  0  0  0  0  0  0  0  0
   -1.4890    0.3192   -0.7853 C   0  0  0  0  0  0  0  0  0  0  0  0
    0.0085   -1.4574    0.1854 C   0  0  0  0  0  0  0  0  0  0  0  0
   -1.4590    2.4888    0.1175 C   0  0  0  0  0  0  0  0  0  0  0  0
   -1.2644    3.2747    1.4053 C   0  0  0  0  0  0  0  0  0  0  0  0
   -2.8026    2.7862   -0.5304 C   0  0  0  0  0  0  0  0  0  0  0  0
    2.2253   -0.6947   -0.2144 C   0  0  0  0  0  0  0  0  0  0  0  0
    3.0266    0.2021   -0.9139 C   0  0  0  0  0  0  0  0  0  0  0  0
    2.6213   -1.1724    1.0312 C   0  0  0  0  0  0  0  0  0  0  0  0
    4.2360    0.6255   -0.3626 C   0  0  0  0  0  0  0  0  0  0  0  0
    2.6119    0.7222   -2.2505 C   0  0  0  0  0  0  0  0  0  0  0  0
    3.8307   -0.7491    1.5824 C   0  0  0  0  0  0  0  0  0  0  0  0
   -3.6471   -1.3344    0.0788 C   0  0  0  0  0  0  0  0  0  0  0  0
    4.6381    0.1499    0.8855 C   0  0  0  0  0  0  0  0  0  0  0  0
  1  7  1  0
  1  9  1  0
  2  8  1  0
  2 12  1  0
  3  6  1  0
  3 18  1  0
  4 18  2  0
  5 18  1  0
  6  7  1  0
  6  8  1  0
  9 10  1  0
  9 11  1  0
 12 13  2  0
 12 14  1  0
 13 15  1  0
 13 16  1  0
 14 17  2  0
 15 19  2  0
 17 19  1  0
M  END
>  <PUBCHEM_COMPOUND_CID>  (1) 
47211

>  <PUBCHEM_CONFORMER_RMSD>  (1) 
1

>  <PUBCHEM_CONFORMER_DIVERSEORDER>  (1) 
3
98
146
349
516
486
440
455
18
271
5
495
348
7
134
109
228
36
506
152
419
41
444
138
275
242
63
84
356
139
515
520
357
324
157
65
375
111
54
362
82
163
130
128
456
400
256
338
14
50
137
412
115
58
110
133
155
340
37
55
71
125
28
59
85
222
208
47
490
25
21
187
49
319
188
158
237
39
350
70
116
195
9
29
322
209
153
10
143
30
278
45
11
144
94
298
15
310
2
290
239
313
303
66
100
148
4
299
1
16
22
476
19
438

>  <PUBCHEM_MMFF94_PARTIAL_CHARGES>  (1) 
23
1 -0.56
12 0.08
13 -0.14
14 -0.15
15 -0.15
16 0.14
17 -0.15
18 0.78
19 -0.15
2 -0.36
3 -0.43
32 0.15
33 0.15
37 0.15
38 0.15
39 0.37
4 -0.57
40 0.37
5 -0.8
6 0.28
7 0.28
8 0.28
9 0.28

>  <PUBCHEM_EFFECTIVE_ROTOR_COUNT>  (1) 
8

>  <PUBCHEM_PHARMACOPHORE_FEATURES>  (1) 
6
1 1 acceptor
1 2 acceptor
1 4 acceptor
1 5 donor
3 9 10 11 hydrophobe
6 12 13 14 15 17 19 rings

>  <PUBCHEM_HEAVY_ATOM_COUNT>  (1) 
19

>  <PUBCHEM_ATOM_DEF_STEREO_COUNT>  (1) 
0

>  <PUBCHEM_ATOM_UDEF_STEREO_COUNT>  (1) 
1

>  <PUBCHEM_BOND_DEF_STEREO_COUNT>  (1) 
0

>  <PUBCHEM_BOND_UDEF_STEREO_COUNT>  (1) 
0

>  <PUBCHEM_ISOTOPIC_ATOM_COUNT>  (1) 
0

>  <PUBCHEM_COMPONENT_COUNT>  (1) 
1

>  <PUBCHEM_CACTVS_TAUTO_COUNT>  (1) 
2

>  <PUBCHEM_CONFORMER_ID>  (1) 
0000B86B00000003

>  <PUBCHEM_MMFF94_ENERGY>  (1) 
56.6195

>  <PUBCHEM_FEATURE_SELFOVERLAP>  (1) 
30.447

>  <PUBCHEM_SHAPE_FINGERPRINT>  (1) 
10498660 4 18343302526817619816
12553582 1 18341058518227480103
12788726 201 18336559273570223729
12892183 10 18265594556005428994
13009979 54 18189050911481205490
13583140 156 16986559054786972466
13764800 53 18271807852457131257
13899415 154 18196108831085851771
13965767 371 17754452348891414812
14178342 30 18116989992811899954
14787075 74 17751366303072539339
16752209 62 18410014329459272534
17492 89 18261389992722324554
18186145 218 16128649756890446910
18981168 100 17986127209616020548
192875 21 18040712597536751260
200 152 17968088763379361711
20510252 161 18412263917401619563
20600515 1 17916033540908703339
20715895 44 17825373103920126565
21486144 27 16056880260299625870
22182937 141 17987522502567257896
23402539 116 18341320180161494734
23557571 272 18272375252181073342
23558518 356 18116441349268168555
23559900 14 18127689323445429918
23598288 3 18340193112255643183
26918003 58 17458619055575331043
312423 11 17968670332448417430
350125 39 18126019168997796926
5374978 207 18334856147080522746
537710 114 18188496894543002935
6049 1 17417542306521115892
6913067 236 17559935736375889870
7097593 13 17753322072265101082
7164475 11 18336827498361894598
7615 1 17967541142438188892
81228 2 18267324065993717795

>  <PUBCHEM_SHAPE_MULTIPOLES>  (1) 
362.55
8.72
2.8
1.5
1.91
2.59
-0.25
-1.63
1.24
-3.67
0.7
0.99
0.32
-0.79

>  <PUBCHEM_SHAPE_SELFOVERLAP>  (1) 
732.059

>  <PUBCHEM_SHAPE_VOLUME>  (1) 
212.9

>  <PUBCHEM_COORDINATE_TYPE>  (1) 
2
5
10

$$$$
