47216
     RDKit          3D

 17 17  0  0  0  0  0  0  0  0999 V2000
    1.3067   -0.6211    0.8680 O   0  0  0  0  0  0  0  0  0  0  0  0
    1.6994   -1.2029   -1.3486 O   0  0  0  0  0  0  0  0  0  0  0  0
    1.3517    2.0953    0.1344 N   0  0  0  0  0  0  0  0  0  0  0  0
   -3.4160   -0.8619    0.0030 N   0  0  0  0  0  0  0  0  0  0  0  0
    3.1852   -1.8173    0.3238 N   0  0  0  0  0  0  0  0  0  0  0  0
    0.1577    1.3422    0.1054 C   0  0  0  0  0  0  0  0  0  0  0  0
   -2.2159   -0.1219    0.0377 C   0  0  0  0  0  0  0  0  0  0  0  0
    0.1576   -0.0034    0.4730 C   0  0  0  0  0  0  0  0  0  0  0  0
   -1.0293   -0.7355    0.4392 C   0  0  0  0  0  0  0  0  0  0  0  0
   -1.0289    1.9558   -0.2960 C   0  0  0  0  0  0  0  0  0  0  0  0
   -2.2157    1.2237   -0.3298 C   0  0  0  0  0  0  0  0  0  0  0  0
    1.8605    2.7086   -1.0753 C   0  0  0  0  0  0  0  0  0  0  0  0
    2.0742    2.2748    1.3772 C   0  0  0  0  0  0  0  0  0  0  0  0
   -4.4549   -0.5311   -0.9518 C   0  0  0  0  0  0  0  0  0  0  0  0
   -3.6204   -1.9719    0.9124 C   0  0  0  0  0  0  0  0  0  0  0  0
    2.0441   -1.2198   -0.1706 C   0  0  0  0  0  0  0  0  0  0  0  0
    4.1441   -2.5136   -0.5021 C   0  0  0  0  0  0  0  0  0  0  0  0
  1  8  1  0
  1 16  1  0
  2 16  2  0
  3  6  1  0
  3 12  1  0
  3 13  1  0
  4  7  1  0
  4 14  1  0
  4 15  1  0
  5 16  1  0
  5 17  1  0
  6  8  2  0
  6 10  1  0
  7  9  2  0
  7 11  1  0
  8  9  1  0
 10 11  2  0
M  END
>  <PUBCHEM_COMPOUND_CID>  (1) 
47216

>  <PUBCHEM_CONFORMER_RMSD>  (1) 
0.6

>  <PUBCHEM_CONFORMER_DIVERSEORDER>  (1) 
1
44
40
37
43
47
35
45
21
7
32
29
42
24
22
34
33
25
30
48
5
17
14
26
39
19
6
10
38
46
15
8
20
18
31
36
41
12
28
27
11
9
23
16
3
4
13
2

>  <PUBCHEM_MMFF94_PARTIAL_CHARGES>  (1) 
21
1 -0.23
10 -0.15
11 -0.15
12 0.37
13 0.37
14 0.37
15 0.37
16 0.78
17 0.3
18 0.15
19 0.15
2 -0.57
20 0.15
3 -0.84
33 0.37
4 -0.84
5 -0.73
6 0.1
7 0.1
8 0.08
9 -0.15

>  <PUBCHEM_EFFECTIVE_ROTOR_COUNT>  (1) 
5

>  <PUBCHEM_PHARMACOPHORE_FEATURES>  (1) 
5
1 2 acceptor
1 3 cation
1 4 cation
1 5 donor
6 6 7 8 9 10 11 rings

>  <PUBCHEM_HEAVY_ATOM_COUNT>  (1) 
17

>  <PUBCHEM_ATOM_DEF_STEREO_COUNT>  (1) 
0

>  <PUBCHEM_ATOM_UDEF_STEREO_COUNT>  (1) 
0

>  <PUBCHEM_BOND_DEF_STEREO_COUNT>  (1) 
0

>  <PUBCHEM_BOND_UDEF_STEREO_COUNT>  (1) 
0

>  <PUBCHEM_ISOTOPIC_ATOM_COUNT>  (1) 
0

>  <PUBCHEM_COMPONENT_COUNT>  (1) 
1

>  <PUBCHEM_CACTVS_TAUTO_COUNT>  (1) 
2

>  <PUBCHEM_CONFORMER_ID>  (1) 
0000B87000000001

>  <PUBCHEM_MMFF94_ENERGY>  (1) 
78.8315

>  <PUBCHEM_FEATURE_SELFOVERLAP>  (1) 
25.371

>  <PUBCHEM_SHAPE_FINGERPRINT>  (1) 
1 1 18125156284646184920
10756046 5 18334296439964794109
10989021 7 18411981347160665030
11578080 2 16879882215955831188
11680986 33 18410566288718120185
12138202 78 18409447024583118589
12553582 1 18262235495952537179
12839892 36 17836348720676954450
13140716 1 18341057328727280649
14252887 29 18190467262814966987
14790565 3 17545607747147156916
15219456 202 18263359351665481859
15502722 9 18264212589330454533
16945 1 18124032601095467393
18186145 218 17968084327453085351
20645476 183 16957602582371069428
20645477 70 18338225077068740911
20671657 53 18410293575495565039
20871998 22 18336267950523458819
20871999 31 18118399549359134445
21041028 32 18270976660838274873
21339142 51 18121216485217141174
21452121 199 18410568483520196480
21501502 16 18340778078290538217
21728266 224 17900529087418441442
221490 88 18334583485429528955
22182313 1 18263623148071914829
22213442 358 18340205189713871398
23114952 82 18113612430414190557
2334 1 18336826485250831017
23402539 116 18194115214456978438
23419403 2 18194092202085458252
23557571 272 17983864372090079070
23559900 14 18333726931406017554
2748010 2 18334846238976014653
3071541 250 18410018736095626976
458136 41 17977122458408534809
5493415 88 18410855417378955474
5902787 121 18336827489893272882
7364860 26 18270958046091239552
81228 2 17765730018023960136
81539 233 18118399789719320084
84936 31 17703501177533363760
9709674 26 18335974372476652887

>  <PUBCHEM_SHAPE_MULTIPOLES>  (1) 
323.17
6.65
3.13
1.08
3.06
0.73
0
-5.22
0.93
-3.08
0.15
-0.21
0.17
0.87

>  <PUBCHEM_SHAPE_SELFOVERLAP>  (1) 
655.537

>  <PUBCHEM_SHAPE_VOLUME>  (1) 
188.6

>  <PUBCHEM_COORDINATE_TYPE>  (1) 
2
5
10

$$$$
