47210
     RDKit          3D

 18 18  0  0  0  0  0  0  0  0999 V2000
    0.5131   -1.2203   -0.5166 S   0  0  0  0  0  0  0  0  0  0  0  0
    0.9929   -2.4061    0.1670 O   0  0  0  0  0  0  0  0  0  0  0  0
    0.3780   -1.2249   -1.9613 O   0  0  0  0  0  0  0  0  0  0  0  0
   -3.0674    0.4189    0.1660 O   0  0  0  0  0  0  0  0  0  0  0  0
   -1.6947    0.6232   -1.6536 O   0  0  0  0  0  0  0  0  0  0  0  0
   -0.9739   -0.6547    0.1888 N   0  0  0  0  0  0  0  0  0  0  0  0
    1.6178    0.0895   -0.0730 C   0  0  0  0  0  0  0  0  0  0  0  0
   -1.2863   -1.1715    1.5552 C   0  0  0  0  0  0  0  0  0  0  0  0
    2.9869   -0.1173   -0.0673 C   0  0  0  0  0  0  0  0  0  0  0  0
    1.0713    1.3176    0.2625 C   0  0  0  0  0  0  0  0  0  0  0  0
   -1.9131    0.1795   -0.5318 C   0  0  0  0  0  0  0  0  0  0  0  0
   -1.9852   -2.5117    1.4476 C   0  0  0  0  0  0  0  0  0  0  0  0
    3.8343    0.9335    0.2840 C   0  0  0  0  0  0  0  0  0  0  0  0
    3.5910   -1.4353   -0.4266 C   0  0  0  0  0  0  0  0  0  0  0  0
    1.9188    2.3684    0.6141 C   0  0  0  0  0  0  0  0  0  0  0  0
    3.3004    2.1764    0.6251 C   0  0  0  0  0  0  0  0  0  0  0  0
   -4.0407    1.2367   -0.4927 C   0  0  0  0  0  0  0  0  0  0  0  0
   -5.2433    1.3980    0.4126 C   0  0  0  0  0  0  0  0  0  0  0  0
  1  2  2  0
  1  3  2  0
  1  6  1  0
  1  7  1  0
  4 11  1  0
  4 17  1  0
  5 11  2  0
  6  8  1  0
  6 11  1  0
  7  9  2  0
  7 10  1  0
  8 12  1  0
  9 13  1  0
  9 14  1  0
 10 15  2  0
 13 16  2  0
 15 16  1  0
 17 18  1  0
M  END
>  <PUBCHEM_COMPOUND_CID>  (1) 
47210

>  <PUBCHEM_CONFORMER_RMSD>  (1) 
0.8

>  <PUBCHEM_CONFORMER_DIVERSEORDER>  (1) 
1
12
32
27
23
30
44
5
15
18
42
8
21
2
29
7
34
41
35
25
40
24
33
36
17
16
20
11
14
10
28
37
13
43
26
4
38
22
3
6
19
31
39
9

>  <PUBCHEM_MMFF94_PARTIAL_CHARGES>  (1) 
20
1 1.45
10 -0.15
11 0.96
13 -0.15
14 0.14
15 -0.15
16 -0.15
17 0.28
2 -0.65
21 0.15
25 0.15
29 0.15
3 -0.65
30 0.15
4 -0.43
5 -0.57
6 -0.73
7 -0.01
8 0.36
9 -0.14

>  <PUBCHEM_EFFECTIVE_ROTOR_COUNT>  (1) 
6

>  <PUBCHEM_PHARMACOPHORE_FEATURES>  (1) 
4
1 2 acceptor
1 3 acceptor
1 5 acceptor
6 7 9 10 13 15 16 rings

>  <PUBCHEM_HEAVY_ATOM_COUNT>  (1) 
18

>  <PUBCHEM_ATOM_DEF_STEREO_COUNT>  (1) 
0

>  <PUBCHEM_ATOM_UDEF_STEREO_COUNT>  (1) 
0

>  <PUBCHEM_BOND_DEF_STEREO_COUNT>  (1) 
0

>  <PUBCHEM_BOND_UDEF_STEREO_COUNT>  (1) 
0

>  <PUBCHEM_ISOTOPIC_ATOM_COUNT>  (1) 
0

>  <PUBCHEM_COMPONENT_COUNT>  (1) 
1

>  <PUBCHEM_CACTVS_TAUTO_COUNT>  (1) 
1

>  <PUBCHEM_CONFORMER_ID>  (1) 
0000B86A00000001

>  <PUBCHEM_MMFF94_ENERGY>  (1) 
31.9742

>  <PUBCHEM_FEATURE_SELFOVERLAP>  (1) 
20.32

>  <PUBCHEM_SHAPE_FINGERPRINT>  (1) 
10608611 8 18337390547057222776
11471102 20 18341890758039942124
122479 349 18409728508128593377
12507560 18 18262240993278203714
12507560 40 18337677541430749818
12592029 89 17703513216210799871
12633257 1 18114168731573419832
13140716 1 18336258029027653442
13464514 151 18267590113057725473
14115302 16 18041576753557249070
15219456 202 18409453621468171699
15295992 7 18411134766320630584
15775835 57 18131064982660827308
16945 1 18194943198019815990
18186145 218 18335129869831077213
18219364 16 18199475544142776090
19049666 15 18334576862874639354
192875 21 17560802100167515216
20511035 2 18338239387408881540
20645477 70 18131634456595426070
21041028 32 17834948672775232662
22892500 29 18410575046082304438
23558518 356 18118397586543775218
23559900 14 18187652384214821318
25 1 18411131420414525580
2748010 2 18338238275291861518
3060560 45 17775002323913579198
427121 178 17822014164405321913
474 4 18413386540602213401
633830 44 18410847738246657213
81228 2 17460596063739965059

>  <PUBCHEM_SHAPE_MULTIPOLES>  (1) 
345.82
7.65
2.61
1.27
5.74
0.4
-0.18
-4.39
0.59
-0.46
0.77
0.53
0.48
1.34

>  <PUBCHEM_SHAPE_SELFOVERLAP>  (1) 
686.902

>  <PUBCHEM_SHAPE_VOLUME>  (1) 
205.6

>  <PUBCHEM_COORDINATE_TYPE>  (1) 
2
5
10

$$$$
