47221
     RDKit          3D

 20 20  0  0  1  0  0  0  0  0999 V2000
    2.7692   -0.4383    1.0193 O   0  0  0  0  0  0  0  0  0  0  0  0
    2.6034   -1.3925   -1.0945 O   0  0  0  0  0  0  0  0  0  0  0  0
   -3.0968   -1.0574    0.0887 N   0  0  0  0  0  0  0  0  0  0  0  0
   -1.1931    2.1314    0.0759 N   0  0  0  0  0  0  0  0  0  0  0  0
    3.5338   -2.5736    0.6724 N   0  0  0  0  0  0  0  0  0  0  0  0
   -2.2578    0.0155   -0.4442 C   0  0  0  0  0  0  0  0  0  0  0  0
   -2.0447    1.0950    0.6091 C   0  0  0  0  0  0  0  0  0  0  0  0
   -4.3953   -0.5309    0.5073 C   0  0  0  0  0  0  0  0  0  0  0  0
   -3.2706   -2.1132   -0.9083 C   0  0  0  0  0  0  0  0  0  0  0  0
    0.2014    1.9896    0.0484 C   0  0  0  0  0  0  0  0  0  0  0  0
   -5.2580   -1.6210    1.1202 C   0  0  0  0  0  0  0  0  0  0  0  0
   -1.9305   -2.6725   -1.3550 C   0  0  0  0  0  0  0  0  0  0  0  0
   -1.8158    3.3447   -0.4561 C   0  0  0  0  0  0  0  0  0  0  0  0
    0.8032    0.8322    0.5542 C   0  0  0  0  0  0  0  0  0  0  0  0
    1.0039    3.0036   -0.4860 C   0  0  0  0  0  0  0  0  0  0  0  0
    2.1905    0.6903    0.5259 C   0  0  0  0  0  0  0  0  0  0  0  0
    2.3913    2.8617   -0.5142 C   0  0  0  0  0  0  0  0  0  0  0  0
    2.9845    1.7051   -0.0082 C   0  0  0  0  0  0  0  0  0  0  0  0
    2.9425   -1.4755    0.0824 C   0  0  0  0  0  0  0  0  0  0  0  0
    3.8390   -3.7940   -0.0373 C   0  0  0  0  0  0  0  0  0  0  0  0
  1 16  1  0
  1 19  1  0
  2 19  2  0
  3  6  1  0
  3  8  1  0
  3  9  1  0
  4  7  1  0
  4 10  1  0
  4 13  1  0
  5 19  1  0
  5 20  1  0
  6  7  1  0
  8 11  1  0
  9 12  1  0
 10 14  2  0
 10 15  1  0
 14 16  1  0
 15 17  2  0
 16 18  2  0
 17 18  1  0
M  END
>  <PUBCHEM_COMPOUND_CID>  (1) 
47221

>  <PUBCHEM_CONFORMER_RMSD>  (1) 
1

>  <PUBCHEM_CONFORMER_DIVERSEORDER>  (1) 
1
400
47
274
504
228
239
330
260
210
102
91
99
270
145
351
422
413
396
59
141
78
273
171
16
204
287
390
385
105
138
25
414
309
98
356
406
32
234
319
121
487
23
323
175
35
144
291
295
346
153
128
384
15
244
459
437
261
45
160
317
272
347
474
126
80
44
470
466
14
366
8
452
360
41
50
457
178
298
13
75
62
81
451
61
179
115
253
5
173
22
151
432
55
285
140
69
9
409
7
89
475
275
82
223
146
6
106
245
134
281
211
421
136
20
57
293
27
86
18
494
402
36
3
51
191
219
52
12
198
4
17
2
220
10
39

>  <PUBCHEM_MMFF94_PARTIAL_CHARGES>  (1) 
23
1 -0.23
10 0.1
13 0.37
14 -0.15
15 -0.15
16 0.08
17 -0.15
18 -0.15
19 0.78
2 -0.57
20 0.3
3 -0.81
38 0.15
39 0.15
4 -0.84
40 0.15
41 0.15
42 0.37
5 -0.73
6 0.27
7 0.37
8 0.27
9 0.27

>  <PUBCHEM_EFFECTIVE_ROTOR_COUNT>  (1) 
9

>  <PUBCHEM_PHARMACOPHORE_FEATURES>  (1) 
5
1 2 acceptor
1 3 cation
1 4 cation
1 5 donor
6 10 14 15 16 17 18 rings

>  <PUBCHEM_HEAVY_ATOM_COUNT>  (1) 
20

>  <PUBCHEM_ATOM_DEF_STEREO_COUNT>  (1) 
0

>  <PUBCHEM_ATOM_UDEF_STEREO_COUNT>  (1) 
0

>  <PUBCHEM_BOND_DEF_STEREO_COUNT>  (1) 
0

>  <PUBCHEM_BOND_UDEF_STEREO_COUNT>  (1) 
0

>  <PUBCHEM_ISOTOPIC_ATOM_COUNT>  (1) 
0

>  <PUBCHEM_COMPONENT_COUNT>  (1) 
1

>  <PUBCHEM_CACTVS_TAUTO_COUNT>  (1) 
2

>  <PUBCHEM_CONFORMER_ID>  (1) 
0000B87500000001

>  <PUBCHEM_MMFF94_ENERGY>  (1) 
58.1614

>  <PUBCHEM_FEATURE_SELFOVERLAP>  (1) 
25.372

>  <PUBCHEM_SHAPE_FINGERPRINT>  (1) 
10616163 171 18054230105253023423
116883 192 18410570661042339149
12107183 9 18269006284814958513
12403259 327 16486971834348765915
12553582 1 18267015244754777925
12839892 36 18195785561967403232
12990986 174 18120368753505751858
13140716 1 18197216949343169160
14178342 30 17624400275232406689
14251731 5 18337956666913065650
14863182 85 18118970428054864156
14916288 52 18339357444726618414
15042514 8 17977387127072558666
15375462 189 18195810902058054425
17492 89 18408887334684052531
20291156 8 18410854339168246834
20645477 70 18189606315003014059
20775530 9 18342171125062965370
21421861 104 18409169943262928528
21634736 98 18409450288963881458
221490 88 18335703814937686608
2255824 54 17688589785627217141
23184049 29 18411697647512552228
3421961 26 18410014346633750106
56633871 153 18201157664017173271
57091435 65 18339646745181332390
59682541 52 17980445131952416983
7097593 13 18342735273348951703

>  <PUBCHEM_SHAPE_MULTIPOLES>  (1) 
384.91
8.44
4.84
1.02
6.34
0.87
-0.08
7.22
1.71
-3.7
-1.02
0.45
0.42
-0.57

>  <PUBCHEM_SHAPE_SELFOVERLAP>  (1) 
768.094

>  <PUBCHEM_SHAPE_VOLUME>  (1) 
228.4

>  <PUBCHEM_COORDINATE_TYPE>  (1) 
2
5
10

$$$$
