47223
     RDKit          3D

 20 20  0  0  1  0  0  0  0  0999 V2000
    3.8085    0.2644    0.8240 O   0  0  0  0  0  0  0  0  0  0  0  0
    3.7047   -1.1936   -0.9842 O   0  0  0  0  0  0  0  0  0  0  0  0
   -3.9594   -0.9223    0.1589 N   0  0  0  0  0  0  0  0  0  0  0  0
   -1.4377    1.7757   -0.2336 N   0  0  0  0  0  0  0  0  0  0  0  0
    5.6366   -1.0142    0.2877 N   0  0  0  0  0  0  0  0  0  0  0  0
   -2.8463   -0.1874   -0.4410 C   0  0  0  0  0  0  0  0  0  0  0  0
   -2.5552    1.0777    0.3559 C   0  0  0  0  0  0  0  0  0  0  0  0
   -5.1611   -0.0898    0.1955 C   0  0  0  0  0  0  0  0  0  0  0  0
   -4.2152   -2.1569   -0.5822 C   0  0  0  0  0  0  0  0  0  0  0  0
   -0.1150    1.3947    0.0326 C   0  0  0  0  0  0  0  0  0  0  0  0
   -6.3118   -0.8159    0.8714 C   0  0  0  0  0  0  0  0  0  0  0  0
   -2.9763   -3.0350   -0.6303 C   0  0  0  0  0  0  0  0  0  0  0  0
   -1.7089    2.8948   -1.1375 C   0  0  0  0  0  0  0  0  0  0  0  0
    0.1511    0.3261    0.8954 C   0  0  0  0  0  0  0  0  0  0  0  0
    0.9505    2.0798   -0.5616 C   0  0  0  0  0  0  0  0  0  0  0  0
    1.4670   -0.0529    1.1609 C   0  0  0  0  0  0  0  0  0  0  0  0
    2.2663    1.7006   -0.2961 C   0  0  0  0  0  0  0  0  0  0  0  0
    2.5246    0.6343    0.5652 C   0  0  0  0  0  0  0  0  0  0  0  0
    4.3360   -0.7039   -0.0523 C   0  0  0  0  0  0  0  0  0  0  0  0
    6.4414   -1.9762   -0.4288 C   0  0  0  0  0  0  0  0  0  0  0  0
  1 18  1  0
  1 19  1  0
  2 19  2  0
  3  6  1  0
  3  8  1  0
  3  9  1  0
  4  7  1  0
  4 10  1  0
  4 13  1  0
  5 19  1  0
  5 20  1  0
  6  7  1  0
  8 11  1  0
  9 12  1  0
 10 14  2  0
 10 15  1  0
 14 16  1  0
 15 17  2  0
 16 18  2  0
 17 18  1  0
M  END
>  <PUBCHEM_COMPOUND_CID>  (1) 
47223

>  <PUBCHEM_CONFORMER_RMSD>  (1) 
0.8

>  <PUBCHEM_CONFORMER_DIVERSEORDER>  (1) 
1
241
129
171
127
223
78
210
203
159
224
39
58
239
226
125
60
211
220
196
160
112
232
217
41
242
182
206
141
134
169
70
230
198
153
133
46
118
181
212
132
164
37
151
202
209
142
197
130
98
71
82
54
126
135
96
47
154
124
167
10
177
145
162
214
200
62
45
95
192
155
191
222
122
69
128
14
100
234
194
113
7
92
114
170
20
80
77
216
116
227
73
156
152
38
107
207
36
186
147
86
83
34
105
35
190
76
117
99
240
8
229
40
221
65
183
123
179
91
89
173
247
15
101
64
103
87
23
28
231
104
161
97
246
85
157
75
243
79
119
90
205
193
67
94
236
201
184
32
195
33
120
30
213
150
172
48
204
148
199
131
72
13
187
12
63
219
50
137
19
185
174
56
139
244
228
168
66
245
88
17
140
136
16
57
93
55
111
189
215
27
31
144
143
218
24
5
26
42
52
51
188
238
165
22
235
53
44
149
146
138
237
175
49
25
233
108
81
11
166
178
21
208
6
43
121
18
180
2
158
68
163
225
9
74
102
106
115
3
29
84
176
61
109
59
4
110

>  <PUBCHEM_MMFF94_PARTIAL_CHARGES>  (1) 
23
1 -0.23
10 0.1
13 0.37
14 -0.15
15 -0.15
16 -0.15
17 -0.15
18 0.08
19 0.78
2 -0.57
20 0.3
3 -0.81
38 0.15
39 0.15
4 -0.84
40 0.15
41 0.15
42 0.37
5 -0.73
6 0.27
7 0.37
8 0.27
9 0.27

>  <PUBCHEM_EFFECTIVE_ROTOR_COUNT>  (1) 
9

>  <PUBCHEM_PHARMACOPHORE_FEATURES>  (1) 
5
1 2 acceptor
1 3 cation
1 4 cation
1 5 donor
6 10 14 15 16 17 18 rings

>  <PUBCHEM_HEAVY_ATOM_COUNT>  (1) 
20

>  <PUBCHEM_ATOM_DEF_STEREO_COUNT>  (1) 
0

>  <PUBCHEM_ATOM_UDEF_STEREO_COUNT>  (1) 
0

>  <PUBCHEM_BOND_DEF_STEREO_COUNT>  (1) 
0

>  <PUBCHEM_BOND_UDEF_STEREO_COUNT>  (1) 
0

>  <PUBCHEM_ISOTOPIC_ATOM_COUNT>  (1) 
0

>  <PUBCHEM_COMPONENT_COUNT>  (1) 
1

>  <PUBCHEM_CACTVS_TAUTO_COUNT>  (1) 
2

>  <PUBCHEM_CONFORMER_ID>  (1) 
0000B87700000001

>  <PUBCHEM_MMFF94_ENERGY>  (1) 
58.4417

>  <PUBCHEM_FEATURE_SELFOVERLAP>  (1) 
25.371

>  <PUBCHEM_SHAPE_FINGERPRINT>  (1) 
10042902 136 18341893055815992222
10291535 26 8862649218659564725
11069576 57 17188951949521842767
11524674 6 17131828742392269783
11809386 21 17968651597621445272
12553582 1 18188192287231106291
12555020 224 18340474660969413095
12596602 18 13398620662906352142
12633257 1 15697718228618598543
12760667 363 18272646836127669613
13288520 33 18410575050335281408
13402501 40 18201723920499060470
13583140 156 16343416194390615488
13690498 29 18186803539288640532
14251751 18 18342457049778632614
14251764 30 18041285464928966059
14350574 20 18113338613142557064
14420673 8 18411142441944698587
14576447 43 18040431067031388552
17492 89 18050849124473432487
1813 80 17894632573692605565
18643901 69 18341059514675723766
19141452 34 18272089435404136199
193927 3 18409176514504719601
19784866 140 17894345571003106121
19784866 240 18412551998038102953
20281475 54 18269554000145028589
20403669 9 18413393128675792319
21267235 1 18261117378911108337
22950370 63 18336830904676921253
23379529 103 18338238287918963078
23402539 116 17750518378329032164
23559900 14 18200303437295893305
2871803 45 18040426707307591825
3004659 81 18113615702947017897
351380 3 18259983781969366099
4325135 7 18334860545976308060
465052 167 18338243751195900335
5104073 3 17987804158507237715
559249 180 18409730617469180321
59755656 215 18342174406296582415
7970288 3 18337387240080857823

>  <PUBCHEM_SHAPE_MULTIPOLES>  (1) 
384.91
13.59
2.9
1
4.53
0.18
-0.03
11.4
-0.6
-1
1.23
-0.07
-0.06
0.26

>  <PUBCHEM_SHAPE_SELFOVERLAP>  (1) 
768.094

>  <PUBCHEM_SHAPE_VOLUME>  (1) 
228.6

>  <PUBCHEM_COORDINATE_TYPE>  (1) 
2
5
10

$$$$
