47231
     RDKit          3D

 18 18  0  0  0  0  0  0  0  0999 V2000
    2.2435    0.0207    0.9243 O   0  0  0  0  0  0  0  0  0  0  0  0
    2.7194   -0.1949   -1.3414 O   0  0  0  0  0  0  0  0  0  0  0  0
   -3.0845    0.9286   -0.3994 N   0  0  0  0  0  0  0  0  0  0  0  0
    4.3900   -0.4249    0.2518 N   0  0  0  0  0  0  0  0  0  0  0  0
   -2.1972   -1.7805    0.0724 C   0  0  0  0  0  0  0  0  0  0  0  0
   -1.2766   -0.6078    0.1713 C   0  0  0  0  0  0  0  0  0  0  0  0
   -1.7340    0.6891   -0.0625 C   0  0  0  0  0  0  0  0  0  0  0  0
    0.0606   -0.8267    0.5027 C   0  0  0  0  0  0  0  0  0  0  0  0
   -0.8543    1.7672    0.0350 C   0  0  0  0  0  0  0  0  0  0  0  0
   -2.3422   -2.5261    1.4113 C   0  0  0  0  0  0  0  0  0  0  0  0
   -1.7758   -2.7649   -1.0335 C   0  0  0  0  0  0  0  0  0  0  0  0
    0.4828    1.5483    0.3663 C   0  0  0  0  0  0  0  0  0  0  0  0
    0.9404    0.2515    0.6002 C   0  0  0  0  0  0  0  0  0  0  0  0
    1.4106    2.7137    0.4670 C   0  0  0  0  0  0  0  0  0  0  0  0
   -3.5034    0.9331   -1.7858 C   0  0  0  0  0  0  0  0  0  0  0  0
   -4.0680    1.1586    0.6388 C   0  0  0  0  0  0  0  0  0  0  0  0
    3.0966   -0.2014   -0.1733 C   0  0  0  0  0  0  0  0  0  0  0  0
    5.4921   -0.6834   -0.6454 C   0  0  0  0  0  0  0  0  0  0  0  0
  1 13  1  0
  1 17  1  0
  2 17  2  0
  3  7  1  0
  3 15  1  0
  3 16  1  0
  4 17  1  0
  4 18  1  0
  5  6  1  0
  5 10  1  0
  5 11  1  0
  6  7  2  0
  6  8  1  0
  7  9  1  0
  8 13  2  0
  9 12  2  0
 12 13  1  0
 12 14  1  0
M  END
>  <PUBCHEM_COMPOUND_CID>  (1) 
47231

>  <PUBCHEM_CONFORMER_RMSD>  (1) 
0.6

>  <PUBCHEM_CONFORMER_DIVERSEORDER>  (1) 
1
14
17
18
11
10
3
7
20
6
9
8
5
13
12
15
19
2
16
4

>  <PUBCHEM_MMFF94_PARTIAL_CHARGES>  (1) 
19
1 -0.23
12 -0.14
13 0.08
14 0.14
15 0.37
16 0.37
17 0.78
18 0.3
2 -0.57
20 0.15
21 0.15
3 -0.84
37 0.37
4 -0.73
5 0.14
6 -0.14
7 0.1
8 -0.15
9 -0.15

>  <PUBCHEM_EFFECTIVE_ROTOR_COUNT>  (1) 
5

>  <PUBCHEM_PHARMACOPHORE_FEATURES>  (1) 
5
1 2 acceptor
1 3 cation
1 4 donor
3 5 10 11 hydrophobe
6 6 7 8 9 12 13 rings

>  <PUBCHEM_HEAVY_ATOM_COUNT>  (1) 
18

>  <PUBCHEM_ATOM_DEF_STEREO_COUNT>  (1) 
0

>  <PUBCHEM_ATOM_UDEF_STEREO_COUNT>  (1) 
0

>  <PUBCHEM_BOND_DEF_STEREO_COUNT>  (1) 
0

>  <PUBCHEM_BOND_UDEF_STEREO_COUNT>  (1) 
0

>  <PUBCHEM_ISOTOPIC_ATOM_COUNT>  (1) 
0

>  <PUBCHEM_COMPONENT_COUNT>  (1) 
1

>  <PUBCHEM_CACTVS_TAUTO_COUNT>  (1) 
2

>  <PUBCHEM_CONFORMER_ID>  (1) 
0000B87F00000001

>  <PUBCHEM_MMFF94_ENERGY>  (1) 
70.0969

>  <PUBCHEM_FEATURE_SELFOVERLAP>  (1) 
25.371

>  <PUBCHEM_SHAPE_FINGERPRINT>  (1) 
10062212 137 18260822709515731298
10756046 5 18264763444640529565
11578080 2 17272559797207997603
11680986 33 18269547402743193224
12035758 1 18341911683537327123
12403814 3 17458348515906830093
12553582 1 18338507556561169368
12715332 25 18342178864762415467
13140716 1 18338516451401665737
13296908 3 18270679882739802058
13380535 21 18264774444373748657
14115302 16 18260554407061019772
14790565 3 18267032656252366728
14911166 2 18410284783755733797
15099037 51 18411980226232405069
15375358 24 18060696178580155942
16945 1 18337659841833911521
17804303 29 18409735083786807745
18186145 218 18341034256115655701
19868273 293 18040707056949798447
200 152 16343695517746705982
20600515 1 18342187630902053732
20602899 9 17131826586693447599
20645476 183 17603584097577892211
20871999 31 18335137621999152662
21069387 34 17346305033861890437
21339142 51 18409450288747467198
21501502 16 18267304428976284257
221490 88 18265057023372825584
22182313 1 18193544795244056513
22802520 49 18338517572467094905
2334 1 18120365720978876177
23402539 116 18129373817924012508
23557571 272 18341904021378837606
23559900 14 18411698778038075256
23566358 27 17753630218983418629
2748010 2 18193828465107278505
34934 24 18409724033052265538
3759504 43 17603865572828955019
4175511 318 18113616755266707903
58051976 100 18260834808269597462
6049 1 18265052624904275985
74978 22 18339918311589350089
81228 2 17985843535838172560
8809292 202 18408886252019640186
9709674 26 18195797694690474321

>  <PUBCHEM_SHAPE_MULTIPOLES>  (1) 
348.73
7.74
2.67
1.2
8.9
0.57
0.29
1.05
1.74
-1.86
-0.25
-0.67
0.24
0.76

>  <PUBCHEM_SHAPE_SELFOVERLAP>  (1) 
708.079

>  <PUBCHEM_SHAPE_VOLUME>  (1) 
204.4

>  <PUBCHEM_COORDINATE_TYPE>  (1) 
2
5
10

$$$$
