47258
     RDKit          3D

 14 14  0  0  1  0  0  0  0  0999 V2000
   -0.4220   -1.9005   -1.4702 O   0  0  0  0  0  0  0  0  0  0  0  0
    1.6968   -2.4423    0.4816 N   0  0  0  0  0  0  0  0  0  0  0  0
    0.8381   -1.2502    0.5121 C   0  0  0  0  0  0  0  0  0  0  0  0
    1.5712   -0.0781   -0.1757 C   0  0  0  0  0  0  0  0  0  0  0  0
   -0.5544   -1.5738   -0.0831 C   0  0  0  0  0  0  0  0  0  0  0  0
    2.9658    0.2432    0.3764 C   0  0  0  0  0  0  0  0  0  0  0  0
    3.5629    1.4683   -0.3192 C   0  0  0  0  0  0  0  0  0  0  0  0
   -1.5375   -0.4254   -0.0023 C   0  0  0  0  0  0  0  0  0  0  0  0
    4.9284    1.8210    0.2492 C   0  0  0  0  0  0  0  0  0  0  0  0
   -2.3461   -0.3063    1.1146 C   0  0  0  0  0  0  0  0  0  0  0  0
   -1.6057    0.4799   -1.0467 C   0  0  0  0  0  0  0  0  0  0  0  0
   -3.2518    0.7519    1.1892 C   0  0  0  0  0  0  0  0  0  0  0  0
   -2.5114    1.5381   -0.9719 C   0  0  0  0  0  0  0  0  0  0  0  0
   -3.3344    1.6740    0.1461 C   0  0  0  0  0  0  0  0  0  0  0  0
  1  5  1  0
  2  3  1  0
  3  4  1  0
  3  5  1  0
  4  6  1  0
  5  8  1  0
  6  7  1  0
  7  9  1  0
  8 10  2  0
  8 11  1  0
 10 12  1  0
 11 13  2  0
 12 14  2  0
 13 14  1  0
M  END
>  <PUBCHEM_COMPOUND_CID>  (1) 
47258

>  <PUBCHEM_CONFORMER_RMSD>  (1) 
0.6

>  <PUBCHEM_CONFORMER_DIVERSEORDER>  (1) 
19
24
29
66
12
46
71
45
57
65
60
69
27
55
15
68
5
16
59
26
32
14
51
23
36
48
64
43
8
44
61
50
11
39
28
22
25
49
33
30
13
38
42
4
18
35
3
70
47
40
31
62
54
7
17
6
58
37
9
34
67
63
52
1
2
56
53
21
41
10
20

>  <PUBCHEM_MMFF94_PARTIAL_CHARGES>  (1) 
18
1 -0.68
10 -0.15
11 -0.15
12 -0.15
13 -0.15
14 -0.15
2 -0.99
23 0.36
24 0.36
28 0.15
29 0.15
3 0.27
30 0.4
31 0.15
32 0.15
33 0.15
5 0.42
8 -0.14

>  <PUBCHEM_EFFECTIVE_ROTOR_COUNT>  (1) 
5

>  <PUBCHEM_PHARMACOPHORE_FEATURES>  (1) 
6
1 1 acceptor
1 1 donor
1 2 cation
1 2 donor
1 9 hydrophobe
6 8 10 11 12 13 14 rings

>  <PUBCHEM_HEAVY_ATOM_COUNT>  (1) 
14

>  <PUBCHEM_ATOM_DEF_STEREO_COUNT>  (1) 
0

>  <PUBCHEM_ATOM_UDEF_STEREO_COUNT>  (1) 
2

>  <PUBCHEM_BOND_DEF_STEREO_COUNT>  (1) 
0

>  <PUBCHEM_BOND_UDEF_STEREO_COUNT>  (1) 
0

>  <PUBCHEM_ISOTOPIC_ATOM_COUNT>  (1) 
0

>  <PUBCHEM_COMPONENT_COUNT>  (1) 
1

>  <PUBCHEM_CACTVS_TAUTO_COUNT>  (1) 
1

>  <PUBCHEM_CONFORMER_ID>  (1) 
0000B89A00000013

>  <PUBCHEM_MMFF94_ENERGY>  (1) 
22.9279

>  <PUBCHEM_FEATURE_SELFOVERLAP>  (1) 
30.447

>  <PUBCHEM_SHAPE_FINGERPRINT>  (1) 
10608611 8 18043249041997401533
11127187 94 11959735975203323305
12186901 62 15123509186409528025
13618510 140 18410289190376446032
13897977 13 18260834821085940441
14123255 52 18410855473403746200
14251764 38 17405437598534377153
15219456 202 18115029580574535811
15342168 16 18341336604480405185
15534591 1 18272650190207191798
15775835 57 18413108363811914568
16945 1 17968957365091580183
1741750 31 18273213127486597346
17834072 14 10447644648219203638
17834072 32 18337672022477681556
18186145 218 18343028800425771052
19786989 88 18200314295394963463
20645477 56 17986963036385642368
20671657 1 18266460910463677870
20871999 31 11743573067287587336
21524375 3 18339642338550135074
22182937 141 18269842089118206848
23175994 123 17760370985228524590
23559900 14 17096942256339688107
27216 239 18260831548189076817
305870 269 18333726918985449890

>  <PUBCHEM_SHAPE_MULTIPOLES>  (1) 
277.26
7.29
2.3
1.12
7.37
0.64
0.11
-6.24
-1.41
0.81
0.2
-0.78
0.07
0.03

>  <PUBCHEM_SHAPE_SELFOVERLAP>  (1) 
551.787

>  <PUBCHEM_SHAPE_VOLUME>  (1) 
164.7

>  <PUBCHEM_COORDINATE_TYPE>  (1) 
2
5
10

$$$$
