47270
     RDKit          3D

 17 17  0  0  0  0  0  0  0  0999 V2000
   -2.2748    0.1290    0.9623 O   0  0  0  0  0  0  0  0  0  0  0  0
   -2.7727   -0.1913   -1.2862 O   0  0  0  0  0  0  0  0  0  0  0  0
    2.3932   -0.6608   -0.0397 N   0  0  0  0  0  0  0  0  0  0  0  0
   -4.3081   -0.7477    0.3616 N   0  0  0  0  0  0  0  0  0  0  0  0
    2.0022   -2.1011    0.2849 C   0  0  0  0  0  0  0  0  0  0  0  0
    1.2126    0.3039    0.0961 C   0  0  0  0  0  0  0  0  0  0  0  0
    3.4891   -0.2350    0.9330 C   0  0  0  0  0  0  0  0  0  0  0  0
    2.8983   -0.6191   -1.4792 C   0  0  0  0  0  0  0  0  0  0  0  0
    1.4356    1.6160   -0.1563 C   0  0  0  0  0  0  0  0  0  0  0  0
    3.2073   -2.9977    0.1026 C   0  0  0  0  0  0  0  0  0  0  0  0
    0.0292   -0.2478    0.4649 C   0  0  0  0  0  0  0  0  0  0  0  0
    0.3486    2.4800   -0.0254 C   0  0  0  0  0  0  0  0  0  0  0  0
   -1.0580    0.6163    0.5958 C   0  0  0  0  0  0  0  0  0  0  0  0
    2.7602    2.1758   -0.5603 C   0  0  0  0  0  0  0  0  0  0  0  0
   -0.8982    1.9803    0.3508 C   0  0  0  0  0  0  0  0  0  0  0  0
   -3.1013   -0.2698   -0.1061 C   0  0  0  0  0  0  0  0  0  0  0  0
   -5.3631   -1.2309   -0.4986 C   0  0  0  0  0  0  0  0  0  0  0  0
  1 13  1  0
  1 16  1  0
  2 16  2  0
  3  5  1  0
  3  6  1  0
  3  7  1  0
  3  8  1  0
  4 16  1  0
  4 17  1  0
  5 10  1  0
  6  9  2  0
  6 11  1  0
  9 12  1  0
  9 14  1  0
 11 13  2  0
 12 15  2  0
 13 15  1  0
M  CHG  1   3   1
M  END
>  <PUBCHEM_COMPOUND_CID>  (1) 
47270

>  <PUBCHEM_CONFORMER_RMSD>  (1) 
0.6

>  <PUBCHEM_CONFORMER_DIVERSEORDER>  (1) 
23
16
50
37
20
53
63
34
61
30
70
42
59
69
31
49
64
18
40
62
43
58
47
19
41
33
36
8
65
68
22
35
67
45
17
60
11
66
54
32
12
27
56
5
57
29
48
28
46
72
13
10
15
44
9
55
71
3
52
26
6
38
25
7
51
14
4
39
21
1
2
24

>  <PUBCHEM_MMFF94_PARTIAL_CHARGES>  (1) 
20
1 -0.23
11 -0.15
12 -0.15
13 0.08
14 0.14
15 -0.15
16 0.78
17 0.3
2 -0.57
29 0.15
3 -0.87
30 0.15
34 0.15
35 0.37
4 -0.73
5 0.5
6 0.36
7 0.5
8 0.5
9 -0.14

>  <PUBCHEM_EFFECTIVE_ROTOR_COUNT>  (1) 
5

>  <PUBCHEM_PHARMACOPHORE_FEATURES>  (1) 
4
1 2 acceptor
1 3 cation
1 4 donor
6 6 9 11 12 13 15 rings

>  <PUBCHEM_HEAVY_ATOM_COUNT>  (1) 
17

>  <PUBCHEM_ATOM_DEF_STEREO_COUNT>  (1) 
0

>  <PUBCHEM_ATOM_UDEF_STEREO_COUNT>  (1) 
0

>  <PUBCHEM_BOND_DEF_STEREO_COUNT>  (1) 
0

>  <PUBCHEM_BOND_UDEF_STEREO_COUNT>  (1) 
0

>  <PUBCHEM_ISOTOPIC_ATOM_COUNT>  (1) 
0

>  <PUBCHEM_COMPONENT_COUNT>  (1) 
1

>  <PUBCHEM_CACTVS_TAUTO_COUNT>  (1) 
2

>  <PUBCHEM_CONFORMER_ID>  (1) 
0000B8A600000017

>  <PUBCHEM_MMFF94_ENERGY>  (1) 
86.4273

>  <PUBCHEM_FEATURE_SELFOVERLAP>  (1) 
20.297

>  <PUBCHEM_SHAPE_FINGERPRINT>  (1) 
10618630 7 18341050718292349451
11471102 20 18336546135370825081
11769659 78 18270399382351408984
11806522 49 18410576171764552080
12553582 1 18265631917118828066
12616999 72 18115311209980282069
12730499 353 18046071720659076641
13083527 12 18336531764621230072
13140716 1 18053092110749794040
13583140 156 14332560025905747211
14178342 30 18124871270595109520
14251717 144 18410575127618033187
14252887 29 17989492926219770894
14576447 43 18412828005484639423
14863182 85 18412548725790273958
15342816 4 18343027674485125759
15375462 189 17988356065846285899
15477762 27 18409728465015377179
16945 1 18335433348094011400
18186145 218 17458061556441401113
20281475 54 18340210695851428009
20291156 8 18342176626905353087
20645477 70 18334291011389596427
20671657 53 18409450250045386221
20871998 22 18412544275697382696
21296965 67 18411132502973072609
21452121 199 18336537223281842928
21452121 99 16226914253236153666
21501502 16 18337964384958987384
21501925 9 18412258445576465256
221490 88 18262525917393721419
2255824 54 18338521966034093836
22802520 49 17968643948369561469
23114952 82 17894916243102315860
23388829 49 18341888576423350544
23419403 2 14495194396187947736
23559900 14 18194954142055422080
23598291 2 18129403564893943305
257057 1 18191866713204218784
2748010 2 17902815259670071872
3060560 45 18263931119007745460
33824 294 18338234984930168448
4463277 69 18059572447494823535
59682541 52 18193528204803524199
6338986 31 18338510820693934130
7164475 11 18410012092098250917
7364860 26 18341333383254822912
76465 3 18266456512496418002
7970288 3 18340768126794096919
81228 2 18045503010812217800

>  <PUBCHEM_SHAPE_MULTIPOLES>  (1) 
328.15
7.73
2.74
1
10.26
0.14
-0.2
5.03
-1.03
-2.52
-0.04
-0.21
0.07
-0.51

>  <PUBCHEM_SHAPE_SELFOVERLAP>  (1) 
668.786

>  <PUBCHEM_SHAPE_VOLUME>  (1) 
192.4

>  <PUBCHEM_COORDINATE_TYPE>  (1) 
2
5
10

$$$$
