47272
     RDKit          3D

 21 21  0  0  0  0  0  0  0  0999 V2000
   -2.4830   -0.1817    0.5479 O   0  0  0  0  0  0  0  0  0  0  0  0
   -2.1732   -2.0592   -0.7686 O   0  0  0  0  0  0  0  0  0  0  0  0
   -1.1752    2.1575   -0.3666 N   0  0  0  0  0  0  0  0  0  0  0  0
   -4.3393   -1.3295   -0.3383 N   0  0  0  0  0  0  0  0  0  0  0  0
   -0.4528    1.0548    0.2321 C   0  0  0  0  0  0  0  0  0  0  0  0
   -0.2197    3.3121   -0.7798 C   0  0  0  0  0  0  0  0  0  0  0  0
   -2.2374    2.7432    0.6061 C   0  0  0  0  0  0  0  0  0  0  0  0
   -1.9664    1.8016   -1.6637 C   0  0  0  0  0  0  0  0  0  0  0  0
    1.6256    0.0817    0.9395 C   0  0  0  0  0  0  0  0  0  0  0  0
    0.9331    1.1377    0.3670 C   0  0  0  0  0  0  0  0  0  0  0  0
    3.1240    0.1708    1.0852 C   0  0  0  0  0  0  0  0  0  0  0  0
   -1.1294   -0.0831    0.6715 C   0  0  0  0  0  0  0  0  0  0  0  0
    3.8969   -0.3755   -0.1205 C   0  0  0  0  0  0  0  0  0  0  0  0
    5.4157   -0.3463    0.0779 C   0  0  0  0  0  0  0  0  0  0  0  0
    0.9656   -1.0551    1.3805 C   0  0  0  0  0  0  0  0  0  0  0  0
   -0.4202   -1.1379    1.2458 C   0  0  0  0  0  0  0  0  0  0  0  0
    6.1437   -0.9234   -1.1368 C   0  0  0  0  0  0  0  0  0  0  0  0
    7.6500   -0.9328   -0.9304 C   0  0  0  0  0  0  0  0  0  0  0  0
   -2.9453   -1.2628   -0.2357 C   0  0  0  0  0  0  0  0  0  0  0  0
   -4.9661   -2.3902   -1.1140 C   0  0  0  0  0  0  0  0  0  0  0  0
   -5.2466   -0.3819    0.3008 C   0  0  0  0  0  0  0  0  0  0  0  0
  1 12  1  0
  1 19  1  0
  2 19  2  0
  3  5  1  0
  3  6  1  0
  3  7  1  0
  3  8  1  0
  4 19  1  0
  4 20  1  0
  4 21  1  0
  5 10  2  0
  5 12  1  0
  9 10  1  0
  9 11  1  0
  9 15  2  0
 11 13  1  0
 12 16  2  0
 13 14  1  0
 14 17  1  0
 15 16  1  0
 17 18  1  0
M  CHG  1   3   1
M  END
>  <PUBCHEM_COMPOUND_CID>  (1) 
47272

>  <PUBCHEM_CONFORMER_RMSD>  (1) 
0.8

>  <PUBCHEM_CONFORMER_DIVERSEORDER>  (1) 
3
56
70
57
9
53
41
72
78
54
33
20
75
81
10
60
50
51
28
77
74
49
36
52
6
44
76
24
69
73
21
31
16
79
45
40
15
11
66
37
22
39
5
58
1
67
23
61
47
35
80
43
71
64
34
65
13
55
32
27
42
48
17
4
25
30
62
59
38
2
68
29
7
8
14
26
46
12
63
19
18

>  <PUBCHEM_MMFF94_PARTIAL_CHARGES>  (1) 
20
1 -0.23
10 -0.15
11 0.14
12 0.08
15 -0.15
16 -0.15
19 0.78
2 -0.57
20 0.3
21 0.3
3 -0.87
31 0.15
38 0.15
39 0.15
4 -0.66
5 0.36
6 0.5
7 0.5
8 0.5
9 -0.14

>  <PUBCHEM_EFFECTIVE_ROTOR_COUNT>  (1) 
8

>  <PUBCHEM_PHARMACOPHORE_FEATURES>  (1) 
5
1 18 hydrophobe
1 2 acceptor
1 3 cation
4 11 13 14 17 hydrophobe
6 5 9 10 12 15 16 rings

>  <PUBCHEM_HEAVY_ATOM_COUNT>  (1) 
21

>  <PUBCHEM_ATOM_DEF_STEREO_COUNT>  (1) 
0

>  <PUBCHEM_ATOM_UDEF_STEREO_COUNT>  (1) 
0

>  <PUBCHEM_BOND_DEF_STEREO_COUNT>  (1) 
0

>  <PUBCHEM_BOND_UDEF_STEREO_COUNT>  (1) 
0

>  <PUBCHEM_ISOTOPIC_ATOM_COUNT>  (1) 
0

>  <PUBCHEM_COMPONENT_COUNT>  (1) 
1

>  <PUBCHEM_CACTVS_TAUTO_COUNT>  (1) 
1

>  <PUBCHEM_CONFORMER_ID>  (1) 
0000B8A800000003

>  <PUBCHEM_MMFF94_ENERGY>  (1) 
72.4713

>  <PUBCHEM_FEATURE_SELFOVERLAP>  (1) 
25.372

>  <PUBCHEM_SHAPE_FINGERPRINT>  (1) 
10291535 26 12468359037610642838
12553582 1 18261938739592820651
12788726 201 18186794747310860672
12954195 1 18270681961198369040
13009979 54 18200319960926117851
13288520 33 17989209247951198290
13540713 5 17751909225613987154
14178000 29 18268986664808250687
14347332 77 18336257939092244690
14508225 48 18334856151576164660
14556957 393 17676783006450485060
14955137 171 18266751353817250267
16087824 20 18263642858869670685
16994733 274 14346061002614242215
17492 89 17838049669803573519
18643901 69 18201450151268230646
20871999 31 18261391122672424784
21267235 1 18410295856798679427
21637258 2 17203603813349519350
21641784 216 17458620086451534460
22182313 1 18118936269747552761
22224240 67 9727641609306644247
2297311 6 18410857659156698594
23379529 103 17836363022908364079
23402539 116 18409165519346406147
23503953 91 10735870682481018514
23557571 272 18342181033815897500
23559900 14 17703501211750736610
23622692 88 12463570686278752546
2838139 119 14923939025363800606
2916195 48 11386359352899903414
497634 4 18060429001792530912
56616090 284 18260270788969754322
59755656 215 18341331106769396022
59755656 520 18125728885111857688
7237137 82 18187077321957616900

>  <PUBCHEM_SHAPE_MULTIPOLES>  (1) 
410.47
13.09
2.8
1.32
22.54
2.05
-0.1
-9.25
-5.76
-3.56
-0.91
0.19
-0.09
-0.14

>  <PUBCHEM_SHAPE_SELFOVERLAP>  (1) 
816.494

>  <PUBCHEM_SHAPE_VOLUME>  (1) 
245.5

>  <PUBCHEM_COORDINATE_TYPE>  (1) 
2
5
10

$$$$
