47274
     RDKit          3D

 19 19  0  0  0  0  0  0  0  0999 V2000
   -0.1578    0.5040   -1.7235 S   0  0  0  0  0  0  0  0  0  0  0  0
   -4.0411   -2.1361    0.9900 O   0  0  0  0  0  0  0  0  0  0  0  0
    3.5075   -0.0300    0.1312 N   0  0  0  0  0  0  0  0  0  0  0  0
   -2.2473   -1.2409   -0.2490 N   0  0  0  0  0  0  0  0  0  0  0  0
    2.4704    0.0096   -0.9819 C   0  0  0  0  0  0  0  0  0  0  0  0
    3.7112    1.3729    0.6852 C   0  0  0  0  0  0  0  0  0  0  0  0
    4.8252   -0.5534   -0.4219 C   0  0  0  0  0  0  0  0  0  0  0  0
    3.0233   -0.9491    1.2434 C   0  0  0  0  0  0  0  0  0  0  0  0
    1.1233    0.4520   -0.4343 C   0  0  0  0  0  0  0  0  0  0  0  0
    4.7430    1.3269    1.7909 C   0  0  0  0  0  0  0  0  0  0  0  0
    4.6164   -1.9477   -0.9708 C   0  0  0  0  0  0  0  0  0  0  0  0
   -1.5809    1.0449   -0.7840 C   0  0  0  0  0  0  0  0  0  0  0  0
   -2.4463    0.1412   -0.1659 C   0  0  0  0  0  0  0  0  0  0  0  0
   -1.8153    2.4166   -0.6780 C   0  0  0  0  0  0  0  0  0  0  0  0
   -3.5440    0.6085    0.5569 C   0  0  0  0  0  0  0  0  0  0  0  0
   -2.9129    2.8837    0.0450 C   0  0  0  0  0  0  0  0  0  0  0  0
   -3.7772    1.9798    0.6623 C   0  0  0  0  0  0  0  0  0  0  0  0
   -3.0253   -2.2587    0.3134 C   0  0  0  0  0  0  0  0  0  0  0  0
   -2.4723   -3.6242   -0.0089 C   0  0  0  0  0  0  0  0  0  0  0  0
  1  9  1  0
  1 12  1  0
  2 18  2  0
  3  5  1  0
  3  6  1  0
  3  7  1  0
  3  8  1  0
  4 13  1  0
  4 18  1  0
  5  9  1  0
  6 10  1  0
  7 11  1  0
 12 13  2  0
 12 14  1  0
 13 15  1  0
 14 16  2  0
 15 17  2  0
 16 17  1  0
 18 19  1  0
M  CHG  1   3   1
M  END
>  <PUBCHEM_COMPOUND_CID>  (1) 
47274

>  <PUBCHEM_CONFORMER_RMSD>  (1) 
0.8

>  <PUBCHEM_CONFORMER_DIVERSEORDER>  (1) 
1
92
52
71
19
101
16
96
69
112
23
105
54
91
24
108
57
95
70
27
106
64
80
50
94
84
60
65
15
59
111
74
53
58
34
93
102
63
99
103
79
22
55
5
81
21
86
100
97
36
14
61
9
88
51
110
82
11
87
77
104
66
32
33
20
72
62
28
78
18
6
29
26
2
37
90
107
13
67
73
47
48
109
49
76
68
41
98
45
3
25
17
38
42
56
4
10
89
39
35
31
85
75
30
43
46
40
44
83
7
8
12

>  <PUBCHEM_MMFF94_PARTIAL_CHARGES>  (1) 
22
1 -0.33
12 0.1
13 0.12
14 -0.15
15 -0.15
16 -0.15
17 -0.15
18 0.57
19 0.06
2 -0.57
3 -1.01
37 0.15
38 0.15
39 0.15
4 -0.55
40 0.37
41 0.15
5 0.5
6 0.5
7 0.5
8 0.5
9 0.23

>  <PUBCHEM_EFFECTIVE_ROTOR_COUNT>  (1) 
8

>  <PUBCHEM_PHARMACOPHORE_FEATURES>  (1) 
4
1 2 acceptor
1 3 cation
1 4 donor
6 12 13 14 15 16 17 rings

>  <PUBCHEM_HEAVY_ATOM_COUNT>  (1) 
19

>  <PUBCHEM_ATOM_DEF_STEREO_COUNT>  (1) 
0

>  <PUBCHEM_ATOM_UDEF_STEREO_COUNT>  (1) 
0

>  <PUBCHEM_BOND_DEF_STEREO_COUNT>  (1) 
0

>  <PUBCHEM_BOND_UDEF_STEREO_COUNT>  (1) 
0

>  <PUBCHEM_ISOTOPIC_ATOM_COUNT>  (1) 
0

>  <PUBCHEM_COMPONENT_COUNT>  (1) 
1

>  <PUBCHEM_CACTVS_TAUTO_COUNT>  (1) 
2

>  <PUBCHEM_CONFORMER_ID>  (1) 
0000B8AA00000001

>  <PUBCHEM_MMFF94_ENERGY>  (1) 
67.5748

>  <PUBCHEM_FEATURE_SELFOVERLAP>  (1) 
20.297

>  <PUBCHEM_SHAPE_FINGERPRINT>  (1) 
10319926 262 18340757175201355482
10366900 7 18201992218457486876
10616163 171 18335144180435637342
11045977 3 18272369750280883908
11265709 11 18193278726948084799
11370993 144 18131075887619474560
11405975 8 18342454799405322832
11552529 35 18130787901266972166
12500047 106 18265895765665612100
12553582 1 16877666747054192196
12596599 1 18040712584704733276
12633257 1 18266451014906286402
13583140 156 18060696200123596780
13675066 3 18202560662227993628
14081887 123 18337663226009366250
14178342 30 18261384542719100338
14289901 80 18334579066214149336
14341114 176 18341057324369106844
14420673 8 18121225268805953150
15042514 8 18335152994525524219
15295992 7 17704066261937974704
15537594 2 17531254907104118010
1813 80 17240484748975229981
20281475 54 18040151799630983558
21033648 29 18120081797781928708
21065198 57 18341332215102651180
21065199 12 18343581858811033784
21650355 55 18409733997598133109
23503953 91 18260547818539327428
23557571 272 18340777021606796366
23559900 14 18340495473916530492
23598291 2 17749970932337079564
23728640 28 18335710420935010979
27216 239 17774996891033520381
312423 11 17968675919863090996
49207404 50 18131631214301318764
5104073 3 18341607106131718632
56616090 89 18042397113769849053
58807428 26 18121235190438272089
5924683 9 18341606049179672015
602551 16 18408326570990174094
7097593 13 18188205408055514908
90127 26 17775282760041154884
9709674 26 18342736308325112038

>  <PUBCHEM_SHAPE_MULTIPOLES>  (1) 
379.03
10.63
3.39
1.35
9.64
1.98
-0.02
0.83
-2.92
-4.36
-0.41
1.05
-0.22
1.56

>  <PUBCHEM_SHAPE_SELFOVERLAP>  (1) 
738.683

>  <PUBCHEM_SHAPE_VOLUME>  (1) 
231.5

>  <PUBCHEM_COORDINATE_TYPE>  (1) 
2
5
10

$$$$
