47285
     RDKit          3D

 17 17  0  0  0  0  0  0  0  0999 V2000
    2.6248   -0.5087   -1.5839 O   0  0  0  0  0  0  0  0  0  0  0  0
   -0.7647   -0.3028    1.6594 O   0  0  0  0  0  0  0  0  0  0  0  0
    1.7958    3.3828    0.7022 O   0  0  0  0  0  0  0  0  0  0  0  0
    2.1431    1.4611   -0.5110 N   0  0  0  0  0  0  0  0  0  0  0  0
    0.4503    1.5637    1.1096 N   0  0  0  0  0  0  0  0  0  0  0  0
    0.5128   -0.3690   -0.4006 C   0  0  0  0  0  0  0  0  0  0  0  0
    0.5802   -1.8941   -0.2334 C   0  0  0  0  0  0  0  0  0  0  0  0
   -0.5130   -0.0221   -1.4944 C   0  0  0  0  0  0  0  0  0  0  0  0
    1.8656    0.1520   -0.8755 C   0  0  0  0  0  0  0  0  0  0  0  0
    0.0156    0.2643    0.8950 C   0  0  0  0  0  0  0  0  0  0  0  0
    1.6119   -2.2815    0.8160 C   0  0  0  0  0  0  0  0  0  0  0  0
   -1.8877   -0.4320   -1.0791 C   0  0  0  0  0  0  0  0  0  0  0  0
    1.6957   -3.7923    0.9640 C   0  0  0  0  0  0  0  0  0  0  0  0
    1.4741    2.2227    0.4396 C   0  0  0  0  0  0  0  0  0  0  0  0
   -2.9051    0.4301   -0.9355 C   0  0  0  0  0  0  0  0  0  0  0  0
   -4.2812    0.0299   -0.4928 C   0  0  0  0  0  0  0  0  0  0  0  0
   -4.4183    0.0959    1.0203 C   0  0  0  0  0  0  0  0  0  0  0  0
  1  9  2  0
  2 10  2  0
  3 14  2  0
  4  9  1  0
  4 14  1  0
  5 10  1  0
  5 14  1  0
  6  7  1  0
  6  8  1  0
  6  9  1  0
  6 10  1  0
  7 11  1  0
  8 12  1  0
 11 13  1  0
 12 15  2  0
 15 16  1  0
 16 17  1  0
M  END
>  <PUBCHEM_COMPOUND_CID>  (1) 
47285

>  <PUBCHEM_CONFORMER_RMSD>  (1) 
0.8

>  <PUBCHEM_CONFORMER_DIVERSEORDER>  (1) 
1
14
16
11
15
6
8
13
5
12
3
2
7
4
10
9

>  <PUBCHEM_MMFF94_PARTIAL_CHARGES>  (1) 
17
1 -0.57
10 0.57
12 -0.29
14 0.69
15 -0.29
16 0.14
2 -0.57
24 0.15
25 0.37
26 0.37
3 -0.57
30 0.15
4 -0.49
5 -0.49
6 0.12
8 0.14
9 0.57

>  <PUBCHEM_EFFECTIVE_ROTOR_COUNT>  (1) 
5.6

>  <PUBCHEM_PHARMACOPHORE_FEATURES>  (1) 
8
1 1 acceptor
1 13 hydrophobe
1 17 hydrophobe
1 2 acceptor
1 3 acceptor
1 4 donor
1 5 donor
6 4 5 6 9 10 14 rings

>  <PUBCHEM_HEAVY_ATOM_COUNT>  (1) 
17

>  <PUBCHEM_ATOM_DEF_STEREO_COUNT>  (1) 
0

>  <PUBCHEM_ATOM_UDEF_STEREO_COUNT>  (1) 
0

>  <PUBCHEM_BOND_DEF_STEREO_COUNT>  (1) 
0

>  <PUBCHEM_BOND_UDEF_STEREO_COUNT>  (1) 
1

>  <PUBCHEM_ISOTOPIC_ATOM_COUNT>  (1) 
0

>  <PUBCHEM_COMPONENT_COUNT>  (1) 
1

>  <PUBCHEM_CACTVS_TAUTO_COUNT>  (1) 
5

>  <PUBCHEM_CONFORMER_ID>  (1) 
0000B8B500000001

>  <PUBCHEM_MMFF94_ENERGY>  (1) 
34.327

>  <PUBCHEM_FEATURE_SELFOVERLAP>  (1) 
40.636

>  <PUBCHEM_SHAPE_FINGERPRINT>  (1) 
12423570 1 10640952467325908292
13132413 78 18055326103507672440
13134695 92 18049696573877079079
13533116 47 18334014953052474339
16945 1 18337098008334350591
19078846 21 18057605365669328497
19765921 60 17985819573925107361
201361 129 18341331175725729797
20233049 118 16773799165033531865
20820808 20 18200590435785006497
21041028 32 18050281471255716397
21524375 3 17840565313209361053
22112679 90 17840598002273749730
22344851 341 18198049477134659278
2255824 54 18343014514942538647
23419403 2 17027165057996945298
23558518 356 17835513104429210967
25 1 18057327394858852452
2748010 2 17122566714517892260
305870 269 18193815223485695605
458136 41 18260839236338460759
6442390 28 18047480212023416107
7364860 26 18336531746971953199
81228 2 16896495617101973662

>  <PUBCHEM_SHAPE_MULTIPOLES>  (1) 
322.28
5.26
3.16
1.5
8.36
0.46
-0.05
0.75
-0.04
-4.19
1.54
0.09
0.02
-0.21

>  <PUBCHEM_SHAPE_SELFOVERLAP>  (1) 
651.82

>  <PUBCHEM_SHAPE_VOLUME>  (1) 
185.6

>  <PUBCHEM_COORDINATE_TYPE>  (1) 
2
5
10

$$$$
