47298
     RDKit          3D

 15 17  0  0  0  0  0  0  0  0999 V2000
   -1.4075    2.5513   -0.0001 Cl  0  0  0  0  0  0  0  0  0  0  0  0
   -4.2820    1.0419   -0.0007 Cl  0  0  0  0  0  0  0  0  0  0  0  0
    0.7688   -1.8660    0.0000 O   0  0  0  0  0  0  0  0  0  0  0  0
   -0.3667    0.0897    0.0001 C   0  0  0  0  0  0  0  0  0  0  0  0
    1.0290    0.3804    0.0001 C   0  0  0  0  0  0  0  0  0  0  0  0
   -0.4691   -1.2980    0.0000 C   0  0  0  0  0  0  0  0  0  0  0  0
    1.6770   -0.8508   -0.0001 C   0  0  0  0  0  0  0  0  0  0  0  0
   -1.5521    0.8478    0.0004 C   0  0  0  0  0  0  0  0  0  0  0  0
    1.8130    1.5489    0.0003 C   0  0  0  0  0  0  0  0  0  0  0  0
   -1.6776   -1.9927    0.0002 C   0  0  0  0  0  0  0  0  0  0  0  0
    3.0622   -1.0053   -0.0004 C   0  0  0  0  0  0  0  0  0  0  0  0
   -2.7825    0.1770    0.0001 C   0  0  0  0  0  0  0  0  0  0  0  0
   -2.8414   -1.2185    0.0002 C   0  0  0  0  0  0  0  0  0  0  0  0
    3.2089    1.4251    0.0003 C   0  0  0  0  0  0  0  0  0  0  0  0
    3.8201    0.1693   -0.0003 C   0  0  0  0  0  0  0  0  0  0  0  0
  1  8  1  0
  2 12  1  0
  3  6  1  0
  3  7  1  0
  4  5  1  0
  4  6  2  0
  4  8  1  0
  5  7  2  0
  5  9  1  0
  6 10  1  0
  7 11  1  0
  8 12  2  0
  9 14  2  0
 10 13  2  0
 11 15  2  0
 12 13  1  0
 14 15  1  0
M  END
>  <PUBCHEM_COMPOUND_CID>  (1) 
47298

>  <PUBCHEM_CONFORMER_RMSD>  (1) 
0.4

>  <PUBCHEM_CONFORMER_DIVERSEORDER>  (1) 
1

>  <PUBCHEM_MMFF94_PARTIAL_CHARGES>  (1) 
19
1 -0.18
10 -0.15
11 -0.15
12 0.18
13 -0.15
14 -0.15
15 -0.15
16 0.15
17 0.15
18 0.15
19 0.15
2 -0.18
20 0.15
21 0.15
3 -0.28
6 0.14
7 0.14
8 0.18
9 -0.15

>  <PUBCHEM_EFFECTIVE_ROTOR_COUNT>  (1) 
0

>  <PUBCHEM_PHARMACOPHORE_FEATURES>  (1) 
4
1 3 acceptor
5 3 4 5 6 7 rings
6 4 6 8 10 12 13 rings
6 5 7 9 11 14 15 rings

>  <PUBCHEM_HEAVY_ATOM_COUNT>  (1) 
15

>  <PUBCHEM_ATOM_DEF_STEREO_COUNT>  (1) 
0

>  <PUBCHEM_ATOM_UDEF_STEREO_COUNT>  (1) 
0

>  <PUBCHEM_BOND_DEF_STEREO_COUNT>  (1) 
0

>  <PUBCHEM_BOND_UDEF_STEREO_COUNT>  (1) 
0

>  <PUBCHEM_ISOTOPIC_ATOM_COUNT>  (1) 
0

>  <PUBCHEM_COMPONENT_COUNT>  (1) 
1

>  <PUBCHEM_CACTVS_TAUTO_COUNT>  (1) 
1

>  <PUBCHEM_CONFORMER_ID>  (1) 
0000B8C200000001

>  <PUBCHEM_MMFF94_ENERGY>  (1) 
33.0584

>  <PUBCHEM_FEATURE_SELFOVERLAP>  (1) 
20.499

>  <PUBCHEM_SHAPE_FINGERPRINT>  (1) 
10411042 1 15384155444656693216
10608611 8 18411979199840820216
10967382 1 18338516339584549605
11132069 177 18413102883412533056
11471102 20 18411133606626628437
12251169 10 18335133159902477154
12382932 28 18411141363543221937
13140716 1 18410009978636114410
13221675 6 18410575067488523483
13380535 76 18411981338771476383
13897977 150 18411696616852139989
14144814 61 18410573994031562218
14325111 11 18410856602658073280
14897335 6 18411978061721764655
15196674 1 18410856585414874596
15219456 202 18411985783872619699
15442244 35 18265893554089893826
15536298 74 18342739632946238470
15775835 57 18410860966281652968
16945 1 18410575037429209030
17804303 29 18411704279305748782
18186145 218 18341616996824339196
193761 8 17906452125774307846
200 152 17846210072936066863
20510252 161 18342460369439985161
21267235 1 18337963379772895343
21501502 16 18410853299923324110
21524375 3 18341049614638715611
2334 1 18194683897795659043
23402539 116 18342728633065599277
23402655 69 18270952450376594061
23463225 33 18407758157674620404
23557571 272 18200605815951994070
23559900 14 18272088314728804392
238 59 16165494103300256829
25 1 18409445852009463647
2748010 2 18267867365981214343
335352 9 18338516318199436318
5104073 3 18410011061004822810
528886 8 18411695504191710491
53812653 166 18413385440879192912
69090 78 18413102853685313543
7364860 26 18269274560777360774
8809292 202 18334298673173480650
9709674 26 18413112774780699270

>  <PUBCHEM_SHAPE_MULTIPOLES>  (1) 
306.56
6.35
2.29
0.62
0.05
0.33
0
1.31
0
0.64
0
0.02
0.02
0

>  <PUBCHEM_SHAPE_SELFOVERLAP>  (1) 
676.128

>  <PUBCHEM_SHAPE_VOLUME>  (1) 
167.7

>  <PUBCHEM_COORDINATE_TYPE>  (1) 
2
5
10

$$$$
