47295
     RDKit          3D

 18 18  0  0  0  0  0  0  0  0999 V2000
   -4.5888    0.5783    0.4034 O   0  0  0  0  0  0  0  0  0  0  0  0
   -3.0555   -0.6324    1.5645 O   0  0  0  0  0  0  0  0  0  0  0  0
   -1.6211   -1.2239   -0.6298 N   0  0  0  0  0  0  0  0  0  0  0  0
    0.8628    2.7173   -0.0944 N   0  0  0  0  0  0  0  0  0  0  0  0
    2.9836   -1.4529    0.2266 N   0  0  0  0  0  0  0  0  0  0  0  0
    0.6795   -1.3702   -0.2012 N   0  0  0  0  0  0  0  0  0  0  0  0
   -0.4056    0.7636   -0.3658 N   0  0  0  0  0  0  0  0  0  0  0  0
    1.9506    0.6466    0.0725 N   0  0  0  0  0  0  0  0  0  0  0  0
   -0.3893   -0.5789   -0.3869 C   0  0  0  0  0  0  0  0  0  0  0  0
    0.8002    1.3243   -0.1304 C   0  0  0  0  0  0  0  0  0  0  0  0
    1.8144   -0.6884    0.0231 C   0  0  0  0  0  0  0  0  0  0  0  0
   -2.8282   -0.4474   -0.8280 C   0  0  0  0  0  0  0  0  0  0  0  0
   -1.6957   -2.6702   -0.6697 C   0  0  0  0  0  0  0  0  0  0  0  0
    2.1237    3.4047    0.1531 C   0  0  0  0  0  0  0  0  0  0  0  0
   -0.3283    3.5271   -0.3169 C   0  0  0  0  0  0  0  0  0  0  0  0
    4.2525   -0.7993    0.4744 C   0  0  0  0  0  0  0  0  0  0  0  0
    2.9255   -2.9004    0.2039 C   0  0  0  0  0  0  0  0  0  0  0  0
   -3.4803   -0.1980    0.5017 C   0  0  0  0  0  0  0  0  0  0  0  0
  1 18  1  0
  2 18  2  0
  3  9  1  0
  3 12  1  0
  3 13  1  0
  4 10  1  0
  4 14  1  0
  4 15  1  0
  5 11  1  0
  5 16  1  0
  5 17  1  0
  6  9  2  0
  6 11  1  0
  7  9  1  0
  7 10  2  0
  8 10  1  0
  8 11  2  0
 12 18  1  0
M  END
>  <PUBCHEM_COMPOUND_CID>  (1) 
47295

>  <PUBCHEM_CONFORMER_RMSD>  (1) 
0.6

>  <PUBCHEM_CONFORMER_DIVERSEORDER>  (1) 
2
43
58
36
61
54
3
33
34
56
7
39
32
49
21
22
64
46
37
52
62
35
59
45
26
53
8
25
18
48
60
55
13
57
40
20
29
38
10
14
47
19
63
11
42
41
1
6
30
24
4
17
9
16
44
31
15
23
27
12
5
51
50
28

>  <PUBCHEM_MMFF94_PARTIAL_CHARGES>  (1) 
19
1 -0.65
10 0.72
11 0.72
12 0.43
13 0.37
14 0.37
15 0.37
16 0.37
17 0.37
18 0.66
2 -0.57
3 -0.84
36 0.5
4 -0.84
5 -0.84
6 -0.62
7 -0.62
8 -0.62
9 0.72

>  <PUBCHEM_EFFECTIVE_ROTOR_COUNT>  (1) 
5

>  <PUBCHEM_PHARMACOPHORE_FEATURES>  (1) 
7
1 1 acceptor
1 2 acceptor
3 1 2 18 anion
4 3 6 7 9 cation
4 4 7 8 10 cation
4 5 6 8 11 cation
6 6 7 8 9 10 11 rings

>  <PUBCHEM_HEAVY_ATOM_COUNT>  (1) 
18

>  <PUBCHEM_ATOM_DEF_STEREO_COUNT>  (1) 
0

>  <PUBCHEM_ATOM_UDEF_STEREO_COUNT>  (1) 
0

>  <PUBCHEM_BOND_DEF_STEREO_COUNT>  (1) 
0

>  <PUBCHEM_BOND_UDEF_STEREO_COUNT>  (1) 
0

>  <PUBCHEM_ISOTOPIC_ATOM_COUNT>  (1) 
0

>  <PUBCHEM_COMPONENT_COUNT>  (1) 
1

>  <PUBCHEM_CACTVS_TAUTO_COUNT>  (1) 
1

>  <PUBCHEM_CONFORMER_ID>  (1) 
0000B8BF00000002

>  <PUBCHEM_MMFF94_ENERGY>  (1) 
69.3857

>  <PUBCHEM_FEATURE_SELFOVERLAP>  (1) 
35.708

>  <PUBCHEM_SHAPE_FINGERPRINT>  (1) 
10967382 1 18410849980076959374
11357001 24 17903912258515321274
12251169 10 18342175578870178679
12507560 14 18342175523267517639
12553582 1 18410848837769094158
12788726 201 18117560622383183154
13140716 1 18266454489613859186
14022347 108 18265064543692353286
14178342 30 18125985303344049114
14790565 3 18048601709811014900
15042514 8 17760646962994651994
15375462 189 18187076235426193738
15442244 35 18341047505793910135
16945 1 18410848897492045254
17357990 137 17773063971166479441
20097449 115 18408602535244288444
201361 129 18124039184789715161
20510252 161 18126276438007825666
20671657 1 18267870656047605957
21029758 27 18335990787361642908
21041028 32 18335988570942526012
21501502 16 18196649824808006655
21524375 3 17407407295751224629
21665062 11 18339375118691199369
22094290 62 18341336677505067397
23184049 59 18271246023775231555
2334 1 17906446980688350030
23557571 272 18200316486376897894
23598291 2 18058161915609899854
23598294 1 18048589327250625258
2748010 2 17981318993759875342
305870 269 18050569843617926349
3071541 12 18267020755308647020
3091708 16 9429929044766131592
34934 24 18410846655851913102
352729 6 17547281208344177892
4175511 71 18411424985718782871
54173680 148 17833267524070885796
57426455 70 18337678507677494195
69474 34 18412536600791401928
6992083 37 18272088296921421623
7364860 26 18194957667885870980
74978 22 18340768259963540847
7832392 63 18341048626606392047
81228 2 18047186358956038160
84936 182 17841711012920908184

>  <PUBCHEM_SHAPE_MULTIPOLES>  (1) 
328.81
6.38
3.96
0.84
2.22
3.16
-0.14
-2.69
-1.7
-2.61
0.38
0.59
-0.16
-0.36

>  <PUBCHEM_SHAPE_SELFOVERLAP>  (1) 
661.444

>  <PUBCHEM_SHAPE_VOLUME>  (1) 
191.3

>  <PUBCHEM_COORDINATE_TYPE>  (1) 
2
5
10

$$$$
