47305
     RDKit          3D

 16 17  0  0  0  0  0  0  0  0999 V2000
   -0.2479    1.3502    0.0974 S   0  0  0  0  0  0  0  0  0  0  0  0
    2.7791    1.0249    0.0873 S   0  0  0  0  0  0  0  0  0  0  0  0
    6.0681   -0.9391   -0.6426 O   0  0  0  0  0  0  0  0  0  0  0  0
    5.6908    0.9240    0.6030 O   0  0  0  0  0  0  0  0  0  0  0  0
   -0.4227   -1.1998   -0.0813 N   0  0  0  0  0  0  0  0  0  0  0  0
    0.9322   -0.9191   -0.0575 N   0  0  0  0  0  0  0  0  0  0  0  0
   -2.5897   -0.0490   -0.0070 C   0  0  0  0  0  0  0  0  0  0  0  0
   -1.1482   -0.1053   -0.0068 C   0  0  0  0  0  0  0  0  0  0  0  0
   -3.3314   -1.1825    0.3261 C   0  0  0  0  0  0  0  0  0  0  0  0
   -3.2417    1.1380   -0.3411 C   0  0  0  0  0  0  0  0  0  0  0  0
   -4.7255   -1.1288    0.3253 C   0  0  0  0  0  0  0  0  0  0  0  0
   -4.6356    1.1915   -0.3420 C   0  0  0  0  0  0  0  0  0  0  0  0
    1.1608    0.3736    0.0335 C   0  0  0  0  0  0  0  0  0  0  0  0
   -5.3777    0.0583   -0.0085 C   0  0  0  0  0  0  0  0  0  0  0  0
    3.8210   -0.4677   -0.0106 C   0  0  0  0  0  0  0  0  0  0  0  0
    5.2684   -0.0692    0.0249 C   0  0  0  0  0  0  0  0  0  0  0  0
  1  8  1  0
  1 13  1  0
  2 13  1  0
  2 15  1  0
  3 16  1  0
  4 16  2  0
  5  6  1  0
  5  8  2  0
  6 13  2  0
  7  8  1  0
  7  9  2  0
  7 10  1  0
  9 11  1  0
 10 12  2  0
 11 14  2  0
 12 14  1  0
 15 16  1  0
M  END
>  <PUBCHEM_COMPOUND_CID>  (1) 
47305

>  <PUBCHEM_CONFORMER_RMSD>  (1) 
0.6

>  <PUBCHEM_CONFORMER_DIVERSEORDER>  (1) 
1
27
24
29
14
15
18
20
13
8
23
3
2
22
5
25
19
4
6
21
11
16
12
26
17
7
28
10
9

>  <PUBCHEM_MMFF94_PARTIAL_CHARGES>  (1) 
22
1 -0.08
10 -0.15
11 -0.15
12 -0.15
13 0.43
14 -0.15
15 0.29
16 0.66
17 0.15
18 0.15
19 0.15
2 -0.29
20 0.15
21 0.15
24 0.5
3 -0.65
4 -0.57
5 -0.34
6 -0.34
7 0.05
8 0.33
9 -0.15

>  <PUBCHEM_EFFECTIVE_ROTOR_COUNT>  (1) 
4

>  <PUBCHEM_PHARMACOPHORE_FEATURES>  (1) 
7
1 3 acceptor
1 4 acceptor
1 5 acceptor
1 6 acceptor
3 3 4 16 anion
5 1 5 6 8 13 rings
6 7 9 10 11 12 14 rings

>  <PUBCHEM_HEAVY_ATOM_COUNT>  (1) 
16

>  <PUBCHEM_ATOM_DEF_STEREO_COUNT>  (1) 
0

>  <PUBCHEM_ATOM_UDEF_STEREO_COUNT>  (1) 
0

>  <PUBCHEM_BOND_DEF_STEREO_COUNT>  (1) 
0

>  <PUBCHEM_BOND_UDEF_STEREO_COUNT>  (1) 
0

>  <PUBCHEM_ISOTOPIC_ATOM_COUNT>  (1) 
0

>  <PUBCHEM_COMPONENT_COUNT>  (1) 
1

>  <PUBCHEM_CACTVS_TAUTO_COUNT>  (1) 
1

>  <PUBCHEM_CONFORMER_ID>  (1) 
0000B8C900000001

>  <PUBCHEM_MMFF94_ENERGY>  (1) 
29.4204

>  <PUBCHEM_FEATURE_SELFOVERLAP>  (1) 
37.074

>  <PUBCHEM_SHAPE_FINGERPRINT>  (1) 
11287383 113 18410575115213289696
11315181 36 18343868822455457097
11401426 45 18413669119015838189
12107183 9 17394153344603536880
12236239 1 17603585223022749932
13288520 33 18408605872871441549
13533116 47 14548747166939045606
13675066 3 18342172310499981480
13862211 1 18411414020841583254
14123238 8 16950281802019191136
1420 363 18343868814034099910
14251718 22 18259704514637272936
14251731 8 18334294257888902508
15042514 8 18191310592613509787
15196674 1 18409449232059334109
17834072 33 17968098650741873028
17834072 8 18409727348339691676
17834076 25 16081087077962698953
17844677 252 18411425016090015688
19489759 90 17967813842691212033
200 152 17704070685669822041
20645477 70 17988648437556382382
21267235 1 18334582373723751403
21709351 56 18260823821859130477
220451 1 17385444302157650050
2297311 6 18408891723982334325
23035841 295 18261111850713295842
23402539 116 18201714067896109781
23536379 177 18113053822809705576
23557571 272 18114181895711732501
23559900 14 18339636836412426449
3004659 81 18261114046354148446
3545911 37 18407759223137752653
4214541 1 18408040710709474725
42788 4 18410855464708004680
4463277 17 18409730673066495088
5104073 3 18336266841989724745
542803 24 16370725924256815932
59755656 215 18410295770477457326

>  <PUBCHEM_SHAPE_MULTIPOLES>  (1) 
315.27
13.99
1.4
0.67
12.29
0.08
0
-1
-0.23
-0.6
0
0.1
0.02
0.72

>  <PUBCHEM_SHAPE_SELFOVERLAP>  (1) 
642.428

>  <PUBCHEM_SHAPE_VOLUME>  (1) 
184

>  <PUBCHEM_COORDINATE_TYPE>  (1) 
2
5
10

$$$$
