47303
     RDKit          3D

 21 24  0  0  0  0  0  0  0  0999 V2000
   -1.5644    0.1135   -0.0078 O   0  0  0  0  0  0  0  0  0  0  0  0
   -2.3166   -2.0118    0.4578 O   0  0  0  0  0  0  0  0  0  0  0  0
   -6.4100    0.8309   -0.1734 N   0  0  0  0  0  0  0  0  0  0  0  0
    2.1682    0.4590   -0.0982 C   0  0  0  0  0  0  0  0  0  0  0  0
    3.9753   -0.5560    1.3607 C   0  0  0  0  0  0  0  0  0  0  0  0
    3.9743   -0.9960   -1.1207 C   0  0  0  0  0  0  0  0  0  0  0  0
    4.5565    1.2952   -0.2475 C   0  0  0  0  0  0  0  0  0  0  0  0
    2.4928   -0.1509    1.2861 C   0  0  0  0  0  0  0  0  0  0  0  0
    2.4918   -0.5897   -1.1885 C   0  0  0  0  0  0  0  0  0  0  0  0
    3.0723    1.6951   -0.3179 C   0  0  0  0  0  0  0  0  0  0  0  0
    4.2726   -1.5929    0.2647 C   0  0  0  0  0  0  0  0  0  0  0  0
    4.8517    0.6869    1.1335 C   0  0  0  0  0  0  0  0  0  0  0  0
    4.8507    0.2491   -1.3354 C   0  0  0  0  0  0  0  0  0  0  0  0
    0.6926    0.8608   -0.1688 C   0  0  0  0  0  0  0  0  0  0  0  0
   -0.2164   -0.3248    0.0903 C   0  0  0  0  0  0  0  0  0  0  0  0
   -2.5192   -0.8355    0.1992 C   0  0  0  0  0  0  0  0  0  0  0  0
   -3.8786   -0.2530    0.0681 C   0  0  0  0  0  0  0  0  0  0  0  0
   -4.9067   -1.0517   -0.3749 C   0  0  0  0  0  0  0  0  0  0  0  0
   -4.0722    1.0688    0.3946 C   0  0  0  0  0  0  0  0  0  0  0  0
   -6.1559   -0.4614   -0.4786 C   0  0  0  0  0  0  0  0  0  0  0  0
   -5.3587    1.5642    0.2565 C   0  0  0  0  0  0  0  0  0  0  0  0
  1 15  1  0
  1 16  1  0
  2 16  2  0
  3 20  2  0
  3 21  1  0
  4  8  1  0
  4  9  1  0
  4 10  1  0
  4 14  1  0
  5  8  1  0
  5 11  1  0
  5 12  1  0
  6  9  1  0
  6 11  1  0
  6 13  1  0
  7 10  1  0
  7 12  1  0
  7 13  1  0
 14 15  1  0
 16 17  1  0
 17 18  2  0
 17 19  1  0
 18 20  1  0
 19 21  2  0
M  END
>  <PUBCHEM_COMPOUND_CID>  (1) 
47303

>  <PUBCHEM_CONFORMER_RMSD>  (1) 
0.8

>  <PUBCHEM_CONFORMER_DIVERSEORDER>  (1) 
1
15
6
9
7
17
2
14
5
10
16
8
4
11
3
12
13

>  <PUBCHEM_MMFF94_PARTIAL_CHARGES>  (1) 
14
1 -0.43
15 0.28
16 0.63
17 0.09
18 -0.15
19 -0.15
2 -0.57
20 0.16
21 0.16
3 -0.62
41 0.15
42 0.15
43 0.15
44 0.15

>  <PUBCHEM_EFFECTIVE_ROTOR_COUNT>  (1) 
6.2

>  <PUBCHEM_PHARMACOPHORE_FEATURES>  (1) 
7
1 2 acceptor
1 3 acceptor
6 3 17 18 19 20 21 rings
6 4 5 6 8 9 11 rings
6 4 5 7 8 10 12 rings
6 4 6 7 9 10 13 rings
6 5 6 7 11 12 13 rings

>  <PUBCHEM_HEAVY_ATOM_COUNT>  (1) 
21

>  <PUBCHEM_ATOM_DEF_STEREO_COUNT>  (1) 
0

>  <PUBCHEM_ATOM_UDEF_STEREO_COUNT>  (1) 
0

>  <PUBCHEM_BOND_DEF_STEREO_COUNT>  (1) 
0

>  <PUBCHEM_BOND_UDEF_STEREO_COUNT>  (1) 
0

>  <PUBCHEM_ISOTOPIC_ATOM_COUNT>  (1) 
0

>  <PUBCHEM_COMPONENT_COUNT>  (1) 
1

>  <PUBCHEM_CACTVS_TAUTO_COUNT>  (1) 
1

>  <PUBCHEM_CONFORMER_ID>  (1) 
0000B8C700000001

>  <PUBCHEM_MMFF94_ENERGY>  (1) 
59.7254

>  <PUBCHEM_FEATURE_SELFOVERLAP>  (1) 
48.039

>  <PUBCHEM_SHAPE_FINGERPRINT>  (1) 
10366900 7 16486983911712464402
11089746 13 18334008419251922881
12107183 9 17760926238890130921
12166972 35 17775006812529307033
12236239 1 17894629258209662347
12516196 113 17917991693956229753
12596602 18 17603870026820837033
12616971 3 13695867073134125706
12916748 109 18408045113330320289
13073987 5 18408603665042058331
13533116 47 14548746075226061582
13668630 136 16128664054287910685
1420 363 9367343743533356189
14528608 73 18411136948274805935
14573314 32 17989208131481143329
15142383 8 16443334352198268452
15183329 4 18410293593123742589
15788980 27 17988924479066692599
17349148 13 18131075926390348161
17844677 252 18272656748759649777
18222031 100 13686300175231855378
19489759 90 18131069329710796369
200 152 14476964476113660651
20281389 69 18040996220604193589
20645477 70 17418101983704313142
21033648 29 16773785975078053569
220451 1 17822015311198623331
22061861 79 16630529514194634397
23402539 116 18343295973277476253
23536379 177 18341894078476637521
23559900 14 18273218611843420480
239999 70 18272938224163381574
29717793 49 18343025475946906998
300161 21 18334009523111057448
3004659 81 18409451362826998782
34797466 226 17274546532693314861
351380 180 18273494581115175873
4073 2 18114186396732041466
4214541 1 18411420622496220709
5104073 3 18260550060585674361
522135 26 17821446855123352866
5283173 99 18059860502625591529
542803 24 18408603669289513565
8988823 20 16702295750488455472
90127 26 18334868220381226545

>  <PUBCHEM_SHAPE_MULTIPOLES>  (1) 
415.45
15.95
1.57
1.11
18.88
0.01
0.04
-1.62
-0.92
0.08
0.02
-1.58
0.11
-0.18

>  <PUBCHEM_SHAPE_SELFOVERLAP>  (1) 
905.392

>  <PUBCHEM_SHAPE_VOLUME>  (1) 
218.3

>  <PUBCHEM_COORDINATE_TYPE>  (1) 
2
5
10

$$$$
