47325
     RDKit          3D

 21 22  0  0  0  0  0  0  0  0999 V2000
    4.1111   -2.9133    1.3040 Cl  0  0  0  0  0  0  0  0  0  0  0  0
    4.9366    2.4522   -1.1899 Cl  0  0  0  0  0  0  0  0  0  0  0  0
    3.7062   -0.1142    0.0370 N   0  0  0  0  0  0  0  0  0  0  0  0
   -1.8384    0.6207   -0.2017 N   0  0  0  0  0  0  0  0  0  0  0  0
   -2.4244   -0.4303    0.1496 N   0  0  0  0  0  0  0  0  0  0  0  0
    4.3448   -1.1411   -0.7622 C   0  0  0  0  0  0  0  0  0  0  0  0
    4.5235    0.7276    0.8885 C   0  0  0  0  0  0  0  0  0  0  0  0
    2.3099    0.0727   -0.0233 C   0  0  0  0  0  0  0  0  0  0  0  0
    1.6178   -0.2175   -1.1990 C   0  0  0  0  0  0  0  0  0  0  0  0
    1.6204    0.5459    1.0930 C   0  0  0  0  0  0  0  0  0  0  0  0
    3.8103   -2.5197   -0.4071 C   0  0  0  0  0  0  0  0  0  0  0  0
    4.4016    2.1896    0.4889 C   0  0  0  0  0  0  0  0  0  0  0  0
    0.2362   -0.0346   -1.2586 C   0  0  0  0  0  0  0  0  0  0  0  0
    0.2388    0.7289    1.0337 C   0  0  0  0  0  0  0  0  0  0  0  0
   -0.4463    0.4377   -0.1419 C   0  0  0  0  0  0  0  0  0  0  0  0
   -3.8095   -0.2487    0.0905 C   0  0  0  0  0  0  0  0  0  0  0  0
   -4.5017   -0.5403   -1.0849 C   0  0  0  0  0  0  0  0  0  0  0  0
   -4.4991    0.2243    1.2068 C   0  0  0  0  0  0  0  0  0  0  0  0
   -5.8835   -0.3591   -1.1439 C   0  0  0  0  0  0  0  0  0  0  0  0
   -5.8809    0.4054    1.1479 C   0  0  0  0  0  0  0  0  0  0  0  0
   -6.5731    0.1138   -0.0275 C   0  0  0  0  0  0  0  0  0  0  0  0
  1 11  1  0
  2 12  1  0
  3  6  1  0
  3  7  1  0
  3  8  1  0
  4  5  2  0
  4 15  1  0
  5 16  1  0
  6 11  1  0
  7 12  1  0
  8  9  2  0
  8 10  1  0
  9 13  1  0
 10 14  2  0
 13 15  2  0
 14 15  1  0
 16 17  2  0
 16 18  1  0
 17 19  1  0
 18 20  2  0
 19 21  2  0
 20 21  1  0
M  END
>  <PUBCHEM_COMPOUND_CID>  (1) 
47325

>  <PUBCHEM_CONFORMER_RMSD>  (1) 
0.8

>  <PUBCHEM_CONFORMER_DIVERSEORDER>  (1) 
1
28
5
24
10
23
22
7
19
16
6
21
12
25
3
29
20
14
17
26
2
9
4
13
18
15
27
11
8

>  <PUBCHEM_MMFF94_PARTIAL_CHARGES>  (1) 
30
1 -0.29
10 -0.15
11 0.29
12 0.29
13 -0.15
14 -0.15
15 0.18
16 0.18
17 -0.15
18 -0.15
19 -0.15
2 -0.29
20 -0.15
21 -0.15
26 0.15
27 0.15
3 -0.84
32 0.15
33 0.15
34 0.15
35 0.15
36 0.15
37 0.15
38 0.15
4 -0.18
5 -0.18
6 0.37
7 0.37
8 0.1
9 -0.15

>  <PUBCHEM_EFFECTIVE_ROTOR_COUNT>  (1) 
7

>  <PUBCHEM_PHARMACOPHORE_FEATURES>  (1) 
3
1 3 cation
6 16 17 18 19 20 21 rings
6 8 9 10 13 14 15 rings

>  <PUBCHEM_HEAVY_ATOM_COUNT>  (1) 
21

>  <PUBCHEM_ATOM_DEF_STEREO_COUNT>  (1) 
0

>  <PUBCHEM_ATOM_UDEF_STEREO_COUNT>  (1) 
0

>  <PUBCHEM_BOND_DEF_STEREO_COUNT>  (1) 
0

>  <PUBCHEM_BOND_UDEF_STEREO_COUNT>  (1) 
0

>  <PUBCHEM_ISOTOPIC_ATOM_COUNT>  (1) 
0

>  <PUBCHEM_COMPONENT_COUNT>  (1) 
1

>  <PUBCHEM_CACTVS_TAUTO_COUNT>  (1) 
1

>  <PUBCHEM_CONFORMER_ID>  (1) 
0000B8DD00000001

>  <PUBCHEM_MMFF94_ENERGY>  (1) 
65.6464

>  <PUBCHEM_FEATURE_SELFOVERLAP>  (1) 
15.223

>  <PUBCHEM_SHAPE_FINGERPRINT>  (1) 
10554248 39 17988357062537629933
10912923 1 17917712400917558571
11796584 16 18411703171036095903
11823591 26 18266177430576244092
12107183 9 17269494040893781515
12166972 35 9151176467135492811
12236239 1 17275103942238865285
12596602 18 18413110580737791323
12730499 353 18260275174489539864
13533116 47 18408604730062312698
13955234 65 18334853918693843594
14528608 73 17346320448315048469
14863182 85 14851877050596348400
15183329 4 17989488498720126153
15250474 111 17703492368629949767
15788980 27 18408041789025561775
17834072 33 17346598603714361169
17844677 252 18335139748145348213
17857418 61 18202275871367972071
18222031 100 15698004049849089761
20281389 69 18060140917135594865
20645477 70 18343019965461992854
21315759 148 17968390012954715883
220451 1 18131356332157449111
22061861 79 18040995107854222919
2303208 19 17458354022302804179
23081809 10 17989207045281587917
23402539 116 17418371381749925505
23522609 53 17844555316759126233
23559900 14 18186811309300787484
239999 70 17530685411894636226
3004659 81 18202567246265210734
3411729 13 15912180175303744474
34797466 226 16588318176093328263
4072396 5 16917065512551935695
4073 2 18339079418761828875
4340502 62 18408880763653049986
465052 167 17989208122791320166
4990 188 16153715301366369675
5104073 3 18270679762222515425
542803 24 18202566198425026713
6025842 7 18409450297949396646
8272917 22 18341898502445933150
8988823 20 18409445873758652110

>  <PUBCHEM_SHAPE_MULTIPOLES>  (1) 
420.97
15.96
2.13
1.38
19.82
0.84
0
-0.4
0.12
-5.89
0.17
0.07
0.02
-0.98

>  <PUBCHEM_SHAPE_SELFOVERLAP>  (1) 
861.627

>  <PUBCHEM_SHAPE_VOLUME>  (1) 
243.1

>  <PUBCHEM_COORDINATE_TYPE>  (1) 
2
5
10

$$$$
