47349
     RDKit          3D

 23 24  0  0  1  0  0  0  0  0999 V2000
    1.0391   -1.2752    1.9128 O   0  0  0  0  0  0  0  0  0  0  0  0
    0.2756    1.9165   -0.7379 O   0  0  0  0  0  0  0  0  0  0  0  0
    1.7738    3.1756    0.3952 O   0  0  0  0  0  0  0  0  0  0  0  0
    1.4391   -0.3679   -0.1833 N   0  0  0  0  0  0  0  0  0  0  0  0
   -3.5901   -0.6335   -1.6352 N   0  0  0  0  0  0  0  0  0  0  0  0
    0.8987   -3.6787    0.2534 N   0  0  0  0  0  0  0  0  0  0  0  0
    3.6119    0.8479   -0.2556 C   0  0  0  0  0  0  0  0  0  0  0  0
    2.1618    0.7877    0.2840 C   0  0  0  0  0  0  0  0  0  0  0  0
    4.3798   -0.4392    0.1159 C   0  0  0  0  0  0  0  0  0  0  0  0
    0.1778   -2.4365   -0.0312 C   0  0  0  0  0  0  0  0  0  0  0  0
   -1.2761   -2.5285    0.4594 C   0  0  0  0  0  0  0  0  0  0  0  0
    3.6635    1.1232   -1.7647 C   0  0  0  0  0  0  0  0  0  0  0  0
   -2.1885   -1.5378   -0.2091 C   0  0  0  0  0  0  0  0  0  0  0  0
    0.9288   -1.3203    0.6885 C   0  0  0  0  0  0  0  0  0  0  0  0
   -2.4582   -0.2333    0.2451 C   0  0  0  0  0  0  0  0  0  0  0  0
    1.4042    2.0771   -0.0060 C   0  0  0  0  0  0  0  0  0  0  0  0
    5.8387   -0.4262   -0.3204 C   0  0  0  0  0  0  0  0  0  0  0  0
   -3.3499    0.3229   -0.6745 C   0  0  0  0  0  0  0  0  0  0  0  0
   -2.8830   -1.7720   -1.3553 C   0  0  0  0  0  0  0  0  0  0  0  0
   -2.0426    0.5459    1.3431 C   0  0  0  0  0  0  0  0  0  0  0  0
   -3.8487    1.6245   -0.5506 C   0  0  0  0  0  0  0  0  0  0  0  0
   -2.5332    1.8495    1.4800 C   0  0  0  0  0  0  0  0  0  0  0  0
   -3.4224    2.3785    0.5464 C   0  0  0  0  0  0  0  0  0  0  0  0
  1 14  2  0
  2 16  1  0
  3 16  2  0
  4  8  1  0
  4 14  1  0
  5 18  1  0
  5 19  1  0
  6 10  1  0
  7  8  1  0
  7  9  1  0
  7 12  1  0
  8 16  1  0
  9 17  1  0
 10 11  1  0
 10 14  1  0
 11 13  1  0
 13 15  1  0
 13 19  2  0
 15 18  2  0
 15 20  1  0
 18 21  1  0
 20 22  2  0
 21 23  2  0
 22 23  1  0
M  END
>  <PUBCHEM_COMPOUND_CID>  (1) 
47349

>  <PUBCHEM_CONFORMER_RMSD>  (1) 
1

>  <PUBCHEM_CONFORMER_DIVERSEORDER>  (1) 
1
164
192
72
276
321
122
299
103
173
44
59
25
88
74
45
272
69
216
324
35
102
202
56
71
131
181
125
330
303
41
54
322
11
145
155
70
33
284
315
311
293
84
163
119
55
34
229
199
36
162
129
76
130
193
17
285
27
304
226
23
43
20
106
214
301
244
237
120
65
115
169
271
7
223
241
314
219
273
47
13
139
239
261
281
222
308
211
12
297
165
136
180
87
81
254
174
225
310
57
73
15
262
60
329
137
143
286
217
259
19
18
49
300
126
252
51
150
110
89
9
75
48
170
83
111
146
243
151
138
294
246
224
112
287
290
160
127
316
105
166
203
4
157
175
121
178
26
215
269
263
327
275
251
172
114
240
62
277
227
313
182
31
295
231
5
6
248
14
176
267
61
135
268
97
104
185
210
264
207
305
77
257
16
92
220
96
270
117
288
184
279
298
302
179
280
318
67
68
161
123
85
325
29
306
328
147
141
24
37
213
212
153
191
266
53
188
278
28
186
3
93
21
94
204
66
253
274
144
332
52
38
39
100
317
113
320
218
128
309
118
8
200
230
134
208
256
132
249
95
30
234
331
108
50
205
98
190
91
323
168
177
22
116
149
63
140
194
187
260
158
245
326
232
101
79
206
167
195
133
307
296
196
319
10
46
250
183
228
171
40
198
58
209
247
82
99
78
152
86
265
238
189
107
2
159
242
255
64
235
201
289
156
292
197
233
236
142
312
90
282
221
258
80
154
42
109
32
291
283
124
148

>  <PUBCHEM_MMFF94_PARTIAL_CHARGES>  (1) 
28
1 -0.57
10 0.33
11 0.18
13 -0.18
14 0.57
16 0.66
18 -0.15
19 -0.3
2 -0.65
20 -0.15
21 -0.15
22 -0.15
23 -0.15
3 -0.57
31 0.37
38 0.15
39 0.27
4 -0.73
40 0.36
41 0.36
42 0.15
43 0.15
44 0.15
45 0.15
46 0.5
5 0.03
6 -0.99
8 0.36

>  <PUBCHEM_EFFECTIVE_ROTOR_COUNT>  (1) 
8

>  <PUBCHEM_PHARMACOPHORE_FEATURES>  (1) 
13
1 1 acceptor
1 12 hydrophobe
1 17 hydrophobe
1 2 acceptor
1 3 acceptor
1 4 donor
1 5 cation
1 5 donor
1 6 cation
1 6 donor
3 2 3 16 anion
5 5 13 15 18 19 rings
6 15 18 20 21 22 23 rings

>  <PUBCHEM_HEAVY_ATOM_COUNT>  (1) 
23

>  <PUBCHEM_ATOM_DEF_STEREO_COUNT>  (1) 
1

>  <PUBCHEM_ATOM_UDEF_STEREO_COUNT>  (1) 
2

>  <PUBCHEM_BOND_DEF_STEREO_COUNT>  (1) 
0

>  <PUBCHEM_BOND_UDEF_STEREO_COUNT>  (1) 
0

>  <PUBCHEM_ISOTOPIC_ATOM_COUNT>  (1) 
0

>  <PUBCHEM_COMPONENT_COUNT>  (1) 
1

>  <PUBCHEM_CACTVS_TAUTO_COUNT>  (1) 
2

>  <PUBCHEM_CONFORMER_ID>  (1) 
0000B8F500000001

>  <PUBCHEM_MMFF94_ENERGY>  (1) 
34.8683

>  <PUBCHEM_FEATURE_SELFOVERLAP>  (1) 
66.123

>  <PUBCHEM_SHAPE_FINGERPRINT>  (1) 
10366900 7 12252455713023336358
11370993 144 13623792917913144700
11640471 11 18336543820441214955
12422481 6 17901361443621925002
12596599 1 17917445232176717748
13140716 1 18340495555262848841
14251751 93 18343869913366431751
15209289 33 18412267246175451016
192875 21 18270672185799860804
20775438 99 16402772560912734495
21524375 3 18259982699421660723
22907989 373 17903096751293967126
23402539 116 18343018870514058844
23557571 272 17130967902439860739
23558518 356 18192722360551806856
23559900 14 17988349468687407584
350125 39 18264219165189291347
444769 64 18267033765218488250
474 4 18261392196076937603
7226269 152 18408888413227219736
9709674 26 18126281093367570812

>  <PUBCHEM_SHAPE_MULTIPOLES>  (1) 
440.78
8.6
3.43
1.35
7.88
0.86
0.05
-2.36
2.29
-0.83
-0.42
-0.48
-0.03
-1.22

>  <PUBCHEM_SHAPE_SELFOVERLAP>  (1) 
921.813

>  <PUBCHEM_SHAPE_VOLUME>  (1) 
250.4

>  <PUBCHEM_COORDINATE_TYPE>  (1) 
2
5
10

$$$$
