47341
     RDKit          3D

 23 26  0  0  0  0  0  0  0  0999 V2000
   -1.4392    1.4797   -0.4039 N   0  0  0  0  0  0  0  0  0  0  0  0
    1.4386    1.4798   -0.4041 N   0  0  0  0  0  0  0  0  0  0  0  0
    0.0000    2.1455    1.5488 C   0  0  0  0  0  0  0  0  0  0  0  0
   -0.0004    3.5418   -0.4736 C   0  0  0  0  0  0  0  0  0  0  0  0
   -0.0002    3.5917    1.0540 C   0  0  0  0  0  0  0  0  0  0  0  0
   -1.2892    1.4476    1.0583 C   0  0  0  0  0  0  0  0  0  0  0  0
   -1.2895    2.8356   -0.9521 C   0  0  0  0  0  0  0  0  0  0  0  0
    1.2891    1.4479    1.0582 C   0  0  0  0  0  0  0  0  0  0  0  0
    1.2889    2.8359   -0.9521 C   0  0  0  0  0  0  0  0  0  0  0  0
   -2.7047    0.8799   -0.8177 C   0  0  0  0  0  0  0  0  0  0  0  0
    2.7041    0.8802   -0.8182 C   0  0  0  0  0  0  0  0  0  0  0  0
   -2.8108   -0.5590   -0.3871 C   0  0  0  0  0  0  0  0  0  0  0  0
    2.8107   -0.5586   -0.3875 C   0  0  0  0  0  0  0  0  0  0  0  0
   -2.3531   -1.5605   -1.2318 C   0  0  0  0  0  0  0  0  0  0  0  0
    3.3644   -0.8625    0.8483 C   0  0  0  0  0  0  0  0  0  0  0  0
   -3.3644   -0.8635    0.8487 C   0  0  0  0  0  0  0  0  0  0  0  0
    2.3534   -1.5606   -1.2320 C   0  0  0  0  0  0  0  0  0  0  0  0
   -2.4512   -2.8936   -0.8330 C   0  0  0  0  0  0  0  0  0  0  0  0
    3.4630   -2.1953    1.2476 C   0  0  0  0  0  0  0  0  0  0  0  0
   -3.4623   -2.1965    1.2476 C   0  0  0  0  0  0  0  0  0  0  0  0
    2.4519   -2.8934   -0.8326 C   0  0  0  0  0  0  0  0  0  0  0  0
   -3.0057   -3.2115    0.4067 C   0  0  0  0  0  0  0  0  0  0  0  0
    3.0067   -3.2107    0.4074 C   0  0  0  0  0  0  0  0  0  0  0  0
  1  6  1  0
  1  7  1  0
  1 10  1  0
  2  8  1  0
  2  9  1  0
  2 11  1  0
  3  5  1  0
  3  6  1  0
  3  8  1  0
  4  5  1  0
  4  7  1  0
  4  9  1  0
 10 12  1  0
 11 13  1  0
 12 14  2  0
 12 16  1  0
 13 15  2  0
 13 17  1  0
 14 18  1  0
 15 19  1  0
 16 20  2  0
 17 21  2  0
 18 22  2  0
 19 23  2  0
 20 22  1  0
 21 23  1  0
M  END
>  <PUBCHEM_COMPOUND_CID>  (1) 
47341

>  <PUBCHEM_CONFORMER_RMSD>  (1) 
0.8

>  <PUBCHEM_CONFORMER_DIVERSEORDER>  (1) 
1
6
2
3
4
5

>  <PUBCHEM_MMFF94_PARTIAL_CHARGES>  (1) 
30
1 -0.81
10 0.41
11 0.41
12 -0.14
13 -0.14
14 -0.15
15 -0.15
16 -0.15
17 -0.15
18 -0.15
19 -0.15
2 -0.81
20 -0.15
21 -0.15
22 -0.15
23 -0.15
40 0.15
41 0.15
42 0.15
43 0.15
44 0.15
45 0.15
46 0.15
47 0.15
48 0.15
49 0.15
6 0.27
7 0.27
8 0.27
9 0.27

>  <PUBCHEM_EFFECTIVE_ROTOR_COUNT>  (1) 
5.4

>  <PUBCHEM_PHARMACOPHORE_FEATURES>  (1) 
6
1 1 cation
1 2 cation
6 1 3 4 5 6 7 rings
6 12 14 16 18 20 22 rings
6 13 15 17 19 21 23 rings
6 2 3 4 5 8 9 rings

>  <PUBCHEM_HEAVY_ATOM_COUNT>  (1) 
23

>  <PUBCHEM_ATOM_DEF_STEREO_COUNT>  (1) 
0

>  <PUBCHEM_ATOM_UDEF_STEREO_COUNT>  (1) 
0

>  <PUBCHEM_BOND_DEF_STEREO_COUNT>  (1) 
0

>  <PUBCHEM_BOND_UDEF_STEREO_COUNT>  (1) 
0

>  <PUBCHEM_ISOTOPIC_ATOM_COUNT>  (1) 
0

>  <PUBCHEM_COMPONENT_COUNT>  (1) 
1

>  <PUBCHEM_CACTVS_TAUTO_COUNT>  (1) 
1

>  <PUBCHEM_CONFORMER_ID>  (1) 
0000B8ED00000001

>  <PUBCHEM_MMFF94_ENERGY>  (1) 
59.2334

>  <PUBCHEM_FEATURE_SELFOVERLAP>  (1) 
32.138

>  <PUBCHEM_SHAPE_FINGERPRINT>  (1) 
11370993 70 17332227711797884492
114674 6 17904763632528646787
12156800 1 15230788917434727246
12506688 2 18412545431048885920
12539773 59 15537521175252466413
12553582 1 18412830200202410726
12788726 201 18126848196528091077
13122387 1 18411420587651828807
1361 2 17111848726678752259
13931106 250 17902501602250503356
14081887 123 18126827340673161274
14251705 54 18338517542249537854
14251757 5 17691708696488779142
15664445 248 16517648320706867527
19930381 70 17975134554555767539
20291156 8 18410862065888317214
20587220 17 17475286638857027435
20775530 9 18410013238527354399
21421861 104 18195550274715136985
21452121 199 18336816580718558536
2255824 54 17906740554398178741
23728640 28 17759521071297988040
238 59 17760653967659453314
35225 105 17482295728524699479
392239 28 17916571185458129888
5265222 85 16897102539706304854
5309563 4 17976262662170609127
6287921 2 17693670611394405651
70634741 139 17122024238974941670
7097593 13 18198358427607577537
81228 2 18125441908218048370
9795274 37 18260264200184038618

>  <PUBCHEM_SHAPE_MULTIPOLES>  (1) 
463.37
6.29
5.46
1.45
0
1.03
0.18
-6.91
0.59
0
0.08
0
0.1
0

>  <PUBCHEM_SHAPE_SELFOVERLAP>  (1) 
996.235

>  <PUBCHEM_SHAPE_VOLUME>  (1) 
248

>  <PUBCHEM_COORDINATE_TYPE>  (1) 
2
5
10

$$$$
