47344
     RDKit          3D

 28 30  0  0  1  0  0  0  0  0999 V2000
    0.1198    1.8009    0.1617 O   0  0  0  0  0  0  0  0  0  0  0  0
   -0.8146    3.8801    0.5512 O   0  0  0  0  0  0  0  0  0  0  0  0
    3.0296   -2.2057    0.3178 O   0  0  0  0  0  0  0  0  0  0  0  0
    2.0813    3.6481    2.2389 N   0  0  0  0  0  0  0  0  0  0  0  0
   -3.0975    1.8319   -0.6369 C   0  0  0  0  0  0  0  0  0  0  0  0
   -2.3408    0.6486   -0.1381 C   0  0  0  0  0  0  0  0  0  0  0  0
   -2.1864    1.9633    0.5483 C   0  0  0  0  0  0  0  0  0  0  0  0
   -2.6686    2.4001   -1.9480 C   0  0  0  0  0  0  0  0  0  0  0  0
   -4.5647    1.9489   -0.3888 C   0  0  0  0  0  0  0  0  0  0  0  0
   -3.0526   -0.4255    0.5803 C   0  0  0  0  0  0  0  0  0  0  0  0
   -0.8969    2.6669    0.4241 C   0  0  0  0  0  0  0  0  0  0  0  0
   -3.6824   -1.4927    0.0526 C   0  0  0  0  0  0  0  0  0  0  0  0
   -3.7630   -1.7708   -1.4217 C   0  0  0  0  0  0  0  0  0  0  0  0
   -4.3655   -2.5049    0.9296 C   0  0  0  0  0  0  0  0  0  0  0  0
    1.4136    2.3967    0.0239 C   0  0  0  0  0  0  0  0  0  0  0  0
    2.4135    1.3245   -0.3414 C   0  0  0  0  0  0  0  0  0  0  0  0
    1.7856    3.0948    1.2626 C   0  0  0  0  0  0  0  0  0  0  0  0
    2.2518    0.0458    0.1659 C   0  0  0  0  0  0  0  0  0  0  0  0
    3.4719    1.6411   -1.1771 C   0  0  0  0  0  0  0  0  0  0  0  0
    3.1746   -0.9442   -0.1719 C   0  0  0  0  0  0  0  0  0  0  0  0
    4.3945    0.6512   -1.5149 C   0  0  0  0  0  0  0  0  0  0  0  0
    4.2459   -0.6414   -1.0125 C   0  0  0  0  0  0  0  0  0  0  0  0
    1.7646   -2.7683    0.2831 C   0  0  0  0  0  0  0  0  0  0  0  0
    1.0057   -2.6495   -0.8670 C   0  0  0  0  0  0  0  0  0  0  0  0
    1.2929   -3.4339    1.4000 C   0  0  0  0  0  0  0  0  0  0  0  0
   -0.2687   -3.2154   -0.9015 C   0  0  0  0  0  0  0  0  0  0  0  0
    0.0185   -4.0000    1.3654 C   0  0  0  0  0  0  0  0  0  0  0  0
   -0.7622   -3.8907    0.2145 C   0  0  0  0  0  0  0  0  0  0  0  0
  1 11  1  0
  1 15  1  0
  2 11  2  0
  3 20  1  0
  3 23  1  0
  4 17  3  0
  5  6  1  0
  5  7  1  0
  5  8  1  0
  5  9  1  0
  6  7  1  0
  6 10  1  0
  7 11  1  0
 10 12  2  3
 12 13  1  0
 12 14  1  0
 15 16  1  0
 15 17  1  0
 16 18  2  0
 16 19  1  0
 18 20  1  0
 19 21  2  0
 20 22  2  0
 21 22  1  0
 23 24  2  0
 23 25  1  0
 24 26  1  0
 25 27  2  0
 26 28  2  0
 27 28  1  0
M  END
>  <PUBCHEM_COMPOUND_CID>  (1) 
47344

>  <PUBCHEM_CONFORMER_RMSD>  (1) 
1.2

>  <PUBCHEM_CONFORMER_DIVERSEORDER>  (1) 
1
33
191
107
188
186
32
200
148
167
179
61
117
91
53
63
158
145
12
132
40
11
87
124
195
5
193
54
29
189
78
165
185
56
180
41
137
131
163
69
141
23
71
198
66
201
81
55
22
62
156
146
149
143
192
161
196
84
190
50
97
101
121
183
77
73
24
173
52
168
181
46
6
89
96
151
136
3
43
68
86
130
72
99
108
65
112
16
150
164
135
85
111
194
199
48
98
7
197
74
44
147
140
119
47
162
21
70
10
133
39
105
187
60
28
4
25
176
129
95
138
172
153
182
80
19
169
170
122
93
174
37
110
160
58
142
175
18
34
92
154
57
31
88
123
127
126
114
139
64
90
184
144
20
120
102
159
116
152
17
83
104
36
14
8
128
9
82
178
76
2
100
109
27
166
118
115
35
125
26
51
171
155
49
103
113
45
94
59
13
177
67
42
15
75
79
134
30
157
106
38

>  <PUBCHEM_MMFF94_PARTIAL_CHARGES>  (1) 
40
1 -0.43
10 -0.19
11 0.72
12 -0.28
13 0.14
14 0.14
15 0.62
16 -0.14
17 0.36
18 -0.15
19 -0.15
2 -0.57
20 0.08
21 -0.15
22 -0.15
23 0.08
24 -0.15
25 -0.15
26 -0.15
27 -0.15
28 -0.15
29 0.1
3 -0.17
30 0.1
37 0.15
4 -0.56
45 0.15
46 0.15
47 0.15
48 0.15
49 0.15
5 -0.19
50 0.15
51 0.15
52 0.15
53 0.15
6 -0.06
7 -0.1
8 0.09
9 0.09

>  <PUBCHEM_EFFECTIVE_ROTOR_COUNT>  (1) 
7.6

>  <PUBCHEM_PHARMACOPHORE_FEATURES>  (1) 
7
1 2 acceptor
1 3 acceptor
1 4 acceptor
3 12 13 14 hydrophobe
3 5 8 9 hydrophobe
6 16 18 19 20 21 22 rings
6 23 24 25 26 27 28 rings

>  <PUBCHEM_HEAVY_ATOM_COUNT>  (1) 
28

>  <PUBCHEM_ATOM_DEF_STEREO_COUNT>  (1) 
3

>  <PUBCHEM_ATOM_UDEF_STEREO_COUNT>  (1) 
0

>  <PUBCHEM_BOND_DEF_STEREO_COUNT>  (1) 
0

>  <PUBCHEM_BOND_UDEF_STEREO_COUNT>  (1) 
0

>  <PUBCHEM_ISOTOPIC_ATOM_COUNT>  (1) 
0

>  <PUBCHEM_COMPONENT_COUNT>  (1) 
1

>  <PUBCHEM_CACTVS_TAUTO_COUNT>  (1) 
1

>  <PUBCHEM_CONFORMER_ID>  (1) 
0000B8F000000001

>  <PUBCHEM_MMFF94_ENERGY>  (1) 
76.3902

>  <PUBCHEM_FEATURE_SELFOVERLAP>  (1) 
35.522

>  <PUBCHEM_SHAPE_FINGERPRINT>  (1) 
10616163 171 18338805498326240311
108634 29 18267884933167855166
1100329 8 18192431861949287226
114674 6 18196647621410669169
11513181 2 16616757340724540980
12038231 1 17617942877575739723
12156800 1 15895788685562830419
12539773 59 17054413048045973441
12553582 1 18268429212360279119
13122387 1 17186155371460450311
13140716 1 18411974758992550393
13402501 40 18193850450913095283
14117953 113 16391267769302040814
14725015 67 18335413625478016795
14931854 50 18410013272960803790
17093844 170 17907855454909698224
17138139 8 18200013136192674406
19591789 44 18338805622806464703
20764821 26 18336825303955346771
22113638 7 17471279665907974559
22393880 68 18337398136675742460
238918 7 17121692624164030352
3298306 158 18337103463343821117
445580 102 18338806606591618703
463206 1 18196650700843931505
5047190 48 16683722022409494561
5171179 24 17555456490083460424
5309563 4 18193284203089526443
66674814 147 16970793449371202983

>  <PUBCHEM_SHAPE_MULTIPOLES>  (1) 
553.64
7.93
6.26
1.5
1.92
2.06
0.05
-0.81
-2.38
0.5
2.2
-0.33
-0.46
0.85

>  <PUBCHEM_SHAPE_SELFOVERLAP>  (1) 
1181.241

>  <PUBCHEM_SHAPE_VOLUME>  (1) 
307.4

>  <PUBCHEM_COORDINATE_TYPE>  (1) 
2
5
10

$$$$
