47358
     RDKit          3D

 16 17  0  0  1  0  0  0  0  0999 V2000
   -0.0168    3.4013    0.2204 Cl  0  0  0  0  0  0  0  0  0  0  0  0
    2.7416   -1.1762    0.0068 O   0  0  0  0  0  0  0  0  0  0  0  0
    1.2178   -2.8076    0.3856 O   0  0  0  0  0  0  0  0  0  0  0  0
   -4.2081    0.5627   -0.1507 O   0  0  0  0  0  0  0  0  0  0  0  0
   -3.7341   -1.6602   -0.1789 O   0  0  0  0  0  0  0  0  0  0  0  0
    2.1495    1.1672    0.2485 C   0  0  0  0  0  0  0  0  0  0  0  0
    2.9895    0.1508   -0.5110 C   0  0  0  0  0  0  0  0  0  0  0  0
    0.7143    0.7519    0.1311 C   0  0  0  0  0  0  0  0  0  0  0  0
    0.3963   -0.6109    0.0813 C   0  0  0  0  0  0  0  0  0  0  0  0
    4.4769    0.4345   -0.3573 C   0  0  0  0  0  0  0  0  0  0  0  0
   -0.3137    1.7007    0.1119 C   0  0  0  0  0  0  0  0  0  0  0  0
    1.4690   -1.6304    0.1633 C   0  0  0  0  0  0  0  0  0  0  0  0
   -0.9384   -1.0203   -0.0047 C   0  0  0  0  0  0  0  0  0  0  0  0
   -1.9555   -0.0661   -0.0394 C   0  0  0  0  0  0  0  0  0  0  0  0
   -1.6443    1.2916    0.0215 C   0  0  0  0  0  0  0  0  0  0  0  0
   -3.3442   -0.4891   -0.1285 C   0  0  0  0  0  0  0  0  0  0  0  0
  1 11  1  0
  2  7  1  0
  2 12  1  0
  3 12  2  0
  4 16  1  0
  5 16  2  0
  6  7  1  0
  6  8  1  0
  7 10  1  0
  8  9  2  0
  8 11  1  0
  9 12  1  0
  9 13  1  0
 11 15  2  0
 13 14  2  0
 14 15  1  0
 14 16  1  0
M  END
>  <PUBCHEM_COMPOUND_CID>  (1) 
47358

>  <PUBCHEM_CONFORMER_RMSD>  (1) 
0.6

>  <PUBCHEM_CONFORMER_DIVERSEORDER>  (1) 
1
2

>  <PUBCHEM_MMFF94_PARTIAL_CHARGES>  (1) 
18
1 -0.18
11 0.18
12 0.63
13 -0.15
14 0.09
15 -0.15
16 0.63
2 -0.43
23 0.15
24 0.15
25 0.5
3 -0.57
4 -0.65
5 -0.57
6 0.14
7 0.28
8 -0.14
9 0.09

>  <PUBCHEM_EFFECTIVE_ROTOR_COUNT>  (1) 
1.6

>  <PUBCHEM_PHARMACOPHORE_FEATURES>  (1) 
6
1 3 acceptor
1 4 acceptor
1 5 acceptor
3 4 5 16 anion
6 2 6 7 8 9 12 rings
6 8 9 11 13 14 15 rings

>  <PUBCHEM_HEAVY_ATOM_COUNT>  (1) 
16

>  <PUBCHEM_ATOM_DEF_STEREO_COUNT>  (1) 
0

>  <PUBCHEM_ATOM_UDEF_STEREO_COUNT>  (1) 
1

>  <PUBCHEM_BOND_DEF_STEREO_COUNT>  (1) 
0

>  <PUBCHEM_BOND_UDEF_STEREO_COUNT>  (1) 
0

>  <PUBCHEM_ISOTOPIC_ATOM_COUNT>  (1) 
0

>  <PUBCHEM_COMPONENT_COUNT>  (1) 
1

>  <PUBCHEM_CACTVS_TAUTO_COUNT>  (1) 
1

>  <PUBCHEM_CONFORMER_ID>  (1) 
0000B8FE00000001

>  <PUBCHEM_MMFF94_ENERGY>  (1) 
46.9126

>  <PUBCHEM_FEATURE_SELFOVERLAP>  (1) 
30.531

>  <PUBCHEM_SHAPE_FINGERPRINT>  (1) 
108231 29 18341053033359031824
10967382 1 18410573993746673506
11132069 177 18411976979205311904
11471102 20 18409725153795883215
11680986 33 17906454681475326888
11806522 49 18340485689711952455
12032990 46 18340773722903134031
12553582 1 18411694387943357523
13140716 1 18122627429350496913
13221675 6 18342175565832036302
13380535 76 18333734623993450026
13862211 1 18410851101148235250
14178342 30 17760351211652385306
14251717 144 18338793541337884695
14576447 43 18270950366959084231
14790565 3 18338530723473150913
15196674 1 18410575089111189462
15442244 35 17833548998789335106
15536298 74 18130223886330434016
16945 1 18050567335493857272
193761 8 17978229357342993520
20510252 161 18343021065089827752
20588541 1 18334016115933349131
20645477 70 18340483362082719615
21029758 11 18341894133842305041
21267235 1 18340215171260331711
21421861 104 17898852344379343075
21501502 16 18194403281949700704
21634736 98 17840010077112318215
221490 88 18048882093665013579
2334 1 17545880889870404185
23402539 116 18342451573837443382
23402655 69 18411132503141851893
23419403 2 15450771000759349680
23463225 33 18410011013733755877
23557571 272 18201165338817139644
23559900 14 18124024634041948498
25610 137 18409451362320583613
2748010 2 17759521462319314241
2871803 45 18410573959539929174
3071541 12 18124034786991481225
3071541 158 18262235629012218077
3312278 4 18410576175932925297
34934 24 18411975832834113695
353137 74 18336546014995611816
43471831 8 18335417924993266458
528886 8 18410570721271835410
537710 114 18335426789388923556
589210 1 17977667502764319320
7364860 26 18054226802238842145

>  <PUBCHEM_SHAPE_MULTIPOLES>  (1) 
307.67
6.22
2.75
0.64
0.88
1.12
0.01
-1.25
0.99
-0.15
-0.37
-0.11
0.02
-0.15

>  <PUBCHEM_SHAPE_SELFOVERLAP>  (1) 
656.789

>  <PUBCHEM_SHAPE_VOLUME>  (1) 
172.1

>  <PUBCHEM_COORDINATE_TYPE>  (1) 
2
5
10

$$$$
