47359
     RDKit          3D

 17 18  0  0  0  0  0  0  0  0999 V2000
    2.1129   -1.1195   -0.1603 S   0  0  0  0  0  0  0  0  0  0  0  0
   -1.2884    2.0298    0.2408 O   0  0  0  0  0  0  0  0  0  0  0  0
    5.7287    0.2637    0.0258 O   0  0  0  0  0  0  0  0  0  0  0  0
    4.9570   -1.7741   -0.2403 O   0  0  0  0  0  0  0  0  0  0  0  0
   -0.2872   -0.0748   -0.0304 N   0  0  0  0  0  0  0  0  0  0  0  0
    1.6120    1.3958    0.1633 N   0  0  0  0  0  0  0  0  0  0  0  0
    4.7545   -0.5359   -0.0803 N   0  0  0  0  0  0  0  0  0  0  0  0
   -2.6930    0.1879    0.0276 C   0  0  0  0  0  0  0  0  0  0  0  0
   -1.3758    0.8015    0.0814 C   0  0  0  0  0  0  0  0  0  0  0  0
    1.0961    0.2272    0.0110 C   0  0  0  0  0  0  0  0  0  0  0  0
   -3.7877    0.9230   -0.4273 C   0  0  0  0  0  0  0  0  0  0  0  0
   -2.8616   -1.1364    0.4322 C   0  0  0  0  0  0  0  0  0  0  0  0
    3.4443   -0.0476   -0.0199 C   0  0  0  0  0  0  0  0  0  0  0  0
   -5.0512    0.3338   -0.4780 C   0  0  0  0  0  0  0  0  0  0  0  0
   -4.1251   -1.7254    0.3816 C   0  0  0  0  0  0  0  0  0  0  0  0
    2.9844    1.2418    0.1465 C   0  0  0  0  0  0  0  0  0  0  0  0
   -5.2199   -0.9907   -0.0738 C   0  0  0  0  0  0  0  0  0  0  0  0
  1 10  1  0
  1 13  1  0
  2  9  2  0
  3  7  1  0
  4  7  2  0
  5  9  1  0
  5 10  1  0
  6 10  2  0
  6 16  1  0
  7 13  1  0
  8  9  1  0
  8 11  2  0
  8 12  1  0
 11 14  1  0
 12 15  2  0
 13 16  2  0
 14 17  2  0
 15 17  1  0
M  CHG  2   3  -1   7   1
M  END
>  <PUBCHEM_COMPOUND_CID>  (1) 
47359

>  <PUBCHEM_CONFORMER_RMSD>  (1) 
0.6

>  <PUBCHEM_CONFORMER_DIVERSEORDER>  (1) 
1
2
3

>  <PUBCHEM_MMFF94_PARTIAL_CHARGES>  (1) 
24
1 -0.08
10 0.44
11 -0.15
12 -0.15
13 0.12
14 -0.15
15 -0.15
16 0.08
17 -0.15
18 0.37
19 0.15
2 -0.57
20 0.15
21 0.15
22 0.15
23 0.15
24 0.15
3 -0.52
4 -0.52
5 -0.49
6 -0.57
7 0.96
8 0.09
9 0.54

>  <PUBCHEM_EFFECTIVE_ROTOR_COUNT>  (1) 
4

>  <PUBCHEM_PHARMACOPHORE_FEATURES>  (1) 
7
1 2 acceptor
1 3 acceptor
1 3 anion
1 4 acceptor
1 5 donor
5 1 6 10 13 16 rings
6 8 11 12 14 15 17 rings

>  <PUBCHEM_HEAVY_ATOM_COUNT>  (1) 
17

>  <PUBCHEM_ATOM_DEF_STEREO_COUNT>  (1) 
0

>  <PUBCHEM_ATOM_UDEF_STEREO_COUNT>  (1) 
0

>  <PUBCHEM_BOND_DEF_STEREO_COUNT>  (1) 
0

>  <PUBCHEM_BOND_UDEF_STEREO_COUNT>  (1) 
0

>  <PUBCHEM_ISOTOPIC_ATOM_COUNT>  (1) 
0

>  <PUBCHEM_COMPONENT_COUNT>  (1) 
1

>  <PUBCHEM_CACTVS_TAUTO_COUNT>  (1) 
3

>  <PUBCHEM_CONFORMER_ID>  (1) 
0000B8FF00000001

>  <PUBCHEM_MMFF94_ENERGY>  (1) 
42.1265

>  <PUBCHEM_FEATURE_SELFOVERLAP>  (1) 
35.602

>  <PUBCHEM_SHAPE_FINGERPRINT>  (1) 
10680689 15 17749109989580099697
10968037 39 18409168826534345767
11315181 36 18343023297871227041
11806522 49 18409168801197052012
12032990 46 18411139168830933193
12555020 224 18410002257129383215
12596602 18 14333403458682856623
13167823 11 18408038524281022707
13288520 33 18411420605020874527
1420 363 18272374174228820830
14251718 22 18186522124678484476
14251731 8 18334292055008347703
14251764 18 18202569480175472145
14252887 29 17203336585222038620
15196674 1 18410293644246599193
15242439 84 18334572443337304893
15352361 1 18411419505303524833
15880784 105 17131825529935930155
17834072 33 18261115205415134876
17834072 8 18186513307411247967
17834076 25 13479131298043283844
17844677 252 18410580599443902149
17870717 6 18260554402982382199
18186145 218 17385996317229862909
200 152 18131068229745526841
20261772 1 17917988399589674398
20279233 1 18412833481889604223
20374829 77 18407757040988417779
20645477 56 18040992892078333933
20645477 70 18412826872019416254
21267235 1 18409174328862413395
21682296 61 17631181775332873102
221490 88 18191030194886749384
23402539 116 18333445447802293271
23403322 49 18410293614445689195
23557571 272 18336828598016200821
23559900 14 18409158944073489281
26918003 58 18413106165036448969
2871803 45 18333729108975568194
3004659 81 18187080663326017824
351380 180 18410855468755292514
3545911 37 18334575733419351677
4214541 1 18409166589278669917
465052 167 18272656778518420390
4921388 177 16153719760069801491
5104073 3 18341894086565601408
542803 24 13984661442889866263
559249 180 18335415712910866635
77779 3 18408886260841761061
9709674 26 18189338055561850971

>  <PUBCHEM_SHAPE_MULTIPOLES>  (1) 
321.15
12.72
1.67
0.65
4.75
0.06
0.01
3.74
0.92
-0.18
-0.09
-0.21
0.02
0.56

>  <PUBCHEM_SHAPE_SELFOVERLAP>  (1) 
677.806

>  <PUBCHEM_SHAPE_VOLUME>  (1) 
181

>  <PUBCHEM_COORDINATE_TYPE>  (1) 
2
5
10

$$$$
