47363
     RDKit          3D

 25 29  0  0  0  0  0  0  0  0999 V2000
    0.6827   -0.4136   -0.0595 N   0  0  0  0  0  0  0  0  0  0  0  0
    5.7907   -1.7940   -0.2512 N   0  0  0  0  0  0  0  0  0  0  0  0
   -6.3905   -1.5019    0.3661 N   0  0  0  0  0  0  0  0  0  0  0  0
    6.7761    0.2266    0.0278 N   0  0  0  0  0  0  0  0  0  0  0  0
   -6.6797    0.5745   -0.4921 N   0  0  0  0  0  0  0  0  0  0  0  0
    1.9650    0.0827    0.0093 C   0  0  0  0  0  0  0  0  0  0  0  0
    1.8620    1.4623    0.2001 C   0  0  0  0  0  0  0  0  0  0  0  0
   -0.2248    0.6018    0.0807 C   0  0  0  0  0  0  0  0  0  0  0  0
    4.3542    0.1973    0.0257 C   0  0  0  0  0  0  0  0  0  0  0  0
    0.4745    1.7755    0.2432 C   0  0  0  0  0  0  0  0  0  0  0  0
    3.1957   -0.5774   -0.0816 C   0  0  0  0  0  0  0  0  0  0  0  0
   -1.6479    0.3659    0.0468 C   0  0  0  0  0  0  0  0  0  0  0  0
    5.6553   -0.4481   -0.0646 C   0  0  0  0  0  0  0  0  0  0  0  0
    3.0437    2.2225    0.3054 C   0  0  0  0  0  0  0  0  0  0  0  0
    4.2818    1.5758    0.2162 C   0  0  0  0  0  0  0  0  0  0  0  0
    7.1745   -2.1577   -0.3103 C   0  0  0  0  0  0  0  0  0  0  0  0
   -4.3994   -0.0903   -0.0189 C   0  0  0  0  0  0  0  0  0  0  0  0
    7.8505   -0.7985   -0.1110 C   0  0  0  0  0  0  0  0  0  0  0  0
   -5.8338   -0.3275   -0.0541 C   0  0  0  0  0  0  0  0  0  0  0  0
   -7.8153   -1.4622    0.2292 C   0  0  0  0  0  0  0  0  0  0  0  0
   -2.5079    1.3566   -0.4273 C   0  0  0  0  0  0  0  0  0  0  0  0
   -2.1634   -0.8529    0.4874 C   0  0  0  0  0  0  0  0  0  0  0  0
   -8.0210   -0.0649   -0.3618 C   0  0  0  0  0  0  0  0  0  0  0  0
   -3.8837    1.1284   -0.4602 C   0  0  0  0  0  0  0  0  0  0  0  0
   -3.5393   -1.0811    0.4547 C   0  0  0  0  0  0  0  0  0  0  0  0
  1  6  1  0
  1  8  1  0
  2 13  1  0
  2 16  1  0
  3 19  1  0
  3 20  1  0
  4 13  2  0
  4 18  1  0
  5 19  2  0
  5 23  1  0
  6  7  2  0
  6 11  1  0
  7 10  1  0
  7 14  1  0
  8 10  2  0
  8 12  1  0
  9 11  2  0
  9 13  1  0
  9 15  1  0
 12 21  2  0
 12 22  1  0
 14 15  2  0
 16 18  1  0
 17 19  1  0
 17 24  2  0
 17 25  1  0
 20 23  1  0
 21 24  1  0
 22 25  2  0
M  END
>  <PUBCHEM_COMPOUND_CID>  (1) 
47363

>  <PUBCHEM_CONFORMER_RMSD>  (1) 
0.8

>  <PUBCHEM_CONFORMER_DIVERSEORDER>  (1) 
1

>  <PUBCHEM_MMFF94_PARTIAL_CHARGES>  (1) 
35
1 0.03
10 -0.15
11 -0.15
12 0.05
13 0.41
14 -0.15
15 -0.15
16 0.37
17 0.09
18 0.25
19 0.41
2 -0.82
20 0.37
21 -0.15
22 -0.15
23 0.25
24 -0.15
25 -0.15
26 0.27
27 0.15
28 0.15
29 0.15
3 -0.82
32 0.15
35 0.4
38 0.15
39 0.15
4 -0.7
42 0.15
43 0.15
44 0.4
5 -0.7
6 -0.15
8 -0.2
9 0.09

>  <PUBCHEM_EFFECTIVE_ROTOR_COUNT>  (1) 
4.2

>  <PUBCHEM_PHARMACOPHORE_FEATURES>  (1) 
11
1 1 cation
1 1 donor
1 2 donor
1 3 donor
3 2 4 13 cation
3 3 5 19 cation
5 1 6 7 8 10 rings
5 2 4 13 16 18 rings
5 3 5 19 20 23 rings
6 12 17 21 22 24 25 rings
6 6 7 9 11 14 15 rings

>  <PUBCHEM_HEAVY_ATOM_COUNT>  (1) 
25

>  <PUBCHEM_ATOM_DEF_STEREO_COUNT>  (1) 
0

>  <PUBCHEM_ATOM_UDEF_STEREO_COUNT>  (1) 
0

>  <PUBCHEM_BOND_DEF_STEREO_COUNT>  (1) 
0

>  <PUBCHEM_BOND_UDEF_STEREO_COUNT>  (1) 
0

>  <PUBCHEM_ISOTOPIC_ATOM_COUNT>  (1) 
0

>  <PUBCHEM_COMPONENT_COUNT>  (1) 
1

>  <PUBCHEM_CACTVS_TAUTO_COUNT>  (1) 
3

>  <PUBCHEM_CONFORMER_ID>  (1) 
0000B90300000001

>  <PUBCHEM_MMFF94_ENERGY>  (1) 
76.1003

>  <PUBCHEM_FEATURE_SELFOVERLAP>  (1) 
55.916

>  <PUBCHEM_SHAPE_FINGERPRINT>  (1) 
10 15 11383831567177496974
10066227 49 18339080393587984270
100830 39 18340488842883541041
10299344 5 18411141328866972261
10411042 1 18340770335224217304
106641 1 13614516368300607578
11181472 205 14707749716468848287
11315181 36 18411985767383873241
11524674 6 17203890786464839319
11638347 137 14333134053228373092
11719270 70 18131070424601007182
12166972 35 18408606980383089100
12236239 1 17704354394377777169
12516196 113 18273493460313406088
12592606 108 18342174479458803807
13288520 33 18408604756285679997
13533116 47 18273213131718638136
13668630 136 18410293601154696290
13673619 4 18335421261650300348
13685833 64 18413108355564695938
13885169 127 18411136901325837513
14170010 4 18342454868325681896
14178184 131 18129662049375780567
14216079 64 18412544288972830526
14251764 18 18131355210770272616
14251764 46 18410855464428416851
15183329 4 18186801357212755667
15419008 47 17968087625545780293
15419008 91 18263903540701698773
15690457 1 18060696195396457255
15716309 27 18060135444471195895
16120349 18 18201432632371229000
16728433 281 16806991145081456197
18006028 8 18202563973072902312
19301679 30 17345483587602650526
19841028 212 18262515872014206386
2026 5 18269837519600811630
20771845 140 16271925991808877294
21049683 271 18411140256149496156
21130935 74 18272089452367805859
21150785 3 15863789495400985255
21267235 1 18410858758679077265
21315763 28 18341894113052861489
21792934 111 18060128838801543273
221357 26 18408038511475430488
22224240 67 15051729789844834438
22956985 138 17127914357155726606
232437 2 18409730643740338694
23522609 53 18123503606711149601
23559900 14 18335979877976263385
23569943 247 17971752169025920586
23576562 1 13624114052607973243
246663 6 18410577283686483943
28498 318 18410854348153618965
3004659 81 18186517713393884072
3103668 31 17969214543418212733
328311 84 18334017207303558867
33532 11 18411417302228466782
335352 9 18410575106175053374
34797466 226 17313105293467934036
3545911 37 18186799188671067049
4073 2 17968943131195551850
465052 167 18272653442045840356
5758199 1 9511462229822290093
59755656 215 18040151803472731595
59755656 520 17095798910808615115
6138700 20 18335421266672793523
6438161 24 18113892742035038530

>  <PUBCHEM_SHAPE_MULTIPOLES>  (1) 
489.58
23.93
1.9
0.67
7.53
0.12
0
-12.59
1.8
-1.76
-0.06
0.18
0.01
1.03

>  <PUBCHEM_SHAPE_SELFOVERLAP>  (1) 
1101.372

>  <PUBCHEM_SHAPE_VOLUME>  (1) 
254.1

>  <PUBCHEM_COORDINATE_TYPE>  (1) 
2
5
10

$$$$
