47366
     RDKit          3D

 18 19  0  0  0  0  0  0  0  0999 V2000
    0.1596   -2.6893   -0.6775 Cl  0  0  0  0  0  0  0  0  0  0  0  0
    0.1548    2.6874   -0.6771 Cl  0  0  0  0  0  0  0  0  0  0  0  0
    3.1415    2.7230    0.3751 Cl  0  0  0  0  0  0  0  0  0  0  0  0
    3.1470   -2.7203    0.3735 Cl  0  0  0  0  0  0  0  0  0  0  0  0
    4.6327    0.0022    0.8990 Cl  0  0  0  0  0  0  0  0  0  0  0  0
   -0.9315   -0.0019   -1.0617 O   0  0  0  0  0  0  0  0  0  0  0  0
   -1.9571   -0.0007   -0.0745 C   0  0  0  0  0  0  0  0  0  0  0  0
   -2.8046    1.2629   -0.2169 C   0  0  0  0  0  0  0  0  0  0  0  0
   -2.8041   -1.2649   -0.2132 C   0  0  0  0  0  0  0  0  0  0  0  0
   -3.9783    1.2642    0.7570 C   0  0  0  0  0  0  0  0  0  0  0  0
   -3.9777   -1.2638    0.7608 C   0  0  0  0  0  0  0  0  0  0  0  0
   -4.8234   -0.0001    0.6202 C   0  0  0  0  0  0  0  0  0  0  0  0
    0.3606   -0.0010   -0.6075 C   0  0  0  0  0  0  0  0  0  0  0  0
    1.0160   -1.2083   -0.3755 C   0  0  0  0  0  0  0  0  0  0  0  0
    1.0148    1.2076   -0.3773 C   0  0  0  0  0  0  0  0  0  0  0  0
    2.3301    1.2087    0.0868 C   0  0  0  0  0  0  0  0  0  0  0  0
    2.3313   -1.2072    0.0889 C   0  0  0  0  0  0  0  0  0  0  0  0
    2.9884    0.0014    0.3200 C   0  0  0  0  0  0  0  0  0  0  0  0
  1 14  1  0
  2 15  1  0
  3 16  1  0
  4 17  1  0
  5 18  1  0
  6  7  1  0
  6 13  1  0
  7  8  1  0
  7  9  1  0
  8 10  1  0
  9 11  1  0
 10 12  1  0
 11 12  1  0
 13 14  2  0
 13 15  1  0
 14 17  1  0
 15 16  2  0
 16 18  1  0
 17 18  2  0
M  END
>  <PUBCHEM_COMPOUND_CID>  (1) 
47366

>  <PUBCHEM_CONFORMER_RMSD>  (1) 
0.6

>  <PUBCHEM_CONFORMER_DIVERSEORDER>  (1) 
1
7
2
6
8
3
4
5

>  <PUBCHEM_MMFF94_PARTIAL_CHARGES>  (1) 
13
1 -0.18
13 0.08
14 0.18
15 0.18
16 0.18
17 0.18
18 0.18
2 -0.18
3 -0.18
4 -0.18
5 -0.18
6 -0.36
7 0.28

>  <PUBCHEM_EFFECTIVE_ROTOR_COUNT>  (1) 
3.2

>  <PUBCHEM_PHARMACOPHORE_FEATURES>  (1) 
3
1 6 acceptor
6 13 14 15 16 17 18 rings
6 7 8 9 10 11 12 rings

>  <PUBCHEM_HEAVY_ATOM_COUNT>  (1) 
18

>  <PUBCHEM_ATOM_DEF_STEREO_COUNT>  (1) 
0

>  <PUBCHEM_ATOM_UDEF_STEREO_COUNT>  (1) 
0

>  <PUBCHEM_BOND_DEF_STEREO_COUNT>  (1) 
0

>  <PUBCHEM_BOND_UDEF_STEREO_COUNT>  (1) 
0

>  <PUBCHEM_ISOTOPIC_ATOM_COUNT>  (1) 
0

>  <PUBCHEM_COMPONENT_COUNT>  (1) 
1

>  <PUBCHEM_CACTVS_TAUTO_COUNT>  (1) 
1

>  <PUBCHEM_CONFORMER_ID>  (1) 
0000B90600000001

>  <PUBCHEM_MMFF94_ENERGY>  (1) 
51.162

>  <PUBCHEM_FEATURE_SELFOVERLAP>  (1) 
15.223

>  <PUBCHEM_SHAPE_FINGERPRINT>  (1) 
10493431 412 18051128387399314056
10967382 1 18410572907193807318
10980938 120 18335982077226125252
1100329 8 15238641685599363219
11132069 177 18408881806733750375
11471102 22 18408046216567248602
12107183 9 17908427957160309329
12251169 10 18410855464639523903
12382932 28 18338516327037238367
12390115 104 17764319731432882488
12553582 1 18193830449451091878
12633257 1 18186799192681198339
13140716 1 18410575041934952113
13533116 47 18408889538434869947
13675066 3 17989203754914613568
14178342 30 17908969243377777858
14223421 5 18408884005847001565
14252887 29 18334296440059297778
14289901 80 18342174505333836523
14341114 176 18340494382651926211
14790565 3 18337679732202538388
15209294 21 18059571425107834640
15375462 189 17894905200920505330
15442244 35 18339365145618758881
1601671 61 18411423891071932036
16945 1 18266437907135370044
17492 89 18410015472475110739
17804303 29 18264215707740708999
1813 80 17168432571112510878
19050596 39 18410857693864583713
19591789 44 18410009979295438764
19784866 9 18343020012632773840
200 152 18201425988040400319
20157964 124 18342174411556796797
20645477 70 18335689538571974415
20739085 24 18187927330677991132
21041028 32 18055348042517105600
21065198 57 18409450254693677553
21065199 12 18408045117519818625
21267235 1 18410302414533115215
21421861 104 17751919116881380874
21637258 2 15647317633978016880
22182313 1 18124579900551630454
22854114 111 18341050816997664305
23184049 59 18412824668358191542
2334 1 18410570716702451245
23463225 33 18409449171966325589
23557571 272 17095514072434233141
23558518 356 17907013229150677294
23559900 14 18339640027667734939
2748010 2 17979895143935506590
2838139 119 14620214404573577274
31174 14 18336260167863389798
5104073 3 18410583864372804899
633830 44 18131357439737103789
7097593 13 18410292536229595343
7364860 26 18343028756985630807
9709674 26 18335991938814259635

>  <PUBCHEM_SHAPE_MULTIPOLES>  (1) 
373.91
8.44
3.05
0.92
4.85
0
-0.01
0
-3.51
-2.13
0.25
0.09
0
0

>  <PUBCHEM_SHAPE_SELFOVERLAP>  (1) 
739.655

>  <PUBCHEM_SHAPE_VOLUME>  (1) 
226.5

>  <PUBCHEM_COORDINATE_TYPE>  (1) 
2
5
10

$$$$
