47362
     RDKit          3D

 21 23  0  0  0  0  0  0  0  0999 V2000
   -2.9445    0.3964   -0.5770 S   0  0  0  0  0  0  0  0  0  0  0  0
   -3.2263    1.7213   -1.1115 O   0  0  0  0  0  0  0  0  0  0  0  0
   -3.4741   -0.7822   -1.2485 O   0  0  0  0  0  0  0  0  0  0  0  0
    1.2125    3.4985   -0.0559 O   0  0  0  0  0  0  0  0  0  0  0  0
    0.5335   -3.4858   -0.4450 O   0  0  0  0  0  0  0  0  0  0  0  0
    3.0185    2.2549    0.0497 O   0  0  0  0  0  0  0  0  0  0  0  0
    2.5435   -2.6313   -0.2237 O   0  0  0  0  0  0  0  0  0  0  0  0
   -3.4183    0.3517    1.0640 N   0  0  0  0  0  0  0  0  0  0  0  0
    2.9570   -0.2068   -0.0715 N   0  0  0  0  0  0  0  0  0  0  0  0
    1.7761    2.3792   -0.0572 N   0  0  0  0  0  0  0  0  0  0  0  0
    1.3016   -2.5025   -0.3293 N   0  0  0  0  0  0  0  0  0  0  0  0
   -3.7159   -0.9925    1.5722 C   0  0  0  0  0  0  0  0  0  0  0  0
   -4.8209   -0.0230    1.2806 C   0  0  0  0  0  0  0  0  0  0  0  0
    3.5432   -0.9607    1.0442 C   0  0  0  0  0  0  0  0  0  0  0  0
    3.6999    0.5143    0.9700 C   0  0  0  0  0  0  0  0  0  0  0  0
    1.5519   -0.0630   -0.1916 C   0  0  0  0  0  0  0  0  0  0  0  0
   -1.2137    0.2192   -0.4284 C   0  0  0  0  0  0  0  0  0  0  0  0
    0.9772    1.2080   -0.1841 C   0  0  0  0  0  0  0  0  0  0  0  0
    0.7436   -1.1929   -0.3181 C   0  0  0  0  0  0  0  0  0  0  0  0
   -0.4056    1.3491   -0.3026 C   0  0  0  0  0  0  0  0  0  0  0  0
   -0.6393   -1.0519   -0.4362 C   0  0  0  0  0  0  0  0  0  0  0  0
  1  2  2  0
  1  3  2  0
  1  8  1  0
  1 17  1  0
  4 10  1  0
  5 11  1  0
  6 10  2  0
  7 11  2  0
  8 12  1  0
  8 13  1  0
  9 14  1  0
  9 15  1  0
  9 16  1  0
 10 18  1  0
 11 19  1  0
 12 13  1  0
 14 15  1  0
 16 18  2  0
 16 19  1  0
 17 20  2  0
 17 21  1  0
 18 20  1  0
 19 21  2  0
M  CHG  4   4  -1   5  -1  10   1  11   1
M  END
>  <PUBCHEM_COMPOUND_CID>  (1) 
47362

>  <PUBCHEM_CONFORMER_RMSD>  (1) 
0.8

>  <PUBCHEM_CONFORMER_DIVERSEORDER>  (1) 
1
3
2

>  <PUBCHEM_MMFF94_PARTIAL_CHARGES>  (1) 
31
1 1.45
10 0.91
11 0.91
12 0.03
13 0.03
14 -0.03
15 -0.03
16 0.1
17 -0.01
18 0.13
19 0.13
2 -0.65
20 -0.15
21 -0.15
22 0.1
23 0.1
24 0.1
25 0.1
26 0.1
27 0.1
28 0.1
29 0.1
3 -0.65
30 0.15
31 0.15
4 -0.52
5 -0.52
6 -0.52
7 -0.52
8 -0.6
9 -0.44

>  <PUBCHEM_EFFECTIVE_ROTOR_COUNT>  (1) 
6.2

>  <PUBCHEM_PHARMACOPHORE_FEATURES>  (1) 
10
1 2 acceptor
1 3 acceptor
1 4 acceptor
1 4 anion
1 5 acceptor
1 5 anion
1 6 acceptor
1 7 acceptor
1 9 cation
6 16 17 18 19 20 21 rings

>  <PUBCHEM_HEAVY_ATOM_COUNT>  (1) 
21

>  <PUBCHEM_ATOM_DEF_STEREO_COUNT>  (1) 
0

>  <PUBCHEM_ATOM_UDEF_STEREO_COUNT>  (1) 
0

>  <PUBCHEM_BOND_DEF_STEREO_COUNT>  (1) 
0

>  <PUBCHEM_BOND_UDEF_STEREO_COUNT>  (1) 
0

>  <PUBCHEM_ISOTOPIC_ATOM_COUNT>  (1) 
0

>  <PUBCHEM_COMPONENT_COUNT>  (1) 
1

>  <PUBCHEM_CACTVS_TAUTO_COUNT>  (1) 
1

>  <PUBCHEM_CONFORMER_ID>  (1) 
0000B90200000001

>  <PUBCHEM_MMFF94_ENERGY>  (1) 
126.3649

>  <PUBCHEM_FEATURE_SELFOVERLAP>  (1) 
50.93

>  <PUBCHEM_SHAPE_FINGERPRINT>  (1) 
10366900 7 18114758104561375555
10493431 412 18269835492364951232
10967382 1 18339068372174125420
11471102 22 18335990808931392387
11578080 2 16839615844803891473
11640471 11 17346048796413483595
12390115 104 17475801321926647312
12553582 1 18411702045490231910
12633257 1 18261971694997858299
12644460 14 18261395610892553144
13140716 1 18267021845876633146
13583140 156 17168963703805765122
14223421 5 18334863805376151737
14790565 3 18339377339369327884
14955137 171 18339092552993047560
15309172 13 18412261778629140861
15422964 175 18192437372217812970
15653759 3 17603304864769353721
16945 1 18411699880789700500
18186145 218 18272934950796967108
18219364 16 18409440406144004165
19049666 15 18115870685795602261
19433438 48 18131059450996040607
19591789 44 18121789579941337926
20510252 161 16611099288079542256
20645477 70 18335124406795947455
20739085 24 18335714840040172656
21524375 3 17984981745906408605
22182313 1 18124863565782411470
22854114 111 18341055202444136089
23184049 59 18411135857300267856
2334 1 17978784937185087750
23526113 38 18044359540473092223
23557571 272 17167856440310679285
23558518 356 17183630334702522260
23559900 14 17752488655199258062
2748010 2 18052247397967020046
2838139 119 14907031955580815800
350125 39 17979073009221080322
458136 41 18265912404231909620
474 4 18342739662757841089
49207404 50 18335995267012649875
633830 44 17988093286646313965
81228 2 17401766320027278276
9709674 26 18262795164777336167

>  <PUBCHEM_SHAPE_MULTIPOLES>  (1) 
380.88
7.44
3.06
1.13
5.19
0.11
0.28
-0.05
2.94
-2.57
-0.54
1.05
0.17
0.52

>  <PUBCHEM_SHAPE_SELFOVERLAP>  (1) 
810.76

>  <PUBCHEM_SHAPE_VOLUME>  (1) 
213

>  <PUBCHEM_COORDINATE_TYPE>  (1) 
2
5
10

$$$$
