47371
     RDKit          3D

 17 18  0  0  0  0  0  0  0  0999 V2000
   -0.2010    1.8693    0.2174 O   0  0  0  0  0  0  0  0  0  0  0  0
   -0.2831   -2.9401   -0.3812 O   0  0  0  0  0  0  0  0  0  0  0  0
   -2.9003    1.8576    0.3694 O   0  0  0  0  0  0  0  0  0  0  0  0
    4.0637    1.3698    0.6266 O   0  0  0  0  0  0  0  0  0  0  0  0
   -0.1608   -0.5493   -0.0763 C   0  0  0  0  0  0  0  0  0  0  0  0
   -0.8347    0.6608    0.1180 C   0  0  0  0  0  0  0  0  0  0  0  0
    1.9305    0.5907    0.0356 C   0  0  0  0  0  0  0  0  0  0  0  0
    1.2280    1.8693    0.3641 C   0  0  0  0  0  0  0  0  0  0  0  0
    1.2921   -0.5618   -0.1786 C   0  0  0  0  0  0  0  0  0  0  0  0
   -0.8950   -1.7357   -0.1899 C   0  0  0  0  0  0  0  0  0  0  0  0
   -2.2300    0.6844    0.1896 C   0  0  0  0  0  0  0  0  0  0  0  0
   -2.2883   -1.7104   -0.1092 C   0  0  0  0  0  0  0  0  0  0  0  0
   -2.9550   -0.5013    0.0794 C   0  0  0  0  0  0  0  0  0  0  0  0
    3.3918    0.5908   -0.0541 C   0  0  0  0  0  0  0  0  0  0  0  0
    4.0457   -0.3921   -0.9927 C   0  0  0  0  0  0  0  0  0  0  0  0
    0.0771   -3.6743    0.7861 C   0  0  0  0  0  0  0  0  0  0  0  0
   -3.2807    2.5723   -0.8043 C   0  0  0  0  0  0  0  0  0  0  0  0
  1  6  1  0
  1  8  1  0
  2 10  1  0
  2 16  1  0
  3 11  1  0
  3 17  1  0
  4 14  2  0
  5  6  2  0
  5  9  1  0
  5 10  1  0
  6 11  1  0
  7  8  1  0
  7  9  2  0
  7 14  1  0
 10 12  2  0
 11 13  2  0
 12 13  1  0
 14 15  1  0
M  END
>  <PUBCHEM_COMPOUND_CID>  (1) 
47371

>  <PUBCHEM_CONFORMER_RMSD>  (1) 
0.6

>  <PUBCHEM_CONFORMER_DIVERSEORDER>  (1) 
5
6
11
7
4
12
3
10
1
2
9
8

>  <PUBCHEM_MMFF94_PARTIAL_CHARGES>  (1) 
20
1 -0.36
10 0.08
11 0.08
12 -0.15
13 -0.15
14 0.49
15 0.06
16 0.28
17 0.28
2 -0.36
20 0.15
21 0.15
22 0.15
3 -0.36
4 -0.57
5 0.03
6 0.08
7 -0.12
8 0.42
9 -0.18

>  <PUBCHEM_EFFECTIVE_ROTOR_COUNT>  (1) 
3.4

>  <PUBCHEM_PHARMACOPHORE_FEATURES>  (1) 
6
1 1 acceptor
1 2 acceptor
1 3 acceptor
1 4 acceptor
6 1 5 6 7 8 9 rings
6 5 6 10 11 12 13 rings

>  <PUBCHEM_HEAVY_ATOM_COUNT>  (1) 
17

>  <PUBCHEM_ATOM_DEF_STEREO_COUNT>  (1) 
0

>  <PUBCHEM_ATOM_UDEF_STEREO_COUNT>  (1) 
0

>  <PUBCHEM_BOND_DEF_STEREO_COUNT>  (1) 
0

>  <PUBCHEM_BOND_UDEF_STEREO_COUNT>  (1) 
0

>  <PUBCHEM_ISOTOPIC_ATOM_COUNT>  (1) 
0

>  <PUBCHEM_COMPONENT_COUNT>  (1) 
1

>  <PUBCHEM_CACTVS_TAUTO_COUNT>  (1) 
2

>  <PUBCHEM_CONFORMER_ID>  (1) 
0000B90B00000005

>  <PUBCHEM_MMFF94_ENERGY>  (1) 
71.39

>  <PUBCHEM_FEATURE_SELFOVERLAP>  (1) 
30.485

>  <PUBCHEM_SHAPE_FINGERPRINT>  (1) 
10608611 8 18271524307686206432
10967382 1 18123190095530004201
12173636 292 18409164428461747084
12500047 106 18411980278325907020
12553582 1 17114109318142454894
12592029 89 18336834069920223299
12644460 14 17975990760554013481
12730499 353 18192994816909936445
13140716 1 18266743489056936906
14614273 12 18261670394425845477
15042514 8 18192716876037254195
15309172 13 18410864230504374937
16752209 62 18337943575694290419
16945 1 18266461103488883467
18186145 218 18272377429830056720
193761 8 17330841218808330760
19591789 44 18410862018638707523
20510252 161 18272091638215918305
20645476 183 18114481018988494134
20645477 56 18341053016268950288
20871999 31 18339091470587540292
21524375 3 18413392020959033335
2334 1 18411983550521300262
23402539 116 18127685148658278927
23419403 2 17058348526716370833
23493267 7 17895204250734696560
23557571 272 18199762499915033508
23559900 14 18201160962951898436
25 1 18194680367749721541
2748010 2 18340217297094842639
305870 269 18335981956819321843
3071541 12 17835522622393165033
3071541 37 18120093871076551877
3084891 72 18270117899206782704
3091708 16 9196063990811200227
43471831 8 18335419036888844091
54173680 148 18049725414524728482
559249 180 18336263449841220810
58807428 26 18338801117454440994
7364860 26 17979072678350622251
81228 2 18051690241866672955
8809292 202 18195250138021388586
9709674 26 18199754820302219302

>  <PUBCHEM_SHAPE_MULTIPOLES>  (1) 
326.37
5.89
3.41
0.78
4.02
2.46
0.05
-3.3
0.76
-1.78
-0.33
0.19
0.02
0.53

>  <PUBCHEM_SHAPE_SELFOVERLAP>  (1) 
696.891

>  <PUBCHEM_SHAPE_VOLUME>  (1) 
181.1

>  <PUBCHEM_COORDINATE_TYPE>  (1) 
2
5
10

$$$$
