47376
     RDKit          3D

 11 10  0  0  1  0  0  0  0  0999 V2000
    0.8939    1.0748   -1.5152 N   0  0  0  0  0  0  0  0  0  0  0  0
    0.6271    0.7393   -0.1127 C   0  0  0  0  0  0  0  0  0  0  0  0
    1.8627   -0.0006    0.4738 C   0  0  0  0  0  0  0  0  0  0  0  0
    0.3961    2.0304    0.7207 C   0  0  0  0  0  0  0  0  0  0  0  0
    2.2688   -1.2872   -0.2628 C   0  0  0  0  0  0  0  0  0  0  0  0
   -0.7587    2.9195    0.2632 C   0  0  0  0  0  0  0  0  0  0  0  0
   -0.5639   -0.1350   -0.0276 C   0  0  0  0  0  0  0  0  0  0  0  0
    3.5224   -1.8978    0.3471 C   0  0  0  0  0  0  0  0  0  0  0  0
   -1.5338   -0.8406    0.0423 C   0  0  0  0  0  0  0  0  0  0  0  0
   -2.7186   -1.7019    0.1289 C   0  0  0  0  0  0  0  0  0  0  0  0
   -3.9959   -0.9010   -0.0576 C   0  0  0  0  0  0  0  0  0  0  0  0
  1  2  1  0
  2  3  1  0
  2  4  1  0
  2  7  1  0
  3  5  1  0
  4  6  1  0
  5  8  1  0
  7  9  3  0
  9 10  1  0
 10 11  1  0
M  END
>  <PUBCHEM_COMPOUND_CID>  (1) 
47376

>  <PUBCHEM_CONFORMER_RMSD>  (1) 
0.6

>  <PUBCHEM_CONFORMER_DIVERSEORDER>  (1) 
1
14
10
6
2
9
13
11
7
5
12
3
4
8
15

>  <PUBCHEM_MMFF94_PARTIAL_CHARGES>  (1) 
7
1 -0.99
10 0.2
18 0.36
19 0.36
2 0.47
7 -0.2
9 -0.2

>  <PUBCHEM_EFFECTIVE_ROTOR_COUNT>  (1) 
3

>  <PUBCHEM_PHARMACOPHORE_FEATURES>  (1) 
5
1 1 cation
1 1 donor
1 11 hydrophobe
1 6 hydrophobe
1 8 hydrophobe

>  <PUBCHEM_HEAVY_ATOM_COUNT>  (1) 
11

>  <PUBCHEM_ATOM_DEF_STEREO_COUNT>  (1) 
0

>  <PUBCHEM_ATOM_UDEF_STEREO_COUNT>  (1) 
1

>  <PUBCHEM_BOND_DEF_STEREO_COUNT>  (1) 
0

>  <PUBCHEM_BOND_UDEF_STEREO_COUNT>  (1) 
0

>  <PUBCHEM_ISOTOPIC_ATOM_COUNT>  (1) 
0

>  <PUBCHEM_COMPONENT_COUNT>  (1) 
1

>  <PUBCHEM_CACTVS_TAUTO_COUNT>  (1) 
1

>  <PUBCHEM_CONFORMER_ID>  (1) 
0000B91000000001

>  <PUBCHEM_MMFF94_ENERGY>  (1) 
-0.299

>  <PUBCHEM_FEATURE_SELFOVERLAP>  (1) 
25.373

>  <PUBCHEM_SHAPE_FINGERPRINT>  (1) 
10130415 120 18409169922099393251
12725867 57 18341610481322216201
12932764 1 17980775045169357487
15219459 28 17555738702918443910
17041 49 18272099318123696203
18410436 195 18342174487842646273
19021347 4 17476644174270221945
20339313 130 18339371854421173723
20645477 70 18120363509498519215
20653085 51 9294993713725254810
20708731 107 18043254741318828583
20711985 344 18190732029709480466
20711985 365 18337953376746167974
20871998 184 17986667082757854374
20871998 22 18412539920758852194
21296965 67 18412258415559166762
21524375 3 16690764364610454129
23500284 5 18190739739297518418
305870 269 17692806403855113721
3086196 2 18266729191580378314
7364860 26 18124032592172814171
81228 2 18266469697765928866

>  <PUBCHEM_SHAPE_MULTIPOLES>  (1) 
221.39
5.14
2.82
0.87
1.96
1.96
0.21
-5.14
-0.35
0.03
-0.37
-0.24
0.24
-0.17

>  <PUBCHEM_SHAPE_SELFOVERLAP>  (1) 
405.944

>  <PUBCHEM_SHAPE_VOLUME>  (1) 
141.2

>  <PUBCHEM_COORDINATE_TYPE>  (1) 
2
5
10

$$$$
