47370
     RDKit          3D

 16 17  0  0  0  0  0  0  0  0999 V2000
   -0.5155   -1.8421    0.1919 O   0  0  0  0  0  0  0  0  0  0  0  0
    2.3727   -1.5350    0.4049 O   0  0  0  0  0  0  0  0  0  0  0  0
    3.3256    1.0889    0.3599 O   0  0  0  0  0  0  0  0  0  0  0  0
   -3.4829    1.6572   -0.1988 O   0  0  0  0  0  0  0  0  0  0  0  0
   -0.7686    0.3996    0.0706 C   0  0  0  0  0  0  0  0  0  0  0  0
    0.1400   -0.6473    0.1888 C   0  0  0  0  0  0  0  0  0  0  0  0
   -2.0499   -0.2079   -0.0017 C   0  0  0  0  0  0  0  0  0  0  0  0
    1.5196   -0.4771    0.2888 C   0  0  0  0  0  0  0  0  0  0  0  0
   -0.2769    1.7165    0.0494 C   0  0  0  0  0  0  0  0  0  0  0  0
    1.9865    0.8406    0.2657 C   0  0  0  0  0  0  0  0  0  0  0  0
   -1.8404   -1.5653    0.0761 C   0  0  0  0  0  0  0  0  0  0  0  0
    1.1065    1.9193    0.1483 C   0  0  0  0  0  0  0  0  0  0  0  0
   -3.3339    0.4156   -0.1320 C   0  0  0  0  0  0  0  0  0  0  0  0
   -4.6106   -0.4245   -0.1957 C   0  0  0  0  0  0  0  0  0  0  0  0
    2.3695   -2.4874   -0.6557 C   0  0  0  0  0  0  0  0  0  0  0  0
    4.0582    1.1490   -0.8607 C   0  0  0  0  0  0  0  0  0  0  0  0
  1  6  1  0
  1 11  1  0
  2  8  1  0
  2 15  1  0
  3 10  1  0
  3 16  1  0
  4 13  2  0
  5  6  2  0
  5  7  1  0
  5  9  1  0
  6  8  1  0
  7 11  2  0
  7 13  1  0
  8 10  2  0
  9 12  2  0
 10 12  1  0
 13 14  1  0
M  END
>  <PUBCHEM_COMPOUND_CID>  (1) 
47370

>  <PUBCHEM_CONFORMER_RMSD>  (1) 
0.6

>  <PUBCHEM_CONFORMER_DIVERSEORDER>  (1) 
2
3
8
7
6
1
9
5
4

>  <PUBCHEM_MMFF94_PARTIAL_CHARGES>  (1) 
18
1 -0.28
10 0.08
11 -0.01
12 -0.15
13 0.6
14 0.06
15 0.28
16 0.28
17 0.15
18 0.15
19 0.15
2 -0.36
3 -0.36
4 -0.57
6 0.14
7 -0.09
8 0.08
9 -0.15

>  <PUBCHEM_EFFECTIVE_ROTOR_COUNT>  (1) 
3

>  <PUBCHEM_PHARMACOPHORE_FEATURES>  (1) 
6
1 1 acceptor
1 2 acceptor
1 3 acceptor
1 4 acceptor
5 1 5 6 7 11 rings
6 5 6 8 9 10 12 rings

>  <PUBCHEM_HEAVY_ATOM_COUNT>  (1) 
16

>  <PUBCHEM_ATOM_DEF_STEREO_COUNT>  (1) 
0

>  <PUBCHEM_ATOM_UDEF_STEREO_COUNT>  (1) 
0

>  <PUBCHEM_BOND_DEF_STEREO_COUNT>  (1) 
0

>  <PUBCHEM_BOND_UDEF_STEREO_COUNT>  (1) 
0

>  <PUBCHEM_ISOTOPIC_ATOM_COUNT>  (1) 
0

>  <PUBCHEM_COMPONENT_COUNT>  (1) 
1

>  <PUBCHEM_CACTVS_TAUTO_COUNT>  (1) 
2

>  <PUBCHEM_CONFORMER_ID>  (1) 
0000B90A00000002

>  <PUBCHEM_MMFF94_ENERGY>  (1) 
50.9258

>  <PUBCHEM_FEATURE_SELFOVERLAP>  (1) 
30.556

>  <PUBCHEM_SHAPE_FINGERPRINT>  (1) 
10608611 8 18409162212569799737
10967382 1 18410854369238130201
10980938 120 18410572885645124227
11132069 177 18337666524934892904
11471102 20 18410852174483474669
116883 192 17911803474831702460
12032990 46 18339082571389136595
13140716 1 18122055674450699552
13380535 21 18409174332645671290
13380535 76 18337105765013859354
14144814 61 18411134745046241009
14325111 11 18410289190655728577
14576447 43 18057589053436507167
14617773 55 17630615522037462737
14897335 6 18410851087867402226
14911166 2 18340209690802921340
15196674 1 18410009897564673713
15219456 202 18409733958399978491
15442244 35 18268991986235761745
15536298 74 18342737390546158970
16945 1 18339357594839353777
18186145 218 18115304462961018007
193761 8 16825867362642368363
20588541 1 18408885169777675568
20645477 70 18339917130832163423
21267235 1 18410862044413656194
21501502 16 18270124483133431568
2334 1 18338514127745275864
23402655 69 18340758287555764925
23463225 33 18337103475722210210
23493267 7 17894916282099600976
23559900 14 18268708308431945174
25 1 18408882957753356660
2748010 2 18337105661892166783
3071541 37 18408044017913284102
3312278 4 18339647840144635664
335352 9 17979071587840113261
4990 188 18060146448388580404
5104073 3 18410011001518845897
528886 8 18338791320623495472
53812653 166 18341326803079991488
63268167 104 18412827971351592177
7364860 26 18343300345243044442
9709674 26 18410013264640062515

>  <PUBCHEM_SHAPE_MULTIPOLES>  (1) 
305.8
6.72
2.3
0.71
2.84
0.68
-0.05
-1.09
-1.2
-1.18
-0.17
-0.27
0.02
0.1

>  <PUBCHEM_SHAPE_SELFOVERLAP>  (1) 
659.997

>  <PUBCHEM_SHAPE_VOLUME>  (1) 
171.4

>  <PUBCHEM_COORDINATE_TYPE>  (1) 
2
5
10

$$$$
