47388
     RDKit          3D

 14 13  0  0  1  0  0  0  0  0999 V2000
   -1.5967   -0.1391   -0.1190 N   0  0  0  0  0  0  0  0  0  0  0  0
   -0.1484    0.0155    0.1082 C   0  0  0  0  0  0  0  0  0  0  0  0
    0.5606   -0.0957   -1.2742 C   0  0  0  0  0  0  0  0  0  0  0  0
    0.3576   -1.1637    0.9926 C   0  0  0  0  0  0  0  0  0  0  0  0
    0.0592    1.4008    0.7778 C   0  0  0  0  0  0  0  0  0  0  0  0
    2.0930   -0.0214   -1.2461 C   0  0  0  0  0  0  0  0  0  0  0  0
    0.0862   -2.5758    0.4577 C   0  0  0  0  0  0  0  0  0  0  0  0
    1.5196    1.7749    1.0568 C   0  0  0  0  0  0  0  0  0  0  0  0
   -2.0652    0.8712   -1.0606 C   0  0  0  0  0  0  0  0  0  0  0  0
   -2.3138   -0.0431    1.1473 C   0  0  0  0  0  0  0  0  0  0  0  0
    2.6782   -0.2031   -2.6395 C   0  0  0  0  0  0  0  0  0  0  0  0
    0.6996   -3.6340    1.3642 C   0  0  0  0  0  0  0  0  0  0  0  0
    1.6173    3.1076    1.7860 C   0  0  0  0  0  0  0  0  0  0  0  0
   -3.5472    0.7058   -1.3511 C   0  0  0  0  0  0  0  0  0  0  0  0
  1  2  1  0
  1  9  1  0
  1 10  1  0
  2  3  1  0
  2  4  1  0
  2  5  1  0
  3  6  1  0
  4  7  1  0
  5  8  1  0
  6 11  1  0
  7 12  1  0
  8 13  1  0
  9 14  1  0
M  END
>  <PUBCHEM_COMPOUND_CID>  (1) 
47388

>  <PUBCHEM_CONFORMER_RMSD>  (1) 
0.8

>  <PUBCHEM_CONFORMER_DIVERSEORDER>  (1) 
2
7
3
6
4
1
5

>  <PUBCHEM_MMFF94_PARTIAL_CHARGES>  (1) 
4
1 -0.81
10 0.27
2 0.27
9 0.27

>  <PUBCHEM_EFFECTIVE_ROTOR_COUNT>  (1) 
8

>  <PUBCHEM_PHARMACOPHORE_FEATURES>  (1) 
4
1 1 cation
1 11 hydrophobe
1 12 hydrophobe
1 13 hydrophobe

>  <PUBCHEM_HEAVY_ATOM_COUNT>  (1) 
14

>  <PUBCHEM_ATOM_DEF_STEREO_COUNT>  (1) 
0

>  <PUBCHEM_ATOM_UDEF_STEREO_COUNT>  (1) 
0

>  <PUBCHEM_BOND_DEF_STEREO_COUNT>  (1) 
0

>  <PUBCHEM_BOND_UDEF_STEREO_COUNT>  (1) 
0

>  <PUBCHEM_ISOTOPIC_ATOM_COUNT>  (1) 
0

>  <PUBCHEM_COMPONENT_COUNT>  (1) 
1

>  <PUBCHEM_CACTVS_TAUTO_COUNT>  (1) 
1

>  <PUBCHEM_CONFORMER_ID>  (1) 
0000B91C00000002

>  <PUBCHEM_MMFF94_ENERGY>  (1) 
43.7905

>  <PUBCHEM_FEATURE_SELFOVERLAP>  (1) 
20.297

>  <PUBCHEM_SHAPE_FINGERPRINT>  (1) 
12326174 3 18058428989650911121
12423570 1 14821822694477058059
13024252 1 13410203090355150676
13134695 92 17618181085320760893
13380536 167 17185905803632154088
13380536 261 17909281182219876380
13380537 58 17972302177857151897
13898156 1 17403476073640986934
14817 1 10324934193971885612
15219459 28 17765709509423363214
15852999 172 17911782871715750120
15906896 17 17332205077030298632
16945 1 17846786233977028844
20511035 2 17604409860764334147
20711985 344 17319868556603724514
21524375 3 17625501912721963617
22112679 90 17626670397213137177
22344851 12 11885952250893894498
23211744 41 18054210296700369321
23419403 2 17696785476153382110
23526113 38 18199489799113065614
2748010 2 18264209299754796971
298252 57 17096390447604863860
3250762 1 17623883478781341674
4175511 376 18130495418483968548
5845 1 9849908161018514923
68419 9 17333668076103711782
7364860 26 18122032383206627587
76951 1 18339920420407470132
81228 2 17542520765077411315

>  <PUBCHEM_SHAPE_MULTIPOLES>  (1) 
283.13
3.63
3.32
2.24
2.61
1.93
-0.98
-1.42
-2.41
-1.99
3.14
-1.37
-0.38
1.01

>  <PUBCHEM_SHAPE_SELFOVERLAP>  (1) 
520.196

>  <PUBCHEM_SHAPE_VOLUME>  (1) 
181.6

>  <PUBCHEM_COORDINATE_TYPE>  (1) 
2
5
10

$$$$
