4740
     RDKit          3D

 20 21  0  0  0  0  0  0  0  0999 V2000
    0.6376    2.0245    0.7478 O   0  0  0  0  0  0  0  0  0  0  0  0
    0.2415   -2.6413    0.4498 O   0  0  0  0  0  0  0  0  0  0  0  0
   -6.1933    0.2065    0.8634 O   0  0  0  0  0  0  0  0  0  0  0  0
    0.4151   -0.3104    0.6066 N   0  0  0  0  0  0  0  0  0  0  0  0
    2.2770   -1.6738   -0.1287 N   0  0  0  0  0  0  0  0  0  0  0  0
    3.4440    1.6279   -0.2084 N   0  0  0  0  0  0  0  0  0  0  0  0
    4.2978   -0.3787   -0.6724 N   0  0  0  0  0  0  0  0  0  0  0  0
   -0.9675   -0.2387    1.0673 C   0  0  0  0  0  0  0  0  0  0  0  0
   -1.9568   -0.0875   -0.0843 C   0  0  0  0  0  0  0  0  0  0  0  0
   -3.4086    0.0170    0.3991 C   0  0  0  0  0  0  0  0  0  0  0  0
    2.4496    0.7242    0.0339 C   0  0  0  0  0  0  0  0  0  0  0  0
    1.1123    0.9216    0.4909 C   0  0  0  0  0  0  0  0  0  0  0  0
    2.9983   -0.4948   -0.2575 C   0  0  0  0  0  0  0  0  0  0  0  0
    0.9320   -1.6246    0.3161 C   0  0  0  0  0  0  0  0  0  0  0  0
   -4.3973    0.1600   -0.7575 C   0  0  0  0  0  0  0  0  0  0  0  0
    4.5367    0.9159   -0.6315 C   0  0  0  0  0  0  0  0  0  0  0  0
    2.9053   -2.9489   -0.4515 C   0  0  0  0  0  0  0  0  0  0  0  0
    3.3845    3.0619   -0.0566 C   0  0  0  0  0  0  0  0  0  0  0  0
   -5.8478    0.2622   -0.3157 C   0  0  0  0  0  0  0  0  0  0  0  0
   -6.8604    0.4769   -1.4107 C   0  0  0  0  0  0  0  0  0  0  0  0
  1 12  2  0
  2 14  2  0
  3 19  2  0
  4  8  1  0
  4 12  1  0
  4 14  1  0
  5 13  1  0
  5 14  1  0
  5 17  1  0
  6 11  1  0
  6 16  1  0
  6 18  1  0
  7 13  1  0
  7 16  2  0
  8  9  1  0
  9 10  1  0
 10 15  1  0
 11 12  1  0
 11 13  2  0
 15 19  1  0
 19 20  1  0
M  END
>  <PUBCHEM_COMPOUND_CID>  (1) 
4740

>  <PUBCHEM_CONFORMER_RMSD>  (1) 
0.8

>  <PUBCHEM_CONFORMER_DIVERSEORDER>  (1) 
1
27
13
14
22
49
34
35
43
45
2
21
16
28
33
29
48
11
26
40
20
10
23
32
8
24
46
47
25
7
31
39
3
5
50
4
44
17
38
9
30
6
41
15
12
36
19
18
37
42

>  <PUBCHEM_MMFF94_PARTIAL_CHARGES>  (1) 
19
1 -0.57
11 -0.24
12 0.71
13 0.29
14 0.69
15 0.06
16 0.04
17 0.3
18 0.26
19 0.45
2 -0.57
20 0.06
29 0.15
3 -0.57
4 -0.42
5 -0.42
6 0.05
7 -0.57
8 0.3

>  <PUBCHEM_EFFECTIVE_ROTOR_COUNT>  (1) 
5

>  <PUBCHEM_PHARMACOPHORE_FEATURES>  (1) 
6
1 1 acceptor
1 2 acceptor
1 3 acceptor
3 6 7 16 cation
5 6 7 11 13 16 rings
6 4 5 11 12 13 14 rings

>  <PUBCHEM_HEAVY_ATOM_COUNT>  (1) 
20

>  <PUBCHEM_ATOM_DEF_STEREO_COUNT>  (1) 
0

>  <PUBCHEM_ATOM_UDEF_STEREO_COUNT>  (1) 
0

>  <PUBCHEM_BOND_DEF_STEREO_COUNT>  (1) 
0

>  <PUBCHEM_BOND_UDEF_STEREO_COUNT>  (1) 
0

>  <PUBCHEM_ISOTOPIC_ATOM_COUNT>  (1) 
0

>  <PUBCHEM_COMPONENT_COUNT>  (1) 
1

>  <PUBCHEM_CACTVS_TAUTO_COUNT>  (1) 
3

>  <PUBCHEM_CONFORMER_ID>  (1) 
0000128400000001

>  <PUBCHEM_MMFF94_ENERGY>  (1) 
25.6889

>  <PUBCHEM_FEATURE_SELFOVERLAP>  (1) 
30.561

>  <PUBCHEM_SHAPE_FINGERPRINT>  (1) 
10411042 1 17978230461756990546
10693767 8 17987806198664728558
11471102 20 18411142437406391072
11796584 16 14189578542077407141
12236239 1 17561085787194599801
12730499 353 18333737931139113715
12788726 201 17346325847826963865
13540713 4 18051991495879717210
13836976 161 18272933825589401878
13955234 65 18409445869163219426
14528608 73 18410288129999123869
14576447 43 18131630071491994599
15183329 4 17846779573490483645
15475509 35 13901631766905839446
16945 1 18268170737603280210
17834072 33 18343017801014454655
17844677 252 18337957779974103661
20612939 158 18411419479982256883
20645477 70 18339362963654410487
21637258 2 15410620237964198852
221357 26 18411131403841675381
22289505 5 18409441454216420149
2334 1 17909001138242793754
23402655 69 18342739641367549927
23424782 7 18187929526144608123
23557571 272 17095523968197080013
23559900 14 18128550435046362084
2748010 2 17980502349321778874
2871803 45 18412266112156450324
29717793 49 17561089085587357277
3060560 45 18411699889575080214
335352 9 18410578397079942094
4072396 5 18336253597059247506
42630746 31 18411696573791781738
495365 180 18271238434763094856
5281201 14 18335700477869345701
59682541 52 18342163441977948245
6025842 7 18412260614772631879
6327066 14 18047752886834352636
7164475 11 18057609758956954200
8272917 22 18341618092056927975

>  <PUBCHEM_SHAPE_MULTIPOLES>  (1) 
374.06
13.2
2.55
0.95
26.96
0.47
-0.05
-3.81
-4.51
-4.44
-0.02
0.82
-0.05
0.37

>  <PUBCHEM_SHAPE_SELFOVERLAP>  (1) 
777.366

>  <PUBCHEM_SHAPE_VOLUME>  (1) 
214.1

>  <PUBCHEM_COORDINATE_TYPE>  (1) 
2
5
10

$$$$
