47407
     RDKit          3D

 28 30  0  0  1  0  0  0  0  0999 V2000
    2.8654   -2.4528    1.4708 O   0  0  0  0  0  0  0  0  0  0  0  0
    0.0333    4.4758   -0.7139 O   0  0  0  0  0  0  0  0  0  0  0  0
   -1.9409    2.5510   -0.3553 O   0  0  0  0  0  0  0  0  0  0  0  0
   -6.1167   -2.3185   -1.5303 O   0  0  0  0  0  0  0  0  0  0  0  0
    1.2276    1.0036   -0.1962 N   0  0  0  0  0  0  0  0  0  0  0  0
   -5.6572   -1.4502    0.6129 N   0  0  0  0  0  0  0  0  0  0  0  0
    2.9616   -1.2386    0.7072 C   0  0  0  0  0  0  0  0  0  0  0  0
    1.9308   -1.3454   -0.4401 C   0  0  0  0  0  0  0  0  0  0  0  0
    2.4858   -0.0968    1.6351 C   0  0  0  0  0  0  0  0  0  0  0  0
    1.7040   -0.0079   -1.1473 C   0  0  0  0  0  0  0  0  0  0  0  0
    2.1931    1.2112    0.8899 C   0  0  0  0  0  0  0  0  0  0  0  0
    0.9473    2.2639   -0.8830 C   0  0  0  0  0  0  0  0  0  0  0  0
    4.4034   -1.1591    0.1997 C   0  0  0  0  0  0  0  0  0  0  0  0
    0.3059    3.2959    0.0476 C   0  0  0  0  0  0  0  0  0  0  0  0
    4.9013   -2.1539   -0.6405 C   0  0  0  0  0  0  0  0  0  0  0  0
    5.2165   -0.0920    0.5788 C   0  0  0  0  0  0  0  0  0  0  0  0
   -0.9978    2.8130    0.6794 C   0  0  0  0  0  0  0  0  0  0  0  0
    6.2154   -2.0813   -1.1027 C   0  0  0  0  0  0  0  0  0  0  0  0
    6.5306   -0.0195    0.1164 C   0  0  0  0  0  0  0  0  0  0  0  0
    7.0300   -1.0140   -0.7242 C   0  0  0  0  0  0  0  0  0  0  0  0
   -2.8575    1.5622   -0.1162 C   0  0  0  0  0  0  0  0  0  0  0  0
   -3.3658    0.8220   -1.1783 C   0  0  0  0  0  0  0  0  0  0  0  0
   -3.2734    1.3084    1.1865 C   0  0  0  0  0  0  0  0  0  0  0  0
   -4.3012   -0.1837   -0.9350 C   0  0  0  0  0  0  0  0  0  0  0  0
   -4.2088    0.3026    1.4297 C   0  0  0  0  0  0  0  0  0  0  0  0
   -4.7226   -0.4434    0.3689 C   0  0  0  0  0  0  0  0  0  0  0  0
   -6.2786   -2.2971   -0.3145 C   0  0  0  0  0  0  0  0  0  0  0  0
   -7.2316   -3.2556    0.3545 C   0  0  0  0  0  0  0  0  0  0  0  0
  1  7  1  0
  2 14  1  0
  3 17  1  0
  3 21  1  0
  4 27  2  0
  5 10  1  0
  5 11  1  0
  5 12  1  0
  6 26  1  0
  6 27  1  0
  7  8  1  0
  7  9  1  0
  7 13  1  0
  8 10  1  0
  9 11  1  0
 12 14  1  0
 13 15  2  0
 13 16  1  0
 14 17  1  0
 15 18  1  0
 16 19  2  0
 18 20  2  0
 19 20  1  0
 21 22  2  0
 21 23  1  0
 22 24  1  0
 23 25  2  0
 24 26  2  0
 25 26  1  0
 27 28  1  0
M  END
>  <PUBCHEM_COMPOUND_CID>  (1) 
47407

>  <PUBCHEM_CONFORMER_RMSD>  (1) 
1

>  <PUBCHEM_CONFORMER_DIVERSEORDER>  (1) 
3
8
124
192
13
100
55
57
195
217
54
132
139
142
111
65
81
234
240
202
92
184
1
155
110
46
5
214
91
97
220
196
190
83
27
222
193
135
225
138
182
221
180
244
90
191
61
76
75
137
21
226
102
32
136
183
98
87
82
116
35
213
232
148
235
7
63
106
58
145
215
128
227
16
168
45
134
147
187
126
143
37
23
103
22
99
174
33
30
117
171
9
118
60
48
206
169
224
162
164
96
189
243
177
95
165
62
211
53
156
52
86
246
85
15
201
67
216
28
56
68
197
107
113
71
19
109
10
241
112
140
31
24
203
18
185
218
121
51
209
181
223
179
245
160
115
153
200
199
210
238
175
42
170
204
229
89
4
151
94
77
123
38
69
93
161
131
108
114
172
73
129
188
66
20
125
157
166
78
133
228
219
36
14
49
152
194
127
12
163
122
29
237
64
207
146
233
230
26
239
40
150
236
178
2
44
74
144
173
47
119
84
59
11
34
105
70
41
104
212
80
101
167
186
17
79
39
231
242
43
149
130
158
88
72
120
6
154
141
25
198
208
205
50
159
176

>  <PUBCHEM_MMFF94_PARTIAL_CHARGES>  (1) 
38
1 -0.68
10 0.27
11 0.27
12 0.27
13 -0.14
14 0.28
15 -0.15
16 -0.15
17 0.28
18 -0.15
19 -0.15
2 -0.68
20 -0.15
21 0.08
22 -0.15
23 -0.15
24 -0.15
25 -0.15
26 0.12
27 0.57
28 0.06
3 -0.36
4 -0.57
40 0.4
41 0.15
42 0.15
45 0.15
46 0.15
47 0.4
48 0.15
49 0.15
5 -0.81
50 0.15
51 0.15
52 0.15
53 0.37
6 -0.55
7 0.42

>  <PUBCHEM_EFFECTIVE_ROTOR_COUNT>  (1) 
9.2

>  <PUBCHEM_PHARMACOPHORE_FEATURES>  (1) 
11
1 1 acceptor
1 1 donor
1 2 acceptor
1 2 donor
1 3 acceptor
1 4 acceptor
1 5 cation
1 6 donor
6 13 15 16 18 19 20 rings
6 21 22 23 24 25 26 rings
6 5 7 8 9 10 11 rings

>  <PUBCHEM_HEAVY_ATOM_COUNT>  (1) 
28

>  <PUBCHEM_ATOM_DEF_STEREO_COUNT>  (1) 
0

>  <PUBCHEM_ATOM_UDEF_STEREO_COUNT>  (1) 
1

>  <PUBCHEM_BOND_DEF_STEREO_COUNT>  (1) 
0

>  <PUBCHEM_BOND_UDEF_STEREO_COUNT>  (1) 
0

>  <PUBCHEM_ISOTOPIC_ATOM_COUNT>  (1) 
0

>  <PUBCHEM_COMPONENT_COUNT>  (1) 
1

>  <PUBCHEM_CACTVS_TAUTO_COUNT>  (1) 
2

>  <PUBCHEM_CONFORMER_ID>  (1) 
0000B92F00000003

>  <PUBCHEM_MMFF94_ENERGY>  (1) 
83.8323

>  <PUBCHEM_FEATURE_SELFOVERLAP>  (1) 
55.826

>  <PUBCHEM_SHAPE_FINGERPRINT>  (1) 
10042902 136 18412548695276875869
10815517 723 17845642754822285903
11315621 246 18193565458890666444
11475781 23 11458429016655659450
11497681 19 18342183220450422446
11552529 35 18052536573952630384
117089 54 18193842772335217691
12166972 35 18201159948617170747
12596602 18 18060138734431988778
12623949 98 17989215824078807534
12633257 1 15410604926490398705
13177829 73 9511450118183261800
1361 87 17750240360748793643
13631057 29 18335139752666869872
13690498 29 18113616768821782749
13782708 43 18126570021057058670
14117953 113 18343018866472455735
14123256 34 18409450319255746155
14223995 32 9223232931707759358
14251740 57 18341890839765490929
14251764 30 18271527498878458462
14429380 30 18409735088314110963
14931854 50 17749102284140122579
14950920 106 15985094250065882571
15250474 111 17827349978413253442
15510800 12 18042692874409634867
16992779 147 15768348691340345946
17349148 13 17169290160655870996
20609170 17 17772211729581349894
20715895 44 8574710213495284732
20775438 99 17832974328456297379
20775530 9 18341316864947615959
21054139 6 18041564638029695290
21298829 104 9223236238721528074
21315759 148 17489312932408864766
21344244 246 18116720797352910924
21774942 28 12757415142832177022
270888 7 8935009157321233835
2748736 6 8935001447464943695
2838139 119 7925621194332472713
3459 39 8790598148550482486
3737641 26 17986396577307225670
445580 125 9439104465168615160
4461854 278 17916876836390044799
5309563 4 18409727374636944521
6669772 16 18048888678240873180
7970288 3 18411700993561309127
8217 86 18411982438509645672

>  <PUBCHEM_SHAPE_MULTIPOLES>  (1) 
542.79
18.44
4.03
1.33
4.34
2.36
-0.13
-20.49
1.7
3.64
0.58
0.19
-0.14
0.07

>  <PUBCHEM_SHAPE_SELFOVERLAP>  (1) 
1143.305

>  <PUBCHEM_SHAPE_VOLUME>  (1) 
303.8

>  <PUBCHEM_COORDINATE_TYPE>  (1) 
2
5
10

$$$$
