47416
     RDKit          3D

 19 23  0  0  1  0  0  0  0  0999 V2000
   -4.9952    0.1054   -0.3943 O   0  0  0  0  0  0  0  0  0  0  0  0
   -4.0201   -0.8531   -0.6761 C   0  0  0  0  0  0  0  0  0  0  0  0
   -3.8561    0.2946    0.4123 C   0  0  0  0  0  0  0  0  0  0  0  0
   -3.5100   -2.0360    0.0475 C   0  0  0  0  0  0  0  0  0  0  0  0
   -2.4287    0.6918    0.2069 C   0  0  0  0  0  0  0  0  0  0  0  0
   -1.9668   -1.8259    0.2236 C   0  0  0  0  0  0  0  0  0  0  0  0
   -1.4596   -0.3614    0.1967 C   0  0  0  0  0  0  0  0  0  0  0  0
   -0.0727   -0.0605    0.1157 C   0  0  0  0  0  0  0  0  0  0  0  0
   -2.0086    2.0149    0.1087 C   0  0  0  0  0  0  0  0  0  0  0  0
    0.3197    1.2960    0.0178 C   0  0  0  0  0  0  0  0  0  0  0  0
   -0.6511    2.3108    0.0086 C   0  0  0  0  0  0  0  0  0  0  0  0
    0.9447   -1.0426    0.1245 C   0  0  0  0  0  0  0  0  0  0  0  0
    1.6825    1.6271   -0.0712 C   0  0  0  0  0  0  0  0  0  0  0  0
    2.3086   -0.7117    0.0362 C   0  0  0  0  0  0  0  0  0  0  0  0
    2.6822    0.6427   -0.0639 C   0  0  0  0  0  0  0  0  0  0  0  0
    3.3074   -1.7003    0.0457 C   0  0  0  0  0  0  0  0  0  0  0  0
    4.0441    0.9771   -0.1528 C   0  0  0  0  0  0  0  0  0  0  0  0
    4.6557   -1.3535   -0.0432 C   0  0  0  0  0  0  0  0  0  0  0  0
    5.0238   -0.0156   -0.1427 C   0  0  0  0  0  0  0  0  0  0  0  0
  1  2  1  0
  1  3  1  0
  2  3  1  0
  2  4  1  0
  3  5  1  0
  4  6  1  0
  5  7  2  0
  5  9  1  0
  6  7  1  0
  7  8  1  0
  8 10  2  0
  8 12  1  0
  9 11  2  0
 10 11  1  0
 10 13  1  0
 12 14  2  0
 13 15  2  0
 14 15  1  0
 14 16  1  0
 15 17  1  0
 16 18  2  0
 17 19  2  0
 18 19  1  0
M  END
>  <PUBCHEM_COMPOUND_CID>  (1) 
47416

>  <PUBCHEM_CONFORMER_RMSD>  (1) 
0.6

>  <PUBCHEM_CONFORMER_DIVERSEORDER>  (1) 
1

>  <PUBCHEM_MMFF94_PARTIAL_CHARGES>  (1) 
25
1 -0.3
11 -0.15
12 -0.15
13 -0.15
16 -0.15
17 -0.15
18 -0.15
19 -0.15
2 -0.05
20 0.1
21 0.1
26 0.15
27 0.15
28 0.15
29 0.15
3 0.08
30 0.15
31 0.15
32 0.15
33 0.15
4 0.09
5 -0.03
6 0.14
7 -0.14
9 -0.15

>  <PUBCHEM_EFFECTIVE_ROTOR_COUNT>  (1) 
0.6

>  <PUBCHEM_PHARMACOPHORE_FEATURES>  (1) 
5
1 1 acceptor
6 14 15 16 17 18 19 rings
6 5 7 8 9 10 11 rings
6 8 10 12 13 14 15 rings
7 1 2 3 4 5 6 7 rings

>  <PUBCHEM_HEAVY_ATOM_COUNT>  (1) 
19

>  <PUBCHEM_ATOM_DEF_STEREO_COUNT>  (1) 
0

>  <PUBCHEM_ATOM_UDEF_STEREO_COUNT>  (1) 
2

>  <PUBCHEM_BOND_DEF_STEREO_COUNT>  (1) 
0

>  <PUBCHEM_BOND_UDEF_STEREO_COUNT>  (1) 
0

>  <PUBCHEM_ISOTOPIC_ATOM_COUNT>  (1) 
0

>  <PUBCHEM_COMPONENT_COUNT>  (1) 
1

>  <PUBCHEM_CACTVS_TAUTO_COUNT>  (1) 
1

>  <PUBCHEM_CONFORMER_ID>  (1) 
0000B93800000001

>  <PUBCHEM_MMFF94_ENERGY>  (1) 
96.5583

>  <PUBCHEM_FEATURE_SELFOVERLAP>  (1) 
25.43

>  <PUBCHEM_SHAPE_FINGERPRINT>  (1) 
10616163 171 18413110545713687110
10906281 52 18270137746350936317
10967382 1 18410293622618762474
11471102 20 18408603677953288196
11806522 49 18409167723023234124
12107183 9 17689434880503091450
12553582 1 18408595955428185803
13140716 1 18339652242929134995
13288520 33 18341615893286620068
138480 1 15023867739779833376
13862211 1 18410569582836697330
14115302 16 17967823772486769574
14576447 43 18270111456481889719
14790565 3 17763750888426044281
15196674 1 18410575119038667547
15352361 1 18411418431582962287
15442244 35 18337955563264375346
15536298 74 18341894116994323048
16752209 62 18262787467990336785
16945 1 18408895052455407553
17349148 13 18040996241709290624
17492 89 18337954480849156162
17804303 29 18343023302224190425
1813 80 17530686511042468900
18186145 218 17530957020930755587
19141452 34 18343023302719997551
19862831 5 17894346687457310339
200 152 18202561795888155135
20261772 1 17846494863585624718
20510252 161 18199751353625548512
20645477 70 18411419501325595038
21029758 11 18413666915919518849
21267235 1 18410583889483484611
221490 88 18191311691433449907
23402539 116 18341607105788833343
23557571 272 18130514028798937972
23559900 14 18339919419902117032
2748010 2 17688877857198525073
2871803 45 18334573525600530610
3004659 81 18259702294308180790
335352 9 18410575063784504189
34934 24 18410287051313661258
4214541 1 18411137991862220472
474 4 17386298704787615964
4921388 177 16153997953554445371
5104073 3 18412546521933520410
5283173 99 18188197690057813469
559249 180 18117552929912061402
67856867 119 18262235646740654764
69090 78 18413106151851074546
7364860 26 18269272529437216896
8809292 202 18334017219756002523
9709674 26 18340775832012158014

>  <PUBCHEM_SHAPE_MULTIPOLES>  (1) 
385.14
9.59
2.23
0.66
2.25
0.25
-0.01
-2.93
-0.85
-0.47
0.04
-0.15
-0.02
-0.18

>  <PUBCHEM_SHAPE_SELFOVERLAP>  (1) 
880.167

>  <PUBCHEM_SHAPE_VOLUME>  (1) 
201.8

>  <PUBCHEM_COORDINATE_TYPE>  (1) 
2
5
10

$$$$
