47425
     RDKit          3D

 16 18  0  0  0  0  0  0  0  0999 V2000
   -1.9951    2.4652    0.0014 Cl  0  0  0  0  0  0  0  0  0  0  0  0
    3.8597   -1.8867   -0.0004 Cl  0  0  0  0  0  0  0  0  0  0  0  0
   -4.6407    0.5829    0.0000 Cl  0  0  0  0  0  0  0  0  0  0  0  0
    0.7549   -1.6202    0.0007 O   0  0  0  0  0  0  0  0  0  0  0  0
   -0.6326    0.1655   -0.0003 C   0  0  0  0  0  0  0  0  0  0  0  0
    0.7114    0.6409   -0.0002 C   0  0  0  0  0  0  0  0  0  0  0  0
   -0.5480   -1.2233    0.0002 C   0  0  0  0  0  0  0  0  0  0  0  0
    1.5187   -0.4923    0.0002 C   0  0  0  0  0  0  0  0  0  0  0  0
   -1.9090    0.7578   -0.0007 C   0  0  0  0  0  0  0  0  0  0  0  0
    1.3316    1.9039   -0.0005 C   0  0  0  0  0  0  0  0  0  0  0  0
   -1.6523   -2.0739    0.0004 C   0  0  0  0  0  0  0  0  0  0  0  0
    2.9121   -0.4596    0.0003 C   0  0  0  0  0  0  0  0  0  0  0  0
   -3.0384   -0.0720   -0.0009 C   0  0  0  0  0  0  0  0  0  0  0  0
   -2.9095   -1.4628   -0.0001 C   0  0  0  0  0  0  0  0  0  0  0  0
    2.7315    1.9685   -0.0001 C   0  0  0  0  0  0  0  0  0  0  0  0
    3.5057    0.8061    0.0000 C   0  0  0  0  0  0  0  0  0  0  0  0
  1  9  1  0
  2 12  1  0
  3 13  1  0
  4  7  1  0
  4  8  1  0
  5  6  1  0
  5  7  2  0
  5  9  1  0
  6  8  2  0
  6 10  1  0
  7 11  1  0
  8 12  1  0
  9 13  2  0
 10 15  2  0
 11 14  2  0
 12 16  2  0
 13 14  1  0
 15 16  1  0
M  END
>  <PUBCHEM_COMPOUND_CID>  (1) 
47425

>  <PUBCHEM_CONFORMER_RMSD>  (1) 
0.4

>  <PUBCHEM_CONFORMER_DIVERSEORDER>  (1) 
1

>  <PUBCHEM_MMFF94_PARTIAL_CHARGES>  (1) 
19
1 -0.18
10 -0.15
11 -0.15
12 0.18
13 0.18
14 -0.15
15 -0.15
16 -0.15
17 0.15
18 0.15
19 0.15
2 -0.18
20 0.15
21 0.15
3 -0.18
4 -0.28
7 0.14
8 0.14
9 0.18

>  <PUBCHEM_EFFECTIVE_ROTOR_COUNT>  (1) 
0

>  <PUBCHEM_PHARMACOPHORE_FEATURES>  (1) 
4
1 4 acceptor
5 4 5 6 7 8 rings
6 5 7 9 11 13 14 rings
6 6 8 10 12 15 16 rings

>  <PUBCHEM_HEAVY_ATOM_COUNT>  (1) 
16

>  <PUBCHEM_ATOM_DEF_STEREO_COUNT>  (1) 
0

>  <PUBCHEM_ATOM_UDEF_STEREO_COUNT>  (1) 
0

>  <PUBCHEM_BOND_DEF_STEREO_COUNT>  (1) 
0

>  <PUBCHEM_BOND_UDEF_STEREO_COUNT>  (1) 
0

>  <PUBCHEM_ISOTOPIC_ATOM_COUNT>  (1) 
0

>  <PUBCHEM_COMPONENT_COUNT>  (1) 
1

>  <PUBCHEM_CACTVS_TAUTO_COUNT>  (1) 
1

>  <PUBCHEM_CONFORMER_ID>  (1) 
0000B94100000001

>  <PUBCHEM_MMFF94_ENERGY>  (1) 
33.9026

>  <PUBCHEM_FEATURE_SELFOVERLAP>  (1) 
20.499

>  <PUBCHEM_SHAPE_FINGERPRINT>  (1) 
10411042 1 17041479415966078155
10608611 8 18339077189299190544
10967382 1 18410575097553372484
11132069 177 18340482360996279545
11471102 20 18410852157340522325
12251169 10 18409162203953270642
13140716 1 18410292561899250579
13221675 6 18409449184914654323
13380535 76 18412545414153989847
13571099 22 18343022190059639310
14144814 61 18410856585610034080
14325111 11 18338516446953411777
14790565 3 16469262743979968112
15196674 1 18410855486288388167
15219456 202 18338518641782063275
15375462 6 18266459991303363502
15442244 35 18338797819251769098
15536298 74 18342457058431552258
15775835 57 18411142475728949713
16945 1 18410575067536113159
17492 89 18410855507474068210
17802600 8 18410570652357322569
17804303 29 18410580560915355406
18186145 218 18408881841051284421
19591789 44 18049444738332605630
200 152 17989199357058013159
20510252 161 18343302539797435161
20645477 70 18413388730629346223
21267235 1 18338807718777275178
21501502 16 18339923817589535566
221490 88 18336273434970251690
2334 1 18122626321111784035
23366157 5 18113617924278559732
23402539 116 18271515425915007885
23402655 69 18342736329974229661
23463225 33 18409729569159471878
23559900 14 18342173380326483906
238 59 16598962312018209781
2748010 2 18195247943134604431
335352 9 18338517426369557471
34934 24 18340198704213034128
350125 39 18337958861789235233
5104073 3 18410575114944304187
69090 78 18341608226822926087
7364860 26 18341894125863734978
8809292 202 18334018293460955195
9709674 26 18338802320093249798
9981440 41 17759519272171460680

>  <PUBCHEM_SHAPE_MULTIPOLES>  (1) 
329.01
7
2.51
0.62
1.02
0.34
0
-0.24
0
-0.36
0
0.01
0.01
0

>  <PUBCHEM_SHAPE_SELFOVERLAP>  (1) 
715.586

>  <PUBCHEM_SHAPE_VOLUME>  (1) 
183.4

>  <PUBCHEM_COORDINATE_TYPE>  (1) 
2
5
10

$$$$
