47453
     RDKit          3D

 28 29  0  0  0  0  0  0  0  0999 V2000
    0.6805    2.5014   -0.6069 S   0  0  0  0  0  0  0  0  0  0  0  0
    4.6617   -1.1784   -0.4429 S   0  0  0  0  0  0  0  0  0  0  0  0
    1.8751    3.2883   -0.8907 O   0  0  0  0  0  0  0  0  0  0  0  0
   -0.4252    2.5068   -1.5564 O   0  0  0  0  0  0  0  0  0  0  0  0
    4.7941   -2.5602   -0.8950 O   0  0  0  0  0  0  0  0  0  0  0  0
    5.2893   -0.1112   -1.2149 O   0  0  0  0  0  0  0  0  0  0  0  0
   -2.0873   -2.0370    0.0535 O   0  0  0  0  0  0  0  0  0  0  0  0
   -1.1315    0.0826   -0.2313 N   0  0  0  0  0  0  0  0  0  0  0  0
    0.1391    2.8932    0.8902 N   0  0  0  0  0  0  0  0  0  0  0  0
   -3.4249   -0.1228   -0.0737 N   0  0  0  0  0  0  0  0  0  0  0  0
    5.1450   -1.0952    1.1228 N   0  0  0  0  0  0  0  0  0  0  0  0
   -4.8635   -1.9782    0.2110 N   0  0  0  0  0  0  0  0  0  0  0  0
   -0.2653    4.0663    0.9916 N   0  0  0  0  0  0  0  0  0  0  0  0
    6.3534   -1.3388    1.2973 N   0  0  0  0  0  0  0  0  0  0  0  0
   -0.6337    5.1428    1.0748 N   0  0  0  0  0  0  0  0  0  0  0  0
    7.4618   -1.5635    1.4473 N   0  0  0  0  0  0  0  0  0  0  0  0
    1.1733    0.8282   -0.4491 C   0  0  0  0  0  0  0  0  0  0  0  0
    0.2374   -0.1925   -0.2824 C   0  0  0  0  0  0  0  0  0  0  0  0
    2.9589   -0.7978   -0.3803 C   0  0  0  0  0  0  0  0  0  0  0  0
    2.5340    0.5256   -0.4979 C   0  0  0  0  0  0  0  0  0  0  0  0
    0.6622   -1.5159   -0.1648 C   0  0  0  0  0  0  0  0  0  0  0  0
    2.0230   -1.8186   -0.2138 C   0  0  0  0  0  0  0  0  0  0  0  0
   -2.2074   -0.8223   -0.0702 C   0  0  0  0  0  0  0  0  0  0  0  0
   -4.7318   -0.6485    0.0600 C   0  0  0  0  0  0  0  0  0  0  0  0
   -5.7735    0.2537    0.0231 C   0  0  0  0  0  0  0  0  0  0  0  0
   -7.0619   -0.2529    0.1529 C   0  0  0  0  0  0  0  0  0  0  0  0
   -7.2523   -1.6211    0.3116 C   0  0  0  0  0  0  0  0  0  0  0  0
   -6.1303   -2.4338    0.3339 C   0  0  0  0  0  0  0  0  0  0  0  0
  1  3  2  0
  1  4  2  0
  1  9  1  0
  1 17  1  0
  2  5  2  0
  2  6  2  0
  2 11  1  0
  2 19  1  0
  7 23  2  0
  8 18  1  0
  8 23  1  0
  9 13  2  0
 10 23  1  0
 10 24  1  0
 11 14  2  0
 12 24  2  0
 12 28  1  0
 13 15  2  0
 14 16  2  0
 17 18  2  0
 17 20  1  0
 18 21  1  0
 19 20  2  0
 19 22  1  0
 21 22  2  0
 24 25  1  0
 25 26  2  0
 26 27  1  0
 27 28  2  0
M  CHG  4  13   1  14   1  15  -1  16  -1
M  END
>  <PUBCHEM_COMPOUND_CID>  (1) 
47453

>  <PUBCHEM_CONFORMER_RMSD>  (1) 
1

>  <PUBCHEM_CONFORMER_DIVERSEORDER>  (1) 
1
34
62
66
79
50
61
35
84
57
70
28
54
67
23
43
6
81
42
89
36
32
68
53
27
78
74
44
3
48
41
86
2
30
87
39
51
17
60
20
85
22
59
11
69
38
56
80
26
8
58
71
18
9
47
45
76
21
40
15
13
65
46
72
77
24
25
49
16
63
31
82
75
37
88
29
5
52
19
64
55
10
83
4
73
7
33
14
12

>  <PUBCHEM_MMFF94_PARTIAL_CHARGES>  (1) 
37
1 1.5
10 -0.55
11 -0.51
12 -0.62
13 0.69
14 0.69
15 -0.37
16 -0.37
17 -0.01
18 0.12
19 -0.01
2 1.5
20 -0.15
21 -0.15
22 -0.15
23 0.69
24 0.43
25 -0.15
26 -0.15
27 -0.15
28 0.16
29 0.15
3 -0.65
30 0.15
31 0.15
32 0.37
33 0.37
34 0.15
35 0.15
36 0.15
37 0.15
4 -0.65
5 -0.65
6 -0.65
7 -0.57
8 -0.55
9 -0.51

>  <PUBCHEM_EFFECTIVE_ROTOR_COUNT>  (1) 
8

>  <PUBCHEM_PHARMACOPHORE_FEATURES>  (1) 
12
1 10 donor
1 11 donor
1 12 acceptor
1 3 acceptor
1 4 acceptor
1 5 acceptor
1 6 acceptor
1 7 acceptor
1 8 donor
1 9 donor
6 12 24 25 26 27 28 rings
6 17 18 19 20 21 22 rings

>  <PUBCHEM_HEAVY_ATOM_COUNT>  (1) 
28

>  <PUBCHEM_ATOM_DEF_STEREO_COUNT>  (1) 
0

>  <PUBCHEM_ATOM_UDEF_STEREO_COUNT>  (1) 
0

>  <PUBCHEM_BOND_DEF_STEREO_COUNT>  (1) 
0

>  <PUBCHEM_BOND_UDEF_STEREO_COUNT>  (1) 
2

>  <PUBCHEM_ISOTOPIC_ATOM_COUNT>  (1) 
0

>  <PUBCHEM_COMPONENT_COUNT>  (1) 
1

>  <PUBCHEM_CACTVS_TAUTO_COUNT>  (1) 
5

>  <PUBCHEM_CONFORMER_ID>  (1) 
0000B95D00000001

>  <PUBCHEM_MMFF94_ENERGY>  (1) 
51.8938

>  <PUBCHEM_FEATURE_SELFOVERLAP>  (1) 
60.989

>  <PUBCHEM_SHAPE_FINGERPRINT>  (1) 
10369192 42 11095882670566813987
11456790 92 18334306353640396105
11646440 116 18411703179483125395
12166972 35 18040158426301421413
12516196 113 18413390934142663167
12616971 3 18059017306541272999
12788726 201 18336838511264391194
13140716 1 18339354288558937802
13782708 43 17895477033367954723
13862211 1 18259703393472006210
14068700 675 18408043996154046204
14150022 121 17988923319621137624
14170010 4 18339081596257175309
14849402 71 18195533807953604617
14955137 171 18342744030840145895
15021287 119 18201994478449197943
15131766 46 15480953914345944834
15420108 30 17556283305515569740
15849732 13 17989771102893915255
15927050 60 17765155364490535236
17492 89 17972873662644664666
17844677 252 18337402621286419103
17980427 26 17625812039425792237
18681886 176 18271805765662629915
21033648 29 17417517039492608803
21049683 271 18261966265779901005
21267235 1 18410302397284927903
21344244 181 11891327604676929264
21344244 78 18201435917182206769
21792934 111 18337379487975481960
23522609 53 17824855323863600205
23559900 14 18339922727559574499
24771293 8 17987222508360901290
249057 3 18411700998584094743
283562 15 18263650567443630962
3004659 81 18114189631370117950
3178227 256 18262532467577667579
3411729 13 18194681699295221208
4073 2 17605845938956894707
469060 322 18264216820411617032
5104073 3 18267315403498648827
5219985 9 18407759244090440828
6004065 56 18411701027873685067
9962374 69 18269833289558937879

>  <PUBCHEM_SHAPE_MULTIPOLES>  (1) 
509.75
17.16
4.28
1.05
10.45
7.34
-0.1
-16.73
-4.3
-0.81
-1.08
-1.45
0.35
-0.61

>  <PUBCHEM_SHAPE_SELFOVERLAP>  (1) 
1062.099

>  <PUBCHEM_SHAPE_VOLUME>  (1) 
286.8

>  <PUBCHEM_COORDINATE_TYPE>  (1) 
2
5
10

$$$$
