47452
     RDKit          3D

 15 16  0  0  0  0  0  0  0  0999 V2000
    2.9328   -1.6909    0.1155 O   0  0  0  0  0  0  0  0  0  0  0  0
    3.9762    0.4077   -0.4456 O   0  0  0  0  0  0  0  0  0  0  0  0
   -2.0970    1.3816    0.9320 O   0  0  0  0  0  0  0  0  0  0  0  0
   -2.1502   -0.8412    0.2742 N   0  0  0  0  0  0  0  0  0  0  0  0
    2.0421   -0.6622    0.0861 C   0  0  0  0  0  0  0  0  0  0  0  0
    2.6379    0.5361   -0.2342 C   0  0  0  0  0  0  0  0  0  0  0  0
   -0.0671    0.4167    0.2638 C   0  0  0  0  0  0  0  0  0  0  0  0
    0.6892   -0.7552    0.3409 C   0  0  0  0  0  0  0  0  0  0  0  0
    1.9139    1.7076   -0.3172 C   0  0  0  0  0  0  0  0  0  0  0  0
    0.5418    1.6411   -0.0635 C   0  0  0  0  0  0  0  0  0  0  0  0
    4.1559   -1.0056   -0.2229 C   0  0  0  0  0  0  0  0  0  0  0  0
   -1.4973    0.3711    0.5247 C   0  0  0  0  0  0  0  0  0  0  0  0
   -3.5699   -1.0376    0.4616 C   0  0  0  0  0  0  0  0  0  0  0  0
   -4.2801   -0.7039   -0.8081 C   0  0  0  0  0  0  0  0  0  0  0  0
   -5.2283    0.2346   -0.9075 C   0  0  0  0  0  0  0  0  0  0  0  0
  1  5  1  0
  1 11  1  0
  2  6  1  0
  2 11  1  0
  3 12  2  0
  4 12  1  0
  4 13  1  0
  5  6  2  0
  5  8  1  0
  6  9  1  0
  7  8  2  0
  7 10  1  0
  7 12  1  0
  9 10  2  0
 13 14  1  0
 14 15  2  0
M  END
>  <PUBCHEM_COMPOUND_CID>  (1) 
47452

>  <PUBCHEM_CONFORMER_RMSD>  (1) 
0.6

>  <PUBCHEM_CONFORMER_DIVERSEORDER>  (1) 
1
12
11
17
7
5
14
15
4
16
19
6
10
18
3
2
9
8
13

>  <PUBCHEM_MMFF94_PARTIAL_CHARGES>  (1) 
22
1 -0.36
10 -0.15
11 0.56
12 0.54
13 0.44
14 -0.29
15 -0.3
16 0.15
17 0.15
18 0.15
2 -0.36
21 0.37
24 0.15
25 0.15
26 0.15
3 -0.57
4 -0.73
5 0.08
6 0.08
7 0.09
8 -0.15
9 -0.15

>  <PUBCHEM_EFFECTIVE_ROTOR_COUNT>  (1) 
4.6

>  <PUBCHEM_PHARMACOPHORE_FEATURES>  (1) 
7
1 1 acceptor
1 15 hydrophobe
1 2 acceptor
1 3 acceptor
1 4 donor
5 1 2 5 6 11 rings
6 5 6 7 8 9 10 rings

>  <PUBCHEM_HEAVY_ATOM_COUNT>  (1) 
15

>  <PUBCHEM_ATOM_DEF_STEREO_COUNT>  (1) 
0

>  <PUBCHEM_ATOM_UDEF_STEREO_COUNT>  (1) 
0

>  <PUBCHEM_BOND_DEF_STEREO_COUNT>  (1) 
0

>  <PUBCHEM_BOND_UDEF_STEREO_COUNT>  (1) 
0

>  <PUBCHEM_ISOTOPIC_ATOM_COUNT>  (1) 
0

>  <PUBCHEM_COMPONENT_COUNT>  (1) 
1

>  <PUBCHEM_CACTVS_TAUTO_COUNT>  (1) 
2

>  <PUBCHEM_CONFORMER_ID>  (1) 
0000B95C00000001

>  <PUBCHEM_MMFF94_ENERGY>  (1) 
31.7478

>  <PUBCHEM_FEATURE_SELFOVERLAP>  (1) 
35.675

>  <PUBCHEM_SHAPE_FINGERPRINT>  (1) 
10354089 29 8502375555000771639
11401426 45 18336260223376152792
11471102 20 18335983142361963020
11769659 78 18342741784482241314
11806522 49 18412826919073885946
13571099 22 18409448111267632873
13581323 91 16559033783224821876
13760787 5 18041576766721732004
14251717 144 18408886252246668610
14576447 43 18342173405479453678
14911166 2 18260548926424221963
14993402 34 18412831295661560302
15477762 27 18410577309767452598
15757776 16 18334857212490777498
16945 1 18261972828858888576
17834072 8 18335412453447193381
1798214 20 18341890801184683535
18186145 218 17749100119729188955
19862831 5 18261108582543740323
200 152 18273493481555919389
20645477 70 18410576201502704327
20671657 53 18412547621746152429
21119208 17 18409728478311664279
21267235 1 18340218430850384986
21501925 9 18412542111418838104
21637258 2 16629974231179771574
221357 26 18334563643450755221
221490 88 18118693346555176435
22485316 2 18201716292894962111
22854114 59 10303815397601654407
23402539 116 18060136505813674281
23402655 69 18408041822973901925
23557571 272 15123242004846348889
23559900 14 18340483469198127304
2748010 2 17758980490072340208
2871803 45 18334857190936858638
32948 21 17822004281585281997
4047638 21 12035447224947420042
4072396 5 18187630428399695384
42 15 11455896870876932359
4463277 69 17845941719105902294
5281201 14 17894912970864341029
57096353 35 18338812185843729332
602551 16 15338832114137008663
7364860 26 18200032983690580056

>  <PUBCHEM_SHAPE_MULTIPOLES>  (1) 
286.1
9.05
1.59
0.82
6.96
0.27
0.02
-2.33
2.66
-0.78
-0.06
0.57
0.06
-0.14

>  <PUBCHEM_SHAPE_SELFOVERLAP>  (1) 
610.635

>  <PUBCHEM_SHAPE_VOLUME>  (1) 
159.1

>  <PUBCHEM_COORDINATE_TYPE>  (1) 
2
5
10

$$$$
