47468
     RDKit          3D

 21 25  0  0  1  0  0  0  0  0999 V2000
   -4.3743    0.5776   -0.7411 O   0  0  0  0  0  0  0  0  0  0  0  0
   -3.1574   -1.5927   -1.7322 O   0  0  0  0  0  0  0  0  0  0  0  0
   -1.8691   -1.8440    1.6663 O   0  0  0  0  0  0  0  0  0  0  0  0
   -4.1782   -0.5164    0.1630 C   0  0  0  0  0  0  0  0  0  0  0  0
   -3.6008    0.8467    0.4377 C   0  0  0  0  0  0  0  0  0  0  0  0
   -3.2589   -1.5994   -0.3079 C   0  0  0  0  0  0  0  0  0  0  0  0
   -2.1200    1.0367    0.2633 C   0  0  0  0  0  0  0  0  0  0  0  0
   -1.8447   -1.4700    0.2906 C   0  0  0  0  0  0  0  0  0  0  0  0
   -1.2366   -0.0724    0.2054 C   0  0  0  0  0  0  0  0  0  0  0  0
    0.1779    0.1267    0.1114 C   0  0  0  0  0  0  0  0  0  0  0  0
   -1.5859    2.3257    0.1647 C   0  0  0  0  0  0  0  0  0  0  0  0
    0.6722    1.4490    0.0139 C   0  0  0  0  0  0  0  0  0  0  0  0
   -0.2158    2.5292    0.0332 C   0  0  0  0  0  0  0  0  0  0  0  0
    1.1350   -0.9186    0.1161 C   0  0  0  0  0  0  0  0  0  0  0  0
    2.0531    1.6879   -0.0958 C   0  0  0  0  0  0  0  0  0  0  0  0
    2.5189   -0.6838    0.0100 C   0  0  0  0  0  0  0  0  0  0  0  0
    2.9836    0.6397   -0.1010 C   0  0  0  0  0  0  0  0  0  0  0  0
    3.4480   -1.7385    0.0130 C   0  0  0  0  0  0  0  0  0  0  0  0
    4.3640    0.8802   -0.2092 C   0  0  0  0  0  0  0  0  0  0  0  0
    4.8157   -1.4860   -0.0948 C   0  0  0  0  0  0  0  0  0  0  0  0
    5.2735   -0.1773   -0.2066 C   0  0  0  0  0  0  0  0  0  0  0  0
  1  4  1  0
  1  5  1  0
  2  6  1  0
  3  8  1  0
  4  5  1  0
  4  6  1  0
  5  7  1  0
  6  8  1  0
  7  9  2  0
  7 11  1  0
  8  9  1  0
  9 10  1  0
 10 12  2  0
 10 14  1  0
 11 13  2  0
 12 13  1  0
 12 15  1  0
 14 16  2  0
 15 17  2  0
 16 17  1  0
 16 18  1  0
 17 19  1  0
 18 20  2  0
 19 21  2  0
 20 21  1  0
M  END
>  <PUBCHEM_COMPOUND_CID>  (1) 
47468

>  <PUBCHEM_CONFORMER_RMSD>  (1) 
0.6

>  <PUBCHEM_CONFORMER_DIVERSEORDER>  (1) 
1
2

>  <PUBCHEM_MMFF94_PARTIAL_CHARGES>  (1) 
29
1 -0.3
11 -0.15
13 -0.15
14 -0.15
15 -0.15
18 -0.15
19 -0.15
2 -0.68
20 -0.15
21 -0.15
22 0.1
23 0.1
26 0.15
27 0.4
28 0.15
29 0.4
3 -0.68
30 0.15
31 0.15
32 0.15
33 0.15
34 0.15
35 0.15
4 -0.05
5 0.08
6 0.38
7 -0.03
8 0.42
9 -0.14

>  <PUBCHEM_EFFECTIVE_ROTOR_COUNT>  (1) 
0.6

>  <PUBCHEM_PHARMACOPHORE_FEATURES>  (1) 
9
1 1 acceptor
1 2 acceptor
1 2 donor
1 3 acceptor
1 3 donor
6 10 12 14 15 16 17 rings
6 16 17 18 19 20 21 rings
6 7 9 10 11 12 13 rings
7 1 4 5 6 7 8 9 rings

>  <PUBCHEM_HEAVY_ATOM_COUNT>  (1) 
21

>  <PUBCHEM_ATOM_DEF_STEREO_COUNT>  (1) 
4

>  <PUBCHEM_ATOM_UDEF_STEREO_COUNT>  (1) 
0

>  <PUBCHEM_BOND_DEF_STEREO_COUNT>  (1) 
0

>  <PUBCHEM_BOND_UDEF_STEREO_COUNT>  (1) 
0

>  <PUBCHEM_ISOTOPIC_ATOM_COUNT>  (1) 
0

>  <PUBCHEM_COMPONENT_COUNT>  (1) 
1

>  <PUBCHEM_CACTVS_TAUTO_COUNT>  (1) 
1

>  <PUBCHEM_CONFORMER_ID>  (1) 
0000B96C00000001

>  <PUBCHEM_MMFF94_ENERGY>  (1) 
64.815

>  <PUBCHEM_FEATURE_SELFOVERLAP>  (1) 
45.737

>  <PUBCHEM_SHAPE_FINGERPRINT>  (1) 
10062212 137 18342454859324043671
10616163 171 18341616984082128470
10906281 52 18268449978527220189
10967382 1 18409732867562557944
11315181 36 18202568376063084376
11806522 49 18409168805534457692
12107183 9 17618223901976302986
12236239 1 18060140951014830129
12553582 1 18335695039992284498
12788726 201 18338232644263092160
13140716 1 18339372949537497289
13167823 11 18413389821904187702
13224815 77 18413109472298378018
13288520 33 18412548678450220308
13544653 18 18410017654106694824
13583140 156 14548742746800791626
138480 1 14807696053099033368
14115302 16 17894643564249924694
14790565 3 17691694385061941681
15196674 1 18410294713540598568
15352361 1 18411419522646956822
15536298 74 18342175587771115896
15880784 105 17418091065955383994
16752209 62 18189603956770939937
16945 1 18335433369199862025
17349148 13 18259698995831105424
17357779 13 18334563672718817740
1813 80 17603589625353926252
18186145 218 17458057196474621714
19141452 34 18201722847078281407
19862831 5 17967811647830964018
200 152 18202281420059114378
20645477 70 18341898485145141174
20775438 99 16761092388435943807
21029758 11 18412543197639888721
21267235 1 18410866468298347931
221357 26 18336254735099032327
221490 88 18191593149256450744
23402539 116 18410288099296088206
23557571 272 18129670699306999636
23559900 14 18411414046949270232
2748010 2 17832145296350980121
2871803 45 18334575720513383234
3004659 81 18187082837112232550
335352 9 18410857616671639429
34934 24 18410007723799395689
4214541 1 18339362959607148616
4921388 177 16298959761045985411
5104073 3 18411983550769195096
5283173 99 18188481372304822804
559249 180 18119245065543535042
67856867 119 18335137644339405660
8809292 202 18333456451519152706
9709674 26 18339088086127209630

>  <PUBCHEM_SHAPE_MULTIPOLES>  (1) 
414.56
9.5
2.38
0.86
5.28
0.55
-0.04
-2.88
-1.14
-0.49
0.05
-0.66
-0.35
-0.26

>  <PUBCHEM_SHAPE_SELFOVERLAP>  (1) 
945.866

>  <PUBCHEM_SHAPE_VOLUME>  (1) 
215.2

>  <PUBCHEM_COORDINATE_TYPE>  (1) 
2
5
10

$$$$
