47473
     RDKit          3D

 12 13  0  0  1  0  0  0  0  0999 V2000
   -0.7925    1.9505    0.8168 O   0  0  0  0  0  0  0  0  0  0  0  0
   -3.0272   -0.2579    0.1640 N   0  0  0  0  0  0  0  0  0  0  0  0
   -1.6873   -0.0042   -0.2749 C   0  0  0  0  0  0  0  0  0  0  0  0
   -2.1562   -1.3949   -0.1047 C   0  0  0  0  0  0  0  0  0  0  0  0
   -0.6422    0.5302    0.7091 C   0  0  0  0  0  0  0  0  0  0  0  0
   -4.0499   -0.1222   -0.8598 C   0  0  0  0  0  0  0  0  0  0  0  0
    0.7536    0.1958    0.3037 C   0  0  0  0  0  0  0  0  0  0  0  0
    1.3421   -0.9905    0.7423 C   0  0  0  0  0  0  0  0  0  0  0  0
    1.4708    1.0692   -0.5137 C   0  0  0  0  0  0  0  0  0  0  0  0
    2.6477   -1.3031    0.3636 C   0  0  0  0  0  0  0  0  0  0  0  0
    2.7763    0.7566   -0.8926 C   0  0  0  0  0  0  0  0  0  0  0  0
    3.3647   -0.4295   -0.4538 C   0  0  0  0  0  0  0  0  0  0  0  0
  1  5  1  0
  2  3  1  0
  2  4  1  0
  2  6  1  0
  3  4  1  0
  3  5  1  0
  5  7  1  0
  7  8  2  0
  7  9  1  0
  8 10  1  0
  9 11  2  0
 10 12  2  0
 11 12  1  0
M  END
>  <PUBCHEM_COMPOUND_CID>  (1) 
47473

>  <PUBCHEM_CONFORMER_RMSD>  (1) 
0.6

>  <PUBCHEM_CONFORMER_DIVERSEORDER>  (1) 
1
3
4
5
2

>  <PUBCHEM_MMFF94_PARTIAL_CHARGES>  (1) 
21
1 -0.68
10 -0.15
11 -0.15
12 -0.15
13 0.1
14 0.1
15 0.1
2 -0.59
20 0.4
21 0.15
22 0.15
23 0.15
24 0.15
25 0.15
3 -0.04
4 -0.04
5 0.52
6 0.27
7 -0.14
8 -0.15
9 -0.15

>  <PUBCHEM_EFFECTIVE_ROTOR_COUNT>  (1) 
2.6

>  <PUBCHEM_PHARMACOPHORE_FEATURES>  (1) 
4
1 1 acceptor
1 1 donor
1 2 cation
6 7 8 9 10 11 12 rings

>  <PUBCHEM_HEAVY_ATOM_COUNT>  (1) 
12

>  <PUBCHEM_ATOM_DEF_STEREO_COUNT>  (1) 
2

>  <PUBCHEM_ATOM_UDEF_STEREO_COUNT>  (1) 
0

>  <PUBCHEM_BOND_DEF_STEREO_COUNT>  (1) 
0

>  <PUBCHEM_BOND_UDEF_STEREO_COUNT>  (1) 
0

>  <PUBCHEM_ISOTOPIC_ATOM_COUNT>  (1) 
0

>  <PUBCHEM_COMPONENT_COUNT>  (1) 
1

>  <PUBCHEM_CACTVS_TAUTO_COUNT>  (1) 
1

>  <PUBCHEM_CONFORMER_ID>  (1) 
0000B97100000001

>  <PUBCHEM_MMFF94_ENERGY>  (1) 
34.1174

>  <PUBCHEM_FEATURE_SELFOVERLAP>  (1) 
20.297

>  <PUBCHEM_SHAPE_FINGERPRINT>  (1) 
10130415 120 18342737416621820625
10219947 1 9799421009226750080
11031198 65 15574713569048233611
11401426 45 18186516623015217358
12202030 40 16271100202377643988
12897270 3 18114464538776791006
14128692 85 18411420617963837650
15775835 57 17894916251818779182
16945 1 18337122227960809744
18186145 218 17530963566529337059
18619055 16 18408881854120977839
200 152 18410291398005096694
20201158 50 18334857207847903891
20281407 28 16774085067672982286
20361792 2 17846770841125392029
20645477 70 18187642475145286859
20653085 51 16732709362962229029
20711985 344 17774458074369317377
21119208 17 18259421918373586759
228727 97 18269010789645073880
230 275 11530749405986836146
23402655 69 18113335297380130709
23552423 10 18262802839419956282
2748010 2 17757856780556562048
3312278 4 18337115652075995571
8030462 33 18335996293667978288
81228 2 17774174396095515705
93112 12 18186799205729649687

>  <PUBCHEM_SHAPE_MULTIPOLES>  (1) 
236.1
6.02
1.44
0.94
2.97
0.11
0
-1.08
1.94
-0.31
-0.21
0.01
0.14
-0.48

>  <PUBCHEM_SHAPE_SELFOVERLAP>  (1) 
489.34

>  <PUBCHEM_SHAPE_VOLUME>  (1) 
136.9

>  <PUBCHEM_COORDINATE_TYPE>  (1) 
2
5
10

$$$$
