47479
     RDKit          3D

 24 27  0  0  0  0  0  0  0  0999 V2000
   -6.2681   -0.0889   -0.2253 O   0  0  0  0  0  0  0  0  0  0  0  0
   -5.6084   -0.0904    1.9499 O   0  0  0  0  0  0  0  0  0  0  0  0
   -0.0683   -0.1620   -1.3514 N   0  0  0  0  0  0  0  0  0  0  0  0
    3.5522    0.2057    0.7285 N   0  0  0  0  0  0  0  0  0  0  0  0
    1.1595   -0.0372   -0.6462 C   0  0  0  0  0  0  0  0  0  0  0  0
    1.6440    1.2328   -0.3169 C   0  0  0  0  0  0  0  0  0  0  0  0
    1.8724   -1.1856   -0.2874 C   0  0  0  0  0  0  0  0  0  0  0  0
    2.8615    1.3086    0.3805 C   0  0  0  0  0  0  0  0  0  0  0  0
    3.0809   -1.0152    0.4090 C   0  0  0  0  0  0  0  0  0  0  0  0
    0.9482    2.4037   -0.6648 C   0  0  0  0  0  0  0  0  0  0  0  0
    1.4090   -2.4742   -0.6051 C   0  0  0  0  0  0  0  0  0  0  0  0
   -1.3494   -0.1447   -0.8385 C   0  0  0  0  0  0  0  0  0  0  0  0
    3.3491    2.5702    0.7111 C   0  0  0  0  0  0  0  0  0  0  0  0
    3.7954   -2.1547    0.7690 C   0  0  0  0  0  0  0  0  0  0  0  0
    1.4573    3.6529   -0.3224 C   0  0  0  0  0  0  0  0  0  0  0  0
    2.1422   -3.5973   -0.2337 C   0  0  0  0  0  0  0  0  0  0  0  0
    2.6602    3.7359    0.3670 C   0  0  0  0  0  0  0  0  0  0  0  0
    3.3379   -3.4368    0.4547 C   0  0  0  0  0  0  0  0  0  0  0  0
   -1.5764   -0.1369    0.5534 C   0  0  0  0  0  0  0  0  0  0  0  0
   -2.4738   -0.1358   -1.6897 C   0  0  0  0  0  0  0  0  0  0  0  0
   -2.8714   -0.1209    1.0716 C   0  0  0  0  0  0  0  0  0  0  0  0
   -3.7687   -0.1197   -1.1716 C   0  0  0  0  0  0  0  0  0  0  0  0
   -3.9675   -0.1124    0.2091 C   0  0  0  0  0  0  0  0  0  0  0  0
   -5.3178   -0.0970    0.7493 C   0  0  0  0  0  0  0  0  0  0  0  0
  1 24  1  0
  2 24  2  0
  3  5  1  0
  3 12  1  0
  4  8  2  0
  4  9  1  0
  5  6  2  0
  5  7  1  0
  6  8  1  0
  6 10  1  0
  7  9  2  0
  7 11  1  0
  8 13  1  0
  9 14  1  0
 10 15  2  0
 11 16  2  0
 12 19  2  0
 12 20  1  0
 13 17  2  0
 14 18  2  0
 15 17  1  0
 16 18  1  0
 19 21  1  0
 20 22  2  0
 21 23  2  0
 22 23  1  0
 23 24  1  0
M  END
>  <PUBCHEM_COMPOUND_CID>  (1) 
47479

>  <PUBCHEM_CONFORMER_RMSD>  (1) 
0.6

>  <PUBCHEM_CONFORMER_DIVERSEORDER>  (1) 
1
2
3

>  <PUBCHEM_MMFF94_PARTIAL_CHARGES>  (1) 
36
1 -0.65
10 -0.15
11 -0.15
12 0.1
13 -0.15
14 -0.15
15 -0.15
16 -0.15
17 -0.15
18 -0.15
19 -0.15
2 -0.57
20 -0.15
21 -0.15
22 -0.15
23 0.09
24 0.63
25 0.4
26 0.15
27 0.15
28 0.15
29 0.15
3 -0.6
30 0.15
31 0.15
32 0.15
33 0.15
34 0.15
35 0.15
36 0.15
37 0.15
38 0.5
4 -0.62
5 0.1
8 0.31
9 0.31

>  <PUBCHEM_EFFECTIVE_ROTOR_COUNT>  (1) 
3

>  <PUBCHEM_PHARMACOPHORE_FEATURES>  (1) 
10
1 1 acceptor
1 2 acceptor
1 3 cation
1 3 donor
1 4 acceptor
3 1 2 24 anion
6 12 19 20 21 22 23 rings
6 4 5 6 7 8 9 rings
6 6 8 10 13 15 17 rings
6 7 9 11 14 16 18 rings

>  <PUBCHEM_HEAVY_ATOM_COUNT>  (1) 
24

>  <PUBCHEM_ATOM_DEF_STEREO_COUNT>  (1) 
0

>  <PUBCHEM_ATOM_UDEF_STEREO_COUNT>  (1) 
0

>  <PUBCHEM_BOND_DEF_STEREO_COUNT>  (1) 
0

>  <PUBCHEM_BOND_UDEF_STEREO_COUNT>  (1) 
0

>  <PUBCHEM_ISOTOPIC_ATOM_COUNT>  (1) 
0

>  <PUBCHEM_COMPONENT_COUNT>  (1) 
1

>  <PUBCHEM_CACTVS_TAUTO_COUNT>  (1) 
3

>  <PUBCHEM_CONFORMER_ID>  (1) 
0000B97700000001

>  <PUBCHEM_MMFF94_ENERGY>  (1) 
100.4325

>  <PUBCHEM_FEATURE_SELFOVERLAP>  (1) 
50.865

>  <PUBCHEM_SHAPE_FINGERPRINT>  (1) 
10411042 1 18122904231635508342
1100329 8 18268138946223602664
114674 6 18113900433488392795
11582403 64 15947588843063668796
11640471 11 17774443913746026229
12107183 9 18053953853426011081
12236239 1 17704069620364821935
12390115 104 17689718979874319612
12553582 1 18268422448066765886
12633257 1 18114730646502987426
12788726 201 17327163356808445250
13134695 92 18336819797749062846
13140716 1 18194678392101305196
13533116 47 18335709338735056291
13583140 156 18336259055762272719
13785724 45 17911813374884865847
13955234 65 18410577313798689283
14790565 3 18337952398454694780
14955137 171 18411707569509673670
15142526 21 17840300356656045001
15475509 8 17988660588261403924
15475509 84 18057887948231358633
15842332 3 17845639465256573375
16992787 43 18411993460123662908
17138139 8 16979803912268417431
17818456 19 17487629520030322409
1813 80 18057332686685784022
18785283 64 18335140937692539670
19377110 9 17916593171664983107
1979834 28 18188213229339095773
20157964 124 18411697721318066301
20511986 3 17632280320603361277
20715895 44 17699297564799204393
20739085 24 18271811159909081358
20832881 197 18115871785249396459
21041028 32 18267300928699134036
21049683 271 18261404325681331726
21065201 7 16515678906329171095
21197605 99 18047196533861033851
21344244 78 18130213874856334033
21421861 104 18200886092680399321
21756936 100 17696476556774019596
2255824 54 18341612650649712686
23559900 14 18409450297553952771
23845131 108 18049153668330377723
25147074 1 17845922044324787167
31174 14 18335419045441439622
3178227 256 18335423500108652112
341906 21 15841554046647422867
3421961 26 18408885101042348682
38570 142 18056215784640701636
394222 165 17987809629852278691
474 4 18270116945402491041
5104073 3 18338814372767963099
5309563 4 18121778327033025075
633830 44 18058454385761118356
6443956 14 18264205820636069382
81228 2 17615119989251574948
8272917 22 18412828009800530309
86090 222 17386871455740811299
8988823 20 18410009936398773103
9841814 1 18339372867738050078

>  <PUBCHEM_SHAPE_MULTIPOLES>  (1) 
472.21
9.99
4.13
1.25
18.12
0.98
0
-1.73
-3.68
-7.93
-0.14
1.26
-0.05
0.03

>  <PUBCHEM_SHAPE_SELFOVERLAP>  (1) 
1067.799

>  <PUBCHEM_SHAPE_VOLUME>  (1) 
245.9

>  <PUBCHEM_COORDINATE_TYPE>  (1) 
2
5
10

$$$$
