47475
     RDKit          3D

  9  8  0  0  0  0  0  0  0  0999 V2000
    1.2463    0.4283   -0.0015 N   0  0  0  0  0  0  0  0  0  0  0  0
   -1.2043    0.4708   -0.0025 C   0  0  0  0  0  0  0  0  0  0  0  0
   -2.4742   -0.3829    0.0037 C   0  0  0  0  0  0  0  0  0  0  0  0
    0.0487   -0.4033   -0.0166 C   0  0  0  0  0  0  0  0  0  0  0  0
   -3.7302    0.4880   -0.0179 C   0  0  0  0  0  0  0  0  0  0  0  0
    2.4489   -0.3926   -0.0042 C   0  0  0  0  0  0  0  0  0  0  0  0
    3.6936    0.4909    0.0207 C   0  0  0  0  0  0  0  0  0  0  0  0
   -4.9941   -0.3560    0.0216 C   0  0  0  0  0  0  0  0  0  0  0  0
    4.9653   -0.3431   -0.0033 C   0  0  0  0  0  0  0  0  0  0  0  0
  1  4  1  0
  1  6  1  0
  2  3  1  0
  2  4  1  0
  3  5  1  0
  5  8  1  0
  6  7  1  0
  7  9  1  0
M  END
>  <PUBCHEM_COMPOUND_CID>  (1) 
47475

>  <PUBCHEM_CONFORMER_RMSD>  (1) 
0.6

>  <PUBCHEM_CONFORMER_DIVERSEORDER>  (1) 
1
153
160
34
167
140
21
168
135
36
5
161
79
23
137
152
2
82
20
132
71
62
165
13
134
6
166
73
128
80
143
158
81
123
9
159
78
41
118
103
127
155
164
38
40
133
163
35
115
92
43
146
124
42
29
58
139
14
94
27
141
144
75
52
148
37
39
121
136
28
105
122
56
129
3
147
162
95
85
99
11
90
16
107
66
26
97
157
46
151
61
130
30
59
126
125
17
87
50
51
102
74
145
55
65
33
98
24
68
69
10
149
12
120
53
77
150
8
154
106
49
101
15
119
138
112
86
57
84
142
7
72
44
156
60
19
70
114
76
22
113
88
93
54
45
89
104
32
91
48
100
117
47
131
109
64
83
111
4
110
96
63
31
25
116
108
67
18

>  <PUBCHEM_MMFF94_PARTIAL_CHARGES>  (1) 
4
1 -0.9
20 0.36
4 0.27
6 0.27

>  <PUBCHEM_EFFECTIVE_ROTOR_COUNT>  (1) 
6

>  <PUBCHEM_PHARMACOPHORE_FEATURES>  (1) 
4
1 1 cation
1 1 donor
1 8 hydrophobe
1 9 hydrophobe

>  <PUBCHEM_HEAVY_ATOM_COUNT>  (1) 
9

>  <PUBCHEM_ATOM_DEF_STEREO_COUNT>  (1) 
0

>  <PUBCHEM_ATOM_UDEF_STEREO_COUNT>  (1) 
0

>  <PUBCHEM_BOND_DEF_STEREO_COUNT>  (1) 
0

>  <PUBCHEM_BOND_UDEF_STEREO_COUNT>  (1) 
0

>  <PUBCHEM_ISOTOPIC_ATOM_COUNT>  (1) 
0

>  <PUBCHEM_COMPONENT_COUNT>  (1) 
1

>  <PUBCHEM_CACTVS_TAUTO_COUNT>  (1) 
1

>  <PUBCHEM_CONFORMER_ID>  (1) 
0000B97300000001

>  <PUBCHEM_MMFF94_ENERGY>  (1) 
-8.9082

>  <PUBCHEM_FEATURE_SELFOVERLAP>  (1) 
20.297

>  <PUBCHEM_SHAPE_FINGERPRINT>  (1) 
11062470 55 18410575084663085409
14123238 8 17821729437800718647
17834072 33 18339924921364423837
17834076 25 18409730659732972935
20645477 70 18200033937083837542
20719005 15 18410573989451699682
22485316 2 18410571786170659943
23402539 116 18201995526194176077
366044 4 18409448093887816946
42788 4 18410575084663117893

>  <PUBCHEM_SHAPE_MULTIPOLES>  (1) 
180.23
11.1
0.78
0.61
0.55
0.01
0
-0.72
0.05
-0.02
0
-0.01
0
0.01

>  <PUBCHEM_SHAPE_SELFOVERLAP>  (1) 
311.304

>  <PUBCHEM_SHAPE_VOLUME>  (1) 
119.7

>  <PUBCHEM_COORDINATE_TYPE>  (1) 
2
5
10

$$$$
