47480
     RDKit          3D

 25 28  0  0  0  0  0  0  0  0999 V2000
   -7.1302   -0.1626    1.0993 O   0  0  0  0  0  0  0  0  0  0  0  0
   -5.4392   -1.4700    0.3338 O   0  0  0  0  0  0  0  0  0  0  0  0
    0.2533    0.2343   -1.2963 N   0  0  0  0  0  0  0  0  0  0  0  0
    3.8557   -0.3937    0.7525 N   0  0  0  0  0  0  0  0  0  0  0  0
    1.4748    0.0212   -0.6014 C   0  0  0  0  0  0  0  0  0  0  0  0
    1.8941   -1.2830   -0.3200 C   0  0  0  0  0  0  0  0  0  0  0  0
    2.2472    1.1178   -0.2053 C   0  0  0  0  0  0  0  0  0  0  0  0
    3.1079   -1.4463    0.3687 C   0  0  0  0  0  0  0  0  0  0  0  0
    3.4473    0.8605    0.4789 C   0  0  0  0  0  0  0  0  0  0  0  0
   -1.0649    0.4080   -0.8545 C   0  0  0  0  0  0  0  0  0  0  0  0
    1.1380   -2.4033   -0.7064 C   0  0  0  0  0  0  0  0  0  0  0  0
    1.8502    2.4391   -0.4750 C   0  0  0  0  0  0  0  0  0  0  0  0
    3.5307   -2.7424    0.6518 C   0  0  0  0  0  0  0  0  0  0  0  0
    4.2207    1.9481    0.8759 C   0  0  0  0  0  0  0  0  0  0  0  0
   -3.6992    0.7525    0.0273 C   0  0  0  0  0  0  0  0  0  0  0  0
   -1.3609    0.3860    0.5133 C   0  0  0  0  0  0  0  0  0  0  0  0
   -2.0990    0.6034   -1.7770 C   0  0  0  0  0  0  0  0  0  0  0  0
    1.5829   -3.6885   -0.4113 C   0  0  0  0  0  0  0  0  0  0  0  0
    2.6415    3.5090   -0.0672 C   0  0  0  0  0  0  0  0  0  0  0  0
   -2.6737    0.5577    0.9527 C   0  0  0  0  0  0  0  0  0  0  0  0
   -3.4118    0.7749   -1.3375 C   0  0  0  0  0  0  0  0  0  0  0  0
    2.7818   -3.8580    0.2692 C   0  0  0  0  0  0  0  0  0  0  0  0
    3.8291    3.2624    0.6097 C   0  0  0  0  0  0  0  0  0  0  0  0
   -5.1027    0.9363    0.4969 C   0  0  0  0  0  0  0  0  0  0  0  0
   -5.8734   -0.3632    0.6221 C   0  0  0  0  0  0  0  0  0  0  0  0
  1 25  1  0
  2 25  2  0
  3  5  1  0
  3 10  1  0
  4  8  2  0
  4  9  1  0
  5  6  2  0
  5  7  1  0
  6  8  1  0
  6 11  1  0
  7  9  2  0
  7 12  1  0
  8 13  1  0
  9 14  1  0
 10 16  2  0
 10 17  1  0
 11 18  2  0
 12 19  2  0
 13 22  2  0
 14 23  2  0
 15 20  2  0
 15 21  1  0
 15 24  1  0
 16 20  1  0
 17 21  2  0
 18 22  1  0
 19 23  1  0
 24 25  1  0
M  END
>  <PUBCHEM_COMPOUND_CID>  (1) 
47480

>  <PUBCHEM_CONFORMER_RMSD>  (1) 
0.8

>  <PUBCHEM_CONFORMER_DIVERSEORDER>  (1) 
1
6
8
3
7
5
4
2

>  <PUBCHEM_MMFF94_PARTIAL_CHARGES>  (1) 
37
1 -0.65
10 0.1
11 -0.15
12 -0.15
13 -0.15
14 -0.15
15 -0.14
16 -0.15
17 -0.15
18 -0.15
19 -0.15
2 -0.57
20 -0.15
21 -0.15
22 -0.15
23 -0.15
24 0.2
25 0.66
26 0.4
27 0.15
28 0.15
29 0.15
3 -0.6
30 0.15
31 0.15
32 0.15
33 0.15
34 0.15
35 0.15
36 0.15
37 0.15
38 0.15
4 -0.62
41 0.5
5 0.1
8 0.31
9 0.31

>  <PUBCHEM_EFFECTIVE_ROTOR_COUNT>  (1) 
4

>  <PUBCHEM_PHARMACOPHORE_FEATURES>  (1) 
10
1 1 acceptor
1 2 acceptor
1 3 cation
1 3 donor
1 4 acceptor
3 1 2 25 anion
6 10 15 16 17 20 21 rings
6 4 5 6 7 8 9 rings
6 6 8 11 13 18 22 rings
6 7 9 12 14 19 23 rings

>  <PUBCHEM_HEAVY_ATOM_COUNT>  (1) 
25

>  <PUBCHEM_ATOM_DEF_STEREO_COUNT>  (1) 
0

>  <PUBCHEM_ATOM_UDEF_STEREO_COUNT>  (1) 
0

>  <PUBCHEM_BOND_DEF_STEREO_COUNT>  (1) 
0

>  <PUBCHEM_BOND_UDEF_STEREO_COUNT>  (1) 
0

>  <PUBCHEM_ISOTOPIC_ATOM_COUNT>  (1) 
0

>  <PUBCHEM_COMPONENT_COUNT>  (1) 
1

>  <PUBCHEM_CACTVS_TAUTO_COUNT>  (1) 
2

>  <PUBCHEM_CONFORMER_ID>  (1) 
0000B97800000001

>  <PUBCHEM_MMFF94_ENERGY>  (1) 
94.8662

>  <PUBCHEM_FEATURE_SELFOVERLAP>  (1) 
50.865

>  <PUBCHEM_SHAPE_FINGERPRINT>  (1) 
10090160 65 18341888649358777165
10165383 225 18262528108249022764
10411042 1 17979074886602596550
1100329 8 18340475760470224570
114674 6 18113903719143700931
11582403 64 16018243413231008324
12035758 1 18337652163128608570
12107183 9 17909277879970788289
12403259 226 18043527214006936375
12553582 1 18124865764774479822
12730499 353 18336835267915366112
12788726 201 16895385093568239482
13009979 54 17558834988182316850
13140716 1 18339071709606391784
13533116 47 18336554841585785579
13583140 156 18337381635559227405
13785724 45 17768261115150314783
13955234 65 18411417310717694338
14341114 328 17846502552083226359
146900 427 18059576935909740689
14790565 3 17906174310247123981
14955137 171 18269277872598105366
15142526 21 17912640499365073800
15250474 111 18201147850206442455
15927050 60 18197216065392250526
16126227 98 17906452478574621168
16992610 120 18046641268342830564
17138139 8 17195688570811823742
17492 89 18340207363157142947
17844677 252 18340494357430956449
1813 80 17842844313678692750
18785283 64 18408037416574780918
19319366 153 18130218362907246921
19377110 9 18059848519887816471
1979834 28 18260833743059945709
20157964 124 18411978057980984261
20465049 17 18341908406719639494
20505436 4 17845654875346192644
21049683 271 18262247616914281270
21197605 99 18191874633188015595
21344244 78 18059000675467625625
21756936 100 17842271755836164852
21859007 373 17532358783141620237
2255824 54 18342172246402428926
23557571 272 17385723574048402373
23558518 356 17264958971630043829
23559900 14 18338515227641668315
23572383 38 17896043299220738747
23845131 108 18193833979771303842
239999 70 18131081419400462062
283562 15 17112676650675939136
3117164 225 18053109419753353185
31174 14 18335981965472404294
3178227 256 18409727366379248088
3421961 26 18337390426919457650
350125 39 18265334083165464334
4340502 62 18341338893850461115
474 4 18342168999112065544
5309563 4 18121780525929459250
59755656 520 18197777919754510628
621550 34 18334292089231404021
6679774 75 18040987489347021394
7399639 24 18261947544043941733
8272917 22 18341897380916429292
86090 222 17460056027695953819
8988823 20 18410577275782215119
9777508 108 17908136938782129778

>  <PUBCHEM_SHAPE_MULTIPOLES>  (1) 
492.79
11.8
4.15
1.17
23.04
1.81
-0.27
-0.76
4.87
-7.73
0.23
0.73
-0.14
0.52

>  <PUBCHEM_SHAPE_SELFOVERLAP>  (1) 
1103.824

>  <PUBCHEM_SHAPE_VOLUME>  (1) 
259

>  <PUBCHEM_COORDINATE_TYPE>  (1) 
2
5
10

$$$$
