47496
     RDKit          3D

 17 16  0  0  0  0  0  0  0  0999 V2000
   -7.8085   -1.8267    0.6739 Cl  0  0  0  0  0  0  0  0  0  0  0  0
   -5.4088   -0.1766   -0.2560 O   0  0  0  0  0  0  0  0  0  0  0  0
   -4.3219    1.7766    0.3131 O   0  0  0  0  0  0  0  0  0  0  0  0
    3.2747    0.4020    0.2001 C   0  0  0  0  0  0  0  0  0  0  0  0
    1.9997   -0.4048   -0.0528 C   0  0  0  0  0  0  0  0  0  0  0  0
    4.5600   -0.4046   -0.0094 C   0  0  0  0  0  0  0  0  0  0  0  0
    0.7533    0.4733    0.0798 C   0  0  0  0  0  0  0  0  0  0  0  0
    5.8733    0.3709    0.1437 C   0  0  0  0  0  0  0  0  0  0  0  0
   -0.5251   -0.3382   -0.1404 C   0  0  0  0  0  0  0  0  0  0  0  0
    7.1166   -0.4766   -0.1374 C   0  0  0  0  0  0  0  0  0  0  0  0
   -1.7722    0.5356    0.0267 C   0  0  0  0  0  0  0  0  0  0  0  0
    8.4285    0.2752    0.1032 C   0  0  0  0  0  0  0  0  0  0  0  0
   -3.0679   -0.2537   -0.1599 C   0  0  0  0  0  0  0  0  0  0  0  0
    9.6694   -0.5679   -0.1463 C   0  0  0  0  0  0  0  0  0  0  0  0
   -4.3109    0.5913    0.0108 C   0  0  0  0  0  0  0  0  0  0  0  0
   -6.6686    0.4967   -0.1646 C   0  0  0  0  0  0  0  0  0  0  0  0
   -7.7917   -0.4725   -0.4844 C   0  0  0  0  0  0  0  0  0  0  0  0
  1 17  1  0
  2 15  1  0
  2 16  1  0
  3 15  2  0
  4  5  1  0
  4  6  1  0
  5  7  1  0
  6  8  1  0
  7  9  1  0
  8 10  1  0
  9 11  1  0
 10 12  1  0
 11 13  1  0
 12 14  1  0
 13 15  1  0
 16 17  1  0
M  END
>  <PUBCHEM_COMPOUND_CID>  (1) 
47496

>  <PUBCHEM_CONFORMER_RMSD>  (1) 
1.2

>  <PUBCHEM_CONFORMER_DIVERSEORDER>  (1) 
1
46
7
6
36
88
17
15
62
69
32
56
66
45
87
13
49
74
18
84
67
80
79
90
57
78
40
37
48
30
54
73
11
10
68
83
81
64
14
26
89
71
93
47
65
75
35
22
91
85
50
34
51
27
31
82
19
23
28
44
92
72
76
60
58
8
29
39
4
20
43
24
63
52
12
86
2
16
53
9
42
59
25
61
33
5
77
55
70
3
38
21
41

>  <PUBCHEM_MMFF94_PARTIAL_CHARGES>  (1) 
7
1 -0.29
13 0.06
15 0.66
16 0.28
17 0.29
2 -0.43
3 -0.57

>  <PUBCHEM_EFFECTIVE_ROTOR_COUNT>  (1) 
13

>  <PUBCHEM_PHARMACOPHORE_FEATURES>  (1) 
2
1 14 hydrophobe
1 3 acceptor

>  <PUBCHEM_HEAVY_ATOM_COUNT>  (1) 
17

>  <PUBCHEM_ATOM_DEF_STEREO_COUNT>  (1) 
0

>  <PUBCHEM_ATOM_UDEF_STEREO_COUNT>  (1) 
0

>  <PUBCHEM_BOND_DEF_STEREO_COUNT>  (1) 
0

>  <PUBCHEM_BOND_UDEF_STEREO_COUNT>  (1) 
0

>  <PUBCHEM_ISOTOPIC_ATOM_COUNT>  (1) 
0

>  <PUBCHEM_COMPONENT_COUNT>  (1) 
1

>  <PUBCHEM_CACTVS_TAUTO_COUNT>  (1) 
1

>  <PUBCHEM_CONFORMER_ID>  (1) 
0000B98800000001

>  <PUBCHEM_MMFF94_ENERGY>  (1) 
1.9335

>  <PUBCHEM_FEATURE_SELFOVERLAP>  (1) 
10.148

>  <PUBCHEM_SHAPE_FINGERPRINT>  (1) 
11315181 36 12829211057856162117
11638347 137 16200436849983340126
12091667 2 18273495667240702837
14123256 10 18410573985151457646
14202775 3 18410579479096267514
14251764 18 18260827085849684674
14251764 46 18186519899526715943
14428016 248 13614240417063511306
155225 1 9439414523659388131
16120349 18 17240768424019870116
17834076 25 18408322177143541660
18335252 98 18201723946263231950
21095086 128 18113616777364218178
21150785 3 17748544844391825579
21267235 1 18342740727825698225
21315763 28 18409167706038875052
22224240 67 17385441033946059098
232437 2 18407760331339847162
23521765 1 18342175562101343924
246663 6 18060702796882133454
33684 2 18410854356326841502
4325135 7 18410572885729526998
59682541 35 18272930548787622842
67123 10 18407760348540471076
8209 1 17821728330194970028

>  <PUBCHEM_SHAPE_MULTIPOLES>  (1) 
339.98
32.26
1.13
0.67
26.2
0.11
-0.01
8.03
0.39
-2.13
-0.17
-0.29
0.05
0.49

>  <PUBCHEM_SHAPE_SELFOVERLAP>  (1) 
610.878

>  <PUBCHEM_SHAPE_VOLUME>  (1) 
218.7

>  <PUBCHEM_COORDINATE_TYPE>  (1) 
2
5
10

$$$$
