47503
     RDKit          3D

 20 23  0  0  0  0  0  0  0  0999 V2000
    4.9159   -1.5752   -0.0003 F   0  0  0  0  0  0  0  0  0  0  0  0
    0.1821   -0.2779    0.0001 C   0  0  0  0  0  0  0  0  0  0  0  0
   -0.7836    0.7710    0.0001 C   0  0  0  0  0  0  0  0  0  0  0  0
    1.5957    0.0218    0.0001 C   0  0  0  0  0  0  0  0  0  0  0  0
   -2.1971    0.4713    0.0001 C   0  0  0  0  0  0  0  0  0  0  0  0
   -0.3067   -1.6002   -0.0001 C   0  0  0  0  0  0  0  0  0  0  0  0
   -2.6183   -0.8800   -0.0004 C   0  0  0  0  0  0  0  0  0  0  0  0
    2.0167    1.3731   -0.0003 C   0  0  0  0  0  0  0  0  0  0  0  0
   -1.6681   -1.8958   -0.0005 C   0  0  0  0  0  0  0  0  0  0  0  0
   -0.2948    2.0932    0.0001 C   0  0  0  0  0  0  0  0  0  0  0  0
    1.0665    2.3888   -0.0003 C   0  0  0  0  0  0  0  0  0  0  0  0
    2.6272   -0.9543    0.0003 C   0  0  0  0  0  0  0  0  0  0  0  0
   -3.2288    1.4475    0.0006 C   0  0  0  0  0  0  0  0  0  0  0  0
    0.4982   -2.8628    0.0009 C   0  0  0  0  0  0  0  0  0  0  0  0
   -3.9843   -1.2136   -0.0006 C   0  0  0  0  0  0  0  0  0  0  0  0
    3.3826    1.7068   -0.0002 C   0  0  0  0  0  0  0  0  0  0  0  0
   -4.5849    1.1066    0.0003 C   0  0  0  0  0  0  0  0  0  0  0  0
    3.9834   -0.6134    0.0002 C   0  0  0  0  0  0  0  0  0  0  0  0
   -4.9630   -0.2259   -0.0003 C   0  0  0  0  0  0  0  0  0  0  0  0
    4.3614    0.7191   -0.0001 C   0  0  0  0  0  0  0  0  0  0  0  0
  1 18  1  0
  2  3  1  0
  2  4  1  0
  2  6  2  0
  3  5  2  0
  3 10  1  0
  4  8  2  0
  4 12  1  0
  5  7  1  0
  5 13  1  0
  6  9  1  0
  6 14  1  0
  7  9  2  0
  7 15  1  0
  8 11  1  0
  8 16  1  0
 10 11  2  0
 12 18  2  0
 13 17  2  0
 15 19  2  0
 16 20  2  0
 17 19  1  0
 18 20  1  0
M  END
>  <PUBCHEM_COMPOUND_CID>  (1) 
47503

>  <PUBCHEM_CONFORMER_RMSD>  (1) 
0.6

>  <PUBCHEM_CONFORMER_DIVERSEORDER>  (1) 
1

>  <PUBCHEM_MMFF94_PARTIAL_CHARGES>  (1) 
24
1 -0.19
10 -0.15
11 -0.15
12 -0.15
13 -0.15
14 0.14
15 -0.15
16 -0.15
17 -0.15
18 0.19
19 -0.15
20 -0.15
21 0.15
22 0.15
23 0.15
24 0.15
25 0.15
29 0.15
30 0.15
31 0.15
32 0.15
33 0.15
6 -0.14
9 -0.15

>  <PUBCHEM_EFFECTIVE_ROTOR_COUNT>  (1) 
0

>  <PUBCHEM_PHARMACOPHORE_FEATURES>  (1) 
4
6 2 3 4 8 10 11 rings
6 2 3 5 6 7 9 rings
6 4 8 12 16 18 20 rings
6 5 7 13 15 17 19 rings

>  <PUBCHEM_HEAVY_ATOM_COUNT>  (1) 
20

>  <PUBCHEM_ATOM_DEF_STEREO_COUNT>  (1) 
0

>  <PUBCHEM_ATOM_UDEF_STEREO_COUNT>  (1) 
0

>  <PUBCHEM_BOND_DEF_STEREO_COUNT>  (1) 
0

>  <PUBCHEM_BOND_UDEF_STEREO_COUNT>  (1) 
0

>  <PUBCHEM_ISOTOPIC_ATOM_COUNT>  (1) 
0

>  <PUBCHEM_COMPONENT_COUNT>  (1) 
1

>  <PUBCHEM_CACTVS_TAUTO_COUNT>  (1) 
1

>  <PUBCHEM_CONFORMER_ID>  (1) 
0000B98F00000001

>  <PUBCHEM_MMFF94_ENERGY>  (1) 
86.1925

>  <PUBCHEM_FEATURE_SELFOVERLAP>  (1) 
20.367

>  <PUBCHEM_SHAPE_FINGERPRINT>  (1) 
10062212 137 18341606032015607455
10411042 1 17257934793752983983
10616163 171 18122911090434009910
10906281 52 18340225050006560564
10967382 1 18410575058909118886
11132069 177 18410851070692840344
11471102 20 18410853278300671261
11578080 2 16627141008099286275
12011746 2 18410012121866986559
12403259 226 18339356487355333545
12592029 89 18408042883804794907
12715332 25 18202843274870020799
12788726 201 17988658375720620536
13140716 1 18411140250819664305
138480 1 17906452125796225355
13862211 1 18410569557066990946
14178342 30 17763727086037867632
14790565 3 18410300202514577780
14866123 147 17407409039892756938
15099037 51 18410575076078620607
15196674 1 18410575097563844037
15442244 35 18411136965306968976
15536298 74 18342175596065612312
15848702 151 17846225388541745694
16945 1 18266740177615805413
17349148 13 18131070441558784173
17492 89 18267021854462124263
17804303 29 18410858780296345101
1813 80 17240197751003184852
18186145 218 17968087638092207205
19591789 44 18410291415053291887
200 152 18060416937160570965
20028762 73 18129941307954005847
20510252 161 18272090495728490649
20905425 154 18052539863781222606
21267235 1 18410582776965616162
21279426 13 18266458711213212053
21421861 104 17826231787529439667
221490 88 18191312773712240121
2334 1 18338799034347770592
23402539 116 18272081695266245222
23463225 33 18408885139591442252
23558518 356 17611743801016656994
23559900 14 18342737429986880696
2748010 2 18410294756447930596
3004659 81 18260833670820552438
335352 9 18338517439111943605
34934 24 18339637970984964008
350125 39 18409732876121207717
3680242 22 18263645069658691194
4214541 1 18410855451881404385
474 4 17169555323104250764
495365 180 17346308358530340552
5104073 3 18411138060402174689
59755656 215 18264770961107376871
6138700 20 18337956663035095998
69090 78 18341047505683218239
7364860 26 18340769221951929367
9709674 26 18265900331158065555
9981440 41 17255960598501701352

>  <PUBCHEM_SHAPE_MULTIPOLES>  (1) 
404.32
8.96
2.6
0.61
0.7
0.43
0
-0.09
0
-0.55
0
0.03
-0.01
0

>  <PUBCHEM_SHAPE_SELFOVERLAP>  (1) 
926.979

>  <PUBCHEM_SHAPE_VOLUME>  (1) 
211.4

>  <PUBCHEM_COORDINATE_TYPE>  (1) 
2
5
10

$$$$
