47515
     RDKit          3D

 16 18  0  0  1  0  0  0  0  0999 V2000
   -0.5486    0.0899   -0.4758 N   0  0  0  0  0  0  0  0  0  0  0  0
    1.6296   -0.5684   -1.1155 C   0  0  0  0  0  0  0  0  0  0  0  0
    1.5691    0.9605   -1.0339 C   0  0  0  0  0  0  0  0  0  0  0  0
    2.2743   -1.2150    0.1209 C   0  0  0  0  0  0  0  0  0  0  0  0
    2.8526    1.6156   -0.5339 C   0  0  0  0  0  0  0  0  0  0  0  0
    0.1462   -0.9485   -1.2384 C   0  0  0  0  0  0  0  0  0  0  0  0
    3.6262   -0.5782    0.4590 C   0  0  0  0  0  0  0  0  0  0  0  0
    0.3329    1.2138   -0.1581 C   0  0  0  0  0  0  0  0  0  0  0  0
    3.4616    0.9288    0.6856 C   0  0  0  0  0  0  0  0  0  0  0  0
    4.2411   -1.2422    1.6900 C   0  0  0  0  0  0  0  0  0  0  0  0
   -1.8768    0.0247   -0.1123 C   0  0  0  0  0  0  0  0  0  0  0  0
   -2.5081    1.0702    0.6172 C   0  0  0  0  0  0  0  0  0  0  0  0
   -2.6934   -1.0912   -0.4463 C   0  0  0  0  0  0  0  0  0  0  0  0
   -3.8522    1.0048    0.9844 C   0  0  0  0  0  0  0  0  0  0  0  0
   -4.0376   -1.1564   -0.0792 C   0  0  0  0  0  0  0  0  0  0  0  0
   -4.6169   -0.1085    0.6362 C   0  0  0  0  0  0  0  0  0  0  0  0
  1  6  1  0
  1  8  1  0
  1 11  1  0
  2  3  1  0
  2  4  1  0
  2  6  1  0
  3  5  1  0
  3  8  1  0
  4  7  1  0
  5  9  1  0
  7  9  1  0
  7 10  1  0
 11 12  2  0
 11 13  1  0
 12 14  1  0
 13 15  2  0
 14 16  2  0
 15 16  1  0
M  END
>  <PUBCHEM_COMPOUND_CID>  (1) 
47515

>  <PUBCHEM_CONFORMER_RMSD>  (1) 
0.6

>  <PUBCHEM_CONFORMER_DIVERSEORDER>  (1) 
1
12
15
4
7
9
8
11
14
2
5
6
10
13
3

>  <PUBCHEM_MMFF94_PARTIAL_CHARGES>  (1) 
14
1 -0.84
11 0.1
12 -0.15
13 -0.15
14 -0.15
15 -0.15
16 -0.15
33 0.15
34 0.15
35 0.15
36 0.15
37 0.15
6 0.37
8 0.37

>  <PUBCHEM_EFFECTIVE_ROTOR_COUNT>  (1) 
2.4

>  <PUBCHEM_PHARMACOPHORE_FEATURES>  (1) 
4
1 1 cation
5 1 2 3 6 8 rings
6 11 12 13 14 15 16 rings
6 2 3 4 5 7 9 rings

>  <PUBCHEM_HEAVY_ATOM_COUNT>  (1) 
16

>  <PUBCHEM_ATOM_DEF_STEREO_COUNT>  (1) 
0

>  <PUBCHEM_ATOM_UDEF_STEREO_COUNT>  (1) 
3

>  <PUBCHEM_BOND_DEF_STEREO_COUNT>  (1) 
0

>  <PUBCHEM_BOND_UDEF_STEREO_COUNT>  (1) 
0

>  <PUBCHEM_ISOTOPIC_ATOM_COUNT>  (1) 
0

>  <PUBCHEM_COMPONENT_COUNT>  (1) 
1

>  <PUBCHEM_CACTVS_TAUTO_COUNT>  (1) 
1

>  <PUBCHEM_CONFORMER_ID>  (1) 
0000B99B00000001

>  <PUBCHEM_MMFF94_ENERGY>  (1) 
48.5634

>  <PUBCHEM_FEATURE_SELFOVERLAP>  (1) 
20.465

>  <PUBCHEM_SHAPE_FINGERPRINT>  (1) 
10498660 4 13973416690534163547
10646746 165 17275112682265334297
11132069 177 18060423495443672293
11543360 7 11600002146173582781
12251169 10 18413107247104496006
12644460 14 18040438828206506444
12670546 177 8070025592710940306
12670546 56 18409160026331186905
12707595 3 14562535089072856206
12839892 36 18131062758021223159
13296908 3 13984947367589761293
13533116 47 18040998470744745507
13675066 3 17703789189234073230
13693222 15 18334016098827391461
13705890 14 14779269700480683478
14144814 61 18271817825835234357
14178342 30 18200600198451333631
14251764 30 18120090590402786434
14252887 29 16877939460450781404
14289901 80 17775571944125394183
15375462 189 17967527931198037666
17862501 102 18408317796155853459
1813 80 17677619670564798302
18186145 218 18409176493283110423
19050596 39 18342177773724703803
19862831 5 11025797591498149671
200 152 18341039801134310391
20279233 1 15502373469262698737
20281475 54 17676211289988756943
20432913 95 17458343048033439819
20559304 39 18343028791419274084
20645477 70 15285365032599997818
20671657 53 13984659256740879054
20715895 44 18053386496836845329
20820808 20 11671779386479597564
20871999 31 11963392912064124194
21065198 48 18410012156305936961
21501925 9 18410854365022316767
21637258 2 16515674499946108770
2255824 54 17968670405420332446
22646028 28 18187365436911529955
231179 274 14979952558434741826
23382010 3 10231744604923530220
23402539 116 18272925034434639269
23463225 33 18411422821092377445
23503953 91 18343586218155288705
23557571 272 16486702475506172757
23559900 14 17630904719328298926
25 1 12103558715098558902
26918003 58 18186238450641621131
2838139 119 13326272807111377850
31174 14 17822282509867650484
4047638 21 14261633941249655846
4072396 5 18201434757999575983
42 15 18260550013172104857
474 4 17899422175055618660
5104073 3 18411427236872399497
5281201 14 12535364375650374624
5374978 207 18272376382047628953
573450 72 18413387640261060211
633830 44 12679194803378918141
7097593 13 18339356345115160026
7364860 26 17488195806819761870
74978 22 12252191800499922543
76465 3 17894341172719451826
83771 10 17676482809700559442
90316 7 18336550421775027965

>  <PUBCHEM_SHAPE_MULTIPOLES>  (1) 
324.29
8.95
1.57
1.24
3.69
0.14
-0.12
-1.14
-3.9
-0.54
-0.03
-0.77
-0.18
-1.12

>  <PUBCHEM_SHAPE_SELFOVERLAP>  (1) 
684.469

>  <PUBCHEM_SHAPE_VOLUME>  (1) 
181.7

>  <PUBCHEM_COORDINATE_TYPE>  (1) 
2
5
10

$$$$
