47527
     RDKit          3D

 29 30  0  0  0  0  0  0  0  0999 V2000
   -2.2857    2.9032    0.9882 Cl  0  0  0  0  0  0  0  0  0  0  0  0
    5.3804   -1.6945    2.3651 O   0  0  0  0  0  0  0  0  0  0  0  0
    7.0798    1.2162   -1.4599 O   0  0  0  0  0  0  0  0  0  0  0  0
   -3.2193   -3.1618   -0.3972 O   0  0  0  0  0  0  0  0  0  0  0  0
   -1.2904   -2.2150    0.0522 O   0  0  0  0  0  0  0  0  0  0  0  0
   -7.2717   -0.6042   -0.3974 O   0  0  0  0  0  0  0  0  0  0  0  0
   -7.2255    1.5429    0.0579 O   0  0  0  0  0  0  0  0  0  0  0  0
    5.0428    0.1324    0.2079 N   0  0  0  0  0  0  0  0  0  0  0  0
   -0.5050    0.3900   -0.5149 N   0  0  0  0  0  0  0  0  0  0  0  0
   -1.0783    0.1733    0.5779 N   0  0  0  0  0  0  0  0  0  0  0  0
   -2.5332   -2.1566   -0.0982 N   0  0  0  0  0  0  0  0  0  0  0  0
   -6.6458    0.4409   -0.0966 N   0  0  0  0  0  0  0  0  0  0  0  0
    3.6463    0.1959    0.0207 C   0  0  0  0  0  0  0  0  0  0  0  0
    5.7467   -1.1260    0.0603 C   0  0  0  0  0  0  0  0  0  0  0  0
    5.7904    1.3221    0.5638 C   0  0  0  0  0  0  0  0  0  0  0  0
    3.0905   -0.1527   -1.2103 C   0  0  0  0  0  0  0  0  0  0  0  0
    1.7091   -0.0909   -1.3943 C   0  0  0  0  0  0  0  0  0  0  0  0
    2.8209    0.6062    1.0676 C   0  0  0  0  0  0  0  0  0  0  0  0
    5.1876   -2.1511    1.0322 C   0  0  0  0  0  0  0  0  0  0  0  0
    6.2273    2.0565   -0.6923 C   0  0  0  0  0  0  0  0  0  0  0  0
    0.8835    0.3200   -0.3476 C   0  0  0  0  0  0  0  0  0  0  0  0
    1.4395    0.6683    0.8835 C   0  0  0  0  0  0  0  0  0  0  0  0
    1.1369   -0.4691   -2.7213 C   0  0  0  0  0  0  0  0  0  0  0  0
   -2.4718    0.2440    0.4095 C   0  0  0  0  0  0  0  0  0  0  0  0
   -3.1882   -0.9052    0.0762 C   0  0  0  0  0  0  0  0  0  0  0  0
   -3.1371    1.4581    0.5755 C   0  0  0  0  0  0  0  0  0  0  0  0
   -4.5716   -0.8402   -0.0916 C   0  0  0  0  0  0  0  0  0  0  0  0
   -5.2376    0.3742    0.0746 C   0  0  0  0  0  0  0  0  0  0  0  0
   -4.5205    1.5233    0.4082 C   0  0  0  0  0  0  0  0  0  0  0  0
  1 26  1  0
  2 19  1  0
  3 20  1  0
  4 11  1  0
  5 11  2  0
  6 12  1  0
  7 12  2  0
  8 13  1  0
  8 14  1  0
  8 15  1  0
  9 10  2  0
  9 21  1  0
 10 24  1  0
 11 25  1  0
 12 28  1  0
 13 16  2  0
 13 18  1  0
 14 19  1  0
 15 20  1  0
 16 17  1  0
 17 21  2  0
 17 23  1  0
 18 22  2  0
 21 22  1  0
 24 25  2  0
 24 26  1  0
 25 27  1  0
 26 29  2  0
 27 28  2  0
 28 29  1  0
M  CHG  4   4  -1   6  -1  11   1  12   1
M  END
>  <PUBCHEM_COMPOUND_CID>  (1) 
47527

>  <PUBCHEM_CONFORMER_RMSD>  (1) 
1

>  <PUBCHEM_CONFORMER_DIVERSEORDER>  (1) 
1
2
3
11
10
6
14
5
8
7
4
12
9
13
15

>  <PUBCHEM_MMFF94_PARTIAL_CHARGES>  (1) 
36
1 -0.18
10 -0.18
11 0.91
12 0.91
13 0.1
14 0.37
15 0.37
16 -0.15
17 -0.14
18 -0.15
19 0.28
2 -0.68
20 0.28
21 0.18
22 -0.15
23 0.14
24 0.18
25 0.13
26 0.18
27 -0.15
28 0.13
29 -0.15
3 -0.68
34 0.15
35 0.15
4 -0.52
40 0.15
44 0.4
45 0.4
46 0.15
47 0.15
5 -0.52
6 -0.52
7 -0.52
8 -0.84
9 -0.18

>  <PUBCHEM_EFFECTIVE_ROTOR_COUNT>  (1) 
9

>  <PUBCHEM_PHARMACOPHORE_FEATURES>  (1) 
13
1 2 acceptor
1 2 donor
1 3 acceptor
1 3 donor
1 4 acceptor
1 4 anion
1 5 acceptor
1 6 acceptor
1 6 anion
1 7 acceptor
1 8 cation
6 13 16 17 18 21 22 rings
6 24 25 26 27 28 29 rings

>  <PUBCHEM_HEAVY_ATOM_COUNT>  (1) 
29

>  <PUBCHEM_ATOM_DEF_STEREO_COUNT>  (1) 
0

>  <PUBCHEM_ATOM_UDEF_STEREO_COUNT>  (1) 
0

>  <PUBCHEM_BOND_DEF_STEREO_COUNT>  (1) 
0

>  <PUBCHEM_BOND_UDEF_STEREO_COUNT>  (1) 
0

>  <PUBCHEM_ISOTOPIC_ATOM_COUNT>  (1) 
0

>  <PUBCHEM_COMPONENT_COUNT>  (1) 
1

>  <PUBCHEM_CACTVS_TAUTO_COUNT>  (1) 
1

>  <PUBCHEM_CONFORMER_ID>  (1) 
0000B9A700000001

>  <PUBCHEM_MMFF94_ENERGY>  (1) 
105.8183

>  <PUBCHEM_FEATURE_SELFOVERLAP>  (1) 
66.136

>  <PUBCHEM_SHAPE_FINGERPRINT>  (1) 
10 15 17560788953868474296
10366900 7 17131837564070043753
10906281 52 17917169250616003585
11719270 70 17418374658171832038
11796584 16 18411704305155355842
11991303 11 16343420717223579908
12107183 9 17905043656381067520
12166972 35 18040155106619294677
12236239 1 18039871441176964785
12516196 113 16153708730224630276
12596602 18 18040999561307619160
13383665 225 17844557459647483101
13402501 40 17918274255628173025
13533116 47 18260825969569501738
13911987 19 16343427314319543664
13914758 101 17458622256006377029
14251764 18 18411981377578896527
14341114 176 18412266142601055632
15183329 4 18341897368010279306
15250474 111 18337378418745507338
15849732 13 17675926504014098535
1813 80 16732986393059368758
20511986 3 18260537944409117462
20771845 171 18059869354906142860
21033648 29 16630804392265063464
21792961 116 17560534945276381348
21859007 373 17751914727535938085
22956985 138 17199120916192900174
23402539 116 18273208708318736197
23559900 14 18201432640359627593
3004659 81 18409731730060992842
335352 9 18342174497482516421
34797466 226 17560809857285120444
3633792 109 17749381534539557597
394071 54 16515694372839162132
4073 2 18042127720937023706
4325135 7 18334016112266564796
504579 68 18409173212455727668
59755656 215 16917356921962192604
59755656 520 18409158910251840799
67856867 119 18191873529043667460
7226269 152 18342177769883482185

>  <PUBCHEM_SHAPE_MULTIPOLES>  (1) 
538.56
18.52
2.41
1.45
2.05
0.45
-0.43
-2.88
0.52
0.64
0.51
-2.36
0.31
-1.88

>  <PUBCHEM_SHAPE_SELFOVERLAP>  (1) 
1133.84

>  <PUBCHEM_SHAPE_VOLUME>  (1) 
304.9

>  <PUBCHEM_COORDINATE_TYPE>  (1) 
2
5
10

$$$$
