47520
     RDKit          3D

  8  7  0  0  0  0  0  0  0  0999 V2000
    0.6391    1.0730    0.6024 O   0  0  0  0  0  0  0  0  0  0  0  0
    1.4930   -0.9093   -0.4457 O   0  0  0  0  0  0  0  0  0  0  0  0
   -1.9456   -0.0700    0.4285 O   0  0  0  0  0  0  0  0  0  0  0  0
    0.4444   -0.3204    0.3350 C   0  0  0  0  0  0  0  0  0  0  0  0
   -0.8856   -0.5810   -0.3706 C   0  0  0  0  0  0  0  0  0  0  0  0
    0.6989    1.9001   -0.5516 C   0  0  0  0  0  0  0  0  0  0  0  0
    2.7672   -0.7816    0.1721 C   0  0  0  0  0  0  0  0  0  0  0  0
   -3.2115   -0.3108   -0.1701 C   0  0  0  0  0  0  0  0  0  0  0  0
  1  4  1  0
  1  6  1  0
  2  4  1  0
  2  7  1  0
  3  5  1  0
  3  8  1  0
  4  5  1  0
M  END
>  <PUBCHEM_COMPOUND_CID>  (1) 
47520

>  <PUBCHEM_CONFORMER_RMSD>  (1) 
0.6

>  <PUBCHEM_CONFORMER_DIVERSEORDER>  (1) 
1
7
14
12
8
13
6
4
10
9
5
11
3
2

>  <PUBCHEM_MMFF94_PARTIAL_CHARGES>  (1) 
8
1 -0.56
2 -0.56
3 -0.56
4 0.56
5 0.28
6 0.28
7 0.28
8 0.28

>  <PUBCHEM_EFFECTIVE_ROTOR_COUNT>  (1) 
4

>  <PUBCHEM_PHARMACOPHORE_FEATURES>  (1) 
3
1 1 acceptor
1 2 acceptor
1 3 acceptor

>  <PUBCHEM_HEAVY_ATOM_COUNT>  (1) 
8

>  <PUBCHEM_ATOM_DEF_STEREO_COUNT>  (1) 
0

>  <PUBCHEM_ATOM_UDEF_STEREO_COUNT>  (1) 
0

>  <PUBCHEM_BOND_DEF_STEREO_COUNT>  (1) 
0

>  <PUBCHEM_BOND_UDEF_STEREO_COUNT>  (1) 
0

>  <PUBCHEM_ISOTOPIC_ATOM_COUNT>  (1) 
0

>  <PUBCHEM_COMPONENT_COUNT>  (1) 
1

>  <PUBCHEM_CACTVS_TAUTO_COUNT>  (1) 
1

>  <PUBCHEM_CONFORMER_ID>  (1) 
0000B9A000000001

>  <PUBCHEM_MMFF94_ENERGY>  (1) 
22.489

>  <PUBCHEM_FEATURE_SELFOVERLAP>  (1) 
15.258

>  <PUBCHEM_SHAPE_FINGERPRINT>  (1) 
12932741 1 17531808077643762043
12932764 1 17168130274625128027
20653091 64 18337398239412117923
21040471 1 17836645592821133944
23552423 10 18265891548187335159
23552449 1 18048594824914349828
23552449 11 18336258024379277555
29004967 10 18409452461985322250
5084963 1 18342736338701125747
5460574 1 12107791800062932195

>  <PUBCHEM_SHAPE_MULTIPOLES>  (1) 
147.03
3.94
1.45
0.74
2.05
0.93
0.01
-1.38
0.02
-0.75
0.2
-0.03
0.05
-0.04

>  <PUBCHEM_SHAPE_SELFOVERLAP>  (1) 
259.146

>  <PUBCHEM_SHAPE_VOLUME>  (1) 
97.4

>  <PUBCHEM_COORDINATE_TYPE>  (1) 
2
5
10

$$$$
