47556
     RDKit          3D

 16 16  0  0  0  0  0  0  0  0999 V2000
   -2.1435    0.6044   -0.5735 O   0  0  0  0  0  0  0  0  0  0  0  0
   -3.2090    0.1906    1.4182 O   0  0  0  0  0  0  0  0  0  0  0  0
    1.0548    0.8456    0.4931 N   0  0  0  0  0  0  0  0  0  0  0  0
   -4.2059   -0.2854   -0.6228 N   0  0  0  0  0  0  0  0  0  0  0  0
    2.0700   -0.0929    0.0067 C   0  0  0  0  0  0  0  0  0  0  0  0
    0.2778    1.3652   -0.6589 C   0  0  0  0  0  0  0  0  0  0  0  0
   -0.1500    0.0890    0.9130 C   0  0  0  0  0  0  0  0  0  0  0  0
   -1.0030    1.1115    0.1487 C   0  0  0  0  0  0  0  0  0  0  0  0
    3.0598    0.6225   -0.9540 C   0  0  0  0  0  0  0  0  0  0  0  0
    2.8783   -0.6329    1.2188 C   0  0  0  0  0  0  0  0  0  0  0  0
    1.4103   -1.2182   -0.6936 C   0  0  0  0  0  0  0  0  0  0  0  0
    3.7795    1.8416   -0.3803 C   0  0  0  0  0  0  0  0  0  0  0  0
    3.9517   -1.6675    0.8827 C   0  0  0  0  0  0  0  0  0  0  0  0
   -3.1911    0.1708    0.1919 C   0  0  0  0  0  0  0  0  0  0  0  0
    0.8768   -2.1316   -1.2626 C   0  0  0  0  0  0  0  0  0  0  0  0
   -5.4564   -0.8127   -0.1274 C   0  0  0  0  0  0  0  0  0  0  0  0
  1  8  1  0
  1 14  1  0
  2 14  2  0
  3  5  1  0
  3  6  1  0
  3  7  1  0
  4 14  1  0
  4 16  1  0
  5  9  1  0
  5 10  1  0
  5 11  1  0
  6  8  1  0
  7  8  1  0
  9 12  1  0
 10 13  1  0
 11 15  3  0
M  END
>  <PUBCHEM_COMPOUND_CID>  (1) 
47556

>  <PUBCHEM_CONFORMER_RMSD>  (1) 
0.8

>  <PUBCHEM_CONFORMER_DIVERSEORDER>  (1) 
1
12
14
13
9
3
10
4
8
7
6
5
11
2

>  <PUBCHEM_MMFF94_PARTIAL_CHARGES>  (1) 
14
1 -0.41
11 -0.2
14 0.78
15 -0.18
16 0.3
2 -0.57
3 -0.69
32 0.18
33 0.37
4 -0.73
5 0.47
6 0.21
7 0.21
8 0.26

>  <PUBCHEM_EFFECTIVE_ROTOR_COUNT>  (1) 
6.8

>  <PUBCHEM_PHARMACOPHORE_FEATURES>  (1) 
7
1 12 hydrophobe
1 13 hydrophobe
1 15 hydrophobe
1 2 acceptor
1 3 cation
1 4 donor
4 3 6 7 8 rings

>  <PUBCHEM_HEAVY_ATOM_COUNT>  (1) 
16

>  <PUBCHEM_ATOM_DEF_STEREO_COUNT>  (1) 
0

>  <PUBCHEM_ATOM_UDEF_STEREO_COUNT>  (1) 
0

>  <PUBCHEM_BOND_DEF_STEREO_COUNT>  (1) 
0

>  <PUBCHEM_BOND_UDEF_STEREO_COUNT>  (1) 
0

>  <PUBCHEM_ISOTOPIC_ATOM_COUNT>  (1) 
0

>  <PUBCHEM_COMPONENT_COUNT>  (1) 
1

>  <PUBCHEM_CACTVS_TAUTO_COUNT>  (1) 
2

>  <PUBCHEM_CONFORMER_ID>  (1) 
0000B9C400000001

>  <PUBCHEM_MMFF94_ENERGY>  (1) 
38.3272

>  <PUBCHEM_FEATURE_SELFOVERLAP>  (1) 
35.52

>  <PUBCHEM_SHAPE_FINGERPRINT>  (1) 
10759866 29 18261676003410904622
12616999 72 18271816725906953446
12932764 1 16630240308023784409
13571099 22 16877665638752085144
13922767 16 10665227077027328655
14178342 30 17914053092707101472
14251717 144 18272653437297504111
14252887 29 16128659647667132767
15375358 24 18040156240622009657
16945 1 17988638567130458132
18186145 218 16298390123728334817
200 152 18334852792816384225
20279233 1 17313108579028107921
20281475 54 18272656701509357785
20645477 70 18186798067331382907
21069387 34 17603869948909928363
21119208 17 14706927320151813283
21501502 16 18262243192534035052
21501925 9 18334570201311570560
22485316 2 18187363259705846201
23402539 116 18187638046949069581
23557571 272 16515676741286067149
23559900 14 16950288403747948200
3060560 45 18343027726388762884
3286 77 18200865206386177952
465052 167 18408604738736948450
54040823 5 18261115209251114185
581208 293 18202003204999595703
76465 3 17896590696564558250
81539 233 17822582719512805332

>  <PUBCHEM_SHAPE_MULTIPOLES>  (1) 
307.57
8.64
1.78
1.19
10.34
0.32
0.1
1.46
0.51
-1.73
-0.42
-0.37
0.29
-0.67

>  <PUBCHEM_SHAPE_SELFOVERLAP>  (1) 
608.657

>  <PUBCHEM_SHAPE_VOLUME>  (1) 
183.3

>  <PUBCHEM_COORDINATE_TYPE>  (1) 
2
5
10

$$$$
