47558
     RDKit          3D

 26 29  0  0  0  0  0  0  0  0999 V2000
   -0.3715    0.4953   -1.0886 O   0  0  0  0  0  0  0  0  0  0  0  0
    0.4759    2.0612    0.3470 O   0  0  0  0  0  0  0  0  0  0  0  0
   -3.1346   -0.1493   -0.3025 N   0  0  0  0  0  0  0  0  0  0  0  0
    1.7773    0.3055   -0.4936 N   0  0  0  0  0  0  0  0  0  0  0  0
   -4.5729   -0.0474   -0.0364 C   0  0  0  0  0  0  0  0  0  0  0  0
   -2.4463    1.0301    0.2767 C   0  0  0  0  0  0  0  0  0  0  0  0
   -2.8471    0.3958   -1.6519 C   0  0  0  0  0  0  0  0  0  0  0  0
   -4.8056   -0.0012    1.4881 C   0  0  0  0  0  0  0  0  0  0  0  0
   -5.2912   -1.2720   -0.6406 C   0  0  0  0  0  0  0  0  0  0  0  0
   -1.6685    1.1662   -1.0399 C   0  0  0  0  0  0  0  0  0  0  0  0
   -4.4462   -1.3130    2.1897 C   0  0  0  0  0  0  0  0  0  0  0  0
   -4.9317   -2.5842    0.0601 C   0  0  0  0  0  0  0  0  0  0  0  0
   -5.1706   -2.5012    1.5645 C   0  0  0  0  0  0  0  0  0  0  0  0
   -5.0994    1.1875   -0.6534 C   0  0  0  0  0  0  0  0  0  0  0  0
    0.6285    1.0563   -0.3367 C   0  0  0  0  0  0  0  0  0  0  0  0
   -5.5275    2.1907   -1.1545 C   0  0  0  0  0  0  0  0  0  0  0  0
    3.0441    0.5197    0.0957 C   0  0  0  0  0  0  0  0  0  0  0  0
    4.1193   -0.3347   -0.1626 C   0  0  0  0  0  0  0  0  0  0  0  0
    3.1706    1.6156    0.9398 C   0  0  0  0  0  0  0  0  0  0  0  0
    5.3645   -0.0699    0.4557 C   0  0  0  0  0  0  0  0  0  0  0  0
    3.9981   -1.4442   -1.0150 C   0  0  0  0  0  0  0  0  0  0  0  0
    4.3950    1.8759    1.5480 C   0  0  0  0  0  0  0  0  0  0  0  0
    5.4857    1.0395    1.3085 C   0  0  0  0  0  0  0  0  0  0  0  0
    6.4517   -0.9222    0.2033 C   0  0  0  0  0  0  0  0  0  0  0  0
    5.0890   -2.2803   -1.2547 C   0  0  0  0  0  0  0  0  0  0  0  0
    6.3135   -2.0198   -0.6467 C   0  0  0  0  0  0  0  0  0  0  0  0
  1 10  1  0
  1 15  1  0
  2 15  2  0
  3  5  1  0
  3  6  1  0
  3  7  1  0
  4 15  1  0
  4 17  1  0
  5  8  1  0
  5  9  1  0
  5 14  1  0
  6 10  1  0
  7 10  1  0
  8 11  1  0
  9 12  1  0
 11 13  1  0
 12 13  1  0
 14 16  3  0
 17 18  1  0
 17 19  2  0
 18 20  2  0
 18 21  1  0
 19 22  1  0
 20 23  1  0
 20 24  1  0
 21 25  2  0
 22 23  2  0
 24 26  2  0
 25 26  1  0
M  END
>  <PUBCHEM_COMPOUND_CID>  (1) 
47558

>  <PUBCHEM_CONFORMER_RMSD>  (1) 
0.8

>  <PUBCHEM_CONFORMER_DIVERSEORDER>  (1) 
2
40
3
41
45
33
36
5
48
17
16
46
26
49
34
31
19
20
42
8
15
22
24
51
27
4
30
39
7
52
23
43
35
13
44
25
14
12
18
11
47
29
21
32
28
1
50
6
10
37
9
38

>  <PUBCHEM_MMFF94_PARTIAL_CHARGES>  (1) 
28
1 -0.41
10 0.26
14 -0.2
15 0.78
16 -0.18
17 0.12
19 -0.15
2 -0.57
21 -0.15
22 -0.15
23 -0.15
24 -0.15
25 -0.15
26 -0.15
3 -0.69
4 -0.55
42 0.18
43 0.37
44 0.15
45 0.15
46 0.15
47 0.15
48 0.15
49 0.15
5 0.47
50 0.15
6 0.21
7 0.21

>  <PUBCHEM_EFFECTIVE_ROTOR_COUNT>  (1) 
7

>  <PUBCHEM_PHARMACOPHORE_FEATURES>  (1) 
8
1 16 hydrophobe
1 2 acceptor
1 3 cation
1 4 donor
4 3 6 7 10 rings
6 17 18 19 20 22 23 rings
6 18 20 21 24 25 26 rings
6 5 8 9 11 12 13 rings

>  <PUBCHEM_HEAVY_ATOM_COUNT>  (1) 
26

>  <PUBCHEM_ATOM_DEF_STEREO_COUNT>  (1) 
0

>  <PUBCHEM_ATOM_UDEF_STEREO_COUNT>  (1) 
0

>  <PUBCHEM_BOND_DEF_STEREO_COUNT>  (1) 
0

>  <PUBCHEM_BOND_UDEF_STEREO_COUNT>  (1) 
0

>  <PUBCHEM_ISOTOPIC_ATOM_COUNT>  (1) 
0

>  <PUBCHEM_COMPONENT_COUNT>  (1) 
1

>  <PUBCHEM_CACTVS_TAUTO_COUNT>  (1) 
2

>  <PUBCHEM_CONFORMER_ID>  (1) 
0000B9C600000002

>  <PUBCHEM_MMFF94_ENERGY>  (1) 
84.5681

>  <PUBCHEM_FEATURE_SELFOVERLAP>  (1) 
40.623

>  <PUBCHEM_SHAPE_FINGERPRINT>  (1) 
10864689 126 18194967344389978974
11069576 57 14563070513171975352
11545043 162 18408603664931489761
11796584 16 18259981544080265184
12107183 9 17056695676992283568
12422481 6 16271660978935396096
12596602 18 17561366209725449379
12616971 3 16988558009585440988
12633257 1 15410891881328479400
12730499 353 18200874076353616856
12788726 201 15936967414510478516
13402501 40 18409172103890499662
13690498 29 13335603322824478537
13782708 43 18334574621123497226
13914758 101 17560798772201252753
14341114 176 18060418019434502220
14528608 73 12901552334367731628
14556957 393 14490466457112033383
14856354 85 15430615948354670861
14950920 106 17489313026808780195
15183329 4 15285358418244860418
15238133 3 14333410052053371506
15348495 7 18341331171088066297
15352257 5 18409171008647283514
15361156 5 18335423473521359540
15510800 12 18042692878599386227
15513586 35 15337704088759775971
15537594 2 16950280681133110177
15799311 1 18200319943287501174
15880784 105 18272652380756609387
16990350 14 16381951671948102549
17093844 174 18334288760826863093
17780758 139 18201728340631532243
17844677 252 18272371970620921745
18222031 100 17313100865229934228
18927931 339 17603588543470326299
19377110 9 15410897366391820863
20281389 69 11600009846823156310
21267235 1 17845936222560307622
21315759 148 18409166644691102560
21623969 137 18272370884505619622
2303208 19 18410577284029264958
23081809 10 15410894072041348952
23559900 14 18410005524950733041
239999 70 18335134302849185016
25122255 55 18335144206162996411
25222932 49 17896302762452471634
2838139 119 8935004737399161026
3089732 80 18335708242965033930
312425 54 18342466936824938539
3383291 50 17968379069827426203
3663271 9 17346319340218683227
397830 11 18337951302488272608
4073 2 18408321081663176176
4144715 1 18335421292126852833
508706 21 17967818275382798779
5104073 3 17917999377494129233
59755656 215 18188767236748094014
6009941 240 18337388245392991657
7918774 8 18261399961424872186
8863177 126 18411703184231993798
999808 66 18341902848869045118

>  <PUBCHEM_SHAPE_MULTIPOLES>  (1) 
513.37
19.23
2.58
1.61
6.85
0.92
-0.47
7.51
-1.93
-0.9
-0.13
-1.09
0.16
4.13

>  <PUBCHEM_SHAPE_SELFOVERLAP>  (1) 
1112.343

>  <PUBCHEM_SHAPE_VOLUME>  (1) 
278.4

>  <PUBCHEM_COORDINATE_TYPE>  (1) 
2
5
10

$$$$
