47564
     RDKit          3D

 34 36  0  0  0  0  0  0  0  0999 V2000
   -3.3818    4.5917   -0.3071 Cl  0  0  0  0  0  0  0  0  0  0  0  0
   -2.1497   -0.7082    2.8309 S   0  0  0  0  0  0  0  0  0  0  0  0
    1.4704    2.2750    0.2261 O   0  0  0  0  0  0  0  0  0  0  0  0
   -2.2939   -0.8402   -2.8376 O   0  0  0  0  0  0  0  0  0  0  0  0
    3.5636    0.8490   -1.2727 O   0  0  0  0  0  0  0  0  0  0  0  0
   -3.1759   -1.0803   -0.7306 O   0  0  0  0  0  0  0  0  0  0  0  0
    5.3364   -0.3686   -2.0787 O   0  0  0  0  0  0  0  0  0  0  0  0
    0.6916    0.8347   -1.4375 N   0  0  0  0  0  0  0  0  0  0  0  0
   -0.1441    0.7240    0.7880 N   0  0  0  0  0  0  0  0  0  0  0  0
   -3.8021   -2.4753   -2.4753 N   0  0  0  0  0  0  0  0  0  0  0  0
    5.3264    0.4776    0.0814 N   0  0  0  0  0  0  0  0  0  0  0  0
    0.7328    1.3471   -0.1237 C   0  0  0  0  0  0  0  0  0  0  0  0
   -0.1705   -0.2588   -1.8832 C   0  0  0  0  0  0  0  0  0  0  0  0
    1.5548    1.4112   -2.4588 C   0  0  0  0  0  0  0  0  0  0  0  0
   -1.4267    1.3284    1.0452 C   0  0  0  0  0  0  0  0  0  0  0  0
    0.3199   -0.4179    1.5376 C   0  0  0  0  0  0  0  0  0  0  0  0
   -2.3723    0.7960    1.9314 C   0  0  0  0  0  0  0  0  0  0  0  0
   -0.4721   -1.1167    2.4577 C   0  0  0  0  0  0  0  0  0  0  0  0
   -1.5080    0.2544   -2.3844 C   0  0  0  0  0  0  0  0  0  0  0  0
    2.8962    0.7037   -2.5195 C   0  0  0  0  0  0  0  0  0  0  0  0
   -1.7814    2.5113    0.3547 C   0  0  0  0  0  0  0  0  0  0  0  0
    1.6489   -0.8683    1.3542 C   0  0  0  0  0  0  0  0  0  0  0  0
   -3.6070    1.4472    2.1278 C   0  0  0  0  0  0  0  0  0  0  0  0
    0.0544   -2.2267    3.1487 C   0  0  0  0  0  0  0  0  0  0  0  0
   -3.0074    3.1500    0.5551 C   0  0  0  0  0  0  0  0  0  0  0  0
    2.1632   -1.9683    2.0441 C   0  0  0  0  0  0  0  0  0  0  0  0
   -3.9217    2.6188    1.4477 C   0  0  0  0  0  0  0  0  0  0  0  0
    1.3629   -2.6511    2.9433 C   0  0  0  0  0  0  0  0  0  0  0  0
   -3.1011   -1.4351   -1.9024 C   0  0  0  0  0  0  0  0  0  0  0  0
    4.7972    0.2589   -1.1731 C   0  0  0  0  0  0  0  0  0  0  0  0
   -4.7397   -3.3042   -1.7535 C   0  0  0  0  0  0  0  0  0  0  0  0
    6.6168   -0.0156    0.5045 C   0  0  0  0  0  0  0  0  0  0  0  0
   -4.0296   -4.3681   -0.9423 C   0  0  0  0  0  0  0  0  0  0  0  0
    6.5497   -1.4756    0.9021 C   0  0  0  0  0  0  0  0  0  0  0  0
  1 25  1  0
  2 17  1  0
  2 18  1  0
  3 12  2  0
  4 19  1  0
  4 29  1  0
  5 20  1  0
  5 30  1  0
  6 29  2  0
  7 30  2  0
  8 12  1  0
  8 13  1  0
  8 14  1  0
  9 12  1  0
  9 15  1  0
  9 16  1  0
 10 29  1  0
 10 31  1  0
 11 30  1  0
 11 32  1  0
 13 19  1  0
 14 20  1  0
 15 17  2  0
 15 21  1  0
 16 18  2  0
 16 22  1  0
 17 23  1  0
 18 24  1  0
 21 25  2  0
 22 26  2  0
 23 27  2  0
 24 28  2  0
 25 27  1  0
 26 28  1  0
 31 33  1  0
 32 34  1  0
M  END
>  <PUBCHEM_COMPOUND_CID>  (1) 
47564

>  <PUBCHEM_CONFORMER_RMSD>  (1) 
1.2

>  <PUBCHEM_CONFORMER_DIVERSEORDER>  (1) 
1
25
9
100
38
19
102
40
46
51
68
67
65
81
90
42
76
56
98
58
3
101
70
10
41
45
91
57
95
99
53
24
43
64
5
52
37
71
85
6
33
93
63
74
94
61
2
97
77
12
23
82
49
20
13
87
73
16
62
22
4
78
15
96
17
54
89
21
35
8
47
14
83
28
32
69
29
84
34
31
80
50
75
30
36
88
66
48
60
72
86
27
44
39
59
11
18
26
7
92
55
79

>  <PUBCHEM_MMFF94_PARTIAL_CHARGES>  (1) 
41
1 -0.18
10 -0.73
11 -0.73
12 0.69
13 0.3
14 0.3
15 0.12
16 0.12
17 0.1
18 0.1
19 0.28
2 -0.2
20 0.28
21 -0.15
22 -0.15
23 -0.15
24 -0.15
25 0.18
26 -0.15
27 -0.15
28 -0.15
29 0.78
3 -0.57
30 0.78
31 0.3
32 0.3
4 -0.43
43 0.15
44 0.15
45 0.15
46 0.15
47 0.15
48 0.15
49 0.15
5 -0.43
50 0.37
51 0.37
6 -0.57
7 -0.57
8 -0.66
9 -0.29

>  <PUBCHEM_EFFECTIVE_ROTOR_COUNT>  (1) 
14.4

>  <PUBCHEM_PHARMACOPHORE_FEATURES>  (1) 
8
1 10 donor
1 11 donor
1 3 acceptor
1 6 acceptor
1 7 acceptor
6 15 17 21 23 25 27 rings
6 16 18 22 24 26 28 rings
6 2 9 15 16 17 18 rings

>  <PUBCHEM_HEAVY_ATOM_COUNT>  (1) 
34

>  <PUBCHEM_ATOM_DEF_STEREO_COUNT>  (1) 
0

>  <PUBCHEM_ATOM_UDEF_STEREO_COUNT>  (1) 
0

>  <PUBCHEM_BOND_DEF_STEREO_COUNT>  (1) 
0

>  <PUBCHEM_BOND_UDEF_STEREO_COUNT>  (1) 
0

>  <PUBCHEM_ISOTOPIC_ATOM_COUNT>  (1) 
0

>  <PUBCHEM_COMPONENT_COUNT>  (1) 
1

>  <PUBCHEM_CACTVS_TAUTO_COUNT>  (1) 
3

>  <PUBCHEM_CONFORMER_ID>  (1) 
0000B9CC00000001

>  <PUBCHEM_MMFF94_ENERGY>  (1) 
88.6857

>  <PUBCHEM_FEATURE_SELFOVERLAP>  (1) 
40.627

>  <PUBCHEM_SHAPE_FINGERPRINT>  (1) 
11582403 64 18266194832881634285
12156800 1 17917134023378774059
12422481 6 16629699472925548719
13383661 66 17536893421580513811
14400156 147 17757530212508325594
14747281 78 12976651091806809199
14840074 17 15648775607739440990
15328829 1 18261667087264097573
18603816 31 18265350421554011494
20602899 9 17458902768224221439
23419403 2 16316429068561398061
23536364 44 18116431638505530363
238 59 16588563393003670055
392239 28 14405186188363231270
469060 322 17844271693807513806
563151 248 18337681805969310138

>  <PUBCHEM_SHAPE_MULTIPOLES>  (1) 
656.15
10.7
4.35
3.81
18.22
0.43
1.08
1.24
2.92
-6.5
-0.32
-2.77
2.29
-5.54

>  <PUBCHEM_SHAPE_SELFOVERLAP>  (1) 
1350.996

>  <PUBCHEM_SHAPE_VOLUME>  (1) 
377.4

>  <PUBCHEM_COORDINATE_TYPE>  (1) 
2
5
10

$$$$
